[H]OC(=O)C1([H])C([H])([H])N(C([H])([H])c2nc([H])c([H])c([H])c2C([H])([H])[H])C([H])([H])C([H])([H])C12C(=O)N(c1c([H])c([H])c(-c3c([H])c([H])c([H])c([H])c3[H])c([H])c1[H])C(=O)N2c1nc([H])nc(OC([H])([H])[H])c1[H]


 44 49  0  0  0  0  0  0  0  0999 V2000
    9.7034   23.7377    1.4403 N   0  0  0  0  0  0  0  0  0  0  0  0
    9.9775   24.3999    0.1591 C   0  0  0  0  0  0  0  0  0  0  0  0
    9.1070   24.9833   -0.5500 O   0  0  0  0  0  0  0  0  0  0  0  0
   11.3560   24.2540   -0.1015 N   0  0  0  0  0  0  0  0  0  0  0  0
   11.9264   23.5326    0.9509 C   0  0  0  0  0  0  0  0  0  0  0  0
   13.1382   23.4806    1.3152 O   0  0  0  0  0  0  0  0  0  0  0  0
   10.7521   22.7919    1.5994 C   0  0  0  0  0  0  0  0  0  0  0  0
   10.4278   21.6297    0.6821 C   0  0  0  0  0  0  0  0  0  0  0  0
   11.2465   20.4014    0.9134 C   0  0  0  0  0  0  0  0  0  0  0  0
   12.3685   20.6644    1.7112 N   0  0  0  0  0  0  0  0  0  0  0  0
   12.2037   21.3324    2.9440 C   0  0  0  0  0  0  0  0  0  0  0  0
   11.1341   22.4050    2.9785 C   0  0  0  0  0  0  0  0  0  0  0  0
    6.6084   23.3639    3.4452 C   0  0  0  0  0  0  0  0  0  0  0  0
    7.7113   23.1162    2.6635 C   0  0  0  0  0  0  0  0  0  0  0  0
    8.5570   24.1227    2.2131 C   0  0  0  0  0  0  0  0  0  0  0  0
    8.2623   25.3763    2.5690 N   0  0  0  0  0  0  0  0  0  0  0  0
    7.1830   25.6447    3.3368 C   0  0  0  0  0  0  0  0  0  0  0  0
    6.3573   24.6433    3.7746 N   0  0  0  0  0  0  0  0  0  0  0  0
    6.1850   21.3872    4.8576 C   0  0  0  0  0  0  0  0  0  0  0  0
    5.8117   22.2921    3.8568 O   0  0  0  0  0  0  0  0  0  0  0  0
   12.0685   24.7905   -1.2274 C   0  0  0  0  0  0  0  0  0  0  0  0
   11.8398   26.0225   -1.7527 C   0  0  0  0  0  0  0  0  0  0  0  0
   12.6076   26.4557   -2.8163 C   0  0  0  0  0  0  0  0  0  0  0  0
   13.6029   25.6709   -3.3625 C   0  0  0  0  0  0  0  0  0  0  0  0
   13.8086   24.4277   -2.8082 C   0  0  0  0  0  0  0  0  0  0  0  0
   13.0575   23.9919   -1.7602 C   0  0  0  0  0  0  0  0  0  0  0  0
   14.4276   26.1161   -4.4736 C   0  0  0  0  0  0  0  0  0  0  0  0
   14.8980   27.4320   -4.5031 C   0  0  0  0  0  0  0  0  0  0  0  0
   15.6803   27.9059   -5.5377 C   0  0  0  0  0  0  0  0  0  0  0  0
   15.9857   27.0293   -6.5511 C   0  0  0  0  0  0  0  0  0  0  0  0
   15.5254   25.7263   -6.5305 C   0  0  0  0  0  0  0  0  0  0  0  0
   14.7467   25.2526   -5.5017 C   0  0  0  0  0  0  0  0  0  0  0  0
   10.0465   21.9035    3.7875 C   0  0  0  0  0  0  0  0  0  0  0  0
    9.4019   20.7261    3.4745 O   0  0  0  0  0  0  0  0  0  0  0  0
    9.6362   22.5237    4.8269 O   0  0  0  0  0  0  0  0  0  0  0  0
    8.4094   20.6612    3.4664 H   0  0  0  0  0  0  0  0  0  0  0  0
   13.3518   19.6630    1.7374 C   0  0  0  0  0  0  0  0  0  0  0  0
   14.6338   19.9399    1.0599 C   0  0  0  0  0  0  0  0  0  0  0  0
   15.7733   19.9144    1.7456 N   0  0  0  0  0  0  0  0  0  0  0  0
   16.9430   20.1878    1.1528 C   0  0  0  0  0  0  0  0  0  0  0  0
   17.0207   20.5042   -0.1736 C   0  0  0  0  0  0  0  0  0  0  0  0
   15.8332   20.5351   -0.9024 C   0  0  0  0  0  0  0  0  0  0  0  0
   14.6355   20.2527   -0.2894 C   0  0  0  0  0  0  0  0  0  0  0  0
   13.3544   20.2839   -1.0717 C   0  0  0  0  0  0  0  0  0  0  0  0
 19 20  1  0  0  0
 20 13  1  0  0  0
 13 14  2  0  0  0
 14 15  1  0  0  0
 15 16  2  0  0  0
 16 17  1  0  0  0
 17 18  2  0  0  0
 15  1  1  0  0  0
  1  2  1  0  0  0
  2  3  2  0  0  0
  2  4  1  0  0  0
  4  5  1  0  0  0
  5  6  2  0  0  0
  5  7  1  0  0  0
  7  8  1  0  0  0
  8  9  1  0  0  0
  9 10  1  0  0  0
 10 37  1  0  0  0
 37 38  1  0  0  0
 38 39  2  0  0  0
 39 40  1  0  0  0
 40 41  2  0  0  0
 41 42  1  0  0  0
 42 43  2  0  0  0
 43 44  1  0  0  0
 10 11  1  0  0  0
 11 12  1  0  0  0
 12 33  1  0  0  0
 33 34  1  0  0  0
 33 35  2  0  0  0
  4 21  1  0  0  0
 21 22  2  0  0  0
 22 23  1  0  0  0
 23 24  2  0  0  0
 24 25  1  0  0  0
 25 26  2  0  0  0
 24 27  1  0  0  0
 27 28  2  0  0  0
 28 29  1  0  0  0
 29 30  2  0  0  0
 30 31  1  0  0  0
 31 32  2  0  0  0
 18 13  1  0  0  0
  7  1  1  0  0  0
 12  7  1  0  0  0
 26 21  1  0  0  0
 32 27  1  0  0  0
 43 38  1  0  0  0
 34 36  1  0  0  0
M  END
> <minimizedAffinity>
5.94953

> <CNNscore>
0.5626028180

> <CNNaffinity>
7.5884819031

> <CNN_VS>
4.2693014145

> <CNNaffinity_variance>
0.5747848749

$$$$
[H]OC(=O)C1([H])C([H])([H])N(C([H])([H])c2nc([H])c([H])c([H])c2C([H])([H])[H])C([H])([H])C([H])([H])C12C(=O)N(c1c([H])c([H])c(-c3c([H])c([H])c([H])c([H])c3[H])c([H])c1[H])C(=O)N2c1nc([H])nc(OC([H])([H])[H])c1[H]


 44 49  0  0  0  0  0  0  0  0999 V2000
    9.3695   23.8027    1.8344 N   0  0  0  0  0  0  0  0  0  0  0  0
    9.6510   24.4800    0.5627 C   0  0  0  0  0  0  0  0  0  0  0  0
    8.7912   25.1003   -0.1278 O   0  0  0  0  0  0  0  0  0  0  0  0
   11.0226   24.3004    0.2870 N   0  0  0  0  0  0  0  0  0  0  0  0
   11.5816   23.5444    1.3210 C   0  0  0  0  0  0  0  0  0  0  0  0
   12.7946   23.4520    1.6732 O   0  0  0  0  0  0  0  0  0  0  0  0
   10.3926   22.8252    1.9670 C   0  0  0  0  0  0  0  0  0  0  0  0
   10.0278   21.6893    1.0321 C   0  0  0  0  0  0  0  0  0  0  0  0
   10.8137   20.4347    1.2340 C   0  0  0  0  0  0  0  0  0  0  0  0
   11.9495   20.6517    2.0260 N   0  0  0  0  0  0  0  0  0  0  0  0
   11.8142   21.3017    3.2720 C   0  0  0  0  0  0  0  0  0  0  0  0
   10.7755   22.4030    3.3354 C   0  0  0  0  0  0  0  0  0  0  0  0
    7.0181   26.0650    3.5926 C   0  0  0  0  0  0  0  0  0  0  0  0
    8.0822   25.5615    2.8835 C   0  0  0  0  0  0  0  0  0  0  0  0
    8.2412   24.2055    2.6244 C   0  0  0  0  0  0  0  0  0  0  0  0
    7.3053   23.3771    3.0968 N   0  0  0  0  0  0  0  0  0  0  0  0
    6.2501   23.8487    3.7971 C   0  0  0  0  0  0  0  0  0  0  0  0
    6.1049   25.1879    4.0455 N   0  0  0  0  0  0  0  0  0  0  0  0
    6.7881   28.3808    2.7765 C   0  0  0  0  0  0  0  0  0  0  0  0
    6.9341   27.4434    3.8061 O   0  0  0  0  0  0  0  0  0  0  0  0
   11.7400   24.8370   -0.8357 C   0  0  0  0  0  0  0  0  0  0  0  0
   11.1466   25.2671   -1.9799 C   0  0  0  0  0  0  0  0  0  0  0  0
   11.9285   25.7997   -2.9865 C   0  0  0  0  0  0  0  0  0  0  0  0
   13.2989   25.9076   -2.8635 C   0  0  0  0  0  0  0  0  0  0  0  0
   13.8694   25.4617   -1.6927 C   0  0  0  0  0  0  0  0  0  0  0  0
   13.1076   24.9356   -0.6950 C   0  0  0  0  0  0  0  0  0  0  0  0
   14.1348   26.4762   -3.9080 C   0  0  0  0  0  0  0  0  0  0  0  0
   15.3807   27.0180   -3.5796 C   0  0  0  0  0  0  0  0  0  0  0  0
   16.2103   27.5744   -4.5330 C   0  0  0  0  0  0  0  0  0  0  0  0
   15.7651   27.5779   -5.8332 C   0  0  0  0  0  0  0  0  0  0  0  0
   14.5347   27.0442   -6.1674 C   0  0  0  0  0  0  0  0  0  0  0  0
   13.7075   26.4899   -5.2201 C   0  0  0  0  0  0  0  0  0  0  0  0
    9.6813   21.9175    4.1453 C   0  0  0  0  0  0  0  0  0  0  0  0
    9.2447   22.6114    5.2533 O   0  0  0  0  0  0  0  0  0  0  0  0
    9.0690   20.8297    3.8713 O   0  0  0  0  0  0  0  0  0  0  0  0
    9.0795   22.1560    6.1220 H   0  0  0  0  0  0  0  0  0  0  0  0
   12.9044   19.6229    2.0253 C   0  0  0  0  0  0  0  0  0  0  0  0
   14.1302   19.8227    1.2274 C   0  0  0  0  0  0  0  0  0  0  0  0
   15.3268   19.6659    1.7866 N   0  0  0  0  0  0  0  0  0  0  0  0
   16.4497   19.8676    1.0847 C   0  0  0  0  0  0  0  0  0  0  0  0
   16.4197   20.2420   -0.2285 C   0  0  0  0  0  0  0  0  0  0  0  0
   15.1716   20.4104   -0.8253 C   0  0  0  0  0  0  0  0  0  0  0  0
   14.0223   20.2012   -0.1006 C   0  0  0  0  0  0  0  0  0  0  0  0
   12.6760   20.3805   -0.7407 C   0  0  0  0  0  0  0  0  0  0  0  0
 19 20  1  0  0  0
 20 13  1  0  0  0
 13 14  2  0  0  0
 14 15  1  0  0  0
 15 16  2  0  0  0
 16 17  1  0  0  0
 17 18  2  0  0  0
 15  1  1  0  0  0
  1  2  1  0  0  0
  2  3  2  0  0  0
  2  4  1  0  0  0
  4  5  1  0  0  0
  5  6  2  0  0  0
  5  7  1  0  0  0
  7  8  1  0  0  0
  8  9  1  0  0  0
  9 10  1  0  0  0
 10 37  1  0  0  0
 37 38  1  0  0  0
 38 39  2  0  0  0
 39 40  1  0  0  0
 40 41  2  0  0  0
 41 42  1  0  0  0
 42 43  2  0  0  0
 43 44  1  0  0  0
 10 11  1  0  0  0
 11 12  1  0  0  0
 12 33  1  0  0  0
 33 34  1  0  0  0
 33 35  2  0  0  0
  4 21  1  0  0  0
 21 22  2  0  0  0
 22 23  1  0  0  0
 23 24  2  0  0  0
 24 25  1  0  0  0
 25 26  2  0  0  0
 24 27  1  0  0  0
 27 28  2  0  0  0
 28 29  1  0  0  0
 29 30  2  0  0  0
 30 31  1  0  0  0
 31 32  2  0  0  0
 18 13  1  0  0  0
  7  1  1  0  0  0
 12  7  1  0  0  0
 26 21  1  0  0  0
 32 27  1  0  0  0
 43 38  1  0  0  0
 34 36  1  0  0  0
M  END
> <minimizedAffinity>
4.87655

> <CNNscore>
0.5478157997

> <CNNaffinity>
7.4583601952

> <CNN_VS>
4.0858073235

> <CNNaffinity_variance>
0.5252470374

$$$$
[H]OC(=O)C1([H])C([H])([H])N(C([H])([H])c2nc([H])c([H])c([H])c2C([H])([H])[H])C([H])([H])C([H])([H])C12C(=O)N(c1c([H])c([H])c(-c3c([H])c([H])c([H])c([H])c3[H])c([H])c1[H])C(=O)N2c1nc([H])nc(OC([H])([H])[H])c1[H]


 44 49  0  0  0  0  0  0  0  0999 V2000
   13.6625   22.8927    0.2629 N   0  0  0  0  0  0  0  0  0  0  0  0
   13.9800   24.2171   -0.2851 C   0  0  0  0  0  0  0  0  0  0  0  0
   15.0776   24.8226   -0.1132 O   0  0  0  0  0  0  0  0  0  0  0  0
   12.8518   24.6513   -1.0119 N   0  0  0  0  0  0  0  0  0  0  0  0
   11.8681   23.6624   -0.9249 C   0  0  0  0  0  0  0  0  0  0  0  0
   10.8757   23.4583   -1.6848 O   0  0  0  0  0  0  0  0  0  0  0  0
   12.2432   22.8452    0.3159 C   0  0  0  0  0  0  0  0  0  0  0  0
   11.8279   23.6788    1.5117 C   0  0  0  0  0  0  0  0  0  0  0  0
   10.3990   23.5216    1.9194 C   0  0  0  0  0  0  0  0  0  0  0  0
    9.6401   22.8852    0.9277 N   0  0  0  0  0  0  0  0  0  0  0  0
   10.0897   21.6608    0.3870 C   0  0  0  0  0  0  0  0  0  0  0  0
   11.5897   21.5174    0.2291 C   0  0  0  0  0  0  0  0  0  0  0  0
   15.7533   19.8335    0.1739 C   0  0  0  0  0  0  0  0  0  0  0  0
   14.7620   20.7601   -0.0439 C   0  0  0  0  0  0  0  0  0  0  0  0
   14.7225   21.9880    0.6056 C   0  0  0  0  0  0  0  0  0  0  0  0
   15.7019   22.2538    1.4747 N   0  0  0  0  0  0  0  0  0  0  0  0
   16.6872   21.3582    1.7059 C   0  0  0  0  0  0  0  0  0  0  0  0
   16.7148   20.1512    1.0587 N   0  0  0  0  0  0  0  0  0  0  0  0
   16.7035   17.6347   -0.4130 C   0  0  0  0  0  0  0  0  0  0  0  0
   15.7182   18.6232   -0.5238 O   0  0  0  0  0  0  0  0  0  0  0  0
   12.7404   25.8755   -1.7548 C   0  0  0  0  0  0  0  0  0  0  0  0
   12.7878   25.9468   -3.1109 C   0  0  0  0  0  0  0  0  0  0  0  0
   12.6346   27.1732   -3.7279 C   0  0  0  0  0  0  0  0  0  0  0  0
   12.4346   28.3316   -3.0047 C   0  0  0  0  0  0  0  0  0  0  0  0
   12.3930   28.2256   -1.6328 C   0  0  0  0  0  0  0  0  0  0  0  0
   12.5427   27.0219   -1.0156 C   0  0  0  0  0  0  0  0  0  0  0  0
   12.2599   29.6281   -3.6385 C   0  0  0  0  0  0  0  0  0  0  0  0
   13.3790   30.3386   -4.0816 C   0  0  0  0  0  0  0  0  0  0  0  0
   13.2678   31.5756   -4.6853 C   0  0  0  0  0  0  0  0  0  0  0  0
   12.0036   32.0922   -4.8385 C   0  0  0  0  0  0  0  0  0  0  0  0
   10.8911   31.3968   -4.4038 C   0  0  0  0  0  0  0  0  0  0  0  0
   10.9995   30.1655   -3.8028 C   0  0  0  0  0  0  0  0  0  0  0  0
   12.0373   20.5593    1.2142 C   0  0  0  0  0  0  0  0  0  0  0  0
   12.7368   20.9540    2.3344 O   0  0  0  0  0  0  0  0  0  0  0  0
   11.8038   19.3085    1.0946 O   0  0  0  0  0  0  0  0  0  0  0  0
   13.5647   20.4851    2.6243 H   0  0  0  0  0  0  0  0  0  0  0  0
    8.2466   22.9592    1.0787 C   0  0  0  0  0  0  0  0  0  0  0  0
    7.7201   23.5259    2.3360 C   0  0  0  0  0  0  0  0  0  0  0  0
    7.6457   24.8441    2.4976 N   0  0  0  0  0  0  0  0  0  0  0  0
    7.1943   25.3760    3.6411 C   0  0  0  0  0  0  0  0  0  0  0  0
    6.7929   24.5961    4.6881 C   0  0  0  0  0  0  0  0  0  0  0  0
    6.8673   23.2134    4.5311 C   0  0  0  0  0  0  0  0  0  0  0  0
    7.3303   22.6726    3.3551 C   0  0  0  0  0  0  0  0  0  0  0  0
    7.4106   21.1834    3.1820 C   0  0  0  0  0  0  0  0  0  0  0  0
 19 20  1  0  0  0
 20 13  1  0  0  0
 13 14  2  0  0  0
 14 15  1  0  0  0
 15 16  2  0  0  0
 16 17  1  0  0  0
 17 18  2  0  0  0
 15  1  1  0  0  0
  1  2  1  0  0  0
  2  3  2  0  0  0
  2  4  1  0  0  0
  4  5  1  0  0  0
  5  6  2  0  0  0
  5  7  1  0  0  0
  7  8  1  0  0  0
  8  9  1  0  0  0
  9 10  1  0  0  0
 10 37  1  0  0  0
 37 38  1  0  0  0
 38 39  2  0  0  0
 39 40  1  0  0  0
 40 41  2  0  0  0
 41 42  1  0  0  0
 42 43  2  0  0  0
 43 44  1  0  0  0
 10 11  1  0  0  0
 11 12  1  0  0  0
 12 33  1  0  0  0
 33 34  1  0  0  0
 33 35  2  0  0  0
  4 21  1  0  0  0
 21 22  2  0  0  0
 22 23  1  0  0  0
 23 24  2  0  0  0
 24 25  1  0  0  0
 25 26  2  0  0  0
 24 27  1  0  0  0
 27 28  2  0  0  0
 28 29  1  0  0  0
 29 30  2  0  0  0
 30 31  1  0  0  0
 31 32  2  0  0  0
 18 13  1  0  0  0
  7  1  1  0  0  0
 12  7  1  0  0  0
 26 21  1  0  0  0
 32 27  1  0  0  0
 43 38  1  0  0  0
 34 36  1  0  0  0
M  END
> <minimizedAffinity>
29.47472

> <CNNscore>
0.5261771083

> <CNNaffinity>
7.1900076866

> <CNN_VS>
3.7832174301

> <CNNaffinity_variance>
0.4680400789

$$$$
[H]OC(=O)C1([H])C([H])([H])N(C([H])([H])c2nc([H])c([H])c([H])c2C([H])([H])[H])C([H])([H])C([H])([H])C12C(=O)N(c1c([H])c([H])c(-c3c([H])c([H])c([H])c([H])c3[H])c([H])c1[H])C(=O)N2c1nc([H])nc(OC([H])([H])[H])c1[H]


 44 49  0  0  0  0  0  0  0  0999 V2000
   15.4777   23.6128   -0.3628 N   0  0  0  0  0  0  0  0  0  0  0  0
   15.8899   24.7768   -1.1568 C   0  0  0  0  0  0  0  0  0  0  0  0
   16.6704   25.6855   -0.7496 O   0  0  0  0  0  0  0  0  0  0  0  0
   15.2592   24.6710   -2.4140 N   0  0  0  0  0  0  0  0  0  0  0  0
   14.4826   23.5090   -2.4176 C   0  0  0  0  0  0  0  0  0  0  0  0
   14.0521   22.8428   -3.4050 O   0  0  0  0  0  0  0  0  0  0  0  0
   14.2485   23.1900   -0.9372 C   0  0  0  0  0  0  0  0  0  0  0  0
   13.1906   24.1639   -0.4578 C   0  0  0  0  0  0  0  0  0  0  0  0
   11.7821   23.7320   -0.7072 C   0  0  0  0  0  0  0  0  0  0  0  0
   11.7155   22.6695   -1.6188 N   0  0  0  0  0  0  0  0  0  0  0  0
   12.5061   21.5195   -1.4050 C   0  0  0  0  0  0  0  0  0  0  0  0
   13.8783   21.7604   -0.8092 C   0  0  0  0  0  0  0  0  0  0  0  0
   18.1119   23.7085    2.2429 C   0  0  0  0  0  0  0  0  0  0  0  0
   17.2948   24.0168    1.1818 C   0  0  0  0  0  0  0  0  0  0  0  0
   16.2981   23.1628    0.7252 C   0  0  0  0  0  0  0  0  0  0  0  0
   16.1494   21.9979    1.3624 N   0  0  0  0  0  0  0  0  0  0  0  0
   16.9412   21.6724    2.4082 C   0  0  0  0  0  0  0  0  0  0  0  0
   17.9200   22.5234    2.8487 N   0  0  0  0  0  0  0  0  0  0  0  0
   20.3319   24.2578    3.1659 C   0  0  0  0  0  0  0  0  0  0  0  0
   19.0885   24.6264    2.6386 O   0  0  0  0  0  0  0  0  0  0  0  0
   15.4177   25.5716   -3.5216 C   0  0  0  0  0  0  0  0  0  0  0  0
   14.6916   25.4995   -4.6679 C   0  0  0  0  0  0  0  0  0  0  0  0
   14.8999   26.4392   -5.6588 C   0  0  0  0  0  0  0  0  0  0  0  0
   15.8270   27.4519   -5.5179 C   0  0  0  0  0  0  0  0  0  0  0  0
   16.5470   27.4963   -4.3455 C   0  0  0  0  0  0  0  0  0  0  0  0
   16.3491   26.5752   -3.3632 C   0  0  0  0  0  0  0  0  0  0  0  0
   16.0500   28.4554   -6.5456 C   0  0  0  0  0  0  0  0  0  0  0  0
   15.7909   29.8005   -6.2676 C   0  0  0  0  0  0  0  0  0  0  0  0
   15.9815   30.7918   -7.2101 C   0  0  0  0  0  0  0  0  0  0  0  0
   16.4408   30.4073   -8.4470 C   0  0  0  0  0  0  0  0  0  0  0  0
   16.7000   29.0798   -8.7309 C   0  0  0  0  0  0  0  0  0  0  0  0
   16.5111   28.0917   -7.7944 C   0  0  0  0  0  0  0  0  0  0  0  0
   13.8525   21.2630    0.5476 C   0  0  0  0  0  0  0  0  0  0  0  0
   13.2060   21.9502    1.5524 O   0  0  0  0  0  0  0  0  0  0  0  0
   14.4223   20.1673    0.8762 O   0  0  0  0  0  0  0  0  0  0  0  0
   13.6366   22.1114    2.4345 H   0  0  0  0  0  0  0  0  0  0  0  0
   10.4448   22.3922   -2.1469 C   0  0  0  0  0  0  0  0  0  0  0  0
    9.4701   21.7111   -1.2722 C   0  0  0  0  0  0  0  0  0  0  0  0
    9.3769   22.0422    0.0127 N   0  0  0  0  0  0  0  0  0  0  0  0
    8.5159   21.4175    0.8268 C   0  0  0  0  0  0  0  0  0  0  0  0
    7.6996   20.4178    0.3801 C   0  0  0  0  0  0  0  0  0  0  0  0
    7.7888   20.0613   -0.9642 C   0  0  0  0  0  0  0  0  0  0  0  0
    8.6734   20.7063   -1.7958 C   0  0  0  0  0  0  0  0  0  0  0  0
    8.7713   20.3257   -3.2448 C   0  0  0  0  0  0  0  0  0  0  0  0
 19 20  1  0  0  0
 20 13  1  0  0  0
 13 14  2  0  0  0
 14 15  1  0  0  0
 15 16  2  0  0  0
 16 17  1  0  0  0
 17 18  2  0  0  0
 15  1  1  0  0  0
  1  2  1  0  0  0
  2  3  2  0  0  0
  2  4  1  0  0  0
  4  5  1  0  0  0
  5  6  2  0  0  0
  5  7  1  0  0  0
  7  8  1  0  0  0
  8  9  1  0  0  0
  9 10  1  0  0  0
 10 37  1  0  0  0
 37 38  1  0  0  0
 38 39  2  0  0  0
 39 40  1  0  0  0
 40 41  2  0  0  0
 41 42  1  0  0  0
 42 43  2  0  0  0
 43 44  1  0  0  0
 10 11  1  0  0  0
 11 12  1  0  0  0
 12 33  1  0  0  0
 33 34  1  0  0  0
 33 35  2  0  0  0
  4 21  1  0  0  0
 21 22  2  0  0  0
 22 23  1  0  0  0
 23 24  2  0  0  0
 24 25  1  0  0  0
 25 26  2  0  0  0
 24 27  1  0  0  0
 27 28  2  0  0  0
 28 29  1  0  0  0
 29 30  2  0  0  0
 30 31  1  0  0  0
 31 32  2  0  0  0
 18 13  1  0  0  0
  7  1  1  0  0  0
 12  7  1  0  0  0
 26 21  1  0  0  0
 32 27  1  0  0  0
 43 38  1  0  0  0
 34 36  1  0  0  0
M  END
> <minimizedAffinity>
23.25770

> <CNNscore>
0.5016344786

> <CNNaffinity>
7.5705423355

> <CNN_VS>
3.7976450920

> <CNNaffinity_variance>
0.4145448804

$$$$
[H]OC(=O)C1([H])C([H])([H])N(C([H])([H])c2nc([H])c([H])c([H])c2C([H])([H])[H])C([H])([H])C([H])([H])C12C(=O)N(c1c([H])c([H])c(-c3c([H])c([H])c([H])c([H])c3[H])c([H])c1[H])C(=O)N2c1nc([H])nc(OC([H])([H])[H])c1[H]


 44 49  0  0  0  0  0  0  0  0999 V2000
   13.2261   24.9847   -1.8603 N   0  0  0  0  0  0  0  0  0  0  0  0
   11.9431   24.7681   -1.1806 C   0  0  0  0  0  0  0  0  0  0  0  0
   10.9205   25.4993   -1.3239 O   0  0  0  0  0  0  0  0  0  0  0  0
   12.0864   23.6227   -0.3701 N   0  0  0  0  0  0  0  0  0  0  0  0
   13.3901   23.1414   -0.5193 C   0  0  0  0  0  0  0  0  0  0  0  0
   13.8418   21.9816   -0.2848 O   0  0  0  0  0  0  0  0  0  0  0  0
   14.1917   24.3380   -1.0424 C   0  0  0  0  0  0  0  0  0  0  0  0
   14.4235   25.2444    0.1501 C   0  0  0  0  0  0  0  0  0  0  0  0
   15.6138   24.8930    0.9823 C   0  0  0  0  0  0  0  0  0  0  0  0
   16.0959   23.6102    0.6885 N   0  0  0  0  0  0  0  0  0  0  0  0
   16.3664   23.2594   -0.6521 C   0  0  0  0  0  0  0  0  0  0  0  0
   15.4276   23.8386   -1.6908 C   0  0  0  0  0  0  0  0  0  0  0  0
   12.5238   27.7072   -4.2755 C   0  0  0  0  0  0  0  0  0  0  0  0
   12.5260   26.8974   -3.1651 C   0  0  0  0  0  0  0  0  0  0  0  0
   13.2681   25.7250   -3.0891 C   0  0  0  0  0  0  0  0  0  0  0  0
   14.0018   25.3934   -4.1553 N   0  0  0  0  0  0  0  0  0  0  0  0
   14.0154   26.1736   -5.2587 C   0  0  0  0  0  0  0  0  0  0  0  0
   13.2796   27.3273   -5.3209 N   0  0  0  0  0  0  0  0  0  0  0  0
   11.9813   29.9507   -3.4069 C   0  0  0  0  0  0  0  0  0  0  0  0
   11.7499   28.8708   -4.2672 O   0  0  0  0  0  0  0  0  0  0  0  0
   11.0622   23.0201    0.4366 C   0  0  0  0  0  0  0  0  0  0  0  0
   11.2582   22.5795    1.7070 C   0  0  0  0  0  0  0  0  0  0  0  0
   10.1939   22.0467    2.4082 C   0  0  0  0  0  0  0  0  0  0  0  0
    8.9336   21.9485    1.8541 C   0  0  0  0  0  0  0  0  0  0  0  0
    8.7685   22.4025    0.5650 C   0  0  0  0  0  0  0  0  0  0  0  0
    9.8109   22.9291   -0.1341 C   0  0  0  0  0  0  0  0  0  0  0  0
    7.8005   21.4016    2.5821 C   0  0  0  0  0  0  0  0  0  0  0  0
    7.7690   21.4837    3.9770 C   0  0  0  0  0  0  0  0  0  0  0  0
    6.7187   20.9757    4.7158 C   0  0  0  0  0  0  0  0  0  0  0  0
    5.6912   20.3789    4.0252 C   0  0  0  0  0  0  0  0  0  0  0  0
    5.7136   20.2934    2.6460 C   0  0  0  0  0  0  0  0  0  0  0  0
    6.7579   20.7983    1.9088 C   0  0  0  0  0  0  0  0  0  0  0  0
   16.1662   24.8365   -2.4307 C   0  0  0  0  0  0  0  0  0  0  0  0
   16.5457   24.6260   -3.7389 O   0  0  0  0  0  0  0  0  0  0  0  0
   16.4973   25.9558   -1.9101 O   0  0  0  0  0  0  0  0  0  0  0  0
   17.4704   24.8180   -4.0510 H   0  0  0  0  0  0  0  0  0  0  0  0
   17.0078   23.0710    1.6094 C   0  0  0  0  0  0  0  0  0  0  0  0
   18.3156   23.7401    1.7544 C   0  0  0  0  0  0  0  0  0  0  0  0
   18.6986   24.2139    2.9369 N   0  0  0  0  0  0  0  0  0  0  0  0
   19.8707   24.8460    3.0816 C   0  0  0  0  0  0  0  0  0  0  0  0
   20.7215   25.0336    2.0298 C   0  0  0  0  0  0  0  0  0  0  0  0
   20.3307   24.5425    0.7855 C   0  0  0  0  0  0  0  0  0  0  0  0
   19.1272   23.8937    0.6426 C   0  0  0  0  0  0  0  0  0  0  0  0
   18.7036   23.3622   -0.6962 C   0  0  0  0  0  0  0  0  0  0  0  0
 19 20  1  0  0  0
 20 13  1  0  0  0
 13 14  2  0  0  0
 14 15  1  0  0  0
 15 16  2  0  0  0
 16 17  1  0  0  0
 17 18  2  0  0  0
 15  1  1  0  0  0
  1  2  1  0  0  0
  2  3  2  0  0  0
  2  4  1  0  0  0
  4  5  1  0  0  0
  5  6  2  0  0  0
  5  7  1  0  0  0
  7  8  1  0  0  0
  8  9  1  0  0  0
  9 10  1  0  0  0
 10 37  1  0  0  0
 37 38  1  0  0  0
 38 39  2  0  0  0
 39 40  1  0  0  0
 40 41  2  0  0  0
 41 42  1  0  0  0
 42 43  2  0  0  0
 43 44  1  0  0  0
 10 11  1  0  0  0
 11 12  1  0  0  0
 12 33  1  0  0  0
 33 34  1  0  0  0
 33 35  2  0  0  0
  4 21  1  0  0  0
 21 22  2  0  0  0
 22 23  1  0  0  0
 23 24  2  0  0  0
 24 25  1  0  0  0
 25 26  2  0  0  0
 24 27  1  0  0  0
 27 28  2  0  0  0
 28 29  1  0  0  0
 29 30  2  0  0  0
 30 31  1  0  0  0
 31 32  2  0  0  0
 18 13  1  0  0  0
  7  1  1  0  0  0
 12  7  1  0  0  0
 26 21  1  0  0  0
 32 27  1  0  0  0
 43 38  1  0  0  0
 34 36  1  0  0  0
M  END
> <minimizedAffinity>
20.02826

> <CNNscore>
0.5004214644

> <CNNaffinity>
7.5918326378

> <CNN_VS>
3.7991158962

> <CNNaffinity_variance>
0.5133538246

$$$$
[H]OC(=O)C1([H])C([H])([H])N(C([H])([H])c2nc([H])c([H])c([H])c2C([H])([H])[H])C([H])([H])C([H])([H])C12C(=O)N(c1c([H])c([H])c(-c3c([H])c([H])c([H])c([H])c3[H])c([H])c1[H])C(=O)N2c1nc([H])nc(OC([H])([H])[H])c1[H]


 44 49  0  0  0  0  0  0  0  0999 V2000
    9.3654   24.4197    1.6291 N   0  0  0  0  0  0  0  0  0  0  0  0
    9.8346   25.0966    0.4139 C   0  0  0  0  0  0  0  0  0  0  0  0
    9.1652   25.9489   -0.2390 O   0  0  0  0  0  0  0  0  0  0  0  0
   11.1326   24.6163    0.1413 N   0  0  0  0  0  0  0  0  0  0  0  0
   11.4679   23.6802    1.1234 C   0  0  0  0  0  0  0  0  0  0  0  0
   12.6145   23.2788    1.4817 O   0  0  0  0  0  0  0  0  0  0  0  0
   10.1251   23.2208    1.7013 C   0  0  0  0  0  0  0  0  0  0  0  0
    9.5296   22.2707    0.6814 C   0  0  0  0  0  0  0  0  0  0  0  0
    9.9916   20.8547    0.7995 C   0  0  0  0  0  0  0  0  0  0  0  0
   11.1236   20.7414    1.6182 N   0  0  0  0  0  0  0  0  0  0  0  0
   11.1099   21.3178    2.9070 C   0  0  0  0  0  0  0  0  0  0  0  0
   10.3586   22.6269    3.0392 C   0  0  0  0  0  0  0  0  0  0  0  0
    6.7017   26.8041    2.6079 C   0  0  0  0  0  0  0  0  0  0  0  0
    7.7219   26.1665    1.9435 C   0  0  0  0  0  0  0  0  0  0  0  0
    8.3417   25.0234    2.4336 C   0  0  0  0  0  0  0  0  0  0  0  0
    7.9086   24.5446    3.6034 N   0  0  0  0  0  0  0  0  0  0  0  0
    6.9072   25.1545    4.2754 C   0  0  0  0  0  0  0  0  0  0  0  0
    6.3042   26.2807    3.7811 N   0  0  0  0  0  0  0  0  0  0  0  0
    6.6945   28.6438    0.9657 C   0  0  0  0  0  0  0  0  0  0  0  0
    6.1321   27.9480    2.0425 O   0  0  0  0  0  0  0  0  0  0  0  0
   11.9879   25.0432   -0.9306 C   0  0  0  0  0  0  0  0  0  0  0  0
   12.9891   24.2854   -1.4499 C   0  0  0  0  0  0  0  0  0  0  0  0
   13.7308   24.7789   -2.5058 C   0  0  0  0  0  0  0  0  0  0  0  0
   13.4837   26.0231   -3.0497 C   0  0  0  0  0  0  0  0  0  0  0  0
   12.4636   26.7663   -2.5001 C   0  0  0  0  0  0  0  0  0  0  0  0
   11.7271   26.2889   -1.4599 C   0  0  0  0  0  0  0  0  0  0  0  0
   14.2467   26.5524   -4.1681 C   0  0  0  0  0  0  0  0  0  0  0  0
   14.9323   27.7623   -4.0277 C   0  0  0  0  0  0  0  0  0  0  0  0
   15.6672   28.3104   -5.0605 C   0  0  0  0  0  0  0  0  0  0  0  0
   15.7032   27.6178   -6.2469 C   0  0  0  0  0  0  0  0  0  0  0  0
   15.0287   26.4205   -6.3949 C   0  0  0  0  0  0  0  0  0  0  0  0
   14.2968   25.8732   -5.3683 C   0  0  0  0  0  0  0  0  0  0  0  0
    9.1582   22.3603    3.7988 C   0  0  0  0  0  0  0  0  0  0  0  0
    9.0754   22.6627    5.1410 O   0  0  0  0  0  0  0  0  0  0  0  0
    8.1222   21.8375    3.2632 O   0  0  0  0  0  0  0  0  0  0  0  0
    8.7170   22.0107    5.8012 H   0  0  0  0  0  0  0  0  0  0  0  0
   11.8088   19.5180    1.5529 C   0  0  0  0  0  0  0  0  0  0  0  0
   13.2355   19.5481    1.1750 C   0  0  0  0  0  0  0  0  0  0  0  0
   13.5961   19.9117   -0.0526 N   0  0  0  0  0  0  0  0  0  0  0  0
   14.8840   19.9206   -0.4206 C   0  0  0  0  0  0  0  0  0  0  0  0
   15.8807   19.5586    0.4403 C   0  0  0  0  0  0  0  0  0  0  0  0
   15.5151   19.1747    1.7291 C   0  0  0  0  0  0  0  0  0  0  0  0
   14.1920   19.1682    2.1021 C   0  0  0  0  0  0  0  0  0  0  0  0
   13.7946   18.7564    3.4901 C   0  0  0  0  0  0  0  0  0  0  0  0
 19 20  1  0  0  0
 20 13  1  0  0  0
 13 14  2  0  0  0
 14 15  1  0  0  0
 15 16  2  0  0  0
 16 17  1  0  0  0
 17 18  2  0  0  0
 15  1  1  0  0  0
  1  2  1  0  0  0
  2  3  2  0  0  0
  2  4  1  0  0  0
  4  5  1  0  0  0
  5  6  2  0  0  0
  5  7  1  0  0  0
  7  8  1  0  0  0
  8  9  1  0  0  0
  9 10  1  0  0  0
 10 37  1  0  0  0
 37 38  1  0  0  0
 38 39  2  0  0  0
 39 40  1  0  0  0
 40 41  2  0  0  0
 41 42  1  0  0  0
 42 43  2  0  0  0
 43 44  1  0  0  0
 10 11  1  0  0  0
 11 12  1  0  0  0
 12 33  1  0  0  0
 33 34  1  0  0  0
 33 35  2  0  0  0
  4 21  1  0  0  0
 21 22  2  0  0  0
 22 23  1  0  0  0
 23 24  2  0  0  0
 24 25  1  0  0  0
 25 26  2  0  0  0
 24 27  1  0  0  0
 27 28  2  0  0  0
 28 29  1  0  0  0
 29 30  2  0  0  0
 30 31  1  0  0  0
 31 32  2  0  0  0
 18 13  1  0  0  0
  7  1  1  0  0  0
 12  7  1  0  0  0
 26 21  1  0  0  0
 32 27  1  0  0  0
 43 38  1  0  0  0
 34 36  1  0  0  0
M  END
> <minimizedAffinity>
22.42079

> <CNNscore>
0.4981043339

> <CNNaffinity>
6.9522538185

> <CNN_VS>
3.4629478455

> <CNNaffinity_variance>
0.6022051573

$$$$
[H]OC(=O)C1([H])C([H])([H])N(C([H])([H])c2nc([H])c([H])c([H])c2C([H])([H])[H])C([H])([H])C([H])([H])C12C(=O)N(c1c([H])c([H])c(-c3c([H])c([H])c([H])c([H])c3[H])c([H])c1[H])C(=O)N2c1nc([H])nc(OC([H])([H])[H])c1[H]


 44 49  0  0  0  0  0  0  0  0999 V2000
   13.9611   25.3549   -1.3290 N   0  0  0  0  0  0  0  0  0  0  0  0
   13.1555   25.9526   -0.2571 C   0  0  0  0  0  0  0  0  0  0  0  0
   13.3643   27.0932    0.2492 O   0  0  0  0  0  0  0  0  0  0  0  0
   12.1443   25.0264    0.0732 N   0  0  0  0  0  0  0  0  0  0  0  0
   12.3019   23.8987   -0.7373 C   0  0  0  0  0  0  0  0  0  0  0  0
   11.4510   23.0107   -1.0394 O   0  0  0  0  0  0  0  0  0  0  0  0
   13.7602   23.9535   -1.2049 C   0  0  0  0  0  0  0  0  0  0  0  0
   14.5986   23.5002   -0.0263 C   0  0  0  0  0  0  0  0  0  0  0  0
   14.7605   22.0197    0.0949 C   0  0  0  0  0  0  0  0  0  0  0  0
   13.8461   21.3268   -0.7102 N   0  0  0  0  0  0  0  0  0  0  0  0
   13.7366   21.6555   -2.0789 C   0  0  0  0  0  0  0  0  0  0  0  0
   13.9029   23.1216   -2.4234 C   0  0  0  0  0  0  0  0  0  0  0  0
   14.8639   27.1945   -4.4175 C   0  0  0  0  0  0  0  0  0  0  0  0
   14.2440   26.3773   -3.5028 C   0  0  0  0  0  0  0  0  0  0  0  0
   14.7185   26.1983   -2.2090 C   0  0  0  0  0  0  0  0  0  0  0  0
   15.8271   26.8602   -1.8654 N   0  0  0  0  0  0  0  0  0  0  0  0
   16.4544   27.6693   -2.7476 C   0  0  0  0  0  0  0  0  0  0  0  0
   15.9762   27.8374   -4.0201 N   0  0  0  0  0  0  0  0  0  0  0  0
   12.9618   27.1254   -5.9856 C   0  0  0  0  0  0  0  0  0  0  0  0
   14.3180   27.3194   -5.6978 O   0  0  0  0  0  0  0  0  0  0  0  0
   11.1005   25.2184    1.0410 C   0  0  0  0  0  0  0  0  0  0  0  0
   11.1350   26.1638    2.0164 C   0  0  0  0  0  0  0  0  0  0  0  0
   10.0600   26.2868    2.8752 C   0  0  0  0  0  0  0  0  0  0  0  0
    8.9489   25.4747    2.7710 C   0  0  0  0  0  0  0  0  0  0  0  0
    8.9456   24.5263    1.7733 C   0  0  0  0  0  0  0  0  0  0  0  0
    9.9998   24.3974    0.9221 C   0  0  0  0  0  0  0  0  0  0  0  0
    7.8045   25.5988    3.6588 C   0  0  0  0  0  0  0  0  0  0  0  0
    7.1169   24.4521    4.0663 C   0  0  0  0  0  0  0  0  0  0  0  0
    6.0211   24.5158    4.9043 C   0  0  0  0  0  0  0  0  0  0  0  0
    5.6236   25.7603    5.3307 C   0  0  0  0  0  0  0  0  0  0  0  0
    6.2975   26.8996    4.9332 C   0  0  0  0  0  0  0  0  0  0  0  0
    7.3883   26.8386    4.0993 C   0  0  0  0  0  0  0  0  0  0  0  0
   15.1692   23.2632   -3.1057 C   0  0  0  0  0  0  0  0  0  0  0  0
   16.3385   23.4862   -2.4109 O   0  0  0  0  0  0  0  0  0  0  0  0
   15.2633   23.1855   -4.3778 O   0  0  0  0  0  0  0  0  0  0  0  0
   16.9835   24.1909   -2.6880 H   0  0  0  0  0  0  0  0  0  0  0  0
   13.7111   19.9550   -0.4452 C   0  0  0  0  0  0  0  0  0  0  0  0
   14.9446   19.1658   -0.2591 C   0  0  0  0  0  0  0  0  0  0  0  0
   15.9264   19.6283    0.5100 N   0  0  0  0  0  0  0  0  0  0  0  0
   17.0629   18.9375    0.6701 C   0  0  0  0  0  0  0  0  0  0  0  0
   17.2665   17.7350    0.0553 C   0  0  0  0  0  0  0  0  0  0  0  0
   16.2454   17.2406   -0.7540 C   0  0  0  0  0  0  0  0  0  0  0  0
   15.0806   17.9530   -0.9142 C   0  0  0  0  0  0  0  0  0  0  0  0
   13.9779   17.4227   -1.7843 C   0  0  0  0  0  0  0  0  0  0  0  0
 19 20  1  0  0  0
 20 13  1  0  0  0
 13 14  2  0  0  0
 14 15  1  0  0  0
 15 16  2  0  0  0
 16 17  1  0  0  0
 17 18  2  0  0  0
 15  1  1  0  0  0
  1  2  1  0  0  0
  2  3  2  0  0  0
  2  4  1  0  0  0
  4  5  1  0  0  0
  5  6  2  0  0  0
  5  7  1  0  0  0
  7  8  1  0  0  0
  8  9  1  0  0  0
  9 10  1  0  0  0
 10 37  1  0  0  0
 37 38  1  0  0  0
 38 39  2  0  0  0
 39 40  1  0  0  0
 40 41  2  0  0  0
 41 42  1  0  0  0
 42 43  2  0  0  0
 43 44  1  0  0  0
 10 11  1  0  0  0
 11 12  1  0  0  0
 12 33  1  0  0  0
 33 34  1  0  0  0
 33 35  2  0  0  0
  4 21  1  0  0  0
 21 22  2  0  0  0
 22 23  1  0  0  0
 23 24  2  0  0  0
 24 25  1  0  0  0
 25 26  2  0  0  0
 24 27  1  0  0  0
 27 28  2  0  0  0
 28 29  1  0  0  0
 29 30  2  0  0  0
 30 31  1  0  0  0
 31 32  2  0  0  0
 18 13  1  0  0  0
  7  1  1  0  0  0
 12  7  1  0  0  0
 26 21  1  0  0  0
 32 27  1  0  0  0
 43 38  1  0  0  0
 34 36  1  0  0  0
M  END
> <minimizedAffinity>
37.17066

> <CNNscore>
0.4959371388

> <CNNaffinity>
7.2481307983

> <CNN_VS>
3.5946173668

> <CNNaffinity_variance>
0.7566712499

$$$$
[H]OC(=O)C1([H])C([H])([H])N(C([H])([H])c2nc([H])c([H])c([H])c2C([H])([H])[H])C([H])([H])C([H])([H])C12C(=O)N(c1c([H])c([H])c(-c3c([H])c([H])c([H])c([H])c3[H])c([H])c1[H])C(=O)N2c1nc([H])nc(OC([H])([H])[H])c1[H]


 44 49  0  0  0  0  0  0  0  0999 V2000
   10.4189   22.2212   -0.4012 N   0  0  0  0  0  0  0  0  0  0  0  0
   10.7100   22.9758   -1.6263 C   0  0  0  0  0  0  0  0  0  0  0  0
    9.9729   22.9902   -2.6546 O   0  0  0  0  0  0  0  0  0  0  0  0
   11.9313   23.6513   -1.4222 N   0  0  0  0  0  0  0  0  0  0  0  0
   12.3959   23.3381   -0.1418 C   0  0  0  0  0  0  0  0  0  0  0  0
   13.2225   23.9691    0.5812 O   0  0  0  0  0  0  0  0  0  0  0  0
   11.6803   22.0340    0.2262 C   0  0  0  0  0  0  0  0  0  0  0  0
   12.3854   20.9342   -0.5423 C   0  0  0  0  0  0  0  0  0  0  0  0
   13.6007   20.3811    0.1284 C   0  0  0  0  0  0  0  0  0  0  0  0
   14.0365   21.2012    1.1781 N   0  0  0  0  0  0  0  0  0  0  0  0
   13.1190   21.6034    2.1730 C   0  0  0  0  0  0  0  0  0  0  0  0
   11.7054   21.8745    1.6997 C   0  0  0  0  0  0  0  0  0  0  0  0
    7.3411   20.1584   -0.3022 C   0  0  0  0  0  0  0  0  0  0  0  0
    8.6029   20.6323   -0.5702 C   0  0  0  0  0  0  0  0  0  0  0  0
    9.0667   21.8523   -0.0930 C   0  0  0  0  0  0  0  0  0  0  0  0
    8.2296   22.5763    0.6555 N   0  0  0  0  0  0  0  0  0  0  0  0
    6.9839   22.1313    0.9322 C   0  0  0  0  0  0  0  0  0  0  0  0
    6.5389   20.9265    0.4560 N   0  0  0  0  0  0  0  0  0  0  0  0
    5.8804   18.7460   -1.6998 C   0  0  0  0  0  0  0  0  0  0  0  0
    6.9557   18.9190   -0.8202 O   0  0  0  0  0  0  0  0  0  0  0  0
   12.5716   24.5453   -2.3462 C   0  0  0  0  0  0  0  0  0  0  0  0
   12.0956   25.7781   -2.6623 C   0  0  0  0  0  0  0  0  0  0  0  0
   12.8096   26.5730   -3.5379 C   0  0  0  0  0  0  0  0  0  0  0  0
   13.9957   26.1498   -4.1028 C   0  0  0  0  0  0  0  0  0  0  0  0
   14.4500   24.8955   -3.7631 C   0  0  0  0  0  0  0  0  0  0  0  0
   13.7538   24.1048   -2.9013 C   0  0  0  0  0  0  0  0  0  0  0  0
   14.7653   26.9780   -5.0164 C   0  0  0  0  0  0  0  0  0  0  0  0
   15.0470   26.5116   -6.3036 C   0  0  0  0  0  0  0  0  0  0  0  0
   15.7778   27.2568   -7.2077 C   0  0  0  0  0  0  0  0  0  0  0  0
   16.2250   28.4891   -6.7951 C   0  0  0  0  0  0  0  0  0  0  0  0
   15.9511   28.9588   -5.5244 C   0  0  0  0  0  0  0  0  0  0  0  0
   15.2239   28.2187   -4.6230 C   0  0  0  0  0  0  0  0  0  0  0  0
   10.8696   20.8094    2.2056 C   0  0  0  0  0  0  0  0  0  0  0  0
    9.7005   21.0749    2.8857 O   0  0  0  0  0  0  0  0  0  0  0  0
   11.1727   19.5784    2.0439 O   0  0  0  0  0  0  0  0  0  0  0  0
    9.4789   20.6168    3.7403 H   0  0  0  0  0  0  0  0  0  0  0  0
   15.3244   20.9368    1.6699 C   0  0  0  0  0  0  0  0  0  0  0  0
   16.3551   21.9789    1.4942 C   0  0  0  0  0  0  0  0  0  0  0  0
   17.2320   22.2244    2.4637 N   0  0  0  0  0  0  0  0  0  0  0  0
   18.1581   23.1831    2.3317 C   0  0  0  0  0  0  0  0  0  0  0  0
   18.2448   23.9492    1.2042 C   0  0  0  0  0  0  0  0  0  0  0  0
   17.3307   23.7020    0.1818 C   0  0  0  0  0  0  0  0  0  0  0  0
   16.3829   22.7161    0.3219 C   0  0  0  0  0  0  0  0  0  0  0  0
   15.3974   22.4463   -0.7781 C   0  0  0  0  0  0  0  0  0  0  0  0
 19 20  1  0  0  0
 20 13  1  0  0  0
 13 14  2  0  0  0
 14 15  1  0  0  0
 15 16  2  0  0  0
 16 17  1  0  0  0
 17 18  2  0  0  0
 15  1  1  0  0  0
  1  2  1  0  0  0
  2  3  2  0  0  0
  2  4  1  0  0  0
  4  5  1  0  0  0
  5  6  2  0  0  0
  5  7  1  0  0  0
  7  8  1  0  0  0
  8  9  1  0  0  0
  9 10  1  0  0  0
 10 37  1  0  0  0
 37 38  1  0  0  0
 38 39  2  0  0  0
 39 40  1  0  0  0
 40 41  2  0  0  0
 41 42  1  0  0  0
 42 43  2  0  0  0
 43 44  1  0  0  0
 10 11  1  0  0  0
 11 12  1  0  0  0
 12 33  1  0  0  0
 33 34  1  0  0  0
 33 35  2  0  0  0
  4 21  1  0  0  0
 21 22  2  0  0  0
 22 23  1  0  0  0
 23 24  2  0  0  0
 24 25  1  0  0  0
 25 26  2  0  0  0
 24 27  1  0  0  0
 27 28  2  0  0  0
 28 29  1  0  0  0
 29 30  2  0  0  0
 30 31  1  0  0  0
 31 32  2  0  0  0
 18 13  1  0  0  0
  7  1  1  0  0  0
 12  7  1  0  0  0
 26 21  1  0  0  0
 32 27  1  0  0  0
 43 38  1  0  0  0
 34 36  1  0  0  0
M  END
> <minimizedAffinity>
6.74625

> <CNNscore>
0.4922008216

> <CNNaffinity>
7.6798906326

> <CNN_VS>
3.7800483704

> <CNNaffinity_variance>
0.3895857036

$$$$
[H]OC(=O)C1([H])C([H])([H])N(C([H])([H])c2nc([H])c([H])c([H])c2C([H])([H])[H])C([H])([H])C([H])([H])C12C(=O)N(c1c([H])c([H])c(-c3c([H])c([H])c([H])c([H])c3[H])c([H])c1[H])C(=O)N2c1nc([H])nc(OC([H])([H])[H])c1[H]


 44 49  0  0  0  0  0  0  0  0999 V2000
   13.2066   25.2182   -2.5430 N   0  0  0  0  0  0  0  0  0  0  0  0
   11.8605   24.8125   -2.1205 C   0  0  0  0  0  0  0  0  0  0  0  0
   10.8079   25.4822   -2.3310 O   0  0  0  0  0  0  0  0  0  0  0  0
   11.9846   23.5724   -1.4598 N   0  0  0  0  0  0  0  0  0  0  0  0
   13.3351   23.2125   -1.4548 C   0  0  0  0  0  0  0  0  0  0  0  0
   13.8525   22.0659   -1.3077 O   0  0  0  0  0  0  0  0  0  0  0  0
   14.0915   24.5275   -1.6715 C   0  0  0  0  0  0  0  0  0  0  0  0
   14.0511   25.2610   -0.3457 C   0  0  0  0  0  0  0  0  0  0  0  0
   15.1271   24.8754    0.6168 C   0  0  0  0  0  0  0  0  0  0  0  0
   15.7670   23.6879    0.2362 N   0  0  0  0  0  0  0  0  0  0  0  0
   16.2721   23.5602   -1.0761 C   0  0  0  0  0  0  0  0  0  0  0  0
   15.4538   24.2191   -2.1679 C   0  0  0  0  0  0  0  0  0  0  0  0
   14.3847   26.5272   -5.8044 C   0  0  0  0  0  0  0  0  0  0  0  0
   14.1905   25.7499   -4.6878 C   0  0  0  0  0  0  0  0  0  0  0  0
   13.3670   26.1338   -3.6363 C   0  0  0  0  0  0  0  0  0  0  0  0
   12.7499   27.3143   -3.7402 N   0  0  0  0  0  0  0  0  0  0  0  0
   12.9257   28.0964   -4.8283 C   0  0  0  0  0  0  0  0  0  0  0  0
   13.7400   27.7061   -5.8583 N   0  0  0  0  0  0  0  0  0  0  0  0
   15.7168   24.7534   -6.8819 C   0  0  0  0  0  0  0  0  0  0  0  0
   15.2287   26.0639   -6.8173 O   0  0  0  0  0  0  0  0  0  0  0  0
   10.9099   22.7855   -0.9227 C   0  0  0  0  0  0  0  0  0  0  0  0
   10.2476   23.0885    0.2244 C   0  0  0  0  0  0  0  0  0  0  0  0
    9.2034   22.2819    0.6340 C   0  0  0  0  0  0  0  0  0  0  0  0
    8.8126   21.1740   -0.0903 C   0  0  0  0  0  0  0  0  0  0  0  0
    9.5046   20.8937   -1.2468 C   0  0  0  0  0  0  0  0  0  0  0  0
   10.5347   21.6822   -1.6588 C   0  0  0  0  0  0  0  0  0  0  0  0
    7.7088   20.3218    0.3201 C   0  0  0  0  0  0  0  0  0  0  0  0
    7.3602   19.2162   -0.4608 C   0  0  0  0  0  0  0  0  0  0  0  0
    6.3173   18.3785   -0.1179 C   0  0  0  0  0  0  0  0  0  0  0  0
    5.6240   18.6712    1.0321 C   0  0  0  0  0  0  0  0  0  0  0  0
    5.9617   19.7621    1.8107 C   0  0  0  0  0  0  0  0  0  0  0  0
    6.9993   20.5970    1.4713 C   0  0  0  0  0  0  0  0  0  0  0  0
   16.2001   25.3658   -2.6336 C   0  0  0  0  0  0  0  0  0  0  0  0
   16.7348   25.4075   -3.9033 O   0  0  0  0  0  0  0  0  0  0  0  0
   16.3953   26.3901   -1.8947 O   0  0  0  0  0  0  0  0  0  0  0  0
   17.6732   25.6952   -4.0648 H   0  0  0  0  0  0  0  0  0  0  0  0
   16.5732   23.0842    1.2139 C   0  0  0  0  0  0  0  0  0  0  0  0
   17.9066   23.6672    1.4618 C   0  0  0  0  0  0  0  0  0  0  0  0
   18.2717   24.0045    2.6957 N   0  0  0  0  0  0  0  0  0  0  0  0
   19.4677   24.5578    2.9357 C   0  0  0  0  0  0  0  0  0  0  0  0
   20.3622   24.8010    1.9326 C   0  0  0  0  0  0  0  0  0  0  0  0
   19.9906   24.4527    0.6354 C   0  0  0  0  0  0  0  0  0  0  0  0
   18.7623   23.8842    0.3946 C   0  0  0  0  0  0  0  0  0  0  0  0
   18.3592   23.5067   -1.0015 C   0  0  0  0  0  0  0  0  0  0  0  0
 19 20  1  0  0  0
 20 13  1  0  0  0
 13 14  2  0  0  0
 14 15  1  0  0  0
 15 16  2  0  0  0
 16 17  1  0  0  0
 17 18  2  0  0  0
 15  1  1  0  0  0
  1  2  1  0  0  0
  2  3  2  0  0  0
  2  4  1  0  0  0
  4  5  1  0  0  0
  5  6  2  0  0  0
  5  7  1  0  0  0
  7  8  1  0  0  0
  8  9  1  0  0  0
  9 10  1  0  0  0
 10 37  1  0  0  0
 37 38  1  0  0  0
 38 39  2  0  0  0
 39 40  1  0  0  0
 40 41  2  0  0  0
 41 42  1  0  0  0
 42 43  2  0  0  0
 43 44  1  0  0  0
 10 11  1  0  0  0
 11 12  1  0  0  0
 12 33  1  0  0  0
 33 34  1  0  0  0
 33 35  2  0  0  0
  4 21  1  0  0  0
 21 22  2  0  0  0
 22 23  1  0  0  0
 23 24  2  0  0  0
 24 25  1  0  0  0
 25 26  2  0  0  0
 24 27  1  0  0  0
 27 28  2  0  0  0
 28 29  1  0  0  0
 29 30  2  0  0  0
 30 31  1  0  0  0
 31 32  2  0  0  0
 18 13  1  0  0  0
  7  1  1  0  0  0
 12  7  1  0  0  0
 26 21  1  0  0  0
 32 27  1  0  0  0
 43 38  1  0  0  0
 34 36  1  0  0  0
M  END
> <minimizedAffinity>
16.00355

> <CNNscore>
0.4901759923

> <CNNaffinity>
7.6895608902

> <CNN_VS>
3.7692382336

> <CNNaffinity_variance>
0.4355305731

$$$$
[H]c1nc(C([H])([H])N2C([H])([H])C([H])([H])C3(C(=O)N(c4c([H])c([H])c(-n5nc([H])c([H])c5[H])c([H])c4[H])C(=O)N3c3nc([H])n([H])c(=O)c3[H])C([H])([H])C2([H])[H])c(C([H])([H])[H])c([H])c1[H]


 39 44  0  0  0  0  0  0  0  0999 V2000
   10.0816   23.3138   -0.3379 N   0  0  0  0  0  0  0  0  0  0  0  0
   10.6712   23.8677   -1.5064 C   0  0  0  0  0  0  0  0  0  0  0  0
   12.0430   23.2655   -1.7324 C   0  0  0  0  0  0  0  0  0  0  0  0
   12.9884   23.8621   -0.7076 C   0  0  0  0  0  0  0  0  0  0  0  0
   12.2810   23.8587    0.5953 C   0  0  0  0  0  0  0  0  0  0  0  0
   11.1139   22.8651    0.5966 C   0  0  0  0  0  0  0  0  0  0  0  0
   14.3009   23.2740   -0.7248 N   0  0  0  0  0  0  0  0  0  0  0  0
   15.0031   23.8884   -1.8426 C   0  0  0  0  0  0  0  0  0  0  0  0
   16.0063   23.4115   -2.4404 O   0  0  0  0  0  0  0  0  0  0  0  0
   14.3618   25.1249   -2.1481 N   0  0  0  0  0  0  0  0  0  0  0  0
   13.2894   25.2495   -1.2237 C   0  0  0  0  0  0  0  0  0  0  0  0
   12.7216   26.3012   -0.9129 O   0  0  0  0  0  0  0  0  0  0  0  0
   14.9488   22.3099    0.0685 C   0  0  0  0  0  0  0  0  0  0  0  0
   14.7160   20.9440   -0.0319 C   0  0  0  0  0  0  0  0  0  0  0  0
   15.3875   20.0461    0.7704 C   0  0  0  0  0  0  0  0  0  0  0  0
   15.1655   18.8259    0.6640 O   0  0  0  0  0  0  0  0  0  0  0  0
   16.2805   20.4826    1.6651 N   0  0  0  0  0  0  0  0  0  0  0  0
   16.5064   21.8082    1.7632 C   0  0  0  0  0  0  0  0  0  0  0  0
   15.8500   22.6930    0.9778 N   0  0  0  0  0  0  0  0  0  0  0  0
   16.8104   19.8250    2.2923 H   0  0  0  0  0  0  0  0  0  0  0  0
   14.7392   26.0372   -3.1871 C   0  0  0  0  0  0  0  0  0  0  0  0
   13.9071   26.1885   -4.2682 C   0  0  0  0  0  0  0  0  0  0  0  0
   14.2535   27.0593   -5.2823 C   0  0  0  0  0  0  0  0  0  0  0  0
   15.4374   27.7846   -5.2184 C   0  0  0  0  0  0  0  0  0  0  0  0
   16.2858   27.6362   -4.1246 C   0  0  0  0  0  0  0  0  0  0  0  0
   15.9151   26.7676   -3.1389 C   0  0  0  0  0  0  0  0  0  0  0  0
   15.8175   28.6844   -6.2520 N   0  0  0  0  0  0  0  0  0  0  0  0
   16.3597   28.3133   -7.4212 C   0  0  0  0  0  0  0  0  0  0  0  0
   16.5860   29.4627   -8.1501 C   0  0  0  0  0  0  0  0  0  0  0  0
   16.1654   30.5036   -7.3814 C   0  0  0  0  0  0  0  0  0  0  0  0
   15.6985   29.9992   -6.2231 N   0  0  0  0  0  0  0  0  0  0  0  0
    9.2130   24.1865    0.3950 C   0  0  0  0  0  0  0  0  0  0  0  0
    7.2901   22.1226    0.7485 C   0  0  0  0  0  0  0  0  0  0  0  0
    7.9621   22.7657    1.9369 C   0  0  0  0  0  0  0  0  0  0  0  0
    7.6452   22.3526    3.2127 C   0  0  0  0  0  0  0  0  0  0  0  0
    8.2339   22.9122    4.3244 C   0  0  0  0  0  0  0  0  0  0  0  0
    9.1524   23.9024    4.1041 C   0  0  0  0  0  0  0  0  0  0  0  0
    9.4578   24.3011    2.8613 N   0  0  0  0  0  0  0  0  0  0  0  0
    8.8938   23.7665    1.7681 C   0  0  0  0  0  0  0  0  0  0  0  0
 33 34  1  0  0  0
 34 35  2  0  0  0
 35 36  1  0  0  0
 36 37  2  0  0  0
 37 38  1  0  0  0
 38 39  2  0  0  0
 39 32  1  0  0  0
 32  1  1  0  0  0
  1  2  1  0  0  0
  2  3  1  0  0  0
  3  4  1  0  0  0
  4  5  1  0  0  0
  5  6  1  0  0  0
  4  7  1  0  0  0
  7  8  1  0  0  0
  8  9  2  0  0  0
  8 10  1  0  0  0
 10 11  1  0  0  0
 11 12  2  0  0  0
 10 21  1  0  0  0
 21 22  2  0  0  0
 22 23  1  0  0  0
 23 24  2  0  0  0
 24 25  1  0  0  0
 25 26  2  0  0  0
 24 27  1  0  0  0
 27 28  1  0  0  0
 28 29  2  0  0  0
 29 30  1  0  0  0
 30 31  2  0  0  0
  7 13  1  0  0  0
 13 14  2  0  0  0
 14 15  1  0  0  0
 15 16  2  0  0  0
 15 17  1  0  0  0
 17 18  1  0  0  0
 18 19  2  0  0  0
 39 34  1  0  0  0
  6  1  1  0  0  0
 26 21  1  0  0  0
 31 27  1  0  0  0
 19 13  1  0  0  0
 11  4  1  0  0  0
 17 20  1  0  0  0
M  END
> <minimizedAffinity>
8.24920

> <CNNscore>
0.6252010465

> <CNNaffinity>
7.9943132401

> <CNN_VS>
4.9980530739

> <CNNaffinity_variance>
0.4248084426

$$$$
[H]c1nc(C([H])([H])N2C([H])([H])C([H])([H])C3(C(=O)N(c4c([H])c([H])c(-n5nc([H])c([H])c5[H])c([H])c4[H])C(=O)N3c3nc([H])n([H])c(=O)c3[H])C([H])([H])C2([H])[H])c(C([H])([H])[H])c([H])c1[H]


 39 44  0  0  0  0  0  0  0  0999 V2000
   13.0920   21.1171    2.3322 N   0  0  0  0  0  0  0  0  0  0  0  0
   13.7829   22.0122    1.4714 C   0  0  0  0  0  0  0  0  0  0  0  0
   13.2646   23.4228    1.6632 C   0  0  0  0  0  0  0  0  0  0  0  0
   11.8966   23.5089    1.0143 C   0  0  0  0  0  0  0  0  0  0  0  0
   11.1509   22.2873    1.4005 C   0  0  0  0  0  0  0  0  0  0  0  0
   11.7581   21.6301    2.6451 C   0  0  0  0  0  0  0  0  0  0  0  0
   11.2306   24.7636    1.2403 N   0  0  0  0  0  0  0  0  0  0  0  0
   11.8197   25.7074    0.3009 C   0  0  0  0  0  0  0  0  0  0  0  0
   11.8104   26.9642    0.4085 O   0  0  0  0  0  0  0  0  0  0  0  0
   12.4116   24.9672   -0.7646 N   0  0  0  0  0  0  0  0  0  0  0  0
   12.1786   23.5970   -0.4672 C   0  0  0  0  0  0  0  0  0  0  0  0
   12.2058   22.6666   -1.2786 O   0  0  0  0  0  0  0  0  0  0  0  0
   10.2182   25.1864    2.1204 C   0  0  0  0  0  0  0  0  0  0  0  0
    8.9701   24.5827    2.2090 C   0  0  0  0  0  0  0  0  0  0  0  0
    8.0194   25.0393    3.0970 C   0  0  0  0  0  0  0  0  0  0  0  0
    6.9074   24.4837    3.1620 O   0  0  0  0  0  0  0  0  0  0  0  0
    8.2886   26.0801    3.8924 N   0  0  0  0  0  0  0  0  0  0  0  0
    9.4996   26.6667    3.8063 C   0  0  0  0  0  0  0  0  0  0  0  0
   10.4358   26.2218    2.9366 N   0  0  0  0  0  0  0  0  0  0  0  0
    7.5865   26.4535    4.5810 H   0  0  0  0  0  0  0  0  0  0  0  0
   13.1014   25.5183   -1.8936 C   0  0  0  0  0  0  0  0  0  0  0  0
   12.4030   26.3052   -2.7752 C   0  0  0  0  0  0  0  0  0  0  0  0
   13.0473   26.8430   -3.8717 C   0  0  0  0  0  0  0  0  0  0  0  0
   14.3972   26.5949   -4.0910 C   0  0  0  0  0  0  0  0  0  0  0  0
   15.1116   25.7980   -3.2007 C   0  0  0  0  0  0  0  0  0  0  0  0
   14.4460   25.2812   -2.1267 C   0  0  0  0  0  0  0  0  0  0  0  0
   15.0816   27.1344   -5.2149 N   0  0  0  0  0  0  0  0  0  0  0  0
   15.3426   26.4570   -6.3427 C   0  0  0  0  0  0  0  0  0  0  0  0
   16.0153   27.3148   -7.1885 C   0  0  0  0  0  0  0  0  0  0  0  0
   16.1385   28.4987   -6.5294 C   0  0  0  0  0  0  0  0  0  0  0  0
   15.5576   28.3615   -5.3220 N   0  0  0  0  0  0  0  0  0  0  0  0
   12.9152   19.7854    1.8339 C   0  0  0  0  0  0  0  0  0  0  0  0
   10.1817   19.6430    1.0661 C   0  0  0  0  0  0  0  0  0  0  0  0
   11.2789   19.6061    0.0308 C   0  0  0  0  0  0  0  0  0  0  0  0
   10.9599   19.5025   -1.3058 C   0  0  0  0  0  0  0  0  0  0  0  0
   11.9292   19.4652   -2.2830 C   0  0  0  0  0  0  0  0  0  0  0  0
   13.2303   19.5358   -1.8649 C   0  0  0  0  0  0  0  0  0  0  0  0
   13.5361   19.6366   -0.5636 N   0  0  0  0  0  0  0  0  0  0  0  0
   12.6044   19.6743    0.4004 C   0  0  0  0  0  0  0  0  0  0  0  0
 33 34  1  0  0  0
 34 35  2  0  0  0
 35 36  1  0  0  0
 36 37  2  0  0  0
 37 38  1  0  0  0
 38 39  2  0  0  0
 39 32  1  0  0  0
 32  1  1  0  0  0
  1  2  1  0  0  0
  2  3  1  0  0  0
  3  4  1  0  0  0
  4  5  1  0  0  0
  5  6  1  0  0  0
  4  7  1  0  0  0
  7  8  1  0  0  0
  8  9  2  0  0  0
  8 10  1  0  0  0
 10 11  1  0  0  0
 11 12  2  0  0  0
 10 21  1  0  0  0
 21 22  2  0  0  0
 22 23  1  0  0  0
 23 24  2  0  0  0
 24 25  1  0  0  0
 25 26  2  0  0  0
 24 27  1  0  0  0
 27 28  1  0  0  0
 28 29  2  0  0  0
 29 30  1  0  0  0
 30 31  2  0  0  0
  7 13  1  0  0  0
 13 14  2  0  0  0
 14 15  1  0  0  0
 15 16  2  0  0  0
 15 17  1  0  0  0
 17 18  1  0  0  0
 18 19  2  0  0  0
 39 34  1  0  0  0
  6  1  1  0  0  0
 26 21  1  0  0  0
 31 27  1  0  0  0
 19 13  1  0  0  0
 11  4  1  0  0  0
 17 20  1  0  0  0
M  END
> <minimizedAffinity>
12.04373

> <CNNscore>
0.5639209151

> <CNNaffinity>
7.4116072655

> <CNN_VS>
4.1795601845

> <CNNaffinity_variance>
0.4672717452

$$$$
[H]c1nc(C([H])([H])N2C([H])([H])C([H])([H])C3(C(=O)N(c4c([H])c([H])c(-n5nc([H])c([H])c5[H])c([H])c4[H])C(=O)N3c3nc([H])n([H])c(=O)c3[H])C([H])([H])C2([H])[H])c(C([H])([H])[H])c([H])c1[H]


 39 44  0  0  0  0  0  0  0  0999 V2000
   14.3115   21.3204    1.0482 N   0  0  0  0  0  0  0  0  0  0  0  0
   14.8929   22.3846    0.3072 C   0  0  0  0  0  0  0  0  0  0  0  0
   14.2127   23.6930    0.6547 C   0  0  0  0  0  0  0  0  0  0  0  0
   12.8441   23.6947    0.0011 C   0  0  0  0  0  0  0  0  0  0  0  0
   12.2467   22.3577    0.2320 C   0  0  0  0  0  0  0  0  0  0  0  0
   12.9266   21.6344    1.4000 C   0  0  0  0  0  0  0  0  0  0  0  0
   12.0355   24.8280    0.3624 N   0  0  0  0  0  0  0  0  0  0  0  0
   12.5100   25.9377   -0.4524 C   0  0  0  0  0  0  0  0  0  0  0  0
   12.3533   27.1635   -0.1993 O   0  0  0  0  0  0  0  0  0  0  0  0
   13.1848   25.4015   -1.5885 N   0  0  0  0  0  0  0  0  0  0  0  0
   13.1141   23.9882   -1.4559 C   0  0  0  0  0  0  0  0  0  0  0  0
   13.2504   23.1688   -2.3697 O   0  0  0  0  0  0  0  0  0  0  0  0
   10.9803   25.0239    1.2715 C   0  0  0  0  0  0  0  0  0  0  0  0
    9.8673   24.1965    1.3529 C   0  0  0  0  0  0  0  0  0  0  0  0
    8.8667   24.4367    2.2704 C   0  0  0  0  0  0  0  0  0  0  0  0
    7.8780   23.6825    2.3283 O   0  0  0  0  0  0  0  0  0  0  0  0
    8.9548   25.4802    3.1021 N   0  0  0  0  0  0  0  0  0  0  0  0
   10.0346   26.2839    3.0231 C   0  0  0  0  0  0  0  0  0  0  0  0
   11.0191   26.0518    2.1245 N   0  0  0  0  0  0  0  0  0  0  0  0
    8.2098   25.6920    3.8139 H   0  0  0  0  0  0  0  0  0  0  0  0
   13.8056   26.1578   -2.6359 C   0  0  0  0  0  0  0  0  0  0  0  0
   13.0872   26.4215   -3.7755 C   0  0  0  0  0  0  0  0  0  0  0  0
   13.6673   27.1451   -4.7985 C   0  0  0  0  0  0  0  0  0  0  0  0
   14.9725   27.6092   -4.6849 C   0  0  0  0  0  0  0  0  0  0  0  0
   15.7066   27.3456   -3.5317 C   0  0  0  0  0  0  0  0  0  0  0  0
   15.1048   26.6277   -2.5387 C   0  0  0  0  0  0  0  0  0  0  0  0
   15.5928   28.3530   -5.7263 N   0  0  0  0  0  0  0  0  0  0  0  0
   16.4250   27.8323   -6.6402 C   0  0  0  0  0  0  0  0  0  0  0  0
   16.8139   28.8617   -7.4726 C   0  0  0  0  0  0  0  0  0  0  0  0
   16.1923   29.9855   -7.0231 C   0  0  0  0  0  0  0  0  0  0  0  0
   15.4496   29.6461   -5.9519 N   0  0  0  0  0  0  0  0  0  0  0  0
   14.2923   20.0449    0.3958 C   0  0  0  0  0  0  0  0  0  0  0  0
   11.5607   19.8781   -0.3741 C   0  0  0  0  0  0  0  0  0  0  0  0
   12.6516   19.9849   -1.4113 C   0  0  0  0  0  0  0  0  0  0  0  0
   12.3277   20.0029   -2.7505 C   0  0  0  0  0  0  0  0  0  0  0  0
   13.2911   20.0990   -3.7295 C   0  0  0  0  0  0  0  0  0  0  0  0
   14.5915   20.1759   -3.3104 C   0  0  0  0  0  0  0  0  0  0  0  0
   14.9022   20.1582   -2.0065 N   0  0  0  0  0  0  0  0  0  0  0  0
   13.9762   20.0653   -1.0407 C   0  0  0  0  0  0  0  0  0  0  0  0
 33 34  1  0  0  0
 34 35  2  0  0  0
 35 36  1  0  0  0
 36 37  2  0  0  0
 37 38  1  0  0  0
 38 39  2  0  0  0
 39 32  1  0  0  0
 32  1  1  0  0  0
  1  2  1  0  0  0
  2  3  1  0  0  0
  3  4  1  0  0  0
  4  5  1  0  0  0
  5  6  1  0  0  0
  4  7  1  0  0  0
  7  8  1  0  0  0
  8  9  2  0  0  0
  8 10  1  0  0  0
 10 11  1  0  0  0
 11 12  2  0  0  0
 10 21  1  0  0  0
 21 22  2  0  0  0
 22 23  1  0  0  0
 23 24  2  0  0  0
 24 25  1  0  0  0
 25 26  2  0  0  0
 24 27  1  0  0  0
 27 28  1  0  0  0
 28 29  2  0  0  0
 29 30  1  0  0  0
 30 31  2  0  0  0
  7 13  1  0  0  0
 13 14  2  0  0  0
 14 15  1  0  0  0
 15 16  2  0  0  0
 15 17  1  0  0  0
 17 18  1  0  0  0
 18 19  2  0  0  0
 39 34  1  0  0  0
  6  1  1  0  0  0
 26 21  1  0  0  0
 31 27  1  0  0  0
 19 13  1  0  0  0
 11  4  1  0  0  0
 17 20  1  0  0  0
M  END
> <minimizedAffinity>
21.63680

> <CNNscore>
0.5592646599

> <CNNaffinity>
7.5177526474

> <CNN_VS>
4.2044134140

> <CNNaffinity_variance>
0.6132428646

$$$$
[H]c1nc(C([H])([H])N2C([H])([H])C([H])([H])C3(C(=O)N(c4c([H])c([H])c(-n5nc([H])c([H])c5[H])c([H])c4[H])C(=O)N3c3nc([H])n([H])c(=O)c3[H])C([H])([H])C2([H])[H])c(C([H])([H])[H])c([H])c1[H]


 39 44  0  0  0  0  0  0  0  0999 V2000
   10.7715   21.6621   -1.7156 N   0  0  0  0  0  0  0  0  0  0  0  0
   11.4621   22.3953   -2.7182 C   0  0  0  0  0  0  0  0  0  0  0  0
   12.9575   22.3020   -2.4939 C   0  0  0  0  0  0  0  0  0  0  0  0
   13.3059   23.1771   -1.3053 C   0  0  0  0  0  0  0  0  0  0  0  0
   12.2884   22.9194   -0.2584 C   0  0  0  0  0  0  0  0  0  0  0  0
   11.5696   21.5859   -0.4919 C   0  0  0  0  0  0  0  0  0  0  0  0
   14.6820   23.0748   -0.8994 N   0  0  0  0  0  0  0  0  0  0  0  0
   15.4386   23.9031   -1.8277 C   0  0  0  0  0  0  0  0  0  0  0  0
   16.6719   23.8044   -2.0735 O   0  0  0  0  0  0  0  0  0  0  0  0
   14.5455   24.8474   -2.4142 N   0  0  0  0  0  0  0  0  0  0  0  0
   13.2700   24.5883   -1.8430 C   0  0  0  0  0  0  0  0  0  0  0  0
   12.3221   25.3787   -1.8028 O   0  0  0  0  0  0  0  0  0  0  0  0
   15.3472   22.3840    0.1296 C   0  0  0  0  0  0  0  0  0  0  0  0
   15.3294   21.0020    0.2691 C   0  0  0  0  0  0  0  0  0  0  0  0
   16.0070   20.3809    1.2967 C   0  0  0  0  0  0  0  0  0  0  0  0
   15.9796   19.1410    1.4035 O   0  0  0  0  0  0  0  0  0  0  0  0
   16.6969   21.1081    2.1820 N   0  0  0  0  0  0  0  0  0  0  0  0
   16.7140   22.4496    2.0473 C   0  0  0  0  0  0  0  0  0  0  0  0
   16.0508   23.0633    1.0403 N   0  0  0  0  0  0  0  0  0  0  0  0
   17.2250   20.6664    2.9773 H   0  0  0  0  0  0  0  0  0  0  0  0
   14.8893   25.8434   -3.3859 C   0  0  0  0  0  0  0  0  0  0  0  0
   13.9817   26.1479   -4.3697 C   0  0  0  0  0  0  0  0  0  0  0  0
   14.2942   27.1015   -5.3181 C   0  0  0  0  0  0  0  0  0  0  0  0
   15.5197   27.7565   -5.2857 C   0  0  0  0  0  0  0  0  0  0  0  0
   16.4446   27.4529   -4.2904 C   0  0  0  0  0  0  0  0  0  0  0  0
   16.1057   26.5055   -3.3678 C   0  0  0  0  0  0  0  0  0  0  0  0
   15.8658   28.7394   -6.2535 N   0  0  0  0  0  0  0  0  0  0  0  0
   16.0201   28.4949   -7.5632 C   0  0  0  0  0  0  0  0  0  0  0  0
   16.3519   29.6908   -8.1660 C   0  0  0  0  0  0  0  0  0  0  0  0
   16.3869   30.6296   -7.1818 C   0  0  0  0  0  0  0  0  0  0  0  0
   16.0849   30.0203   -6.0191 N   0  0  0  0  0  0  0  0  0  0  0  0
    9.4884   22.1773   -1.3398 C   0  0  0  0  0  0  0  0  0  0  0  0
    8.8137   20.5214    0.8703 C   0  0  0  0  0  0  0  0  0  0  0  0
    9.0863   21.9933    1.0613 C   0  0  0  0  0  0  0  0  0  0  0  0
    9.0094   22.5491    2.3199 C   0  0  0  0  0  0  0  0  0  0  0  0
    9.2501   23.8870    2.5388 C   0  0  0  0  0  0  0  0  0  0  0  0
    9.5703   24.6437    1.4445 C   0  0  0  0  0  0  0  0  0  0  0  0
    9.6440   24.0989    0.2220 N   0  0  0  0  0  0  0  0  0  0  0  0
    9.4128   22.7980   -0.0083 C   0  0  0  0  0  0  0  0  0  0  0  0
 33 34  1  0  0  0
 34 35  2  0  0  0
 35 36  1  0  0  0
 36 37  2  0  0  0
 37 38  1  0  0  0
 38 39  2  0  0  0
 39 32  1  0  0  0
 32  1  1  0  0  0
  1  2  1  0  0  0
  2  3  1  0  0  0
  3  4  1  0  0  0
  4  5  1  0  0  0
  5  6  1  0  0  0
  4  7  1  0  0  0
  7  8  1  0  0  0
  8  9  2  0  0  0
  8 10  1  0  0  0
 10 11  1  0  0  0
 11 12  2  0  0  0
 10 21  1  0  0  0
 21 22  2  0  0  0
 22 23  1  0  0  0
 23 24  2  0  0  0
 24 25  1  0  0  0
 25 26  2  0  0  0
 24 27  1  0  0  0
 27 28  1  0  0  0
 28 29  2  0  0  0
 29 30  1  0  0  0
 30 31  2  0  0  0
  7 13  1  0  0  0
 13 14  2  0  0  0
 14 15  1  0  0  0
 15 16  2  0  0  0
 15 17  1  0  0  0
 17 18  1  0  0  0
 18 19  2  0  0  0
 39 34  1  0  0  0
  6  1  1  0  0  0
 26 21  1  0  0  0
 31 27  1  0  0  0
 19 13  1  0  0  0
 11  4  1  0  0  0
 17 20  1  0  0  0
M  END
> <minimizedAffinity>
16.63673

> <CNNscore>
0.4920985699

> <CNNaffinity>
7.5789842606

> <CNN_VS>
3.7296073437

> <CNNaffinity_variance>
0.5304144025

$$$$
[H]c1nc(C([H])([H])N2C([H])([H])C([H])([H])C3(C(=O)N(c4c([H])c([H])c(-n5nc([H])c([H])c5[H])c([H])c4[H])C(=O)N3c3nc([H])n([H])c(=O)c3[H])C([H])([H])C2([H])[H])c(C([H])([H])[H])c([H])c1[H]


 39 44  0  0  0  0  0  0  0  0999 V2000
   13.1780   22.8061   -0.0648 N   0  0  0  0  0  0  0  0  0  0  0  0
   13.5891   23.2825   -1.3390 C   0  0  0  0  0  0  0  0  0  0  0  0
   15.0974   23.4195   -1.3813 C   0  0  0  0  0  0  0  0  0  0  0  0
   15.4779   24.6367   -0.5605 C   0  0  0  0  0  0  0  0  0  0  0  0
   14.6800   24.5900    0.6881 C   0  0  0  0  0  0  0  0  0  0  0  0
   14.1510   23.1778    0.9625 C   0  0  0  0  0  0  0  0  0  0  0  0
   16.8979   24.8057   -0.4066 N   0  0  0  0  0  0  0  0  0  0  0  0
   17.3698   25.4013   -1.6487 C   0  0  0  0  0  0  0  0  0  0  0  0
   18.5531   25.3674   -2.0846 O   0  0  0  0  0  0  0  0  0  0  0  0
   16.2634   26.0310   -2.2911 N   0  0  0  0  0  0  0  0  0  0  0  0
   15.1431   25.8159   -1.4433 C   0  0  0  0  0  0  0  0  0  0  0  0
   14.1002   26.4772   -1.4419 O   0  0  0  0  0  0  0  0  0  0  0  0
   17.8080   24.5223    0.6277 C   0  0  0  0  0  0  0  0  0  0  0  0
   18.1822   25.4408    1.6005 C   0  0  0  0  0  0  0  0  0  0  0  0
   19.0756   25.1017    2.5943 C   0  0  0  0  0  0  0  0  0  0  0  0
   19.3971   25.9389    3.4576 O   0  0  0  0  0  0  0  0  0  0  0  0
   19.5995   23.8719    2.6351 N   0  0  0  0  0  0  0  0  0  0  0  0
   19.2370   22.9802    1.6909 C   0  0  0  0  0  0  0  0  0  0  0  0
   18.3603   23.3085    0.7140 N   0  0  0  0  0  0  0  0  0  0  0  0
   20.2833   23.5802    3.3794 H   0  0  0  0  0  0  0  0  0  0  0  0
   16.2996   26.7291   -3.5424 C   0  0  0  0  0  0  0  0  0  0  0  0
   16.7558   28.0235   -3.5640 C   0  0  0  0  0  0  0  0  0  0  0  0
   16.7954   28.7157   -4.7581 C   0  0  0  0  0  0  0  0  0  0  0  0
   16.3776   28.1135   -5.9391 C   0  0  0  0  0  0  0  0  0  0  0  0
   15.9141   26.8008   -5.9244 C   0  0  0  0  0  0  0  0  0  0  0  0
   15.8872   26.1438   -4.7281 C   0  0  0  0  0  0  0  0  0  0  0  0
   16.4054   28.8071   -7.1803 N   0  0  0  0  0  0  0  0  0  0  0  0
   15.8402   30.0043   -7.3946 C   0  0  0  0  0  0  0  0  0  0  0  0
   16.0811   30.3405   -8.7109 C   0  0  0  0  0  0  0  0  0  0  0  0
   16.7947   29.3166   -9.2527 C   0  0  0  0  0  0  0  0  0  0  0  0
   16.9803   28.3896   -8.2934 N   0  0  0  0  0  0  0  0  0  0  0  0
   11.9005   23.2685    0.3906 C   0  0  0  0  0  0  0  0  0  0  0  0
    9.5323   23.6797    1.9086 C   0  0  0  0  0  0  0  0  0  0  0  0
    9.6260   22.5503    0.9120 C   0  0  0  0  0  0  0  0  0  0  0  0
    8.5544   21.7036    0.7296 C   0  0  0  0  0  0  0  0  0  0  0  0
    8.5973   20.6609   -0.1686 C   0  0  0  0  0  0  0  0  0  0  0  0
    9.7584   20.5024   -0.8753 C   0  0  0  0  0  0  0  0  0  0  0  0
   10.7985   21.3285   -0.6948 N   0  0  0  0  0  0  0  0  0  0  0  0
   10.7729   22.3486    0.1757 C   0  0  0  0  0  0  0  0  0  0  0  0
 33 34  1  0  0  0
 34 35  2  0  0  0
 35 36  1  0  0  0
 36 37  2  0  0  0
 37 38  1  0  0  0
 38 39  2  0  0  0
 39 32  1  0  0  0
 32  1  1  0  0  0
  1  2  1  0  0  0
  2  3  1  0  0  0
  3  4  1  0  0  0
  4  5  1  0  0  0
  5  6  1  0  0  0
  4  7  1  0  0  0
  7  8  1  0  0  0
  8  9  2  0  0  0
  8 10  1  0  0  0
 10 11  1  0  0  0
 11 12  2  0  0  0
 10 21  1  0  0  0
 21 22  2  0  0  0
 22 23  1  0  0  0
 23 24  2  0  0  0
 24 25  1  0  0  0
 25 26  2  0  0  0
 24 27  1  0  0  0
 27 28  1  0  0  0
 28 29  2  0  0  0
 29 30  1  0  0  0
 30 31  2  0  0  0
  7 13  1  0  0  0
 13 14  2  0  0  0
 14 15  1  0  0  0
 15 16  2  0  0  0
 15 17  1  0  0  0
 17 18  1  0  0  0
 18 19  2  0  0  0
 39 34  1  0  0  0
  6  1  1  0  0  0
 26 21  1  0  0  0
 31 27  1  0  0  0
 19 13  1  0  0  0
 11  4  1  0  0  0
 17 20  1  0  0  0
M  END
> <minimizedAffinity>
38.12169

> <CNNscore>
0.4863690436

> <CNNaffinity>
7.3670358658

> <CNN_VS>
3.5830981731

> <CNNaffinity_variance>
0.2536646724

$$$$
[H]c1nc(C([H])([H])N2C([H])([H])C([H])([H])C3(C(=O)N(c4c([H])c([H])c(-n5nc([H])c([H])c5[H])c([H])c4[H])C(=O)N3c3nc([H])n([H])c(=O)c3[H])C([H])([H])C2([H])[H])c(C([H])([H])[H])c([H])c1[H]


 39 44  0  0  0  0  0  0  0  0999 V2000
    9.4827   20.8442   -0.5801 N   0  0  0  0  0  0  0  0  0  0  0  0
    9.7562   21.9526   -1.4262 C   0  0  0  0  0  0  0  0  0  0  0  0
   11.2369   22.0138   -1.7413 C   0  0  0  0  0  0  0  0  0  0  0  0
   11.9575   22.5041   -0.5002 C   0  0  0  0  0  0  0  0  0  0  0  0
   11.3808   21.7783    0.6567 C   0  0  0  0  0  0  0  0  0  0  0  0
   10.6620   20.4990    0.2139 C   0  0  0  0  0  0  0  0  0  0  0  0
   13.3907   22.4811   -0.6203 N   0  0  0  0  0  0  0  0  0  0  0  0
   13.7496   23.6646   -1.3889 C   0  0  0  0  0  0  0  0  0  0  0  0
   14.8197   23.8325   -2.0354 O   0  0  0  0  0  0  0  0  0  0  0  0
   12.6821   24.6046   -1.2870 N   0  0  0  0  0  0  0  0  0  0  0  0
   11.6967   23.9916   -0.4664 C   0  0  0  0  0  0  0  0  0  0  0  0
   10.8025   24.5790    0.1504 O   0  0  0  0  0  0  0  0  0  0  0  0
   14.3937   21.6035   -0.1708 C   0  0  0  0  0  0  0  0  0  0  0  0
   15.3403   21.9391    0.7890 C   0  0  0  0  0  0  0  0  0  0  0  0
   16.2967   21.0323    1.1939 C   0  0  0  0  0  0  0  0  0  0  0  0
   17.1353   21.3522    2.0565 O   0  0  0  0  0  0  0  0  0  0  0  0
   16.3264   19.8056    0.6623 N   0  0  0  0  0  0  0  0  0  0  0  0
   15.4082   19.4796   -0.2698 C   0  0  0  0  0  0  0  0  0  0  0  0
   14.4677   20.3661   -0.6699 N   0  0  0  0  0  0  0  0  0  0  0  0
   17.0420   19.0896    0.9486 H   0  0  0  0  0  0  0  0  0  0  0  0
   12.6350   25.8981   -1.9025 C   0  0  0  0  0  0  0  0  0  0  0  0
   12.5174   27.0070   -1.1021 C   0  0  0  0  0  0  0  0  0  0  0  0
   12.4663   28.2625   -1.6746 C   0  0  0  0  0  0  0  0  0  0  0  0
   12.5332   28.4139   -3.0547 C   0  0  0  0  0  0  0  0  0  0  0  0
   12.6529   27.2935   -3.8724 C   0  0  0  0  0  0  0  0  0  0  0  0
   12.7006   26.0666   -3.2758 C   0  0  0  0  0  0  0  0  0  0  0  0
   12.4787   29.6959   -3.6677 N   0  0  0  0  0  0  0  0  0  0  0  0
   13.5352   30.3306   -4.1969 C   0  0  0  0  0  0  0  0  0  0  0  0
   13.0824   31.5370   -4.6903 C   0  0  0  0  0  0  0  0  0  0  0  0
   11.7466   31.5878   -4.4364 C   0  0  0  0  0  0  0  0  0  0  0  0
   11.4018   30.4469   -3.8091 N   0  0  0  0  0  0  0  0  0  0  0  0
    8.4005   21.0173    0.3429 C   0  0  0  0  0  0  0  0  0  0  0  0
    7.8887   23.7769    0.7952 C   0  0  0  0  0  0  0  0  0  0  0  0
    8.5108   22.9192    1.8698 C   0  0  0  0  0  0  0  0  0  0  0  0
    8.8374   23.4732    3.0885 C   0  0  0  0  0  0  0  0  0  0  0  0
    9.4065   22.7273    4.0962 C   0  0  0  0  0  0  0  0  0  0  0  0
    9.6346   21.4042    3.8314 C   0  0  0  0  0  0  0  0  0  0  0  0
    9.3152   20.8693    2.6445 N   0  0  0  0  0  0  0  0  0  0  0  0
    8.7603   21.5817    1.6528 C   0  0  0  0  0  0  0  0  0  0  0  0
 33 34  1  0  0  0
 34 35  2  0  0  0
 35 36  1  0  0  0
 36 37  2  0  0  0
 37 38  1  0  0  0
 38 39  2  0  0  0
 39 32  1  0  0  0
 32  1  1  0  0  0
  1  2  1  0  0  0
  2  3  1  0  0  0
  3  4  1  0  0  0
  4  5  1  0  0  0
  5  6  1  0  0  0
  4  7  1  0  0  0
  7  8  1  0  0  0
  8  9  2  0  0  0
  8 10  1  0  0  0
 10 11  1  0  0  0
 11 12  2  0  0  0
 10 21  1  0  0  0
 21 22  2  0  0  0
 22 23  1  0  0  0
 23 24  2  0  0  0
 24 25  1  0  0  0
 25 26  2  0  0  0
 24 27  1  0  0  0
 27 28  1  0  0  0
 28 29  2  0  0  0
 29 30  1  0  0  0
 30 31  2  0  0  0
  7 13  1  0  0  0
 13 14  2  0  0  0
 14 15  1  0  0  0
 15 16  2  0  0  0
 15 17  1  0  0  0
 17 18  1  0  0  0
 18 19  2  0  0  0
 39 34  1  0  0  0
  6  1  1  0  0  0
 26 21  1  0  0  0
 31 27  1  0  0  0
 19 13  1  0  0  0
 11  4  1  0  0  0
 17 20  1  0  0  0
M  END
> <minimizedAffinity>
21.42977

> <CNNscore>
0.4750538170

> <CNNaffinity>
7.4833192825

> <CNN_VS>
3.5549793243

> <CNNaffinity_variance>
0.8783410192

$$$$
[H]c1nc(C([H])([H])N2C([H])([H])C([H])([H])C3(C(=O)N(c4c([H])c([H])c(-n5nc([H])c([H])c5[H])c([H])c4[H])C(=O)N3c3nc([H])n([H])c(=O)c3[H])C([H])([H])C2([H])[H])c(C([H])([H])[H])c([H])c1[H]


 39 44  0  0  0  0  0  0  0  0999 V2000
   16.4284   26.6505   -2.9862 N   0  0  0  0  0  0  0  0  0  0  0  0
   15.0954   26.2013   -2.7838 C   0  0  0  0  0  0  0  0  0  0  0  0
   14.9471   25.6227   -1.3915 C   0  0  0  0  0  0  0  0  0  0  0  0
   15.6373   24.2724   -1.3721 C   0  0  0  0  0  0  0  0  0  0  0  0
   16.9329   24.4325   -2.0745 C   0  0  0  0  0  0  0  0  0  0  0  0
   17.3577   25.9040   -2.1381 C   0  0  0  0  0  0  0  0  0  0  0  0
   15.6870   23.6705   -0.0667 N   0  0  0  0  0  0  0  0  0  0  0  0
   14.3721   23.0869    0.1583 C   0  0  0  0  0  0  0  0  0  0  0  0
   13.8672   22.8069    1.2798 O   0  0  0  0  0  0  0  0  0  0  0  0
   13.7498   22.8853   -1.1088 N   0  0  0  0  0  0  0  0  0  0  0  0
   14.6813   23.3417   -2.0804 C   0  0  0  0  0  0  0  0  0  0  0  0
   14.6926   23.0272   -3.2746 O   0  0  0  0  0  0  0  0  0  0  0  0
   16.6823   23.5637    0.9214 C   0  0  0  0  0  0  0  0  0  0  0  0
   17.7172   24.4773    1.0772 C   0  0  0  0  0  0  0  0  0  0  0  0
   18.6611   24.3219    2.0700 C   0  0  0  0  0  0  0  0  0  0  0  0
   19.5800   25.1525    2.1939 O   0  0  0  0  0  0  0  0  0  0  0  0
   18.5925   23.2790    2.9043 N   0  0  0  0  0  0  0  0  0  0  0  0
   17.5886   22.3917    2.7532 C   0  0  0  0  0  0  0  0  0  0  0  0
   16.6599   22.5404    1.7805 N   0  0  0  0  0  0  0  0  0  0  0  0
   19.2957   23.1307    3.6725 H   0  0  0  0  0  0  0  0  0  0  0  0
   12.4445   22.3361   -1.3301 C   0  0  0  0  0  0  0  0  0  0  0  0
   12.2731   20.9779   -1.2291 C   0  0  0  0  0  0  0  0  0  0  0  0
   11.0248   20.4276   -1.4422 C   0  0  0  0  0  0  0  0  0  0  0  0
    9.9395   21.2365   -1.7579 C   0  0  0  0  0  0  0  0  0  0  0  0
   10.1062   22.6148   -1.8614 C   0  0  0  0  0  0  0  0  0  0  0  0
   11.3526   23.1279   -1.6452 C   0  0  0  0  0  0  0  0  0  0  0  0
    8.6453   20.6928   -1.9854 N   0  0  0  0  0  0  0  0  0  0  0  0
    8.2021   20.2578   -3.1742 C   0  0  0  0  0  0  0  0  0  0  0  0
    6.9111   19.8075   -2.9895 C   0  0  0  0  0  0  0  0  0  0  0  0
    6.6167   19.9903   -1.6737 C   0  0  0  0  0  0  0  0  0  0  0  0
    7.6967   20.5342   -1.0806 N   0  0  0  0  0  0  0  0  0  0  0  0
   16.9226   26.5502   -4.3274 C   0  0  0  0  0  0  0  0  0  0  0  0
   15.5787   28.7412   -5.5420 C   0  0  0  0  0  0  0  0  0  0  0  0
   15.2671   27.3215   -5.9477 C   0  0  0  0  0  0  0  0  0  0  0  0
   14.3208   27.0759   -6.9187 C   0  0  0  0  0  0  0  0  0  0  0  0
   14.0057   25.7965   -7.3186 C   0  0  0  0  0  0  0  0  0  0  0  0
   14.6780   24.7748   -6.7048 C   0  0  0  0  0  0  0  0  0  0  0  0
   15.5980   25.0183   -5.7608 N   0  0  0  0  0  0  0  0  0  0  0  0
   15.9166   26.2580   -5.3601 C   0  0  0  0  0  0  0  0  0  0  0  0
 33 34  1  0  0  0
 34 35  2  0  0  0
 35 36  1  0  0  0
 36 37  2  0  0  0
 37 38  1  0  0  0
 38 39  2  0  0  0
 39 32  1  0  0  0
 32  1  1  0  0  0
  1  2  1  0  0  0
  2  3  1  0  0  0
  3  4  1  0  0  0
  4  5  1  0  0  0
  5  6  1  0  0  0
  4  7  1  0  0  0
  7  8  1  0  0  0
  8  9  2  0  0  0
  8 10  1  0  0  0
 10 11  1  0  0  0
 11 12  2  0  0  0
 10 21  1  0  0  0
 21 22  2  0  0  0
 22 23  1  0  0  0
 23 24  2  0  0  0
 24 25  1  0  0  0
 25 26  2  0  0  0
 24 27  1  0  0  0
 27 28  1  0  0  0
 28 29  2  0  0  0
 29 30  1  0  0  0
 30 31  2  0  0  0
  7 13  1  0  0  0
 13 14  2  0  0  0
 14 15  1  0  0  0
 15 16  2  0  0  0
 15 17  1  0  0  0
 17 18  1  0  0  0
 18 19  2  0  0  0
 39 34  1  0  0  0
  6  1  1  0  0  0
 26 21  1  0  0  0
 31 27  1  0  0  0
 19 13  1  0  0  0
 11  4  1  0  0  0
 17 20  1  0  0  0
M  END
> <minimizedAffinity>
17.48249

> <CNNscore>
0.4697686434

> <CNNaffinity>
7.7861227989

> <CNN_VS>
3.6576764584

> <CNNaffinity_variance>
0.6452671289

$$$$
[H]c1nc(C([H])([H])N2C([H])([H])C([H])([H])C3(C(=O)N(c4c([H])c([H])c(-n5nc([H])c([H])c5[H])c([H])c4[H])C(=O)N3c3nc([H])n([H])c(=O)c3[H])C([H])([H])C2([H])[H])c(C([H])([H])[H])c([H])c1[H]


 39 44  0  0  0  0  0  0  0  0999 V2000
   15.5340   22.9237   -1.5130 N   0  0  0  0  0  0  0  0  0  0  0  0
   14.5196   23.4379   -2.3652 C   0  0  0  0  0  0  0  0  0  0  0  0
   15.1045   24.4726   -3.3047 C   0  0  0  0  0  0  0  0  0  0  0  0
   15.3737   25.7311   -2.5024 C   0  0  0  0  0  0  0  0  0  0  0  0
   16.0040   25.3118   -1.2278 C   0  0  0  0  0  0  0  0  0  0  0  0
   16.6040   23.9054   -1.3356 C   0  0  0  0  0  0  0  0  0  0  0  0
   16.0570   26.7536   -3.2483 N   0  0  0  0  0  0  0  0  0  0  0  0
   15.0421   27.4013   -4.0673 C   0  0  0  0  0  0  0  0  0  0  0  0
   15.2512   28.0671   -5.1181 O   0  0  0  0  0  0  0  0  0  0  0  0
   13.7673   27.1538   -3.4780 N   0  0  0  0  0  0  0  0  0  0  0  0
   14.0164   26.3685   -2.3198 C   0  0  0  0  0  0  0  0  0  0  0  0
   13.2556   26.2416   -1.3554 O   0  0  0  0  0  0  0  0  0  0  0  0
   17.3942   27.1850   -3.3138 C   0  0  0  0  0  0  0  0  0  0  0  0
   17.7870   28.4042   -3.8516 C   0  0  0  0  0  0  0  0  0  0  0  0
   19.1146   28.7746   -3.8823 C   0  0  0  0  0  0  0  0  0  0  0  0
   19.4459   29.8721   -4.3674 O   0  0  0  0  0  0  0  0  0  0  0  0
   20.0514   27.9567   -3.3902 N   0  0  0  0  0  0  0  0  0  0  0  0
   19.6707   26.7731   -2.8685 C   0  0  0  0  0  0  0  0  0  0  0  0
   18.3689   26.4056   -2.8361 N   0  0  0  0  0  0  0  0  0  0  0  0
   21.0727   28.2084   -3.3976 H   0  0  0  0  0  0  0  0  0  0  0  0
   12.5040   27.6117   -3.9765 C   0  0  0  0  0  0  0  0  0  0  0  0
   11.6892   26.7210   -4.6300 C   0  0  0  0  0  0  0  0  0  0  0  0
   10.4696   27.1422   -5.1216 C   0  0  0  0  0  0  0  0  0  0  0  0
   10.0589   28.4603   -4.9607 C   0  0  0  0  0  0  0  0  0  0  0  0
   10.8802   29.3688   -4.2986 C   0  0  0  0  0  0  0  0  0  0  0  0
   12.0796   28.9214   -3.8245 C   0  0  0  0  0  0  0  0  0  0  0  0
    8.8092   28.9185   -5.4614 N   0  0  0  0  0  0  0  0  0  0  0  0
    7.8428   28.1199   -5.9381 C   0  0  0  0  0  0  0  0  0  0  0  0
    6.7957   28.9311   -6.3244 C   0  0  0  0  0  0  0  0  0  0  0  0
    7.1745   30.2115   -6.0628 C   0  0  0  0  0  0  0  0  0  0  0  0
    8.4127   30.1759   -5.5340 N   0  0  0  0  0  0  0  0  0  0  0  0
   15.1080   22.5364   -0.2009 C   0  0  0  0  0  0  0  0  0  0  0  0
   13.5229   20.3310   -1.0410 C   0  0  0  0  0  0  0  0  0  0  0  0
   12.8927   21.5229   -0.3631 C   0  0  0  0  0  0  0  0  0  0  0  0
   11.5324   21.5500   -0.1447 C   0  0  0  0  0  0  0  0  0  0  0  0
   10.9166   22.6172    0.4698 C   0  0  0  0  0  0  0  0  0  0  0  0
   11.7205   23.6553    0.8555 C   0  0  0  0  0  0  0  0  0  0  0  0
   13.0434   23.6248    0.6412 N   0  0  0  0  0  0  0  0  0  0  0  0
   13.6586   22.5932    0.0443 C   0  0  0  0  0  0  0  0  0  0  0  0
 33 34  1  0  0  0
 34 35  2  0  0  0
 35 36  1  0  0  0
 36 37  2  0  0  0
 37 38  1  0  0  0
 38 39  2  0  0  0
 39 32  1  0  0  0
 32  1  1  0  0  0
  1  2  1  0  0  0
  2  3  1  0  0  0
  3  4  1  0  0  0
  4  5  1  0  0  0
  5  6  1  0  0  0
  4  7  1  0  0  0
  7  8  1  0  0  0
  8  9  2  0  0  0
  8 10  1  0  0  0
 10 11  1  0  0  0
 11 12  2  0  0  0
 10 21  1  0  0  0
 21 22  2  0  0  0
 22 23  1  0  0  0
 23 24  2  0  0  0
 24 25  1  0  0  0
 25 26  2  0  0  0
 24 27  1  0  0  0
 27 28  1  0  0  0
 28 29  2  0  0  0
 29 30  1  0  0  0
 30 31  2  0  0  0
  7 13  1  0  0  0
 13 14  2  0  0  0
 14 15  1  0  0  0
 15 16  2  0  0  0
 15 17  1  0  0  0
 17 18  1  0  0  0
 18 19  2  0  0  0
 39 34  1  0  0  0
  6  1  1  0  0  0
 26 21  1  0  0  0
 31 27  1  0  0  0
 19 13  1  0  0  0
 11  4  1  0  0  0
 17 20  1  0  0  0
M  END
> <minimizedAffinity>
29.16624

> <CNNscore>
0.4583072364

> <CNNaffinity>
7.5678839684

> <CNN_VS>
3.4684159756

> <CNNaffinity_variance>
1.1172846556

$$$$
[H]c1nc(C([H])([H])N2C([H])([H])C([H])([H])C3(C(=O)N(c4c([H])c([H])c(-n5nc([H])c([H])c5[H])c([H])c4[H])C(=O)N3c3nc([H])n([H])c(=O)c3[H])C([H])([H])C2([H])[H])c(C([H])([H])[H])c([H])c1[H]


 39 44  0  0  0  0  0  0  0  0999 V2000
   11.0917   25.0009   -1.7353 N   0  0  0  0  0  0  0  0  0  0  0  0
   12.1107   25.2753   -0.7835 C   0  0  0  0  0  0  0  0  0  0  0  0
   13.2595   26.0066   -1.4474 C   0  0  0  0  0  0  0  0  0  0  0  0
   14.0192   25.0067   -2.2977 C   0  0  0  0  0  0  0  0  0  0  0  0
   13.0133   24.1982   -3.0271 C   0  0  0  0  0  0  0  0  0  0  0  0
   11.6562   24.9088   -3.0819 C   0  0  0  0  0  0  0  0  0  0  0  0
   15.0607   25.6011   -3.0920 N   0  0  0  0  0  0  0  0  0  0  0  0
   16.1867   25.8061   -2.1918 C   0  0  0  0  0  0  0  0  0  0  0  0
   17.1343   26.6209   -2.3634 O   0  0  0  0  0  0  0  0  0  0  0  0
   16.0355   24.9270   -1.0793 N   0  0  0  0  0  0  0  0  0  0  0  0
   14.8341   24.2038   -1.3112 C   0  0  0  0  0  0  0  0  0  0  0  0
   14.5294   23.1241   -0.7951 O   0  0  0  0  0  0  0  0  0  0  0  0
   15.1629   25.9775   -4.4434 C   0  0  0  0  0  0  0  0  0  0  0  0
   15.4417   25.0885   -5.4739 C   0  0  0  0  0  0  0  0  0  0  0  0
   15.5235   25.5170   -6.7817 C   0  0  0  0  0  0  0  0  0  0  0  0
   15.7730   24.7042   -7.6909 O   0  0  0  0  0  0  0  0  0  0  0  0
   15.3340   26.8072   -7.0786 N   0  0  0  0  0  0  0  0  0  0  0  0
   15.0640   27.6705   -6.0787 C   0  0  0  0  0  0  0  0  0  0  0  0
   14.9825   27.2544   -4.7938 N   0  0  0  0  0  0  0  0  0  0  0  0
   15.3889   27.1674   -8.0654 H   0  0  0  0  0  0  0  0  0  0  0  0
   16.9271   24.8183    0.0376 C   0  0  0  0  0  0  0  0  0  0  0  0
   16.5548   25.3730    1.2368 C   0  0  0  0  0  0  0  0  0  0  0  0
   17.4005   25.2831    2.3247 C   0  0  0  0  0  0  0  0  0  0  0  0
   18.6257   24.6357    2.2167 C   0  0  0  0  0  0  0  0  0  0  0  0
   19.0093   24.0706    1.0035 C   0  0  0  0  0  0  0  0  0  0  0  0
   18.1512   24.1766   -0.0528 C   0  0  0  0  0  0  0  0  0  0  0  0
   19.5151   24.5336    3.3217 N   0  0  0  0  0  0  0  0  0  0  0  0
   19.9842   25.5791    4.0187 C   0  0  0  0  0  0  0  0  0  0  0  0
   20.8104   25.0767    5.0029 C   0  0  0  0  0  0  0  0  0  0  0  0
   20.8104   23.7234    4.8618 C   0  0  0  0  0  0  0  0  0  0  0  0
   20.0084   23.4165    3.8241 N   0  0  0  0  0  0  0  0  0  0  0  0
   10.3443   23.7978   -1.5183 C   0  0  0  0  0  0  0  0  0  0  0  0
   10.1507   21.0115   -2.0482 C   0  0  0  0  0  0  0  0  0  0  0  0
   10.8112   21.5153   -0.7884 C   0  0  0  0  0  0  0  0  0  0  0  0
   11.3299   20.6197    0.1214 C   0  0  0  0  0  0  0  0  0  0  0  0
   11.9403   21.0360    1.2832 C   0  0  0  0  0  0  0  0  0  0  0  0
   12.0089   22.3863    1.4949 C   0  0  0  0  0  0  0  0  0  0  0  0
   11.5031   23.2540    0.6071 N   0  0  0  0  0  0  0  0  0  0  0  0
   10.9057   22.8651   -0.5290 C   0  0  0  0  0  0  0  0  0  0  0  0
 33 34  1  0  0  0
 34 35  2  0  0  0
 35 36  1  0  0  0
 36 37  2  0  0  0
 37 38  1  0  0  0
 38 39  2  0  0  0
 39 32  1  0  0  0
 32  1  1  0  0  0
  1  2  1  0  0  0
  2  3  1  0  0  0
  3  4  1  0  0  0
  4  5  1  0  0  0
  5  6  1  0  0  0
  4  7  1  0  0  0
  7  8  1  0  0  0
  8  9  2  0  0  0
  8 10  1  0  0  0
 10 11  1  0  0  0
 11 12  2  0  0  0
 10 21  1  0  0  0
 21 22  2  0  0  0
 22 23  1  0  0  0
 23 24  2  0  0  0
 24 25  1  0  0  0
 25 26  2  0  0  0
 24 27  1  0  0  0
 27 28  1  0  0  0
 28 29  2  0  0  0
 29 30  1  0  0  0
 30 31  2  0  0  0
  7 13  1  0  0  0
 13 14  2  0  0  0
 14 15  1  0  0  0
 15 16  2  0  0  0
 15 17  1  0  0  0
 17 18  1  0  0  0
 18 19  2  0  0  0
 39 34  1  0  0  0
  6  1  1  0  0  0
 26 21  1  0  0  0
 31 27  1  0  0  0
 19 13  1  0  0  0
 11  4  1  0  0  0
 17 20  1  0  0  0
M  END
> <minimizedAffinity>
31.47900

> <CNNscore>
0.4500232041

> <CNNaffinity>
8.0014715195

> <CNN_VS>
3.6008479595

> <CNNaffinity_variance>
0.7786301374

$$$$
[H]c1nc(C([H])([H])N2C([H])([H])C([H])([H])C3(C(=O)N(c4c([H])c([H])c(-c5c([H])c([H])c([H])c([H])c5[H])c([H])c4[H])C(=O)N3c3nn([H])c(=O)c([H])c3[H])C([H])([H])C2([H])[H])c(C([H])([H])[H])c([H])c1[H]


 40 45  0  0  0  0  0  0  0  0999 V2000
   16.2403   23.9290   -1.5894 N   0  0  0  0  0  0  0  0  0  0  0  0
   15.3632   22.7981   -1.6484 C   0  0  0  0  0  0  0  0  0  0  0  0
   14.1657   22.7620   -0.8083 C   0  0  0  0  0  0  0  0  0  0  0  0
   13.5183   24.0892   -0.5624 C   0  0  0  0  0  0  0  0  0  0  0  0
   14.5544   25.0682   -0.1301 C   0  0  0  0  0  0  0  0  0  0  0  0
   15.8256   25.0673   -0.8843 C   0  0  0  0  0  0  0  0  0  0  0  0
   12.6672   24.5425   -1.6400 N   0  0  0  0  0  0  0  0  0  0  0  0
   11.3632   23.9860   -1.3579 C   0  0  0  0  0  0  0  0  0  0  0  0
   10.4290   23.8646   -2.2123 O   0  0  0  0  0  0  0  0  0  0  0  0
   11.2693   23.5935    0.0044 N   0  0  0  0  0  0  0  0  0  0  0  0
   12.5366   23.9156    0.5631 C   0  0  0  0  0  0  0  0  0  0  0  0
   12.7369   24.0232    1.8050 O   0  0  0  0  0  0  0  0  0  0  0  0
   13.0003   25.3526   -2.7450 C   0  0  0  0  0  0  0  0  0  0  0  0
   12.4147   26.5741   -2.9561 C   0  0  0  0  0  0  0  0  0  0  0  0
   12.7759   27.3391   -4.0638 C   0  0  0  0  0  0  0  0  0  0  0  0
   13.7227   26.8344   -4.9218 C   0  0  0  0  0  0  0  0  0  0  0  0
   14.0900   27.4967   -5.9547 O   0  0  0  0  0  0  0  0  0  0  0  0
   14.2709   25.6344   -4.6785 N   0  0  0  0  0  0  0  0  0  0  0  0
   13.9092   24.9482   -3.6339 N   0  0  0  0  0  0  0  0  0  0  0  0
   14.9966   25.2502   -5.3375 H   0  0  0  0  0  0  0  0  0  0  0  0
   10.1415   23.0081    0.6414 C   0  0  0  0  0  0  0  0  0  0  0  0
    9.5697   23.5719    1.7603 C   0  0  0  0  0  0  0  0  0  0  0  0
    8.4776   23.0198    2.3929 C   0  0  0  0  0  0  0  0  0  0  0  0
    7.8999   21.8594    1.9258 C   0  0  0  0  0  0  0  0  0  0  0  0
    8.4593   21.2792    0.8044 C   0  0  0  0  0  0  0  0  0  0  0  0
    9.5642   21.8468    0.1723 C   0  0  0  0  0  0  0  0  0  0  0  0
    6.7488   21.2437    2.5614 C   0  0  0  0  0  0  0  0  0  0  0  0
    5.8991   20.4760    1.7926 C   0  0  0  0  0  0  0  0  0  0  0  0
    4.7865   19.8623    2.3324 C   0  0  0  0  0  0  0  0  0  0  0  0
    4.5008   20.0080    3.6691 C   0  0  0  0  0  0  0  0  0  0  0  0
    5.3467   20.7797    4.4631 C   0  0  0  0  0  0  0  0  0  0  0  0
    6.4645   21.3890    3.8927 C   0  0  0  0  0  0  0  0  0  0  0  0
   17.6086   23.5320   -1.3857 C   0  0  0  0  0  0  0  0  0  0  0  0
   16.4320   22.3284    0.8857 C   0  0  0  0  0  0  0  0  0  0  0  0
   17.5691   23.2537    1.0895 C   0  0  0  0  0  0  0  0  0  0  0  0
   18.0405   23.5024    2.3489 C   0  0  0  0  0  0  0  0  0  0  0  0
   19.0975   24.3647    2.5174 C   0  0  0  0  0  0  0  0  0  0  0  0
   19.6469   24.9508    1.4063 C   0  0  0  0  0  0  0  0  0  0  0  0
   19.1496   24.6744    0.1998 N   0  0  0  0  0  0  0  0  0  0  0  0
   18.1343   23.8566   -0.0546 C   0  0  0  0  0  0  0  0  0  0  0  0
 34 35  1  0  0  0
 35 36  2  0  0  0
 36 37  1  0  0  0
 37 38  2  0  0  0
 38 39  1  0  0  0
 39 40  2  0  0  0
 40 33  1  0  0  0
 33  1  1  0  0  0
  1  2  1  0  0  0
  2  3  1  0  0  0
  3  4  1  0  0  0
  4  5  1  0  0  0
  5  6  1  0  0  0
  4  7  1  0  0  0
  7  8  1  0  0  0
  8  9  2  0  0  0
  8 10  1  0  0  0
 10 11  1  0  0  0
 11 12  2  0  0  0
 10 21  1  0  0  0
 21 22  2  0  0  0
 22 23  1  0  0  0
 23 24  2  0  0  0
 24 25  1  0  0  0
 25 26  2  0  0  0
 24 27  1  0  0  0
 27 28  2  0  0  0
 28 29  1  0  0  0
 29 30  2  0  0  0
 30 31  1  0  0  0
 31 32  2  0  0  0
  7 13  1  0  0  0
 13 14  1  0  0  0
 14 15  2  0  0  0
 15 16  1  0  0  0
 16 17  2  0  0  0
 16 18  1  0  0  0
 18 19  1  0  0  0
 40 35  1  0  0  0
  6  1  1  0  0  0
 26 21  1  0  0  0
 32 27  1  0  0  0
 19 13  2  0  0  0
 11  4  1  0  0  0
 18 20  1  0  0  0
M  END
> <minimizedAffinity>
13.94661

> <CNNscore>
0.5374790430

> <CNNaffinity>
7.8223547935

> <CNN_VS>
4.2043519020

> <CNNaffinity_variance>
0.6963919401

$$$$
[H]c1nc(C([H])([H])N2C([H])([H])C([H])([H])C3(C(=O)N(c4c([H])c([H])c(-c5c([H])c([H])c([H])c([H])c5[H])c([H])c4[H])C(=O)N3c3nn([H])c(=O)c([H])c3[H])C([H])([H])C2([H])[H])c(C([H])([H])[H])c([H])c1[H]


 40 45  0  0  0  0  0  0  0  0999 V2000
   13.4526   21.8694   -0.7944 N   0  0  0  0  0  0  0  0  0  0  0  0
   12.3210   22.3866   -1.5041 C   0  0  0  0  0  0  0  0  0  0  0  0
   12.2359   23.8187   -1.7923 C   0  0  0  0  0  0  0  0  0  0  0  0
   13.5454   24.4967   -2.0508 C   0  0  0  0  0  0  0  0  0  0  0  0
   14.5074   24.1332   -0.9732 C   0  0  0  0  0  0  0  0  0  0  0  0
   14.5517   22.7109   -0.5736 C   0  0  0  0  0  0  0  0  0  0  0  0
   14.0473   24.3238   -3.3959 N   0  0  0  0  0  0  0  0  0  0  0  0
   13.4698   25.4053   -4.1619 C   0  0  0  0  0  0  0  0  0  0  0  0
   13.3860   25.4280   -5.4307 O   0  0  0  0  0  0  0  0  0  0  0  0
   13.0090   26.4385   -3.3023 N   0  0  0  0  0  0  0  0  0  0  0  0
   13.3099   25.9804   -1.9903 C   0  0  0  0  0  0  0  0  0  0  0  0
   13.3563   26.7437   -0.9857 O   0  0  0  0  0  0  0  0  0  0  0  0
   14.9136   23.3282   -3.8923 C   0  0  0  0  0  0  0  0  0  0  0  0
   16.0663   23.6358   -4.5677 C   0  0  0  0  0  0  0  0  0  0  0  0
   16.8911   22.6166   -5.0407 C   0  0  0  0  0  0  0  0  0  0  0  0
   16.5146   21.3157   -4.8104 C   0  0  0  0  0  0  0  0  0  0  0  0
   17.2364   20.3418   -5.2240 O   0  0  0  0  0  0  0  0  0  0  0  0
   15.3783   21.0583   -4.1451 N   0  0  0  0  0  0  0  0  0  0  0  0
   14.6331   22.0357   -3.7180 N   0  0  0  0  0  0  0  0  0  0  0  0
   15.0923   20.0604   -3.9697 H   0  0  0  0  0  0  0  0  0  0  0  0
   12.3859   27.6537   -3.6969 C   0  0  0  0  0  0  0  0  0  0  0  0
   12.9331   28.8796   -3.3900 C   0  0  0  0  0  0  0  0  0  0  0  0
   12.3446   30.0683   -3.7620 C   0  0  0  0  0  0  0  0  0  0  0  0
   11.1623   30.0826   -4.4694 C   0  0  0  0  0  0  0  0  0  0  0  0
   10.5983   28.8627   -4.7867 C   0  0  0  0  0  0  0  0  0  0  0  0
   11.2027   27.6663   -4.4054 C   0  0  0  0  0  0  0  0  0  0  0  0
   10.5081   31.3116   -4.8813 C   0  0  0  0  0  0  0  0  0  0  0  0
   10.7696   32.4692   -4.1785 C   0  0  0  0  0  0  0  0  0  0  0  0
   10.1820   33.6720   -4.5159 C   0  0  0  0  0  0  0  0  0  0  0  0
    9.3103   33.7384   -5.5769 C   0  0  0  0  0  0  0  0  0  0  0  0
    9.0327   32.5800   -6.2998 C   0  0  0  0  0  0  0  0  0  0  0  0
    9.6401   31.3775   -5.9380 C   0  0  0  0  0  0  0  0  0  0  0  0
   13.0537   21.0562    0.3241 C   0  0  0  0  0  0  0  0  0  0  0  0
   10.4917   20.1380   -0.4408 C   0  0  0  0  0  0  0  0  0  0  0  0
   10.5887   21.0993    0.6805 C   0  0  0  0  0  0  0  0  0  0  0  0
    9.4614   21.5157    1.3331 C   0  0  0  0  0  0  0  0  0  0  0  0
    9.5723   22.4087    2.3721 C   0  0  0  0  0  0  0  0  0  0  0  0
   10.8211   22.8547    2.7206 C   0  0  0  0  0  0  0  0  0  0  0  0
   11.8890   22.4173    2.0516 N   0  0  0  0  0  0  0  0  0  0  0  0
   11.8744   21.5579    1.0388 C   0  0  0  0  0  0  0  0  0  0  0  0
 34 35  1  0  0  0
 35 36  2  0  0  0
 36 37  1  0  0  0
 37 38  2  0  0  0
 38 39  1  0  0  0
 39 40  2  0  0  0
 40 33  1  0  0  0
 33  1  1  0  0  0
  1  2  1  0  0  0
  2  3  1  0  0  0
  3  4  1  0  0  0
  4  5  1  0  0  0
  5  6  1  0  0  0
  4  7  1  0  0  0
  7  8  1  0  0  0
  8  9  2  0  0  0
  8 10  1  0  0  0
 10 11  1  0  0  0
 11 12  2  0  0  0
 10 21  1  0  0  0
 21 22  2  0  0  0
 22 23  1  0  0  0
 23 24  2  0  0  0
 24 25  1  0  0  0
 25 26  2  0  0  0
 24 27  1  0  0  0
 27 28  2  0  0  0
 28 29  1  0  0  0
 29 30  2  0  0  0
 30 31  1  0  0  0
 31 32  2  0  0  0
  7 13  1  0  0  0
 13 14  1  0  0  0
 14 15  2  0  0  0
 15 16  1  0  0  0
 16 17  2  0  0  0
 16 18  1  0  0  0
 18 19  1  0  0  0
 40 35  1  0  0  0
  6  1  1  0  0  0
 26 21  1  0  0  0
 32 27  1  0  0  0
 19 13  2  0  0  0
 11  4  1  0  0  0
 18 20  1  0  0  0
M  END
> <minimizedAffinity>
46.59812

> <CNNscore>
0.5199986696

> <CNNaffinity>
7.1688475609

> <CNN_VS>
3.7277913094

> <CNNaffinity_variance>
0.9221766591

$$$$
[H]c1nc(C([H])([H])N2C([H])([H])C([H])([H])C3(C(=O)N(c4c([H])c([H])c(-c5c([H])c([H])c([H])c([H])c5[H])c([H])c4[H])C(=O)N3c3nn([H])c(=O)c([H])c3[H])C([H])([H])C2([H])[H])c(C([H])([H])[H])c([H])c1[H]


 40 45  0  0  0  0  0  0  0  0999 V2000
   16.9052   25.4092   -1.9802 N   0  0  0  0  0  0  0  0  0  0  0  0
   16.4963   24.0530   -1.7674 C   0  0  0  0  0  0  0  0  0  0  0  0
   15.5223   23.7428   -0.7205 C   0  0  0  0  0  0  0  0  0  0  0  0
   14.4805   24.7922   -0.4867 C   0  0  0  0  0  0  0  0  0  0  0  0
   15.1429   26.1194   -0.3494 C   0  0  0  0  0  0  0  0  0  0  0  0
   16.2102   26.4335   -1.3224 C   0  0  0  0  0  0  0  0  0  0  0  0
   13.3819   24.7567   -1.4264 N   0  0  0  0  0  0  0  0  0  0  0  0
   12.4196   23.8412   -0.8558 C   0  0  0  0  0  0  0  0  0  0  0  0
   11.4829   23.2789   -1.5067 O   0  0  0  0  0  0  0  0  0  0  0  0
   12.6646   23.6562    0.5315 N   0  0  0  0  0  0  0  0  0  0  0  0
   13.7948   24.4721    0.8124 C   0  0  0  0  0  0  0  0  0  0  0  0
   14.1138   24.8323    1.9797 O   0  0  0  0  0  0  0  0  0  0  0  0
   13.2426   25.4502   -2.6462 C   0  0  0  0  0  0  0  0  0  0  0  0
   12.2961   26.4256   -2.8261 C   0  0  0  0  0  0  0  0  0  0  0  0
   12.1958   27.0832   -4.0509 C   0  0  0  0  0  0  0  0  0  0  0  0
   13.0635   26.7254   -5.0540 C   0  0  0  0  0  0  0  0  0  0  0  0
   13.0136   27.2982   -6.1986 O   0  0  0  0  0  0  0  0  0  0  0  0
   13.9750   25.7654   -4.8363 N   0  0  0  0  0  0  0  0  0  0  0  0
   14.0395   25.1732   -3.6795 N   0  0  0  0  0  0  0  0  0  0  0  0
   14.6391   25.4935   -5.6066 H   0  0  0  0  0  0  0  0  0  0  0  0
   11.9247   22.8287    1.4193 C   0  0  0  0  0  0  0  0  0  0  0  0
   10.7619   23.2651    2.0144 C   0  0  0  0  0  0  0  0  0  0  0  0
   10.0311   22.4794    2.8784 C   0  0  0  0  0  0  0  0  0  0  0  0
   10.4389   21.2007    3.1901 C   0  0  0  0  0  0  0  0  0  0  0  0
   11.6028   20.7453    2.6029 C   0  0  0  0  0  0  0  0  0  0  0  0
   12.3340   21.5489    1.7301 C   0  0  0  0  0  0  0  0  0  0  0  0
    9.6996   20.3391    4.0951 C   0  0  0  0  0  0  0  0  0  0  0  0
    8.3355   20.5103    4.2069 C   0  0  0  0  0  0  0  0  0  0  0  0
    7.5718   19.7262    5.0483 C   0  0  0  0  0  0  0  0  0  0  0  0
    8.1677   18.7437    5.8028 C   0  0  0  0  0  0  0  0  0  0  0  0
    9.5447   18.5547    5.7044 C   0  0  0  0  0  0  0  0  0  0  0  0
   10.2933   19.3606    4.8464 C   0  0  0  0  0  0  0  0  0  0  0  0
   18.3386   25.5372   -1.9964 C   0  0  0  0  0  0  0  0  0  0  0  0
   21.1253   25.9689   -2.1954 C   0  0  0  0  0  0  0  0  0  0  0  0
   20.2165   26.9100   -2.8876 C   0  0  0  0  0  0  0  0  0  0  0  0
   20.7234   27.9514   -3.6148 C   0  0  0  0  0  0  0  0  0  0  0  0
   19.8629   28.8144   -4.2505 C   0  0  0  0  0  0  0  0  0  0  0  0
   18.5141   28.5987   -4.1316 C   0  0  0  0  0  0  0  0  0  0  0  0
   18.0713   27.5678   -3.4102 N   0  0  0  0  0  0  0  0  0  0  0  0
   18.8282   26.6874   -2.7650 C   0  0  0  0  0  0  0  0  0  0  0  0
 34 35  1  0  0  0
 35 36  2  0  0  0
 36 37  1  0  0  0
 37 38  2  0  0  0
 38 39  1  0  0  0
 39 40  2  0  0  0
 40 33  1  0  0  0
 33  1  1  0  0  0
  1  2  1  0  0  0
  2  3  1  0  0  0
  3  4  1  0  0  0
  4  5  1  0  0  0
  5  6  1  0  0  0
  4  7  1  0  0  0
  7  8  1  0  0  0
  8  9  2  0  0  0
  8 10  1  0  0  0
 10 11  1  0  0  0
 11 12  2  0  0  0
 10 21  1  0  0  0
 21 22  2  0  0  0
 22 23  1  0  0  0
 23 24  2  0  0  0
 24 25  1  0  0  0
 25 26  2  0  0  0
 24 27  1  0  0  0
 27 28  2  0  0  0
 28 29  1  0  0  0
 29 30  2  0  0  0
 30 31  1  0  0  0
 31 32  2  0  0  0
  7 13  1  0  0  0
 13 14  1  0  0  0
 14 15  2  0  0  0
 15 16  1  0  0  0
 16 17  2  0  0  0
 16 18  1  0  0  0
 18 19  1  0  0  0
 40 35  1  0  0  0
  6  1  1  0  0  0
 26 21  1  0  0  0
 32 27  1  0  0  0
 19 13  2  0  0  0
 11  4  1  0  0  0
 18 20  1  0  0  0
M  END
> <minimizedAffinity>
20.29866

> <CNNscore>
0.4956336319

> <CNNaffinity>
7.5744237900

> <CNN_VS>
3.7541391850

> <CNNaffinity_variance>
0.8349975348

$$$$
[H]c1nc(C([H])([H])N2C([H])([H])C([H])([H])C3(C(=O)N(c4c([H])c([H])c(-c5c([H])c([H])c([H])c([H])c5[H])c([H])c4[H])C(=O)N3c3nn([H])c(=O)c([H])c3[H])C([H])([H])C2([H])[H])c(C([H])([H])[H])c([H])c1[H]


 40 45  0  0  0  0  0  0  0  0999 V2000
   15.2309   25.3141   -3.7223 N   0  0  0  0  0  0  0  0  0  0  0  0
   14.6900   24.0025   -3.5256 C   0  0  0  0  0  0  0  0  0  0  0  0
   14.1255   23.6360   -2.2263 C   0  0  0  0  0  0  0  0  0  0  0  0
   13.4485   24.7483   -1.4878 C   0  0  0  0  0  0  0  0  0  0  0  0
   14.3434   25.9390   -1.4658 C   0  0  0  0  0  0  0  0  0  0  0  0
   15.0207   26.2850   -2.7333 C   0  0  0  0  0  0  0  0  0  0  0  0
   12.0961   25.0138   -1.9255 N   0  0  0  0  0  0  0  0  0  0  0  0
   11.2595   24.1380   -1.1362 C   0  0  0  0  0  0  0  0  0  0  0  0
   10.0650   23.8183   -1.4334 O   0  0  0  0  0  0  0  0  0  0  0  0
   11.9553   23.6839    0.0162 N   0  0  0  0  0  0  0  0  0  0  0  0
   13.2376   24.2923   -0.0708 C   0  0  0  0  0  0  0  0  0  0  0  0
   14.0194   24.4002    0.9147 O   0  0  0  0  0  0  0  0  0  0  0  0
   11.6496   25.9222   -2.9072 C   0  0  0  0  0  0  0  0  0  0  0  0
   12.4463   26.9318   -3.3821 C   0  0  0  0  0  0  0  0  0  0  0  0
   11.9604   27.8064   -4.3526 C   0  0  0  0  0  0  0  0  0  0  0  0
   10.6772   27.6242   -4.8082 C   0  0  0  0  0  0  0  0  0  0  0  0
   10.1821   28.3999   -5.6990 O   0  0  0  0  0  0  0  0  0  0  0  0
    9.9309   26.6235   -4.3166 N   0  0  0  0  0  0  0  0  0  0  0  0
   10.4182   25.8262   -3.4111 N   0  0  0  0  0  0  0  0  0  0  0  0
    8.9480   26.4859   -4.6678 H   0  0  0  0  0  0  0  0  0  0  0  0
   11.4534   22.8111    1.0196 C   0  0  0  0  0  0  0  0  0  0  0  0
   10.3917   23.1663    1.8216 C   0  0  0  0  0  0  0  0  0  0  0  0
    9.8912   22.3357    2.8001 C   0  0  0  0  0  0  0  0  0  0  0  0
   10.4408   21.0920    3.0229 C   0  0  0  0  0  0  0  0  0  0  0  0
   11.5065   20.7179    2.2283 C   0  0  0  0  0  0  0  0  0  0  0  0
   12.0044   21.5664    1.2411 C   0  0  0  0  0  0  0  0  0  0  0  0
    9.9451   20.1853    4.0427 C   0  0  0  0  0  0  0  0  0  0  0  0
   10.6791   19.0556    4.3386 C   0  0  0  0  0  0  0  0  0  0  0  0
   10.2660   18.1515    5.2966 C   0  0  0  0  0  0  0  0  0  0  0  0
    9.0952   18.3647    5.9847 C   0  0  0  0  0  0  0  0  0  0  0  0
    8.3389   19.5000    5.7006 C   0  0  0  0  0  0  0  0  0  0  0  0
    8.7790   20.3979    4.7279 C   0  0  0  0  0  0  0  0  0  0  0  0
   16.5576   25.2655   -4.2779 C   0  0  0  0  0  0  0  0  0  0  0  0
   15.8292   27.4131   -5.9659 C   0  0  0  0  0  0  0  0  0  0  0  0
   16.9352   27.6184   -5.0038 C   0  0  0  0  0  0  0  0  0  0  0  0
   17.5729   28.8259   -4.9315 C   0  0  0  0  0  0  0  0  0  0  0  0
   18.5976   28.9967   -4.0314 C   0  0  0  0  0  0  0  0  0  0  0  0
   18.9474   27.9403   -3.2305 C   0  0  0  0  0  0  0  0  0  0  0  0
   18.2932   26.7830   -3.3407 N   0  0  0  0  0  0  0  0  0  0  0  0
   17.2947   26.5306   -4.1796 C   0  0  0  0  0  0  0  0  0  0  0  0
 34 35  1  0  0  0
 35 36  2  0  0  0
 36 37  1  0  0  0
 37 38  2  0  0  0
 38 39  1  0  0  0
 39 40  2  0  0  0
 40 33  1  0  0  0
 33  1  1  0  0  0
  1  2  1  0  0  0
  2  3  1  0  0  0
  3  4  1  0  0  0
  4  5  1  0  0  0
  5  6  1  0  0  0
  4  7  1  0  0  0
  7  8  1  0  0  0
  8  9  2  0  0  0
  8 10  1  0  0  0
 10 11  1  0  0  0
 11 12  2  0  0  0
 10 21  1  0  0  0
 21 22  2  0  0  0
 22 23  1  0  0  0
 23 24  2  0  0  0
 24 25  1  0  0  0
 25 26  2  0  0  0
 24 27  1  0  0  0
 27 28  2  0  0  0
 28 29  1  0  0  0
 29 30  2  0  0  0
 30 31  1  0  0  0
 31 32  2  0  0  0
  7 13  1  0  0  0
 13 14  1  0  0  0
 14 15  2  0  0  0
 15 16  1  0  0  0
 16 17  2  0  0  0
 16 18  1  0  0  0
 18 19  1  0  0  0
 40 35  1  0  0  0
  6  1  1  0  0  0
 26 21  1  0  0  0
 32 27  1  0  0  0
 19 13  2  0  0  0
 11  4  1  0  0  0
 18 20  1  0  0  0
M  END
> <minimizedAffinity>
21.57029

> <CNNscore>
0.4793726802

> <CNNaffinity>
7.2863388062

> <CNN_VS>
3.4928717613

> <CNNaffinity_variance>
0.8093140721

$$$$
[H]c1nc(C([H])([H])N2C([H])([H])C([H])([H])C3(C(=O)N(c4c([H])c([H])c(-c5c([H])c([H])c([H])c([H])c5[H])c([H])c4[H])C(=O)N3c3nn([H])c(=O)c([H])c3[H])C([H])([H])C2([H])[H])c(C([H])([H])[H])c([H])c1[H]


 40 45  0  0  0  0  0  0  0  0999 V2000
    9.0433   21.8438    3.4860 N   0  0  0  0  0  0  0  0  0  0  0  0
   10.4351   22.1313    3.3068 C   0  0  0  0  0  0  0  0  0  0  0  0
   10.9069   22.6770    2.0338 C   0  0  0  0  0  0  0  0  0  0  0  0
    9.9477   23.5902    1.3360 C   0  0  0  0  0  0  0  0  0  0  0  0
    8.6071   22.9431    1.2790 C   0  0  0  0  0  0  0  0  0  0  0  0
    8.1338   22.2844    2.5146 C   0  0  0  0  0  0  0  0  0  0  0  0
    9.9462   24.9456    1.8400 N   0  0  0  0  0  0  0  0  0  0  0  0
   10.9687   25.6354    1.0860 C   0  0  0  0  0  0  0  0  0  0  0  0
   11.5115   26.7303    1.4381 O   0  0  0  0  0  0  0  0  0  0  0  0
   11.2836   24.9219   -0.1016 N   0  0  0  0  0  0  0  0  0  0  0  0
   10.4396   23.7778   -0.0722 C   0  0  0  0  0  0  0  0  0  0  0  0
   10.1861   23.0801   -1.0934 O   0  0  0  0  0  0  0  0  0  0  0  0
    9.1379   25.5104    2.8479 C   0  0  0  0  0  0  0  0  0  0  0  0
    9.5376   25.5632    4.1583 C   0  0  0  0  0  0  0  0  0  0  0  0
    8.7033   26.1306    5.1200 C   0  0  0  0  0  0  0  0  0  0  0  0
    7.4876   26.6261    4.7154 C   0  0  0  0  0  0  0  0  0  0  0  0
    6.6833   27.1574    5.5588 O   0  0  0  0  0  0  0  0  0  0  0  0
    7.1350   26.5543    3.4229 N   0  0  0  0  0  0  0  0  0  0  0  0
    7.9399   26.0177    2.5529 N   0  0  0  0  0  0  0  0  0  0  0  0
    6.2029   26.9351    3.1156 H   0  0  0  0  0  0  0  0  0  0  0  0
   12.2395   25.2946   -1.0854 C   0  0  0  0  0  0  0  0  0  0  0  0
   13.5796   25.0164   -0.9332 C   0  0  0  0  0  0  0  0  0  0  0  0
   14.5218   25.3701   -1.8740 C   0  0  0  0  0  0  0  0  0  0  0  0
   14.1579   26.0290   -3.0281 C   0  0  0  0  0  0  0  0  0  0  0  0
   12.8180   26.3165   -3.1987 C   0  0  0  0  0  0  0  0  0  0  0  0
   11.8736   25.9537   -2.2403 C   0  0  0  0  0  0  0  0  0  0  0  0
   15.1173   26.4201   -4.0452 C   0  0  0  0  0  0  0  0  0  0  0  0
   14.8473   26.1154   -5.3630 C   0  0  0  0  0  0  0  0  0  0  0  0
   15.7158   26.4575   -6.3801 C   0  0  0  0  0  0  0  0  0  0  0  0
   16.8858   27.1196   -6.0925 C   0  0  0  0  0  0  0  0  0  0  0  0
   17.1772   27.4366   -4.7673 C   0  0  0  0  0  0  0  0  0  0  0  0
   16.2824   27.0795   -3.7585 C   0  0  0  0  0  0  0  0  0  0  0  0
    8.8343   20.5071    3.9769 C   0  0  0  0  0  0  0  0  0  0  0  0
   10.3277   19.9285    1.6473 C   0  0  0  0  0  0  0  0  0  0  0  0
   10.8296   19.4285    2.9469 C   0  0  0  0  0  0  0  0  0  0  0  0
   11.9958   18.7172    3.0098 C   0  0  0  0  0  0  0  0  0  0  0  0
   12.4453   18.2616    4.2262 C   0  0  0  0  0  0  0  0  0  0  0  0
   11.7013   18.5389    5.3440 C   0  0  0  0  0  0  0  0  0  0  0  0
   10.5705   19.2369    5.2281 N   0  0  0  0  0  0  0  0  0  0  0  0
   10.0633   19.7144    4.0971 C   0  0  0  0  0  0  0  0  0  0  0  0
 34 35  1  0  0  0
 35 36  2  0  0  0
 36 37  1  0  0  0
 37 38  2  0  0  0
 38 39  1  0  0  0
 39 40  2  0  0  0
 40 33  1  0  0  0
 33  1  1  0  0  0
  1  2  1  0  0  0
  2  3  1  0  0  0
  3  4  1  0  0  0
  4  5  1  0  0  0
  5  6  1  0  0  0
  4  7  1  0  0  0
  7  8  1  0  0  0
  8  9  2  0  0  0
  8 10  1  0  0  0
 10 11  1  0  0  0
 11 12  2  0  0  0
 10 21  1  0  0  0
 21 22  2  0  0  0
 22 23  1  0  0  0
 23 24  2  0  0  0
 24 25  1  0  0  0
 25 26  2  0  0  0
 24 27  1  0  0  0
 27 28  2  0  0  0
 28 29  1  0  0  0
 29 30  2  0  0  0
 30 31  1  0  0  0
 31 32  2  0  0  0
  7 13  1  0  0  0
 13 14  1  0  0  0
 14 15  2  0  0  0
 15 16  1  0  0  0
 16 17  2  0  0  0
 16 18  1  0  0  0
 18 19  1  0  0  0
 40 35  1  0  0  0
  6  1  1  0  0  0
 26 21  1  0  0  0
 32 27  1  0  0  0
 19 13  2  0  0  0
 11  4  1  0  0  0
 18 20  1  0  0  0
M  END
> <minimizedAffinity>
3.45481

> <CNNscore>
0.4456833303

> <CNNaffinity>
6.8373055458

> <CNN_VS>
3.0472731590

> <CNNaffinity_variance>
0.4265611768

$$$$
[H]c1nc(C([H])([H])N2C([H])([H])C([H])([H])C3(C(=O)N(c4c([H])c([H])c(-c5c([H])c([H])c([H])c([H])c5[H])c([H])c4[H])C(=O)N3c3nn([H])c(=O)c([H])c3[H])C([H])([H])C2([H])[H])c(C([H])([H])[H])c([H])c1[H]


 40 45  0  0  0  0  0  0  0  0999 V2000
   15.4956   24.7694   -4.3140 N   0  0  0  0  0  0  0  0  0  0  0  0
   14.5459   23.7147   -4.1211 C   0  0  0  0  0  0  0  0  0  0  0  0
   14.2121   23.2755   -2.7658 C   0  0  0  0  0  0  0  0  0  0  0  0
   14.2268   24.3510   -1.7246 C   0  0  0  0  0  0  0  0  0  0  0  0
   15.4953   25.1241   -1.8353 C   0  0  0  0  0  0  0  0  0  0  0  0
   15.9288   25.4985   -3.1979 C   0  0  0  0  0  0  0  0  0  0  0  0
   13.0266   25.1567   -1.6873 N   0  0  0  0  0  0  0  0  0  0  0  0
   12.1284   24.4640   -0.7910 C   0  0  0  0  0  0  0  0  0  0  0  0
   10.8713   24.6502   -0.7412 O   0  0  0  0  0  0  0  0  0  0  0  0
   12.8431   23.5472    0.0258 N   0  0  0  0  0  0  0  0  0  0  0  0
   14.1997   23.6822   -0.3783 C   0  0  0  0  0  0  0  0  0  0  0  0
   15.1721   23.2862    0.3229 O   0  0  0  0  0  0  0  0  0  0  0  0
   12.7531   26.3627   -2.3647 C   0  0  0  0  0  0  0  0  0  0  0  0
   12.4878   27.5300   -1.6964 C   0  0  0  0  0  0  0  0  0  0  0  0
   12.2221   28.6976   -2.4098 C   0  0  0  0  0  0  0  0  0  0  0  0
   12.2350   28.6383   -3.7822 C   0  0  0  0  0  0  0  0  0  0  0  0
   11.9971   29.6822   -4.4852 O   0  0  0  0  0  0  0  0  0  0  0  0
   12.4992   27.4754   -4.3969 N   0  0  0  0  0  0  0  0  0  0  0  0
   12.7429   26.4053   -3.6980 N   0  0  0  0  0  0  0  0  0  0  0  0
   12.5088   27.4328   -5.4488 H   0  0  0  0  0  0  0  0  0  0  0  0
   12.2943   22.6934    1.0210 C   0  0  0  0  0  0  0  0  0  0  0  0
   11.4952   23.1810    2.0311 C   0  0  0  0  0  0  0  0  0  0  0  0
   10.9548   22.3707    3.0055 C   0  0  0  0  0  0  0  0  0  0  0  0
   11.1946   21.0140    3.0120 C   0  0  0  0  0  0  0  0  0  0  0  0
   11.9938   20.5063    2.0067 C   0  0  0  0  0  0  0  0  0  0  0  0
   12.5350   21.3355    1.0259 C   0  0  0  0  0  0  0  0  0  0  0  0
   10.6456   20.1239    4.0191 C   0  0  0  0  0  0  0  0  0  0  0  0
    9.5539   20.5437    4.7502 C   0  0  0  0  0  0  0  0  0  0  0  0
    8.9821   19.7483    5.7230 C   0  0  0  0  0  0  0  0  0  0  0  0
    9.4998   18.5021    5.9850 C   0  0  0  0  0  0  0  0  0  0  0  0
   10.6026   18.0594    5.2575 C   0  0  0  0  0  0  0  0  0  0  0  0
   11.1613   18.8828    4.2798 C   0  0  0  0  0  0  0  0  0  0  0  0
   16.5204   24.3983   -5.2539 C   0  0  0  0  0  0  0  0  0  0  0  0
   14.1250   24.3715   -6.7549 C   0  0  0  0  0  0  0  0  0  0  0  0
   15.2734   25.1457   -7.2767 C   0  0  0  0  0  0  0  0  0  0  0  0
   15.1632   25.8392   -8.4502 C   0  0  0  0  0  0  0  0  0  0  0  0
   16.2411   26.5523   -8.9181 C   0  0  0  0  0  0  0  0  0  0  0  0
   17.3997   26.5428   -8.1849 C   0  0  0  0  0  0  0  0  0  0  0  0
   17.4549   25.8499   -7.0464 N   0  0  0  0  0  0  0  0  0  0  0  0
   16.4657   25.1356   -6.5215 C   0  0  0  0  0  0  0  0  0  0  0  0
 34 35  1  0  0  0
 35 36  2  0  0  0
 36 37  1  0  0  0
 37 38  2  0  0  0
 38 39  1  0  0  0
 39 40  2  0  0  0
 40 33  1  0  0  0
 33  1  1  0  0  0
  1  2  1  0  0  0
  2  3  1  0  0  0
  3  4  1  0  0  0
  4  5  1  0  0  0
  5  6  1  0  0  0
  4  7  1  0  0  0
  7  8  1  0  0  0
  8  9  2  0  0  0
  8 10  1  0  0  0
 10 11  1  0  0  0
 11 12  2  0  0  0
 10 21  1  0  0  0
 21 22  2  0  0  0
 22 23  1  0  0  0
 23 24  2  0  0  0
 24 25  1  0  0  0
 25 26  2  0  0  0
 24 27  1  0  0  0
 27 28  2  0  0  0
 28 29  1  0  0  0
 29 30  2  0  0  0
 30 31  1  0  0  0
 31 32  2  0  0  0
  7 13  1  0  0  0
 13 14  1  0  0  0
 14 15  2  0  0  0
 15 16  1  0  0  0
 16 17  2  0  0  0
 16 18  1  0  0  0
 18 19  1  0  0  0
 40 35  1  0  0  0
  6  1  1  0  0  0
 26 21  1  0  0  0
 32 27  1  0  0  0
 19 13  2  0  0  0
 11  4  1  0  0  0
 18 20  1  0  0  0
M  END
> <minimizedAffinity>
27.50214

> <CNNscore>
0.4413753152

> <CNNaffinity>
7.2221398354

> <CNN_VS>
3.1876742840

> <CNNaffinity_variance>
0.6554512978

$$$$
[H]c1nc(C([H])([H])N2C([H])([H])C([H])([H])C3(C(=O)N(c4c([H])c([H])c(-c5c([H])c([H])c([H])c([H])c5[H])c([H])c4[H])C(=O)N3c3nn([H])c(=O)c([H])c3[H])C([H])([H])C2([H])[H])c(C([H])([H])[H])c([H])c1[H]


 40 45  0  0  0  0  0  0  0  0999 V2000
   15.1578   22.2506   -2.9749 N   0  0  0  0  0  0  0  0  0  0  0  0
   13.7371   22.4163   -3.0510 C   0  0  0  0  0  0  0  0  0  0  0  0
   12.9715   22.6963   -1.8359 C   0  0  0  0  0  0  0  0  0  0  0  0
   13.6804   23.5268   -0.8119 C   0  0  0  0  0  0  0  0  0  0  0  0
   15.0390   22.9627   -0.5773 C   0  0  0  0  0  0  0  0  0  0  0  0
   15.8095   22.5652   -1.7744 C   0  0  0  0  0  0  0  0  0  0  0  0
   13.6512   24.9480   -1.0776 N   0  0  0  0  0  0  0  0  0  0  0  0
   12.4376   25.4287   -0.4562 C   0  0  0  0  0  0  0  0  0  0  0  0
   11.8726   26.5338   -0.7333 O   0  0  0  0  0  0  0  0  0  0  0  0
   11.9635   24.4968    0.5057 N   0  0  0  0  0  0  0  0  0  0  0  0
   12.9028   23.4298    0.4712 C   0  0  0  0  0  0  0  0  0  0  0  0
   13.0147   22.5777    1.3960 O   0  0  0  0  0  0  0  0  0  0  0  0
   14.5852   25.7317   -1.7859 C   0  0  0  0  0  0  0  0  0  0  0  0
   15.8568   25.9475   -1.3213 C   0  0  0  0  0  0  0  0  0  0  0  0
   16.7449   26.7307   -2.0566 C   0  0  0  0  0  0  0  0  0  0  0  0
   16.3084   27.2694   -3.2426 C   0  0  0  0  0  0  0  0  0  0  0  0
   17.0843   27.9967   -3.9565 O   0  0  0  0  0  0  0  0  0  0  0  0
   15.0558   27.0336   -3.6610 N   0  0  0  0  0  0  0  0  0  0  0  0
   14.2543   26.2971   -2.9481 N   0  0  0  0  0  0  0  0  0  0  0  0
   14.7240   27.4473   -4.5705 H   0  0  0  0  0  0  0  0  0  0  0  0
   10.7999   24.6291    1.3114 C   0  0  0  0  0  0  0  0  0  0  0  0
   10.7309   25.5461    2.3365 C   0  0  0  0  0  0  0  0  0  0  0  0
    9.6134   25.6891    3.1294 C   0  0  0  0  0  0  0  0  0  0  0  0
    8.4969   24.9072    2.9278 C   0  0  0  0  0  0  0  0  0  0  0  0
    8.5472   23.9817    1.9041 C   0  0  0  0  0  0  0  0  0  0  0  0
    9.6831   23.8459    1.1081 C   0  0  0  0  0  0  0  0  0  0  0  0
    7.2987   25.0245    3.7393 C   0  0  0  0  0  0  0  0  0  0  0  0
    6.6097   26.2193    3.7348 C   0  0  0  0  0  0  0  0  0  0  0  0
    5.4635   26.3994    4.4829 C   0  0  0  0  0  0  0  0  0  0  0  0
    4.9802   25.3731    5.2594 C   0  0  0  0  0  0  0  0  0  0  0  0
    5.6618   24.1579    5.2778 C   0  0  0  0  0  0  0  0  0  0  0  0
    6.8175   24.0022    4.5124 C   0  0  0  0  0  0  0  0  0  0  0  0
   15.5881   21.0383   -3.6202 C   0  0  0  0  0  0  0  0  0  0  0  0
   13.4756   19.6962   -2.3057 C   0  0  0  0  0  0  0  0  0  0  0  0
   13.4779   19.7247   -3.7855 C   0  0  0  0  0  0  0  0  0  0  0  0
   12.4704   19.1256   -4.4898 C   0  0  0  0  0  0  0  0  0  0  0  0
   12.4905   19.1632   -5.8637 C   0  0  0  0  0  0  0  0  0  0  0  0
   13.5301   19.8059   -6.4852 C   0  0  0  0  0  0  0  0  0  0  0  0
   14.4881   20.3744   -5.7516 N   0  0  0  0  0  0  0  0  0  0  0  0
   14.5482   20.3866   -4.4247 C   0  0  0  0  0  0  0  0  0  0  0  0
 34 35  1  0  0  0
 35 36  2  0  0  0
 36 37  1  0  0  0
 37 38  2  0  0  0
 38 39  1  0  0  0
 39 40  2  0  0  0
 40 33  1  0  0  0
 33  1  1  0  0  0
  1  2  1  0  0  0
  2  3  1  0  0  0
  3  4  1  0  0  0
  4  5  1  0  0  0
  5  6  1  0  0  0
  4  7  1  0  0  0
  7  8  1  0  0  0
  8  9  2  0  0  0
  8 10  1  0  0  0
 10 11  1  0  0  0
 11 12  2  0  0  0
 10 21  1  0  0  0
 21 22  2  0  0  0
 22 23  1  0  0  0
 23 24  2  0  0  0
 24 25  1  0  0  0
 25 26  2  0  0  0
 24 27  1  0  0  0
 27 28  2  0  0  0
 28 29  1  0  0  0
 29 30  2  0  0  0
 30 31  1  0  0  0
 31 32  2  0  0  0
  7 13  1  0  0  0
 13 14  1  0  0  0
 14 15  2  0  0  0
 15 16  1  0  0  0
 16 17  2  0  0  0
 16 18  1  0  0  0
 18 19  1  0  0  0
 40 35  1  0  0  0
  6  1  1  0  0  0
 26 21  1  0  0  0
 32 27  1  0  0  0
 19 13  2  0  0  0
 11  4  1  0  0  0
 18 20  1  0  0  0
M  END
> <minimizedAffinity>
21.07812

> <CNNscore>
0.4255506098

> <CNNaffinity>
7.5707602501

> <CNN_VS>
3.2217416763

> <CNNaffinity_variance>
1.9061400890

$$$$
[H]c1nc(C([H])([H])N2C([H])([H])C([H])([H])C3(C(=O)N(c4c([H])c([H])c(-c5c([H])c([H])c([H])c([H])c5[H])c([H])c4[H])C(=O)N3c3nn([H])c(=O)c([H])c3[H])C([H])([H])C2([H])[H])c(C([H])([H])[H])c([H])c1[H]


 40 45  0  0  0  0  0  0  0  0999 V2000
   10.2528   21.3256    0.7522 N   0  0  0  0  0  0  0  0  0  0  0  0
   10.3184   22.3233   -0.2735 C   0  0  0  0  0  0  0  0  0  0  0  0
   11.5448   23.1009   -0.4542 C   0  0  0  0  0  0  0  0  0  0  0  0
   12.8158   22.3646   -0.1653 C   0  0  0  0  0  0  0  0  0  0  0  0
   12.6986   21.6818    1.1534 C   0  0  0  0  0  0  0  0  0  0  0  0
   11.4310   20.9711    1.4237 C   0  0  0  0  0  0  0  0  0  0  0  0
   13.2710   21.5202   -1.2474 N   0  0  0  0  0  0  0  0  0  0  0  0
   14.0913   22.3723   -2.0786 C   0  0  0  0  0  0  0  0  0  0  0  0
   14.4036   22.1205   -3.2854 O   0  0  0  0  0  0  0  0  0  0  0  0
   14.5001   23.5290   -1.3619 N   0  0  0  0  0  0  0  0  0  0  0  0
   13.9199   23.3808   -0.0722 C   0  0  0  0  0  0  0  0  0  0  0  0
   14.3131   24.0243    0.9403 O   0  0  0  0  0  0  0  0  0  0  0  0
   12.9957   20.1566   -1.4771 C   0  0  0  0  0  0  0  0  0  0  0  0
   12.7247   19.2853   -0.4539 C   0  0  0  0  0  0  0  0  0  0  0  0
   12.4593   17.9452   -0.7302 C   0  0  0  0  0  0  0  0  0  0  0  0
   12.4786   17.5354   -2.0413 C   0  0  0  0  0  0  0  0  0  0  0  0
   12.2418   16.3151   -2.3497 O   0  0  0  0  0  0  0  0  0  0  0  0
   12.7485   18.4207   -3.0126 N   0  0  0  0  0  0  0  0  0  0  0  0
   12.9914   19.6643   -2.7170 N   0  0  0  0  0  0  0  0  0  0  0  0
   12.7623   18.1040   -4.0166 H   0  0  0  0  0  0  0  0  0  0  0  0
   15.3115   24.5874   -1.8537 C   0  0  0  0  0  0  0  0  0  0  0  0
   16.4984   24.9309   -1.2456 C   0  0  0  0  0  0  0  0  0  0  0  0
   17.2984   25.9538   -1.7057 C   0  0  0  0  0  0  0  0  0  0  0  0
   16.9395   26.6904   -2.8134 C   0  0  0  0  0  0  0  0  0  0  0  0
   15.7523   26.3606   -3.4370 C   0  0  0  0  0  0  0  0  0  0  0  0
   14.9510   25.3236   -2.9628 C   0  0  0  0  0  0  0  0  0  0  0  0
   17.7521   27.7761   -3.3319 C   0  0  0  0  0  0  0  0  0  0  0  0
   17.1218   28.9078   -3.8056 C   0  0  0  0  0  0  0  0  0  0  0  0
   17.8333   29.9769   -4.3123 C   0  0  0  0  0  0  0  0  0  0  0  0
   19.2066   29.9316   -4.3547 C   0  0  0  0  0  0  0  0  0  0  0  0
   19.8625   28.7972   -3.8811 C   0  0  0  0  0  0  0  0  0  0  0  0
   19.1198   27.7308   -3.3740 C   0  0  0  0  0  0  0  0  0  0  0  0
    9.0868   21.4884    1.5800 C   0  0  0  0  0  0  0  0  0  0  0  0
    8.5293   23.8110    3.0921 C   0  0  0  0  0  0  0  0  0  0  0  0
    9.0838   22.6314    3.7933 C   0  0  0  0  0  0  0  0  0  0  0  0
    9.3039   22.6698    5.1425 C   0  0  0  0  0  0  0  0  0  0  0  0
    9.8194   21.5639    5.7754 C   0  0  0  0  0  0  0  0  0  0  0  0
   10.0974   20.4509    5.0245 C   0  0  0  0  0  0  0  0  0  0  0  0
    9.8641   20.4652    3.7112 N   0  0  0  0  0  0  0  0  0  0  0  0
    9.3697   21.4860    3.0199 C   0  0  0  0  0  0  0  0  0  0  0  0
 34 35  1  0  0  0
 35 36  2  0  0  0
 36 37  1  0  0  0
 37 38  2  0  0  0
 38 39  1  0  0  0
 39 40  2  0  0  0
 40 33  1  0  0  0
 33  1  1  0  0  0
  1  2  1  0  0  0
  2  3  1  0  0  0
  3  4  1  0  0  0
  4  5  1  0  0  0
  5  6  1  0  0  0
  4  7  1  0  0  0
  7  8  1  0  0  0
  8  9  2  0  0  0
  8 10  1  0  0  0
 10 11  1  0  0  0
 11 12  2  0  0  0
 10 21  1  0  0  0
 21 22  2  0  0  0
 22 23  1  0  0  0
 23 24  2  0  0  0
 24 25  1  0  0  0
 25 26  2  0  0  0
 24 27  1  0  0  0
 27 28  2  0  0  0
 28 29  1  0  0  0
 29 30  2  0  0  0
 30 31  1  0  0  0
 31 32  2  0  0  0
  7 13  1  0  0  0
 13 14  1  0  0  0
 14 15  2  0  0  0
 15 16  1  0  0  0
 16 17  2  0  0  0
 16 18  1  0  0  0
 18 19  1  0  0  0
 40 35  1  0  0  0
  6  1  1  0  0  0
 26 21  1  0  0  0
 32 27  1  0  0  0
 19 13  2  0  0  0
 11  4  1  0  0  0
 18 20  1  0  0  0
M  END
> <minimizedAffinity>
29.96420

> <CNNscore>
0.4214624166

> <CNNaffinity>
7.4665894508

> <CNN_VS>
3.1468868256

> <CNNaffinity_variance>
0.3203001618

$$$$
[H]c1nc(C([H])([H])N2C([H])([H])C([H])([H])C3(C(=O)N(c4c([H])c([H])c(-c5c([H])c([H])c([H])c([H])c5[H])c([H])c4[H])C(=O)N3c3nn([H])c(=O)c([H])c3[H])C([H])([H])C2([H])[H])c(C([H])([H])[H])c([H])c1[H]


 40 45  0  0  0  0  0  0  0  0999 V2000
   15.6945   24.5897   -1.4163 N   0  0  0  0  0  0  0  0  0  0  0  0
   15.3280   25.1501   -0.1501 C   0  0  0  0  0  0  0  0  0  0  0  0
   13.9156   25.2527    0.2184 C   0  0  0  0  0  0  0  0  0  0  0  0
   13.0401   24.1531   -0.2966 C   0  0  0  0  0  0  0  0  0  0  0  0
   13.2931   23.9653   -1.7525 C   0  0  0  0  0  0  0  0  0  0  0  0
   14.7059   23.9619   -2.1867 C   0  0  0  0  0  0  0  0  0  0  0  0
   13.0880   22.9399    0.4890 N   0  0  0  0  0  0  0  0  0  0  0  0
   12.0789   23.1055    1.5108 C   0  0  0  0  0  0  0  0  0  0  0  0
   12.0241   22.4322    2.5883 O   0  0  0  0  0  0  0  0  0  0  0  0
   11.1577   24.1237    1.1457 N   0  0  0  0  0  0  0  0  0  0  0  0
   11.6116   24.5873   -0.1195 C   0  0  0  0  0  0  0  0  0  0  0  0
   10.8861   25.2475   -0.9144 O   0  0  0  0  0  0  0  0  0  0  0  0
   13.9241   21.8163    0.3255 C   0  0  0  0  0  0  0  0  0  0  0  0
   13.6624   20.8421   -0.6029 C   0  0  0  0  0  0  0  0  0  0  0  0
   14.5179   19.7487   -0.7271 C   0  0  0  0  0  0  0  0  0  0  0  0
   15.6133   19.6830    0.0993 C   0  0  0  0  0  0  0  0  0  0  0  0
   16.4308   18.6996    0.0263 O   0  0  0  0  0  0  0  0  0  0  0  0
   15.8326   20.6579    0.9945 N   0  0  0  0  0  0  0  0  0  0  0  0
   15.0122   21.6639    1.0821 N   0  0  0  0  0  0  0  0  0  0  0  0
   16.6731   20.6052    1.6263 H   0  0  0  0  0  0  0  0  0  0  0  0
   10.0366   24.5624    1.9016 C   0  0  0  0  0  0  0  0  0  0  0  0
    8.8345   23.8911    1.8677 C   0  0  0  0  0  0  0  0  0  0  0  0
    7.7362   24.3005    2.5915 C   0  0  0  0  0  0  0  0  0  0  0  0
    7.7934   25.4186    3.3946 C   0  0  0  0  0  0  0  0  0  0  0  0
    8.9908   26.1050    3.4416 C   0  0  0  0  0  0  0  0  0  0  0  0
   10.0957   25.6816    2.7052 C   0  0  0  0  0  0  0  0  0  0  0  0
    6.6607   25.8851    4.1737 C   0  0  0  0  0  0  0  0  0  0  0  0
    6.3057   27.2157    4.0958 C   0  0  0  0  0  0  0  0  0  0  0  0
    5.2399   27.7259    4.8097 C   0  0  0  0  0  0  0  0  0  0  0  0
    4.5006   26.9025    5.6253 C   0  0  0  0  0  0  0  0  0  0  0  0
    4.8430   25.5550    5.7181 C   0  0  0  0  0  0  0  0  0  0  0  0
    5.9245   25.0649    4.9859 C   0  0  0  0  0  0  0  0  0  0  0  0
   16.5974   25.4476   -2.1374 C   0  0  0  0  0  0  0  0  0  0  0  0
   17.2215   28.0362   -3.0870 C   0  0  0  0  0  0  0  0  0  0  0  0
   16.4203   27.1431   -3.9538 C   0  0  0  0  0  0  0  0  0  0  0  0
   16.0092   27.5647   -5.1881 C   0  0  0  0  0  0  0  0  0  0  0  0
   15.2661   26.7205   -5.9782 C   0  0  0  0  0  0  0  0  0  0  0  0
   14.9602   25.4738   -5.4962 C   0  0  0  0  0  0  0  0  0  0  0  0
   15.3858   25.1115   -4.2850 N   0  0  0  0  0  0  0  0  0  0  0  0
   16.1060   25.8600   -3.4572 C   0  0  0  0  0  0  0  0  0  0  0  0
 34 35  1  0  0  0
 35 36  2  0  0  0
 36 37  1  0  0  0
 37 38  2  0  0  0
 38 39  1  0  0  0
 39 40  2  0  0  0
 40 33  1  0  0  0
 33  1  1  0  0  0
  1  2  1  0  0  0
  2  3  1  0  0  0
  3  4  1  0  0  0
  4  5  1  0  0  0
  5  6  1  0  0  0
  4  7  1  0  0  0
  7  8  1  0  0  0
  8  9  2  0  0  0
  8 10  1  0  0  0
 10 11  1  0  0  0
 11 12  2  0  0  0
 10 21  1  0  0  0
 21 22  2  0  0  0
 22 23  1  0  0  0
 23 24  2  0  0  0
 24 25  1  0  0  0
 25 26  2  0  0  0
 24 27  1  0  0  0
 27 28  2  0  0  0
 28 29  1  0  0  0
 29 30  2  0  0  0
 30 31  1  0  0  0
 31 32  2  0  0  0
  7 13  1  0  0  0
 13 14  1  0  0  0
 14 15  2  0  0  0
 15 16  1  0  0  0
 16 17  2  0  0  0
 16 18  1  0  0  0
 18 19  1  0  0  0
 40 35  1  0  0  0
  6  1  1  0  0  0
 26 21  1  0  0  0
 32 27  1  0  0  0
 19 13  2  0  0  0
 11  4  1  0  0  0
 18 20  1  0  0  0
M  END
> <minimizedAffinity>
-5.10394

> <CNNscore>
0.3914052844

> <CNNaffinity>
7.5917115211

> <CNN_VS>
2.9714360237

> <CNNaffinity_variance>
0.0899791941

$$$$
[H]OC(=O)c1c([H])c([H])c(-c2c([H])c([H])c(N3C(=O)N(c4nc([H])nc(OC([H])([H])[H])c4[H])C4(C3=O)C([H])([H])C([H])([H])N(C([H])([H])c3nc([H])c([H])c([H])c3C([H])([H])[H])C([H])([H])C4([H])[H])c([H])c2[H])c(C([H])([H])[H])c1[H]


 45 50  0  0  0  0  0  0  0  0999 V2000
   13.8076   26.7440   -3.6766 N   0  0  0  0  0  0  0  0  0  0  0  0
   14.0476   26.0204   -2.4377 C   0  0  0  0  0  0  0  0  0  0  0  0
   15.1408   25.8612   -1.8568 O   0  0  0  0  0  0  0  0  0  0  0  0
   12.7399   25.5434   -2.0410 N   0  0  0  0  0  0  0  0  0  0  0  0
   11.7798   25.9644   -2.9676 C   0  0  0  0  0  0  0  0  0  0  0  0
   10.6760   25.4402   -3.1961 O   0  0  0  0  0  0  0  0  0  0  0  0
   12.4444   27.1862   -3.5924 C   0  0  0  0  0  0  0  0  0  0  0  0
   12.3253   28.3465   -2.6783 C   0  0  0  0  0  0  0  0  0  0  0  0
   11.6726   29.5901   -3.3017 C   0  0  0  0  0  0  0  0  0  0  0  0
   10.7495   29.3278   -4.2363 N   0  0  0  0  0  0  0  0  0  0  0  0
   10.4640   27.9707   -4.6740 C   0  0  0  0  0  0  0  0  0  0  0  0
   11.8311   27.3409   -4.9479 C   0  0  0  0  0  0  0  0  0  0  0  0
   16.8691   27.6299   -5.4277 C   0  0  0  0  0  0  0  0  0  0  0  0
   16.0050   27.4152   -4.3982 C   0  0  0  0  0  0  0  0  0  0  0  0
   14.7947   26.8607   -4.6857 C   0  0  0  0  0  0  0  0  0  0  0  0
   14.5303   26.5455   -5.9428 N   0  0  0  0  0  0  0  0  0  0  0  0
   15.3847   26.7462   -6.9658 C   0  0  0  0  0  0  0  0  0  0  0  0
   16.5717   27.3051   -6.7072 N   0  0  0  0  0  0  0  0  0  0  0  0
   18.6000   28.2769   -3.8333 C   0  0  0  0  0  0  0  0  0  0  0  0
   18.0968   28.2037   -5.1448 O   0  0  0  0  0  0  0  0  0  0  0  0
   12.5920   24.6182   -0.9610 C   0  0  0  0  0  0  0  0  0  0  0  0
   12.5921   23.2614   -1.0480 C   0  0  0  0  0  0  0  0  0  0  0  0
   12.1470   22.4382   -0.0163 C   0  0  0  0  0  0  0  0  0  0  0  0
   11.6806   23.0063    1.1478 C   0  0  0  0  0  0  0  0  0  0  0  0
   11.6914   24.4152    1.2252 C   0  0  0  0  0  0  0  0  0  0  0  0
   12.1279   25.2176    0.2158 C   0  0  0  0  0  0  0  0  0  0  0  0
   10.9626   22.2620    2.1774 C   0  0  0  0  0  0  0  0  0  0  0  0
   11.4973   21.4457    3.0924 C   0  0  0  0  0  0  0  0  0  0  0  0
   10.6530   20.8080    4.0118 C   0  0  0  0  0  0  0  0  0  0  0  0
    9.3155   21.0043    4.0046 C   0  0  0  0  0  0  0  0  0  0  0  0
    8.7774   21.8607    3.0408 C   0  0  0  0  0  0  0  0  0  0  0  0
    9.5515   22.4706    2.1478 C   0  0  0  0  0  0  0  0  0  0  0  0
    8.9385   23.2258    0.9859 C   0  0  0  0  0  0  0  0  0  0  0  0
    8.3727   20.2520    4.8005 C   0  0  0  0  0  0  0  0  0  0  0  0
    8.8846   19.3459    5.7089 O   0  0  0  0  0  0  0  0  0  0  0  0
    7.1553   20.4070    4.6480 O   0  0  0  0  0  0  0  0  0  0  0  0
    9.6342   18.6956    5.3158 H   0  0  0  0  0  0  0  0  0  0  0  0
    9.8849   30.2324   -4.8277 C   0  0  0  0  0  0  0  0  0  0  0  0
    8.5831   29.5888   -5.0692 C   0  0  0  0  0  0  0  0  0  0  0  0
    8.3163   28.8277   -6.1426 N   0  0  0  0  0  0  0  0  0  0  0  0
    7.1527   28.1416   -6.2276 C   0  0  0  0  0  0  0  0  0  0  0  0
    6.2025   28.2151   -5.2282 C   0  0  0  0  0  0  0  0  0  0  0  0
    6.4529   28.9990   -4.1285 C   0  0  0  0  0  0  0  0  0  0  0  0
    7.6379   29.6627   -4.0730 C   0  0  0  0  0  0  0  0  0  0  0  0
    7.8946   30.5778   -2.9080 C   0  0  0  0  0  0  0  0  0  0  0  0
 19 20  1  0  0  0
 20 13  1  0  0  0
 13 14  2  0  0  0
 14 15  1  0  0  0
 15 16  2  0  0  0
 16 17  1  0  0  0
 17 18  2  0  0  0
 15  1  1  0  0  0
  1  2  1  0  0  0
  2  3  2  0  0  0
  2  4  1  0  0  0
  4  5  1  0  0  0
  5  6  2  0  0  0
  5  7  1  0  0  0
  7  8  1  0  0  0
  8  9  1  0  0  0
  9 10  1  0  0  0
 10 38  1  0  0  0
 38 39  1  0  0  0
 39 40  2  0  0  0
 40 41  1  0  0  0
 41 42  2  0  0  0
 42 43  1  0  0  0
 43 44  2  0  0  0
 44 45  1  0  0  0
 10 11  1  0  0  0
 11 12  1  0  0  0
  4 21  1  0  0  0
 21 22  2  0  0  0
 22 23  1  0  0  0
 23 24  2  0  0  0
 24 25  1  0  0  0
 25 26  2  0  0  0
 24 27  1  0  0  0
 27 28  2  0  0  0
 28 29  1  0  0  0
 29 30  2  0  0  0
 30 31  1  0  0  0
 31 32  2  0  0  0
 32 33  1  0  0  0
 30 34  1  0  0  0
 34 35  1  0  0  0
 34 36  2  0  0  0
 18 13  1  0  0  0
  7  1  1  0  0  0
 12  7  1  0  0  0
 26 21  1  0  0  0
 32 27  1  0  0  0
 44 39  1  0  0  0
 35 37  1  0  0  0
M  END
> <minimizedAffinity>
15.90636

> <CNNscore>
0.5771999359

> <CNNaffinity>
7.5628499985

> <CNN_VS>
4.3652763367

> <CNNaffinity_variance>
0.4822467864

$$$$
[H]OC(=O)c1c([H])c([H])c(-c2c([H])c([H])c(N3C(=O)N(c4nc([H])nc(OC([H])([H])[H])c4[H])C4(C3=O)C([H])([H])C([H])([H])N(C([H])([H])c3nc([H])c([H])c([H])c3C([H])([H])[H])C([H])([H])C4([H])[H])c([H])c2[H])c(C([H])([H])[H])c1[H]


 45 50  0  0  0  0  0  0  0  0999 V2000
   16.0047   24.5796   -0.6857 N   0  0  0  0  0  0  0  0  0  0  0  0
   14.8078   24.3138    0.0972 C   0  0  0  0  0  0  0  0  0  0  0  0
   14.7107   24.2871    1.3413 O   0  0  0  0  0  0  0  0  0  0  0  0
   13.7724   24.0986   -0.8910 N   0  0  0  0  0  0  0  0  0  0  0  0
   14.3061   24.2411   -2.1765 C   0  0  0  0  0  0  0  0  0  0  0  0
   13.8662   23.7511   -3.2309 O   0  0  0  0  0  0  0  0  0  0  0  0
   15.5264   25.1204   -1.9266 C   0  0  0  0  0  0  0  0  0  0  0  0
   15.1042   26.5306   -1.7556 C   0  0  0  0  0  0  0  0  0  0  0  0
   15.7906   27.5253   -2.7045 C   0  0  0  0  0  0  0  0  0  0  0  0
   16.1113   27.0232   -3.9042 N   0  0  0  0  0  0  0  0  0  0  0  0
   15.8975   25.6227   -4.2324 C   0  0  0  0  0  0  0  0  0  0  0  0
   16.4731   24.8405   -3.0503 C   0  0  0  0  0  0  0  0  0  0  0  0
   18.9139   24.2944    1.4774 C   0  0  0  0  0  0  0  0  0  0  0  0
   17.6199   24.4792    1.0977 C   0  0  0  0  0  0  0  0  0  0  0  0
   17.3020   24.2689   -0.2098 C   0  0  0  0  0  0  0  0  0  0  0  0
   18.2602   23.8814   -1.0352 N   0  0  0  0  0  0  0  0  0  0  0  0
   19.5415   23.6871   -0.6644 C   0  0  0  0  0  0  0  0  0  0  0  0
   19.8779   23.9045    0.6115 N   0  0  0  0  0  0  0  0  0  0  0  0
   19.3200   25.8133    3.3441 C   0  0  0  0  0  0  0  0  0  0  0  0
   19.2469   24.5172    2.8026 O   0  0  0  0  0  0  0  0  0  0  0  0
   12.4813   23.6171   -0.5094 C   0  0  0  0  0  0  0  0  0  0  0  0
   11.3037   24.2903   -0.6008 C   0  0  0  0  0  0  0  0  0  0  0  0
   10.1470   23.8823    0.0594 C   0  0  0  0  0  0  0  0  0  0  0  0
   10.1806   22.7523    0.8451 C   0  0  0  0  0  0  0  0  0  0  0  0
   11.4083   22.0615    0.9261 C   0  0  0  0  0  0  0  0  0  0  0  0
   12.5372   22.4617    0.2790 C   0  0  0  0  0  0  0  0  0  0  0  0
    9.1156   22.3820    1.7715 C   0  0  0  0  0  0  0  0  0  0  0  0
    8.3912   21.2577    1.7476 C   0  0  0  0  0  0  0  0  0  0  0  0
    7.4018   21.0648    2.7217 C   0  0  0  0  0  0  0  0  0  0  0  0
    7.1682   21.9792    3.6896 C   0  0  0  0  0  0  0  0  0  0  0  0
    7.9359   23.1465    3.6966 C   0  0  0  0  0  0  0  0  0  0  0  0
    8.8735   23.3633    2.7786 C   0  0  0  0  0  0  0  0  0  0  0  0
    9.5498   24.7152    2.6735 C   0  0  0  0  0  0  0  0  0  0  0  0
    6.0572   21.9300    4.6123 C   0  0  0  0  0  0  0  0  0  0  0  0
    6.1780   22.6345    5.7944 O   0  0  0  0  0  0  0  0  0  0  0  0
    5.0511   21.2601    4.3512 O   0  0  0  0  0  0  0  0  0  0  0  0
    7.0956   22.4762    6.3161 H   0  0  0  0  0  0  0  0  0  0  0  0
   16.5673   27.7271   -5.0052 C   0  0  0  0  0  0  0  0  0  0  0  0
   16.1180   27.0623   -6.2395 C   0  0  0  0  0  0  0  0  0  0  0  0
   16.9429   26.7117   -7.2391 N   0  0  0  0  0  0  0  0  0  0  0  0
   16.4907   25.9679   -8.2756 C   0  0  0  0  0  0  0  0  0  0  0  0
   15.1723   25.5631   -8.3461 C   0  0  0  0  0  0  0  0  0  0  0  0
   14.3110   25.9234   -7.3387 C   0  0  0  0  0  0  0  0  0  0  0  0
   14.8049   26.6596   -6.3081 C   0  0  0  0  0  0  0  0  0  0  0  0
   13.8575   27.1186   -5.2347 C   0  0  0  0  0  0  0  0  0  0  0  0
 19 20  1  0  0  0
 20 13  1  0  0  0
 13 14  2  0  0  0
 14 15  1  0  0  0
 15 16  2  0  0  0
 16 17  1  0  0  0
 17 18  2  0  0  0
 15  1  1  0  0  0
  1  2  1  0  0  0
  2  3  2  0  0  0
  2  4  1  0  0  0
  4  5  1  0  0  0
  5  6  2  0  0  0
  5  7  1  0  0  0
  7  8  1  0  0  0
  8  9  1  0  0  0
  9 10  1  0  0  0
 10 38  1  0  0  0
 38 39  1  0  0  0
 39 40  2  0  0  0
 40 41  1  0  0  0
 41 42  2  0  0  0
 42 43  1  0  0  0
 43 44  2  0  0  0
 44 45  1  0  0  0
 10 11  1  0  0  0
 11 12  1  0  0  0
  4 21  1  0  0  0
 21 22  2  0  0  0
 22 23  1  0  0  0
 23 24  2  0  0  0
 24 25  1  0  0  0
 25 26  2  0  0  0
 24 27  1  0  0  0
 27 28  2  0  0  0
 28 29  1  0  0  0
 29 30  2  0  0  0
 30 31  1  0  0  0
 31 32  2  0  0  0
 32 33  1  0  0  0
 30 34  1  0  0  0
 34 35  1  0  0  0
 34 36  2  0  0  0
 18 13  1  0  0  0
  7  1  1  0  0  0
 12  7  1  0  0  0
 26 21  1  0  0  0
 32 27  1  0  0  0
 44 39  1  0  0  0
 35 37  1  0  0  0
M  END
> <minimizedAffinity>
12.37876

> <CNNscore>
0.5750544667

> <CNNaffinity>
7.9009337425

> <CNN_VS>
4.5434670448

> <CNNaffinity_variance>
0.5094350576

$$$$
[H]OC(=O)c1c([H])c([H])c(-c2c([H])c([H])c(N3C(=O)N(c4nc([H])nc(OC([H])([H])[H])c4[H])C4(C3=O)C([H])([H])C([H])([H])N(C([H])([H])c3nc([H])c([H])c([H])c3C([H])([H])[H])C([H])([H])C4([H])[H])c([H])c2[H])c(C([H])([H])[H])c1[H]


 45 50  0  0  0  0  0  0  0  0999 V2000
   13.8366   27.0218   -4.1375 N   0  0  0  0  0  0  0  0  0  0  0  0
   14.2380   26.2569   -2.9671 C   0  0  0  0  0  0  0  0  0  0  0  0
   15.3951   26.1093   -2.5229 O   0  0  0  0  0  0  0  0  0  0  0  0
   12.9985   25.7227   -2.4443 N   0  0  0  0  0  0  0  0  0  0  0  0
   11.9265   26.1499   -3.2354 C   0  0  0  0  0  0  0  0  0  0  0  0
   10.8182   25.6005   -3.3585 O   0  0  0  0  0  0  0  0  0  0  0  0
   12.4809   27.4165   -3.8783 C   0  0  0  0  0  0  0  0  0  0  0  0
   12.4372   28.5347   -2.9067 C   0  0  0  0  0  0  0  0  0  0  0  0
   11.6832   29.7809   -3.3962 C   0  0  0  0  0  0  0  0  0  0  0  0
   10.6655   29.5272   -4.2293 N   0  0  0  0  0  0  0  0  0  0  0  0
   10.3680   28.1804   -4.6903 C   0  0  0  0  0  0  0  0  0  0  0  0
   11.7106   27.6061   -5.1464 C   0  0  0  0  0  0  0  0  0  0  0  0
   15.6900   26.4338   -7.2104 C   0  0  0  0  0  0  0  0  0  0  0  0
   14.7529   26.2758   -6.2359 C   0  0  0  0  0  0  0  0  0  0  0  0
   14.6965   27.2105   -5.2470 C   0  0  0  0  0  0  0  0  0  0  0  0
   15.5407   28.2277   -5.2946 N   0  0  0  0  0  0  0  0  0  0  0  0
   16.4646   28.3958   -6.2615 C   0  0  0  0  0  0  0  0  0  0  0  0
   16.5477   27.4801   -7.2326 N   0  0  0  0  0  0  0  0  0  0  0  0
   16.9906   24.9930   -8.6901 C   0  0  0  0  0  0  0  0  0  0  0  0
   15.7609   25.4815   -8.2128 O   0  0  0  0  0  0  0  0  0  0  0  0
   13.0018   24.7505   -1.3960 C   0  0  0  0  0  0  0  0  0  0  0  0
   13.0559   23.3998   -1.5411 C   0  0  0  0  0  0  0  0  0  0  0  0
   12.7542   22.5163   -0.5073 C   0  0  0  0  0  0  0  0  0  0  0  0
   12.3806   23.0152    0.7203 C   0  0  0  0  0  0  0  0  0  0  0  0
   12.3340   24.4188    0.8570 C   0  0  0  0  0  0  0  0  0  0  0  0
   12.6303   25.2803   -0.1547 C   0  0  0  0  0  0  0  0  0  0  0  0
   11.8039   22.1968    1.7820 C   0  0  0  0  0  0  0  0  0  0  0  0
   10.7373   22.4967    2.5317 C   0  0  0  0  0  0  0  0  0  0  0  0
   10.3182   21.5880    3.5132 C   0  0  0  0  0  0  0  0  0  0  0  0
   10.9565   20.4134    3.7145 C   0  0  0  0  0  0  0  0  0  0  0  0
   12.0680   20.1195    2.9208 C   0  0  0  0  0  0  0  0  0  0  0  0
   12.4967   20.9670    1.9898 C   0  0  0  0  0  0  0  0  0  0  0  0
   13.8172   20.7324    1.2847 C   0  0  0  0  0  0  0  0  0  0  0  0
   10.6918   19.5151    4.8151 C   0  0  0  0  0  0  0  0  0  0  0  0
   11.1614   18.2203    4.7090 O   0  0  0  0  0  0  0  0  0  0  0  0
   10.0480   19.8977    5.7992 O   0  0  0  0  0  0  0  0  0  0  0  0
   10.9397   17.7401    3.7819 H   0  0  0  0  0  0  0  0  0  0  0  0
    9.7140   30.4268   -4.6776 C   0  0  0  0  0  0  0  0  0  0  0  0
    8.4619   29.7144   -4.9806 C   0  0  0  0  0  0  0  0  0  0  0  0
    8.2653   28.9965   -6.0981 N   0  0  0  0  0  0  0  0  0  0  0  0
    7.1509   28.2422   -6.2441 C   0  0  0  0  0  0  0  0  0  0  0  0
    6.1800   28.2001   -5.2630 C   0  0  0  0  0  0  0  0  0  0  0  0
    6.3584   28.9382   -4.1185 C   0  0  0  0  0  0  0  0  0  0  0  0
    7.4960   29.6732   -4.0026 C   0  0  0  0  0  0  0  0  0  0  0  0
    7.6709   30.5389   -2.7858 C   0  0  0  0  0  0  0  0  0  0  0  0
 19 20  1  0  0  0
 20 13  1  0  0  0
 13 14  2  0  0  0
 14 15  1  0  0  0
 15 16  2  0  0  0
 16 17  1  0  0  0
 17 18  2  0  0  0
 15  1  1  0  0  0
  1  2  1  0  0  0
  2  3  2  0  0  0
  2  4  1  0  0  0
  4  5  1  0  0  0
  5  6  2  0  0  0
  5  7  1  0  0  0
  7  8  1  0  0  0
  8  9  1  0  0  0
  9 10  1  0  0  0
 10 38  1  0  0  0
 38 39  1  0  0  0
 39 40  2  0  0  0
 40 41  1  0  0  0
 41 42  2  0  0  0
 42 43  1  0  0  0
 43 44  2  0  0  0
 44 45  1  0  0  0
 10 11  1  0  0  0
 11 12  1  0  0  0
  4 21  1  0  0  0
 21 22  2  0  0  0
 22 23  1  0  0  0
 23 24  2  0  0  0
 24 25  1  0  0  0
 25 26  2  0  0  0
 24 27  1  0  0  0
 27 28  2  0  0  0
 28 29  1  0  0  0
 29 30  2  0  0  0
 30 31  1  0  0  0
 31 32  2  0  0  0
 32 33  1  0  0  0
 30 34  1  0  0  0
 34 35  1  0  0  0
 34 36  2  0  0  0
 18 13  1  0  0  0
  7  1  1  0  0  0
 12  7  1  0  0  0
 26 21  1  0  0  0
 32 27  1  0  0  0
 44 39  1  0  0  0
 35 37  1  0  0  0
M  END
> <minimizedAffinity>
13.43947

> <CNNscore>
0.5611781478

> <CNNaffinity>
7.6412429810

> <CNN_VS>
4.2880988121

> <CNNaffinity_variance>
0.5822538137

$$$$
[H]OC(=O)c1c([H])c([H])c(-c2c([H])c([H])c(N3C(=O)N(c4nc([H])nc(OC([H])([H])[H])c4[H])C4(C3=O)C([H])([H])C([H])([H])N(C([H])([H])c3nc([H])c([H])c([H])c3C([H])([H])[H])C([H])([H])C4([H])[H])c([H])c2[H])c(C([H])([H])[H])c1[H]


 45 50  0  0  0  0  0  0  0  0999 V2000
   14.8921   24.6234   -0.5437 N   0  0  0  0  0  0  0  0  0  0  0  0
   14.1429   24.2890    0.6575 C   0  0  0  0  0  0  0  0  0  0  0  0
   14.4403   24.5740    1.8358 O   0  0  0  0  0  0  0  0  0  0  0  0
   12.9870   23.5666    0.1707 N   0  0  0  0  0  0  0  0  0  0  0  0
   13.0305   23.4867   -1.2255 C   0  0  0  0  0  0  0  0  0  0  0  0
   12.4777   22.6385   -1.9468 O   0  0  0  0  0  0  0  0  0  0  0  0
   13.9127   24.6751   -1.5921 C   0  0  0  0  0  0  0  0  0  0  0  0
   13.1265   25.9289   -1.5134 C   0  0  0  0  0  0  0  0  0  0  0  0
   13.1307   26.7705   -2.7990 C   0  0  0  0  0  0  0  0  0  0  0  0
   13.2194   26.0607   -3.9315 N   0  0  0  0  0  0  0  0  0  0  0  0
   13.3852   24.6160   -3.9213 C   0  0  0  0  0  0  0  0  0  0  0  0
   14.5127   24.3480   -2.9226 C   0  0  0  0  0  0  0  0  0  0  0  0
   18.2629   25.6020   -1.4947 C   0  0  0  0  0  0  0  0  0  0  0  0
   16.9023   25.5856   -1.4564 C   0  0  0  0  0  0  0  0  0  0  0  0
   16.2993   24.7839   -0.5351 C   0  0  0  0  0  0  0  0  0  0  0  0
   17.0645   24.0794    0.2819 N   0  0  0  0  0  0  0  0  0  0  0  0
   18.4120   24.0981    0.2562 C   0  0  0  0  0  0  0  0  0  0  0  0
   19.0236   24.8657   -0.6521 N   0  0  0  0  0  0  0  0  0  0  0  0
   18.2254   27.4970   -3.0324 C   0  0  0  0  0  0  0  0  0  0  0  0
   18.8828   26.4058   -2.4361 O   0  0  0  0  0  0  0  0  0  0  0  0
   12.1025   22.9005    1.0752 C   0  0  0  0  0  0  0  0  0  0  0  0
   12.0086   21.5597    1.2797 C   0  0  0  0  0  0  0  0  0  0  0  0
   10.9339   20.9698    1.9412 C   0  0  0  0  0  0  0  0  0  0  0  0
    9.9126   21.7637    2.4123 C   0  0  0  0  0  0  0  0  0  0  0  0
   10.0266   23.1536    2.1971 C   0  0  0  0  0  0  0  0  0  0  0  0
   11.0785   23.7278    1.5511 C   0  0  0  0  0  0  0  0  0  0  0  0
    8.6356   21.2391    2.8854 C   0  0  0  0  0  0  0  0  0  0  0  0
    7.5045   21.1333    2.1790 C   0  0  0  0  0  0  0  0  0  0  0  0
    6.3637   20.6022    2.7965 C   0  0  0  0  0  0  0  0  0  0  0  0
    6.3796   20.1849    4.0823 C   0  0  0  0  0  0  0  0  0  0  0  0
    7.5710   20.3041    4.8022 C   0  0  0  0  0  0  0  0  0  0  0  0
    8.6663   20.8151    4.2473 C   0  0  0  0  0  0  0  0  0  0  0  0
    9.8829   21.1301    5.0940 C   0  0  0  0  0  0  0  0  0  0  0  0
    5.2072   19.7944    4.8315 C   0  0  0  0  0  0  0  0  0  0  0  0
    4.6860   18.5378    4.5914 O   0  0  0  0  0  0  0  0  0  0  0  0
    4.6867   20.5743    5.6378 O   0  0  0  0  0  0  0  0  0  0  0  0
    4.5587   18.2976    3.5593 H   0  0  0  0  0  0  0  0  0  0  0  0
   13.0661   26.5337   -5.2232 C   0  0  0  0  0  0  0  0  0  0  0  0
   14.3162   27.1699   -5.6700 C   0  0  0  0  0  0  0  0  0  0  0  0
   14.8746   28.2261   -5.0573 N   0  0  0  0  0  0  0  0  0  0  0  0
   16.1006   28.6660   -5.4251 C   0  0  0  0  0  0  0  0  0  0  0  0
   16.8042   28.0576   -6.4458 C   0  0  0  0  0  0  0  0  0  0  0  0
   16.2430   26.9836   -7.0924 C   0  0  0  0  0  0  0  0  0  0  0  0
   15.0158   26.5628   -6.6864 C   0  0  0  0  0  0  0  0  0  0  0  0
   14.3613   25.4326   -7.4314 C   0  0  0  0  0  0  0  0  0  0  0  0
 19 20  1  0  0  0
 20 13  1  0  0  0
 13 14  2  0  0  0
 14 15  1  0  0  0
 15 16  2  0  0  0
 16 17  1  0  0  0
 17 18  2  0  0  0
 15  1  1  0  0  0
  1  2  1  0  0  0
  2  3  2  0  0  0
  2  4  1  0  0  0
  4  5  1  0  0  0
  5  6  2  0  0  0
  5  7  1  0  0  0
  7  8  1  0  0  0
  8  9  1  0  0  0
  9 10  1  0  0  0
 10 38  1  0  0  0
 38 39  1  0  0  0
 39 40  2  0  0  0
 40 41  1  0  0  0
 41 42  2  0  0  0
 42 43  1  0  0  0
 43 44  2  0  0  0
 44 45  1  0  0  0
 10 11  1  0  0  0
 11 12  1  0  0  0
  4 21  1  0  0  0
 21 22  2  0  0  0
 22 23  1  0  0  0
 23 24  2  0  0  0
 24 25  1  0  0  0
 25 26  2  0  0  0
 24 27  1  0  0  0
 27 28  2  0  0  0
 28 29  1  0  0  0
 29 30  2  0  0  0
 30 31  1  0  0  0
 31 32  2  0  0  0
 32 33  1  0  0  0
 30 34  1  0  0  0
 34 35  1  0  0  0
 34 36  2  0  0  0
 18 13  1  0  0  0
  7  1  1  0  0  0
 12  7  1  0  0  0
 26 21  1  0  0  0
 32 27  1  0  0  0
 44 39  1  0  0  0
 35 37  1  0  0  0
M  END
> <minimizedAffinity>
10.12356

> <CNNscore>
0.5569157004

> <CNNaffinity>
7.8240442276

> <CNN_VS>
4.3573331833

> <CNNaffinity_variance>
0.6611704826

$$$$
[H]OC(=O)c1c([H])c([H])c(-c2c([H])c([H])c(N3C(=O)N(c4nc([H])nc(OC([H])([H])[H])c4[H])C4(C3=O)C([H])([H])C([H])([H])N(C([H])([H])c3nc([H])c([H])c([H])c3C([H])([H])[H])C([H])([H])C4([H])[H])c([H])c2[H])c(C([H])([H])[H])c1[H]


 45 50  0  0  0  0  0  0  0  0999 V2000
   11.9699   22.5169    0.2312 N   0  0  0  0  0  0  0  0  0  0  0  0
   12.5310   22.6980   -1.0987 C   0  0  0  0  0  0  0  0  0  0  0  0
   13.0030   21.8157   -1.8448 O   0  0  0  0  0  0  0  0  0  0  0  0
   12.4075   24.1180   -1.3506 N   0  0  0  0  0  0  0  0  0  0  0  0
   11.8005   24.7432   -0.2560 C   0  0  0  0  0  0  0  0  0  0  0  0
   11.8935   25.9384    0.0729 O   0  0  0  0  0  0  0  0  0  0  0  0
   11.0350   23.5945    0.3916 C   0  0  0  0  0  0  0  0  0  0  0  0
    9.7912   23.3267   -0.3683 C   0  0  0  0  0  0  0  0  0  0  0  0
    8.5045   23.3728    0.4703 C   0  0  0  0  0  0  0  0  0  0  0  0
    8.5358   24.2345    1.4954 N   0  0  0  0  0  0  0  0  0  0  0  0
    9.7320   24.9934    1.8242 C   0  0  0  0  0  0  0  0  0  0  0  0
   10.8686   23.9693    1.8300 C   0  0  0  0  0  0  0  0  0  0  0  0
   13.9579   19.8645    1.7268 C   0  0  0  0  0  0  0  0  0  0  0  0
   13.6439   20.9506    0.9686 C   0  0  0  0  0  0  0  0  0  0  0  0
   12.3939   21.4767    1.0938 C   0  0  0  0  0  0  0  0  0  0  0  0
   11.5598   20.9173    1.9546 N   0  0  0  0  0  0  0  0  0  0  0  0
   11.8670   19.8481    2.7156 C   0  0  0  0  0  0  0  0  0  0  0  0
   13.0835   19.3059    2.5953 N   0  0  0  0  0  0  0  0  0  0  0  0
   16.3093   20.0622    1.1034 C   0  0  0  0  0  0  0  0  0  0  0  0
   15.2228   19.3173    1.5966 O   0  0  0  0  0  0  0  0  0  0  0  0
   13.0292   24.7188   -2.4893 C   0  0  0  0  0  0  0  0  0  0  0  0
   14.2818   24.4708   -2.9561 C   0  0  0  0  0  0  0  0  0  0  0  0
   14.9238   25.2991   -3.8737 C   0  0  0  0  0  0  0  0  0  0  0  0
   14.2777   26.4234   -4.3363 C   0  0  0  0  0  0  0  0  0  0  0  0
   12.9765   26.6647   -3.8468 C   0  0  0  0  0  0  0  0  0  0  0  0
   12.3508   25.8530   -2.9506 C   0  0  0  0  0  0  0  0  0  0  0  0
   14.9413   27.4825   -5.0897 C   0  0  0  0  0  0  0  0  0  0  0  0
   15.0386   28.7703   -4.7410 C   0  0  0  0  0  0  0  0  0  0  0  0
   15.7165   29.6559   -5.5900 C   0  0  0  0  0  0  0  0  0  0  0  0
   16.2829   29.2410   -6.7453 C   0  0  0  0  0  0  0  0  0  0  0  0
   16.1698   27.8921   -7.0909 C   0  0  0  0  0  0  0  0  0  0  0  0
   15.5224   27.0303   -6.3118 C   0  0  0  0  0  0  0  0  0  0  0  0
   15.2289   25.6249   -6.7963 C   0  0  0  0  0  0  0  0  0  0  0  0
   16.8396   30.1211   -7.7472 C   0  0  0  0  0  0  0  0  0  0  0  0
   17.0727   29.5927   -9.0021 O   0  0  0  0  0  0  0  0  0  0  0  0
   17.1135   31.2952   -7.4718 O   0  0  0  0  0  0  0  0  0  0  0  0
   17.5916   28.6600   -9.0037 H   0  0  0  0  0  0  0  0  0  0  0  0
    7.4727   24.6114    2.2974 C   0  0  0  0  0  0  0  0  0  0  0  0
    7.9630   25.4309    3.4178 C   0  0  0  0  0  0  0  0  0  0  0  0
    8.1263   26.7619    3.3514 N   0  0  0  0  0  0  0  0  0  0  0  0
    8.4330   27.4737    4.4610 C   0  0  0  0  0  0  0  0  0  0  0  0
    8.6029   26.8565    5.6845 C   0  0  0  0  0  0  0  0  0  0  0  0
    8.4522   25.4939    5.7688 C   0  0  0  0  0  0  0  0  0  0  0  0
    8.1315   24.8148    4.6357 C   0  0  0  0  0  0  0  0  0  0  0  0
    8.0317   23.3160    4.7006 C   0  0  0  0  0  0  0  0  0  0  0  0
 19 20  1  0  0  0
 20 13  1  0  0  0
 13 14  2  0  0  0
 14 15  1  0  0  0
 15 16  2  0  0  0
 16 17  1  0  0  0
 17 18  2  0  0  0
 15  1  1  0  0  0
  1  2  1  0  0  0
  2  3  2  0  0  0
  2  4  1  0  0  0
  4  5  1  0  0  0
  5  6  2  0  0  0
  5  7  1  0  0  0
  7  8  1  0  0  0
  8  9  1  0  0  0
  9 10  1  0  0  0
 10 38  1  0  0  0
 38 39  1  0  0  0
 39 40  2  0  0  0
 40 41  1  0  0  0
 41 42  2  0  0  0
 42 43  1  0  0  0
 43 44  2  0  0  0
 44 45  1  0  0  0
 10 11  1  0  0  0
 11 12  1  0  0  0
  4 21  1  0  0  0
 21 22  2  0  0  0
 22 23  1  0  0  0
 23 24  2  0  0  0
 24 25  1  0  0  0
 25 26  2  0  0  0
 24 27  1  0  0  0
 27 28  2  0  0  0
 28 29  1  0  0  0
 29 30  2  0  0  0
 30 31  1  0  0  0
 31 32  2  0  0  0
 32 33  1  0  0  0
 30 34  1  0  0  0
 34 35  1  0  0  0
 34 36  2  0  0  0
 18 13  1  0  0  0
  7  1  1  0  0  0
 12  7  1  0  0  0
 26 21  1  0  0  0
 32 27  1  0  0  0
 44 39  1  0  0  0
 35 37  1  0  0  0
M  END
> <minimizedAffinity>
9.41887

> <CNNscore>
0.5243815780

> <CNNaffinity>
7.8431730270

> <CNN_VS>
4.1128153801

> <CNNaffinity_variance>
0.4191984534

$$$$
[H]OC(=O)c1c([H])c([H])c(-c2c([H])c([H])c(N3C(=O)N(c4nc([H])nc(OC([H])([H])[H])c4[H])C4(C3=O)C([H])([H])C([H])([H])N(C([H])([H])c3nc([H])c([H])c([H])c3C([H])([H])[H])C([H])([H])C4([H])[H])c([H])c2[H])c(C([H])([H])[H])c1[H]


 45 50  0  0  0  0  0  0  0  0999 V2000
   13.8763   25.4600   -2.3782 N   0  0  0  0  0  0  0  0  0  0  0  0
   12.5287   25.0455   -2.0199 C   0  0  0  0  0  0  0  0  0  0  0  0
   11.5663   24.8592   -2.7925 O   0  0  0  0  0  0  0  0  0  0  0  0
   12.5696   24.8954   -0.5809 N   0  0  0  0  0  0  0  0  0  0  0  0
   13.8551   25.1837   -0.1098 C   0  0  0  0  0  0  0  0  0  0  0  0
   14.1701   25.5554    1.0339 O   0  0  0  0  0  0  0  0  0  0  0  0
   14.7173   24.9314   -1.3418 C   0  0  0  0  0  0  0  0  0  0  0  0
   14.9209   23.4749   -1.5240 C   0  0  0  0  0  0  0  0  0  0  0  0
   16.3918   23.0374   -1.6023 C   0  0  0  0  0  0  0  0  0  0  0  0
   17.2366   23.7851   -0.8802 N   0  0  0  0  0  0  0  0  0  0  0  0
   16.7908   24.9647   -0.1558 C   0  0  0  0  0  0  0  0  0  0  0  0
   15.9503   25.7580   -1.1582 C   0  0  0  0  0  0  0  0  0  0  0  0
   15.4873   27.7775   -4.6712 C   0  0  0  0  0  0  0  0  0  0  0  0
   15.3310   26.9150   -3.6298 C   0  0  0  0  0  0  0  0  0  0  0  0
   14.1420   26.2605   -3.5161 C   0  0  0  0  0  0  0  0  0  0  0  0
   13.2118   26.4836   -4.4295 N   0  0  0  0  0  0  0  0  0  0  0  0
   13.3630   27.3286   -5.4687 C   0  0  0  0  0  0  0  0  0  0  0  0
   14.5168   27.9940   -5.5889 N   0  0  0  0  0  0  0  0  0  0  0  0
   17.8370   28.0620   -4.0754 C   0  0  0  0  0  0  0  0  0  0  0  0
   16.6890   28.4551   -4.7869 O   0  0  0  0  0  0  0  0  0  0  0  0
   11.3716   24.6812    0.1697 C   0  0  0  0  0  0  0  0  0  0  0  0
   11.1166   25.1134    1.4332 C   0  0  0  0  0  0  0  0  0  0  0  0
   10.0667   24.6186    2.2034 C   0  0  0  0  0  0  0  0  0  0  0  0
    9.2436   23.6476    1.6792 C   0  0  0  0  0  0  0  0  0  0  0  0
    9.5175   23.2128    0.3651 C   0  0  0  0  0  0  0  0  0  0  0  0
   10.5438   23.6987   -0.3861 C   0  0  0  0  0  0  0  0  0  0  0  0
    8.2866   22.8856    2.4750 C   0  0  0  0  0  0  0  0  0  0  0  0
    8.0082   21.5824    2.3572 C   0  0  0  0  0  0  0  0  0  0  0  0
    7.0547   21.0105    3.2108 C   0  0  0  0  0  0  0  0  0  0  0  0
    6.4178   21.7380    4.1555 C   0  0  0  0  0  0  0  0  0  0  0  0
    6.7232   23.0972    4.2618 C   0  0  0  0  0  0  0  0  0  0  0  0
    7.6144   23.6708    3.4584 C   0  0  0  0  0  0  0  0  0  0  0  0
    7.7815   25.1768    3.4448 C   0  0  0  0  0  0  0  0  0  0  0  0
    5.3060   21.2610    4.9457 C   0  0  0  0  0  0  0  0  0  0  0  0
    4.6923   22.1628    5.7934 O   0  0  0  0  0  0  0  0  0  0  0  0
    4.9422   20.0813    4.8730 O   0  0  0  0  0  0  0  0  0  0  0  0
    5.3615   22.7269    6.4043 H   0  0  0  0  0  0  0  0  0  0  0  0
   18.5703   23.5192   -0.6230 C   0  0  0  0  0  0  0  0  0  0  0  0
   18.9206   23.9984    0.7242 C   0  0  0  0  0  0  0  0  0  0  0  0
   18.1026   23.9029    1.7846 N   0  0  0  0  0  0  0  0  0  0  0  0
   18.5429   24.2218    3.0241 C   0  0  0  0  0  0  0  0  0  0  0  0
   19.8328   24.6681    3.2340 C   0  0  0  0  0  0  0  0  0  0  0  0
   20.6797   24.7841    2.1590 C   0  0  0  0  0  0  0  0  0  0  0  0
   20.2055   24.4424    0.9317 C   0  0  0  0  0  0  0  0  0  0  0  0
   21.1003   24.6304   -0.2619 C   0  0  0  0  0  0  0  0  0  0  0  0
 19 20  1  0  0  0
 20 13  1  0  0  0
 13 14  2  0  0  0
 14 15  1  0  0  0
 15 16  2  0  0  0
 16 17  1  0  0  0
 17 18  2  0  0  0
 15  1  1  0  0  0
  1  2  1  0  0  0
  2  3  2  0  0  0
  2  4  1  0  0  0
  4  5  1  0  0  0
  5  6  2  0  0  0
  5  7  1  0  0  0
  7  8  1  0  0  0
  8  9  1  0  0  0
  9 10  1  0  0  0
 10 38  1  0  0  0
 38 39  1  0  0  0
 39 40  2  0  0  0
 40 41  1  0  0  0
 41 42  2  0  0  0
 42 43  1  0  0  0
 43 44  2  0  0  0
 44 45  1  0  0  0
 10 11  1  0  0  0
 11 12  1  0  0  0
  4 21  1  0  0  0
 21 22  2  0  0  0
 22 23  1  0  0  0
 23 24  2  0  0  0
 24 25  1  0  0  0
 25 26  2  0  0  0
 24 27  1  0  0  0
 27 28  2  0  0  0
 28 29  1  0  0  0
 29 30  2  0  0  0
 30 31  1  0  0  0
 31 32  2  0  0  0
 32 33  1  0  0  0
 30 34  1  0  0  0
 34 35  1  0  0  0
 34 36  2  0  0  0
 18 13  1  0  0  0
  7  1  1  0  0  0
 12  7  1  0  0  0
 26 21  1  0  0  0
 32 27  1  0  0  0
 44 39  1  0  0  0
 35 37  1  0  0  0
M  END
> <minimizedAffinity>
23.25165

> <CNNscore>
0.4928518534

> <CNNaffinity>
7.6960382462

> <CNN_VS>
3.7930066586

> <CNNaffinity_variance>
0.3526400030

$$$$
[H]OC(=O)c1c([H])c([H])c(-c2c([H])c([H])c(N3C(=O)N(c4nc([H])nc(OC([H])([H])[H])c4[H])C4(C3=O)C([H])([H])C([H])([H])N(C([H])([H])c3nc([H])c([H])c([H])c3C([H])([H])[H])C([H])([H])C4([H])[H])c([H])c2[H])c(C([H])([H])[H])c1[H]


 45 50  0  0  0  0  0  0  0  0999 V2000
   13.9901   25.0461   -3.0779 N   0  0  0  0  0  0  0  0  0  0  0  0
   13.9884   24.3196   -1.8176 C   0  0  0  0  0  0  0  0  0  0  0  0
   14.9585   23.7558   -1.2707 O   0  0  0  0  0  0  0  0  0  0  0  0
   12.6208   24.4102   -1.3524 N   0  0  0  0  0  0  0  0  0  0  0  0
   11.8585   25.1524   -2.2610 C   0  0  0  0  0  0  0  0  0  0  0  0
   10.6273   25.1026   -2.4253 O   0  0  0  0  0  0  0  0  0  0  0  0
   12.9182   25.9942   -2.9635 C   0  0  0  0  0  0  0  0  0  0  0  0
   13.3136   27.1304   -2.0982 C   0  0  0  0  0  0  0  0  0  0  0  0
   13.1732   28.5139   -2.7520 C   0  0  0  0  0  0  0  0  0  0  0  0
   12.1750   28.6142   -3.6395 N   0  0  0  0  0  0  0  0  0  0  0  0
   11.3552   27.4701   -4.0056 C   0  0  0  0  0  0  0  0  0  0  0  0
   12.3470   26.3433   -4.3011 C   0  0  0  0  0  0  0  0  0  0  0  0
   15.8704   25.2338   -6.1849 C   0  0  0  0  0  0  0  0  0  0  0  0
   15.1041   25.6295   -5.1318 C   0  0  0  0  0  0  0  0  0  0  0  0
   14.8900   24.7357   -4.1267 C   0  0  0  0  0  0  0  0  0  0  0  0
   15.4499   23.5408   -4.2182 N   0  0  0  0  0  0  0  0  0  0  0  0
   16.2177   23.1455   -5.2531 C   0  0  0  0  0  0  0  0  0  0  0  0
   16.4262   24.0023   -6.2585 N   0  0  0  0  0  0  0  0  0  0  0  0
   16.2054   25.7165   -8.5538 C   0  0  0  0  0  0  0  0  0  0  0  0
   16.0830   26.1330   -7.2159 O   0  0  0  0  0  0  0  0  0  0  0  0
   12.1756   23.6481   -0.2277 C   0  0  0  0  0  0  0  0  0  0  0  0
   12.0951   22.2934   -0.1449 C   0  0  0  0  0  0  0  0  0  0  0  0
   11.3783   21.6389    0.8541 C   0  0  0  0  0  0  0  0  0  0  0  0
   10.7143   22.3802    1.8053 C   0  0  0  0  0  0  0  0  0  0  0  0
   10.8112   23.7846    1.7094 C   0  0  0  0  0  0  0  0  0  0  0  0
   11.5133   24.4221    0.7325 C   0  0  0  0  0  0  0  0  0  0  0  0
    9.7381   21.8155    2.7315 C   0  0  0  0  0  0  0  0  0  0  0  0
   10.0013   21.1498    3.8616 C   0  0  0  0  0  0  0  0  0  0  0  0
    8.9338   20.6740    4.6355 C   0  0  0  0  0  0  0  0  0  0  0  0
    7.6469   20.8793    4.2755 C   0  0  0  0  0  0  0  0  0  0  0  0
    7.3939   21.5768    3.0918 C   0  0  0  0  0  0  0  0  0  0  0  0
    8.3858   22.0300    2.3304 C   0  0  0  0  0  0  0  0  0  0  0  0
    8.1023   22.5970    0.9541 C   0  0  0  0  0  0  0  0  0  0  0  0
    6.5077   20.2717    4.9246 C   0  0  0  0  0  0  0  0  0  0  0  0
    6.7509   19.2228    5.7900 O   0  0  0  0  0  0  0  0  0  0  0  0
    5.3614   20.6707    4.6878 O   0  0  0  0  0  0  0  0  0  0  0  0
    7.3994   18.4678    5.4045 H   0  0  0  0  0  0  0  0  0  0  0  0
   11.7082   29.7713   -4.2385 C   0  0  0  0  0  0  0  0  0  0  0  0
   10.3824   29.5240   -4.8288 C   0  0  0  0  0  0  0  0  0  0  0  0
    9.9284   28.3032   -5.1549 N   0  0  0  0  0  0  0  0  0  0  0  0
    8.6455   28.1291   -5.5497 C   0  0  0  0  0  0  0  0  0  0  0  0
    7.7737   29.1957   -5.6450 C   0  0  0  0  0  0  0  0  0  0  0  0
    8.2243   30.4537   -5.3276 C   0  0  0  0  0  0  0  0  0  0  0  0
    9.5152   30.5872   -4.9229 C   0  0  0  0  0  0  0  0  0  0  0  0
   10.0399   31.9672   -4.6391 C   0  0  0  0  0  0  0  0  0  0  0  0
 19 20  1  0  0  0
 20 13  1  0  0  0
 13 14  2  0  0  0
 14 15  1  0  0  0
 15 16  2  0  0  0
 16 17  1  0  0  0
 17 18  2  0  0  0
 15  1  1  0  0  0
  1  2  1  0  0  0
  2  3  2  0  0  0
  2  4  1  0  0  0
  4  5  1  0  0  0
  5  6  2  0  0  0
  5  7  1  0  0  0
  7  8  1  0  0  0
  8  9  1  0  0  0
  9 10  1  0  0  0
 10 38  1  0  0  0
 38 39  1  0  0  0
 39 40  2  0  0  0
 40 41  1  0  0  0
 41 42  2  0  0  0
 42 43  1  0  0  0
 43 44  2  0  0  0
 44 45  1  0  0  0
 10 11  1  0  0  0
 11 12  1  0  0  0
  4 21  1  0  0  0
 21 22  2  0  0  0
 22 23  1  0  0  0
 23 24  2  0  0  0
 24 25  1  0  0  0
 25 26  2  0  0  0
 24 27  1  0  0  0
 27 28  2  0  0  0
 28 29  1  0  0  0
 29 30  2  0  0  0
 30 31  1  0  0  0
 31 32  2  0  0  0
 32 33  1  0  0  0
 30 34  1  0  0  0
 34 35  1  0  0  0
 34 36  2  0  0  0
 18 13  1  0  0  0
  7  1  1  0  0  0
 12  7  1  0  0  0
 26 21  1  0  0  0
 32 27  1  0  0  0
 44 39  1  0  0  0
 35 37  1  0  0  0
M  END
> <minimizedAffinity>
22.34422

> <CNNscore>
0.4823185802

> <CNNaffinity>
7.4244894981

> <CNN_VS>
3.5809693336

> <CNNaffinity_variance>
0.7966338992

$$$$
[H]OC(=O)c1c([H])c([H])c(-c2c([H])c([H])c(N3C(=O)N(c4nc([H])nc(OC([H])([H])[H])c4[H])C4(C3=O)C([H])([H])C([H])([H])N(C([H])([H])c3nc([H])c([H])c([H])c3C([H])([H])[H])C([H])([H])C4([H])[H])c([H])c2[H])c(C([H])([H])[H])c1[H]


 45 50  0  0  0  0  0  0  0  0999 V2000
   14.8609   24.1039   -0.7904 N   0  0  0  0  0  0  0  0  0  0  0  0
   13.9079   23.4506    0.0935 C   0  0  0  0  0  0  0  0  0  0  0  0
   13.9783   23.3488    1.3356 O   0  0  0  0  0  0  0  0  0  0  0  0
   12.8730   22.9616   -0.7923 N   0  0  0  0  0  0  0  0  0  0  0  0
   13.1747   23.3104   -2.1132 C   0  0  0  0  0  0  0  0  0  0  0  0
   12.7776   22.7477   -3.1481 O   0  0  0  0  0  0  0  0  0  0  0  0
   14.0912   24.5153   -1.9302 C   0  0  0  0  0  0  0  0  0  0  0  0
   13.2850   25.7173   -1.6121 C   0  0  0  0  0  0  0  0  0  0  0  0
   13.5136   26.9106   -2.5528 C   0  0  0  0  0  0  0  0  0  0  0  0
   13.8207   26.5778   -3.8134 N   0  0  0  0  0  0  0  0  0  0  0  0
   14.0038   25.1934   -4.2192 C   0  0  0  0  0  0  0  0  0  0  0  0
   14.9315   24.5851   -3.1657 C   0  0  0  0  0  0  0  0  0  0  0  0
   17.9701   24.3763    1.0759 C   0  0  0  0  0  0  0  0  0  0  0  0
   16.6528   24.1503    0.8179 C   0  0  0  0  0  0  0  0  0  0  0  0
   16.2397   24.1939   -0.4792 C   0  0  0  0  0  0  0  0  0  0  0  0
   17.1398   24.4358   -1.4178 N   0  0  0  0  0  0  0  0  0  0  0  0
   18.4473   24.6509   -1.1707 C   0  0  0  0  0  0  0  0  0  0  0  0
   18.8703   24.6291    0.0977 N   0  0  0  0  0  0  0  0  0  0  0  0
   19.6766   24.7840    2.7724 C   0  0  0  0  0  0  0  0  0  0  0  0
   18.3953   24.3448    2.3930 O   0  0  0  0  0  0  0  0  0  0  0  0
   11.8470   22.0892   -0.3121 C   0  0  0  0  0  0  0  0  0  0  0  0
   11.9818   20.7740    0.0050 C   0  0  0  0  0  0  0  0  0  0  0  0
   10.8927   19.9222    0.1742 C   0  0  0  0  0  0  0  0  0  0  0  0
    9.6176   20.4161    0.0144 C   0  0  0  0  0  0  0  0  0  0  0  0
    9.4935   21.7838   -0.3096 C   0  0  0  0  0  0  0  0  0  0  0  0
   10.5595   22.6146   -0.4735 C   0  0  0  0  0  0  0  0  0  0  0  0
    8.4317   19.5713   -0.0834 C   0  0  0  0  0  0  0  0  0  0  0  0
    7.7598   19.0172    0.9321 C   0  0  0  0  0  0  0  0  0  0  0  0
    6.6346   18.2289    0.6539 C   0  0  0  0  0  0  0  0  0  0  0  0
    6.2052   18.0229   -0.6113 C   0  0  0  0  0  0  0  0  0  0  0  0
    6.9212   18.6106   -1.6573 C   0  0  0  0  0  0  0  0  0  0  0  0
    7.9995   19.3537   -1.4256 C   0  0  0  0  0  0  0  0  0  0  0  0
    8.8814   19.8086   -2.5707 C   0  0  0  0  0  0  0  0  0  0  0  0
    5.1683   17.0874   -0.9826 C   0  0  0  0  0  0  0  0  0  0  0  0
    4.7205   17.1166   -2.2891 O   0  0  0  0  0  0  0  0  0  0  0  0
    4.6924   16.3105   -0.1464 O   0  0  0  0  0  0  0  0  0  0  0  0
    4.4858   18.0902   -2.6583 H   0  0  0  0  0  0  0  0  0  0  0  0
   13.9013   27.4290   -4.9018 C   0  0  0  0  0  0  0  0  0  0  0  0
   14.6814   26.7900   -5.9743 C   0  0  0  0  0  0  0  0  0  0  0  0
   14.1468   25.9823   -6.9042 N   0  0  0  0  0  0  0  0  0  0  0  0
   14.8895   25.5514   -7.9504 C   0  0  0  0  0  0  0  0  0  0  0  0
   16.2156   25.9123   -8.0852 C   0  0  0  0  0  0  0  0  0  0  0  0
   16.7828   26.7278   -7.1366 C   0  0  0  0  0  0  0  0  0  0  0  0
   16.0018   27.1506   -6.1074 C   0  0  0  0  0  0  0  0  0  0  0  0
   16.6288   27.9866   -5.0265 C   0  0  0  0  0  0  0  0  0  0  0  0
 19 20  1  0  0  0
 20 13  1  0  0  0
 13 14  2  0  0  0
 14 15  1  0  0  0
 15 16  2  0  0  0
 16 17  1  0  0  0
 17 18  2  0  0  0
 15  1  1  0  0  0
  1  2  1  0  0  0
  2  3  2  0  0  0
  2  4  1  0  0  0
  4  5  1  0  0  0
  5  6  2  0  0  0
  5  7  1  0  0  0
  7  8  1  0  0  0
  8  9  1  0  0  0
  9 10  1  0  0  0
 10 38  1  0  0  0
 38 39  1  0  0  0
 39 40  2  0  0  0
 40 41  1  0  0  0
 41 42  2  0  0  0
 42 43  1  0  0  0
 43 44  2  0  0  0
 44 45  1  0  0  0
 10 11  1  0  0  0
 11 12  1  0  0  0
  4 21  1  0  0  0
 21 22  2  0  0  0
 22 23  1  0  0  0
 23 24  2  0  0  0
 24 25  1  0  0  0
 25 26  2  0  0  0
 24 27  1  0  0  0
 27 28  2  0  0  0
 28 29  1  0  0  0
 29 30  2  0  0  0
 30 31  1  0  0  0
 31 32  2  0  0  0
 32 33  1  0  0  0
 30 34  1  0  0  0
 34 35  1  0  0  0
 34 36  2  0  0  0
 18 13  1  0  0  0
  7  1  1  0  0  0
 12  7  1  0  0  0
 26 21  1  0  0  0
 32 27  1  0  0  0
 44 39  1  0  0  0
 35 37  1  0  0  0
M  END
> <minimizedAffinity>
11.53324

> <CNNscore>
0.4540259540

> <CNNaffinity>
7.7074913979

> <CNN_VS>
3.4994010925

> <CNNaffinity_variance>
0.5471364856

$$$$
[H]OC(=O)c1c([H])c([H])c(-c2c([H])c([H])c(N3C(=O)N(c4nc([H])nc(OC([H])([H])[H])c4[H])C4(C3=O)C([H])([H])C([H])([H])N(C([H])([H])c3nc([H])c([H])c([H])c3C([H])([H])[H])C([H])([H])C4([H])[H])c([H])c2[H])c(C([H])([H])[H])c1[H]


 45 50  0  0  0  0  0  0  0  0999 V2000
   13.5325   24.8910   -0.2465 N   0  0  0  0  0  0  0  0  0  0  0  0
   12.3890   24.3726    0.4883 C   0  0  0  0  0  0  0  0  0  0  0  0
   12.0391   24.6721    1.6484 O   0  0  0  0  0  0  0  0  0  0  0  0
   11.7597   23.4489   -0.4313 N   0  0  0  0  0  0  0  0  0  0  0  0
   12.4659   23.4261   -1.6388 C   0  0  0  0  0  0  0  0  0  0  0  0
   12.4907   22.5085   -2.4772 O   0  0  0  0  0  0  0  0  0  0  0  0
   13.1684   24.7794   -1.6306 C   0  0  0  0  0  0  0  0  0  0  0  0
   12.2111   25.8457   -2.0084 C   0  0  0  0  0  0  0  0  0  0  0  0
   12.6535   26.7134   -3.1969 C   0  0  0  0  0  0  0  0  0  0  0  0
   13.3972   26.0743   -4.1094 N   0  0  0  0  0  0  0  0  0  0  0  0
   13.8147   24.6930   -3.9288 C   0  0  0  0  0  0  0  0  0  0  0  0
   14.3716   24.6243   -2.5056 C   0  0  0  0  0  0  0  0  0  0  0  0
   16.9279   24.9961    1.0514 C   0  0  0  0  0  0  0  0  0  0  0  0
   15.8607   24.6083    0.3007 C   0  0  0  0  0  0  0  0  0  0  0  0
   14.7110   25.3312    0.4042 C   0  0  0  0  0  0  0  0  0  0  0  0
   14.6973   26.3780    1.2126 N   0  0  0  0  0  0  0  0  0  0  0  0
   15.7530   26.7736    1.9515 C   0  0  0  0  0  0  0  0  0  0  0  0
   16.8861   26.0673    1.8771 N   0  0  0  0  0  0  0  0  0  0  0  0
   19.0946   24.3208    1.9492 C   0  0  0  0  0  0  0  0  0  0  0  0
   18.0964   24.2594    0.9601 O   0  0  0  0  0  0  0  0  0  0  0  0
   10.7025   22.5885    0.0004 C   0  0  0  0  0  0  0  0  0  0  0  0
    9.3680   22.8146   -0.1269 C   0  0  0  0  0  0  0  0  0  0  0  0
    8.4084   22.0892    0.5756 C   0  0  0  0  0  0  0  0  0  0  0  0
    8.8114   21.0986    1.4426 C   0  0  0  0  0  0  0  0  0  0  0  0
   10.1992   20.8721    1.5602 C   0  0  0  0  0  0  0  0  0  0  0  0
   11.1350   21.5819    0.8718 C   0  0  0  0  0  0  0  0  0  0  0  0
    7.9216   20.4593    2.4066 C   0  0  0  0  0  0  0  0  0  0  0  0
    8.0849   20.4094    3.7334 C   0  0  0  0  0  0  0  0  0  0  0  0
    7.1251   19.7489    4.5127 C   0  0  0  0  0  0  0  0  0  0  0  0
    6.0348   19.1711    3.9602 C   0  0  0  0  0  0  0  0  0  0  0  0
    5.8834   19.2347    2.5729 C   0  0  0  0  0  0  0  0  0  0  0  0
    6.7832   19.8438    1.8060 C   0  0  0  0  0  0  0  0  0  0  0  0
    6.7151   19.7251    0.2969 C   0  0  0  0  0  0  0  0  0  0  0  0
    5.1032   18.3286    4.6748 C   0  0  0  0  0  0  0  0  0  0  0  0
    4.6861   17.1679    4.0528 O   0  0  0  0  0  0  0  0  0  0  0  0
    4.6854   18.6577    5.7912 O   0  0  0  0  0  0  0  0  0  0  0  0
    4.3665   17.2936    3.0422 H   0  0  0  0  0  0  0  0  0  0  0  0
   13.7778   26.5495   -5.3524 C   0  0  0  0  0  0  0  0  0  0  0  0
   15.0932   27.2028   -5.2519 C   0  0  0  0  0  0  0  0  0  0  0  0
   15.4488   28.0091   -4.2389 N   0  0  0  0  0  0  0  0  0  0  0  0
   16.7224   28.4538   -4.1280 C   0  0  0  0  0  0  0  0  0  0  0  0
   17.6856   28.1086   -5.0553 C   0  0  0  0  0  0  0  0  0  0  0  0
   17.3368   27.2948   -6.1053 C   0  0  0  0  0  0  0  0  0  0  0  0
   16.0515   26.8579   -6.1760 C   0  0  0  0  0  0  0  0  0  0  0  0
   15.6405   26.0236   -7.3573 C   0  0  0  0  0  0  0  0  0  0  0  0
 19 20  1  0  0  0
 20 13  1  0  0  0
 13 14  2  0  0  0
 14 15  1  0  0  0
 15 16  2  0  0  0
 16 17  1  0  0  0
 17 18  2  0  0  0
 15  1  1  0  0  0
  1  2  1  0  0  0
  2  3  2  0  0  0
  2  4  1  0  0  0
  4  5  1  0  0  0
  5  6  2  0  0  0
  5  7  1  0  0  0
  7  8  1  0  0  0
  8  9  1  0  0  0
  9 10  1  0  0  0
 10 38  1  0  0  0
 38 39  1  0  0  0
 39 40  2  0  0  0
 40 41  1  0  0  0
 41 42  2  0  0  0
 42 43  1  0  0  0
 43 44  2  0  0  0
 44 45  1  0  0  0
 10 11  1  0  0  0
 11 12  1  0  0  0
  4 21  1  0  0  0
 21 22  2  0  0  0
 22 23  1  0  0  0
 23 24  2  0  0  0
 24 25  1  0  0  0
 25 26  2  0  0  0
 24 27  1  0  0  0
 27 28  2  0  0  0
 28 29  1  0  0  0
 29 30  2  0  0  0
 30 31  1  0  0  0
 31 32  2  0  0  0
 32 33  1  0  0  0
 30 34  1  0  0  0
 34 35  1  0  0  0
 34 36  2  0  0  0
 18 13  1  0  0  0
  7  1  1  0  0  0
 12  7  1  0  0  0
 26 21  1  0  0  0
 32 27  1  0  0  0
 44 39  1  0  0  0
 35 37  1  0  0  0
M  END
> <minimizedAffinity>
9.27864

> <CNNscore>
0.4124970436

> <CNNaffinity>
7.6011443138

> <CNN_VS>
3.1354496479

> <CNNaffinity_variance>
0.4212717116

$$$$
[H]OC(=O)c1c([H])c([H])c(-c2c([H])c([H])c(N3C(=O)N(c4nc([H])c([H])c([H])n4)C4(C3=O)C([H])([H])C([H])([H])N(C([H])([H])c3nc([H])c([H])c([H])c3C([H])([H])[H])C([H])([H])C4([H])[H])c([H])c2[H])c([H])c1[H]


 42 47  0  0  0  0  0  0  0  0999 V2000
   16.6003   24.9460   -3.7463 N   0  0  0  0  0  0  0  0  0  0  0  0
   17.0410   25.6050   -2.5952 C   0  0  0  0  0  0  0  0  0  0  0  0
   15.9476   25.6230   -1.5578 C   0  0  0  0  0  0  0  0  0  0  0  0
   15.4469   24.2669   -1.2476 C   0  0  0  0  0  0  0  0  0  0  0  0
   15.5828   23.2228   -2.2914 C   0  0  0  0  0  0  0  0  0  0  0  0
   16.1248   23.6263   -3.6130 C   0  0  0  0  0  0  0  0  0  0  0  0
   15.9340   23.8233    0.0477 N   0  0  0  0  0  0  0  0  0  0  0  0
   14.8150   23.1341    0.6625 C   0  0  0  0  0  0  0  0  0  0  0  0
   14.9045   22.3063    1.6268 O   0  0  0  0  0  0  0  0  0  0  0  0
   13.5936   23.5070    0.0427 N   0  0  0  0  0  0  0  0  0  0  0  0
   13.9634   24.4323   -0.9613 C   0  0  0  0  0  0  0  0  0  0  0  0
   13.2073   25.2567   -1.5281 O   0  0  0  0  0  0  0  0  0  0  0  0
   12.2929   23.0299    0.3850 C   0  0  0  0  0  0  0  0  0  0  0  0
   12.0201   21.6835    0.2904 C   0  0  0  0  0  0  0  0  0  0  0  0
   10.7546   21.1933    0.6278 C   0  0  0  0  0  0  0  0  0  0  0  0
    9.7757   22.0522    1.0558 C   0  0  0  0  0  0  0  0  0  0  0  0
   10.0304   23.4009    1.1561 C   0  0  0  0  0  0  0  0  0  0  0  0
   11.2823   23.8610    0.8190 C   0  0  0  0  0  0  0  0  0  0  0  0
    8.4475   21.5510    1.4145 C   0  0  0  0  0  0  0  0  0  0  0  0
    7.5520   21.1447    0.4619 C   0  0  0  0  0  0  0  0  0  0  0  0
    6.2955   20.6649    0.7873 C   0  0  0  0  0  0  0  0  0  0  0  0
    5.9707   20.6097    2.1235 C   0  0  0  0  0  0  0  0  0  0  0  0
    6.8569   21.0135    3.0934 C   0  0  0  0  0  0  0  0  0  0  0  0
    8.1019   21.4872    2.7477 C   0  0  0  0  0  0  0  0  0  0  0  0
    4.6603   20.1174    2.5739 C   0  0  0  0  0  0  0  0  0  0  0  0
    3.5782   20.2559    1.6978 O   0  0  0  0  0  0  0  0  0  0  0  0
    4.4855   19.5934    3.6841 O   0  0  0  0  0  0  0  0  0  0  0  0
    3.7695   19.9179    0.7461 H   0  0  0  0  0  0  0  0  0  0  0  0
   17.1855   23.9489    0.6839 C   0  0  0  0  0  0  0  0  0  0  0  0
   18.2465   24.3613   -0.0574 N   0  0  0  0  0  0  0  0  0  0  0  0
   19.4671   24.4877    0.4641 C   0  0  0  0  0  0  0  0  0  0  0  0
   19.6917   24.1995    1.7942 C   0  0  0  0  0  0  0  0  0  0  0  0
   18.6193   23.7836    2.5454 C   0  0  0  0  0  0  0  0  0  0  0  0
   17.4001   23.6715    1.9661 N   0  0  0  0  0  0  0  0  0  0  0  0
   16.4922   25.6073   -4.9727 C   0  0  0  0  0  0  0  0  0  0  0  0
   15.2472   25.6356   -7.5373 C   0  0  0  0  0  0  0  0  0  0  0  0
   14.5337   26.2488   -6.4013 C   0  0  0  0  0  0  0  0  0  0  0  0
   13.2919   26.8421   -6.5051 C   0  0  0  0  0  0  0  0  0  0  0  0
   12.6699   27.3984   -5.4249 C   0  0  0  0  0  0  0  0  0  0  0  0
   13.2903   27.3715   -4.1911 C   0  0  0  0  0  0  0  0  0  0  0  0
   14.5042   26.7888   -4.1015 N   0  0  0  0  0  0  0  0  0  0  0  0
   15.1353   26.2392   -5.1348 C   0  0  0  0  0  0  0  0  0  0  0  0
 36 37  1  0  0  0
 37 38  2  0  0  0
 38 39  1  0  0  0
 39 40  2  0  0  0
 40 41  1  0  0  0
 41 42  2  0  0  0
 42 35  1  0  0  0
 35  1  1  0  0  0
  1  2  1  0  0  0
  2  3  1  0  0  0
  3  4  1  0  0  0
  4  5  1  0  0  0
  5  6  1  0  0  0
  4  7  1  0  0  0
  7  8  1  0  0  0
  8  9  2  0  0  0
  8 10  1  0  0  0
 10 11  1  0  0  0
 11 12  2  0  0  0
 10 13  1  0  0  0
 13 14  2  0  0  0
 14 15  1  0  0  0
 15 16  2  0  0  0
 16 17  1  0  0  0
 17 18  2  0  0  0
 16 19  1  0  0  0
 19 20  2  0  0  0
 20 21  1  0  0  0
 21 22  2  0  0  0
 22 23  1  0  0  0
 23 24  2  0  0  0
 22 25  1  0  0  0
 25 26  1  0  0  0
 25 27  2  0  0  0
  7 29  1  0  0  0
 29 30  2  0  0  0
 30 31  1  0  0  0
 31 32  2  0  0  0
 32 33  1  0  0  0
 33 34  2  0  0  0
 42 37  1  0  0  0
  6  1  1  0  0  0
 18 13  1  0  0  0
 24 19  1  0  0  0
 34 29  1  0  0  0
 11  4  1  0  0  0
 26 28  1  0  0  0
M  END
> <minimizedAffinity>
11.34335

> <CNNscore>
0.5668821931

> <CNNaffinity>
7.8693962097

> <CNN_VS>
4.4610204697

> <CNNaffinity_variance>
0.8206094503

$$$$
[H]OC(=O)c1c([H])c([H])c(-c2c([H])c([H])c(N3C(=O)N(c4nc([H])c([H])c([H])n4)C4(C3=O)C([H])([H])C([H])([H])N(C([H])([H])c3nc([H])c([H])c([H])c3C([H])([H])[H])C([H])([H])C4([H])[H])c([H])c2[H])c([H])c1[H]


 42 47  0  0  0  0  0  0  0  0999 V2000
   15.6002   23.4587   -4.2692 N   0  0  0  0  0  0  0  0  0  0  0  0
   16.1059   24.3967   -3.3648 C   0  0  0  0  0  0  0  0  0  0  0  0
   15.1110   24.6384   -2.2586 C   0  0  0  0  0  0  0  0  0  0  0  0
   14.7156   23.3873   -1.5770 C   0  0  0  0  0  0  0  0  0  0  0  0
   14.8141   22.1210   -2.3419 C   0  0  0  0  0  0  0  0  0  0  0  0
   15.2119   22.1996   -3.7697 C   0  0  0  0  0  0  0  0  0  0  0  0
   15.3411   23.2954   -0.2685 N   0  0  0  0  0  0  0  0  0  0  0  0
   14.3215   22.7465    0.6058 C   0  0  0  0  0  0  0  0  0  0  0  0
   14.5429   22.1879    1.7293 O   0  0  0  0  0  0  0  0  0  0  0  0
   13.0307   22.9154    0.0401 N   0  0  0  0  0  0  0  0  0  0  0  0
   13.2571   23.5728   -1.1918 C   0  0  0  0  0  0  0  0  0  0  0  0
   12.4088   24.2064   -1.8638 O   0  0  0  0  0  0  0  0  0  0  0  0
   11.7943   22.4985    0.6181 C   0  0  0  0  0  0  0  0  0  0  0  0
   11.0071   23.4218    1.2693 C   0  0  0  0  0  0  0  0  0  0  0  0
    9.7882   23.0367    1.8366 C   0  0  0  0  0  0  0  0  0  0  0  0
    9.3687   21.7347    1.7475 C   0  0  0  0  0  0  0  0  0  0  0  0
   10.1426   20.7984    1.1008 C   0  0  0  0  0  0  0  0  0  0  0  0
   11.3378   21.1994    0.5501 C   0  0  0  0  0  0  0  0  0  0  0  0
    8.0934   21.3196    2.3352 C   0  0  0  0  0  0  0  0  0  0  0  0
    8.0104   20.8675    3.6248 C   0  0  0  0  0  0  0  0  0  0  0  0
    6.8111   20.4764    4.1937 C   0  0  0  0  0  0  0  0  0  0  0  0
    5.6857   20.5580    3.4057 C   0  0  0  0  0  0  0  0  0  0  0  0
    5.7503   21.0092    2.1091 C   0  0  0  0  0  0  0  0  0  0  0  0
    6.9536   21.3936    1.5629 C   0  0  0  0  0  0  0  0  0  0  0  0
    4.3635   20.1648    3.9150 C   0  0  0  0  0  0  0  0  0  0  0  0
    3.5693   19.3505    3.1002 O   0  0  0  0  0  0  0  0  0  0  0  0
    3.9365   20.5245    5.0223 O   0  0  0  0  0  0  0  0  0  0  0  0
    4.0612   18.5258    2.7334 H   0  0  0  0  0  0  0  0  0  0  0  0
   16.6360   23.6140    0.1879 C   0  0  0  0  0  0  0  0  0  0  0  0
   17.5847   23.9268   -0.7324 N   0  0  0  0  0  0  0  0  0  0  0  0
   18.8377   24.2216   -0.3844 C   0  0  0  0  0  0  0  0  0  0  0  0
   19.2131   24.2184    0.9428 C   0  0  0  0  0  0  0  0  0  0  0  0
   18.2542   23.9035    1.8749 C   0  0  0  0  0  0  0  0  0  0  0  0
   16.9959   23.6112    1.4677 N   0  0  0  0  0  0  0  0  0  0  0  0
   15.3459   23.7903   -5.6027 C   0  0  0  0  0  0  0  0  0  0  0  0
   16.7329   24.7069   -7.9188 C   0  0  0  0  0  0  0  0  0  0  0  0
   16.1921   25.7076   -6.9797 C   0  0  0  0  0  0  0  0  0  0  0  0
   16.3194   27.0708   -7.1538 C   0  0  0  0  0  0  0  0  0  0  0  0
   15.8026   27.9600   -6.2562 C   0  0  0  0  0  0  0  0  0  0  0  0
   15.1323   27.4940   -5.1421 C   0  0  0  0  0  0  0  0  0  0  0  0
   15.0139   26.1592   -4.9823 N   0  0  0  0  0  0  0  0  0  0  0  0
   15.5063   25.2686   -5.8381 C   0  0  0  0  0  0  0  0  0  0  0  0
 36 37  1  0  0  0
 37 38  2  0  0  0
 38 39  1  0  0  0
 39 40  2  0  0  0
 40 41  1  0  0  0
 41 42  2  0  0  0
 42 35  1  0  0  0
 35  1  1  0  0  0
  1  2  1  0  0  0
  2  3  1  0  0  0
  3  4  1  0  0  0
  4  5  1  0  0  0
  5  6  1  0  0  0
  4  7  1  0  0  0
  7  8  1  0  0  0
  8  9  2  0  0  0
  8 10  1  0  0  0
 10 11  1  0  0  0
 11 12  2  0  0  0
 10 13  1  0  0  0
 13 14  2  0  0  0
 14 15  1  0  0  0
 15 16  2  0  0  0
 16 17  1  0  0  0
 17 18  2  0  0  0
 16 19  1  0  0  0
 19 20  2  0  0  0
 20 21  1  0  0  0
 21 22  2  0  0  0
 22 23  1  0  0  0
 23 24  2  0  0  0
 22 25  1  0  0  0
 25 26  1  0  0  0
 25 27  2  0  0  0
  7 29  1  0  0  0
 29 30  2  0  0  0
 30 31  1  0  0  0
 31 32  2  0  0  0
 32 33  1  0  0  0
 33 34  2  0  0  0
 42 37  1  0  0  0
  6  1  1  0  0  0
 18 13  1  0  0  0
 24 19  1  0  0  0
 34 29  1  0  0  0
 11  4  1  0  0  0
 26 28  1  0  0  0
M  END
> <minimizedAffinity>
5.79765

> <CNNscore>
0.5265183449

> <CNNaffinity>
7.8207526207

> <CNN_VS>
4.1177697182

> <CNNaffinity_variance>
0.7028520107

$$$$
[H]OC(=O)c1c([H])c([H])c(-c2c([H])c([H])c(N3C(=O)N(c4nc([H])c([H])c([H])n4)C4(C3=O)C([H])([H])C([H])([H])N(C([H])([H])c3nc([H])c([H])c([H])c3C([H])([H])[H])C([H])([H])C4([H])[H])c([H])c2[H])c([H])c1[H]


 42 47  0  0  0  0  0  0  0  0999 V2000
    9.4506   22.3437   -1.1656 N   0  0  0  0  0  0  0  0  0  0  0  0
    9.2593   23.7191   -1.3237 C   0  0  0  0  0  0  0  0  0  0  0  0
   10.3799   24.4777   -0.6598 C   0  0  0  0  0  0  0  0  0  0  0  0
   11.7096   24.0559   -1.1496 C   0  0  0  0  0  0  0  0  0  0  0  0
   11.8446   22.6823   -1.6909 C   0  0  0  0  0  0  0  0  0  0  0  0
   10.6628   21.7870   -1.6199 C   0  0  0  0  0  0  0  0  0  0  0  0
   12.2724   25.0598   -2.0369 N   0  0  0  0  0  0  0  0  0  0  0  0
   13.6828   25.1202   -1.7017 C   0  0  0  0  0  0  0  0  0  0  0  0
   14.5943   25.6000   -2.4515 O   0  0  0  0  0  0  0  0  0  0  0  0
   13.9171   24.5694   -0.4146 N   0  0  0  0  0  0  0  0  0  0  0  0
   12.6417   24.1665    0.0458 C   0  0  0  0  0  0  0  0  0  0  0  0
   12.3187   23.9367    1.2356 O   0  0  0  0  0  0  0  0  0  0  0  0
   15.1803   24.4616    0.2405 C   0  0  0  0  0  0  0  0  0  0  0  0
   15.9310   25.5964    0.4524 C   0  0  0  0  0  0  0  0  0  0  0  0
   17.1684   25.5148    1.0990 C   0  0  0  0  0  0  0  0  0  0  0  0
   17.6425   24.3019    1.5268 C   0  0  0  0  0  0  0  0  0  0  0  0
   16.9061   23.1574    1.3232 C   0  0  0  0  0  0  0  0  0  0  0  0
   15.6917   23.2610    0.6851 C   0  0  0  0  0  0  0  0  0  0  0  0
   18.9353   24.2037    2.2072 C   0  0  0  0  0  0  0  0  0  0  0  0
   19.0299   24.2054    3.5730 C   0  0  0  0  0  0  0  0  0  0  0  0
   20.2447   24.1088    4.2287 C   0  0  0  0  0  0  0  0  0  0  0  0
   21.3738   24.0101    3.4480 C   0  0  0  0  0  0  0  0  0  0  0  0
   21.2979   24.0071    2.0757 C   0  0  0  0  0  0  0  0  0  0  0  0
   20.0792   24.1038    1.4438 C   0  0  0  0  0  0  0  0  0  0  0  0
   22.7127   23.9047    4.0469 C   0  0  0  0  0  0  0  0  0  0  0  0
   23.7921   23.6712    3.1878 O   0  0  0  0  0  0  0  0  0  0  0  0
   22.9133   24.0137    5.2658 O   0  0  0  0  0  0  0  0  0  0  0  0
   23.8211   24.3031    2.3775 H   0  0  0  0  0  0  0  0  0  0  0  0
   11.7017   25.8576   -3.0492 C   0  0  0  0  0  0  0  0  0  0  0  0
   10.4267   25.5933   -3.4358 N   0  0  0  0  0  0  0  0  0  0  0  0
    9.8210   26.2889   -4.3987 C   0  0  0  0  0  0  0  0  0  0  0  0
   10.4824   27.3152   -5.0405 C   0  0  0  0  0  0  0  0  0  0  0  0
   11.7716   27.5845   -4.6495 C   0  0  0  0  0  0  0  0  0  0  0  0
   12.3403   26.8469   -3.6661 N   0  0  0  0  0  0  0  0  0  0  0  0
    8.5431   21.5552   -0.4531 C   0  0  0  0  0  0  0  0  0  0  0  0
    6.4664   21.1770    1.4632 C   0  0  0  0  0  0  0  0  0  0  0  0
    7.8502   21.3401    1.9473 C   0  0  0  0  0  0  0  0  0  0  0  0
    8.2035   21.3230    3.2813 C   0  0  0  0  0  0  0  0  0  0  0  0
    9.4989   21.4794    3.6825 C   0  0  0  0  0  0  0  0  0  0  0  0
   10.4895   21.6590    2.7369 C   0  0  0  0  0  0  0  0  0  0  0  0
   10.1324   21.6740    1.4356 N   0  0  0  0  0  0  0  0  0  0  0  0
    8.8802   21.5248    1.0139 C   0  0  0  0  0  0  0  0  0  0  0  0
 36 37  1  0  0  0
 37 38  2  0  0  0
 38 39  1  0  0  0
 39 40  2  0  0  0
 40 41  1  0  0  0
 41 42  2  0  0  0
 42 35  1  0  0  0
 35  1  1  0  0  0
  1  2  1  0  0  0
  2  3  1  0  0  0
  3  4  1  0  0  0
  4  5  1  0  0  0
  5  6  1  0  0  0
  4  7  1  0  0  0
  7  8  1  0  0  0
  8  9  2  0  0  0
  8 10  1  0  0  0
 10 11  1  0  0  0
 11 12  2  0  0  0
 10 13  1  0  0  0
 13 14  2  0  0  0
 14 15  1  0  0  0
 15 16  2  0  0  0
 16 17  1  0  0  0
 17 18  2  0  0  0
 16 19  1  0  0  0
 19 20  2  0  0  0
 20 21  1  0  0  0
 21 22  2  0  0  0
 22 23  1  0  0  0
 23 24  2  0  0  0
 22 25  1  0  0  0
 25 26  1  0  0  0
 25 27  2  0  0  0
  7 29  1  0  0  0
 29 30  2  0  0  0
 30 31  1  0  0  0
 31 32  2  0  0  0
 32 33  1  0  0  0
 33 34  2  0  0  0
 42 37  1  0  0  0
  6  1  1  0  0  0
 18 13  1  0  0  0
 24 19  1  0  0  0
 34 29  1  0  0  0
 11  4  1  0  0  0
 26 28  1  0  0  0
M  END
> <minimizedAffinity>
52.08528

> <CNNscore>
0.4543665946

> <CNNaffinity>
7.1486740112

> <CNN_VS>
3.2481186390

> <CNNaffinity_variance>
0.6444344521

$$$$
[H]OC(=O)c1c([H])c([H])c(-c2c([H])c([H])c(N3C(=O)N(c4nc([H])c([H])c([H])n4)C4(C3=O)C([H])([H])C([H])([H])N(C([H])([H])c3nc([H])c([H])c([H])c3C([H])([H])[H])C([H])([H])C4([H])[H])c([H])c2[H])c([H])c1[H]


 42 47  0  0  0  0  0  0  0  0999 V2000
   17.3812   24.3439   -1.4278 N   0  0  0  0  0  0  0  0  0  0  0  0
   16.8776   24.2319   -2.7268 C   0  0  0  0  0  0  0  0  0  0  0  0
   15.5337   23.5496   -2.7044 C   0  0  0  0  0  0  0  0  0  0  0  0
   14.5745   24.2301   -1.8084 C   0  0  0  0  0  0  0  0  0  0  0  0
   15.1219   25.0213   -0.6803 C   0  0  0  0  0  0  0  0  0  0  0  0
   16.5905   25.0030   -0.4655 C   0  0  0  0  0  0  0  0  0  0  0  0
   13.5885   24.9699   -2.5780 N   0  0  0  0  0  0  0  0  0  0  0  0
   12.3293   24.7629   -1.8875 C   0  0  0  0  0  0  0  0  0  0  0  0
   11.2948   25.4956   -2.0147 O   0  0  0  0  0  0  0  0  0  0  0  0
   12.4011   23.6245   -1.0427 N   0  0  0  0  0  0  0  0  0  0  0  0
   13.7141   23.1271   -1.2140 C   0  0  0  0  0  0  0  0  0  0  0  0
   14.1157   21.9736   -0.9297 O   0  0  0  0  0  0  0  0  0  0  0  0
   11.3544   23.1210   -0.2136 C   0  0  0  0  0  0  0  0  0  0  0  0
   10.3847   22.3134   -0.7646 C   0  0  0  0  0  0  0  0  0  0  0  0
    9.3539   21.8030    0.0309 C   0  0  0  0  0  0  0  0  0  0  0  0
    9.3027   22.1042    1.3673 C   0  0  0  0  0  0  0  0  0  0  0  0
   10.2630   22.9100    1.9348 C   0  0  0  0  0  0  0  0  0  0  0  0
   11.2677   23.4009    1.1336 C   0  0  0  0  0  0  0  0  0  0  0  0
    8.2301   21.5739    2.2112 C   0  0  0  0  0  0  0  0  0  0  0  0
    8.3740   21.4594    3.5680 C   0  0  0  0  0  0  0  0  0  0  0  0
    7.3669   20.9641    4.3776 C   0  0  0  0  0  0  0  0  0  0  0  0
    6.1962   20.5835    3.7622 C   0  0  0  0  0  0  0  0  0  0  0  0
    6.0342   20.6911    2.4017 C   0  0  0  0  0  0  0  0  0  0  0  0
    7.0487   21.1868    1.6150 C   0  0  0  0  0  0  0  0  0  0  0  0
    5.0662   20.0431    4.5326 C   0  0  0  0  0  0  0  0  0  0  0  0
    3.8736   20.7747    4.5365 O   0  0  0  0  0  0  0  0  0  0  0  0
    5.1339   18.9800    5.1675 O   0  0  0  0  0  0  0  0  0  0  0  0
    3.5555   21.0537    3.5997 H   0  0  0  0  0  0  0  0  0  0  0  0
   13.6921   25.7631   -3.7386 C   0  0  0  0  0  0  0  0  0  0  0  0
   14.6137   25.4177   -4.6748 N   0  0  0  0  0  0  0  0  0  0  0  0
   14.7874   26.1259   -5.7911 C   0  0  0  0  0  0  0  0  0  0  0  0
   14.0229   27.2483   -6.0324 C   0  0  0  0  0  0  0  0  0  0  0  0
   13.0895   27.5980   -5.0869 C   0  0  0  0  0  0  0  0  0  0  0  0
   12.9538   26.8441   -3.9699 N   0  0  0  0  0  0  0  0  0  0  0  0
   18.5622   23.7040   -1.0424 C   0  0  0  0  0  0  0  0  0  0  0  0
   16.7959   22.9182    1.0530 C   0  0  0  0  0  0  0  0  0  0  0  0
   18.0370   23.6317    1.4085 C   0  0  0  0  0  0  0  0  0  0  0  0
   18.3971   23.9466    2.7031 C   0  0  0  0  0  0  0  0  0  0  0  0
   19.5565   24.6099    2.9841 C   0  0  0  0  0  0  0  0  0  0  0  0
   20.3988   24.9792    1.9536 C   0  0  0  0  0  0  0  0  0  0  0  0
   20.0365   24.6661    0.6919 N   0  0  0  0  0  0  0  0  0  0  0  0
   18.9143   24.0215    0.3865 C   0  0  0  0  0  0  0  0  0  0  0  0
 36 37  1  0  0  0
 37 38  2  0  0  0
 38 39  1  0  0  0
 39 40  2  0  0  0
 40 41  1  0  0  0
 41 42  2  0  0  0
 42 35  1  0  0  0
 35  1  1  0  0  0
  1  2  1  0  0  0
  2  3  1  0  0  0
  3  4  1  0  0  0
  4  5  1  0  0  0
  5  6  1  0  0  0
  4  7  1  0  0  0
  7  8  1  0  0  0
  8  9  2  0  0  0
  8 10  1  0  0  0
 10 11  1  0  0  0
 11 12  2  0  0  0
 10 13  1  0  0  0
 13 14  2  0  0  0
 14 15  1  0  0  0
 15 16  2  0  0  0
 16 17  1  0  0  0
 17 18  2  0  0  0
 16 19  1  0  0  0
 19 20  2  0  0  0
 20 21  1  0  0  0
 21 22  2  0  0  0
 22 23  1  0  0  0
 23 24  2  0  0  0
 22 25  1  0  0  0
 25 26  1  0  0  0
 25 27  2  0  0  0
  7 29  1  0  0  0
 29 30  2  0  0  0
 30 31  1  0  0  0
 31 32  2  0  0  0
 32 33  1  0  0  0
 33 34  2  0  0  0
 42 37  1  0  0  0
  6  1  1  0  0  0
 18 13  1  0  0  0
 24 19  1  0  0  0
 34 29  1  0  0  0
 11  4  1  0  0  0
 26 28  1  0  0  0
M  END
> <minimizedAffinity>
14.41947

> <CNNscore>
0.4540147781

> <CNNaffinity>
7.4915556908

> <CNN_VS>
3.4012770653

> <CNNaffinity_variance>
0.5712236762

$$$$
[H]OC(=O)c1c([H])c([H])c(-c2c([H])c([H])c(N3C(=O)N(c4nc([H])c([H])c([H])n4)C4(C3=O)C([H])([H])C([H])([H])N(C([H])([H])c3nc([H])c([H])c([H])c3C([H])([H])[H])C([H])([H])C4([H])[H])c([H])c2[H])c([H])c1[H]


 42 47  0  0  0  0  0  0  0  0999 V2000
    9.4679   22.7157   -0.8961 N   0  0  0  0  0  0  0  0  0  0  0  0
    9.3467   24.0834   -1.1574 C   0  0  0  0  0  0  0  0  0  0  0  0
   10.5141   24.8296   -0.5637 C   0  0  0  0  0  0  0  0  0  0  0  0
   11.8134   24.3016   -1.0318 C   0  0  0  0  0  0  0  0  0  0  0  0
   11.8692   22.8856   -1.4674 C   0  0  0  0  0  0  0  0  0  0  0  0
   10.6432   22.0625   -1.3173 C   0  0  0  0  0  0  0  0  0  0  0  0
   12.4163   25.2038   -1.9985 N   0  0  0  0  0  0  0  0  0  0  0  0
   13.8322   25.2144   -1.6816 C   0  0  0  0  0  0  0  0  0  0  0  0
   14.7577   25.5865   -2.4742 O   0  0  0  0  0  0  0  0  0  0  0  0
   14.0542   24.7514   -0.3583 N   0  0  0  0  0  0  0  0  0  0  0  0
   12.7656   24.4531    0.1432 C   0  0  0  0  0  0  0  0  0  0  0  0
   12.4466   24.3320    1.3499 O   0  0  0  0  0  0  0  0  0  0  0  0
   15.3185   24.6266    0.2917 C   0  0  0  0  0  0  0  0  0  0  0  0
   15.7953   25.6730    1.0494 C   0  0  0  0  0  0  0  0  0  0  0  0
   17.0283   25.5695    1.7010 C   0  0  0  0  0  0  0  0  0  0  0  0
   17.7715   24.4231    1.5893 C   0  0  0  0  0  0  0  0  0  0  0  0
   17.3109   23.3675    0.8361 C   0  0  0  0  0  0  0  0  0  0  0  0
   16.0954   23.4911    0.2038 C   0  0  0  0  0  0  0  0  0  0  0  0
   19.0628   24.3015    2.2688 C   0  0  0  0  0  0  0  0  0  0  0  0
   20.2322   24.1664    1.5697 C   0  0  0  0  0  0  0  0  0  0  0  0
   21.4595   24.0550    2.1992 C   0  0  0  0  0  0  0  0  0  0  0  0
   21.4648   24.0845    3.5752 C   0  0  0  0  0  0  0  0  0  0  0  0
   20.3007   24.2192    4.2933 C   0  0  0  0  0  0  0  0  0  0  0  0
   19.0906   24.3288    3.6471 C   0  0  0  0  0  0  0  0  0  0  0  0
   22.7161   23.9717    4.3392 C   0  0  0  0  0  0  0  0  0  0  0  0
   22.6606   23.3423    5.5876 O   0  0  0  0  0  0  0  0  0  0  0  0
   23.7992   24.4081    3.9217 O   0  0  0  0  0  0  0  0  0  0  0  0
   22.1777   22.4350    5.5732 H   0  0  0  0  0  0  0  0  0  0  0  0
   11.8750   25.9515   -3.0637 C   0  0  0  0  0  0  0  0  0  0  0  0
   12.6325   26.9390   -3.6079 N   0  0  0  0  0  0  0  0  0  0  0  0
   12.1871   27.7037   -4.6052 C   0  0  0  0  0  0  0  0  0  0  0  0
   10.9233   27.5106   -5.1228 C   0  0  0  0  0  0  0  0  0  0  0  0
   10.1566   26.5113   -4.5742 C   0  0  0  0  0  0  0  0  0  0  0  0
   10.6570   25.7634   -3.5618 N   0  0  0  0  0  0  0  0  0  0  0  0
    8.5297   22.0331   -0.1171 C   0  0  0  0  0  0  0  0  0  0  0  0
    9.8077   19.4852   -0.0626 C   0  0  0  0  0  0  0  0  0  0  0  0
    8.5641   19.6327   -0.8420 C   0  0  0  0  0  0  0  0  0  0  0  0
    7.9781   18.6057   -1.5537 C   0  0  0  0  0  0  0  0  0  0  0  0
    6.8260   18.7900   -2.2622 C   0  0  0  0  0  0  0  0  0  0  0  0
    6.2223   20.0322   -2.2730 C   0  0  0  0  0  0  0  0  0  0  0  0
    6.8042   21.0289   -1.5735 N   0  0  0  0  0  0  0  0  0  0  0  0
    7.9256   20.8807   -0.8746 C   0  0  0  0  0  0  0  0  0  0  0  0
 36 37  1  0  0  0
 37 38  2  0  0  0
 38 39  1  0  0  0
 39 40  2  0  0  0
 40 41  1  0  0  0
 41 42  2  0  0  0
 42 35  1  0  0  0
 35  1  1  0  0  0
  1  2  1  0  0  0
  2  3  1  0  0  0
  3  4  1  0  0  0
  4  5  1  0  0  0
  5  6  1  0  0  0
  4  7  1  0  0  0
  7  8  1  0  0  0
  8  9  2  0  0  0
  8 10  1  0  0  0
 10 11  1  0  0  0
 11 12  2  0  0  0
 10 13  1  0  0  0
 13 14  2  0  0  0
 14 15  1  0  0  0
 15 16  2  0  0  0
 16 17  1  0  0  0
 17 18  2  0  0  0
 16 19  1  0  0  0
 19 20  2  0  0  0
 20 21  1  0  0  0
 21 22  2  0  0  0
 22 23  1  0  0  0
 23 24  2  0  0  0
 22 25  1  0  0  0
 25 26  1  0  0  0
 25 27  2  0  0  0
  7 29  1  0  0  0
 29 30  2  0  0  0
 30 31  1  0  0  0
 31 32  2  0  0  0
 32 33  1  0  0  0
 33 34  2  0  0  0
 42 37  1  0  0  0
  6  1  1  0  0  0
 18 13  1  0  0  0
 24 19  1  0  0  0
 34 29  1  0  0  0
 11  4  1  0  0  0
 26 28  1  0  0  0
M  END
> <minimizedAffinity>
52.51436

> <CNNscore>
0.4152460396

> <CNNaffinity>
7.0240249634

> <CNN_VS>
2.9166984558

> <CNNaffinity_variance>
0.7917809486

$$$$
[H]OC(=O)c1c([H])c([H])c(-c2c([H])c([H])c(N3C(=O)N(c4nc([H])c([H])c([H])n4)C4(C3=O)C([H])([H])C([H])([H])N(C([H])([H])c3nc([H])c([H])c([H])c3C([H])([H])[H])C([H])([H])C4([H])[H])c([H])c2[H])c([H])c1[H]


 42 47  0  0  0  0  0  0  0  0999 V2000
   16.6979   25.0641   -0.7807 N   0  0  0  0  0  0  0  0  0  0  0  0
   16.5117   24.8470   -2.1488 C   0  0  0  0  0  0  0  0  0  0  0  0
   15.2990   23.9809   -2.3754 C   0  0  0  0  0  0  0  0  0  0  0  0
   14.0843   24.5413   -1.7456 C   0  0  0  0  0  0  0  0  0  0  0  0
   14.2600   25.4321   -0.5736 C   0  0  0  0  0  0  0  0  0  0  0  0
   15.6345   25.6291   -0.0489 C   0  0  0  0  0  0  0  0  0  0  0  0
   13.2020   25.1122   -2.7493 N   0  0  0  0  0  0  0  0  0  0  0  0
   11.8610   24.7462   -2.3334 C   0  0  0  0  0  0  0  0  0  0  0  0
   10.7915   25.3202   -2.7204 O   0  0  0  0  0  0  0  0  0  0  0  0
   11.8965   23.6525   -1.4292 N   0  0  0  0  0  0  0  0  0  0  0  0
   13.2694   23.3431   -1.2871 C   0  0  0  0  0  0  0  0  0  0  0  0
   13.7488   22.2666   -0.8581 O   0  0  0  0  0  0  0  0  0  0  0  0
   10.7699   23.0272   -0.8158 C   0  0  0  0  0  0  0  0  0  0  0  0
   10.2444   23.5635    0.3385 C   0  0  0  0  0  0  0  0  0  0  0  0
    9.1361   22.9712    0.9524 C   0  0  0  0  0  0  0  0  0  0  0  0
    8.5648   21.8507    0.4073 C   0  0  0  0  0  0  0  0  0  0  0  0
    9.0769   21.3008   -0.7456 C   0  0  0  0  0  0  0  0  0  0  0  0
   10.1674   21.8999   -1.3325 C   0  0  0  0  0  0  0  0  0  0  0  0
    7.4026   21.2229    1.0391 C   0  0  0  0  0  0  0  0  0  0  0  0
    6.7141   20.2088    0.4291 C   0  0  0  0  0  0  0  0  0  0  0  0
    5.6170   19.6039    1.0169 C   0  0  0  0  0  0  0  0  0  0  0  0
    5.2346   20.0645    2.2561 C   0  0  0  0  0  0  0  0  0  0  0  0
    5.9137   21.0816    2.8832 C   0  0  0  0  0  0  0  0  0  0  0  0
    7.0027   21.6691    2.2809 C   0  0  0  0  0  0  0  0  0  0  0  0
    4.0812   19.4900    2.9646 C   0  0  0  0  0  0  0  0  0  0  0  0
    3.5637   20.2052    4.0502 O   0  0  0  0  0  0  0  0  0  0  0  0
    3.5615   18.4125    2.6382 O   0  0  0  0  0  0  0  0  0  0  0  0
    3.3895   21.1978    3.8474 H   0  0  0  0  0  0  0  0  0  0  0  0
   13.4514   25.8808   -3.9041 C   0  0  0  0  0  0  0  0  0  0  0  0
   14.3824   25.4342   -4.7866 N   0  0  0  0  0  0  0  0  0  0  0  0
   14.6902   26.1115   -5.8932 C   0  0  0  0  0  0  0  0  0  0  0  0
   14.0608   27.3050   -6.1794 C   0  0  0  0  0  0  0  0  0  0  0  0
   13.1180   27.7572   -5.2884 C   0  0  0  0  0  0  0  0  0  0  0  0
   12.8432   27.0306   -4.1788 N   0  0  0  0  0  0  0  0  0  0  0  0
   17.8400   24.6096   -0.1158 C   0  0  0  0  0  0  0  0  0  0  0  0
   19.1635   24.3904    2.3998 C   0  0  0  0  0  0  0  0  0  0  0  0
   18.1767   23.3580    2.0309 C   0  0  0  0  0  0  0  0  0  0  0  0
   17.8541   22.2830    2.8340 C   0  0  0  0  0  0  0  0  0  0  0  0
   16.9342   21.3507    2.4496 C   0  0  0  0  0  0  0  0  0  0  0  0
   16.3032   21.4776    1.2275 C   0  0  0  0  0  0  0  0  0  0  0  0
   16.6265   22.5327    0.4506 N   0  0  0  0  0  0  0  0  0  0  0  0
   17.5180   23.4564    0.7970 C   0  0  0  0  0  0  0  0  0  0  0  0
 36 37  1  0  0  0
 37 38  2  0  0  0
 38 39  1  0  0  0
 39 40  2  0  0  0
 40 41  1  0  0  0
 41 42  2  0  0  0
 42 35  1  0  0  0
 35  1  1  0  0  0
  1  2  1  0  0  0
  2  3  1  0  0  0
  3  4  1  0  0  0
  4  5  1  0  0  0
  5  6  1  0  0  0
  4  7  1  0  0  0
  7  8  1  0  0  0
  8  9  2  0  0  0
  8 10  1  0  0  0
 10 11  1  0  0  0
 11 12  2  0  0  0
 10 13  1  0  0  0
 13 14  2  0  0  0
 14 15  1  0  0  0
 15 16  2  0  0  0
 16 17  1  0  0  0
 17 18  2  0  0  0
 16 19  1  0  0  0
 19 20  2  0  0  0
 20 21  1  0  0  0
 21 22  2  0  0  0
 22 23  1  0  0  0
 23 24  2  0  0  0
 22 25  1  0  0  0
 25 26  1  0  0  0
 25 27  2  0  0  0
  7 29  1  0  0  0
 29 30  2  0  0  0
 30 31  1  0  0  0
 31 32  2  0  0  0
 32 33  1  0  0  0
 33 34  2  0  0  0
 42 37  1  0  0  0
  6  1  1  0  0  0
 18 13  1  0  0  0
 24 19  1  0  0  0
 34 29  1  0  0  0
 11  4  1  0  0  0
 26 28  1  0  0  0
M  END
> <minimizedAffinity>
14.71428

> <CNNscore>
0.4076727331

> <CNNaffinity>
7.4204368591

> <CNN_VS>
3.0251097679

> <CNNaffinity_variance>
0.9889476895

$$$$
[H]OC(=O)c1c([H])c([H])c(-c2c([H])c([H])c(N3C(=O)N(c4nc([H])c([H])c([H])n4)C4(C3=O)C([H])([H])C([H])([H])N(C([H])([H])c3nc([H])c([H])c([H])c3C([H])([H])[H])C([H])([H])C4([H])[H])c([H])c2[H])c([H])c1[H]


 42 47  0  0  0  0  0  0  0  0999 V2000
   11.8505   20.3838    2.0375 N   0  0  0  0  0  0  0  0  0  0  0  0
   11.6752   20.2589    3.4185 C   0  0  0  0  0  0  0  0  0  0  0  0
   10.9978   21.4882    3.9680 C   0  0  0  0  0  0  0  0  0  0  0  0
    9.7193   21.7769    3.2836 C   0  0  0  0  0  0  0  0  0  0  0  0
    9.5524   21.2893    1.8934 C   0  0  0  0  0  0  0  0  0  0  0  0
   10.7112   20.6265    1.2445 C   0  0  0  0  0  0  0  0  0  0  0  0
    8.5923   21.4295    4.1326 N   0  0  0  0  0  0  0  0  0  0  0  0
    7.6204   22.4879    3.9314 C   0  0  0  0  0  0  0  0  0  0  0  0
    6.3786   22.4039    4.2036 O   0  0  0  0  0  0  0  0  0  0  0  0
    8.2407   23.6423    3.3861 N   0  0  0  0  0  0  0  0  0  0  0  0
    9.6044   23.2920    3.2502 C   0  0  0  0  0  0  0  0  0  0  0  0
   10.5672   24.0855    3.1237 O   0  0  0  0  0  0  0  0  0  0  0  0
    7.5955   24.8722    3.0580 C   0  0  0  0  0  0  0  0  0  0  0  0
    7.9416   25.5288    1.8981 C   0  0  0  0  0  0  0  0  0  0  0  0
    7.3169   26.7316    1.5534 C   0  0  0  0  0  0  0  0  0  0  0  0
    6.3540   27.2655    2.3700 C   0  0  0  0  0  0  0  0  0  0  0  0
    5.9957   26.6233    3.5331 C   0  0  0  0  0  0  0  0  0  0  0  0
    6.6231   25.4414    3.8525 C   0  0  0  0  0  0  0  0  0  0  0  0
    5.6908   28.5228    2.0188 C   0  0  0  0  0  0  0  0  0  0  0  0
    4.8304   29.1463    2.8821 C   0  0  0  0  0  0  0  0  0  0  0  0
    4.2005   30.3369    2.5646 C   0  0  0  0  0  0  0  0  0  0  0  0
    4.4724   30.8818    1.3304 C   0  0  0  0  0  0  0  0  0  0  0  0
    5.3332   30.2697    0.4510 C   0  0  0  0  0  0  0  0  0  0  0  0
    5.9494   29.0860    0.7871 C   0  0  0  0  0  0  0  0  0  0  0  0
    3.8531   32.1429    0.8964 C   0  0  0  0  0  0  0  0  0  0  0  0
    3.5781   32.2961   -0.4670 O   0  0  0  0  0  0  0  0  0  0  0  0
    3.5718   33.0586    1.6839 O   0  0  0  0  0  0  0  0  0  0  0  0
    3.0757   31.5003   -0.8804 H   0  0  0  0  0  0  0  0  0  0  0  0
    8.3542   20.3390    4.9934 C   0  0  0  0  0  0  0  0  0  0  0  0
    9.1746   20.1714    6.0629 N   0  0  0  0  0  0  0  0  0  0  0  0
    9.0286   19.1553    6.9139 C   0  0  0  0  0  0  0  0  0  0  0  0
    8.0225   18.2297    6.7304 C   0  0  0  0  0  0  0  0  0  0  0  0
    7.1912   18.3988    5.6499 C   0  0  0  0  0  0  0  0  0  0  0  0
    7.3836   19.4483    4.8155 N   0  0  0  0  0  0  0  0  0  0  0  0
   13.1229   20.4139    1.4605 C   0  0  0  0  0  0  0  0  0  0  0  0
   13.7233   20.2227   -1.3200 C   0  0  0  0  0  0  0  0  0  0  0  0
   13.6245   21.5627   -0.7114 C   0  0  0  0  0  0  0  0  0  0  0  0
   13.8086   22.7385   -1.4104 C   0  0  0  0  0  0  0  0  0  0  0  0
   13.7082   23.9571   -0.8036 C   0  0  0  0  0  0  0  0  0  0  0  0
   13.4142   24.0266    0.5442 C   0  0  0  0  0  0  0  0  0  0  0  0
   13.2362   22.8706    1.2174 N   0  0  0  0  0  0  0  0  0  0  0  0
   13.3278   21.6692    0.6549 C   0  0  0  0  0  0  0  0  0  0  0  0
 36 37  1  0  0  0
 37 38  2  0  0  0
 38 39  1  0  0  0
 39 40  2  0  0  0
 40 41  1  0  0  0
 41 42  2  0  0  0
 42 35  1  0  0  0
 35  1  1  0  0  0
  1  2  1  0  0  0
  2  3  1  0  0  0
  3  4  1  0  0  0
  4  5  1  0  0  0
  5  6  1  0  0  0
  4  7  1  0  0  0
  7  8  1  0  0  0
  8  9  2  0  0  0
  8 10  1  0  0  0
 10 11  1  0  0  0
 11 12  2  0  0  0
 10 13  1  0  0  0
 13 14  2  0  0  0
 14 15  1  0  0  0
 15 16  2  0  0  0
 16 17  1  0  0  0
 17 18  2  0  0  0
 16 19  1  0  0  0
 19 20  2  0  0  0
 20 21  1  0  0  0
 21 22  2  0  0  0
 22 23  1  0  0  0
 23 24  2  0  0  0
 22 25  1  0  0  0
 25 26  1  0  0  0
 25 27  2  0  0  0
  7 29  1  0  0  0
 29 30  2  0  0  0
 30 31  1  0  0  0
 31 32  2  0  0  0
 32 33  1  0  0  0
 33 34  2  0  0  0
 42 37  1  0  0  0
  6  1  1  0  0  0
 18 13  1  0  0  0
 24 19  1  0  0  0
 34 29  1  0  0  0
 11  4  1  0  0  0
 26 28  1  0  0  0
M  END
> <minimizedAffinity>
-3.10999

> <CNNscore>
0.3872018754

> <CNNaffinity>
6.8613157272

> <CNN_VS>
2.6567142010

> <CNNaffinity_variance>
0.3313111961

$$$$
[H]OC(=O)c1c([H])c([H])c(-c2c([H])c([H])c(N3C(=O)N(c4nc([H])c([H])c([H])n4)C4(C3=O)C([H])([H])C([H])([H])N(C([H])([H])c3nc([H])c([H])c([H])c3C([H])([H])[H])C([H])([H])C4([H])[H])c([H])c2[H])c([H])c1[H]


 42 47  0  0  0  0  0  0  0  0999 V2000
    8.2144   19.3410   -0.2775 N   0  0  0  0  0  0  0  0  0  0  0  0
    9.1303   19.1481    0.7604 C   0  0  0  0  0  0  0  0  0  0  0  0
   10.4321   19.8358    0.4371 C   0  0  0  0  0  0  0  0  0  0  0  0
   10.2480   21.2718    0.1370 C   0  0  0  0  0  0  0  0  0  0  0  0
    8.9288   21.7076   -0.3807 C   0  0  0  0  0  0  0  0  0  0  0  0
    7.9093   20.6641   -0.6543 C   0  0  0  0  0  0  0  0  0  0  0  0
   10.7074   22.0913    1.2456 N   0  0  0  0  0  0  0  0  0  0  0  0
   11.3777   23.2232    0.6335 C   0  0  0  0  0  0  0  0  0  0  0  0
   11.6165   24.3334    1.2111 O   0  0  0  0  0  0  0  0  0  0  0  0
   11.7373   22.9287   -0.7077 N   0  0  0  0  0  0  0  0  0  0  0  0
   11.2847   21.6060   -0.9231 C   0  0  0  0  0  0  0  0  0  0  0  0
   11.6654   20.8279   -1.8299 O   0  0  0  0  0  0  0  0  0  0  0  0
   12.4089   23.8035   -1.6133 C   0  0  0  0  0  0  0  0  0  0  0  0
   13.6209   23.4245   -2.1458 C   0  0  0  0  0  0  0  0  0  0  0  0
   14.2930   24.2630   -3.0409 C   0  0  0  0  0  0  0  0  0  0  0  0
   13.7479   25.4699   -3.3945 C   0  0  0  0  0  0  0  0  0  0  0  0
   12.5377   25.8652   -2.8720 C   0  0  0  0  0  0  0  0  0  0  0  0
   11.8942   25.0247   -1.9934 C   0  0  0  0  0  0  0  0  0  0  0  0
   14.4404   26.3555   -4.3326 C   0  0  0  0  0  0  0  0  0  0  0  0
   14.6047   26.0192   -5.6496 C   0  0  0  0  0  0  0  0  0  0  0  0
   15.2532   26.8486   -6.5476 C   0  0  0  0  0  0  0  0  0  0  0  0
   15.7362   28.0430   -6.0636 C   0  0  0  0  0  0  0  0  0  0  0  0
   15.5807   28.3970   -4.7448 C   0  0  0  0  0  0  0  0  0  0  0  0
   14.9320   27.5572   -3.8685 C   0  0  0  0  0  0  0  0  0  0  0  0
   16.4418   28.9939   -6.9356 C   0  0  0  0  0  0  0  0  0  0  0  0
   16.2886   30.3585   -6.6670 O   0  0  0  0  0  0  0  0  0  0  0  0
   17.1550   28.6333   -7.8838 O   0  0  0  0  0  0  0  0  0  0  0  0
   16.4441   30.6070   -5.6818 H   0  0  0  0  0  0  0  0  0  0  0  0
   10.5864   21.9503    2.6429 C   0  0  0  0  0  0  0  0  0  0  0  0
    9.3695   22.1604    3.2086 N   0  0  0  0  0  0  0  0  0  0  0  0
    9.1753   22.0654    4.5243 C   0  0  0  0  0  0  0  0  0  0  0  0
   10.2219   21.7444    5.3634 C   0  0  0  0  0  0  0  0  0  0  0  0
   11.4530   21.5302    4.7925 C   0  0  0  0  0  0  0  0  0  0  0  0
   11.5960   21.6401    3.4500 N   0  0  0  0  0  0  0  0  0  0  0  0
    7.7176   18.2695   -1.0245 C   0  0  0  0  0  0  0  0  0  0  0  0
    5.5613   19.5004   -2.4257 C   0  0  0  0  0  0  0  0  0  0  0  0
    5.2461   18.5596   -1.3344 C   0  0  0  0  0  0  0  0  0  0  0  0
    3.9615   18.2380   -0.9455 C   0  0  0  0  0  0  0  0  0  0  0  0
    3.7182   17.3616    0.0723 C   0  0  0  0  0  0  0  0  0  0  0  0
    4.7779   16.7749    0.7362 C   0  0  0  0  0  0  0  0  0  0  0  0
    6.0294   17.0968    0.3474 N   0  0  0  0  0  0  0  0  0  0  0  0
    6.2984   17.9466   -0.6393 C   0  0  0  0  0  0  0  0  0  0  0  0
 36 37  1  0  0  0
 37 38  2  0  0  0
 38 39  1  0  0  0
 39 40  2  0  0  0
 40 41  1  0  0  0
 41 42  2  0  0  0
 42 35  1  0  0  0
 35  1  1  0  0  0
  1  2  1  0  0  0
  2  3  1  0  0  0
  3  4  1  0  0  0
  4  5  1  0  0  0
  5  6  1  0  0  0
  4  7  1  0  0  0
  7  8  1  0  0  0
  8  9  2  0  0  0
  8 10  1  0  0  0
 10 11  1  0  0  0
 11 12  2  0  0  0
 10 13  1  0  0  0
 13 14  2  0  0  0
 14 15  1  0  0  0
 15 16  2  0  0  0
 16 17  1  0  0  0
 17 18  2  0  0  0
 16 19  1  0  0  0
 19 20  2  0  0  0
 20 21  1  0  0  0
 21 22  2  0  0  0
 22 23  1  0  0  0
 23 24  2  0  0  0
 22 25  1  0  0  0
 25 26  1  0  0  0
 25 27  2  0  0  0
  7 29  1  0  0  0
 29 30  2  0  0  0
 30 31  1  0  0  0
 31 32  2  0  0  0
 32 33  1  0  0  0
 33 34  2  0  0  0
 42 37  1  0  0  0
  6  1  1  0  0  0
 18 13  1  0  0  0
 24 19  1  0  0  0
 34 29  1  0  0  0
 11  4  1  0  0  0
 26 28  1  0  0  0
M  END
> <minimizedAffinity>
0.01491

> <CNNscore>
0.3577088714

> <CNNaffinity>
7.2069978714

> <CNN_VS>
2.5780069828

> <CNNaffinity_variance>
0.0918173939

$$$$
[H]OC(=O)c1c([H])c([H])c(-c2c([H])c([H])c(N3C(=O)N(c4nc([H])c([H])c([H])n4)C4(C3=O)C([H])([H])C([H])([H])N(C([H])([H])c3nc([H])c([H])c([H])c3C([H])([H])[H])C([H])([H])C4([H])[H])c([H])c2[H])c([H])c1[H]


 42 47  0  0  0  0  0  0  0  0999 V2000
   14.2882   25.6982   -3.6155 N   0  0  0  0  0  0  0  0  0  0  0  0
   14.9874   26.1305   -2.4851 C   0  0  0  0  0  0  0  0  0  0  0  0
   14.1644   25.8931   -1.2448 C   0  0  0  0  0  0  0  0  0  0  0  0
   13.7421   24.4822   -1.1139 C   0  0  0  0  0  0  0  0  0  0  0  0
   13.6266   23.6760   -2.3528 C   0  0  0  0  0  0  0  0  0  0  0  0
   13.8495   24.3597   -3.6513 C   0  0  0  0  0  0  0  0  0  0  0  0
   14.5139   23.8084   -0.0833 N   0  0  0  0  0  0  0  0  0  0  0  0
   13.5642   22.9627    0.6154 C   0  0  0  0  0  0  0  0  0  0  0  0
   13.8704   21.9625    1.3427 O   0  0  0  0  0  0  0  0  0  0  0  0
   12.2345   23.4003    0.3806 N   0  0  0  0  0  0  0  0  0  0  0  0
   12.3663   24.5235   -0.4692 C   0  0  0  0  0  0  0  0  0  0  0  0
   11.5038   25.4121   -0.6668 O   0  0  0  0  0  0  0  0  0  0  0  0
   11.0460   22.8093    0.9049 C   0  0  0  0  0  0  0  0  0  0  0  0
   10.7264   21.5148    0.5613 C   0  0  0  0  0  0  0  0  0  0  0  0
    9.5705   20.9134    1.0694 C   0  0  0  0  0  0  0  0  0  0  0  0
    8.7469   21.6107    1.9147 C   0  0  0  0  0  0  0  0  0  0  0  0
    9.0504   22.9055    2.2686 C   0  0  0  0  0  0  0  0  0  0  0  0
   10.1924   23.4771    1.7570 C   0  0  0  0  0  0  0  0  0  0  0  0
    7.5352   20.9914    2.4553 C   0  0  0  0  0  0  0  0  0  0  0  0
    6.5094   20.5906    1.6420 C   0  0  0  0  0  0  0  0  0  0  0  0
    5.3609   20.0002    2.1394 C   0  0  0  0  0  0  0  0  0  0  0  0
    5.2833   19.8271    3.5025 C   0  0  0  0  0  0  0  0  0  0  0  0
    6.3032   20.2235    4.3342 C   0  0  0  0  0  0  0  0  0  0  0  0
    7.4370   20.8086    3.8184 C   0  0  0  0  0  0  0  0  0  0  0  0
    4.1050   19.2115    4.1308 C   0  0  0  0  0  0  0  0  0  0  0  0
    3.5642   18.0736    3.5221 O   0  0  0  0  0  0  0  0  0  0  0  0
    3.5839   19.6591    5.1633 O   0  0  0  0  0  0  0  0  0  0  0  0
    4.2608   17.3501    3.3031 H   0  0  0  0  0  0  0  0  0  0  0  0
   15.8795   23.8566    0.2625 C   0  0  0  0  0  0  0  0  0  0  0  0
   16.3075   23.0967    1.3039 N   0  0  0  0  0  0  0  0  0  0  0  0
   17.5788   23.0998    1.7060 C   0  0  0  0  0  0  0  0  0  0  0  0
   18.5123   23.8873    1.0649 C   0  0  0  0  0  0  0  0  0  0  0  0
   18.0810   24.6553    0.0107 C   0  0  0  0  0  0  0  0  0  0  0  0
   16.7780   24.6156   -0.3570 N   0  0  0  0  0  0  0  0  0  0  0  0
   13.9022   26.5873   -4.6222 C   0  0  0  0  0  0  0  0  0  0  0  0
   15.9013   28.5670   -5.0834 C   0  0  0  0  0  0  0  0  0  0  0  0
   15.7781   27.4537   -6.0431 C   0  0  0  0  0  0  0  0  0  0  0  0
   16.5759   27.3118   -7.1603 C   0  0  0  0  0  0  0  0  0  0  0  0
   16.4241   26.2640   -8.0219 C   0  0  0  0  0  0  0  0  0  0  0  0
   15.4506   25.3150   -7.7780 C   0  0  0  0  0  0  0  0  0  0  0  0
   14.6766   25.4639   -6.6827 N   0  0  0  0  0  0  0  0  0  0  0  0
   14.7998   26.4730   -5.8256 C   0  0  0  0  0  0  0  0  0  0  0  0
 36 37  1  0  0  0
 37 38  2  0  0  0
 38 39  1  0  0  0
 39 40  2  0  0  0
 40 41  1  0  0  0
 41 42  2  0  0  0
 42 35  1  0  0  0
 35  1  1  0  0  0
  1  2  1  0  0  0
  2  3  1  0  0  0
  3  4  1  0  0  0
  4  5  1  0  0  0
  5  6  1  0  0  0
  4  7  1  0  0  0
  7  8  1  0  0  0
  8  9  2  0  0  0
  8 10  1  0  0  0
 10 11  1  0  0  0
 11 12  2  0  0  0
 10 13  1  0  0  0
 13 14  2  0  0  0
 14 15  1  0  0  0
 15 16  2  0  0  0
 16 17  1  0  0  0
 17 18  2  0  0  0
 16 19  1  0  0  0
 19 20  2  0  0  0
 20 21  1  0  0  0
 21 22  2  0  0  0
 22 23  1  0  0  0
 23 24  2  0  0  0
 22 25  1  0  0  0
 25 26  1  0  0  0
 25 27  2  0  0  0
  7 29  1  0  0  0
 29 30  2  0  0  0
 30 31  1  0  0  0
 31 32  2  0  0  0
 32 33  1  0  0  0
 33 34  2  0  0  0
 42 37  1  0  0  0
  6  1  1  0  0  0
 18 13  1  0  0  0
 24 19  1  0  0  0
 34 29  1  0  0  0
 11  4  1  0  0  0
 26 28  1  0  0  0
M  END
> <minimizedAffinity>
1.22746

> <CNNscore>
0.3559477627

> <CNNaffinity>
7.4676485062

> <CNN_VS>
2.6580927372

> <CNNaffinity_variance>
0.4528697431

$$$$
[H]c1nc2c([H])c(N([H])C(=O)OC3([H])C([H])([H])OC([H])([H])C3([H])[H])c([H])c(-c3c([H])c([H])c(C#N)c(F)c3[H])n2n1


 28 31  0  0  0  0  0  0  0  0999 V2000
   13.2250   24.6736   -1.8549 C   0  0  0  0  0  0  0  0  0  0  0  0
   11.8857   24.3875   -1.7494 C   0  0  0  0  0  0  0  0  0  0  0  0
   11.2973   23.9701   -0.5364 C   0  0  0  0  0  0  0  0  0  0  0  0
   12.1660   23.8765    0.5110 C   0  0  0  0  0  0  0  0  0  0  0  0
   13.5342   24.1659    0.4147 C   0  0  0  0  0  0  0  0  0  0  0  0
   14.5633   24.1494    1.2778 N   0  0  0  0  0  0  0  0  0  0  0  0
   15.6815   24.5231    0.6507 C   0  0  0  0  0  0  0  0  0  0  0  0
   15.3052   24.7712   -0.6330 N   0  0  0  0  0  0  0  0  0  0  0  0
   14.0087   24.5518   -0.7608 N   0  0  0  0  0  0  0  0  0  0  0  0
   16.2787   24.0021   -5.5544 F   0  0  0  0  0  0  0  0  0  0  0  0
   15.3457   24.7739   -4.9547 C   0  0  0  0  0  0  0  0  0  0  0  0
   14.7860   24.3495   -3.7642 C   0  0  0  0  0  0  0  0  0  0  0  0
   13.8305   25.1071   -3.1192 C   0  0  0  0  0  0  0  0  0  0  0  0
   13.4637   26.3007   -3.7167 C   0  0  0  0  0  0  0  0  0  0  0  0
   14.0218   26.7271   -4.9071 C   0  0  0  0  0  0  0  0  0  0  0  0
   14.9751   25.9637   -5.5434 C   0  0  0  0  0  0  0  0  0  0  0  0
   15.5906   26.3516   -6.7790 C   0  0  0  0  0  0  0  0  0  0  0  0
   16.0896   26.6460   -7.7844 N   0  0  0  0  0  0  0  0  0  0  0  0
    9.9201   23.6978   -0.5108 N   0  0  0  0  0  0  0  0  0  0  0  0
    9.1268   23.4430    0.6004 C   0  0  0  0  0  0  0  0  0  0  0  0
    9.5537   23.4215    1.7724 O   0  0  0  0  0  0  0  0  0  0  0  0
    9.3928   23.6789   -1.4534 H   0  0  0  0  0  0  0  0  0  0  0  0
    7.7539   23.1863    0.4636 O   0  0  0  0  0  0  0  0  0  0  0  0
    7.2727   21.8792    0.6456 C   0  0  0  0  0  0  0  0  0  0  0  0
    6.0296   21.6081   -0.2025 C   0  0  0  0  0  0  0  0  0  0  0  0
    6.3129   20.2250   -0.7417 C   0  0  0  0  0  0  0  0  0  0  0  0
    7.3946   19.7350   -0.0341 O   0  0  0  0  0  0  0  0  0  0  0  0
    8.2363   20.8532    0.0504 C   0  0  0  0  0  0  0  0  0  0  0  0
 10 11  1  0  0  0
 11 12  2  0  0  0
 12 13  1  0  0  0
 13 14  2  0  0  0
 14 15  1  0  0  0
 15 16  2  0  0  0
 16 17  1  0  0  0
 17 18  3  0  0  0
 13  1  1  0  0  0
  1  2  2  0  0  0
  2  3  1  0  0  0
  3 19  1  0  0  0
 19 20  1  0  0  0
 20 21  2  0  0  0
 20 23  1  0  0  0
 23 24  1  0  0  0
 24 25  1  0  0  0
 25 26  1  0  0  0
 26 27  1  0  0  0
 27 28  1  0  0  0
  3  4  2  0  0  0
  4  5  1  0  0  0
  5  6  2  0  0  0
  6  7  1  0  0  0
  7  8  2  0  0  0
  8  9  1  0  0  0
 16 11  1  0  0  0
  9  1  1  0  0  0
 28 24  1  0  0  0
  9  5  1  0  0  0
 19 22  1  0  0  0
M  END
> <minimizedAffinity>
-8.95614

> <CNNscore>
0.7735633850

> <CNNaffinity>
7.4685430527

> <CNN_VS>
5.7773914337

> <CNNaffinity_variance>
0.6270442009

$$$$
[H]c1nc2c([H])c(N([H])C(=O)OC3([H])C([H])([H])OC([H])([H])C3([H])[H])c([H])c(-c3c([H])c([H])c(C#N)c(F)c3[H])n2n1


 28 31  0  0  0  0  0  0  0  0999 V2000
   12.7540   23.2191   -1.2746 C   0  0  0  0  0  0  0  0  0  0  0  0
   11.3972   23.0053   -1.2780 C   0  0  0  0  0  0  0  0  0  0  0  0
   10.7769   22.0842   -0.4068 C   0  0  0  0  0  0  0  0  0  0  0  0
   11.6340   21.4318    0.4300 C   0  0  0  0  0  0  0  0  0  0  0  0
   13.0198   21.6421    0.4421 C   0  0  0  0  0  0  0  0  0  0  0  0
   14.0429   21.1369    1.1510 N   0  0  0  0  0  0  0  0  0  0  0  0
   15.1868   21.6977    0.7506 C   0  0  0  0  0  0  0  0  0  0  0  0
   14.8327   22.5687   -0.2327 N   0  0  0  0  0  0  0  0  0  0  0  0
   13.5240   22.5247   -0.4080 N   0  0  0  0  0  0  0  0  0  0  0  0
   12.8990   27.5231   -3.4918 F   0  0  0  0  0  0  0  0  0  0  0  0
   13.4644   26.3138   -3.2831 C   0  0  0  0  0  0  0  0  0  0  0  0
   12.8488   25.4229   -2.4239 C   0  0  0  0  0  0  0  0  0  0  0  0
   13.3925   24.1782   -2.1830 C   0  0  0  0  0  0  0  0  0  0  0  0
   14.5724   23.8685   -2.8373 C   0  0  0  0  0  0  0  0  0  0  0  0
   15.1898   24.7576   -3.6968 C   0  0  0  0  0  0  0  0  0  0  0  0
   14.6391   25.9980   -3.9309 C   0  0  0  0  0  0  0  0  0  0  0  0
   15.2313   26.9630   -4.8106 C   0  0  0  0  0  0  0  0  0  0  0  0
   15.6965   27.7575   -5.5170 N   0  0  0  0  0  0  0  0  0  0  0  0
    9.3836   21.9241   -0.4718 N   0  0  0  0  0  0  0  0  0  0  0  0
    8.5374   21.4500    0.5223 C   0  0  0  0  0  0  0  0  0  0  0  0
    8.9224   21.0884    1.6526 O   0  0  0  0  0  0  0  0  0  0  0  0
    8.8879   22.1946   -1.3927 H   0  0  0  0  0  0  0  0  0  0  0  0
    7.1548   21.3471    0.3050 O   0  0  0  0  0  0  0  0  0  0  0  0
    6.6349   20.1975   -0.3125 C   0  0  0  0  0  0  0  0  0  0  0  0
    5.8106   20.5423   -1.5533 C   0  0  0  0  0  0  0  0  0  0  0  0
    6.2728   19.4939   -2.5387 C   0  0  0  0  0  0  0  0  0  0  0  0
    6.9986   18.5630   -1.8194 O   0  0  0  0  0  0  0  0  0  0  0  0
    7.7486   19.3666   -0.9488 C   0  0  0  0  0  0  0  0  0  0  0  0
 10 11  1  0  0  0
 11 12  2  0  0  0
 12 13  1  0  0  0
 13 14  2  0  0  0
 14 15  1  0  0  0
 15 16  2  0  0  0
 16 17  1  0  0  0
 17 18  3  0  0  0
 13  1  1  0  0  0
  1  2  2  0  0  0
  2  3  1  0  0  0
  3 19  1  0  0  0
 19 20  1  0  0  0
 20 21  2  0  0  0
 20 23  1  0  0  0
 23 24  1  0  0  0
 24 25  1  0  0  0
 25 26  1  0  0  0
 26 27  1  0  0  0
 27 28  1  0  0  0
  3  4  2  0  0  0
  4  5  1  0  0  0
  5  6  2  0  0  0
  6  7  1  0  0  0
  7  8  2  0  0  0
  8  9  1  0  0  0
 16 11  1  0  0  0
  9  1  1  0  0  0
 28 24  1  0  0  0
  9  5  1  0  0  0
 19 22  1  0  0  0
M  END
> <minimizedAffinity>
-9.14358

> <CNNscore>
0.7276422977

> <CNNaffinity>
7.3631997108

> <CNN_VS>
5.3577756882

> <CNNaffinity_variance>
0.4267808497

$$$$
[H]c1nc2c([H])c(N([H])C(=O)OC3([H])C([H])([H])OC([H])([H])C3([H])[H])c([H])c(-c3c([H])c([H])c(C#N)c(F)c3[H])n2n1


 28 31  0  0  0  0  0  0  0  0999 V2000
   13.5723   24.6649   -1.7440 C   0  0  0  0  0  0  0  0  0  0  0  0
   12.2401   24.4210   -1.5153 C   0  0  0  0  0  0  0  0  0  0  0  0
   11.7506   24.0370   -0.2485 C   0  0  0  0  0  0  0  0  0  0  0  0
   12.7064   23.9304    0.7187 C   0  0  0  0  0  0  0  0  0  0  0  0
   14.0682   24.1769    0.4966 C   0  0  0  0  0  0  0  0  0  0  0  0
   15.1695   24.1402    1.2650 N   0  0  0  0  0  0  0  0  0  0  0  0
   16.2375   24.4719    0.5351 C   0  0  0  0  0  0  0  0  0  0  0  0
   15.7554   24.7150   -0.7136 N   0  0  0  0  0  0  0  0  0  0  0  0
   14.4468   24.5333   -0.7222 N   0  0  0  0  0  0  0  0  0  0  0  0
   16.2882   23.8702   -5.6751 F   0  0  0  0  0  0  0  0  0  0  0  0
   15.4223   24.6695   -5.0141 C   0  0  0  0  0  0  0  0  0  0  0  0
   14.9594   24.2775   -3.7719 C   0  0  0  0  0  0  0  0  0  0  0  0
   14.0747   25.0639   -3.0635 C   0  0  0  0  0  0  0  0  0  0  0  0
   13.6776   26.2525   -3.6517 C   0  0  0  0  0  0  0  0  0  0  0  0
   14.1389   26.6465   -4.8936 C   0  0  0  0  0  0  0  0  0  0  0  0
   15.0221   25.8544   -5.5930 C   0  0  0  0  0  0  0  0  0  0  0  0
   15.5362   26.2081   -6.8840 C   0  0  0  0  0  0  0  0  0  0  0  0
   15.9555   26.4748   -7.9326 N   0  0  0  0  0  0  0  0  0  0  0  0
   10.3739   23.8069   -0.0963 N   0  0  0  0  0  0  0  0  0  0  0  0
    9.7358   22.5917    0.1160 C   0  0  0  0  0  0  0  0  0  0  0  0
   10.3293   21.4977    0.2028 O   0  0  0  0  0  0  0  0  0  0  0  0
    9.7121   24.6593   -0.1462 H   0  0  0  0  0  0  0  0  0  0  0  0
    8.3405   22.5225    0.2495 O   0  0  0  0  0  0  0  0  0  0  0  0
    7.7560   22.7094    1.5131 C   0  0  0  0  0  0  0  0  0  0  0  0
    8.3989   21.8159    2.5744 C   0  0  0  0  0  0  0  0  0  0  0  0
    8.5358   22.7648    3.7427 C   0  0  0  0  0  0  0  0  0  0  0  0
    7.7964   23.8903    3.4310 O   0  0  0  0  0  0  0  0  0  0  0  0
    8.0979   24.0884    2.0759 C   0  0  0  0  0  0  0  0  0  0  0  0
 10 11  1  0  0  0
 11 12  2  0  0  0
 12 13  1  0  0  0
 13 14  2  0  0  0
 14 15  1  0  0  0
 15 16  2  0  0  0
 16 17  1  0  0  0
 17 18  3  0  0  0
 13  1  1  0  0  0
  1  2  2  0  0  0
  2  3  1  0  0  0
  3 19  1  0  0  0
 19 20  1  0  0  0
 20 21  2  0  0  0
 20 23  1  0  0  0
 23 24  1  0  0  0
 24 25  1  0  0  0
 25 26  1  0  0  0
 26 27  1  0  0  0
 27 28  1  0  0  0
  3  4  2  0  0  0
  4  5  1  0  0  0
  5  6  2  0  0  0
  6  7  1  0  0  0
  7  8  2  0  0  0
  8  9  1  0  0  0
 16 11  1  0  0  0
  9  1  1  0  0  0
 28 24  1  0  0  0
  9  5  1  0  0  0
 19 22  1  0  0  0
M  END
> <minimizedAffinity>
-8.05084

> <CNNscore>
0.6864103675

> <CNNaffinity>
7.1702308655

> <CNN_VS>
4.9217209816

> <CNNaffinity_variance>
0.2674953640

$$$$
[H]c1nc2c([H])c(N([H])C(=O)OC3([H])C([H])([H])OC([H])([H])C3([H])[H])c([H])c(-c3c([H])c([H])c(C#N)c(F)c3[H])n2n1


 28 31  0  0  0  0  0  0  0  0999 V2000
   12.5567   23.2437   -1.1913 C   0  0  0  0  0  0  0  0  0  0  0  0
   11.1995   23.0329   -1.1769 C   0  0  0  0  0  0  0  0  0  0  0  0
   10.5910   22.0974   -0.3129 C   0  0  0  0  0  0  0  0  0  0  0  0
   11.4597   21.4278    0.4979 C   0  0  0  0  0  0  0  0  0  0  0  0
   12.8460   21.6348    0.4916 C   0  0  0  0  0  0  0  0  0  0  0  0
   13.8791   21.1145    1.1746 N   0  0  0  0  0  0  0  0  0  0  0  0
   15.0178   21.6800    0.7664 C   0  0  0  0  0  0  0  0  0  0  0  0
   14.6502   22.5697   -0.1950 N   0  0  0  0  0  0  0  0  0  0  0  0
   13.3387   22.5318   -0.3501 N   0  0  0  0  0  0  0  0  0  0  0  0
   16.0056   24.5065   -4.3492 F   0  0  0  0  0  0  0  0  0  0  0  0
   14.8943   24.8445   -3.6589 C   0  0  0  0  0  0  0  0  0  0  0  0
   14.3178   23.9138   -2.8150 C   0  0  0  0  0  0  0  0  0  0  0  0
   13.1830   24.2180   -2.0921 C   0  0  0  0  0  0  0  0  0  0  0  0
   12.6556   25.4879   -2.2517 C   0  0  0  0  0  0  0  0  0  0  0  0
   13.2302   26.4202   -3.0950 C   0  0  0  0  0  0  0  0  0  0  0  0
   14.3632   26.1069   -3.8125 C   0  0  0  0  0  0  0  0  0  0  0  0
   15.0052   27.0298   -4.7025 C   0  0  0  0  0  0  0  0  0  0  0  0
   15.5067   27.7847   -5.4272 N   0  0  0  0  0  0  0  0  0  0  0  0
    9.1964   21.9415   -0.3586 N   0  0  0  0  0  0  0  0  0  0  0  0
    8.3699   21.4120    0.6241 C   0  0  0  0  0  0  0  0  0  0  0  0
    8.7773   20.9867    1.7239 O   0  0  0  0  0  0  0  0  0  0  0  0
    8.6824   22.2640   -1.2523 H   0  0  0  0  0  0  0  0  0  0  0  0
    6.9830   21.3219    0.4294 O   0  0  0  0  0  0  0  0  0  0  0  0
    6.4559   20.2489   -0.3082 C   0  0  0  0  0  0  0  0  0  0  0  0
    5.8112   20.7185   -1.6127 C   0  0  0  0  0  0  0  0  0  0  0  0
    6.3074   19.6855   -2.5979 C   0  0  0  0  0  0  0  0  0  0  0  0
    6.8726   18.6656   -1.8555 O   0  0  0  0  0  0  0  0  0  0  0  0
    7.5722   19.3634   -0.8605 C   0  0  0  0  0  0  0  0  0  0  0  0
 10 11  1  0  0  0
 11 12  2  0  0  0
 12 13  1  0  0  0
 13 14  2  0  0  0
 14 15  1  0  0  0
 15 16  2  0  0  0
 16 17  1  0  0  0
 17 18  3  0  0  0
 13  1  1  0  0  0
  1  2  2  0  0  0
  2  3  1  0  0  0
  3 19  1  0  0  0
 19 20  1  0  0  0
 20 21  2  0  0  0
 20 23  1  0  0  0
 23 24  1  0  0  0
 24 25  1  0  0  0
 25 26  1  0  0  0
 26 27  1  0  0  0
 27 28  1  0  0  0
  3  4  2  0  0  0
  4  5  1  0  0  0
  5  6  2  0  0  0
  6  7  1  0  0  0
  7  8  2  0  0  0
  8  9  1  0  0  0
 16 11  1  0  0  0
  9  1  1  0  0  0
 28 24  1  0  0  0
  9  5  1  0  0  0
 19 22  1  0  0  0
M  END
> <minimizedAffinity>
-9.19085

> <CNNscore>
0.6714790463

> <CNNaffinity>
7.2720060349

> <CNN_VS>
4.8829998970

> <CNNaffinity_variance>
0.3952983916

$$$$
[H]c1nc2c([H])c(N([H])C(=O)OC3([H])C([H])([H])OC([H])([H])C3([H])[H])c([H])c(-c3c([H])c([H])c(C#N)c(F)c3[H])n2n1


 28 31  0  0  0  0  0  0  0  0999 V2000
   13.9261   23.4655   -1.4799 C   0  0  0  0  0  0  0  0  0  0  0  0
   12.7687   22.7577   -1.6944 C   0  0  0  0  0  0  0  0  0  0  0  0
   12.3867   21.6719   -0.8776 C   0  0  0  0  0  0  0  0  0  0  0  0
   13.2585   21.3900    0.1328 C   0  0  0  0  0  0  0  0  0  0  0  0
   14.4422   22.1054    0.3608 C   0  0  0  0  0  0  0  0  0  0  0  0
   15.4340   22.0221    1.2628 N   0  0  0  0  0  0  0  0  0  0  0  0
   16.3419   22.9711    1.0210 C   0  0  0  0  0  0  0  0  0  0  0  0
   15.8742   23.6445   -0.0648 N   0  0  0  0  0  0  0  0  0  0  0  0
   14.7288   23.1119   -0.4519 N   0  0  0  0  0  0  0  0  0  0  0  0
   17.2459   26.5561   -3.1799 F   0  0  0  0  0  0  0  0  0  0  0  0
   15.9646   26.1269   -3.1763 C   0  0  0  0  0  0  0  0  0  0  0  0
   15.6142   25.0629   -2.3665 C   0  0  0  0  0  0  0  0  0  0  0  0
   14.3174   24.5935   -2.3329 C   0  0  0  0  0  0  0  0  0  0  0  0
   13.3942   25.2338   -3.1415 C   0  0  0  0  0  0  0  0  0  0  0  0
   13.7423   26.2978   -3.9521 C   0  0  0  0  0  0  0  0  0  0  0  0
   15.0396   26.7592   -3.9787 C   0  0  0  0  0  0  0  0  0  0  0  0
   15.4622   27.8578   -4.7976 C   0  0  0  0  0  0  0  0  0  0  0  0
   15.7885   28.7577   -5.4535 N   0  0  0  0  0  0  0  0  0  0  0  0
   11.1871   21.0001   -1.1624 N   0  0  0  0  0  0  0  0  0  0  0  0
   10.3531   20.3392   -0.2699 C   0  0  0  0  0  0  0  0  0  0  0  0
   10.5711   20.2522    0.9554 O   0  0  0  0  0  0  0  0  0  0  0  0
   10.8520   20.9810   -2.1892 H   0  0  0  0  0  0  0  0  0  0  0  0
    9.1783   19.7102   -0.7101 O   0  0  0  0  0  0  0  0  0  0  0  0
    7.9611   19.9894   -0.0671 C   0  0  0  0  0  0  0  0  0  0  0  0
    7.9129   21.4237    0.4605 C   0  0  0  0  0  0  0  0  0  0  0  0
    6.5158   21.8529    0.0763 C   0  0  0  0  0  0  0  0  0  0  0  0
    5.8420   20.7118   -0.3169 O   0  0  0  0  0  0  0  0  0  0  0  0
    6.8088   20.0303   -1.0701 C   0  0  0  0  0  0  0  0  0  0  0  0
 10 11  1  0  0  0
 11 12  2  0  0  0
 12 13  1  0  0  0
 13 14  2  0  0  0
 14 15  1  0  0  0
 15 16  2  0  0  0
 16 17  1  0  0  0
 17 18  3  0  0  0
 13  1  1  0  0  0
  1  2  2  0  0  0
  2  3  1  0  0  0
  3 19  1  0  0  0
 19 20  1  0  0  0
 20 21  2  0  0  0
 20 23  1  0  0  0
 23 24  1  0  0  0
 24 25  1  0  0  0
 25 26  1  0  0  0
 26 27  1  0  0  0
 27 28  1  0  0  0
  3  4  2  0  0  0
  4  5  1  0  0  0
  5  6  2  0  0  0
  6  7  1  0  0  0
  7  8  2  0  0  0
  8  9  1  0  0  0
 16 11  1  0  0  0
  9  1  1  0  0  0
 28 24  1  0  0  0
  9  5  1  0  0  0
 19 22  1  0  0  0
M  END
> <minimizedAffinity>
-7.12720

> <CNNscore>
0.6690178514

> <CNNaffinity>
7.3274650574

> <CNN_VS>
4.9022049904

> <CNNaffinity_variance>
0.3765047789

$$$$
[H]c1nc2c([H])c(N([H])C(=O)OC3([H])C([H])([H])OC([H])([H])C3([H])[H])c([H])c(-c3c([H])c([H])c(C#N)c(F)c3[H])n2n1


 28 31  0  0  0  0  0  0  0  0999 V2000
   12.5467   23.7933   -0.7733 C   0  0  0  0  0  0  0  0  0  0  0  0
   11.2954   24.1252   -0.3143 C   0  0  0  0  0  0  0  0  0  0  0  0
   10.6879   23.4557    0.7696 C   0  0  0  0  0  0  0  0  0  0  0  0
   11.4445   22.4607    1.3156 C   0  0  0  0  0  0  0  0  0  0  0  0
   12.7222   22.1138    0.8554 C   0  0  0  0  0  0  0  0  0  0  0  0
   13.6371   21.1989    1.2167 N   0  0  0  0  0  0  0  0  0  0  0  0
   14.7085   21.2986    0.4259 C   0  0  0  0  0  0  0  0  0  0  0  0
   14.4218   22.3096   -0.4383 N   0  0  0  0  0  0  0  0  0  0  0  0
   13.2217   22.7914   -0.1679 N   0  0  0  0  0  0  0  0  0  0  0  0
   12.7978   27.5321   -3.8426 F   0  0  0  0  0  0  0  0  0  0  0  0
   13.2971   26.3485   -3.4236 C   0  0  0  0  0  0  0  0  0  0  0  0
   12.6946   25.7032   -2.3599 C   0  0  0  0  0  0  0  0  0  0  0  0
   13.1725   24.4934   -1.9008 C   0  0  0  0  0  0  0  0  0  0  0  0
   14.2735   23.9629   -2.5510 C   0  0  0  0  0  0  0  0  0  0  0  0
   14.8776   24.6062   -3.6148 C   0  0  0  0  0  0  0  0  0  0  0  0
   14.3930   25.8139   -4.0659 C   0  0  0  0  0  0  0  0  0  0  0  0
   14.9755   26.5292   -5.1635 C   0  0  0  0  0  0  0  0  0  0  0  0
   15.4289   27.1170   -6.0555 N   0  0  0  0  0  0  0  0  0  0  0  0
    9.4059   23.8557    1.1793 N   0  0  0  0  0  0  0  0  0  0  0  0
    9.0455   24.4397    2.3867 C   0  0  0  0  0  0  0  0  0  0  0  0
    9.8496   24.6960    3.3055 O   0  0  0  0  0  0  0  0  0  0  0  0
    8.5867   23.7018    0.4921 H   0  0  0  0  0  0  0  0  0  0  0  0
    7.7116   24.7863    2.6513 O   0  0  0  0  0  0  0  0  0  0  0  0
    7.4298   25.7695    3.6142 C   0  0  0  0  0  0  0  0  0  0  0  0
    6.9697   27.0786    2.9721 C   0  0  0  0  0  0  0  0  0  0  0  0
    5.8150   27.4762    3.8623 C   0  0  0  0  0  0  0  0  0  0  0  0
    5.8673   26.6557    4.9735 O   0  0  0  0  0  0  0  0  0  0  0  0
    6.1810   25.4074    4.4172 C   0  0  0  0  0  0  0  0  0  0  0  0
 10 11  1  0  0  0
 11 12  2  0  0  0
 12 13  1  0  0  0
 13 14  2  0  0  0
 14 15  1  0  0  0
 15 16  2  0  0  0
 16 17  1  0  0  0
 17 18  3  0  0  0
 13  1  1  0  0  0
  1  2  2  0  0  0
  2  3  1  0  0  0
  3 19  1  0  0  0
 19 20  1  0  0  0
 20 21  2  0  0  0
 20 23  1  0  0  0
 23 24  1  0  0  0
 24 25  1  0  0  0
 25 26  1  0  0  0
 26 27  1  0  0  0
 27 28  1  0  0  0
  3  4  2  0  0  0
  4  5  1  0  0  0
  5  6  2  0  0  0
  6  7  1  0  0  0
  7  8  2  0  0  0
  8  9  1  0  0  0
 16 11  1  0  0  0
  9  1  1  0  0  0
 28 24  1  0  0  0
  9  5  1  0  0  0
 19 22  1  0  0  0
M  END
> <minimizedAffinity>
-9.52588

> <CNNscore>
0.6687505245

> <CNNaffinity>
6.8928360939

> <CNN_VS>
4.6095876694

> <CNNaffinity_variance>
0.2770040631

$$$$
[H]c1nc2c([H])c(N([H])C(=O)OC3([H])C([H])([H])OC([H])([H])C3([H])[H])c([H])c(-c3c([H])c([H])c(C#N)c(F)c3[H])n2n1


 28 31  0  0  0  0  0  0  0  0999 V2000
   12.5342   23.9034   -0.8338 C   0  0  0  0  0  0  0  0  0  0  0  0
   11.2857   24.2374   -0.3685 C   0  0  0  0  0  0  0  0  0  0  0  0
   10.6892   23.5794    0.7285 C   0  0  0  0  0  0  0  0  0  0  0  0
   11.4530   22.5932    1.2802 C   0  0  0  0  0  0  0  0  0  0  0  0
   12.7279   22.2442    0.8136 C   0  0  0  0  0  0  0  0  0  0  0  0
   13.6483   21.3363    1.1784 N   0  0  0  0  0  0  0  0  0  0  0  0
   14.7129   21.4294    0.3775 C   0  0  0  0  0  0  0  0  0  0  0  0
   14.4162   22.4290   -0.4964 N   0  0  0  0  0  0  0  0  0  0  0  0
   13.2170   22.9108   -0.2218 N   0  0  0  0  0  0  0  0  0  0  0  0
   15.8558   24.1691   -4.3492 F   0  0  0  0  0  0  0  0  0  0  0  0
   14.7968   24.7233   -3.7190 C   0  0  0  0  0  0  0  0  0  0  0  0
   14.2307   24.0608   -2.6459 C   0  0  0  0  0  0  0  0  0  0  0  0
   13.1487   24.5915   -1.9747 C   0  0  0  0  0  0  0  0  0  0  0  0
   12.6630   25.8075   -2.4239 C   0  0  0  0  0  0  0  0  0  0  0  0
   13.2274   26.4718   -3.4966 C   0  0  0  0  0  0  0  0  0  0  0  0
   14.3075   25.9337   -4.1603 C   0  0  0  0  0  0  0  0  0  0  0  0
   14.9362   26.5739   -5.2786 C   0  0  0  0  0  0  0  0  0  0  0  0
   15.4350   27.1091   -6.1794 N   0  0  0  0  0  0  0  0  0  0  0  0
    9.4094   23.9808    1.1439 N   0  0  0  0  0  0  0  0  0  0  0  0
    9.0052   24.3311    2.4256 C   0  0  0  0  0  0  0  0  0  0  0  0
    9.7601   24.3346    3.4189 O   0  0  0  0  0  0  0  0  0  0  0  0
    8.6302   24.0311    0.3973 H   0  0  0  0  0  0  0  0  0  0  0  0
    7.6803   24.7138    2.6854 O   0  0  0  0  0  0  0  0  0  0  0  0
    7.4237   25.7248    3.6264 C   0  0  0  0  0  0  0  0  0  0  0  0
    6.9404   27.0128    2.9592 C   0  0  0  0  0  0  0  0  0  0  0  0
    5.8111   27.4341    3.8708 C   0  0  0  0  0  0  0  0  0  0  0  0
    5.8989   26.6475    5.0041 O   0  0  0  0  0  0  0  0  0  0  0  0
    6.2004   25.3838    4.4764 C   0  0  0  0  0  0  0  0  0  0  0  0
 10 11  1  0  0  0
 11 12  2  0  0  0
 12 13  1  0  0  0
 13 14  2  0  0  0
 14 15  1  0  0  0
 15 16  2  0  0  0
 16 17  1  0  0  0
 17 18  3  0  0  0
 13  1  1  0  0  0
  1  2  2  0  0  0
  2  3  1  0  0  0
  3 19  1  0  0  0
 19 20  1  0  0  0
 20 21  2  0  0  0
 20 23  1  0  0  0
 23 24  1  0  0  0
 24 25  1  0  0  0
 25 26  1  0  0  0
 26 27  1  0  0  0
 27 28  1  0  0  0
  3  4  2  0  0  0
  4  5  1  0  0  0
  5  6  2  0  0  0
  6  7  1  0  0  0
  7  8  2  0  0  0
  8  9  1  0  0  0
 16 11  1  0  0  0
  9  1  1  0  0  0
 28 24  1  0  0  0
  9  5  1  0  0  0
 19 22  1  0  0  0
M  END
> <minimizedAffinity>
-9.75657

> <CNNscore>
0.6476565003

> <CNNaffinity>
6.8723726273

> <CNN_VS>
4.4509367943

> <CNNaffinity_variance>
0.2989723980

$$$$
[H]c1nc2c([H])c(N([H])C(=O)OC3([H])C([H])([H])OC([H])([H])C3([H])[H])c([H])c(-c3c([H])c([H])c(C#N)c(F)c3[H])n2n1


 28 31  0  0  0  0  0  0  0  0999 V2000
   13.9788   26.2671   -4.7739 C   0  0  0  0  0  0  0  0  0  0  0  0
   13.1269   27.3444   -4.7543 C   0  0  0  0  0  0  0  0  0  0  0  0
   12.2363   27.5819   -3.6855 C   0  0  0  0  0  0  0  0  0  0  0  0
   12.2950   26.6575   -2.6842 C   0  0  0  0  0  0  0  0  0  0  0  0
   13.1602   25.5546   -2.6938 C   0  0  0  0  0  0  0  0  0  0  0  0
   13.3968   24.5359   -1.8508 N   0  0  0  0  0  0  0  0  0  0  0  0
   14.3467   23.7455   -2.3571 C   0  0  0  0  0  0  0  0  0  0  0  0
   14.6886   24.3137   -3.5451 N   0  0  0  0  0  0  0  0  0  0  0  0
   13.9656   25.4030   -3.7350 N   0  0  0  0  0  0  0  0  0  0  0  0
   16.8871   27.8621   -8.3037 F   0  0  0  0  0  0  0  0  0  0  0  0
   16.3453   26.8174   -7.6397 C   0  0  0  0  0  0  0  0  0  0  0  0
   15.4773   27.0635   -6.5924 C   0  0  0  0  0  0  0  0  0  0  0  0
   14.9023   26.0260   -5.8883 C   0  0  0  0  0  0  0  0  0  0  0  0
   15.2338   24.7397   -6.2782 C   0  0  0  0  0  0  0  0  0  0  0  0
   16.1015   24.4911   -7.3249 C   0  0  0  0  0  0  0  0  0  0  0  0
   16.6705   25.5338   -8.0218 C   0  0  0  0  0  0  0  0  0  0  0  0
   17.5769   25.3407   -9.1160 C   0  0  0  0  0  0  0  0  0  0  0  0
   18.3252   25.1929   -9.9905 N   0  0  0  0  0  0  0  0  0  0  0  0
   11.3980   28.7068   -3.7404 N   0  0  0  0  0  0  0  0  0  0  0  0
   10.3348   28.9304   -4.6057 C   0  0  0  0  0  0  0  0  0  0  0  0
    9.9703   28.1251   -5.4861 O   0  0  0  0  0  0  0  0  0  0  0  0
   11.5809   29.5062   -3.0372 H   0  0  0  0  0  0  0  0  0  0  0  0
    9.5848   30.1146   -4.5369 O   0  0  0  0  0  0  0  0  0  0  0  0
    8.1994   30.0706   -4.7647 C   0  0  0  0  0  0  0  0  0  0  0  0
    7.8095   28.9040   -5.6730 C   0  0  0  0  0  0  0  0  0  0  0  0
    6.5773   28.3666   -4.9825 C   0  0  0  0  0  0  0  0  0  0  0  0
    6.2120   29.3025   -4.0332 O   0  0  0  0  0  0  0  0  0  0  0  0
    7.4471   29.6862   -3.4913 C   0  0  0  0  0  0  0  0  0  0  0  0
 10 11  1  0  0  0
 11 12  2  0  0  0
 12 13  1  0  0  0
 13 14  2  0  0  0
 14 15  1  0  0  0
 15 16  2  0  0  0
 16 17  1  0  0  0
 17 18  3  0  0  0
 13  1  1  0  0  0
  1  2  2  0  0  0
  2  3  1  0  0  0
  3 19  1  0  0  0
 19 20  1  0  0  0
 20 21  2  0  0  0
 20 23  1  0  0  0
 23 24  1  0  0  0
 24 25  1  0  0  0
 25 26  1  0  0  0
 26 27  1  0  0  0
 27 28  1  0  0  0
  3  4  2  0  0  0
  4  5  1  0  0  0
  5  6  2  0  0  0
  6  7  1  0  0  0
  7  8  2  0  0  0
  8  9  1  0  0  0
 16 11  1  0  0  0
  9  1  1  0  0  0
 28 24  1  0  0  0
  9  5  1  0  0  0
 19 22  1  0  0  0
M  END
> <minimizedAffinity>
15.05537

> <CNNscore>
0.6353529692

> <CNNaffinity>
6.2623052597

> <CNN_VS>
3.9787743092

> <CNNaffinity_variance>
0.9291095734

$$$$
[H]c1nc2c([H])c(N([H])C(=O)OC3([H])C([H])([H])OC([H])([H])C3([H])[H])c([H])c(-c3c([H])c([H])c(C#N)c(F)c3[H])n2n1


 28 31  0  0  0  0  0  0  0  0999 V2000
   13.7524   24.1487   -1.8287 C   0  0  0  0  0  0  0  0  0  0  0  0
   12.5649   23.4732   -1.6862 C   0  0  0  0  0  0  0  0  0  0  0  0
   12.0972   23.0271   -0.4315 C   0  0  0  0  0  0  0  0  0  0  0  0
   12.9191   23.3225    0.6162 C   0  0  0  0  0  0  0  0  0  0  0  0
   14.1326   24.0112    0.4824 C   0  0  0  0  0  0  0  0  0  0  0  0
   15.0887   24.4094    1.3377 N   0  0  0  0  0  0  0  0  0  0  0  0
   16.0551   25.0425    0.6680 C   0  0  0  0  0  0  0  0  0  0  0  0
   15.6608   25.0207   -0.6340 N   0  0  0  0  0  0  0  0  0  0  0  0
   14.5006   24.3961   -0.7309 N   0  0  0  0  0  0  0  0  0  0  0  0
   13.7631   27.3484   -5.4651 F   0  0  0  0  0  0  0  0  0  0  0  0
   14.2382   26.1974   -4.9404 C   0  0  0  0  0  0  0  0  0  0  0  0
   13.7741   25.7786   -3.7075 C   0  0  0  0  0  0  0  0  0  0  0  0
   14.2329   24.6098   -3.1361 C   0  0  0  0  0  0  0  0  0  0  0  0
   15.1709   23.8847   -3.8507 C   0  0  0  0  0  0  0  0  0  0  0  0
   15.6364   24.3015   -5.0836 C   0  0  0  0  0  0  0  0  0  0  0  0
   15.1723   25.4699   -5.6458 C   0  0  0  0  0  0  0  0  0  0  0  0
   15.6161   25.9547   -6.9201 C   0  0  0  0  0  0  0  0  0  0  0  0
   15.9892   26.3323   -7.9520 N   0  0  0  0  0  0  0  0  0  0  0  0
   10.8720   22.3440   -0.3699 N   0  0  0  0  0  0  0  0  0  0  0  0
   10.6219   21.1012    0.1976 C   0  0  0  0  0  0  0  0  0  0  0  0
   11.4920   20.3987    0.7506 O   0  0  0  0  0  0  0  0  0  0  0  0
   10.0072   22.8203   -0.8081 H   0  0  0  0  0  0  0  0  0  0  0  0
    9.3331   20.5461    0.1805 O   0  0  0  0  0  0  0  0  0  0  0  0
    8.2138   21.3949    0.1777 C   0  0  0  0  0  0  0  0  0  0  0  0
    7.1308   20.9042   -0.7835 C   0  0  0  0  0  0  0  0  0  0  0  0
    5.8739   21.1031    0.0316 C   0  0  0  0  0  0  0  0  0  0  0  0
    6.2270   21.8653    1.1294 O   0  0  0  0  0  0  0  0  0  0  0  0
    7.4588   21.3097    1.5037 C   0  0  0  0  0  0  0  0  0  0  0  0
 10 11  1  0  0  0
 11 12  2  0  0  0
 12 13  1  0  0  0
 13 14  2  0  0  0
 14 15  1  0  0  0
 15 16  2  0  0  0
 16 17  1  0  0  0
 17 18  3  0  0  0
 13  1  1  0  0  0
  1  2  2  0  0  0
  2  3  1  0  0  0
  3 19  1  0  0  0
 19 20  1  0  0  0
 20 21  2  0  0  0
 20 23  1  0  0  0
 23 24  1  0  0  0
 24 25  1  0  0  0
 25 26  1  0  0  0
 26 27  1  0  0  0
 27 28  1  0  0  0
  3  4  2  0  0  0
  4  5  1  0  0  0
  5  6  2  0  0  0
  6  7  1  0  0  0
  7  8  2  0  0  0
  8  9  1  0  0  0
 16 11  1  0  0  0
  9  1  1  0  0  0
 28 24  1  0  0  0
  9  5  1  0  0  0
 19 22  1  0  0  0
M  END
> <minimizedAffinity>
-7.56114

> <CNNscore>
0.6062291861

> <CNNaffinity>
7.2139816284

> <CNN_VS>
4.3733263016

> <CNNaffinity_variance>
0.4885089993

$$$$
[H]c1nc2c([H])c(N([H])[H])c([H])c(-c3c([H])c([H])c(C#N)c([H])c3F)n2n1


 21 23  0  0  0  0  0  0  0  0999 V2000
   10.1049   23.9567   -0.4751 N   0  0  0  0  0  0  0  0  0  0  0  0
   11.5262   24.1497   -0.6017 C   0  0  0  0  0  0  0  0  0  0  0  0
   12.0919   24.5146   -1.8021 C   0  0  0  0  0  0  0  0  0  0  0  0
   13.4621   24.7099   -1.9609 C   0  0  0  0  0  0  0  0  0  0  0  0
   14.2666   24.5293   -0.8753 N   0  0  0  0  0  0  0  0  0  0  0  0
   15.5776   24.6424   -0.7323 N   0  0  0  0  0  0  0  0  0  0  0  0
   15.9302   24.3617    0.5484 C   0  0  0  0  0  0  0  0  0  0  0  0
   14.7670   24.0733    1.1729 N   0  0  0  0  0  0  0  0  0  0  0  0
   13.7409   24.1732    0.3090 C   0  0  0  0  0  0  0  0  0  0  0  0
   12.3714   23.9761    0.4749 C   0  0  0  0  0  0  0  0  0  0  0  0
    9.6050   23.6578   -1.3342 H   0  0  0  0  0  0  0  0  0  0  0  0
    9.6685   24.1204    0.4361 H   0  0  0  0  0  0  0  0  0  0  0  0
   14.0225   25.0930   -3.2371 C   0  0  0  0  0  0  0  0  0  0  0  0
   14.8976   24.2473   -3.8582 C   0  0  0  0  0  0  0  0  0  0  0  0
   15.4567   24.5834   -5.0874 C   0  0  0  0  0  0  0  0  0  0  0  0
   15.1419   25.7791   -5.7107 C   0  0  0  0  0  0  0  0  0  0  0  0
   14.2554   26.6120   -5.0585 C   0  0  0  0  0  0  0  0  0  0  0  0
   13.6925   26.2805   -3.8275 C   0  0  0  0  0  0  0  0  0  0  0  0
   12.8247   27.1696   -3.2593 F   0  0  0  0  0  0  0  0  0  0  0  0
   15.7182   26.1404   -6.9916 C   0  0  0  0  0  0  0  0  0  0  0  0
   16.1850   26.4129   -8.0163 N   0  0  0  0  0  0  0  0  0  0  0  0
  1  2  1  0  0  0
  2  3  1  0  0  0
  3  4  2  0  0  0
  4 13  1  0  0  0
 13 14  2  0  0  0
 14 15  1  0  0  0
 15 16  2  0  0  0
 16 17  1  0  0  0
 17 18  2  0  0  0
 18 19  1  0  0  0
 16 20  1  0  0  0
 20 21  3  0  0  0
  4  5  1  0  0  0
  5  6  1  0  0  0
  6  7  2  0  0  0
  7  8  1  0  0  0
  8  9  2  0  0  0
  9 10  1  0  0  0
 10  2  2  0  0  0
 18 13  1  0  0  0
  9  5  1  0  0  0
  1 11  1  0  0  0
  1 12  1  0  0  0
M  END
> <minimizedAffinity>
-8.76883

> <CNNscore>
0.8243955374

> <CNNaffinity>
6.8235154152

> <CNN_VS>
5.6252756119

> <CNNaffinity_variance>
0.1436267942

$$$$
[H]c1nc2c([H])c(N([H])[H])c([H])c(-c3c([H])c([H])c(C#N)c([H])c3F)n2n1


 21 23  0  0  0  0  0  0  0  0999 V2000
    9.4429   21.4166   -0.6365 N   0  0  0  0  0  0  0  0  0  0  0  0
   10.8461   21.7245   -0.5383 C   0  0  0  0  0  0  0  0  0  0  0  0
   11.4223   22.6866   -1.3361 C   0  0  0  0  0  0  0  0  0  0  0  0
   12.7756   23.0102   -1.2682 C   0  0  0  0  0  0  0  0  0  0  0  0
   13.5520   22.3395   -0.3706 N   0  0  0  0  0  0  0  0  0  0  0  0
   14.8423   22.4338   -0.0909 N   0  0  0  0  0  0  0  0  0  0  0  0
   15.1702   21.5523    0.8881 C   0  0  0  0  0  0  0  0  0  0  0  0
   14.0138   20.9202    1.1868 N   0  0  0  0  0  0  0  0  0  0  0  0
   13.0155   21.3953    0.4209 C   0  0  0  0  0  0  0  0  0  0  0  0
   11.6627   21.0666    0.3582 C   0  0  0  0  0  0  0  0  0  0  0  0
    9.0025   21.5772   -1.5626 H   0  0  0  0  0  0  0  0  0  0  0  0
    8.9607   21.0626    0.1940 H   0  0  0  0  0  0  0  0  0  0  0  0
   13.3478   24.0268   -2.1218 C   0  0  0  0  0  0  0  0  0  0  0  0
   14.4498   23.7218   -2.8698 C   0  0  0  0  0  0  0  0  0  0  0  0
   15.0273   24.6755   -3.7026 C   0  0  0  0  0  0  0  0  0  0  0  0
   14.5022   25.9534   -3.7945 C   0  0  0  0  0  0  0  0  0  0  0  0
   13.3892   26.2309   -3.0269 C   0  0  0  0  0  0  0  0  0  0  0  0
   12.8068   25.2798   -2.1912 C   0  0  0  0  0  0  0  0  0  0  0  0
   11.7067   25.6483   -1.4697 F   0  0  0  0  0  0  0  0  0  0  0  0
   15.0952   26.9558   -4.6587 C   0  0  0  0  0  0  0  0  0  0  0  0
   15.5529   27.7631   -5.3523 N   0  0  0  0  0  0  0  0  0  0  0  0
  1  2  1  0  0  0
  2  3  1  0  0  0
  3  4  2  0  0  0
  4 13  1  0  0  0
 13 14  2  0  0  0
 14 15  1  0  0  0
 15 16  2  0  0  0
 16 17  1  0  0  0
 17 18  2  0  0  0
 18 19  1  0  0  0
 16 20  1  0  0  0
 20 21  3  0  0  0
  4  5  1  0  0  0
  5  6  1  0  0  0
  6  7  2  0  0  0
  7  8  1  0  0  0
  8  9  2  0  0  0
  9 10  1  0  0  0
 10  2  2  0  0  0
 18 13  1  0  0  0
  9  5  1  0  0  0
  1 11  1  0  0  0
  1 12  1  0  0  0
M  END
> <minimizedAffinity>
-8.16060

> <CNNscore>
0.6032189131

> <CNNaffinity>
6.7677764893

> <CNN_VS>
4.0824508667

> <CNNaffinity_variance>
0.3693315089

$$$$
[H]c1nc2c([H])c(N([H])[H])c([H])c(-c3c([H])c([H])c(C#N)c([H])c3F)n2n1


 21 23  0  0  0  0  0  0  0  0999 V2000
   15.9393   21.3578    1.5434 N   0  0  0  0  0  0  0  0  0  0  0  0
   14.8534   21.6527    0.6449 C   0  0  0  0  0  0  0  0  0  0  0  0
   15.0067   22.5487   -0.3885 C   0  0  0  0  0  0  0  0  0  0  0  0
   13.9786   22.8579   -1.2763 C   0  0  0  0  0  0  0  0  0  0  0  0
   12.7750   22.2413   -1.1050 N   0  0  0  0  0  0  0  0  0  0  0  0
   11.6411   22.3374   -1.7812 N   0  0  0  0  0  0  0  0  0  0  0  0
   10.7039   21.5222   -1.2332 C   0  0  0  0  0  0  0  0  0  0  0  0
   11.3274   20.9282   -0.1918 N   0  0  0  0  0  0  0  0  0  0  0  0
   12.5976   21.3620   -0.1044 C   0  0  0  0  0  0  0  0  0  0  0  0
   13.6215   21.0482    0.7873 C   0  0  0  0  0  0  0  0  0  0  0  0
   16.6359   22.1144    1.6839 H   0  0  0  0  0  0  0  0  0  0  0  0
   15.9689   20.4368    1.9888 H   0  0  0  0  0  0  0  0  0  0  0  0
   14.1746   23.8044   -2.3511 C   0  0  0  0  0  0  0  0  0  0  0  0
   15.0565   23.5012   -3.3496 C   0  0  0  0  0  0  0  0  0  0  0  0
   15.2705   24.3886   -4.4000 C   0  0  0  0  0  0  0  0  0  0  0  0
   14.5977   25.5973   -4.4604 C   0  0  0  0  0  0  0  0  0  0  0  0
   13.7137   25.8749   -3.4374 C   0  0  0  0  0  0  0  0  0  0  0  0
   13.4956   24.9900   -2.3831 C   0  0  0  0  0  0  0  0  0  0  0  0
   12.6009   25.3529   -1.4165 F   0  0  0  0  0  0  0  0  0  0  0  0
   14.8123   26.5302   -5.5499 C   0  0  0  0  0  0  0  0  0  0  0  0
   15.0007   27.2709   -6.4206 N   0  0  0  0  0  0  0  0  0  0  0  0
  1  2  1  0  0  0
  2  3  1  0  0  0
  3  4  2  0  0  0
  4 13  1  0  0  0
 13 14  2  0  0  0
 14 15  1  0  0  0
 15 16  2  0  0  0
 16 17  1  0  0  0
 17 18  2  0  0  0
 18 19  1  0  0  0
 16 20  1  0  0  0
 20 21  3  0  0  0
  4  5  1  0  0  0
  5  6  1  0  0  0
  6  7  2  0  0  0
  7  8  1  0  0  0
  8  9  2  0  0  0
  9 10  1  0  0  0
 10  2  2  0  0  0
 18 13  1  0  0  0
  9  5  1  0  0  0
  1 11  1  0  0  0
  1 12  1  0  0  0
M  END
> <minimizedAffinity>
-8.42812

> <CNNscore>
0.5040746927

> <CNNaffinity>
6.5676355362

> <CNN_VS>
3.3105788231

> <CNNaffinity_variance>
0.0376781411

$$$$
[H]c1nc2c([H])c(N([H])[H])c([H])c(-c3c([H])c([H])c(C#N)c([H])c3F)n2n1


 21 23  0  0  0  0  0  0  0  0999 V2000
   15.6173   20.9334    1.2964 N   0  0  0  0  0  0  0  0  0  0  0  0
   14.5521   21.4397    0.4702 C   0  0  0  0  0  0  0  0  0  0  0  0
   14.7973   22.3568   -0.5262 C   0  0  0  0  0  0  0  0  0  0  0  0
   13.7917   22.8677   -1.3440 C   0  0  0  0  0  0  0  0  0  0  0  0
   12.5156   22.4341   -1.1397 N   0  0  0  0  0  0  0  0  0  0  0  0
   11.3819   22.7393   -1.7510 N   0  0  0  0  0  0  0  0  0  0  0  0
   10.3544   22.0485   -1.1942 C   0  0  0  0  0  0  0  0  0  0  0  0
   10.9230   21.3100   -0.2158 N   0  0  0  0  0  0  0  0  0  0  0  0
   12.2478   21.5390   -0.1739 C   0  0  0  0  0  0  0  0  0  0  0  0
   13.2486   21.0239    0.6477 C   0  0  0  0  0  0  0  0  0  0  0  0
   16.4286   21.5657    1.4361 H   0  0  0  0  0  0  0  0  0  0  0  0
   15.5229   19.9958    1.6957 H   0  0  0  0  0  0  0  0  0  0  0  0
   14.0851   23.8304   -2.3816 C   0  0  0  0  0  0  0  0  0  0  0  0
   13.5152   25.0704   -2.3165 C   0  0  0  0  0  0  0  0  0  0  0  0
   13.7750   26.0223   -3.2978 C   0  0  0  0  0  0  0  0  0  0  0  0
   14.6146   25.7387   -4.3616 C   0  0  0  0  0  0  0  0  0  0  0  0
   15.1749   24.4779   -4.3996 C   0  0  0  0  0  0  0  0  0  0  0  0
   14.9182   23.5208   -3.4197 C   0  0  0  0  0  0  0  0  0  0  0  0
   15.5192   22.3001   -3.5432 F   0  0  0  0  0  0  0  0  0  0  0  0
   14.8929   26.7224   -5.3903 C   0  0  0  0  0  0  0  0  0  0  0  0
   15.1320   27.5034   -6.2120 N   0  0  0  0  0  0  0  0  0  0  0  0
  1  2  1  0  0  0
  2  3  1  0  0  0
  3  4  2  0  0  0
  4 13  1  0  0  0
 13 14  2  0  0  0
 14 15  1  0  0  0
 15 16  2  0  0  0
 16 17  1  0  0  0
 17 18  2  0  0  0
 18 19  1  0  0  0
 16 20  1  0  0  0
 20 21  3  0  0  0
  4  5  1  0  0  0
  5  6  1  0  0  0
  6  7  2  0  0  0
  7  8  1  0  0  0
  8  9  2  0  0  0
  9 10  1  0  0  0
 10  2  2  0  0  0
 18 13  1  0  0  0
  9  5  1  0  0  0
  1 11  1  0  0  0
  1 12  1  0  0  0
M  END
> <minimizedAffinity>
-8.03776

> <CNNscore>
0.4285772443

> <CNNaffinity>
6.4919710159

> <CNN_VS>
2.7823109627

> <CNNaffinity_variance>
0.0297925472

$$$$
[H]c1nc2c([H])c(N([H])[H])c([H])c(-c3c([H])c([H])c(C#N)c([H])c3F)n2n1


 21 23  0  0  0  0  0  0  0  0999 V2000
   13.9915   20.0741   -1.2529 N   0  0  0  0  0  0  0  0  0  0  0  0
   13.6037   21.4419   -1.0242 C   0  0  0  0  0  0  0  0  0  0  0  0
   14.0807   22.4602   -1.8177 C   0  0  0  0  0  0  0  0  0  0  0  0
   13.7269   23.7939   -1.6254 C   0  0  0  0  0  0  0  0  0  0  0  0
   12.8721   24.0911   -0.6061 N   0  0  0  0  0  0  0  0  0  0  0  0
   12.3717   25.2456   -0.1954 N   0  0  0  0  0  0  0  0  0  0  0  0
   11.5551   25.0441    0.8703 C   0  0  0  0  0  0  0  0  0  0  0  0
   11.5865   23.7101    1.0838 N   0  0  0  0  0  0  0  0  0  0  0  0
   12.3910   23.1164    0.1841 C   0  0  0  0  0  0  0  0  0  0  0  0
   12.7406   21.7804   -0.0024 C   0  0  0  0  0  0  0  0  0  0  0  0
   14.9240   19.9286   -1.6850 H   0  0  0  0  0  0  0  0  0  0  0  0
   13.3422   19.3302   -0.9836 H   0  0  0  0  0  0  0  0  0  0  0  0
   14.2473   24.8386   -2.4783 C   0  0  0  0  0  0  0  0  0  0  0  0
   13.4126   25.4365   -3.3796 C   0  0  0  0  0  0  0  0  0  0  0  0
   13.8791   26.4457   -4.2167 C   0  0  0  0  0  0  0  0  0  0  0  0
   15.1962   26.8685   -4.1581 C   0  0  0  0  0  0  0  0  0  0  0  0
   16.0146   26.2454   -3.2378 C   0  0  0  0  0  0  0  0  0  0  0  0
   15.5528   25.2344   -2.3971 C   0  0  0  0  0  0  0  0  0  0  0  0
   16.4382   24.6774   -1.5182 F   0  0  0  0  0  0  0  0  0  0  0  0
   15.6940   27.9190   -5.0252 C   0  0  0  0  0  0  0  0  0  0  0  0
   16.0761   28.7588   -5.7260 N   0  0  0  0  0  0  0  0  0  0  0  0
  1  2  1  0  0  0
  2  3  1  0  0  0
  3  4  2  0  0  0
  4 13  1  0  0  0
 13 14  2  0  0  0
 14 15  1  0  0  0
 15 16  2  0  0  0
 16 17  1  0  0  0
 17 18  2  0  0  0
 18 19  1  0  0  0
 16 20  1  0  0  0
 20 21  3  0  0  0
  4  5  1  0  0  0
  5  6  1  0  0  0
  6  7  2  0  0  0
  7  8  1  0  0  0
  8  9  2  0  0  0
  9 10  1  0  0  0
 10  2  2  0  0  0
 18 13  1  0  0  0
  9  5  1  0  0  0
  1 11  1  0  0  0
  1 12  1  0  0  0
M  END
> <minimizedAffinity>
-7.50785

> <CNNscore>
0.4251457751

> <CNNaffinity>
6.4942541122

> <CNN_VS>
2.7610046864

> <CNNaffinity_variance>
0.1911852062

$$$$
[H]c1nc2c([H])c(N([H])[H])c([H])c(-c3c([H])c([H])c(C#N)c([H])c3F)n2n1


 21 23  0  0  0  0  0  0  0  0999 V2000
   18.8641   27.7405   -3.2208 N   0  0  0  0  0  0  0  0  0  0  0  0
   17.5201   27.2461   -3.3705 C   0  0  0  0  0  0  0  0  0  0  0  0
   17.0425   26.2280   -2.5770 C   0  0  0  0  0  0  0  0  0  0  0  0
   15.7486   25.7252   -2.6942 C   0  0  0  0  0  0  0  0  0  0  0  0
   14.9301   26.2718   -3.6374 N   0  0  0  0  0  0  0  0  0  0  0  0
   13.6773   26.0013   -3.9682 N   0  0  0  0  0  0  0  0  0  0  0  0
   13.2785   26.8156   -4.9786 C   0  0  0  0  0  0  0  0  0  0  0  0
   14.3524   27.5922   -5.2424 N   0  0  0  0  0  0  0  0  0  0  0  0
   15.3704   27.2670   -4.4257 C   0  0  0  0  0  0  0  0  0  0  0  0
   16.6634   27.7747   -4.3140 C   0  0  0  0  0  0  0  0  0  0  0  0
   19.5642   27.0628   -2.8629 H   0  0  0  0  0  0  0  0  0  0  0  0
   19.0574   28.7143   -3.4693 H   0  0  0  0  0  0  0  0  0  0  0  0
   15.2797   24.6545   -1.8436 C   0  0  0  0  0  0  0  0  0  0  0  0
   15.1889   24.8682   -0.4972 C   0  0  0  0  0  0  0  0  0  0  0  0
   14.7417   23.8603    0.3518 C   0  0  0  0  0  0  0  0  0  0  0  0
   14.3787   22.6195   -0.1439 C   0  0  0  0  0  0  0  0  0  0  0  0
   14.4815   22.4343   -1.5077 C   0  0  0  0  0  0  0  0  0  0  0  0
   14.9286   23.4401   -2.3626 C   0  0  0  0  0  0  0  0  0  0  0  0
   14.9965   23.1623   -3.6986 F   0  0  0  0  0  0  0  0  0  0  0  0
   13.9114   21.5613    0.7309 C   0  0  0  0  0  0  0  0  0  0  0  0
   13.5512   20.7195    1.4408 N   0  0  0  0  0  0  0  0  0  0  0  0
  1  2  1  0  0  0
  2  3  1  0  0  0
  3  4  2  0  0  0
  4 13  1  0  0  0
 13 14  2  0  0  0
 14 15  1  0  0  0
 15 16  2  0  0  0
 16 17  1  0  0  0
 17 18  2  0  0  0
 18 19  1  0  0  0
 16 20  1  0  0  0
 20 21  3  0  0  0
  4  5  1  0  0  0
  5  6  1  0  0  0
  6  7  2  0  0  0
  7  8  1  0  0  0
  8  9  2  0  0  0
  9 10  1  0  0  0
 10  2  2  0  0  0
 18 13  1  0  0  0
  9  5  1  0  0  0
  1 11  1  0  0  0
  1 12  1  0  0  0
M  END
> <minimizedAffinity>
-5.83889

> <CNNscore>
0.4074597657

> <CNNaffinity>
6.4419035912

> <CNN_VS>
2.6248164177

> <CNNaffinity_variance>
0.1825552434

$$$$
[H]c1nc2c([H])c(N([H])[H])c([H])c(-c3c([H])c([H])c(C#N)c([H])c3F)n2n1


 21 23  0  0  0  0  0  0  0  0999 V2000
   16.9289   24.1761    1.2186 N   0  0  0  0  0  0  0  0  0  0  0  0
   15.7888   24.3926    0.3661 C   0  0  0  0  0  0  0  0  0  0  0  0
   15.9400   24.6162   -0.9834 C   0  0  0  0  0  0  0  0  0  0  0  0
   14.8601   24.8292   -1.8374 C   0  0  0  0  0  0  0  0  0  0  0  0
   13.6061   24.8134   -1.3033 N   0  0  0  0  0  0  0  0  0  0  0  0
   12.4177   24.9820   -1.8614 N   0  0  0  0  0  0  0  0  0  0  0  0
   11.4447   24.8789   -0.9202 C   0  0  0  0  0  0  0  0  0  0  0  0
   12.1037   24.6394    0.2349 N   0  0  0  0  0  0  0  0  0  0  0  0
   13.4293   24.5973    0.0112 C   0  0  0  0  0  0  0  0  0  0  0  0
   14.5049   24.3836    0.8711 C   0  0  0  0  0  0  0  0  0  0  0  0
   17.8167   24.6222    0.9180 H   0  0  0  0  0  0  0  0  0  0  0  0
   16.8091   23.6056    2.0598 H   0  0  0  0  0  0  0  0  0  0  0  0
   15.0556   25.0612   -3.2508 C   0  0  0  0  0  0  0  0  0  0  0  0
   14.9953   26.3400   -3.7278 C   0  0  0  0  0  0  0  0  0  0  0  0
   15.1786   26.6007   -5.0825 C   0  0  0  0  0  0  0  0  0  0  0  0
   15.4259   25.5747   -5.9787 C   0  0  0  0  0  0  0  0  0  0  0  0
   15.4807   24.2941   -5.4667 C   0  0  0  0  0  0  0  0  0  0  0  0
   15.2980   24.0274   -4.1111 C   0  0  0  0  0  0  0  0  0  0  0  0
   15.3704   22.7270   -3.6984 F   0  0  0  0  0  0  0  0  0  0  0  0
   15.6184   25.8338   -7.3926 C   0  0  0  0  0  0  0  0  0  0  0  0
   15.7750   26.0236   -8.5248 N   0  0  0  0  0  0  0  0  0  0  0  0
  1  2  1  0  0  0
  2  3  1  0  0  0
  3  4  2  0  0  0
  4 13  1  0  0  0
 13 14  2  0  0  0
 14 15  1  0  0  0
 15 16  2  0  0  0
 16 17  1  0  0  0
 17 18  2  0  0  0
 18 19  1  0  0  0
 16 20  1  0  0  0
 20 21  3  0  0  0
  4  5  1  0  0  0
  5  6  1  0  0  0
  6  7  2  0  0  0
  7  8  1  0  0  0
  8  9  2  0  0  0
  9 10  1  0  0  0
 10  2  2  0  0  0
 18 13  1  0  0  0
  9  5  1  0  0  0
  1 11  1  0  0  0
  1 12  1  0  0  0
M  END
> <minimizedAffinity>
-6.82120

> <CNNscore>
0.3165797889

> <CNNaffinity>
6.3551068306

> <CNN_VS>
2.0118982792

> <CNNaffinity_variance>
0.1223771125

$$$$
[H]c1nc2c([H])c(N([H])[H])c([H])c(-c3c([H])c([H])c(C#N)c([H])c3F)n2n1


 21 23  0  0  0  0  0  0  0  0999 V2000
   14.7776   19.9779    0.8371 N   0  0  0  0  0  0  0  0  0  0  0  0
   14.1640   21.2618    0.6169 C   0  0  0  0  0  0  0  0  0  0  0  0
   14.7646   22.2120   -0.1772 C   0  0  0  0  0  0  0  0  0  0  0  0
   14.2000   23.4638   -0.4121 C   0  0  0  0  0  0  0  0  0  0  0  0
   13.0027   23.7485    0.1742 N   0  0  0  0  0  0  0  0  0  0  0  0
   12.2458   24.8336    0.1306 N   0  0  0  0  0  0  0  0  0  0  0  0
   11.1299   24.6510    0.8819 C   0  0  0  0  0  0  0  0  0  0  0  0
   11.2495   23.4013    1.3821 N   0  0  0  0  0  0  0  0  0  0  0  0
   12.3941   22.8392    0.9543 C   0  0  0  0  0  0  0  0  0  0  0  0
   12.9531   21.5853    1.1935 C   0  0  0  0  0  0  0  0  0  0  0  0
   15.8138   19.9500    0.7819 H   0  0  0  0  0  0  0  0  0  0  0  0
   14.1742   19.1747    1.0328 H   0  0  0  0  0  0  0  0  0  0  0  0
   14.8587   24.4384   -1.2522 C   0  0  0  0  0  0  0  0  0  0  0  0
   16.0893   24.9060   -0.8864 C   0  0  0  0  0  0  0  0  0  0  0  0
   16.7528   25.8446   -1.6709 C   0  0  0  0  0  0  0  0  0  0  0  0
   16.1854   26.3271   -2.8380 C   0  0  0  0  0  0  0  0  0  0  0  0
   14.9419   25.8359   -3.1807 C   0  0  0  0  0  0  0  0  0  0  0  0
   14.2729   24.8960   -2.3990 C   0  0  0  0  0  0  0  0  0  0  0  0
   13.0454   24.4691   -2.8202 F   0  0  0  0  0  0  0  0  0  0  0  0
   16.8671   27.3053   -3.6637 C   0  0  0  0  0  0  0  0  0  0  0  0
   17.4237   28.0888   -4.3107 N   0  0  0  0  0  0  0  0  0  0  0  0
  1  2  1  0  0  0
  2  3  1  0  0  0
  3  4  2  0  0  0
  4 13  1  0  0  0
 13 14  2  0  0  0
 14 15  1  0  0  0
 15 16  2  0  0  0
 16 17  1  0  0  0
 17 18  2  0  0  0
 18 19  1  0  0  0
 16 20  1  0  0  0
 20 21  3  0  0  0
  4  5  1  0  0  0
  5  6  1  0  0  0
  6  7  2  0  0  0
  7  8  1  0  0  0
  8  9  2  0  0  0
  9 10  1  0  0  0
 10  2  2  0  0  0
 18 13  1  0  0  0
  9  5  1  0  0  0
  1 11  1  0  0  0
  1 12  1  0  0  0
M  END
> <minimizedAffinity>
-6.88773

> <CNNscore>
0.3031142056

> <CNNaffinity>
6.4309487343

> <CNN_VS>
1.9493119717

> <CNNaffinity_variance>
0.2907128930

$$$$
[H]c1nc2c([H])c(N([H])[H])c([H])c(-c3c([H])c([H])c(C#N)c([H])c3F)n2n1


 21 23  0  0  0  0  0  0  0  0999 V2000
   14.2883   26.2952   -4.9033 N   0  0  0  0  0  0  0  0  0  0  0  0
   14.4094   25.7563   -3.5735 C   0  0  0  0  0  0  0  0  0  0  0  0
   13.3019   25.3444   -2.8677 C   0  0  0  0  0  0  0  0  0  0  0  0
   13.3818   24.8185   -1.5802 C   0  0  0  0  0  0  0  0  0  0  0  0
   14.6131   24.7122   -1.0051 N   0  0  0  0  0  0  0  0  0  0  0  0
   14.9858   24.2597    0.1817 N   0  0  0  0  0  0  0  0  0  0  0  0
   16.3342   24.3513    0.3103 C   0  0  0  0  0  0  0  0  0  0  0  0
   16.7585   24.8818   -0.8579 N   0  0  0  0  0  0  0  0  0  0  0  0
   15.7113   25.1068   -1.6714 C   0  0  0  0  0  0  0  0  0  0  0  0
   15.6388   25.6337   -2.9595 C   0  0  0  0  0  0  0  0  0  0  0  0
   13.3927   26.7707   -5.1250 H   0  0  0  0  0  0  0  0  0  0  0  0
   15.0746   26.1847   -5.5491 H   0  0  0  0  0  0  0  0  0  0  0  0
   12.1973   24.3955   -0.8676 C   0  0  0  0  0  0  0  0  0  0  0  0
   11.4587   23.3592   -1.3648 C   0  0  0  0  0  0  0  0  0  0  0  0
   10.3125   22.9253   -0.7054 C   0  0  0  0  0  0  0  0  0  0  0  0
    9.8925   23.5301    0.4671 C   0  0  0  0  0  0  0  0  0  0  0  0
   10.6593   24.5740    0.9440 C   0  0  0  0  0  0  0  0  0  0  0  0
   11.8079   25.0126    0.2879 C   0  0  0  0  0  0  0  0  0  0  0  0
   12.5016   26.0536    0.8370 F   0  0  0  0  0  0  0  0  0  0  0  0
    8.6999   23.0869    1.1632 C   0  0  0  0  0  0  0  0  0  0  0  0
    7.7399   22.7285    1.7038 N   0  0  0  0  0  0  0  0  0  0  0  0
  1  2  1  0  0  0
  2  3  1  0  0  0
  3  4  2  0  0  0
  4 13  1  0  0  0
 13 14  2  0  0  0
 14 15  1  0  0  0
 15 16  2  0  0  0
 16 17  1  0  0  0
 17 18  2  0  0  0
 18 19  1  0  0  0
 16 20  1  0  0  0
 20 21  3  0  0  0
  4  5  1  0  0  0
  5  6  1  0  0  0
  6  7  2  0  0  0
  7  8  1  0  0  0
  8  9  2  0  0  0
  9 10  1  0  0  0
 10  2  2  0  0  0
 18 13  1  0  0  0
  9  5  1  0  0  0
  1 11  1  0  0  0
  1 12  1  0  0  0
M  END
> <minimizedAffinity>
-6.91656

> <CNNscore>
0.2947408855

> <CNNaffinity>
6.2834177017

> <CNN_VS>
1.8519800901

> <CNNaffinity_variance>
0.1453556269

$$$$
[H]OC(=O)c1c([H])c([H])c(-c2c([H])c([H])c(N3C(=O)N(c4nc([H])c([H])c([H])n4)C4(C3=O)C([H])([H])C([H])([H])N(C([H])([H])c3nc([H])c([H])c([H])c3C([H])([H])[H])C([H])([H])C4([H])[H])c([H])c2[H])c(C([H])([H])[H])c1[H]


 43 48  0  0  0  0  0  0  0  0999 V2000
   16.1038   25.9565   -3.4085 N   0  0  0  0  0  0  0  0  0  0  0  0
   15.0934   24.9692   -3.6005 C   0  0  0  0  0  0  0  0  0  0  0  0
   15.1791   24.0230   -2.4043 C   0  0  0  0  0  0  0  0  0  0  0  0
   15.0225   24.7685   -1.1040 C   0  0  0  0  0  0  0  0  0  0  0  0
   15.6658   26.1126   -1.0734 C   0  0  0  0  0  0  0  0  0  0  0  0
   15.7004   26.8474   -2.3703 C   0  0  0  0  0  0  0  0  0  0  0  0
   15.6849   23.9578   -0.0863 N   0  0  0  0  0  0  0  0  0  0  0  0
   14.7147   23.0867    0.4793 C   0  0  0  0  0  0  0  0  0  0  0  0
   15.0134   22.0674    1.1436 O   0  0  0  0  0  0  0  0  0  0  0  0
   13.4274   23.5977    0.1443 N   0  0  0  0  0  0  0  0  0  0  0  0
   13.6226   24.7779   -0.6241 C   0  0  0  0  0  0  0  0  0  0  0  0
   12.8041   25.6962   -0.8854 O   0  0  0  0  0  0  0  0  0  0  0  0
   12.1824   23.0328    0.5101 C   0  0  0  0  0  0  0  0  0  0  0  0
   11.9708   21.6786    0.4842 C   0  0  0  0  0  0  0  0  0  0  0  0
   10.7305   21.2077    0.8543 C   0  0  0  0  0  0  0  0  0  0  0  0
    9.6903   22.0222    1.2491 C   0  0  0  0  0  0  0  0  0  0  0  0
    9.9051   23.3794    1.2746 C   0  0  0  0  0  0  0  0  0  0  0  0
   11.1464   23.8488    0.9040 C   0  0  0  0  0  0  0  0  0  0  0  0
    8.4264   21.4318    1.6335 C   0  0  0  0  0  0  0  0  0  0  0  0
    8.0349   21.3900    2.9768 C   0  0  0  0  0  0  0  0  0  0  0  0
    6.8378   20.8476    3.3805 C   0  0  0  0  0  0  0  0  0  0  0  0
    6.0048   20.3300    2.4108 C   0  0  0  0  0  0  0  0  0  0  0  0
    6.3913   20.3696    1.0728 C   0  0  0  0  0  0  0  0  0  0  0  0
    7.5997   20.9172    0.6674 C   0  0  0  0  0  0  0  0  0  0  0  0
    7.9368   20.9042   -0.7998 C   0  0  0  0  0  0  0  0  0  0  0  0
    4.7388   19.7543    2.8189 C   0  0  0  0  0  0  0  0  0  0  0  0
    4.1236   20.1684    3.9739 O   0  0  0  0  0  0  0  0  0  0  0  0
    4.2147   18.8757    2.1046 O   0  0  0  0  0  0  0  0  0  0  0  0
    3.3151   20.7714    4.0162 H   0  0  0  0  0  0  0  0  0  0  0  0
   17.0743   24.0456    0.2618 C   0  0  0  0  0  0  0  0  0  0  0  0
   18.0163   23.9459   -0.7065 N   0  0  0  0  0  0  0  0  0  0  0  0
   19.3329   24.0187   -0.4580 C   0  0  0  0  0  0  0  0  0  0  0  0
   19.7267   24.2035    0.8467 C   0  0  0  0  0  0  0  0  0  0  0  0
   18.7982   24.3088    1.8544 C   0  0  0  0  0  0  0  0  0  0  0  0
   17.4945   24.2256    1.5242 N   0  0  0  0  0  0  0  0  0  0  0  0
   16.6616   26.5424   -4.5736 C   0  0  0  0  0  0  0  0  0  0  0  0
   13.9682   27.4169   -4.9064 C   0  0  0  0  0  0  0  0  0  0  0  0
   14.6709   26.7198   -6.0083 C   0  0  0  0  0  0  0  0  0  0  0  0
   13.9815   26.5115   -7.1872 C   0  0  0  0  0  0  0  0  0  0  0  0
   14.6278   25.8647   -8.2159 C   0  0  0  0  0  0  0  0  0  0  0  0
   15.9301   25.4581   -8.0161 C   0  0  0  0  0  0  0  0  0  0  0  0
   16.5770   25.6797   -6.8437 N   0  0  0  0  0  0  0  0  0  0  0  0
   15.9693   26.3065   -5.8295 C   0  0  0  0  0  0  0  0  0  0  0  0
 37 38  1  0  0  0
 38 39  2  0  0  0
 39 40  1  0  0  0
 40 41  2  0  0  0
 41 42  1  0  0  0
 42 43  2  0  0  0
 43 36  1  0  0  0
 36  1  1  0  0  0
  1  2  1  0  0  0
  2  3  1  0  0  0
  3  4  1  0  0  0
  4  5  1  0  0  0
  5  6  1  0  0  0
  4  7  1  0  0  0
  7  8  1  0  0  0
  8  9  2  0  0  0
  8 10  1  0  0  0
 10 11  1  0  0  0
 11 12  2  0  0  0
 10 13  1  0  0  0
 13 14  2  0  0  0
 14 15  1  0  0  0
 15 16  2  0  0  0
 16 17  1  0  0  0
 17 18  2  0  0  0
 16 19  1  0  0  0
 19 20  2  0  0  0
 20 21  1  0  0  0
 21 22  2  0  0  0
 22 23  1  0  0  0
 23 24  2  0  0  0
 24 25  1  0  0  0
 22 26  1  0  0  0
 26 27  1  0  0  0
 26 28  2  0  0  0
  7 30  1  0  0  0
 30 31  2  0  0  0
 31 32  1  0  0  0
 32 33  2  0  0  0
 33 34  1  0  0  0
 34 35  2  0  0  0
 43 38  1  0  0  0
  6  1  1  0  0  0
 18 13  1  0  0  0
 24 19  1  0  0  0
 35 30  1  0  0  0
 11  4  1  0  0  0
 27 29  1  0  0  0
M  END
> <minimizedAffinity>
7.01044

> <CNNscore>
0.5268028378

> <CNNaffinity>
7.8944778442

> <CNN_VS>
4.1588335037

> <CNNaffinity_variance>
1.0778555870

$$$$
[H]OC(=O)c1c([H])c([H])c(-c2c([H])c([H])c(N3C(=O)N(c4nc([H])c([H])c([H])n4)C4(C3=O)C([H])([H])C([H])([H])N(C([H])([H])c3nc([H])c([H])c([H])c3C([H])([H])[H])C([H])([H])C4([H])[H])c([H])c2[H])c(C([H])([H])[H])c1[H]


 43 48  0  0  0  0  0  0  0  0999 V2000
   16.8151   24.3682   -1.1475 N   0  0  0  0  0  0  0  0  0  0  0  0
   16.0360   24.4102    0.0457 C   0  0  0  0  0  0  0  0  0  0  0  0
   14.6385   24.8706   -0.3650 C   0  0  0  0  0  0  0  0  0  0  0  0
   14.0481   23.9615   -1.4119 C   0  0  0  0  0  0  0  0  0  0  0  0
   15.0219   23.4547   -2.4200 C   0  0  0  0  0  0  0  0  0  0  0  0
   16.4151   23.2459   -1.9316 C   0  0  0  0  0  0  0  0  0  0  0  0
   13.0633   24.7591   -2.1367 N   0  0  0  0  0  0  0  0  0  0  0  0
   11.8042   24.5834   -1.5013 C   0  0  0  0  0  0  0  0  0  0  0  0
   10.8334   25.3553   -1.6787 O   0  0  0  0  0  0  0  0  0  0  0  0
   11.8921   23.4211   -0.6818 N   0  0  0  0  0  0  0  0  0  0  0  0
   13.2058   22.8962   -0.8238 C   0  0  0  0  0  0  0  0  0  0  0  0
   13.6374   21.7531   -0.5264 O   0  0  0  0  0  0  0  0  0  0  0  0
   10.8596   22.8873    0.1257 C   0  0  0  0  0  0  0  0  0  0  0  0
   10.7717   23.1726    1.4637 C   0  0  0  0  0  0  0  0  0  0  0  0
    9.7374   22.6130    2.1807 C   0  0  0  0  0  0  0  0  0  0  0  0
    8.7860   21.7821    1.6278 C   0  0  0  0  0  0  0  0  0  0  0  0
    8.8761   21.4978    0.2862 C   0  0  0  0  0  0  0  0  0  0  0  0
    9.9114   22.0585   -0.4295 C   0  0  0  0  0  0  0  0  0  0  0  0
    7.7277   21.2534    2.4611 C   0  0  0  0  0  0  0  0  0  0  0  0
    6.4847   20.9169    1.9121 C   0  0  0  0  0  0  0  0  0  0  0  0
    5.4584   20.4022    2.6684 C   0  0  0  0  0  0  0  0  0  0  0  0
    5.6810   20.2175    4.0169 C   0  0  0  0  0  0  0  0  0  0  0  0
    6.9168   20.5515    4.5668 C   0  0  0  0  0  0  0  0  0  0  0  0
    7.9511   21.0709    3.8021 C   0  0  0  0  0  0  0  0  0  0  0  0
    9.2474   21.4134    4.4868 C   0  0  0  0  0  0  0  0  0  0  0  0
    4.6098   19.6756    4.8290 C   0  0  0  0  0  0  0  0  0  0  0  0
    4.1357   20.3707    5.9134 O   0  0  0  0  0  0  0  0  0  0  0  0
    4.1236   18.5665    4.5283 O   0  0  0  0  0  0  0  0  0  0  0  0
    3.2588   20.8698    5.9440 H   0  0  0  0  0  0  0  0  0  0  0  0
   13.3447   25.5701   -3.2868 C   0  0  0  0  0  0  0  0  0  0  0  0
   12.6738   26.7327   -3.4684 N   0  0  0  0  0  0  0  0  0  0  0  0
   12.8825   27.5428   -4.5177 C   0  0  0  0  0  0  0  0  0  0  0  0
   13.8256   27.1591   -5.4423 C   0  0  0  0  0  0  0  0  0  0  0  0
   14.5250   25.9860   -5.2896 C   0  0  0  0  0  0  0  0  0  0  0  0
   14.2581   25.2268   -4.2090 N   0  0  0  0  0  0  0  0  0  0  0  0
   18.2094   24.5916   -1.0147 C   0  0  0  0  0  0  0  0  0  0  0  0
   21.0176   24.8814   -0.6145 C   0  0  0  0  0  0  0  0  0  0  0  0
   20.1127   24.6838    0.5415 C   0  0  0  0  0  0  0  0  0  0  0  0
   20.6729   24.6450    1.8037 C   0  0  0  0  0  0  0  0  0  0  0  0
   19.8386   24.4620    2.8829 C   0  0  0  0  0  0  0  0  0  0  0  0
   18.4867   24.3267    2.6479 C   0  0  0  0  0  0  0  0  0  0  0  0
   17.9706   24.3699    1.3933 N   0  0  0  0  0  0  0  0  0  0  0  0
   18.7619   24.5469    0.3288 C   0  0  0  0  0  0  0  0  0  0  0  0
 37 38  1  0  0  0
 38 39  2  0  0  0
 39 40  1  0  0  0
 40 41  2  0  0  0
 41 42  1  0  0  0
 42 43  2  0  0  0
 43 36  1  0  0  0
 36  1  1  0  0  0
  1  2  1  0  0  0
  2  3  1  0  0  0
  3  4  1  0  0  0
  4  5  1  0  0  0
  5  6  1  0  0  0
  4  7  1  0  0  0
  7  8  1  0  0  0
  8  9  2  0  0  0
  8 10  1  0  0  0
 10 11  1  0  0  0
 11 12  2  0  0  0
 10 13  1  0  0  0
 13 14  2  0  0  0
 14 15  1  0  0  0
 15 16  2  0  0  0
 16 17  1  0  0  0
 17 18  2  0  0  0
 16 19  1  0  0  0
 19 20  2  0  0  0
 20 21  1  0  0  0
 21 22  2  0  0  0
 22 23  1  0  0  0
 23 24  2  0  0  0
 24 25  1  0  0  0
 22 26  1  0  0  0
 26 27  1  0  0  0
 26 28  2  0  0  0
  7 30  1  0  0  0
 30 31  2  0  0  0
 31 32  1  0  0  0
 32 33  2  0  0  0
 33 34  1  0  0  0
 34 35  2  0  0  0
 43 38  1  0  0  0
  6  1  1  0  0  0
 18 13  1  0  0  0
 24 19  1  0  0  0
 35 30  1  0  0  0
 11  4  1  0  0  0
 27 29  1  0  0  0
M  END
> <minimizedAffinity>
19.29933

> <CNNscore>
0.4795045853

> <CNNaffinity>
7.6891288757

> <CNN_VS>
3.6869726181

> <CNNaffinity_variance>
1.0111230612

$$$$
[H]OC(=O)c1c([H])c([H])c(-c2c([H])c([H])c(N3C(=O)N(c4nc([H])c([H])c([H])n4)C4(C3=O)C([H])([H])C([H])([H])N(C([H])([H])c3nc([H])c([H])c([H])c3C([H])([H])[H])C([H])([H])C4([H])[H])c([H])c2[H])c(C([H])([H])[H])c1[H]


 43 48  0  0  0  0  0  0  0  0999 V2000
   14.8151   24.5022   -3.7366 N   0  0  0  0  0  0  0  0  0  0  0  0
   13.9001   23.4267   -3.5399 C   0  0  0  0  0  0  0  0  0  0  0  0
   14.1640   22.8842   -2.1364 C   0  0  0  0  0  0  0  0  0  0  0  0
   14.0216   23.9650   -1.0959 C   0  0  0  0  0  0  0  0  0  0  0  0
   14.5245   25.3044   -1.5137 C   0  0  0  0  0  0  0  0  0  0  0  0
   14.3948   25.6251   -2.9640 C   0  0  0  0  0  0  0  0  0  0  0  0
   14.8315   23.5440    0.0435 N   0  0  0  0  0  0  0  0  0  0  0  0
   13.9966   22.8053    0.9251 C   0  0  0  0  0  0  0  0  0  0  0  0
   14.4429   22.0532    1.8222 O   0  0  0  0  0  0  0  0  0  0  0  0
   12.6439   23.0932    0.5821 N   0  0  0  0  0  0  0  0  0  0  0  0
   12.6643   24.0063   -0.5075 C   0  0  0  0  0  0  0  0  0  0  0  0
   11.7401   24.7403   -0.9419 O   0  0  0  0  0  0  0  0  0  0  0  0
   11.4912   22.5659    1.2116 C   0  0  0  0  0  0  0  0  0  0  0  0
   11.1874   21.2304    1.1551 C   0  0  0  0  0  0  0  0  0  0  0  0
   10.0467   20.7961    1.7934 C   0  0  0  0  0  0  0  0  0  0  0  0
    9.1939   21.6296    2.4858 C   0  0  0  0  0  0  0  0  0  0  0  0
    9.5010   22.9681    2.5412 C   0  0  0  0  0  0  0  0  0  0  0  0
   10.6424   23.4008    1.9021 C   0  0  0  0  0  0  0  0  0  0  0  0
    8.0258   21.0765    3.1363 C   0  0  0  0  0  0  0  0  0  0  0  0
    8.0719   20.6870    4.4802 C   0  0  0  0  0  0  0  0  0  0  0  0
    6.9810   20.1676    5.1363 C   0  0  0  0  0  0  0  0  0  0  0  0
    5.8060   20.0328    4.4270 C   0  0  0  0  0  0  0  0  0  0  0  0
    5.7565   20.4191    3.0893 C   0  0  0  0  0  0  0  0  0  0  0  0
    6.8582   20.9428    2.4288 C   0  0  0  0  0  0  0  0  0  0  0  0
    6.7126   21.3209    0.9789 C   0  0  0  0  0  0  0  0  0  0  0  0
    4.6460   19.4871    5.1033 C   0  0  0  0  0  0  0  0  0  0  0  0
    4.1272   20.1092    6.2114 O   0  0  0  0  0  0  0  0  0  0  0  0
    4.1245   18.4423    4.6637 O   0  0  0  0  0  0  0  0  0  0  0  0
    3.2794   20.6570    6.2252 H   0  0  0  0  0  0  0  0  0  0  0  0
   16.2253   23.8382    0.2175 C   0  0  0  0  0  0  0  0  0  0  0  0
   16.9344   24.3610   -0.8114 N   0  0  0  0  0  0  0  0  0  0  0  0
   18.2391   24.6620   -0.7238 C   0  0  0  0  0  0  0  0  0  0  0  0
   18.8702   24.4221    0.4744 C   0  0  0  0  0  0  0  0  0  0  0  0
   18.1817   23.8925    1.5393 C   0  0  0  0  0  0  0  0  0  0  0  0
   16.8733   23.6170    1.3724 N   0  0  0  0  0  0  0  0  0  0  0  0
   15.2288   24.7607   -5.0684 C   0  0  0  0  0  0  0  0  0  0  0  0
   15.4347   25.5535   -7.7996 C   0  0  0  0  0  0  0  0  0  0  0  0
   15.6606   26.5369   -6.7151 C   0  0  0  0  0  0  0  0  0  0  0  0
   15.9712   27.8348   -7.0717 C   0  0  0  0  0  0  0  0  0  0  0  0
   16.1824   28.7545   -6.0698 C   0  0  0  0  0  0  0  0  0  0  0  0
   16.0729   28.3321   -4.7618 C   0  0  0  0  0  0  0  0  0  0  0  0
   15.7658   27.0479   -4.4478 N   0  0  0  0  0  0  0  0  0  0  0  0
   15.5562   26.1362   -5.4047 C   0  0  0  0  0  0  0  0  0  0  0  0
 37 38  1  0  0  0
 38 39  2  0  0  0
 39 40  1  0  0  0
 40 41  2  0  0  0
 41 42  1  0  0  0
 42 43  2  0  0  0
 43 36  1  0  0  0
 36  1  1  0  0  0
  1  2  1  0  0  0
  2  3  1  0  0  0
  3  4  1  0  0  0
  4  5  1  0  0  0
  5  6  1  0  0  0
  4  7  1  0  0  0
  7  8  1  0  0  0
  8  9  2  0  0  0
  8 10  1  0  0  0
 10 11  1  0  0  0
 11 12  2  0  0  0
 10 13  1  0  0  0
 13 14  2  0  0  0
 14 15  1  0  0  0
 15 16  2  0  0  0
 16 17  1  0  0  0
 17 18  2  0  0  0
 16 19  1  0  0  0
 19 20  2  0  0  0
 20 21  1  0  0  0
 21 22  2  0  0  0
 22 23  1  0  0  0
 23 24  2  0  0  0
 24 25  1  0  0  0
 22 26  1  0  0  0
 26 27  1  0  0  0
 26 28  2  0  0  0
  7 30  1  0  0  0
 30 31  2  0  0  0
 31 32  1  0  0  0
 32 33  2  0  0  0
 33 34  1  0  0  0
 34 35  2  0  0  0
 43 38  1  0  0  0
  6  1  1  0  0  0
 18 13  1  0  0  0
 24 19  1  0  0  0
 35 30  1  0  0  0
 11  4  1  0  0  0
 27 29  1  0  0  0
M  END
> <minimizedAffinity>
2.25673

> <CNNscore>
0.4183922410

> <CNNaffinity>
7.6440153122

> <CNN_VS>
3.1981966496

> <CNNaffinity_variance>
0.3987964988

$$$$
[H]OC(=O)c1c([H])c([H])c(-c2c([H])c([H])c(N3C(=O)N(c4nc([H])c([H])c([H])n4)C4(C3=O)C([H])([H])C([H])([H])N(C([H])([H])c3nc([H])c([H])c([H])c3C([H])([H])[H])C([H])([H])C4([H])[H])c([H])c2[H])c(C([H])([H])[H])c1[H]


 43 48  0  0  0  0  0  0  0  0999 V2000
   16.8672   25.1037   -1.5310 N   0  0  0  0  0  0  0  0  0  0  0  0
   16.1504   25.0887   -0.2987 C   0  0  0  0  0  0  0  0  0  0  0  0
   14.6866   25.3544   -0.6454 C   0  0  0  0  0  0  0  0  0  0  0  0
   14.1651   24.3419   -1.6324 C   0  0  0  0  0  0  0  0  0  0  0  0
   15.1436   23.9271   -2.6774 C   0  0  0  0  0  0  0  0  0  0  0  0
   16.5750   23.9131   -2.2600 C   0  0  0  0  0  0  0  0  0  0  0  0
   13.0511   24.9830   -2.3247 N   0  0  0  0  0  0  0  0  0  0  0  0
   11.8585   24.6721   -1.6169 C   0  0  0  0  0  0  0  0  0  0  0  0
   10.7893   25.3086   -1.7628 O   0  0  0  0  0  0  0  0  0  0  0  0
   12.1356   23.5595   -0.7709 N   0  0  0  0  0  0  0  0  0  0  0  0
   13.4968   23.2001   -0.9694 C   0  0  0  0  0  0  0  0  0  0  0  0
   14.0856   22.1317   -0.6637 O   0  0  0  0  0  0  0  0  0  0  0  0
   11.2220   22.9282    0.1066 C   0  0  0  0  0  0  0  0  0  0  0  0
   11.2126   21.5684    0.2797 C   0  0  0  0  0  0  0  0  0  0  0  0
   10.2916   21.0309    1.1514 C   0  0  0  0  0  0  0  0  0  0  0  0
    9.3788   21.7841    1.8591 C   0  0  0  0  0  0  0  0  0  0  0  0
    9.3905   23.1472    1.6840 C   0  0  0  0  0  0  0  0  0  0  0  0
   10.3126   23.6832    0.8116 C   0  0  0  0  0  0  0  0  0  0  0  0
    8.4589   21.1283    2.7631 C   0  0  0  0  0  0  0  0  0  0  0  0
    8.8471   20.8032    4.0682 C   0  0  0  0  0  0  0  0  0  0  0  0
    7.9990   20.1900    4.9599 C   0  0  0  0  0  0  0  0  0  0  0  0
    6.7216   19.8918    4.5339 C   0  0  0  0  0  0  0  0  0  0  0  0
    6.3318   20.2136    3.2356 C   0  0  0  0  0  0  0  0  0  0  0  0
    7.1890   20.8322    2.3373 C   0  0  0  0  0  0  0  0  0  0  0  0
    6.6824   21.1301    0.9513 C   0  0  0  0  0  0  0  0  0  0  0  0
    5.8143   19.2454    5.4611 C   0  0  0  0  0  0  0  0  0  0  0  0
    5.5461   17.9035    5.3544 O   0  0  0  0  0  0  0  0  0  0  0  0
    5.2795   19.9266    6.3594 O   0  0  0  0  0  0  0  0  0  0  0  0
    5.9143   17.1883    5.9643 H   0  0  0  0  0  0  0  0  0  0  0  0
   13.1680   25.7823   -3.5109 C   0  0  0  0  0  0  0  0  0  0  0  0
   14.0928   25.4621   -4.4473 N   0  0  0  0  0  0  0  0  0  0  0  0
   14.2604   26.1610   -5.5805 C   0  0  0  0  0  0  0  0  0  0  0  0
   13.4464   27.2506   -5.7844 C   0  0  0  0  0  0  0  0  0  0  0  0
   12.4973   27.6043   -4.8555 C   0  0  0  0  0  0  0  0  0  0  0  0
   12.3905   26.8520   -3.7428 N   0  0  0  0  0  0  0  0  0  0  0  0
   18.2264   25.5059   -1.4808 C   0  0  0  0  0  0  0  0  0  0  0  0
   16.2718   27.1599   -2.7354 C   0  0  0  0  0  0  0  0  0  0  0  0
   17.7129   27.3621   -3.0117 C   0  0  0  0  0  0  0  0  0  0  0  0
   18.0696   28.3681   -3.8887 C   0  0  0  0  0  0  0  0  0  0  0  0
   19.4068   28.5624   -4.1504 C   0  0  0  0  0  0  0  0  0  0  0  0
   20.3210   27.7424   -3.5234 C   0  0  0  0  0  0  0  0  0  0  0  0
   19.9345   26.7631   -2.6669 N   0  0  0  0  0  0  0  0  0  0  0  0
   18.6403   26.5555   -2.3969 C   0  0  0  0  0  0  0  0  0  0  0  0
 37 38  1  0  0  0
 38 39  2  0  0  0
 39 40  1  0  0  0
 40 41  2  0  0  0
 41 42  1  0  0  0
 42 43  2  0  0  0
 43 36  1  0  0  0
 36  1  1  0  0  0
  1  2  1  0  0  0
  2  3  1  0  0  0
  3  4  1  0  0  0
  4  5  1  0  0  0
  5  6  1  0  0  0
  4  7  1  0  0  0
  7  8  1  0  0  0
  8  9  2  0  0  0
  8 10  1  0  0  0
 10 11  1  0  0  0
 11 12  2  0  0  0
 10 13  1  0  0  0
 13 14  2  0  0  0
 14 15  1  0  0  0
 15 16  2  0  0  0
 16 17  1  0  0  0
 17 18  2  0  0  0
 16 19  1  0  0  0
 19 20  2  0  0  0
 20 21  1  0  0  0
 21 22  2  0  0  0
 22 23  1  0  0  0
 23 24  2  0  0  0
 24 25  1  0  0  0
 22 26  1  0  0  0
 26 27  1  0  0  0
 26 28  2  0  0  0
  7 30  1  0  0  0
 30 31  2  0  0  0
 31 32  1  0  0  0
 32 33  2  0  0  0
 33 34  1  0  0  0
 34 35  2  0  0  0
 43 38  1  0  0  0
  6  1  1  0  0  0
 18 13  1  0  0  0
 24 19  1  0  0  0
 35 30  1  0  0  0
 11  4  1  0  0  0
 27 29  1  0  0  0
M  END
> <minimizedAffinity>
9.92040

> <CNNscore>
0.4110021591

> <CNNaffinity>
7.4840178490

> <CNN_VS>
3.0759475231

> <CNNaffinity_variance>
1.3943053484

$$$$
[H]OC(=O)c1c([H])c([H])c(-c2c([H])c([H])c(N3C(=O)N(c4nc([H])c([H])c([H])n4)C4(C3=O)C([H])([H])C([H])([H])N(C([H])([H])c3nc([H])c([H])c([H])c3C([H])([H])[H])C([H])([H])C4([H])[H])c([H])c2[H])c(C([H])([H])[H])c1[H]


 43 48  0  0  0  0  0  0  0  0999 V2000
    7.0004   24.4774    3.7648 N   0  0  0  0  0  0  0  0  0  0  0  0
    8.0259   25.4456    3.5560 C   0  0  0  0  0  0  0  0  0  0  0  0
    9.3484   24.6812    3.5465 C   0  0  0  0  0  0  0  0  0  0  0  0
    9.3486   23.6001    2.4967 C   0  0  0  0  0  0  0  0  0  0  0  0
    8.0470   22.8940    2.3271 C   0  0  0  0  0  0  0  0  0  0  0  0
    6.8254   23.7127    2.5736 C   0  0  0  0  0  0  0  0  0  0  0  0
   10.3182   22.6021    2.9386 N   0  0  0  0  0  0  0  0  0  0  0  0
   11.5780   22.9340    2.3703 C   0  0  0  0  0  0  0  0  0  0  0  0
   12.6633   22.4716    2.7922 O   0  0  0  0  0  0  0  0  0  0  0  0
   11.3424   23.8407    1.2966 N   0  0  0  0  0  0  0  0  0  0  0  0
    9.9391   24.0552    1.2183 C   0  0  0  0  0  0  0  0  0  0  0  0
    9.2639   24.5360    0.2725 O   0  0  0  0  0  0  0  0  0  0  0  0
   12.3264   24.4213    0.4613 C   0  0  0  0  0  0  0  0  0  0  0  0
   12.3718   25.7724    0.2341 C   0  0  0  0  0  0  0  0  0  0  0  0
   13.3602   26.2593   -0.5923 C   0  0  0  0  0  0  0  0  0  0  0  0
   14.3062   25.4637   -1.2035 C   0  0  0  0  0  0  0  0  0  0  0  0
   14.2587   24.1095   -0.9738 C   0  0  0  0  0  0  0  0  0  0  0  0
   13.2692   23.6241   -0.1469 C   0  0  0  0  0  0  0  0  0  0  0  0
   15.3151   26.0707   -2.0446 C   0  0  0  0  0  0  0  0  0  0  0  0
   16.4214   26.7182   -1.4819 C   0  0  0  0  0  0  0  0  0  0  0  0
   17.4060   27.2973   -2.2470 C   0  0  0  0  0  0  0  0  0  0  0  0
   17.2814   27.2273   -3.6188 C   0  0  0  0  0  0  0  0  0  0  0  0
   16.1816   26.5839   -4.1823 C   0  0  0  0  0  0  0  0  0  0  0  0
   15.1890   26.0004   -3.4087 C   0  0  0  0  0  0  0  0  0  0  0  0
   14.0316   25.3379   -4.1072 C   0  0  0  0  0  0  0  0  0  0  0  0
   18.3106   27.8325   -4.4406 C   0  0  0  0  0  0  0  0  0  0  0  0
   17.9790   28.7205   -5.4333 O   0  0  0  0  0  0  0  0  0  0  0  0
   19.5044   27.5347   -4.2328 O   0  0  0  0  0  0  0  0  0  0  0  0
   18.1054   29.7207   -5.3825 H   0  0  0  0  0  0  0  0  0  0  0  0
   10.0239   21.4904    3.7970 C   0  0  0  0  0  0  0  0  0  0  0  0
    8.9015   20.7611    3.5895 N   0  0  0  0  0  0  0  0  0  0  0  0
    8.5605   19.7090    4.3495 C   0  0  0  0  0  0  0  0  0  0  0  0
    9.4016   19.3693    5.3832 C   0  0  0  0  0  0  0  0  0  0  0  0
   10.5488   20.0871    5.6226 C   0  0  0  0  0  0  0  0  0  0  0  0
   10.8219   21.1305    4.8150 N   0  0  0  0  0  0  0  0  0  0  0  0
    5.8228   24.9176    4.4213 C   0  0  0  0  0  0  0  0  0  0  0  0
    4.4263   26.4785    6.3562 C   0  0  0  0  0  0  0  0  0  0  0  0
    4.6464   27.0027    4.9884 C   0  0  0  0  0  0  0  0  0  0  0  0
    4.1557   28.2589    4.6892 C   0  0  0  0  0  0  0  0  0  0  0  0
    4.3564   28.7530    3.4204 C   0  0  0  0  0  0  0  0  0  0  0  0
    5.0369   27.9680    2.5137 C   0  0  0  0  0  0  0  0  0  0  0  0
    5.5054   26.7374    2.8425 N   0  0  0  0  0  0  0  0  0  0  0  0
    5.3224   26.2361    4.0697 C   0  0  0  0  0  0  0  0  0  0  0  0
 37 38  1  0  0  0
 38 39  2  0  0  0
 39 40  1  0  0  0
 40 41  2  0  0  0
 41 42  1  0  0  0
 42 43  2  0  0  0
 43 36  1  0  0  0
 36  1  1  0  0  0
  1  2  1  0  0  0
  2  3  1  0  0  0
  3  4  1  0  0  0
  4  5  1  0  0  0
  5  6  1  0  0  0
  4  7  1  0  0  0
  7  8  1  0  0  0
  8  9  2  0  0  0
  8 10  1  0  0  0
 10 11  1  0  0  0
 11 12  2  0  0  0
 10 13  1  0  0  0
 13 14  2  0  0  0
 14 15  1  0  0  0
 15 16  2  0  0  0
 16 17  1  0  0  0
 17 18  2  0  0  0
 16 19  1  0  0  0
 19 20  2  0  0  0
 20 21  1  0  0  0
 21 22  2  0  0  0
 22 23  1  0  0  0
 23 24  2  0  0  0
 24 25  1  0  0  0
 22 26  1  0  0  0
 26 27  1  0  0  0
 26 28  2  0  0  0
  7 30  1  0  0  0
 30 31  2  0  0  0
 31 32  1  0  0  0
 32 33  2  0  0  0
 33 34  1  0  0  0
 34 35  2  0  0  0
 43 38  1  0  0  0
  6  1  1  0  0  0
 18 13  1  0  0  0
 24 19  1  0  0  0
 35 30  1  0  0  0
 11  4  1  0  0  0
 27 29  1  0  0  0
M  END
> <minimizedAffinity>
2.81125

> <CNNscore>
0.4047673047

> <CNNaffinity>
7.0795578957

> <CNN_VS>
2.8655736446

> <CNNaffinity_variance>
0.6732422113

$$$$
[H]OC(=O)c1c([H])c([H])c(-c2c([H])c([H])c(N3C(=O)N(c4nc([H])c([H])c([H])n4)C4(C3=O)C([H])([H])C([H])([H])N(C([H])([H])c3nc([H])c([H])c([H])c3C([H])([H])[H])C([H])([H])C4([H])[H])c([H])c2[H])c(C([H])([H])[H])c1[H]


 43 48  0  0  0  0  0  0  0  0999 V2000
   17.3475   25.2823   -1.7262 N   0  0  0  0  0  0  0  0  0  0  0  0
   16.6005   25.2997   -0.5121 C   0  0  0  0  0  0  0  0  0  0  0  0
   15.1421   25.5306   -0.9036 C   0  0  0  0  0  0  0  0  0  0  0  0
   14.6601   24.4763   -1.8665 C   0  0  0  0  0  0  0  0  0  0  0  0
   15.6701   24.0401   -2.8719 C   0  0  0  0  0  0  0  0  0  0  0  0
   17.0907   24.0625   -2.4196 C   0  0  0  0  0  0  0  0  0  0  0  0
   13.5545   25.0756   -2.6081 N   0  0  0  0  0  0  0  0  0  0  0  0
   12.3492   24.7716   -1.9190 C   0  0  0  0  0  0  0  0  0  0  0  0
   11.2750   25.3862   -2.1134 O   0  0  0  0  0  0  0  0  0  0  0  0
   12.6212   23.6938   -1.0275 N   0  0  0  0  0  0  0  0  0  0  0  0
   13.9919   23.3484   -1.1799 C   0  0  0  0  0  0  0  0  0  0  0  0
   14.5882   22.3005   -0.8223 O   0  0  0  0  0  0  0  0  0  0  0  0
   11.6952   23.0798   -0.1508 C   0  0  0  0  0  0  0  0  0  0  0  0
   12.0925   22.1679    0.7925 C   0  0  0  0  0  0  0  0  0  0  0  0
   11.1297   21.6147    1.6073 C   0  0  0  0  0  0  0  0  0  0  0  0
    9.7890   21.9270    1.5271 C   0  0  0  0  0  0  0  0  0  0  0  0
    9.3933   22.8418    0.5808 C   0  0  0  0  0  0  0  0  0  0  0  0
   10.3578   23.3941   -0.2335 C   0  0  0  0  0  0  0  0  0  0  0  0
    8.8540   21.3026    2.4379 C   0  0  0  0  0  0  0  0  0  0  0  0
    9.2288   20.9992    3.7521 C   0  0  0  0  0  0  0  0  0  0  0  0
    8.3663   20.4162    4.6501 C   0  0  0  0  0  0  0  0  0  0  0  0
    7.0878   20.1267    4.2213 C   0  0  0  0  0  0  0  0  0  0  0  0
    6.7113   20.4270    2.9140 C   0  0  0  0  0  0  0  0  0  0  0  0
    7.5830   21.0151    2.0092 C   0  0  0  0  0  0  0  0  0  0  0  0
    7.0900   21.2913    0.6139 C   0  0  0  0  0  0  0  0  0  0  0  0
    6.1655   19.5121    5.1552 C   0  0  0  0  0  0  0  0  0  0  0  0
    5.3200   18.5116    4.7451 O   0  0  0  0  0  0  0  0  0  0  0  0
    6.1505   19.9054    6.3392 O   0  0  0  0  0  0  0  0  0  0  0  0
    5.4356   17.5314    4.9570 H   0  0  0  0  0  0  0  0  0  0  0  0
   13.6894   25.8344   -3.8187 C   0  0  0  0  0  0  0  0  0  0  0  0
   14.0916   25.2179   -4.9558 N   0  0  0  0  0  0  0  0  0  0  0  0
   14.2401   25.8606   -6.1244 C   0  0  0  0  0  0  0  0  0  0  0  0
   13.9667   27.2082   -6.1507 C   0  0  0  0  0  0  0  0  0  0  0  0
   13.5564   27.8658   -5.0159 C   0  0  0  0  0  0  0  0  0  0  0  0
   13.4312   27.1505   -3.8809 N   0  0  0  0  0  0  0  0  0  0  0  0
   18.6991   25.7067   -1.6572 C   0  0  0  0  0  0  0  0  0  0  0  0
   21.4733   26.0540   -2.2173 C   0  0  0  0  0  0  0  0  0  0  0  0
   20.4606   26.8916   -2.9006 C   0  0  0  0  0  0  0  0  0  0  0  0
   20.9046   27.8351   -3.8068 C   0  0  0  0  0  0  0  0  0  0  0  0
   19.9697   28.6171   -4.4460 C   0  0  0  0  0  0  0  0  0  0  0  0
   18.6381   28.4181   -4.1485 C   0  0  0  0  0  0  0  0  0  0  0  0
   18.2375   27.4810   -3.2520 N   0  0  0  0  0  0  0  0  0  0  0  0
   19.1281   26.7090   -2.6183 C   0  0  0  0  0  0  0  0  0  0  0  0
 37 38  1  0  0  0
 38 39  2  0  0  0
 39 40  1  0  0  0
 40 41  2  0  0  0
 41 42  1  0  0  0
 42 43  2  0  0  0
 43 36  1  0  0  0
 36  1  1  0  0  0
  1  2  1  0  0  0
  2  3  1  0  0  0
  3  4  1  0  0  0
  4  5  1  0  0  0
  5  6  1  0  0  0
  4  7  1  0  0  0
  7  8  1  0  0  0
  8  9  2  0  0  0
  8 10  1  0  0  0
 10 11  1  0  0  0
 11 12  2  0  0  0
 10 13  1  0  0  0
 13 14  2  0  0  0
 14 15  1  0  0  0
 15 16  2  0  0  0
 16 17  1  0  0  0
 17 18  2  0  0  0
 16 19  1  0  0  0
 19 20  2  0  0  0
 20 21  1  0  0  0
 21 22  2  0  0  0
 22 23  1  0  0  0
 23 24  2  0  0  0
 24 25  1  0  0  0
 22 26  1  0  0  0
 26 27  1  0  0  0
 26 28  2  0  0  0
  7 30  1  0  0  0
 30 31  2  0  0  0
 31 32  1  0  0  0
 32 33  2  0  0  0
 33 34  1  0  0  0
 34 35  2  0  0  0
 43 38  1  0  0  0
  6  1  1  0  0  0
 18 13  1  0  0  0
 24 19  1  0  0  0
 35 30  1  0  0  0
 11  4  1  0  0  0
 27 29  1  0  0  0
M  END
> <minimizedAffinity>
19.10252

> <CNNscore>
0.3857828081

> <CNNaffinity>
7.4391393661

> <CNN_VS>
2.8698921204

> <CNNaffinity_variance>
1.0608512163

$$$$
[H]OC(=O)c1c([H])c([H])c(-c2c([H])c([H])c(N3C(=O)N(c4nc([H])c([H])c([H])n4)C4(C3=O)C([H])([H])C([H])([H])N(C([H])([H])c3nc([H])c([H])c([H])c3C([H])([H])[H])C([H])([H])C4([H])[H])c([H])c2[H])c(C([H])([H])[H])c1[H]


 43 48  0  0  0  0  0  0  0  0999 V2000
    7.2598   24.4993    2.5320 N   0  0  0  0  0  0  0  0  0  0  0  0
    8.2766   25.4952    2.4491 C   0  0  0  0  0  0  0  0  0  0  0  0
    9.6059   24.7776    2.6763 C   0  0  0  0  0  0  0  0  0  0  0  0
    9.8033   23.6626    1.6820 C   0  0  0  0  0  0  0  0  0  0  0  0
    8.5659   22.9062    1.3381 C   0  0  0  0  0  0  0  0  0  0  0  0
    7.2974   23.6894    1.3585 C   0  0  0  0  0  0  0  0  0  0  0  0
   10.7199   22.7145    2.3084 N   0  0  0  0  0  0  0  0  0  0  0  0
   12.0432   23.0710    1.9319 C   0  0  0  0  0  0  0  0  0  0  0  0
   13.0614   22.6613    2.5361 O   0  0  0  0  0  0  0  0  0  0  0  0
   11.9535   23.9324    0.8005 N   0  0  0  0  0  0  0  0  0  0  0  0
   10.5745   24.0950    0.4952 C   0  0  0  0  0  0  0  0  0  0  0  0
   10.0431   24.5199   -0.5625 O   0  0  0  0  0  0  0  0  0  0  0  0
   13.0395   24.5188    0.1077 C   0  0  0  0  0  0  0  0  0  0  0  0
   12.9914   24.7503   -1.2426 C   0  0  0  0  0  0  0  0  0  0  0  0
   14.0903   25.3240   -1.8429 C   0  0  0  0  0  0  0  0  0  0  0  0
   15.2356   25.6782   -1.1615 C   0  0  0  0  0  0  0  0  0  0  0  0
   15.2812   25.4453    0.1922 C   0  0  0  0  0  0  0  0  0  0  0  0
   14.1810   24.8713    0.7911 C   0  0  0  0  0  0  0  0  0  0  0  0
   16.3338   26.2890   -1.8787 C   0  0  0  0  0  0  0  0  0  0  0  0
   16.2875   27.6398   -2.2434 C   0  0  0  0  0  0  0  0  0  0  0  0
   17.3148   28.2588   -2.9155 C   0  0  0  0  0  0  0  0  0  0  0  0
   18.4244   27.5040   -3.2336 C   0  0  0  0  0  0  0  0  0  0  0  0
   18.4739   26.1593   -2.8724 C   0  0  0  0  0  0  0  0  0  0  0  0
   17.4363   25.5364   -2.1945 C   0  0  0  0  0  0  0  0  0  0  0  0
   17.5746   24.0757   -1.8571 C   0  0  0  0  0  0  0  0  0  0  0  0
   19.5169   28.1409   -3.9419 C   0  0  0  0  0  0  0  0  0  0  0  0
   19.3083   29.2957   -4.6538 O   0  0  0  0  0  0  0  0  0  0  0  0
   20.6517   27.6242   -3.8954 O   0  0  0  0  0  0  0  0  0  0  0  0
   19.5959   30.2177   -4.3605 H   0  0  0  0  0  0  0  0  0  0  0  0
   10.3265   21.6226    3.1525 C   0  0  0  0  0  0  0  0  0  0  0  0
   11.1362   20.5436    3.2748 N   0  0  0  0  0  0  0  0  0  0  0  0
   10.8363   19.4861    4.0445 C   0  0  0  0  0  0  0  0  0  0  0  0
    9.6471   19.5162    4.7347 C   0  0  0  0  0  0  0  0  0  0  0  0
    8.8014   20.5948    4.6341 C   0  0  0  0  0  0  0  0  0  0  0  0
    9.1736   21.6181    3.8405 N   0  0  0  0  0  0  0  0  0  0  0  0
    5.9810   24.9198    2.9786 C   0  0  0  0  0  0  0  0  0  0  0  0
    4.7132   27.4428    2.5817 C   0  0  0  0  0  0  0  0  0  0  0  0
    5.3380   27.1151    3.8842 C   0  0  0  0  0  0  0  0  0  0  0  0
    5.2847   28.0652    4.8856 C   0  0  0  0  0  0  0  0  0  0  0  0
    5.8629   27.7681    6.0988 C   0  0  0  0  0  0  0  0  0  0  0  0
    6.4654   26.5373    6.2514 C   0  0  0  0  0  0  0  0  0  0  0  0
    6.4990   25.6273    5.2449 N   0  0  0  0  0  0  0  0  0  0  0  0
    5.9437   25.8937    4.0568 C   0  0  0  0  0  0  0  0  0  0  0  0
 37 38  1  0  0  0
 38 39  2  0  0  0
 39 40  1  0  0  0
 40 41  2  0  0  0
 41 42  1  0  0  0
 42 43  2  0  0  0
 43 36  1  0  0  0
 36  1  1  0  0  0
  1  2  1  0  0  0
  2  3  1  0  0  0
  3  4  1  0  0  0
  4  5  1  0  0  0
  5  6  1  0  0  0
  4  7  1  0  0  0
  7  8  1  0  0  0
  8  9  2  0  0  0
  8 10  1  0  0  0
 10 11  1  0  0  0
 11 12  2  0  0  0
 10 13  1  0  0  0
 13 14  2  0  0  0
 14 15  1  0  0  0
 15 16  2  0  0  0
 16 17  1  0  0  0
 17 18  2  0  0  0
 16 19  1  0  0  0
 19 20  2  0  0  0
 20 21  1  0  0  0
 21 22  2  0  0  0
 22 23  1  0  0  0
 23 24  2  0  0  0
 24 25  1  0  0  0
 22 26  1  0  0  0
 26 27  1  0  0  0
 26 28  2  0  0  0
  7 30  1  0  0  0
 30 31  2  0  0  0
 31 32  1  0  0  0
 32 33  2  0  0  0
 33 34  1  0  0  0
 34 35  2  0  0  0
 43 38  1  0  0  0
  6  1  1  0  0  0
 18 13  1  0  0  0
 24 19  1  0  0  0
 35 30  1  0  0  0
 11  4  1  0  0  0
 27 29  1  0  0  0
M  END
> <minimizedAffinity>
10.68889

> <CNNscore>
0.3839796185

> <CNNaffinity>
7.0556097031

> <CNN_VS>
2.7092103958

> <CNNaffinity_variance>
0.9957672954

$$$$
[H]OC(=O)c1c([H])c([H])c(-c2c([H])c([H])c(N3C(=O)N(c4nc([H])c([H])c([H])n4)C4(C3=O)C([H])([H])C([H])([H])N(C([H])([H])c3nc([H])c([H])c([H])c3C([H])([H])[H])C([H])([H])C4([H])[H])c([H])c2[H])c(C([H])([H])[H])c1[H]


 43 48  0  0  0  0  0  0  0  0999 V2000
    7.2207   22.4128    1.9327 N   0  0  0  0  0  0  0  0  0  0  0  0
    7.7731   23.6588    1.5146 C   0  0  0  0  0  0  0  0  0  0  0  0
    9.2888   23.5300    1.6549 C   0  0  0  0  0  0  0  0  0  0  0  0
    9.8156   22.3649    0.8574 C   0  0  0  0  0  0  0  0  0  0  0  0
    8.9351   21.1623    0.8527 C   0  0  0  0  0  0  0  0  0  0  0  0
    7.4701   21.4278    0.9317 C   0  0  0  0  0  0  0  0  0  0  0  0
   11.0700   21.9700    1.4914 N   0  0  0  0  0  0  0  0  0  0  0  0
   12.1246   22.6786    0.8543 C   0  0  0  0  0  0  0  0  0  0  0  0
   13.2664   22.8034    1.3546 O   0  0  0  0  0  0  0  0  0  0  0  0
   11.6253   23.1748   -0.3845 N   0  0  0  0  0  0  0  0  0  0  0  0
   10.2683   22.7647   -0.4937 C   0  0  0  0  0  0  0  0  0  0  0  0
    9.5335   22.7247   -1.5135 O   0  0  0  0  0  0  0  0  0  0  0  0
   12.3488   23.9369   -1.3326 C   0  0  0  0  0  0  0  0  0  0  0  0
   11.7549   24.9394   -2.0548 C   0  0  0  0  0  0  0  0  0  0  0  0
   12.5276   25.6342   -2.9588 C   0  0  0  0  0  0  0  0  0  0  0  0
   13.8646   25.3777   -3.1777 C   0  0  0  0  0  0  0  0  0  0  0  0
   14.4577   24.3724   -2.4522 C   0  0  0  0  0  0  0  0  0  0  0  0
   13.6833   23.6782   -1.5483 C   0  0  0  0  0  0  0  0  0  0  0  0
   14.5967   26.1725   -4.1400 C   0  0  0  0  0  0  0  0  0  0  0  0
   14.1198   26.3333   -5.4463 C   0  0  0  0  0  0  0  0  0  0  0  0
   14.7806   27.0889   -6.3858 C   0  0  0  0  0  0  0  0  0  0  0  0
   15.9559   27.7038   -6.0082 C   0  0  0  0  0  0  0  0  0  0  0  0
   16.4337   27.5458   -4.7090 C   0  0  0  0  0  0  0  0  0  0  0  0
   15.7657   26.7828   -3.7624 C   0  0  0  0  0  0  0  0  0  0  0  0
   16.3653   26.6600   -2.3870 C   0  0  0  0  0  0  0  0  0  0  0  0
   16.6654   28.5044   -6.9862 C   0  0  0  0  0  0  0  0  0  0  0  0
   16.6619   29.8744   -6.9019 O   0  0  0  0  0  0  0  0  0  0  0  0
   17.2806   27.9301   -7.9074 O   0  0  0  0  0  0  0  0  0  0  0  0
   17.4379   30.4379   -6.5869 H   0  0  0  0  0  0  0  0  0  0  0  0
   11.1888   21.0287    2.5681 C   0  0  0  0  0  0  0  0  0  0  0  0
   12.0988   20.0286    2.4876 N   0  0  0  0  0  0  0  0  0  0  0  0
   12.2677   19.1124    3.4534 C   0  0  0  0  0  0  0  0  0  0  0  0
   11.4710   19.2084    4.5703 C   0  0  0  0  0  0  0  0  0  0  0  0
   10.5374   20.2103    4.6855 C   0  0  0  0  0  0  0  0  0  0  0  0
   10.4282   21.0922    3.6726 N   0  0  0  0  0  0  0  0  0  0  0  0
    5.9177   22.4410    2.4921 C   0  0  0  0  0  0  0  0  0  0  0  0
    7.1450   23.6924    4.7410 C   0  0  0  0  0  0  0  0  0  0  0  0
    6.3395   22.4617    4.9158 C   0  0  0  0  0  0  0  0  0  0  0  0
    6.2075   21.9494    6.1920 C   0  0  0  0  0  0  0  0  0  0  0  0
    5.4604   20.8061    6.3625 C   0  0  0  0  0  0  0  0  0  0  0  0
    4.8825   20.2314    5.2503 C   0  0  0  0  0  0  0  0  0  0  0  0
    5.0333   20.7625    4.0104 N   0  0  0  0  0  0  0  0  0  0  0  0
    5.7550   21.8732    3.8200 C   0  0  0  0  0  0  0  0  0  0  0  0
 37 38  1  0  0  0
 38 39  2  0  0  0
 39 40  1  0  0  0
 40 41  2  0  0  0
 41 42  1  0  0  0
 42 43  2  0  0  0
 43 36  1  0  0  0
 36  1  1  0  0  0
  1  2  1  0  0  0
  2  3  1  0  0  0
  3  4  1  0  0  0
  4  5  1  0  0  0
  5  6  1  0  0  0
  4  7  1  0  0  0
  7  8  1  0  0  0
  8  9  2  0  0  0
  8 10  1  0  0  0
 10 11  1  0  0  0
 11 12  2  0  0  0
 10 13  1  0  0  0
 13 14  2  0  0  0
 14 15  1  0  0  0
 15 16  2  0  0  0
 16 17  1  0  0  0
 17 18  2  0  0  0
 16 19  1  0  0  0
 19 20  2  0  0  0
 20 21  1  0  0  0
 21 22  2  0  0  0
 22 23  1  0  0  0
 23 24  2  0  0  0
 24 25  1  0  0  0
 22 26  1  0  0  0
 26 27  1  0  0  0
 26 28  2  0  0  0
  7 30  1  0  0  0
 30 31  2  0  0  0
 31 32  1  0  0  0
 32 33  2  0  0  0
 33 34  1  0  0  0
 34 35  2  0  0  0
 43 38  1  0  0  0
  6  1  1  0  0  0
 18 13  1  0  0  0
 24 19  1  0  0  0
 35 30  1  0  0  0
 11  4  1  0  0  0
 27 29  1  0  0  0
M  END
> <minimizedAffinity>
-0.33354

> <CNNscore>
0.3483095169

> <CNNaffinity>
7.3135747910

> <CNN_VS>
2.5473875999

> <CNNaffinity_variance>
0.5011747479

$$$$
[H]OC(=O)c1c([H])c([H])c(-c2c([H])c([H])c(N3C(=O)N(c4nc([H])c([H])c([H])n4)C4(C3=O)C([H])([H])C([H])([H])N(C([H])([H])c3nc([H])c([H])c([H])c3C([H])([H])[H])C([H])([H])C4([H])[H])c([H])c2[H])c(C([H])([H])[H])c1[H]


 43 48  0  0  0  0  0  0  0  0999 V2000
   10.4002   23.7074    2.3921 N   0  0  0  0  0  0  0  0  0  0  0  0
   11.4861   24.5914    2.1241 C   0  0  0  0  0  0  0  0  0  0  0  0
   12.4487   23.8319    1.2129 C   0  0  0  0  0  0  0  0  0  0  0  0
   11.7593   23.3624   -0.0422 C   0  0  0  0  0  0  0  0  0  0  0  0
   10.3544   22.9038    0.1512 C   0  0  0  0  0  0  0  0  0  0  0  0
    9.5862   23.5947    1.2262 C   0  0  0  0  0  0  0  0  0  0  0  0
   12.5196   22.2111   -0.5193 N   0  0  0  0  0  0  0  0  0  0  0  0
   13.5057   22.6834   -1.4273 C   0  0  0  0  0  0  0  0  0  0  0  0
   14.5038   22.0070   -1.7680 O   0  0  0  0  0  0  0  0  0  0  0  0
   13.1292   23.9976   -1.8291 N   0  0  0  0  0  0  0  0  0  0  0  0
   11.9149   24.3171   -1.1622 C   0  0  0  0  0  0  0  0  0  0  0  0
   11.0845   25.2250   -1.4225 O   0  0  0  0  0  0  0  0  0  0  0  0
   13.8357   24.8319   -2.7280 C   0  0  0  0  0  0  0  0  0  0  0  0
   13.3822   25.0666   -4.0002 C   0  0  0  0  0  0  0  0  0  0  0  0
   14.1281   25.8902   -4.8141 C   0  0  0  0  0  0  0  0  0  0  0  0
   15.3050   26.4913   -4.4207 C   0  0  0  0  0  0  0  0  0  0  0  0
   15.7574   26.2547   -3.1447 C   0  0  0  0  0  0  0  0  0  0  0  0
   15.0100   25.4305   -2.3318 C   0  0  0  0  0  0  0  0  0  0  0  0
   16.0112   27.3527   -5.3443 C   0  0  0  0  0  0  0  0  0  0  0  0
   15.6443   27.4086   -6.6941 C   0  0  0  0  0  0  0  0  0  0  0  0
   16.2833   28.2219   -7.5999 C   0  0  0  0  0  0  0  0  0  0  0  0
   17.3226   29.0047   -7.1425 C   0  0  0  0  0  0  0  0  0  0  0  0
   17.6907   28.9514   -5.7999 C   0  0  0  0  0  0  0  0  0  0  0  0
   17.0449   28.1300   -4.8874 C   0  0  0  0  0  0  0  0  0  0  0  0
   17.5210   28.1307   -3.4592 C   0  0  0  0  0  0  0  0  0  0  0  0
   18.0072   29.8682   -8.0840 C   0  0  0  0  0  0  0  0  0  0  0  0
   18.2996   29.4272   -9.3506 O   0  0  0  0  0  0  0  0  0  0  0  0
   18.3276   31.0200   -7.7269 O   0  0  0  0  0  0  0  0  0  0  0  0
   17.8101   29.7048  -10.1886 H   0  0  0  0  0  0  0  0  0  0  0  0
   12.2904   20.8507   -0.1241 C   0  0  0  0  0  0  0  0  0  0  0  0
   12.8911   19.8443   -0.8031 N   0  0  0  0  0  0  0  0  0  0  0  0
   12.7253   18.5495   -0.4922 C   0  0  0  0  0  0  0  0  0  0  0  0
   11.9034   18.2482    0.5685 C   0  0  0  0  0  0  0  0  0  0  0  0
   11.2779   19.2439    1.2798 C   0  0  0  0  0  0  0  0  0  0  0  0
   11.4950   20.5201    0.9058 N   0  0  0  0  0  0  0  0  0  0  0  0
    9.7265   23.8711    3.6294 C   0  0  0  0  0  0  0  0  0  0  0  0
    7.8552   21.8290    2.9523 C   0  0  0  0  0  0  0  0  0  0  0  0
    8.6989   21.7004    4.1630 C   0  0  0  0  0  0  0  0  0  0  0  0
    8.5467   20.5694    4.9416 C   0  0  0  0  0  0  0  0  0  0  0  0
    9.3272   20.4425    6.0681 C   0  0  0  0  0  0  0  0  0  0  0  0
   10.2206   21.4511    6.3609 C   0  0  0  0  0  0  0  0  0  0  0  0
   10.3437   22.5492    5.5727 N   0  0  0  0  0  0  0  0  0  0  0  0
    9.5957   22.6946    4.4726 C   0  0  0  0  0  0  0  0  0  0  0  0
 37 38  1  0  0  0
 38 39  2  0  0  0
 39 40  1  0  0  0
 40 41  2  0  0  0
 41 42  1  0  0  0
 42 43  2  0  0  0
 43 36  1  0  0  0
 36  1  1  0  0  0
  1  2  1  0  0  0
  2  3  1  0  0  0
  3  4  1  0  0  0
  4  5  1  0  0  0
  5  6  1  0  0  0
  4  7  1  0  0  0
  7  8  1  0  0  0
  8  9  2  0  0  0
  8 10  1  0  0  0
 10 11  1  0  0  0
 11 12  2  0  0  0
 10 13  1  0  0  0
 13 14  2  0  0  0
 14 15  1  0  0  0
 15 16  2  0  0  0
 16 17  1  0  0  0
 17 18  2  0  0  0
 16 19  1  0  0  0
 19 20  2  0  0  0
 20 21  1  0  0  0
 21 22  2  0  0  0
 22 23  1  0  0  0
 23 24  2  0  0  0
 24 25  1  0  0  0
 22 26  1  0  0  0
 26 27  1  0  0  0
 26 28  2  0  0  0
  7 30  1  0  0  0
 30 31  2  0  0  0
 31 32  1  0  0  0
 32 33  2  0  0  0
 33 34  1  0  0  0
 34 35  2  0  0  0
 43 38  1  0  0  0
  6  1  1  0  0  0
 18 13  1  0  0  0
 24 19  1  0  0  0
 35 30  1  0  0  0
 11  4  1  0  0  0
 27 29  1  0  0  0
M  END
> <minimizedAffinity>
34.78503

> <CNNscore>
0.3377971053

> <CNNaffinity>
7.0918030739

> <CNN_VS>
2.3955905437

> <CNNaffinity_variance>
0.1233545169

$$$$
[H]c1nc2nc(N([H])C([H])([H])C3([H])C([H])([H])C3([H])[H])c([H])c(-c3c([H])c([H])c(C#N)c([H])c3[H])n2n1


 23 26  0  0  0  0  0  0  0  0999 V2000
   13.5658   24.7531   -1.9322 C   0  0  0  0  0  0  0  0  0  0  0  0
   12.2200   24.5096   -1.7446 C   0  0  0  0  0  0  0  0  0  0  0  0
   11.6609   24.1142   -0.5341 C   0  0  0  0  0  0  0  0  0  0  0  0
   12.4926   23.9651    0.5039 N   0  0  0  0  0  0  0  0  0  0  0  0
   13.8076   24.1969    0.3440 C   0  0  0  0  0  0  0  0  0  0  0  0
   14.8440   24.1131    1.2206 N   0  0  0  0  0  0  0  0  0  0  0  0
   15.9914   24.4339    0.6081 C   0  0  0  0  0  0  0  0  0  0  0  0
   15.6384   24.7144   -0.6531 N   0  0  0  0  0  0  0  0  0  0  0  0
   14.3436   24.5826   -0.8421 N   0  0  0  0  0  0  0  0  0  0  0  0
   15.1663   25.7418   -5.7764 C   0  0  0  0  0  0  0  0  0  0  0  0
   14.2570   26.5787   -5.1830 C   0  0  0  0  0  0  0  0  0  0  0  0
   13.7079   26.2752   -3.9262 C   0  0  0  0  0  0  0  0  0  0  0  0
   14.0592   25.1371   -3.2494 C   0  0  0  0  0  0  0  0  0  0  0  0
   14.9888   24.3211   -3.8998 C   0  0  0  0  0  0  0  0  0  0  0  0
   15.5342   24.6033   -5.1277 C   0  0  0  0  0  0  0  0  0  0  0  0
   16.1163   26.4262   -8.0998 N   0  0  0  0  0  0  0  0  0  0  0  0
   15.6918   26.1125   -7.0688 C   0  0  0  0  0  0  0  0  0  0  0  0
   10.2528   23.8805   -0.4205 N   0  0  0  0  0  0  0  0  0  0  0  0
    9.5914   24.6081   -0.7286 H   0  0  0  0  0  0  0  0  0  0  0  0
    9.7617   22.6441    0.1179 C   0  0  0  0  0  0  0  0  0  0  0  0
   10.1742   21.5213   -0.8082 C   0  0  0  0  0  0  0  0  0  0  0  0
    9.1401   20.4192   -0.9171 C   0  0  0  0  0  0  0  0  0  0  0  0
   10.5220   20.1902   -0.2767 C   0  0  0  0  0  0  0  0  0  0  0  0
 16 17  3  0  0  0
 17 10  1  0  0  0
 10 11  2  0  0  0
 11 12  1  0  0  0
 12 13  2  0  0  0
 13 14  1  0  0  0
 14 15  2  0  0  0
 13  1  1  0  0  0
  1  2  2  0  0  0
  2  3  1  0  0  0
  3 18  1  0  0  0
 18 20  1  0  0  0
 20 21  1  0  0  0
 21 22  1  0  0  0
 22 23  1  0  0  0
  3  4  2  0  0  0
  4  5  1  0  0  0
  5  6  2  0  0  0
  6  7  1  0  0  0
  7  8  2  0  0  0
  8  9  1  0  0  0
 15 10  1  0  0  0
  9  1  1  0  0  0
 23 21  1  0  0  0
  9  5  1  0  0  0
 18 19  1  0  0  0
M  END
> <minimizedAffinity>
-8.20020

> <CNNscore>
0.8046188951

> <CNNaffinity>
7.1906700134

> <CNN_VS>
5.7857489586

> <CNNaffinity_variance>
0.1517671794

$$$$
[H]c1nc2nc(N([H])C([H])([H])C3([H])C([H])([H])C3([H])[H])c([H])c(-c3c([H])c([H])c(C#N)c([H])c3[H])n2n1


 23 26  0  0  0  0  0  0  0  0999 V2000
   12.7292   23.2792   -1.2712 C   0  0  0  0  0  0  0  0  0  0  0  0
   11.3607   23.1031   -1.3145 C   0  0  0  0  0  0  0  0  0  0  0  0
   10.6654   22.2015   -0.5157 C   0  0  0  0  0  0  0  0  0  0  0  0
   11.3820   21.4665    0.3431 N   0  0  0  0  0  0  0  0  0  0  0  0
   12.7165   21.6214    0.4022 C   0  0  0  0  0  0  0  0  0  0  0  0
   13.6558   21.0050    1.1685 N   0  0  0  0  0  0  0  0  0  0  0  0
   14.8730   21.4824    0.8769 C   0  0  0  0  0  0  0  0  0  0  0  0
   14.6610   22.3981   -0.0774 N   0  0  0  0  0  0  0  0  0  0  0  0
   13.3860   22.5044   -0.3820 N   0  0  0  0  0  0  0  0  0  0  0  0
   14.4300   26.1807   -3.9182 C   0  0  0  0  0  0  0  0  0  0  0  0
   15.0648   24.9808   -3.7264 C   0  0  0  0  0  0  0  0  0  0  0  0
   14.5350   24.0135   -2.8566 C   0  0  0  0  0  0  0  0  0  0  0  0
   13.3691   24.2316   -2.1709 C   0  0  0  0  0  0  0  0  0  0  0  0
   12.7647   25.4699   -2.4039 C   0  0  0  0  0  0  0  0  0  0  0  0
   13.2698   26.4257   -3.2501 C   0  0  0  0  0  0  0  0  0  0  0  0
   15.5059   27.9060   -5.5415 N   0  0  0  0  0  0  0  0  0  0  0  0
   15.0279   27.1309   -4.8255 C   0  0  0  0  0  0  0  0  0  0  0  0
    9.2428   22.0774   -0.6208 N   0  0  0  0  0  0  0  0  0  0  0  0
    8.7073   22.7952   -1.1304 H   0  0  0  0  0  0  0  0  0  0  0  0
    8.5636   20.9637   -0.0223 C   0  0  0  0  0  0  0  0  0  0  0  0
    8.5609   19.8177   -1.0097 C   0  0  0  0  0  0  0  0  0  0  0  0
    7.5250   19.9683   -2.1051 C   0  0  0  0  0  0  0  0  0  0  0  0
    7.4467   18.8521   -1.0466 C   0  0  0  0  0  0  0  0  0  0  0  0
 16 17  3  0  0  0
 17 10  1  0  0  0
 10 11  2  0  0  0
 11 12  1  0  0  0
 12 13  2  0  0  0
 13 14  1  0  0  0
 14 15  2  0  0  0
 13  1  1  0  0  0
  1  2  2  0  0  0
  2  3  1  0  0  0
  3 18  1  0  0  0
 18 20  1  0  0  0
 20 21  1  0  0  0
 21 22  1  0  0  0
 22 23  1  0  0  0
  3  4  2  0  0  0
  4  5  1  0  0  0
  5  6  2  0  0  0
  6  7  1  0  0  0
  7  8  2  0  0  0
  8  9  1  0  0  0
 15 10  1  0  0  0
  9  1  1  0  0  0
 23 21  1  0  0  0
  9  5  1  0  0  0
 18 19  1  0  0  0
M  END
> <minimizedAffinity>
-8.06220

> <CNNscore>
0.6563929319

> <CNNaffinity>
7.0577712059

> <CNN_VS>
4.6326713562

> <CNNaffinity_variance>
0.4862042069

$$$$
[H]c1nc2nc(N([H])C([H])([H])C3([H])C([H])([H])C3([H])[H])c([H])c(-c3c([H])c([H])c(C#N)c([H])c3[H])n2n1


 23 26  0  0  0  0  0  0  0  0999 V2000
   12.8830   23.9087   -0.6638 C   0  0  0  0  0  0  0  0  0  0  0  0
   11.8197   24.4658    0.0180 C   0  0  0  0  0  0  0  0  0  0  0  0
   11.2514   23.9133    1.1609 C   0  0  0  0  0  0  0  0  0  0  0  0
   11.7796   22.7706    1.6153 N   0  0  0  0  0  0  0  0  0  0  0  0
   12.8159   22.2101    0.9669 C   0  0  0  0  0  0  0  0  0  0  0  0
   13.5161   21.0709    1.2148 N   0  0  0  0  0  0  0  0  0  0  0  0
   14.4700   20.9066    0.2888 C   0  0  0  0  0  0  0  0  0  0  0  0
   14.3405   21.9620   -0.5258 N   0  0  0  0  0  0  0  0  0  0  0  0
   13.3636   22.7574   -0.1482 N   0  0  0  0  0  0  0  0  0  0  0  0
   14.1992   25.9064   -4.2126 C   0  0  0  0  0  0  0  0  0  0  0  0
   14.8245   24.7551   -3.8091 C   0  0  0  0  0  0  0  0  0  0  0  0
   14.4203   24.0832   -2.6436 C   0  0  0  0  0  0  0  0  0  0  0  0
   13.3904   24.5509   -1.8705 C   0  0  0  0  0  0  0  0  0  0  0  0
   12.7894   25.7265   -2.3281 C   0  0  0  0  0  0  0  0  0  0  0  0
   13.1728   26.3951   -3.4642 C   0  0  0  0  0  0  0  0  0  0  0  0
   15.0401   27.0764   -6.3790 N   0  0  0  0  0  0  0  0  0  0  0  0
   14.6639   26.5474   -5.4197 C   0  0  0  0  0  0  0  0  0  0  0  0
   10.1479   24.5531    1.8113 N   0  0  0  0  0  0  0  0  0  0  0  0
    9.9164   25.5290    1.5753 H   0  0  0  0  0  0  0  0  0  0  0  0
    9.3674   23.8447    2.7854 C   0  0  0  0  0  0  0  0  0  0  0  0
    8.8503   24.8400    3.8005 C   0  0  0  0  0  0  0  0  0  0  0  0
    7.6706   25.6503    3.3032 C   0  0  0  0  0  0  0  0  0  0  0  0
    9.0392   26.2895    3.6042 C   0  0  0  0  0  0  0  0  0  0  0  0
 16 17  3  0  0  0
 17 10  1  0  0  0
 10 11  2  0  0  0
 11 12  1  0  0  0
 12 13  2  0  0  0
 13 14  1  0  0  0
 14 15  2  0  0  0
 13  1  1  0  0  0
  1  2  2  0  0  0
  2  3  1  0  0  0
  3 18  1  0  0  0
 18 20  1  0  0  0
 20 21  1  0  0  0
 21 22  1  0  0  0
 22 23  1  0  0  0
  3  4  2  0  0  0
  4  5  1  0  0  0
  5  6  2  0  0  0
  6  7  1  0  0  0
  7  8  2  0  0  0
  8  9  1  0  0  0
 15 10  1  0  0  0
  9  1  1  0  0  0
 23 21  1  0  0  0
  9  5  1  0  0  0
 18 19  1  0  0  0
M  END
> <minimizedAffinity>
-8.75582

> <CNNscore>
0.6288889647

> <CNNaffinity>
6.6624498367

> <CNN_VS>
4.1899414062

> <CNNaffinity_variance>
0.1849519014

$$$$
[H]c1nc2nc(N([H])C([H])([H])C3([H])C([H])([H])C3([H])[H])c([H])c(-c3c([H])c([H])c(C#N)c([H])c3[H])n2n1


 23 26  0  0  0  0  0  0  0  0999 V2000
   13.2337   23.9079   -1.1404 C   0  0  0  0  0  0  0  0  0  0  0  0
   12.2602   24.5820   -0.4308 C   0  0  0  0  0  0  0  0  0  0  0  0
   11.6472   24.0863    0.7151 C   0  0  0  0  0  0  0  0  0  0  0  0
   12.0366   22.8796    1.1436 N   0  0  0  0  0  0  0  0  0  0  0  0
   12.9835   22.2050    0.4678 C   0  0  0  0  0  0  0  0  0  0  0  0
   13.5404   20.9837    0.6866 N   0  0  0  0  0  0  0  0  0  0  0  0
   14.4502   20.7168   -0.2598 C   0  0  0  0  0  0  0  0  0  0  0  0
   14.4393   21.7930   -1.0571 N   0  0  0  0  0  0  0  0  0  0  0  0
   13.5759   22.6976   -0.6500 N   0  0  0  0  0  0  0  0  0  0  0  0
   14.7172   25.7695   -4.6972 C   0  0  0  0  0  0  0  0  0  0  0  0
   15.2809   24.6003   -4.2563 C   0  0  0  0  0  0  0  0  0  0  0  0
   14.8209   23.9718   -3.0872 C   0  0  0  0  0  0  0  0  0  0  0  0
   13.7963   24.5012   -2.3477 C   0  0  0  0  0  0  0  0  0  0  0  0
   13.2591   25.6926   -2.8426 C   0  0  0  0  0  0  0  0  0  0  0  0
   13.6975   26.3192   -3.9828 C   0  0  0  0  0  0  0  0  0  0  0  0
   15.6507   26.8253   -6.8843 N   0  0  0  0  0  0  0  0  0  0  0  0
   15.2371   26.3635   -5.9058 C   0  0  0  0  0  0  0  0  0  0  0  0
   10.6436   24.8479    1.3953 N   0  0  0  0  0  0  0  0  0  0  0  0
   10.4851   25.8306    1.1289 H   0  0  0  0  0  0  0  0  0  0  0  0
    9.8620   24.2516    2.4410 C   0  0  0  0  0  0  0  0  0  0  0  0
    8.4406   24.0962    1.9472 C   0  0  0  0  0  0  0  0  0  0  0  0
    7.8447   22.7353    2.2446 C   0  0  0  0  0  0  0  0  0  0  0  0
    8.1268   23.2137    0.8079 C   0  0  0  0  0  0  0  0  0  0  0  0
 16 17  3  0  0  0
 17 10  1  0  0  0
 10 11  2  0  0  0
 11 12  1  0  0  0
 12 13  2  0  0  0
 13 14  1  0  0  0
 14 15  2  0  0  0
 13  1  1  0  0  0
  1  2  2  0  0  0
  2  3  1  0  0  0
  3 18  1  0  0  0
 18 20  1  0  0  0
 20 21  1  0  0  0
 21 22  1  0  0  0
 22 23  1  0  0  0
  3  4  2  0  0  0
  4  5  1  0  0  0
  5  6  2  0  0  0
  6  7  1  0  0  0
  7  8  2  0  0  0
  8  9  1  0  0  0
 15 10  1  0  0  0
  9  1  1  0  0  0
 23 21  1  0  0  0
  9  5  1  0  0  0
 18 19  1  0  0  0
M  END
> <minimizedAffinity>
-8.48297

> <CNNscore>
0.5450159907

> <CNNaffinity>
6.7760114670

> <CNN_VS>
3.6930346489

> <CNNaffinity_variance>
0.2922587991

$$$$
[H]c1nc2nc(N([H])C([H])([H])C3([H])C([H])([H])C3([H])[H])c([H])c(-c3c([H])c([H])c(C#N)c([H])c3[H])n2n1


 23 26  0  0  0  0  0  0  0  0999 V2000
   12.7994   23.2568   -1.1525 C   0  0  0  0  0  0  0  0  0  0  0  0
   11.4245   23.1597   -1.0759 C   0  0  0  0  0  0  0  0  0  0  0  0
   10.7507   22.3000   -0.2149 C   0  0  0  0  0  0  0  0  0  0  0  0
   11.4959   21.5254    0.5825 N   0  0  0  0  0  0  0  0  0  0  0  0
   12.8372   21.6032    0.5248 C   0  0  0  0  0  0  0  0  0  0  0  0
   13.8026   20.9342    1.2102 N   0  0  0  0  0  0  0  0  0  0  0  0
   15.0152   21.3406    0.8115 C   0  0  0  0  0  0  0  0  0  0  0  0
   14.7739   22.2665   -0.1258 N   0  0  0  0  0  0  0  0  0  0  0  0
   13.4855   22.4459   -0.3193 N   0  0  0  0  0  0  0  0  0  0  0  0
   14.4222   26.0465   -3.9634 C   0  0  0  0  0  0  0  0  0  0  0  0
   15.0482   24.8439   -3.7607 C   0  0  0  0  0  0  0  0  0  0  0  0
   14.5438   23.9128   -2.8377 C   0  0  0  0  0  0  0  0  0  0  0  0
   13.4123   24.1702   -2.1095 C   0  0  0  0  0  0  0  0  0  0  0  0
   12.8154   25.4096   -2.3559 C   0  0  0  0  0  0  0  0  0  0  0  0
   13.2959   26.3302   -3.2538 C   0  0  0  0  0  0  0  0  0  0  0  0
   15.4548   27.7008   -5.6857 N   0  0  0  0  0  0  0  0  0  0  0  0
   14.9927   26.9582   -4.9262 C   0  0  0  0  0  0  0  0  0  0  0  0
    9.3196   22.2579   -0.1955 N   0  0  0  0  0  0  0  0  0  0  0  0
    8.7920   22.5597   -1.0276 H   0  0  0  0  0  0  0  0  0  0  0  0
    8.6210   21.8000    0.9715 C   0  0  0  0  0  0  0  0  0  0  0  0
    7.7284   22.9174    1.4645 C   0  0  0  0  0  0  0  0  0  0  0  0
    8.4902   24.1622    1.8718 C   0  0  0  0  0  0  0  0  0  0  0  0
    7.7139   23.3034    2.8879 C   0  0  0  0  0  0  0  0  0  0  0  0
 16 17  3  0  0  0
 17 10  1  0  0  0
 10 11  2  0  0  0
 11 12  1  0  0  0
 12 13  2  0  0  0
 13 14  1  0  0  0
 14 15  2  0  0  0
 13  1  1  0  0  0
  1  2  2  0  0  0
  2  3  1  0  0  0
  3 18  1  0  0  0
 18 20  1  0  0  0
 20 21  1  0  0  0
 21 22  1  0  0  0
 22 23  1  0  0  0
  3  4  2  0  0  0
  4  5  1  0  0  0
  5  6  2  0  0  0
  6  7  1  0  0  0
  7  8  2  0  0  0
  8  9  1  0  0  0
 15 10  1  0  0  0
  9  1  1  0  0  0
 23 21  1  0  0  0
  9  5  1  0  0  0
 18 19  1  0  0  0
M  END
> <minimizedAffinity>
-7.86972

> <CNNscore>
0.5331649780

> <CNNaffinity>
6.8895888329

> <CNN_VS>
3.6732873917

> <CNNaffinity_variance>
0.3881462514

$$$$
[H]c1nc2nc(N([H])C([H])([H])C3([H])C([H])([H])C3([H])[H])c([H])c(-c3c([H])c([H])c(C#N)c([H])c3[H])n2n1


 23 26  0  0  0  0  0  0  0  0999 V2000
   14.3112   25.7555   -4.3767 C   0  0  0  0  0  0  0  0  0  0  0  0
   13.5444   26.8721   -4.1107 C   0  0  0  0  0  0  0  0  0  0  0  0
   12.7582   27.0247   -2.9736 C   0  0  0  0  0  0  0  0  0  0  0  0
   12.7560   26.0177   -2.0920 N   0  0  0  0  0  0  0  0  0  0  0  0
   13.4956   24.9202   -2.3307 C   0  0  0  0  0  0  0  0  0  0  0  0
   13.6593   23.7776   -1.6115 N   0  0  0  0  0  0  0  0  0  0  0  0
   14.4959   22.9485   -2.2495 C   0  0  0  0  0  0  0  0  0  0  0  0
   14.8393   23.6027   -3.3666 N   0  0  0  0  0  0  0  0  0  0  0  0
   14.2598   24.7808   -3.4441 N   0  0  0  0  0  0  0  0  0  0  0  0
   16.6304   25.3403   -7.9497 C   0  0  0  0  0  0  0  0  0  0  0  0
   16.1898   26.5804   -7.5656 C   0  0  0  0  0  0  0  0  0  0  0  0
   15.4191   26.7456   -6.4029 C   0  0  0  0  0  0  0  0  0  0  0  0
   15.0807   25.6788   -5.6127 C   0  0  0  0  0  0  0  0  0  0  0  0
   15.5558   24.4397   -6.0509 C   0  0  0  0  0  0  0  0  0  0  0  0
   16.3095   24.2615   -7.1844 C   0  0  0  0  0  0  0  0  0  0  0  0
   18.0356   25.1555  -10.1316 N   0  0  0  0  0  0  0  0  0  0  0  0
   17.4181   25.2400   -9.1552 C   0  0  0  0  0  0  0  0  0  0  0  0
   11.9897   28.2156   -2.7703 N   0  0  0  0  0  0  0  0  0  0  0  0
   11.6225   28.4282   -1.8313 H   0  0  0  0  0  0  0  0  0  0  0  0
   11.7300   29.1092   -3.8629 C   0  0  0  0  0  0  0  0  0  0  0  0
   11.5130   30.4982   -3.3043 C   0  0  0  0  0  0  0  0  0  0  0  0
   10.6943   31.3922   -4.2132 C   0  0  0  0  0  0  0  0  0  0  0  0
   12.1780   31.6691   -3.9060 C   0  0  0  0  0  0  0  0  0  0  0  0
 16 17  3  0  0  0
 17 10  1  0  0  0
 10 11  2  0  0  0
 11 12  1  0  0  0
 12 13  2  0  0  0
 13 14  1  0  0  0
 14 15  2  0  0  0
 13  1  1  0  0  0
  1  2  2  0  0  0
  2  3  1  0  0  0
  3 18  1  0  0  0
 18 20  1  0  0  0
 20 21  1  0  0  0
 21 22  1  0  0  0
 22 23  1  0  0  0
  3  4  2  0  0  0
  4  5  1  0  0  0
  5  6  2  0  0  0
  6  7  1  0  0  0
  7  8  2  0  0  0
  8  9  1  0  0  0
 15 10  1  0  0  0
  9  1  1  0  0  0
 23 21  1  0  0  0
  9  5  1  0  0  0
 18 19  1  0  0  0
M  END
> <minimizedAffinity>
14.55108

> <CNNscore>
0.4959228039

> <CNNaffinity>
5.9702057838

> <CNN_VS>
2.9607613087

> <CNNaffinity_variance>
0.8827401996

$$$$
[H]c1nc2nc(N([H])C([H])([H])C3([H])C([H])([H])C3([H])[H])c([H])c(-c3c([H])c([H])c(C#N)c([H])c3[H])n2n1


 23 26  0  0  0  0  0  0  0  0999 V2000
   15.1983   25.6411   -4.2327 C   0  0  0  0  0  0  0  0  0  0  0  0
   15.6925   26.7867   -3.6418 C   0  0  0  0  0  0  0  0  0  0  0  0
   16.2430   27.8519   -4.3466 C   0  0  0  0  0  0  0  0  0  0  0  0
   16.2891   27.7443   -5.6799 N   0  0  0  0  0  0  0  0  0  0  0  0
   15.8134   26.6371   -6.2769 C   0  0  0  0  0  0  0  0  0  0  0  0
   15.7500   26.2849   -7.5889 N   0  0  0  0  0  0  0  0  0  0  0  0
   15.1951   25.0721   -7.7133 C   0  0  0  0  0  0  0  0  0  0  0  0
   14.9214   24.6914   -6.4586 N   0  0  0  0  0  0  0  0  0  0  0  0
   15.2779   25.6025   -5.5798 N   0  0  0  0  0  0  0  0  0  0  0  0
   13.7365   22.3509   -1.9187 C   0  0  0  0  0  0  0  0  0  0  0  0
   13.1479   23.5829   -1.7958 C   0  0  0  0  0  0  0  0  0  0  0  0
   13.6125   24.6830   -2.5355 C   0  0  0  0  0  0  0  0  0  0  0  0
   14.6658   24.5663   -3.4038 C   0  0  0  0  0  0  0  0  0  0  0  0
   15.2273   23.2895   -3.4897 C   0  0  0  0  0  0  0  0  0  0  0  0
   14.7854   22.2047   -2.7737 C   0  0  0  0  0  0  0  0  0  0  0  0
   12.7723   20.3959   -0.4983 N   0  0  0  0  0  0  0  0  0  0  0  0
   13.2105   21.2625   -1.1297 C   0  0  0  0  0  0  0  0  0  0  0  0
   16.7351   29.0074   -3.6591 N   0  0  0  0  0  0  0  0  0  0  0  0
   16.0877   29.5747   -3.0928 H   0  0  0  0  0  0  0  0  0  0  0  0
   18.1187   29.3766   -3.7550 C   0  0  0  0  0  0  0  0  0  0  0  0
   18.9141   28.1535   -4.1546 C   0  0  0  0  0  0  0  0  0  0  0  0
   19.3896   27.3317   -2.9738 C   0  0  0  0  0  0  0  0  0  0  0  0
   20.3653   28.0781   -3.9029 C   0  0  0  0  0  0  0  0  0  0  0  0
 16 17  3  0  0  0
 17 10  1  0  0  0
 10 11  2  0  0  0
 11 12  1  0  0  0
 12 13  2  0  0  0
 13 14  1  0  0  0
 14 15  2  0  0  0
 13  1  1  0  0  0
  1  2  2  0  0  0
  2  3  1  0  0  0
  3 18  1  0  0  0
 18 20  1  0  0  0
 20 21  1  0  0  0
 21 22  1  0  0  0
 22 23  1  0  0  0
  3  4  2  0  0  0
  4  5  1  0  0  0
  5  6  2  0  0  0
  6  7  1  0  0  0
  7  8  2  0  0  0
  8  9  1  0  0  0
 15 10  1  0  0  0
  9  1  1  0  0  0
 23 21  1  0  0  0
  9  5  1  0  0  0
 18 19  1  0  0  0
M  END
> <minimizedAffinity>
1.35526

> <CNNscore>
0.4836555123

> <CNNaffinity>
6.4930953979

> <CNN_VS>
3.1404213905

> <CNNaffinity_variance>
0.4455793798

$$$$
[H]c1nc2nc(N([H])C([H])([H])C3([H])C([H])([H])C3([H])[H])c([H])c(-c3c([H])c([H])c(C#N)c([H])c3[H])n2n1


 23 26  0  0  0  0  0  0  0  0999 V2000
   12.5473   23.4577   -1.0601 C   0  0  0  0  0  0  0  0  0  0  0  0
   11.1796   23.4034   -0.8810 C   0  0  0  0  0  0  0  0  0  0  0  0
   10.5443   22.5511    0.0159 C   0  0  0  0  0  0  0  0  0  0  0  0
   11.3212   21.7396    0.7432 N   0  0  0  0  0  0  0  0  0  0  0  0
   12.6562   21.7754    0.5852 C   0  0  0  0  0  0  0  0  0  0  0  0
   13.6478   21.0642    1.1856 N   0  0  0  0  0  0  0  0  0  0  0  0
   14.8397   21.4384    0.7021 C   0  0  0  0  0  0  0  0  0  0  0  0
   14.5595   22.3874   -0.2006 N   0  0  0  0  0  0  0  0  0  0  0  0
   13.2668   22.6112   -0.2933 N   0  0  0  0  0  0  0  0  0  0  0  0
   14.3905   26.0138   -3.9560 C   0  0  0  0  0  0  0  0  0  0  0  0
   13.2645   26.4345   -3.2968 C   0  0  0  0  0  0  0  0  0  0  0  0
   12.6328   25.6133   -2.3482 C   0  0  0  0  0  0  0  0  0  0  0  0
   13.1163   24.3672   -2.0474 C   0  0  0  0  0  0  0  0  0  0  0  0
   14.2650   23.9898   -2.7481 C   0  0  0  0  0  0  0  0  0  0  0  0
   14.8938   24.7801   -3.6781 C   0  0  0  0  0  0  0  0  0  0  0  0
   15.4858   27.6126   -5.6919 N   0  0  0  0  0  0  0  0  0  0  0  0
   14.9902   26.9065   -4.9189 C   0  0  0  0  0  0  0  0  0  0  0  0
    9.1181   22.5546    0.1431 N   0  0  0  0  0  0  0  0  0  0  0  0
    8.5819   21.7203   -0.1363 H   0  0  0  0  0  0  0  0  0  0  0  0
    8.4362   23.7090    0.6551 C   0  0  0  0  0  0  0  0  0  0  0  0
    8.6893   23.7932    2.1442 C   0  0  0  0  0  0  0  0  0  0  0  0
    8.0134   24.9778    2.8043 C   0  0  0  0  0  0  0  0  0  0  0  0
    9.5457   24.8533    2.7083 C   0  0  0  0  0  0  0  0  0  0  0  0
 16 17  3  0  0  0
 17 10  1  0  0  0
 10 11  2  0  0  0
 11 12  1  0  0  0
 12 13  2  0  0  0
 13 14  1  0  0  0
 14 15  2  0  0  0
 13  1  1  0  0  0
  1  2  2  0  0  0
  2  3  1  0  0  0
  3 18  1  0  0  0
 18 20  1  0  0  0
 20 21  1  0  0  0
 21 22  1  0  0  0
 22 23  1  0  0  0
  3  4  2  0  0  0
  4  5  1  0  0  0
  5  6  2  0  0  0
  6  7  1  0  0  0
  7  8  2  0  0  0
  8  9  1  0  0  0
 15 10  1  0  0  0
  9  1  1  0  0  0
 23 21  1  0  0  0
  9  5  1  0  0  0
 18 19  1  0  0  0
M  END
> <minimizedAffinity>
-8.29564

> <CNNscore>
0.4782865345

> <CNNaffinity>
6.8504157066

> <CNN_VS>
3.2764616013

> <CNNaffinity_variance>
0.2873980403

$$$$
[H]c1nc2nc(N([H])C([H])([H])C3([H])C([H])([H])C3([H])[H])c([H])c(-c3c([H])c([H])c(C#N)c([H])c3[H])n2n1


 23 26  0  0  0  0  0  0  0  0999 V2000
   13.4979   22.8927   -0.8899 C   0  0  0  0  0  0  0  0  0  0  0  0
   14.0037   22.3326   -2.0458 C   0  0  0  0  0  0  0  0  0  0  0  0
   15.2633   22.6163   -2.5628 C   0  0  0  0  0  0  0  0  0  0  0  0
   16.0199   23.4884   -1.8859 N   0  0  0  0  0  0  0  0  0  0  0  0
   15.5474   24.0465   -0.7573 C   0  0  0  0  0  0  0  0  0  0  0  0
   16.1032   24.9480    0.0958 N   0  0  0  0  0  0  0  0  0  0  0  0
   15.2522   25.2226    1.0932 C   0  0  0  0  0  0  0  0  0  0  0  0
   14.1710   24.4752    0.8352 N   0  0  0  0  0  0  0  0  0  0  0  0
   14.3161   23.7629   -0.2608 N   0  0  0  0  0  0  0  0  0  0  0  0
    9.5223   22.0884    0.4758 C   0  0  0  0  0  0  0  0  0  0  0  0
   10.3802   21.0477    0.2301 C   0  0  0  0  0  0  0  0  0  0  0  0
   11.6876   21.2811   -0.2277 C   0  0  0  0  0  0  0  0  0  0  0  0
   12.1522   22.5516   -0.4444 C   0  0  0  0  0  0  0  0  0  0  0  0
   11.2367   23.5733   -0.1780 C   0  0  0  0  0  0  0  0  0  0  0  0
    9.9561   23.3619    0.2693 C   0  0  0  0  0  0  0  0  0  0  0  0
    7.1268   21.5441    1.3328 N   0  0  0  0  0  0  0  0  0  0  0  0
    8.1925   21.7794    0.9445 C   0  0  0  0  0  0  0  0  0  0  0  0
   15.7158   21.9928   -3.7698 N   0  0  0  0  0  0  0  0  0  0  0  0
   16.5684   21.4143   -3.7530 H   0  0  0  0  0  0  0  0  0  0  0  0
   14.9910   22.1693   -4.9958 C   0  0  0  0  0  0  0  0  0  0  0  0
   14.8147   20.8153   -5.6470 C   0  0  0  0  0  0  0  0  0  0  0  0
   13.4396   20.6108   -6.2496 C   0  0  0  0  0  0  0  0  0  0  0  0
   13.9394   19.7929   -5.0439 C   0  0  0  0  0  0  0  0  0  0  0  0
 16 17  3  0  0  0
 17 10  1  0  0  0
 10 11  2  0  0  0
 11 12  1  0  0  0
 12 13  2  0  0  0
 13 14  1  0  0  0
 14 15  2  0  0  0
 13  1  1  0  0  0
  1  2  2  0  0  0
  2  3  1  0  0  0
  3 18  1  0  0  0
 18 20  1  0  0  0
 20 21  1  0  0  0
 21 22  1  0  0  0
 22 23  1  0  0  0
  3  4  2  0  0  0
  4  5  1  0  0  0
  5  6  2  0  0  0
  6  7  1  0  0  0
  7  8  2  0  0  0
  8  9  1  0  0  0
 15 10  1  0  0  0
  9  1  1  0  0  0
 23 21  1  0  0  0
  9  5  1  0  0  0
 18 19  1  0  0  0
M  END
> <minimizedAffinity>
5.21309

> <CNNscore>
0.4367372394

> <CNNaffinity>
6.6001653671

> <CNN_VS>
2.8825380802

> <CNNaffinity_variance>
1.4448424578

$$$$
[H]c1nc2c([H])c(N([H])C(=O)C([H])([H])N3C([H])([H])C([H])([H])C3([H])[H])c([H])c(-c3c([H])c([H])c(C#N)c([H])c3[H])n2n1


 26 29  0  0  0  0  0  0  0  0999 V2000
   11.8455   24.1099   -0.4745 C   0  0  0  0  0  0  0  0  0  0  0  0
   12.3918   24.4198   -1.7249 C   0  0  0  0  0  0  0  0  0  0  0  0
   13.7406   24.6408   -1.8841 C   0  0  0  0  0  0  0  0  0  0  0  0
   14.5878   24.5660   -0.8340 N   0  0  0  0  0  0  0  0  0  0  0  0
   15.9055   24.7329   -0.6849 N   0  0  0  0  0  0  0  0  0  0  0  0
   16.2536   24.5507    0.5837 C   0  0  0  0  0  0  0  0  0  0  0  0
   15.1254   24.2621    1.2486 N   0  0  0  0  0  0  0  0  0  0  0  0
   14.0987   24.2746    0.3595 C   0  0  0  0  0  0  0  0  0  0  0  0
   12.7347   24.0424    0.5666 C   0  0  0  0  0  0  0  0  0  0  0  0
   14.2144   24.9859   -3.2259 C   0  0  0  0  0  0  0  0  0  0  0  0
   15.0694   24.1568   -3.9001 C   0  0  0  0  0  0  0  0  0  0  0  0
   15.5328   24.5075   -5.1765 C   0  0  0  0  0  0  0  0  0  0  0  0
   15.1289   25.6980   -5.7686 C   0  0  0  0  0  0  0  0  0  0  0  0
   14.2686   26.5357   -5.0953 C   0  0  0  0  0  0  0  0  0  0  0  0
   13.8266   26.1701   -3.8417 C   0  0  0  0  0  0  0  0  0  0  0  0
   15.6361   26.0101   -7.0836 C   0  0  0  0  0  0  0  0  0  0  0  0
   16.0242   26.2590   -8.1452 N   0  0  0  0  0  0  0  0  0  0  0  0
   10.1425   23.5488    1.8954 O   0  0  0  0  0  0  0  0  0  0  0  0
    9.6794   23.6293    0.7447 C   0  0  0  0  0  0  0  0  0  0  0  0
   10.4625   23.8927   -0.3841 N   0  0  0  0  0  0  0  0  0  0  0  0
    9.9088   23.9281   -1.3061 H   0  0  0  0  0  0  0  0  0  0  0  0
    8.2216   23.4314    0.5952 C   0  0  0  0  0  0  0  0  0  0  0  0
    7.8041   22.0884    0.8764 N   0  0  0  0  0  0  0  0  0  0  0  0
    8.5540   21.0250    0.2824 C   0  0  0  0  0  0  0  0  0  0  0  0
    7.3102   20.5717   -0.4697 C   0  0  0  0  0  0  0  0  0  0  0  0
    6.5831   21.6495    0.3055 C   0  0  0  0  0  0  0  0  0  0  0  0
 18 19  2  0  0  0
 19 22  1  0  0  0
 22 23  1  0  0  0
 23 24  1  0  0  0
 24 25  1  0  0  0
 25 26  1  0  0  0
 19 20  1  0  0  0
 20  1  1  0  0  0
  1  2  1  0  0  0
  2  3  2  0  0  0
  3 10  1  0  0  0
 10 11  2  0  0  0
 11 12  1  0  0  0
 12 13  2  0  0  0
 13 14  1  0  0  0
 14 15  2  0  0  0
 13 16  1  0  0  0
 16 17  3  0  0  0
  3  4  1  0  0  0
  4  5  1  0  0  0
  5  6  2  0  0  0
  6  7  1  0  0  0
  7  8  2  0  0  0
  8  9  1  0  0  0
 26 23  1  0  0  0
  9  1  2  0  0  0
 15 10  1  0  0  0
  8  4  1  0  0  0
 20 21  1  0  0  0
M  END
> <minimizedAffinity>
-8.29988

> <CNNscore>
0.7858704329

> <CNNaffinity>
7.2480063438

> <CNN_VS>
5.6959939003

> <CNNaffinity_variance>
0.1953294873

$$$$
[H]c1nc2c([H])c(N([H])C(=O)C([H])([H])N3C([H])([H])C([H])([H])C3([H])[H])c([H])c(-c3c([H])c([H])c(C#N)c([H])c3[H])n2n1


 26 29  0  0  0  0  0  0  0  0999 V2000
   11.5735   22.2444   -0.2482 C   0  0  0  0  0  0  0  0  0  0  0  0
   12.1274   23.1805   -1.1285 C   0  0  0  0  0  0  0  0  0  0  0  0
   13.4820   23.4203   -1.1621 C   0  0  0  0  0  0  0  0  0  0  0  0
   14.3276   22.7574   -0.3427 N   0  0  0  0  0  0  0  0  0  0  0  0
   15.6498   22.7825   -0.1488 N   0  0  0  0  0  0  0  0  0  0  0  0
   15.9937   21.9214    0.8019 C   0  0  0  0  0  0  0  0  0  0  0  0
   14.8582   21.3405    1.2160 N   0  0  0  0  0  0  0  0  0  0  0  0
   13.8314   21.8668    0.4994 C   0  0  0  0  0  0  0  0  0  0  0  0
   12.4614   21.5916    0.5670 C   0  0  0  0  0  0  0  0  0  0  0  0
   13.9643   24.4380   -2.0979 C   0  0  0  0  0  0  0  0  0  0  0  0
   15.2817   24.4806   -2.4663 C   0  0  0  0  0  0  0  0  0  0  0  0
   15.7365   25.4725   -3.3474 C   0  0  0  0  0  0  0  0  0  0  0  0
   14.8555   26.4200   -3.8547 C   0  0  0  0  0  0  0  0  0  0  0  0
   13.5291   26.3817   -3.4879 C   0  0  0  0  0  0  0  0  0  0  0  0
   13.1053   25.3976   -2.6204 C   0  0  0  0  0  0  0  0  0  0  0  0
   15.3764   27.4186   -4.7576 C   0  0  0  0  0  0  0  0  0  0  0  0
   15.7754   28.2251   -5.4855 N   0  0  0  0  0  0  0  0  0  0  0  0
    9.9878   19.7437    0.0042 O   0  0  0  0  0  0  0  0  0  0  0  0
    9.4577   20.8576   -0.1486 C   0  0  0  0  0  0  0  0  0  0  0  0
   10.1848   22.0466   -0.2691 N   0  0  0  0  0  0  0  0  0  0  0  0
    9.5759   22.9245   -0.3977 H   0  0  0  0  0  0  0  0  0  0  0  0
    7.9804   20.8937   -0.2017 C   0  0  0  0  0  0  0  0  0  0  0  0
    7.4173   19.8064   -0.9485 N   0  0  0  0  0  0  0  0  0  0  0  0
    7.5615   19.8370   -2.3712 C   0  0  0  0  0  0  0  0  0  0  0  0
    6.0470   19.8813   -2.5211 C   0  0  0  0  0  0  0  0  0  0  0  0
    6.0039   19.7218   -1.0165 C   0  0  0  0  0  0  0  0  0  0  0  0
 18 19  2  0  0  0
 19 22  1  0  0  0
 22 23  1  0  0  0
 23 24  1  0  0  0
 24 25  1  0  0  0
 25 26  1  0  0  0
 19 20  1  0  0  0
 20  1  1  0  0  0
  1  2  1  0  0  0
  2  3  2  0  0  0
  3 10  1  0  0  0
 10 11  2  0  0  0
 11 12  1  0  0  0
 12 13  2  0  0  0
 13 14  1  0  0  0
 14 15  2  0  0  0
 13 16  1  0  0  0
 16 17  3  0  0  0
  3  4  1  0  0  0
  4  5  1  0  0  0
  5  6  2  0  0  0
  6  7  1  0  0  0
  7  8  2  0  0  0
  8  9  1  0  0  0
 26 23  1  0  0  0
  9  1  2  0  0  0
 15 10  1  0  0  0
  8  4  1  0  0  0
 20 21  1  0  0  0
M  END
> <minimizedAffinity>
-7.74002

> <CNNscore>
0.6586026549

> <CNNaffinity>
7.1912474632

> <CNN_VS>
4.7361745834

> <CNNaffinity_variance>
0.2888208926

$$$$
[H]c1nc2c([H])c(N([H])C(=O)C([H])([H])N3C([H])([H])C([H])([H])C3([H])[H])c([H])c(-c3c([H])c([H])c(C#N)c([H])c3[H])n2n1


 26 29  0  0  0  0  0  0  0  0999 V2000
   10.7473   22.0670   -0.3616 C   0  0  0  0  0  0  0  0  0  0  0  0
   11.3947   22.9602   -1.2225 C   0  0  0  0  0  0  0  0  0  0  0  0
   12.7646   23.0898   -1.2245 C   0  0  0  0  0  0  0  0  0  0  0  0
   13.5353   22.3562   -0.3917 N   0  0  0  0  0  0  0  0  0  0  0  0
   14.8505   22.2732   -0.1685 N   0  0  0  0  0  0  0  0  0  0  0  0
   15.1022   21.3817    0.7831 C   0  0  0  0  0  0  0  0  0  0  0  0
   13.9145   20.8923    1.1677 N   0  0  0  0  0  0  0  0  0  0  0  0
   12.9499   21.5039    0.4327 C   0  0  0  0  0  0  0  0  0  0  0  0
   11.5610   21.3400    0.4681 C   0  0  0  0  0  0  0  0  0  0  0  0
   13.3485   24.0705   -2.1419 C   0  0  0  0  0  0  0  0  0  0  0  0
   12.7838   25.3077   -2.2944 C   0  0  0  0  0  0  0  0  0  0  0  0
   13.3397   26.2317   -3.1913 C   0  0  0  0  0  0  0  0  0  0  0  0
   14.4678   25.9009   -3.9323 C   0  0  0  0  0  0  0  0  0  0  0  0
   15.0403   24.6578   -3.7827 C   0  0  0  0  0  0  0  0  0  0  0  0
   14.4761   23.7662   -2.8954 C   0  0  0  0  0  0  0  0  0  0  0  0
   14.9988   26.8891   -4.8408 C   0  0  0  0  0  0  0  0  0  0  0  0
   15.4419   27.6807   -5.5595 N   0  0  0  0  0  0  0  0  0  0  0  0
    8.8065   21.0890    1.6653 O   0  0  0  0  0  0  0  0  0  0  0  0
    8.4517   21.5171    0.5535 C   0  0  0  0  0  0  0  0  0  0  0  0
    9.3481   21.9824   -0.4145 N   0  0  0  0  0  0  0  0  0  0  0  0
    8.8800   22.3170   -1.3239 H   0  0  0  0  0  0  0  0  0  0  0  0
    7.0003   21.5218    0.2707 C   0  0  0  0  0  0  0  0  0  0  0  0
    6.5523   20.3318   -0.3927 N   0  0  0  0  0  0  0  0  0  0  0  0
    7.5483   19.3979   -0.8193 C   0  0  0  0  0  0  0  0  0  0  0  0
    7.1125   19.5974   -2.2645 C   0  0  0  0  0  0  0  0  0  0  0  0
    6.0153   20.4722   -1.6970 C   0  0  0  0  0  0  0  0  0  0  0  0
 18 19  2  0  0  0
 19 22  1  0  0  0
 22 23  1  0  0  0
 23 24  1  0  0  0
 24 25  1  0  0  0
 25 26  1  0  0  0
 19 20  1  0  0  0
 20  1  1  0  0  0
  1  2  1  0  0  0
  2  3  2  0  0  0
  3 10  1  0  0  0
 10 11  2  0  0  0
 11 12  1  0  0  0
 12 13  2  0  0  0
 13 14  1  0  0  0
 14 15  2  0  0  0
 13 16  1  0  0  0
 16 17  3  0  0  0
  3  4  1  0  0  0
  4  5  1  0  0  0
  5  6  2  0  0  0
  6  7  1  0  0  0
  7  8  2  0  0  0
  8  9  1  0  0  0
 26 23  1  0  0  0
  9  1  2  0  0  0
 15 10  1  0  0  0
  8  4  1  0  0  0
 20 21  1  0  0  0
M  END
> <minimizedAffinity>
-8.78369

> <CNNscore>
0.6573238373

> <CNNaffinity>
7.1501874924

> <CNN_VS>
4.6999888420

> <CNNaffinity_variance>
0.2738258541

$$$$
[H]c1nc2c([H])c(N([H])C(=O)C([H])([H])N3C([H])([H])C([H])([H])C3([H])[H])c([H])c(-c3c([H])c([H])c(C#N)c([H])c3[H])n2n1


 26 29  0  0  0  0  0  0  0  0999 V2000
   12.3132   27.5979   -3.5809 C   0  0  0  0  0  0  0  0  0  0  0  0
   13.1820   27.3004   -4.6367 C   0  0  0  0  0  0  0  0  0  0  0  0
   14.0175   26.2079   -4.5927 C   0  0  0  0  0  0  0  0  0  0  0  0
   14.0281   25.3813   -3.5240 N   0  0  0  0  0  0  0  0  0  0  0  0
   14.7145   24.2802   -3.2032 N   0  0  0  0  0  0  0  0  0  0  0  0
   14.3479   23.8400   -2.0051 C   0  0  0  0  0  0  0  0  0  0  0  0
   13.4071   24.6865   -1.5617 N   0  0  0  0  0  0  0  0  0  0  0  0
   13.2170   25.6384   -2.5117 C   0  0  0  0  0  0  0  0  0  0  0  0
   12.3514   26.7374   -2.5145 C   0  0  0  0  0  0  0  0  0  0  0  0
   14.9102   25.9945   -5.7337 C   0  0  0  0  0  0  0  0  0  0  0  0
   15.4784   27.0558   -6.3847 C   0  0  0  0  0  0  0  0  0  0  0  0
   16.3156   26.8404   -7.4891 C   0  0  0  0  0  0  0  0  0  0  0  0
   16.5765   25.5494   -7.9323 C   0  0  0  0  0  0  0  0  0  0  0  0
   16.0080   24.4780   -7.2809 C   0  0  0  0  0  0  0  0  0  0  0  0
   15.1883   24.7144   -6.1980 C   0  0  0  0  0  0  0  0  0  0  0  0
   17.4451   25.3844   -9.0734 C   0  0  0  0  0  0  0  0  0  0  0  0
   18.1319   25.2670   -9.9976 N   0  0  0  0  0  0  0  0  0  0  0  0
   10.1687   28.2161   -5.5431 O   0  0  0  0  0  0  0  0  0  0  0  0
   10.4803   28.9963   -4.6270 C   0  0  0  0  0  0  0  0  0  0  0  0
   11.4857   28.7251   -3.6929 N   0  0  0  0  0  0  0  0  0  0  0  0
   11.6331   29.5041   -2.9654 H   0  0  0  0  0  0  0  0  0  0  0  0
    9.7305   30.2683   -4.5479 C   0  0  0  0  0  0  0  0  0  0  0  0
    8.3893   30.1630   -5.0450 N   0  0  0  0  0  0  0  0  0  0  0  0
    7.3336   30.0717   -4.0842 C   0  0  0  0  0  0  0  0  0  0  0  0
    6.9599   28.7000   -4.6293 C   0  0  0  0  0  0  0  0  0  0  0  0
    8.0200   28.9509   -5.6803 C   0  0  0  0  0  0  0  0  0  0  0  0
 18 19  2  0  0  0
 19 22  1  0  0  0
 22 23  1  0  0  0
 23 24  1  0  0  0
 24 25  1  0  0  0
 25 26  1  0  0  0
 19 20  1  0  0  0
 20  1  1  0  0  0
  1  2  1  0  0  0
  2  3  2  0  0  0
  3 10  1  0  0  0
 10 11  2  0  0  0
 11 12  1  0  0  0
 12 13  2  0  0  0
 13 14  1  0  0  0
 14 15  2  0  0  0
 13 16  1  0  0  0
 16 17  3  0  0  0
  3  4  1  0  0  0
  4  5  1  0  0  0
  5  6  2  0  0  0
  6  7  1  0  0  0
  7  8  2  0  0  0
  8  9  1  0  0  0
 26 23  1  0  0  0
  9  1  2  0  0  0
 15 10  1  0  0  0
  8  4  1  0  0  0
 20 21  1  0  0  0
M  END
> <minimizedAffinity>
14.27869

> <CNNscore>
0.6529788971

> <CNNaffinity>
6.3161048889

> <CNN_VS>
4.1242833138

> <CNNaffinity_variance>
0.9922131300

$$$$
[H]c1nc2c([H])c(N([H])C(=O)C([H])([H])N3C([H])([H])C([H])([H])C3([H])[H])c([H])c(-c3c([H])c([H])c(C#N)c([H])c3[H])n2n1


 26 29  0  0  0  0  0  0  0  0999 V2000
   12.1150   23.4702   -0.4708 C   0  0  0  0  0  0  0  0  0  0  0  0
   12.6149   23.8957   -1.7066 C   0  0  0  0  0  0  0  0  0  0  0  0
   13.9144   24.3262   -1.8455 C   0  0  0  0  0  0  0  0  0  0  0  0
   14.7563   24.3534   -0.7889 N   0  0  0  0  0  0  0  0  0  0  0  0
   16.0314   24.7172   -0.6215 N   0  0  0  0  0  0  0  0  0  0  0  0
   16.3955   24.5552    0.6454 C   0  0  0  0  0  0  0  0  0  0  0  0
   15.3212   24.0776    1.2904 N   0  0  0  0  0  0  0  0  0  0  0  0
   14.3105   23.9567    0.3911 C   0  0  0  0  0  0  0  0  0  0  0  0
   12.9974   23.5114    0.5775 C   0  0  0  0  0  0  0  0  0  0  0  0
   14.3376   24.7779   -3.1726 C   0  0  0  0  0  0  0  0  0  0  0  0
   15.1926   24.0222   -3.9283 C   0  0  0  0  0  0  0  0  0  0  0  0
   15.6074   24.4745   -5.1894 C   0  0  0  0  0  0  0  0  0  0  0  0
   15.1549   25.6920   -5.6836 C   0  0  0  0  0  0  0  0  0  0  0  0
   14.2945   26.4560   -4.9279 C   0  0  0  0  0  0  0  0  0  0  0  0
   13.9007   25.9911   -3.6912 C   0  0  0  0  0  0  0  0  0  0  0  0
   15.6133   26.1097   -6.9871 C   0  0  0  0  0  0  0  0  0  0  0  0
   15.9842   26.4255   -8.0370 N   0  0  0  0  0  0  0  0  0  0  0  0
   10.9965   20.7519   -0.0336 O   0  0  0  0  0  0  0  0  0  0  0  0
   10.2762   21.7522   -0.1941 C   0  0  0  0  0  0  0  0  0  0  0  0
   10.7816   23.0401   -0.4008 N   0  0  0  0  0  0  0  0  0  0  0  0
   10.0254   23.7958   -0.5238 H   0  0  0  0  0  0  0  0  0  0  0  0
    8.8138   21.5359   -0.1592 C   0  0  0  0  0  0  0  0  0  0  0  0
    8.3463   21.0527    1.1077 N   0  0  0  0  0  0  0  0  0  0  0  0
    6.9341   21.0532    1.3349 C   0  0  0  0  0  0  0  0  0  0  0  0
    7.1241   22.0187    2.4968 C   0  0  0  0  0  0  0  0  0  0  0  0
    8.6080   21.8508    2.2496 C   0  0  0  0  0  0  0  0  0  0  0  0
 18 19  2  0  0  0
 19 22  1  0  0  0
 22 23  1  0  0  0
 23 24  1  0  0  0
 24 25  1  0  0  0
 25 26  1  0  0  0
 19 20  1  0  0  0
 20  1  1  0  0  0
  1  2  1  0  0  0
  2  3  2  0  0  0
  3 10  1  0  0  0
 10 11  2  0  0  0
 11 12  1  0  0  0
 12 13  2  0  0  0
 13 14  1  0  0  0
 14 15  2  0  0  0
 13 16  1  0  0  0
 16 17  3  0  0  0
  3  4  1  0  0  0
  4  5  1  0  0  0
  5  6  2  0  0  0
  6  7  1  0  0  0
  7  8  2  0  0  0
  8  9  1  0  0  0
 26 23  1  0  0  0
  9  1  2  0  0  0
 15 10  1  0  0  0
  8  4  1  0  0  0
 20 21  1  0  0  0
M  END
> <minimizedAffinity>
-7.71419

> <CNNscore>
0.6432127357

> <CNNaffinity>
7.0363745689

> <CNN_VS>
4.5258855820

> <CNNaffinity_variance>
0.2071871310

$$$$
[H]c1nc2c([H])c(N([H])C(=O)C([H])([H])N3C([H])([H])C([H])([H])C3([H])[H])c([H])c(-c3c([H])c([H])c(C#N)c([H])c3[H])n2n1


 26 29  0  0  0  0  0  0  0  0999 V2000
   13.7492   25.0301   -2.4568 C   0  0  0  0  0  0  0  0  0  0  0  0
   12.8631   26.0516   -2.8170 C   0  0  0  0  0  0  0  0  0  0  0  0
   13.0261   26.7654   -3.9821 C   0  0  0  0  0  0  0  0  0  0  0  0
   14.0516   26.5038   -4.8220 N   0  0  0  0  0  0  0  0  0  0  0  0
   14.4587   27.0193   -5.9860 N   0  0  0  0  0  0  0  0  0  0  0  0
   15.5539   26.3983   -6.4086 C   0  0  0  0  0  0  0  0  0  0  0  0
   15.8423   25.4688   -5.4860 N   0  0  0  0  0  0  0  0  0  0  0  0
   14.9043   25.5435   -4.5066 C   0  0  0  0  0  0  0  0  0  0  0  0
   14.7764   24.7930   -3.3329 C   0  0  0  0  0  0  0  0  0  0  0  0
   12.0635   27.8335   -4.2595 C   0  0  0  0  0  0  0  0  0  0  0  0
   12.2071   29.0692   -3.6892 C   0  0  0  0  0  0  0  0  0  0  0  0
   11.2677   30.0785   -3.9458 C   0  0  0  0  0  0  0  0  0  0  0  0
   10.1839   29.8345   -4.7808 C   0  0  0  0  0  0  0  0  0  0  0  0
   10.0348   28.5934   -5.3575 C   0  0  0  0  0  0  0  0  0  0  0  0
   10.9706   27.6170   -5.0904 C   0  0  0  0  0  0  0  0  0  0  0  0
    9.2471   30.9084   -5.0109 C   0  0  0  0  0  0  0  0  0  0  0  0
    8.5106   31.7826   -5.1920 N   0  0  0  0  0  0  0  0  0  0  0  0
   11.7385   22.9445   -1.7946 O   0  0  0  0  0  0  0  0  0  0  0  0
   12.5672   23.3596   -0.9662 C   0  0  0  0  0  0  0  0  0  0  0  0
   13.5219   24.3398   -1.2569 N   0  0  0  0  0  0  0  0  0  0  0  0
   14.1636   24.5890   -0.4298 H   0  0  0  0  0  0  0  0  0  0  0  0
   12.5146   22.7665    0.3872 C   0  0  0  0  0  0  0  0  0  0  0  0
   12.8247   21.3662    0.4006 N   0  0  0  0  0  0  0  0  0  0  0  0
   13.3912   20.8261    1.5978 C   0  0  0  0  0  0  0  0  0  0  0  0
   14.6470   20.4422    0.8271 C   0  0  0  0  0  0  0  0  0  0  0  0
   13.9083   20.9281   -0.4014 C   0  0  0  0  0  0  0  0  0  0  0  0
 18 19  2  0  0  0
 19 22  1  0  0  0
 22 23  1  0  0  0
 23 24  1  0  0  0
 24 25  1  0  0  0
 25 26  1  0  0  0
 19 20  1  0  0  0
 20  1  1  0  0  0
  1  2  1  0  0  0
  2  3  2  0  0  0
  3 10  1  0  0  0
 10 11  2  0  0  0
 11 12  1  0  0  0
 12 13  2  0  0  0
 13 14  1  0  0  0
 14 15  2  0  0  0
 13 16  1  0  0  0
 16 17  3  0  0  0
  3  4  1  0  0  0
  4  5  1  0  0  0
  5  6  2  0  0  0
  6  7  1  0  0  0
  7  8  2  0  0  0
  8  9  1  0  0  0
 26 23  1  0  0  0
  9  1  2  0  0  0
 15 10  1  0  0  0
  8  4  1  0  0  0
 20 21  1  0  0  0
M  END
> <minimizedAffinity>
10.62922

> <CNNscore>
0.6085898280

> <CNNaffinity>
6.5741577148

> <CNN_VS>
4.0009655952

> <CNNaffinity_variance>
0.7297924757

$$$$
[H]c1nc2c([H])c(N([H])C(=O)C([H])([H])N3C([H])([H])C([H])([H])C3([H])[H])c([H])c(-c3c([H])c([H])c(C#N)c([H])c3[H])n2n1


 26 29  0  0  0  0  0  0  0  0999 V2000
   14.8716   24.7887   -2.3803 C   0  0  0  0  0  0  0  0  0  0  0  0
   13.8201   25.6179   -2.7865 C   0  0  0  0  0  0  0  0  0  0  0  0
   14.0524   26.7874   -3.4733 C   0  0  0  0  0  0  0  0  0  0  0  0
   15.3091   27.1774   -3.7805 N   0  0  0  0  0  0  0  0  0  0  0  0
   15.8297   28.2336   -4.4128 N   0  0  0  0  0  0  0  0  0  0  0  0
   17.1544   28.1456   -4.4456 C   0  0  0  0  0  0  0  0  0  0  0  0
   17.4742   27.0048   -3.8174 N   0  0  0  0  0  0  0  0  0  0  0  0
   16.3221   26.4128   -3.4090 C   0  0  0  0  0  0  0  0  0  0  0  0
   16.1317   25.2162   -2.7096 C   0  0  0  0  0  0  0  0  0  0  0  0
   12.8896   27.6021   -3.8317 C   0  0  0  0  0  0  0  0  0  0  0  0
   11.8861   27.0855   -4.6057 C   0  0  0  0  0  0  0  0  0  0  0  0
   10.7870   27.8815   -4.9598 C   0  0  0  0  0  0  0  0  0  0  0  0
   10.7058   29.2001   -4.5287 C   0  0  0  0  0  0  0  0  0  0  0  0
   11.7122   29.7248   -3.7496 C   0  0  0  0  0  0  0  0  0  0  0  0
   12.7828   28.9235   -3.4145 C   0  0  0  0  0  0  0  0  0  0  0  0
    9.5529   29.9747   -4.9222 C   0  0  0  0  0  0  0  0  0  0  0  0
    8.6387   30.6124   -5.2336 N   0  0  0  0  0  0  0  0  0  0  0  0
   14.8987   24.2138    0.5352 O   0  0  0  0  0  0  0  0  0  0  0  0
   14.5833   23.3593   -0.3108 C   0  0  0  0  0  0  0  0  0  0  0  0
   14.5635   23.6088   -1.6871 N   0  0  0  0  0  0  0  0  0  0  0  0
   14.2697   22.7630   -2.2840 H   0  0  0  0  0  0  0  0  0  0  0  0
   14.2153   22.0201    0.1966 C   0  0  0  0  0  0  0  0  0  0  0  0
   13.1506   22.0549    1.1569 N   0  0  0  0  0  0  0  0  0  0  0  0
   12.7298   20.8104    1.7227 C   0  0  0  0  0  0  0  0  0  0  0  0
   11.3417   21.0139    1.1309 C   0  0  0  0  0  0  0  0  0  0  0  0
   11.8516   22.3668    0.6830 C   0  0  0  0  0  0  0  0  0  0  0  0
 18 19  2  0  0  0
 19 22  1  0  0  0
 22 23  1  0  0  0
 23 24  1  0  0  0
 24 25  1  0  0  0
 25 26  1  0  0  0
 19 20  1  0  0  0
 20  1  1  0  0  0
  1  2  1  0  0  0
  2  3  2  0  0  0
  3 10  1  0  0  0
 10 11  2  0  0  0
 11 12  1  0  0  0
 12 13  2  0  0  0
 13 14  1  0  0  0
 14 15  2  0  0  0
 13 16  1  0  0  0
 16 17  3  0  0  0
  3  4  1  0  0  0
  4  5  1  0  0  0
  5  6  2  0  0  0
  6  7  1  0  0  0
  7  8  2  0  0  0
  8  9  1  0  0  0
 26 23  1  0  0  0
  9  1  2  0  0  0
 15 10  1  0  0  0
  8  4  1  0  0  0
 20 21  1  0  0  0
M  END
> <minimizedAffinity>
9.35968

> <CNNscore>
0.6035887599

> <CNNaffinity>
6.9957380295

> <CNN_VS>
4.2225489616

> <CNNaffinity_variance>
1.0741935968

$$$$
[H]c1nc2c([H])c(N([H])C(=O)C([H])([H])N3C([H])([H])C([H])([H])C3([H])[H])c([H])c(-c3c([H])c([H])c(C#N)c([H])c3[H])n2n1


 26 29  0  0  0  0  0  0  0  0999 V2000
   12.8298   22.8449   -0.5319 C   0  0  0  0  0  0  0  0  0  0  0  0
   13.8855   23.6459   -0.9814 C   0  0  0  0  0  0  0  0  0  0  0  0
   13.6701   24.7078   -1.8295 C   0  0  0  0  0  0  0  0  0  0  0  0
   12.4266   25.0152   -2.2596 N   0  0  0  0  0  0  0  0  0  0  0  0
   11.9245   25.9541   -3.0675 N   0  0  0  0  0  0  0  0  0  0  0  0
   10.6078   25.8169   -3.1730 C   0  0  0  0  0  0  0  0  0  0  0  0
   10.2742   24.7645   -2.4118 N   0  0  0  0  0  0  0  0  0  0  0  0
   11.4100   24.2750   -1.8504 C   0  0  0  0  0  0  0  0  0  0  0  0
   11.5833   23.1868   -0.9885 C   0  0  0  0  0  0  0  0  0  0  0  0
   14.8410   25.4706   -2.2670 C   0  0  0  0  0  0  0  0  0  0  0  0
   14.7448   26.3722   -3.2921 C   0  0  0  0  0  0  0  0  0  0  0  0
   15.8775   27.0822   -3.7163 C   0  0  0  0  0  0  0  0  0  0  0  0
   17.1066   26.8780   -3.1008 C   0  0  0  0  0  0  0  0  0  0  0  0
   17.2091   25.9725   -2.0689 C   0  0  0  0  0  0  0  0  0  0  0  0
   16.0822   25.2862   -1.6694 C   0  0  0  0  0  0  0  0  0  0  0  0
   18.2399   27.6349   -3.5769 C   0  0  0  0  0  0  0  0  0  0  0  0
   19.1418   28.2577   -3.9486 N   0  0  0  0  0  0  0  0  0  0  0  0
   11.9807   22.3716    2.2764 O   0  0  0  0  0  0  0  0  0  0  0  0
   12.7088   21.5775    1.6564 C   0  0  0  0  0  0  0  0  0  0  0  0
   13.1197   21.7806    0.3347 N   0  0  0  0  0  0  0  0  0  0  0  0
   13.7493   21.0002   -0.0559 H   0  0  0  0  0  0  0  0  0  0  0  0
   13.1458   20.3652    2.3815 C   0  0  0  0  0  0  0  0  0  0  0  0
   12.0623   19.6583    3.0006 N   0  0  0  0  0  0  0  0  0  0  0  0
   10.7531   19.8475    2.4565 C   0  0  0  0  0  0  0  0  0  0  0  0
   10.2877   20.4277    3.7851 C   0  0  0  0  0  0  0  0  0  0  0  0
   11.6670   20.0721    4.2974 C   0  0  0  0  0  0  0  0  0  0  0  0
 18 19  2  0  0  0
 19 22  1  0  0  0
 22 23  1  0  0  0
 23 24  1  0  0  0
 24 25  1  0  0  0
 25 26  1  0  0  0
 19 20  1  0  0  0
 20  1  1  0  0  0
  1  2  1  0  0  0
  2  3  2  0  0  0
  3 10  1  0  0  0
 10 11  2  0  0  0
 11 12  1  0  0  0
 12 13  2  0  0  0
 13 14  1  0  0  0
 14 15  2  0  0  0
 13 16  1  0  0  0
 16 17  3  0  0  0
  3  4  1  0  0  0
  4  5  1  0  0  0
  5  6  2  0  0  0
  6  7  1  0  0  0
  7  8  2  0  0  0
  8  9  1  0  0  0
 26 23  1  0  0  0
  9  1  2  0  0  0
 15 10  1  0  0  0
  8  4  1  0  0  0
 20 21  1  0  0  0
M  END
> <minimizedAffinity>
4.06835

> <CNNscore>
0.5419090390

> <CNNaffinity>
6.6497488022

> <CNN_VS>
3.6035590172

> <CNNaffinity_variance>
1.2322056293

$$$$
[H]c1nc2c([H])c(N([H])C(=O)C([H])([H])N3C([H])([H])C([H])([H])C3([H])[H])c([H])c(-c3c([H])c([H])c(C#N)c([H])c3[H])n2n1


 26 29  0  0  0  0  0  0  0  0999 V2000
   12.4459   27.2158   -3.3525 C   0  0  0  0  0  0  0  0  0  0  0  0
   13.2669   26.9695   -4.4586 C   0  0  0  0  0  0  0  0  0  0  0  0
   14.0825   25.8627   -4.5149 C   0  0  0  0  0  0  0  0  0  0  0  0
   14.1192   24.9717   -3.4998 N   0  0  0  0  0  0  0  0  0  0  0  0
   14.7966   23.8417   -3.2745 N   0  0  0  0  0  0  0  0  0  0  0  0
   14.4689   23.3347   -2.0916 C   0  0  0  0  0  0  0  0  0  0  0  0
   13.5625   24.1678   -1.5600 N   0  0  0  0  0  0  0  0  0  0  0  0
   13.3535   25.1794   -2.4419 C   0  0  0  0  0  0  0  0  0  0  0  0
   12.5095   26.2908   -2.3429 C   0  0  0  0  0  0  0  0  0  0  0  0
   14.9256   25.7052   -5.7017 C   0  0  0  0  0  0  0  0  0  0  0  0
   15.4151   24.4764   -6.0533 C   0  0  0  0  0  0  0  0  0  0  0  0
   16.2385   24.3408   -7.1805 C   0  0  0  0  0  0  0  0  0  0  0  0
   16.5646   25.4506   -7.9506 C   0  0  0  0  0  0  0  0  0  0  0  0
   16.0747   26.6890   -7.6019 C   0  0  0  0  0  0  0  0  0  0  0  0
   15.2675   26.7979   -6.4897 C   0  0  0  0  0  0  0  0  0  0  0  0
   17.4157   25.2547   -9.1000 C   0  0  0  0  0  0  0  0  0  0  0  0
   18.1097   25.0857  -10.0107 N   0  0  0  0  0  0  0  0  0  0  0  0
   10.5530   28.2095   -5.4166 O   0  0  0  0  0  0  0  0  0  0  0  0
   10.7506   28.8114   -4.3471 C   0  0  0  0  0  0  0  0  0  0  0  0
   11.6363   28.3613   -3.3623 N   0  0  0  0  0  0  0  0  0  0  0  0
   11.6936   28.9982   -2.4968 H   0  0  0  0  0  0  0  0  0  0  0  0
    9.9948   30.0646   -4.1354 C   0  0  0  0  0  0  0  0  0  0  0  0
   10.8260   31.2332   -4.1539 N   0  0  0  0  0  0  0  0  0  0  0  0
   12.1055   31.1243   -4.7839 C   0  0  0  0  0  0  0  0  0  0  0  0
   12.7824   31.4483   -3.4591 C   0  0  0  0  0  0  0  0  0  0  0  0
   11.3830   31.6598   -2.9222 C   0  0  0  0  0  0  0  0  0  0  0  0
 18 19  2  0  0  0
 19 22  1  0  0  0
 22 23  1  0  0  0
 23 24  1  0  0  0
 24 25  1  0  0  0
 25 26  1  0  0  0
 19 20  1  0  0  0
 20  1  1  0  0  0
  1  2  1  0  0  0
  2  3  2  0  0  0
  3 10  1  0  0  0
 10 11  2  0  0  0
 11 12  1  0  0  0
 12 13  2  0  0  0
 13 14  1  0  0  0
 14 15  2  0  0  0
 13 16  1  0  0  0
 16 17  3  0  0  0
  3  4  1  0  0  0
  4  5  1  0  0  0
  5  6  2  0  0  0
  6  7  1  0  0  0
  7  8  2  0  0  0
  8  9  1  0  0  0
 26 23  1  0  0  0
  9  1  2  0  0  0
 15 10  1  0  0  0
  8  4  1  0  0  0
 20 21  1  0  0  0
M  END
> <minimizedAffinity>
21.42822

> <CNNscore>
0.5403604507

> <CNNaffinity>
6.1930146217

> <CNN_VS>
3.3464601040

> <CNNaffinity_variance>
1.1283038855

$$$$
[H]OC(=O)c1c([H])c([H])c(-c2nc([H])c(N3C(=O)N(c4nc([H])nc(OC([H])([H])[H])c4[H])C4(C3=O)C([H])([H])C([H])([H])N(C([H])([H])c3nc([H])c([H])c([H])c3C([H])([H])[H])C([H])([H])C4([H])[H])c([H])c2[H])c(C([H])([H])[H])c1[H]


 45 50  0  0  0  0  0  0  0  0999 V2000
   13.4884   26.2567   -2.6642 N   0  0  0  0  0  0  0  0  0  0  0  0
   12.2439   25.6692   -2.2578 C   0  0  0  0  0  0  0  0  0  0  0  0
   11.1594   25.8022   -2.9216 O   0  0  0  0  0  0  0  0  0  0  0  0
   12.4592   24.9577   -1.0447 N   0  0  0  0  0  0  0  0  0  0  0  0
   13.8406   25.1202   -0.7230 C   0  0  0  0  0  0  0  0  0  0  0  0
   14.3231   24.9922    0.4332 O   0  0  0  0  0  0  0  0  0  0  0  0
   14.4944   25.4513   -2.0062 C   0  0  0  0  0  0  0  0  0  0  0  0
   15.7459   26.2518   -1.8226 C   0  0  0  0  0  0  0  0  0  0  0  0
   16.9172   25.6626   -2.5526 C   0  0  0  0  0  0  0  0  0  0  0  0
   17.0894   24.2472   -2.3159 N   0  0  0  0  0  0  0  0  0  0  0  0
   15.9530   23.4333   -2.4363 C   0  0  0  0  0  0  0  0  0  0  0  0
   14.7197   24.1883   -2.7756 C   0  0  0  0  0  0  0  0  0  0  0  0
   13.1038   29.6224   -4.2121 C   0  0  0  0  0  0  0  0  0  0  0  0
   12.9239   28.5491   -3.3687 C   0  0  0  0  0  0  0  0  0  0  0  0
   13.6554   27.3813   -3.5232 C   0  0  0  0  0  0  0  0  0  0  0  0
   14.5408   27.3629   -4.5357 N   0  0  0  0  0  0  0  0  0  0  0  0
   14.7360   28.3980   -5.3739 C   0  0  0  0  0  0  0  0  0  0  0  0
   13.9969   29.5227   -5.1854 N   0  0  0  0  0  0  0  0  0  0  0  0
   10.9687   30.7167   -3.6373 C   0  0  0  0  0  0  0  0  0  0  0  0
   12.3249   30.7445   -3.9760 O   0  0  0  0  0  0  0  0  0  0  0  0
   11.4463   24.2443   -0.3413 C   0  0  0  0  0  0  0  0  0  0  0  0
   10.1439   24.2201   -0.6892 C   0  0  0  0  0  0  0  0  0  0  0  0
    9.2368   23.4821    0.0866 C   0  0  0  0  0  0  0  0  0  0  0  0
    9.6251   22.7854    1.1820 C   0  0  0  0  0  0  0  0  0  0  0  0
   10.9624   22.8425    1.4948 N   0  0  0  0  0  0  0  0  0  0  0  0
   11.8205   23.5279    0.7797 C   0  0  0  0  0  0  0  0  0  0  0  0
    8.7671   22.0515    2.0883 C   0  0  0  0  0  0  0  0  0  0  0  0
    8.0284   20.9880    1.5194 C   0  0  0  0  0  0  0  0  0  0  0  0
    7.1442   20.2249    2.2247 C   0  0  0  0  0  0  0  0  0  0  0  0
    6.9777   20.5203    3.5494 C   0  0  0  0  0  0  0  0  0  0  0  0
    7.6648   21.5317    4.1328 C   0  0  0  0  0  0  0  0  0  0  0  0
    8.5756   22.3125    3.3886 C   0  0  0  0  0  0  0  0  0  0  0  0
    9.2308   23.4390    4.0965 C   0  0  0  0  0  0  0  0  0  0  0  0
    6.0447   19.7372    4.3541 C   0  0  0  0  0  0  0  0  0  0  0  0
    6.4674   18.5126    4.8814 O   0  0  0  0  0  0  0  0  0  0  0  0
    4.8979   20.1885    4.5447 O   0  0  0  0  0  0  0  0  0  0  0  0
    6.5355   17.7128    4.2390 H   0  0  0  0  0  0  0  0  0  0  0  0
   18.0343   23.9715   -1.3013 C   0  0  0  0  0  0  0  0  0  0  0  0
   17.5303   23.3760   -0.0540 C   0  0  0  0  0  0  0  0  0  0  0  0
   16.4740   22.5606    0.0674 N   0  0  0  0  0  0  0  0  0  0  0  0
   16.0300   22.0173    1.2018 C   0  0  0  0  0  0  0  0  0  0  0  0
   16.6687   22.2788    2.3791 C   0  0  0  0  0  0  0  0  0  0  0  0
   17.7724   23.1131    2.3494 C   0  0  0  0  0  0  0  0  0  0  0  0
   18.1906   23.6476    1.1571 C   0  0  0  0  0  0  0  0  0  0  0  0
   19.3639   24.5318    1.1351 C   0  0  0  0  0  0  0  0  0  0  0  0
 19 20  1  0  0  0
 20 13  1  0  0  0
 13 14  2  0  0  0
 14 15  1  0  0  0
 15 16  2  0  0  0
 16 17  1  0  0  0
 17 18  2  0  0  0
 15  1  1  0  0  0
  1  2  1  0  0  0
  2  3  2  0  0  0
  2  4  1  0  0  0
  4  5  1  0  0  0
  5  6  2  0  0  0
  5  7  1  0  0  0
  7  8  1  0  0  0
  8  9  1  0  0  0
  9 10  1  0  0  0
 10 38  1  0  0  0
 38 39  1  0  0  0
 39 40  2  0  0  0
 40 41  1  0  0  0
 41 42  2  0  0  0
 42 43  1  0  0  0
 43 44  2  0  0  0
 44 45  1  0  0  0
 10 11  1  0  0  0
 11 12  1  0  0  0
  4 21  1  0  0  0
 21 22  2  0  0  0
 22 23  1  0  0  0
 23 24  2  0  0  0
 24 25  1  0  0  0
 25 26  2  0  0  0
 24 27  1  0  0  0
 27 28  2  0  0  0
 28 29  1  0  0  0
 29 30  2  0  0  0
 30 31  1  0  0  0
 31 32  2  0  0  0
 32 33  1  0  0  0
 30 34  1  0  0  0
 34 35  1  0  0  0
 34 36  2  0  0  0
 18 13  1  0  0  0
  7  1  1  0  0  0
 12  7  1  0  0  0
 26 21  1  0  0  0
 32 27  1  0  0  0
 44 39  1  0  0  0
 35 37  1  0  0  0
M  END
> <minimizedAffinity>
24.56953

> <CNNscore>
0.5185270309

> <CNNaffinity>
7.7232599258

> <CNN_VS>
4.0047192574

> <CNNaffinity_variance>
0.7836960554

$$$$
[H]OC(=O)c1c([H])c([H])c(-c2nc([H])c(N3C(=O)N(c4nc([H])nc(OC([H])([H])[H])c4[H])C4(C3=O)C([H])([H])C([H])([H])N(C([H])([H])c3nc([H])c([H])c([H])c3C([H])([H])[H])C([H])([H])C4([H])[H])c([H])c2[H])c(C([H])([H])[H])c1[H]


 45 50  0  0  0  0  0  0  0  0999 V2000
   11.4000   22.3368    0.1687 N   0  0  0  0  0  0  0  0  0  0  0  0
   12.1264   22.7249   -1.0064 C   0  0  0  0  0  0  0  0  0  0  0  0
   12.2953   21.9511   -2.0100 O   0  0  0  0  0  0  0  0  0  0  0  0
   12.5858   24.0596   -0.8289 N   0  0  0  0  0  0  0  0  0  0  0  0
   12.1318   24.4731    0.4599 C   0  0  0  0  0  0  0  0  0  0  0  0
   12.6502   25.4019    1.1342 O   0  0  0  0  0  0  0  0  0  0  0  0
   10.9860   23.5900    0.7618 C   0  0  0  0  0  0  0  0  0  0  0  0
   10.7724   23.4100    2.2325 C   0  0  0  0  0  0  0  0  0  0  0  0
    9.3554   23.6824    2.6448 C   0  0  0  0  0  0  0  0  0  0  0  0
    8.8353   24.9277    2.1273 N   0  0  0  0  0  0  0  0  0  0  0  0
    9.0260   25.1848    0.7614 C   0  0  0  0  0  0  0  0  0  0  0  0
    9.7735   24.1113    0.0576 C   0  0  0  0  0  0  0  0  0  0  0  0
    9.9246   18.9401    0.5646 C   0  0  0  0  0  0  0  0  0  0  0  0
   10.1339   20.2240    0.1137 C   0  0  0  0  0  0  0  0  0  0  0  0
   11.1620   21.0057    0.6182 C   0  0  0  0  0  0  0  0  0  0  0  0
   11.9325   20.4383    1.5638 N   0  0  0  0  0  0  0  0  0  0  0  0
   11.7493   19.1858    2.0216 C   0  0  0  0  0  0  0  0  0  0  0  0
   10.7292   18.4558    1.4988 N   0  0  0  0  0  0  0  0  0  0  0  0
    9.0062   17.2483   -0.9786 C   0  0  0  0  0  0  0  0  0  0  0  0
    8.8710   18.2392   -0.0015 O   0  0  0  0  0  0  0  0  0  0  0  0
   13.3472   24.7819   -1.7924 C   0  0  0  0  0  0  0  0  0  0  0  0
   14.6883   24.9185   -1.7633 C   0  0  0  0  0  0  0  0  0  0  0  0
   15.3276   25.6594   -2.7692 C   0  0  0  0  0  0  0  0  0  0  0  0
   14.6409   26.2469   -3.7788 C   0  0  0  0  0  0  0  0  0  0  0  0
   13.2767   26.0787   -3.7631 N   0  0  0  0  0  0  0  0  0  0  0  0
   12.6664   25.3900   -2.8299 C   0  0  0  0  0  0  0  0  0  0  0  0
   15.1894   27.0863   -4.8232 C   0  0  0  0  0  0  0  0  0  0  0  0
   15.5984   28.3813   -4.4280 C   0  0  0  0  0  0  0  0  0  0  0  0
   16.0966   29.3096   -5.2949 C   0  0  0  0  0  0  0  0  0  0  0  0
   16.1971   28.9497   -6.6102 C   0  0  0  0  0  0  0  0  0  0  0  0
   15.8150   27.7197   -7.0305 C   0  0  0  0  0  0  0  0  0  0  0  0
   15.3007   26.7707   -6.1206 C   0  0  0  0  0  0  0  0  0  0  0  0
   14.8470   25.4760   -6.6840 C   0  0  0  0  0  0  0  0  0  0  0  0
   16.7233   29.9023   -7.5834 C   0  0  0  0  0  0  0  0  0  0  0  0
   16.7003   31.2667   -7.2765 O   0  0  0  0  0  0  0  0  0  0  0  0
   17.1770   29.4654   -8.6597 O   0  0  0  0  0  0  0  0  0  0  0  0
   15.7974   31.7551   -7.3337 H   0  0  0  0  0  0  0  0  0  0  0  0
    8.9361   25.9913    3.0529 C   0  0  0  0  0  0  0  0  0  0  0  0
    7.6816   26.6103    3.5085 C   0  0  0  0  0  0  0  0  0  0  0  0
    6.8010   27.2745    2.7478 N   0  0  0  0  0  0  0  0  0  0  0  0
    5.6606   27.8241    3.1680 C   0  0  0  0  0  0  0  0  0  0  0  0
    5.3040   27.7349    4.4823 C   0  0  0  0  0  0  0  0  0  0  0  0
    6.1554   27.0652    5.3436 C   0  0  0  0  0  0  0  0  0  0  0  0
    7.3174   26.5165    4.8631 C   0  0  0  0  0  0  0  0  0  0  0  0
    8.2148   25.8068    5.7849 C   0  0  0  0  0  0  0  0  0  0  0  0
 19 20  1  0  0  0
 20 13  1  0  0  0
 13 14  2  0  0  0
 14 15  1  0  0  0
 15 16  2  0  0  0
 16 17  1  0  0  0
 17 18  2  0  0  0
 15  1  1  0  0  0
  1  2  1  0  0  0
  2  3  2  0  0  0
  2  4  1  0  0  0
  4  5  1  0  0  0
  5  6  2  0  0  0
  5  7  1  0  0  0
  7  8  1  0  0  0
  8  9  1  0  0  0
  9 10  1  0  0  0
 10 38  1  0  0  0
 38 39  1  0  0  0
 39 40  2  0  0  0
 40 41  1  0  0  0
 41 42  2  0  0  0
 42 43  1  0  0  0
 43 44  2  0  0  0
 44 45  1  0  0  0
 10 11  1  0  0  0
 11 12  1  0  0  0
  4 21  1  0  0  0
 21 22  2  0  0  0
 22 23  1  0  0  0
 23 24  2  0  0  0
 24 25  1  0  0  0
 25 26  2  0  0  0
 24 27  1  0  0  0
 27 28  2  0  0  0
 28 29  1  0  0  0
 29 30  2  0  0  0
 30 31  1  0  0  0
 31 32  2  0  0  0
 32 33  1  0  0  0
 30 34  1  0  0  0
 34 35  1  0  0  0
 34 36  2  0  0  0
 18 13  1  0  0  0
  7  1  1  0  0  0
 12  7  1  0  0  0
 26 21  1  0  0  0
 32 27  1  0  0  0
 44 39  1  0  0  0
 35 37  1  0  0  0
M  END
> <minimizedAffinity>
10.67027

> <CNNscore>
0.5157352686

> <CNNaffinity>
7.5324568748

> <CNN_VS>
3.8847537041

> <CNNaffinity_variance>
0.2700413167

$$$$
[H]OC(=O)c1c([H])c([H])c(-c2nc([H])c(N3C(=O)N(c4nc([H])nc(OC([H])([H])[H])c4[H])C4(C3=O)C([H])([H])C([H])([H])N(C([H])([H])c3nc([H])c([H])c([H])c3C([H])([H])[H])C([H])([H])C4([H])[H])c([H])c2[H])c(C([H])([H])[H])c1[H]


 45 50  0  0  0  0  0  0  0  0999 V2000
   12.7803   25.2239   -2.5821 N   0  0  0  0  0  0  0  0  0  0  0  0
   11.5481   24.8252   -1.9642 C   0  0  0  0  0  0  0  0  0  0  0  0
   10.3998   25.1177   -2.4442 O   0  0  0  0  0  0  0  0  0  0  0  0
   11.8551   24.0875   -0.7870 N   0  0  0  0  0  0  0  0  0  0  0  0
   13.2795   24.0443   -0.6998 C   0  0  0  0  0  0  0  0  0  0  0  0
   13.9227   23.8444    0.3643 O   0  0  0  0  0  0  0  0  0  0  0  0
   13.7532   24.2779   -2.0799 C   0  0  0  0  0  0  0  0  0  0  0  0
   15.1208   24.8851   -2.1219 C   0  0  0  0  0  0  0  0  0  0  0  0
   16.0569   24.1312   -3.0205 C   0  0  0  0  0  0  0  0  0  0  0  0
   16.0580   22.7055   -2.7833 N   0  0  0  0  0  0  0  0  0  0  0  0
   14.8113   22.0680   -2.6976 C   0  0  0  0  0  0  0  0  0  0  0  0
   13.6619   22.9970   -2.8472 C   0  0  0  0  0  0  0  0  0  0  0  0
   14.1053   27.3756   -5.3182 C   0  0  0  0  0  0  0  0  0  0  0  0
   13.9472   26.3104   -4.4604 C   0  0  0  0  0  0  0  0  0  0  0  0
   12.9648   26.3133   -3.4820 C   0  0  0  0  0  0  0  0  0  0  0  0
   12.1853   27.4082   -3.4241 N   0  0  0  0  0  0  0  0  0  0  0  0
   12.3188   28.4624   -4.2504 C   0  0  0  0  0  0  0  0  0  0  0  0
   13.2953   28.4165   -5.1943 N   0  0  0  0  0  0  0  0  0  0  0  0
   15.1162   26.3879   -7.3404 C   0  0  0  0  0  0  0  0  0  0  0  0
   15.1159   27.2778   -6.2620 O   0  0  0  0  0  0  0  0  0  0  0  0
   10.8797   23.5296    0.0886 C   0  0  0  0  0  0  0  0  0  0  0  0
   10.0405   24.2503    0.8597 C   0  0  0  0  0  0  0  0  0  0  0  0
    9.1225   23.5855    1.6872 C   0  0  0  0  0  0  0  0  0  0  0  0
    9.0465   22.2337    1.7396 C   0  0  0  0  0  0  0  0  0  0  0  0
    9.9234   21.5451    0.9355 N   0  0  0  0  0  0  0  0  0  0  0  0
   10.7861   22.1526    0.1584 C   0  0  0  0  0  0  0  0  0  0  0  0
    8.1899   21.4492    2.6038 C   0  0  0  0  0  0  0  0  0  0  0  0
    6.8868   21.1912    2.1179 C   0  0  0  0  0  0  0  0  0  0  0  0
    5.9433   20.5044    2.8246 C   0  0  0  0  0  0  0  0  0  0  0  0
    6.2954   20.0506    4.0654 C   0  0  0  0  0  0  0  0  0  0  0  0
    7.5327   20.2775    4.5686 C   0  0  0  0  0  0  0  0  0  0  0  0
    8.4976   20.9907    3.8247 C   0  0  0  0  0  0  0  0  0  0  0  0
    9.8007   21.2471    4.4846 C   0  0  0  0  0  0  0  0  0  0  0  0
    5.3264   19.3092    4.8673 C   0  0  0  0  0  0  0  0  0  0  0  0
    5.1043   17.9579    4.5826 O   0  0  0  0  0  0  0  0  0  0  0  0
    4.7272   19.9084    5.7822 O   0  0  0  0  0  0  0  0  0  0  0  0
    4.5439   17.7296    3.7515 H   0  0  0  0  0  0  0  0  0  0  0  0
   17.1074   22.2918   -1.9313 C   0  0  0  0  0  0  0  0  0  0  0  0
   17.1045   22.8131   -0.5555 C   0  0  0  0  0  0  0  0  0  0  0  0
   17.6967   23.9372   -0.1303 N   0  0  0  0  0  0  0  0  0  0  0  0
   17.6805   24.4074    1.1178 C   0  0  0  0  0  0  0  0  0  0  0  0
   17.0162   23.7249    2.0953 C   0  0  0  0  0  0  0  0  0  0  0  0
   16.3738   22.5498    1.7468 C   0  0  0  0  0  0  0  0  0  0  0  0
   16.4194   22.1074    0.4489 C   0  0  0  0  0  0  0  0  0  0  0  0
   15.7337   20.8590    0.0880 C   0  0  0  0  0  0  0  0  0  0  0  0
 19 20  1  0  0  0
 20 13  1  0  0  0
 13 14  2  0  0  0
 14 15  1  0  0  0
 15 16  2  0  0  0
 16 17  1  0  0  0
 17 18  2  0  0  0
 15  1  1  0  0  0
  1  2  1  0  0  0
  2  3  2  0  0  0
  2  4  1  0  0  0
  4  5  1  0  0  0
  5  6  2  0  0  0
  5  7  1  0  0  0
  7  8  1  0  0  0
  8  9  1  0  0  0
  9 10  1  0  0  0
 10 38  1  0  0  0
 38 39  1  0  0  0
 39 40  2  0  0  0
 40 41  1  0  0  0
 41 42  2  0  0  0
 42 43  1  0  0  0
 43 44  2  0  0  0
 44 45  1  0  0  0
 10 11  1  0  0  0
 11 12  1  0  0  0
  4 21  1  0  0  0
 21 22  2  0  0  0
 22 23  1  0  0  0
 23 24  2  0  0  0
 24 25  1  0  0  0
 25 26  2  0  0  0
 24 27  1  0  0  0
 27 28  2  0  0  0
 28 29  1  0  0  0
 29 30  2  0  0  0
 30 31  1  0  0  0
 31 32  2  0  0  0
 32 33  1  0  0  0
 30 34  1  0  0  0
 34 35  1  0  0  0
 34 36  2  0  0  0
 18 13  1  0  0  0
  7  1  1  0  0  0
 12  7  1  0  0  0
 26 21  1  0  0  0
 32 27  1  0  0  0
 44 39  1  0  0  0
 35 37  1  0  0  0
M  END
> <minimizedAffinity>
19.83810

> <CNNscore>
0.4699729085

> <CNNaffinity>
7.7828302383

> <CNN_VS>
3.6577193737

> <CNNaffinity_variance>
0.5465211272

$$$$
[H]OC(=O)c1c([H])c([H])c(-c2nc([H])c(N3C(=O)N(c4nc([H])nc(OC([H])([H])[H])c4[H])C4(C3=O)C([H])([H])C([H])([H])N(C([H])([H])c3nc([H])c([H])c([H])c3C([H])([H])[H])C([H])([H])C4([H])[H])c([H])c2[H])c(C([H])([H])[H])c1[H]


 45 50  0  0  0  0  0  0  0  0999 V2000
   16.1156   24.2597   -0.8610 N   0  0  0  0  0  0  0  0  0  0  0  0
   15.6838   25.4550   -1.5274 C   0  0  0  0  0  0  0  0  0  0  0  0
   16.4949   26.3065   -2.0289 O   0  0  0  0  0  0  0  0  0  0  0  0
   14.2616   25.4879   -1.5119 N   0  0  0  0  0  0  0  0  0  0  0  0
   13.8395   24.3054   -0.8324 C   0  0  0  0  0  0  0  0  0  0  0  0
   12.7190   24.1652   -0.2747 O   0  0  0  0  0  0  0  0  0  0  0  0
   14.9778   23.3705   -0.9513 C   0  0  0  0  0  0  0  0  0  0  0  0
   15.0213   22.3748    0.1656 C   0  0  0  0  0  0  0  0  0  0  0  0
   15.1339   20.9621   -0.3281 C   0  0  0  0  0  0  0  0  0  0  0  0
   14.1791   20.6371   -1.3633 N   0  0  0  0  0  0  0  0  0  0  0  0
   14.0559   21.5403   -2.4296 C   0  0  0  0  0  0  0  0  0  0  0  0
   14.9385   22.7282   -2.3017 C   0  0  0  0  0  0  0  0  0  0  0  0
   18.9108   24.2095    1.5998 C   0  0  0  0  0  0  0  0  0  0  0  0
   17.6742   24.4366    1.0389 C   0  0  0  0  0  0  0  0  0  0  0  0
   17.3870   24.0368   -0.2574 C   0  0  0  0  0  0  0  0  0  0  0  0
   18.3798   23.4208   -0.9242 N   0  0  0  0  0  0  0  0  0  0  0  0
   19.5970   23.1866   -0.3992 C   0  0  0  0  0  0  0  0  0  0  0  0
   19.8342   23.5959    0.8747 N   0  0  0  0  0  0  0  0  0  0  0  0
   20.1790   24.2861    3.7147 C   0  0  0  0  0  0  0  0  0  0  0  0
   19.1003   24.6468    2.9016 O   0  0  0  0  0  0  0  0  0  0  0  0
   13.4759   26.5304   -2.0825 C   0  0  0  0  0  0  0  0  0  0  0  0
   12.7769   27.4391   -1.3730 C   0  0  0  0  0  0  0  0  0  0  0  0
   12.0348   28.4193   -2.0497 C   0  0  0  0  0  0  0  0  0  0  0  0
   11.9953   28.4877   -3.4025 C   0  0  0  0  0  0  0  0  0  0  0  0
   12.7239   27.5389   -4.0795 N   0  0  0  0  0  0  0  0  0  0  0  0
   13.4209   26.6176   -3.4606 C   0  0  0  0  0  0  0  0  0  0  0  0
   11.2119   29.4089   -4.1986 C   0  0  0  0  0  0  0  0  0  0  0  0
   11.4756   30.7837   -3.9963 C   0  0  0  0  0  0  0  0  0  0  0  0
   10.7979   31.7811   -4.6346 C   0  0  0  0  0  0  0  0  0  0  0  0
    9.8160   31.4113   -5.5113 C   0  0  0  0  0  0  0  0  0  0  0  0
    9.5309   30.1055   -5.7329 C   0  0  0  0  0  0  0  0  0  0  0  0
   10.2410   29.0853   -5.0636 C   0  0  0  0  0  0  0  0  0  0  0  0
    9.8135   27.6886   -5.3203 C   0  0  0  0  0  0  0  0  0  0  0  0
    9.0576   32.4357   -6.2233 C   0  0  0  0  0  0  0  0  0  0  0  0
    9.0187   33.7335   -5.7033 O   0  0  0  0  0  0  0  0  0  0  0  0
    8.4679   32.1174   -7.2750 O   0  0  0  0  0  0  0  0  0  0  0  0
    8.4198   33.9037   -4.8851 H   0  0  0  0  0  0  0  0  0  0  0  0
   13.0234   19.9957   -0.8621 C   0  0  0  0  0  0  0  0  0  0  0  0
   12.2573   20.7014    0.1770 C   0  0  0  0  0  0  0  0  0  0  0  0
   12.6735   20.9804    1.4197 N   0  0  0  0  0  0  0  0  0  0  0  0
   11.9753   21.6298    2.3524 C   0  0  0  0  0  0  0  0  0  0  0  0
   10.7155   22.0752    2.0747 C   0  0  0  0  0  0  0  0  0  0  0  0
   10.2023   21.8311    0.8129 C   0  0  0  0  0  0  0  0  0  0  0  0
   10.9599   21.1588   -0.1124 C   0  0  0  0  0  0  0  0  0  0  0  0
   10.4069   20.9048   -1.4498 C   0  0  0  0  0  0  0  0  0  0  0  0
 19 20  1  0  0  0
 20 13  1  0  0  0
 13 14  2  0  0  0
 14 15  1  0  0  0
 15 16  2  0  0  0
 16 17  1  0  0  0
 17 18  2  0  0  0
 15  1  1  0  0  0
  1  2  1  0  0  0
  2  3  2  0  0  0
  2  4  1  0  0  0
  4  5  1  0  0  0
  5  6  2  0  0  0
  5  7  1  0  0  0
  7  8  1  0  0  0
  8  9  1  0  0  0
  9 10  1  0  0  0
 10 38  1  0  0  0
 38 39  1  0  0  0
 39 40  2  0  0  0
 40 41  1  0  0  0
 41 42  2  0  0  0
 42 43  1  0  0  0
 43 44  2  0  0  0
 44 45  1  0  0  0
 10 11  1  0  0  0
 11 12  1  0  0  0
  4 21  1  0  0  0
 21 22  2  0  0  0
 22 23  1  0  0  0
 23 24  2  0  0  0
 24 25  1  0  0  0
 25 26  2  0  0  0
 24 27  1  0  0  0
 27 28  2  0  0  0
 28 29  1  0  0  0
 29 30  2  0  0  0
 30 31  1  0  0  0
 31 32  2  0  0  0
 32 33  1  0  0  0
 30 34  1  0  0  0
 34 35  1  0  0  0
 34 36  2  0  0  0
 18 13  1  0  0  0
  7  1  1  0  0  0
 12  7  1  0  0  0
 26 21  1  0  0  0
 32 27  1  0  0  0
 44 39  1  0  0  0
 35 37  1  0  0  0
M  END
> <minimizedAffinity>
42.63820

> <CNNscore>
0.4609876871

> <CNNaffinity>
7.7354140282

> <CNN_VS>
3.5659306049

> <CNNaffinity_variance>
0.9492238760

$$$$
[H]OC(=O)c1c([H])c([H])c(-c2nc([H])c(N3C(=O)N(c4nc([H])nc(OC([H])([H])[H])c4[H])C4(C3=O)C([H])([H])C([H])([H])N(C([H])([H])c3nc([H])c([H])c([H])c3C([H])([H])[H])C([H])([H])C4([H])[H])c([H])c2[H])c(C([H])([H])[H])c1[H]


 45 50  0  0  0  0  0  0  0  0999 V2000
   15.0026   26.1774   -3.0339 N   0  0  0  0  0  0  0  0  0  0  0  0
   13.9289   26.3910   -2.1062 C   0  0  0  0  0  0  0  0  0  0  0  0
   13.3627   27.5255   -1.9429 O   0  0  0  0  0  0  0  0  0  0  0  0
   13.6489   25.1583   -1.4532 N   0  0  0  0  0  0  0  0  0  0  0  0
   14.5602   24.2013   -1.9933 C   0  0  0  0  0  0  0  0  0  0  0  0
   14.8983   23.1342   -1.4161 O   0  0  0  0  0  0  0  0  0  0  0  0
   14.9645   24.7561   -3.3019 C   0  0  0  0  0  0  0  0  0  0  0  0
   16.3185   24.2837   -3.7316 C   0  0  0  0  0  0  0  0  0  0  0  0
   16.3159   23.7211   -5.1229 C   0  0  0  0  0  0  0  0  0  0  0  0
   15.2619   22.7591   -5.3521 N   0  0  0  0  0  0  0  0  0  0  0  0
   13.9675   23.1158   -4.9452 C   0  0  0  0  0  0  0  0  0  0  0  0
   13.8978   24.4550   -4.3065 C   0  0  0  0  0  0  0  0  0  0  0  0
   18.0429   28.2359   -3.6586 C   0  0  0  0  0  0  0  0  0  0  0  0
   17.2082   27.2697   -3.1436 C   0  0  0  0  0  0  0  0  0  0  0  0
   15.8868   27.1680   -3.5511 C   0  0  0  0  0  0  0  0  0  0  0  0
   15.4765   28.0610   -4.4697 N   0  0  0  0  0  0  0  0  0  0  0  0
   16.2720   29.0148   -4.9890 C   0  0  0  0  0  0  0  0  0  0  0  0
   17.5600   29.0776   -4.5604 N   0  0  0  0  0  0  0  0  0  0  0  0
   20.4319   27.6412   -3.8190 C   0  0  0  0  0  0  0  0  0  0  0  0
   19.3466   28.2561   -3.1877 O   0  0  0  0  0  0  0  0  0  0  0  0
   12.6405   24.9854   -0.4618 C   0  0  0  0  0  0  0  0  0  0  0  0
   12.7318   25.4264    0.8091 C   0  0  0  0  0  0  0  0  0  0  0  0
   11.6714   25.1918    1.6979 C   0  0  0  0  0  0  0  0  0  0  0  0
   10.5482   24.5335    1.3224 C   0  0  0  0  0  0  0  0  0  0  0  0
   10.5042   24.1040    0.0173 N   0  0  0  0  0  0  0  0  0  0  0  0
   11.4871   24.3156   -0.8233 C   0  0  0  0  0  0  0  0  0  0  0  0
    9.4301   24.1784    2.1710 C   0  0  0  0  0  0  0  0  0  0  0  0
    8.5106   25.2156    2.4524 C   0  0  0  0  0  0  0  0  0  0  0  0
    7.4275   25.0594    3.2674 C   0  0  0  0  0  0  0  0  0  0  0  0
    7.2393   23.8284    3.8320 C   0  0  0  0  0  0  0  0  0  0  0  0
    8.0974   22.8084    3.5895 C   0  0  0  0  0  0  0  0  0  0  0  0
    9.2140   22.9867    2.7442 C   0  0  0  0  0  0  0  0  0  0  0  0
   10.1331   21.8328    2.5918 C   0  0  0  0  0  0  0  0  0  0  0  0
    6.0970   23.6027    4.7128 C   0  0  0  0  0  0  0  0  0  0  0  0
    5.7803   22.2934    5.0892 O   0  0  0  0  0  0  0  0  0  0  0  0
    5.4399   24.5890    5.1010 O   0  0  0  0  0  0  0  0  0  0  0  0
    5.3215   21.6927    4.3924 H   0  0  0  0  0  0  0  0  0  0  0  0
   15.6944   21.4228   -5.1924 C   0  0  0  0  0  0  0  0  0  0  0  0
   14.6573   20.3956   -5.0083 C   0  0  0  0  0  0  0  0  0  0  0  0
   14.0983   19.6492   -5.9705 N   0  0  0  0  0  0  0  0  0  0  0  0
   13.1652   18.7127   -5.7929 C   0  0  0  0  0  0  0  0  0  0  0  0
   12.6972   18.4453   -4.5391 C   0  0  0  0  0  0  0  0  0  0  0  0
   13.2186   19.1697   -3.4816 C   0  0  0  0  0  0  0  0  0  0  0  0
   14.1774   20.1227   -3.7155 C   0  0  0  0  0  0  0  0  0  0  0  0
   14.7257   20.8863   -2.5863 C   0  0  0  0  0  0  0  0  0  0  0  0
 19 20  1  0  0  0
 20 13  1  0  0  0
 13 14  2  0  0  0
 14 15  1  0  0  0
 15 16  2  0  0  0
 16 17  1  0  0  0
 17 18  2  0  0  0
 15  1  1  0  0  0
  1  2  1  0  0  0
  2  3  2  0  0  0
  2  4  1  0  0  0
  4  5  1  0  0  0
  5  6  2  0  0  0
  5  7  1  0  0  0
  7  8  1  0  0  0
  8  9  1  0  0  0
  9 10  1  0  0  0
 10 38  1  0  0  0
 38 39  1  0  0  0
 39 40  2  0  0  0
 40 41  1  0  0  0
 41 42  2  0  0  0
 42 43  1  0  0  0
 43 44  2  0  0  0
 44 45  1  0  0  0
 10 11  1  0  0  0
 11 12  1  0  0  0
  4 21  1  0  0  0
 21 22  2  0  0  0
 22 23  1  0  0  0
 23 24  2  0  0  0
 24 25  1  0  0  0
 25 26  2  0  0  0
 24 27  1  0  0  0
 27 28  2  0  0  0
 28 29  1  0  0  0
 29 30  2  0  0  0
 30 31  1  0  0  0
 31 32  2  0  0  0
 32 33  1  0  0  0
 30 34  1  0  0  0
 34 35  1  0  0  0
 34 36  2  0  0  0
 18 13  1  0  0  0
  7  1  1  0  0  0
 12  7  1  0  0  0
 26 21  1  0  0  0
 32 27  1  0  0  0
 44 39  1  0  0  0
 35 37  1  0  0  0
M  END
> <minimizedAffinity>
28.87393

> <CNNscore>
0.4582245946

> <CNNaffinity>
7.6565880775

> <CNN_VS>
3.5084369183

> <CNNaffinity_variance>
0.8793591261

$$$$
[H]OC(=O)c1c([H])c([H])c(-c2nc([H])c(N3C(=O)N(c4nc([H])nc(OC([H])([H])[H])c4[H])C4(C3=O)C([H])([H])C([H])([H])N(C([H])([H])c3nc([H])c([H])c([H])c3C([H])([H])[H])C([H])([H])C4([H])[H])c([H])c2[H])c(C([H])([H])[H])c1[H]


 45 50  0  0  0  0  0  0  0  0999 V2000
   13.9201   21.9891   -0.4072 N   0  0  0  0  0  0  0  0  0  0  0  0
   14.4393   22.7485   -1.5086 C   0  0  0  0  0  0  0  0  0  0  0  0
   15.3678   22.3200   -2.2758 O   0  0  0  0  0  0  0  0  0  0  0  0
   13.7494   23.9916   -1.5606 N   0  0  0  0  0  0  0  0  0  0  0  0
   12.8116   23.9763   -0.4843 C   0  0  0  0  0  0  0  0  0  0  0  0
   12.3125   25.0064    0.0410 O   0  0  0  0  0  0  0  0  0  0  0  0
   12.6038   22.5452   -0.1800 C   0  0  0  0  0  0  0  0  0  0  0  0
   12.1932   22.3146    1.2409 C   0  0  0  0  0  0  0  0  0  0  0  0
   10.9621   21.4637    1.3524 C   0  0  0  0  0  0  0  0  0  0  0  0
    9.8825   21.8995    0.4960 N   0  0  0  0  0  0  0  0  0  0  0  0
   10.1953   22.1685   -0.8449 C   0  0  0  0  0  0  0  0  0  0  0  0
   11.6328   21.9762   -1.1655 C   0  0  0  0  0  0  0  0  0  0  0  0
   15.6570   18.7776    0.3282 C   0  0  0  0  0  0  0  0  0  0  0  0
   15.0189   19.7844   -0.3607 C   0  0  0  0  0  0  0  0  0  0  0  0
   14.5827   20.9328    0.2824 C   0  0  0  0  0  0  0  0  0  0  0  0
   14.8193   21.0008    1.6049 N   0  0  0  0  0  0  0  0  0  0  0  0
   15.4408   20.0311    2.3017 C   0  0  0  0  0  0  0  0  0  0  0  0
   15.8511   18.9231    1.6305 N   0  0  0  0  0  0  0  0  0  0  0  0
   17.2966   17.0385   -0.2834 C   0  0  0  0  0  0  0  0  0  0  0  0
   16.0548   17.6696   -0.4038 O   0  0  0  0  0  0  0  0  0  0  0  0
   13.9982   25.0085   -2.5268 C   0  0  0  0  0  0  0  0  0  0  0  0
   13.0495   25.5926   -3.2863 C   0  0  0  0  0  0  0  0  0  0  0  0
   13.4188   26.5831   -4.2094 C   0  0  0  0  0  0  0  0  0  0  0  0
   14.7052   26.9789   -4.3663 C   0  0  0  0  0  0  0  0  0  0  0  0
   15.6340   26.3530   -3.5694 N   0  0  0  0  0  0  0  0  0  0  0  0
   15.3036   25.4262   -2.7037 C   0  0  0  0  0  0  0  0  0  0  0  0
   15.2031   27.9363   -5.3314 C   0  0  0  0  0  0  0  0  0  0  0  0
   15.7326   27.3952   -6.5262 C   0  0  0  0  0  0  0  0  0  0  0  0
   16.2793   28.1556   -7.5183 C   0  0  0  0  0  0  0  0  0  0  0  0
   16.3078   29.5093   -7.3281 C   0  0  0  0  0  0  0  0  0  0  0  0
   15.8125   30.0679   -6.1975 C   0  0  0  0  0  0  0  0  0  0  0  0
   15.2507   29.2668   -5.1798 C   0  0  0  0  0  0  0  0  0  0  0  0
   14.7954   29.9616   -3.9513 C   0  0  0  0  0  0  0  0  0  0  0  0
   16.8810   30.3731   -8.3561 C   0  0  0  0  0  0  0  0  0  0  0  0
   16.8712   31.7580   -8.1598 O   0  0  0  0  0  0  0  0  0  0  0  0
   17.3615   29.8448   -9.3784 O   0  0  0  0  0  0  0  0  0  0  0  0
   15.9791   32.2531   -8.2858 H   0  0  0  0  0  0  0  0  0  0  0  0
    8.9469   22.7198    1.1669 C   0  0  0  0  0  0  0  0  0  0  0  0
    8.3080   22.1681    2.3718 C   0  0  0  0  0  0  0  0  0  0  0  0
    7.5628   21.0566    2.4382 N   0  0  0  0  0  0  0  0  0  0  0  0
    6.9953   20.5583    3.5376 C   0  0  0  0  0  0  0  0  0  0  0  0
    7.1523   21.1947    4.7346 C   0  0  0  0  0  0  0  0  0  0  0  0
    7.9081   22.3537    4.7613 C   0  0  0  0  0  0  0  0  0  0  0  0
    8.4717   22.8263    3.6032 C   0  0  0  0  0  0  0  0  0  0  0  0
    9.2732   24.0572    3.6413 C   0  0  0  0  0  0  0  0  0  0  0  0
 19 20  1  0  0  0
 20 13  1  0  0  0
 13 14  2  0  0  0
 14 15  1  0  0  0
 15 16  2  0  0  0
 16 17  1  0  0  0
 17 18  2  0  0  0
 15  1  1  0  0  0
  1  2  1  0  0  0
  2  3  2  0  0  0
  2  4  1  0  0  0
  4  5  1  0  0  0
  5  6  2  0  0  0
  5  7  1  0  0  0
  7  8  1  0  0  0
  8  9  1  0  0  0
  9 10  1  0  0  0
 10 38  1  0  0  0
 38 39  1  0  0  0
 39 40  2  0  0  0
 40 41  1  0  0  0
 41 42  2  0  0  0
 42 43  1  0  0  0
 43 44  2  0  0  0
 44 45  1  0  0  0
 10 11  1  0  0  0
 11 12  1  0  0  0
  4 21  1  0  0  0
 21 22  2  0  0  0
 22 23  1  0  0  0
 23 24  2  0  0  0
 24 25  1  0  0  0
 25 26  2  0  0  0
 24 27  1  0  0  0
 27 28  2  0  0  0
 28 29  1  0  0  0
 29 30  2  0  0  0
 30 31  1  0  0  0
 31 32  2  0  0  0
 32 33  1  0  0  0
 30 34  1  0  0  0
 34 35  1  0  0  0
 34 36  2  0  0  0
 18 13  1  0  0  0
  7  1  1  0  0  0
 12  7  1  0  0  0
 26 21  1  0  0  0
 32 27  1  0  0  0
 44 39  1  0  0  0
 35 37  1  0  0  0
M  END
> <minimizedAffinity>
32.66936

> <CNNscore>
0.4570808709

> <CNNaffinity>
7.6017808914

> <CNN_VS>
3.4746286869

> <CNNaffinity_variance>
0.2251657546

$$$$
[H]OC(=O)c1c([H])c([H])c(-c2nc([H])c(N3C(=O)N(c4nc([H])nc(OC([H])([H])[H])c4[H])C4(C3=O)C([H])([H])C([H])([H])N(C([H])([H])c3nc([H])c([H])c([H])c3C([H])([H])[H])C([H])([H])C4([H])[H])c([H])c2[H])c(C([H])([H])[H])c1[H]


 45 50  0  0  0  0  0  0  0  0999 V2000
   10.5730   23.5872    1.2854 N   0  0  0  0  0  0  0  0  0  0  0  0
   11.5095   23.5182    0.2002 C   0  0  0  0  0  0  0  0  0  0  0  0
   11.9590   22.4154   -0.2648 O   0  0  0  0  0  0  0  0  0  0  0  0
   11.8096   24.8446   -0.2178 N   0  0  0  0  0  0  0  0  0  0  0  0
   11.0483   25.7127    0.6218 C   0  0  0  0  0  0  0  0  0  0  0  0
   11.3275   26.9218    0.8369 O   0  0  0  0  0  0  0  0  0  0  0  0
    9.9384   24.8778    1.1269 C   0  0  0  0  0  0  0  0  0  0  0  0
    9.4178   25.3535    2.4473 C   0  0  0  0  0  0  0  0  0  0  0  0
    7.9274   25.5293    2.4477 C   0  0  0  0  0  0  0  0  0  0  0  0
    7.4377   26.2881    1.3192 N   0  0  0  0  0  0  0  0  0  0  0  0
    7.9066   25.9234    0.0483 C   0  0  0  0  0  0  0  0  0  0  0  0
    8.8755   24.7979    0.0773 C   0  0  0  0  0  0  0  0  0  0  0  0
    8.8887   21.1562    3.5492 C   0  0  0  0  0  0  0  0  0  0  0  0
    9.0799   22.1219    2.5867 C   0  0  0  0  0  0  0  0  0  0  0  0
   10.3482   22.5888    2.2769 C   0  0  0  0  0  0  0  0  0  0  0  0
   11.3674   22.0459    2.9669 N   0  0  0  0  0  0  0  0  0  0  0  0
   11.2078   21.1009    3.9121 C   0  0  0  0  0  0  0  0  0  0  0  0
    9.9468   20.6731    4.1831 N   0  0  0  0  0  0  0  0  0  0  0  0
    6.4591   21.5745    3.6433 C   0  0  0  0  0  0  0  0  0  0  0  0
    7.5830   20.7554    3.7866 O   0  0  0  0  0  0  0  0  0  0  0  0
   12.7061   25.1698   -1.2762 C   0  0  0  0  0  0  0  0  0  0  0  0
   14.0503   25.1166   -1.1853 C   0  0  0  0  0  0  0  0  0  0  0  0
   14.8307   25.4657   -2.2982 C   0  0  0  0  0  0  0  0  0  0  0  0
   14.2783   25.8567   -3.4721 C   0  0  0  0  0  0  0  0  0  0  0  0
   12.9048   25.8949   -3.5134 N   0  0  0  0  0  0  0  0  0  0  0  0
   12.1637   25.5721   -2.4818 C   0  0  0  0  0  0  0  0  0  0  0  0
   14.9857   26.3026   -4.6540 C   0  0  0  0  0  0  0  0  0  0  0  0
   14.7788   27.6503   -5.0298 C   0  0  0  0  0  0  0  0  0  0  0  0
   15.3365   28.2155   -6.1393 C   0  0  0  0  0  0  0  0  0  0  0  0
   16.1334   27.4205   -6.9154 C   0  0  0  0  0  0  0  0  0  0  0  0
   16.3563   26.1239   -6.5917 C   0  0  0  0  0  0  0  0  0  0  0  0
   15.7709   25.5539   -5.4404 C   0  0  0  0  0  0  0  0  0  0  0  0
   16.0185   24.1109   -5.2044 C   0  0  0  0  0  0  0  0  0  0  0  0
   16.7571   27.9714   -8.1151 C   0  0  0  0  0  0  0  0  0  0  0  0
   16.3582   29.2335   -8.5671 O   0  0  0  0  0  0  0  0  0  0  0  0
   17.6276   27.2952   -8.6983 O   0  0  0  0  0  0  0  0  0  0  0  0
   15.4503   29.3063   -9.0440 H   0  0  0  0  0  0  0  0  0  0  0  0
    7.2444   27.6557    1.6199 C   0  0  0  0  0  0  0  0  0  0  0  0
    7.1156   28.0227    3.0388 C   0  0  0  0  0  0  0  0  0  0  0  0
    8.1088   28.3983    3.8560 N   0  0  0  0  0  0  0  0  0  0  0  0
    7.9811   28.7389    5.1393 C   0  0  0  0  0  0  0  0  0  0  0  0
    6.7510   28.7228    5.7301 C   0  0  0  0  0  0  0  0  0  0  0  0
    5.6643   28.3465    4.9604 C   0  0  0  0  0  0  0  0  0  0  0  0
    5.8470   28.0049    3.6443 C   0  0  0  0  0  0  0  0  0  0  0  0
    4.6871   27.6074    2.8347 C   0  0  0  0  0  0  0  0  0  0  0  0
 19 20  1  0  0  0
 20 13  1  0  0  0
 13 14  2  0  0  0
 14 15  1  0  0  0
 15 16  2  0  0  0
 16 17  1  0  0  0
 17 18  2  0  0  0
 15  1  1  0  0  0
  1  2  1  0  0  0
  2  3  2  0  0  0
  2  4  1  0  0  0
  4  5  1  0  0  0
  5  6  2  0  0  0
  5  7  1  0  0  0
  7  8  1  0  0  0
  8  9  1  0  0  0
  9 10  1  0  0  0
 10 38  1  0  0  0
 38 39  1  0  0  0
 39 40  2  0  0  0
 40 41  1  0  0  0
 41 42  2  0  0  0
 42 43  1  0  0  0
 43 44  2  0  0  0
 44 45  1  0  0  0
 10 11  1  0  0  0
 11 12  1  0  0  0
  4 21  1  0  0  0
 21 22  2  0  0  0
 22 23  1  0  0  0
 23 24  2  0  0  0
 24 25  1  0  0  0
 25 26  2  0  0  0
 24 27  1  0  0  0
 27 28  2  0  0  0
 28 29  1  0  0  0
 29 30  2  0  0  0
 30 31  1  0  0  0
 31 32  2  0  0  0
 32 33  1  0  0  0
 30 34  1  0  0  0
 34 35  1  0  0  0
 34 36  2  0  0  0
 18 13  1  0  0  0
  7  1  1  0  0  0
 12  7  1  0  0  0
 26 21  1  0  0  0
 32 27  1  0  0  0
 44 39  1  0  0  0
 35 37  1  0  0  0
M  END
> <minimizedAffinity>
26.18224

> <CNNscore>
0.4506829083

> <CNNaffinity>
7.0647468567

> <CNN_VS>
3.1839606762

> <CNNaffinity_variance>
0.3530365825

$$$$
[H]OC(=O)c1c([H])c([H])c(-c2nc([H])c(N3C(=O)N(c4nc([H])nc(OC([H])([H])[H])c4[H])C4(C3=O)C([H])([H])C([H])([H])N(C([H])([H])c3nc([H])c([H])c([H])c3C([H])([H])[H])C([H])([H])C4([H])[H])c([H])c2[H])c(C([H])([H])[H])c1[H]


 45 50  0  0  0  0  0  0  0  0999 V2000
   10.4789   22.2123    2.7109 N   0  0  0  0  0  0  0  0  0  0  0  0
   11.3499   22.4823    1.6029 C   0  0  0  0  0  0  0  0  0  0  0  0
   11.9257   21.5623    0.9273 O   0  0  0  0  0  0  0  0  0  0  0  0
   11.4303   23.8921    1.4292 N   0  0  0  0  0  0  0  0  0  0  0  0
   10.6025   24.4694    2.4390 C   0  0  0  0  0  0  0  0  0  0  0  0
   10.7164   25.6487    2.8660 O   0  0  0  0  0  0  0  0  0  0  0  0
    9.6565   23.3982    2.8149 C   0  0  0  0  0  0  0  0  0  0  0  0
    9.1513   23.5448    4.2164 C   0  0  0  0  0  0  0  0  0  0  0  0
    7.6538   23.4880    4.2963 C   0  0  0  0  0  0  0  0  0  0  0  0
    6.9941   24.3526    3.3443 N   0  0  0  0  0  0  0  0  0  0  0  0
    7.4350   24.2972    2.0137 C   0  0  0  0  0  0  0  0  0  0  0  0
    8.5562   23.3460    1.8027 C   0  0  0  0  0  0  0  0  0  0  0  0
    9.3080   19.4097    4.8664 C   0  0  0  0  0  0  0  0  0  0  0  0
    9.3010   20.5548    4.1022 C   0  0  0  0  0  0  0  0  0  0  0  0
   10.4593   21.0302    3.5064 C   0  0  0  0  0  0  0  0  0  0  0  0
   11.5763   20.3115    3.7191 N   0  0  0  0  0  0  0  0  0  0  0  0
   11.6103   19.1891    4.4615 C   0  0  0  0  0  0  0  0  0  0  0  0
   10.4513   18.7601    5.0266 N   0  0  0  0  0  0  0  0  0  0  0  0
    7.7447   17.6933    5.7012 C   0  0  0  0  0  0  0  0  0  0  0  0
    8.0994   19.0161    5.4198 O   0  0  0  0  0  0  0  0  0  0  0  0
   12.2066   24.5344    0.4220 C   0  0  0  0  0  0  0  0  0  0  0  0
   11.7258   24.9507   -0.7669 C   0  0  0  0  0  0  0  0  0  0  0  0
   12.5916   25.5690   -1.6821 C   0  0  0  0  0  0  0  0  0  0  0  0
   13.9048   25.7661   -1.4122 C   0  0  0  0  0  0  0  0  0  0  0  0
   14.3456   25.3236   -0.1878 N   0  0  0  0  0  0  0  0  0  0  0  0
   13.5486   24.7442    0.6763 C   0  0  0  0  0  0  0  0  0  0  0  0
   14.8960   26.3272   -2.3061 C   0  0  0  0  0  0  0  0  0  0  0  0
   16.2235   26.3597   -1.8191 C   0  0  0  0  0  0  0  0  0  0  0  0
   17.2675   26.8929   -2.5171 C   0  0  0  0  0  0  0  0  0  0  0  0
   16.9951   27.4186   -3.7496 C   0  0  0  0  0  0  0  0  0  0  0  0
   15.7370   27.4088   -4.2523 C   0  0  0  0  0  0  0  0  0  0  0  0
   14.6674   26.8539   -3.5168 C   0  0  0  0  0  0  0  0  0  0  0  0
   13.3159   26.9487   -4.1199 C   0  0  0  0  0  0  0  0  0  0  0  0
   18.0732   28.0027   -4.5421 C   0  0  0  0  0  0  0  0  0  0  0  0
   18.2662   29.3876   -4.5066 O   0  0  0  0  0  0  0  0  0  0  0  0
   18.7881   27.2440   -5.2265 O   0  0  0  0  0  0  0  0  0  0  0  0
   17.6053   29.9766   -5.0294 H   0  0  0  0  0  0  0  0  0  0  0  0
    6.6235   25.5986    3.8997 C   0  0  0  0  0  0  0  0  0  0  0  0
    6.6207   26.7635    3.0011 C   0  0  0  0  0  0  0  0  0  0  0  0
    6.3131   26.7606    1.6970 N   0  0  0  0  0  0  0  0  0  0  0  0
    6.3037   27.8241    0.8919 C   0  0  0  0  0  0  0  0  0  0  0  0
    6.6282   29.0550    1.3839 C   0  0  0  0  0  0  0  0  0  0  0  0
    6.9606   29.1534    2.7236 C   0  0  0  0  0  0  0  0  0  0  0  0
    6.9556   28.0300    3.5112 C   0  0  0  0  0  0  0  0  0  0  0  0
    7.3092   28.1443    4.9327 C   0  0  0  0  0  0  0  0  0  0  0  0
 19 20  1  0  0  0
 20 13  1  0  0  0
 13 14  2  0  0  0
 14 15  1  0  0  0
 15 16  2  0  0  0
 16 17  1  0  0  0
 17 18  2  0  0  0
 15  1  1  0  0  0
  1  2  1  0  0  0
  2  3  2  0  0  0
  2  4  1  0  0  0
  4  5  1  0  0  0
  5  6  2  0  0  0
  5  7  1  0  0  0
  7  8  1  0  0  0
  8  9  1  0  0  0
  9 10  1  0  0  0
 10 38  1  0  0  0
 38 39  1  0  0  0
 39 40  2  0  0  0
 40 41  1  0  0  0
 41 42  2  0  0  0
 42 43  1  0  0  0
 43 44  2  0  0  0
 44 45  1  0  0  0
 10 11  1  0  0  0
 11 12  1  0  0  0
  4 21  1  0  0  0
 21 22  2  0  0  0
 22 23  1  0  0  0
 23 24  2  0  0  0
 24 25  1  0  0  0
 25 26  2  0  0  0
 24 27  1  0  0  0
 27 28  2  0  0  0
 28 29  1  0  0  0
 29 30  2  0  0  0
 30 31  1  0  0  0
 31 32  2  0  0  0
 32 33  1  0  0  0
 30 34  1  0  0  0
 34 35  1  0  0  0
 34 36  2  0  0  0
 18 13  1  0  0  0
  7  1  1  0  0  0
 12  7  1  0  0  0
 26 21  1  0  0  0
 32 27  1  0  0  0
 44 39  1  0  0  0
 35 37  1  0  0  0
M  END
> <minimizedAffinity>
1.17213

> <CNNscore>
0.4492727816

> <CNNaffinity>
7.7457070351

> <CNN_VS>
3.4799354076

> <CNNaffinity_variance>
1.4322091341

$$$$
[H]OC(=O)c1c([H])c([H])c(-c2nc([H])c(N3C(=O)N(c4nc([H])nc(OC([H])([H])[H])c4[H])C4(C3=O)C([H])([H])C([H])([H])N(C([H])([H])c3nc([H])c([H])c([H])c3C([H])([H])[H])C([H])([H])C4([H])[H])c([H])c2[H])c(C([H])([H])[H])c1[H]


 45 50  0  0  0  0  0  0  0  0999 V2000
   14.7984   23.4689   -0.2887 N   0  0  0  0  0  0  0  0  0  0  0  0
   14.6812   24.5936   -1.1722 C   0  0  0  0  0  0  0  0  0  0  0  0
   15.6911   25.1884   -1.6828 O   0  0  0  0  0  0  0  0  0  0  0  0
   13.2995   24.8849   -1.3462 N   0  0  0  0  0  0  0  0  0  0  0  0
   12.5854   23.9289   -0.5624 C   0  0  0  0  0  0  0  0  0  0  0  0
   11.4096   24.0888   -0.1402 O   0  0  0  0  0  0  0  0  0  0  0  0
   13.5212   22.7974   -0.3954 C   0  0  0  0  0  0  0  0  0  0  0  0
   13.2546   22.0117    0.8506 C   0  0  0  0  0  0  0  0  0  0  0  0
   13.1327   20.5395    0.5865 C   0  0  0  0  0  0  0  0  0  0  0  0
   12.2400   20.2233   -0.5054 N   0  0  0  0  0  0  0  0  0  0  0  0
   12.4054   20.9423   -1.6987 C   0  0  0  0  0  0  0  0  0  0  0  0
   13.4894   21.9556   -1.6316 C   0  0  0  0  0  0  0  0  0  0  0  0
   18.0491   23.6626    1.5187 C   0  0  0  0  0  0  0  0  0  0  0  0
   16.9623   24.0195    0.7525 C   0  0  0  0  0  0  0  0  0  0  0  0
   15.9336   23.1246    0.5006 C   0  0  0  0  0  0  0  0  0  0  0  0
   16.0622   21.9011    1.0450 N   0  0  0  0  0  0  0  0  0  0  0  0
   17.1138   21.5271    1.7976 C   0  0  0  0  0  0  0  0  0  0  0  0
   18.0989   22.4368    2.0183 N   0  0  0  0  0  0  0  0  0  0  0  0
   19.8664   24.6975    2.8275 C   0  0  0  0  0  0  0  0  0  0  0  0
   19.0252   24.6277    1.7130 O   0  0  0  0  0  0  0  0  0  0  0  0
   12.7975   25.9414   -2.1594 C   0  0  0  0  0  0  0  0  0  0  0  0
   12.9712   26.0303   -3.4935 C   0  0  0  0  0  0  0  0  0  0  0  0
   12.4310   27.1240   -4.1875 C   0  0  0  0  0  0  0  0  0  0  0  0
   11.7339   28.1025   -3.5608 C   0  0  0  0  0  0  0  0  0  0  0  0
   11.5852   27.9660   -2.2011 N   0  0  0  0  0  0  0  0  0  0  0  0
   12.0845   26.9504   -1.5403 C   0  0  0  0  0  0  0  0  0  0  0  0
   11.1960   29.3031   -4.1653 C   0  0  0  0  0  0  0  0  0  0  0  0
   10.0496   29.1302   -4.9754 C   0  0  0  0  0  0  0  0  0  0  0  0
    9.4447   30.1504   -5.6497 C   0  0  0  0  0  0  0  0  0  0  0  0
    9.9912   31.3974   -5.5231 C   0  0  0  0  0  0  0  0  0  0  0  0
   11.0898   31.6058   -4.7582 C   0  0  0  0  0  0  0  0  0  0  0  0
   11.7044   30.5390   -4.0673 C   0  0  0  0  0  0  0  0  0  0  0  0
   12.9402   30.8518   -3.3095 C   0  0  0  0  0  0  0  0  0  0  0  0
    9.3862   32.5275   -6.2219 C   0  0  0  0  0  0  0  0  0  0  0  0
    9.0855   32.4005   -7.5819 O   0  0  0  0  0  0  0  0  0  0  0  0
    9.1573   33.5718   -5.5798 O   0  0  0  0  0  0  0  0  0  0  0  0
    9.8650   32.4449   -8.2507 H   0  0  0  0  0  0  0  0  0  0  0  0
   10.9359   19.8943   -0.0703 C   0  0  0  0  0  0  0  0  0  0  0  0
   10.1403   20.9667    0.5476 C   0  0  0  0  0  0  0  0  0  0  0  0
   10.3848   21.5611    1.7232 N   0  0  0  0  0  0  0  0  0  0  0  0
    9.6631   22.5399    2.2712 C   0  0  0  0  0  0  0  0  0  0  0  0
    8.5635   23.0220    1.6224 C   0  0  0  0  0  0  0  0  0  0  0  0
    8.2341   22.4659    0.3987 C   0  0  0  0  0  0  0  0  0  0  0  0
    9.0081   21.4608   -0.1235 C   0  0  0  0  0  0  0  0  0  0  0  0
    8.6510   20.8770   -1.4237 C   0  0  0  0  0  0  0  0  0  0  0  0
 19 20  1  0  0  0
 20 13  1  0  0  0
 13 14  2  0  0  0
 14 15  1  0  0  0
 15 16  2  0  0  0
 16 17  1  0  0  0
 17 18  2  0  0  0
 15  1  1  0  0  0
  1  2  1  0  0  0
  2  3  2  0  0  0
  2  4  1  0  0  0
  4  5  1  0  0  0
  5  6  2  0  0  0
  5  7  1  0  0  0
  7  8  1  0  0  0
  8  9  1  0  0  0
  9 10  1  0  0  0
 10 38  1  0  0  0
 38 39  1  0  0  0
 39 40  2  0  0  0
 40 41  1  0  0  0
 41 42  2  0  0  0
 42 43  1  0  0  0
 43 44  2  0  0  0
 44 45  1  0  0  0
 10 11  1  0  0  0
 11 12  1  0  0  0
  4 21  1  0  0  0
 21 22  2  0  0  0
 22 23  1  0  0  0
 23 24  2  0  0  0
 24 25  1  0  0  0
 25 26  2  0  0  0
 24 27  1  0  0  0
 27 28  2  0  0  0
 28 29  1  0  0  0
 29 30  2  0  0  0
 30 31  1  0  0  0
 31 32  2  0  0  0
 32 33  1  0  0  0
 30 34  1  0  0  0
 34 35  1  0  0  0
 34 36  2  0  0  0
 18 13  1  0  0  0
  7  1  1  0  0  0
 12  7  1  0  0  0
 26 21  1  0  0  0
 32 27  1  0  0  0
 44 39  1  0  0  0
 35 37  1  0  0  0
M  END
> <minimizedAffinity>
33.10152

> <CNNscore>
0.4304628074

> <CNNaffinity>
7.5454483032

> <CNN_VS>
3.2480349541

> <CNNaffinity_variance>
0.4373574257

$$$$
[H]c1nc2c([H])c(N([H])[H])c([H])c(-c3c([H])nc(C#N)c([H])c3C([H])([H])[H])n2n1


 21 23  0  0  0  0  0  0  0  0999 V2000
   13.3555   24.7681   -1.9549 C   0  0  0  0  0  0  0  0  0  0  0  0
   12.0102   24.5021   -1.8444 C   0  0  0  0  0  0  0  0  0  0  0  0
   11.4066   24.0712   -0.6809 C   0  0  0  0  0  0  0  0  0  0  0  0
   10.0025   23.8073   -0.6145 N   0  0  0  0  0  0  0  0  0  0  0  0
   12.2422   23.9138    0.4045 C   0  0  0  0  0  0  0  0  0  0  0  0
   13.5912   24.1881    0.2670 C   0  0  0  0  0  0  0  0  0  0  0  0
   14.6157   24.1153    1.1677 N   0  0  0  0  0  0  0  0  0  0  0  0
   15.7622   24.4825    0.5712 C   0  0  0  0  0  0  0  0  0  0  0  0
   15.4732   24.7872   -0.6992 N   0  0  0  0  0  0  0  0  0  0  0  0
   14.1521   24.6047   -0.8726 N   0  0  0  0  0  0  0  0  0  0  0  0
    9.3932   24.6772   -0.5913 H   0  0  0  0  0  0  0  0  0  0  0  0
    9.5966   22.8532   -0.5904 H   0  0  0  0  0  0  0  0  0  0  0  0
   15.0603   23.0073   -3.3207 C   0  0  0  0  0  0  0  0  0  0  0  0
   14.7876   24.3547   -3.8762 C   0  0  0  0  0  0  0  0  0  0  0  0
   15.3541   24.7756   -5.0606 C   0  0  0  0  0  0  0  0  0  0  0  0
   15.0733   26.0400   -5.5433 C   0  0  0  0  0  0  0  0  0  0  0  0
   14.2542   26.8734   -4.8780 N   0  0  0  0  0  0  0  0  0  0  0  0
   13.6835   26.4983   -3.7204 C   0  0  0  0  0  0  0  0  0  0  0  0
   13.9502   25.2223   -3.2073 C   0  0  0  0  0  0  0  0  0  0  0  0
   15.6943   26.4394   -6.7968 C   0  0  0  0  0  0  0  0  0  0  0  0
   16.2040   26.7537   -7.7879 N   0  0  0  0  0  0  0  0  0  0  0  0
 13 14  1  0  0  0
 14 15  2  0  0  0
 15 16  1  0  0  0
 16 17  2  0  0  0
 17 18  1  0  0  0
 18 19  2  0  0  0
 19  1  1  0  0  0
  1  2  2  0  0  0
  2  3  1  0  0  0
  3  4  1  0  0  0
  3  5  2  0  0  0
  5  6  1  0  0  0
  6  7  2  0  0  0
  7  8  1  0  0  0
  8  9  2  0  0  0
  9 10  1  0  0  0
 16 20  1  0  0  0
 20 21  3  0  0  0
 19 14  1  0  0  0
 10  1  1  0  0  0
 10  6  1  0  0  0
  4 11  1  0  0  0
  4 12  1  0  0  0
M  END
> <minimizedAffinity>
-8.58664

> <CNNscore>
0.8731004596

> <CNNaffinity>
6.9990935326

> <CNN_VS>
6.1109118462

> <CNNaffinity_variance>
0.1530416161

$$$$
[H]c1nc2c([H])c(N([H])[H])c([H])c(-c3c([H])nc(C#N)c([H])c3C([H])([H])[H])n2n1


 21 23  0  0  0  0  0  0  0  0999 V2000
   13.0798   22.7666   -1.3909 C   0  0  0  0  0  0  0  0  0  0  0  0
   11.8002   22.2910   -1.5625 C   0  0  0  0  0  0  0  0  0  0  0  0
   11.2436   21.2915   -0.7912 C   0  0  0  0  0  0  0  0  0  0  0  0
    9.9074   20.8297   -1.0076 N   0  0  0  0  0  0  0  0  0  0  0  0
   12.0565   20.7727    0.1943 C   0  0  0  0  0  0  0  0  0  0  0  0
   13.3390   21.2685    0.3462 C   0  0  0  0  0  0  0  0  0  0  0  0
   14.3288   20.9358    1.2269 N   0  0  0  0  0  0  0  0  0  0  0  0
   15.4114   21.6957    0.9906 C   0  0  0  0  0  0  0  0  0  0  0  0
   15.1163   22.5067   -0.0319 N   0  0  0  0  0  0  0  0  0  0  0  0
   13.8554   22.2384   -0.4151 N   0  0  0  0  0  0  0  0  0  0  0  0
    9.1527   21.4943   -0.6652 H   0  0  0  0  0  0  0  0  0  0  0  0
    9.6771   19.9249   -1.4592 H   0  0  0  0  0  0  0  0  0  0  0  0
   11.9277   25.3187   -1.2132 C   0  0  0  0  0  0  0  0  0  0  0  0
   13.0583   25.0793   -2.1421 C   0  0  0  0  0  0  0  0  0  0  0  0
   13.5688   26.0867   -2.9329 C   0  0  0  0  0  0  0  0  0  0  0  0
   14.6239   25.8207   -3.7854 C   0  0  0  0  0  0  0  0  0  0  0  0
   15.1662   24.5925   -3.8601 N   0  0  0  0  0  0  0  0  0  0  0  0
   14.6954   23.5855   -3.1048 C   0  0  0  0  0  0  0  0  0  0  0  0
   13.6266   23.8261   -2.2316 C   0  0  0  0  0  0  0  0  0  0  0  0
   15.1285   26.9153   -4.6001 C   0  0  0  0  0  0  0  0  0  0  0  0
   15.5147   27.7880   -5.2557 N   0  0  0  0  0  0  0  0  0  0  0  0
 13 14  1  0  0  0
 14 15  2  0  0  0
 15 16  1  0  0  0
 16 17  2  0  0  0
 17 18  1  0  0  0
 18 19  2  0  0  0
 19  1  1  0  0  0
  1  2  2  0  0  0
  2  3  1  0  0  0
  3  4  1  0  0  0
  3  5  2  0  0  0
  5  6  1  0  0  0
  6  7  2  0  0  0
  7  8  1  0  0  0
  8  9  2  0  0  0
  9 10  1  0  0  0
 16 20  1  0  0  0
 20 21  3  0  0  0
 19 14  1  0  0  0
 10  1  1  0  0  0
 10  6  1  0  0  0
  4 11  1  0  0  0
  4 12  1  0  0  0
M  END
> <minimizedAffinity>
-7.24937

> <CNNscore>
0.5523924232

> <CNNaffinity>
6.8230500221

> <CNN_VS>
3.7690012455

> <CNNaffinity_variance>
0.4567908347

$$$$
[H]c1nc2c([H])c(N([H])[H])c([H])c(-c3c([H])nc(C#N)c([H])c3C([H])([H])[H])n2n1


 21 23  0  0  0  0  0  0  0  0999 V2000
   15.7286   24.6222   -2.0575 C   0  0  0  0  0  0  0  0  0  0  0  0
   15.2998   23.4052   -1.5802 C   0  0  0  0  0  0  0  0  0  0  0  0
   15.3169   23.0556   -0.2456 C   0  0  0  0  0  0  0  0  0  0  0  0
   14.8603   21.7767    0.2034 N   0  0  0  0  0  0  0  0  0  0  0  0
   15.8001   24.0151    0.6187 C   0  0  0  0  0  0  0  0  0  0  0  0
   16.2249   25.2308    0.1133 C   0  0  0  0  0  0  0  0  0  0  0  0
   16.7365   26.3313    0.7404 N   0  0  0  0  0  0  0  0  0  0  0  0
   17.0074   27.2800   -0.1717 C   0  0  0  0  0  0  0  0  0  0  0  0
   16.6721   26.7902   -1.3709 N   0  0  0  0  0  0  0  0  0  0  0  0
   16.1982   25.5454   -1.1856 N   0  0  0  0  0  0  0  0  0  0  0  0
   13.8040   21.6628    0.2020 H   0  0  0  0  0  0  0  0  0  0  0  0
   15.4933   21.0138    0.5080 H   0  0  0  0  0  0  0  0  0  0  0  0
   15.7802   22.5051   -3.8979 C   0  0  0  0  0  0  0  0  0  0  0  0
   15.7174   23.9054   -4.3811 C   0  0  0  0  0  0  0  0  0  0  0  0
   15.6830   24.2041   -5.7267 C   0  0  0  0  0  0  0  0  0  0  0  0
   15.6245   25.5235   -6.1345 C   0  0  0  0  0  0  0  0  0  0  0  0
   15.6004   26.5282   -5.2411 N   0  0  0  0  0  0  0  0  0  0  0  0
   15.6325   26.2760   -3.9214 C   0  0  0  0  0  0  0  0  0  0  0  0
   15.6919   24.9480   -3.4791 C   0  0  0  0  0  0  0  0  0  0  0  0
   15.5900   25.7892   -7.5644 C   0  0  0  0  0  0  0  0  0  0  0  0
   15.5470   26.0074   -8.7008 N   0  0  0  0  0  0  0  0  0  0  0  0
 13 14  1  0  0  0
 14 15  2  0  0  0
 15 16  1  0  0  0
 16 17  2  0  0  0
 17 18  1  0  0  0
 18 19  2  0  0  0
 19  1  1  0  0  0
  1  2  2  0  0  0
  2  3  1  0  0  0
  3  4  1  0  0  0
  3  5  2  0  0  0
  5  6  1  0  0  0
  6  7  2  0  0  0
  7  8  1  0  0  0
  8  9  2  0  0  0
  9 10  1  0  0  0
 16 20  1  0  0  0
 20 21  3  0  0  0
 19 14  1  0  0  0
 10  1  1  0  0  0
 10  6  1  0  0  0
  4 11  1  0  0  0
  4 12  1  0  0  0
M  END
> <minimizedAffinity>
7.33856

> <CNNscore>
0.5042244196

> <CNNaffinity>
6.3582639694

> <CNN_VS>
3.2059919834

> <CNNaffinity_variance>
0.5932423472

$$$$
[H]c1nc2c([H])c(N([H])[H])c([H])c(-c3c([H])nc(C#N)c([H])c3C([H])([H])[H])n2n1


 21 23  0  0  0  0  0  0  0  0999 V2000
   14.0354   22.7972   -1.2605 C   0  0  0  0  0  0  0  0  0  0  0  0
   15.0418   22.5231   -0.3633 C   0  0  0  0  0  0  0  0  0  0  0  0
   14.9149   21.6330    0.6833 C   0  0  0  0  0  0  0  0  0  0  0  0
   15.9906   21.3807    1.5914 N   0  0  0  0  0  0  0  0  0  0  0  0
   13.6905   21.0084    0.7931 C   0  0  0  0  0  0  0  0  0  0  0  0
   12.6953   21.3015   -0.1220 C   0  0  0  0  0  0  0  0  0  0  0  0
   11.4176   20.8320   -0.2359 N   0  0  0  0  0  0  0  0  0  0  0  0
   10.8207   21.4115   -1.2910 C   0  0  0  0  0  0  0  0  0  0  0  0
   11.7089   22.2439   -1.8464 N   0  0  0  0  0  0  0  0  0  0  0  0
   12.8435   22.1690   -1.1282 N   0  0  0  0  0  0  0  0  0  0  0  0
   16.7693   20.7782    1.1924 H   0  0  0  0  0  0  0  0  0  0  0  0
   16.0236   21.7474    2.5610 H   0  0  0  0  0  0  0  0  0  0  0  0
   12.6731   25.2458   -1.1174 C   0  0  0  0  0  0  0  0  0  0  0  0
   13.5446   24.9497   -2.2798 C   0  0  0  0  0  0  0  0  0  0  0  0
   13.7089   25.8536   -3.3078 C   0  0  0  0  0  0  0  0  0  0  0  0
   14.5310   25.5377   -4.3732 C   0  0  0  0  0  0  0  0  0  0  0  0
   15.1778   24.3601   -4.4285 N   0  0  0  0  0  0  0  0  0  0  0  0
   15.0423   23.4540   -3.4452 C   0  0  0  0  0  0  0  0  0  0  0  0
   14.2154   23.7472   -2.3529 C   0  0  0  0  0  0  0  0  0  0  0  0
   14.6731   26.5231   -5.4340 C   0  0  0  0  0  0  0  0  0  0  0  0
   14.8030   27.3046   -6.2785 N   0  0  0  0  0  0  0  0  0  0  0  0
 13 14  1  0  0  0
 14 15  2  0  0  0
 15 16  1  0  0  0
 16 17  2  0  0  0
 17 18  1  0  0  0
 18 19  2  0  0  0
 19  1  1  0  0  0
  1  2  2  0  0  0
  2  3  1  0  0  0
  3  4  1  0  0  0
  3  5  2  0  0  0
  5  6  1  0  0  0
  6  7  2  0  0  0
  7  8  1  0  0  0
  8  9  2  0  0  0
  9 10  1  0  0  0
 16 20  1  0  0  0
 20 21  3  0  0  0
 19 14  1  0  0  0
 10  1  1  0  0  0
 10  6  1  0  0  0
  4 11  1  0  0  0
  4 12  1  0  0  0
M  END
> <minimizedAffinity>
-7.82455

> <CNNscore>
0.4747216105

> <CNNaffinity>
6.7004270554

> <CNN_VS>
3.1808376312

> <CNNaffinity_variance>
0.0876176730

$$$$
[H]c1nc2c([H])c(N([H])[H])c([H])c(-c3c([H])nc(C#N)c([H])c3C([H])([H])[H])n2n1


 21 23  0  0  0  0  0  0  0  0999 V2000
   15.0569   24.9211   -1.8234 C   0  0  0  0  0  0  0  0  0  0  0  0
   16.1427   24.7010   -1.0076 C   0  0  0  0  0  0  0  0  0  0  0  0
   16.0467   24.4452    0.3448 C   0  0  0  0  0  0  0  0  0  0  0  0
   17.2055   24.2225    1.1528 N   0  0  0  0  0  0  0  0  0  0  0  0
   14.7679   24.4190    0.8599 C   0  0  0  0  0  0  0  0  0  0  0  0
   13.6931   24.6432    0.0183 C   0  0  0  0  0  0  0  0  0  0  0  0
   12.3506   24.6718    0.2691 N   0  0  0  0  0  0  0  0  0  0  0  0
   11.6883   24.9301   -0.8710 C   0  0  0  0  0  0  0  0  0  0  0  0
   12.5992   25.0656   -1.8417 N   0  0  0  0  0  0  0  0  0  0  0  0
   13.8130   24.8893   -1.2901 N   0  0  0  0  0  0  0  0  0  0  0  0
   17.6568   23.2700    1.0195 H   0  0  0  0  0  0  0  0  0  0  0  0
   17.5865   24.9211    1.8180 H   0  0  0  0  0  0  0  0  0  0  0  0
   15.1868   22.7288   -3.5696 C   0  0  0  0  0  0  0  0  0  0  0  0
   15.2706   24.1088   -4.1054 C   0  0  0  0  0  0  0  0  0  0  0  0
   15.4125   24.3518   -5.4551 C   0  0  0  0  0  0  0  0  0  0  0  0
   15.4866   25.6541   -5.9128 C   0  0  0  0  0  0  0  0  0  0  0  0
   15.4230   26.6952   -5.0642 N   0  0  0  0  0  0  0  0  0  0  0  0
   15.2849   26.4975   -3.7421 C   0  0  0  0  0  0  0  0  0  0  0  0
   15.2071   25.1882   -3.2498 C   0  0  0  0  0  0  0  0  0  0  0  0
   15.6361   25.8607   -7.3451 C   0  0  0  0  0  0  0  0  0  0  0  0
   15.7633   26.0104   -8.4862 N   0  0  0  0  0  0  0  0  0  0  0  0
 13 14  1  0  0  0
 14 15  2  0  0  0
 15 16  1  0  0  0
 16 17  2  0  0  0
 17 18  1  0  0  0
 18 19  2  0  0  0
 19  1  1  0  0  0
  1  2  2  0  0  0
  2  3  1  0  0  0
  3  4  1  0  0  0
  3  5  2  0  0  0
  5  6  1  0  0  0
  6  7  2  0  0  0
  7  8  1  0  0  0
  8  9  2  0  0  0
  9 10  1  0  0  0
 16 20  1  0  0  0
 20 21  3  0  0  0
 19 14  1  0  0  0
 10  1  1  0  0  0
 10  6  1  0  0  0
  4 11  1  0  0  0
  4 12  1  0  0  0
M  END
> <minimizedAffinity>
-6.52217

> <CNNscore>
0.4536456764

> <CNNaffinity>
6.6963806152

> <CNN_VS>
3.0377840996

> <CNNaffinity_variance>
0.2007797062

$$$$
[H]c1nc2c([H])c(N([H])[H])c([H])c(-c3c([H])nc(C#N)c([H])c3C([H])([H])[H])n2n1


 21 23  0  0  0  0  0  0  0  0999 V2000
   13.4904   24.0349   -1.7771 C   0  0  0  0  0  0  0  0  0  0  0  0
   12.8085   24.8383   -0.8926 C   0  0  0  0  0  0  0  0  0  0  0  0
   12.2374   24.3797    0.2767 C   0  0  0  0  0  0  0  0  0  0  0  0
   11.5373   25.2542    1.1659 N   0  0  0  0  0  0  0  0  0  0  0  0
   12.3865   23.0321    0.5277 C   0  0  0  0  0  0  0  0  0  0  0  0
   13.0768   22.2462   -0.3777 C   0  0  0  0  0  0  0  0  0  0  0  0
   13.3619   20.9102   -0.3682 N   0  0  0  0  0  0  0  0  0  0  0  0
   14.0627   20.5949   -1.4704 C   0  0  0  0  0  0  0  0  0  0  0  0
   14.2240   21.7191   -2.1779 N   0  0  0  0  0  0  0  0  0  0  0  0
   13.6212   22.7152   -1.5048 N   0  0  0  0  0  0  0  0  0  0  0  0
   12.1650   25.8912    1.7393 H   0  0  0  0  0  0  0  0  0  0  0  0
   10.5043   25.2775    1.2557 H   0  0  0  0  0  0  0  0  0  0  0  0
   12.4781   26.4477   -2.7901 C   0  0  0  0  0  0  0  0  0  0  0  0
   13.5786   25.7506   -3.4981 C   0  0  0  0  0  0  0  0  0  0  0  0
   14.1282   26.2586   -4.6560 C   0  0  0  0  0  0  0  0  0  0  0  0
   15.1532   25.5767   -5.2846 C   0  0  0  0  0  0  0  0  0  0  0  0
   15.6284   24.4212   -4.7877 N   0  0  0  0  0  0  0  0  0  0  0  0
   15.1179   23.8952   -3.6613 C   0  0  0  0  0  0  0  0  0  0  0  0
   14.0782   24.5647   -3.0027 C   0  0  0  0  0  0  0  0  0  0  0  0
   15.7011   26.1518   -6.5035 C   0  0  0  0  0  0  0  0  0  0  0  0
   16.1378   26.6247   -7.4660 N   0  0  0  0  0  0  0  0  0  0  0  0
 13 14  1  0  0  0
 14 15  2  0  0  0
 15 16  1  0  0  0
 16 17  2  0  0  0
 17 18  1  0  0  0
 18 19  2  0  0  0
 19  1  1  0  0  0
  1  2  2  0  0  0
  2  3  1  0  0  0
  3  4  1  0  0  0
  3  5  2  0  0  0
  5  6  1  0  0  0
  6  7  2  0  0  0
  7  8  1  0  0  0
  8  9  2  0  0  0
  9 10  1  0  0  0
 16 20  1  0  0  0
 20 21  3  0  0  0
 19 14  1  0  0  0
 10  1  1  0  0  0
 10  6  1  0  0  0
  4 11  1  0  0  0
  4 12  1  0  0  0
M  END
> <minimizedAffinity>
-7.73033

> <CNNscore>
0.3197651505

> <CNNaffinity>
6.1495466232

> <CNN_VS>
1.9664107561

> <CNNaffinity_variance>
0.1520070285

$$$$
[H]c1nc2c([H])c(N([H])[H])c([H])c(-c3c([H])nc(C#N)c([H])c3C([H])([H])[H])n2n1


 21 23  0  0  0  0  0  0  0  0999 V2000
   13.9306   23.6328   -1.4026 C   0  0  0  0  0  0  0  0  0  0  0  0
   14.0822   22.2967   -1.6939 C   0  0  0  0  0  0  0  0  0  0  0  0
   13.2933   21.3002   -1.1570 C   0  0  0  0  0  0  0  0  0  0  0  0
   13.4892   19.9233   -1.4904 N   0  0  0  0  0  0  0  0  0  0  0  0
   12.3111   21.7188   -0.2844 C   0  0  0  0  0  0  0  0  0  0  0  0
   12.1795   23.0680   -0.0084 C   0  0  0  0  0  0  0  0  0  0  0  0
   11.3063   23.7344    0.8037 N   0  0  0  0  0  0  0  0  0  0  0  0
   11.5635   25.0522    0.7508 C   0  0  0  0  0  0  0  0  0  0  0  0
   12.5918   25.2264   -0.0873 N   0  0  0  0  0  0  0  0  0  0  0  0
   12.9576   24.0148   -0.5422 N   0  0  0  0  0  0  0  0  0  0  0  0
   13.1459   19.6533   -2.4588 H   0  0  0  0  0  0  0  0  0  0  0  0
   13.9278   19.2333   -0.8523 H   0  0  0  0  0  0  0  0  0  0  0  0
   16.1937   24.4518    0.0394 C   0  0  0  0  0  0  0  0  0  0  0  0
   15.9010   25.0528   -1.2840 C   0  0  0  0  0  0  0  0  0  0  0  0
   16.7184   26.0160   -1.8364 C   0  0  0  0  0  0  0  0  0  0  0  0
   16.4090   26.5502   -3.0731 C   0  0  0  0  0  0  0  0  0  0  0  0
   15.3209   26.1481   -3.7530 N   0  0  0  0  0  0  0  0  0  0  0  0
   14.5006   25.2115   -3.2467 C   0  0  0  0  0  0  0  0  0  0  0  0
   14.7895   24.6523   -1.9951 C   0  0  0  0  0  0  0  0  0  0  0  0
   17.3011   27.5636   -3.6151 C   0  0  0  0  0  0  0  0  0  0  0  0
   18.0228   28.3581   -4.0494 N   0  0  0  0  0  0  0  0  0  0  0  0
 13 14  1  0  0  0
 14 15  2  0  0  0
 15 16  1  0  0  0
 16 17  2  0  0  0
 17 18  1  0  0  0
 18 19  2  0  0  0
 19  1  1  0  0  0
  1  2  2  0  0  0
  2  3  1  0  0  0
  3  4  1  0  0  0
  3  5  2  0  0  0
  5  6  1  0  0  0
  6  7  2  0  0  0
  7  8  1  0  0  0
  8  9  2  0  0  0
  9 10  1  0  0  0
 16 20  1  0  0  0
 20 21  3  0  0  0
 19 14  1  0  0  0
 10  1  1  0  0  0
 10  6  1  0  0  0
  4 11  1  0  0  0
  4 12  1  0  0  0
M  END
> <minimizedAffinity>
-6.67784

> <CNNscore>
0.3007712960

> <CNNaffinity>
6.6349744797

> <CNN_VS>
1.9956098795

> <CNNaffinity_variance>
0.4573906064

$$$$
[H]c1nc2c([H])c(N([H])[H])c([H])c(-c3c([H])nc(C#N)c([H])c3C([H])([H])[H])n2n1


 21 23  0  0  0  0  0  0  0  0999 V2000
   13.7352   24.2482   -1.8625 C   0  0  0  0  0  0  0  0  0  0  0  0
   13.7859   24.7172   -3.1550 C   0  0  0  0  0  0  0  0  0  0  0  0
   14.8763   25.3704   -3.6917 C   0  0  0  0  0  0  0  0  0  0  0  0
   14.8823   25.8404   -5.0425 N   0  0  0  0  0  0  0  0  0  0  0  0
   15.9510   25.5377   -2.8441 C   0  0  0  0  0  0  0  0  0  0  0  0
   15.8746   25.0568   -1.5493 C   0  0  0  0  0  0  0  0  0  0  0  0
   16.7800   25.0911   -0.5269 N   0  0  0  0  0  0  0  0  0  0  0  0
   16.2553   24.4917    0.5551 C   0  0  0  0  0  0  0  0  0  0  0  0
   15.0257   24.0781    0.2273 N   0  0  0  0  0  0  0  0  0  0  0  0
   14.8054   24.4267   -1.0527 N   0  0  0  0  0  0  0  0  0  0  0  0
   14.9988   25.0770   -5.7720 H   0  0  0  0  0  0  0  0  0  0  0  0
   14.7824   26.8387   -5.3051 H   0  0  0  0  0  0  0  0  0  0  0  0
   13.8168   21.4505   -1.6677 C   0  0  0  0  0  0  0  0  0  0  0  0
   12.6023   22.1876   -1.2432 C   0  0  0  0  0  0  0  0  0  0  0  0
   11.4954   21.5312   -0.7484 C   0  0  0  0  0  0  0  0  0  0  0  0
   10.3836   22.2569   -0.3638 C   0  0  0  0  0  0  0  0  0  0  0  0
   10.3586   23.5976   -0.4628 N   0  0  0  0  0  0  0  0  0  0  0  0
   11.4184   24.2720   -0.9404 C   0  0  0  0  0  0  0  0  0  0  0  0
   12.5593   23.5626   -1.3378 C   0  0  0  0  0  0  0  0  0  0  0  0
    9.2399   21.5205    0.1522 C   0  0  0  0  0  0  0  0  0  0  0  0
    8.3391   20.9202    0.5631 N   0  0  0  0  0  0  0  0  0  0  0  0
 13 14  1  0  0  0
 14 15  2  0  0  0
 15 16  1  0  0  0
 16 17  2  0  0  0
 17 18  1  0  0  0
 18 19  2  0  0  0
 19  1  1  0  0  0
  1  2  2  0  0  0
  2  3  1  0  0  0
  3  4  1  0  0  0
  3  5  2  0  0  0
  5  6  1  0  0  0
  6  7  2  0  0  0
  7  8  1  0  0  0
  8  9  2  0  0  0
  9 10  1  0  0  0
 16 20  1  0  0  0
 20 21  3  0  0  0
 19 14  1  0  0  0
 10  1  1  0  0  0
 10  6  1  0  0  0
  4 11  1  0  0  0
  4 12  1  0  0  0
M  END
> <minimizedAffinity>
-6.41632

> <CNNscore>
0.2779848278

> <CNNaffinity>
6.5633468628

> <CNN_VS>
1.8245108128

> <CNNaffinity_variance>
0.2327089012

$$$$
[H]c1nc2c([H])c(N([H])[H])c([H])c(-c3c([H])nc(C#N)c([H])c3C([H])([H])[H])n2n1


 21 23  0  0  0  0  0  0  0  0999 V2000
   12.7389   24.1268   -0.8943 C   0  0  0  0  0  0  0  0  0  0  0  0
   11.9333   24.7126    0.0548 C   0  0  0  0  0  0  0  0  0  0  0  0
   11.1910   24.0019    0.9754 C   0  0  0  0  0  0  0  0  0  0  0  0
   10.3670   24.6561    1.9441 N   0  0  0  0  0  0  0  0  0  0  0  0
   11.2969   22.6292    0.8985 C   0  0  0  0  0  0  0  0  0  0  0  0
   12.1138   22.0651   -0.0649 C   0  0  0  0  0  0  0  0  0  0  0  0
   12.3905   20.7581   -0.3502 N   0  0  0  0  0  0  0  0  0  0  0  0
   13.2489   20.6979   -1.3822 C   0  0  0  0  0  0  0  0  0  0  0  0
   13.5182   21.9549   -1.7532 N   0  0  0  0  0  0  0  0  0  0  0  0
   12.8235   22.7766   -0.9464 N   0  0  0  0  0  0  0  0  0  0  0  0
   10.9027   25.1049    2.7443 H   0  0  0  0  0  0  0  0  0  0  0  0
    9.3324   24.6982    1.8856 H   0  0  0  0  0  0  0  0  0  0  0  0
   15.4972   24.4040   -0.4620 C   0  0  0  0  0  0  0  0  0  0  0  0
   14.8618   25.0541   -1.6334 C   0  0  0  0  0  0  0  0  0  0  0  0
   15.5952   25.8017   -2.5301 C   0  0  0  0  0  0  0  0  0  0  0  0
   14.9633   26.3910   -3.6091 C   0  0  0  0  0  0  0  0  0  0  0  0
   13.6404   26.2496   -3.8038 N   0  0  0  0  0  0  0  0  0  0  0  0
   12.8928   25.5284   -2.9510 C   0  0  0  0  0  0  0  0  0  0  0  0
   13.5065   24.9197   -1.8484 C   0  0  0  0  0  0  0  0  0  0  0  0
   15.7785   27.1703   -4.5281 C   0  0  0  0  0  0  0  0  0  0  0  0
   16.4137   27.8000   -5.2634 N   0  0  0  0  0  0  0  0  0  0  0  0
 13 14  1  0  0  0
 14 15  2  0  0  0
 15 16  1  0  0  0
 16 17  2  0  0  0
 17 18  1  0  0  0
 18 19  2  0  0  0
 19  1  1  0  0  0
  1  2  2  0  0  0
  2  3  1  0  0  0
  3  4  1  0  0  0
  3  5  2  0  0  0
  5  6  1  0  0  0
  6  7  2  0  0  0
  7  8  1  0  0  0
  8  9  2  0  0  0
  9 10  1  0  0  0
 16 20  1  0  0  0
 20 21  3  0  0  0
 19 14  1  0  0  0
 10  1  1  0  0  0
 10  6  1  0  0  0
  4 11  1  0  0  0
  4 12  1  0  0  0
M  END
> <minimizedAffinity>
-6.94072

> <CNNscore>
0.2667339742

> <CNNaffinity>
6.3333044052

> <CNN_VS>
1.6893074512

> <CNNaffinity_variance>
0.1856701523

$$$$
[H]c1nc2c([H])c([H])c([H])c(-c3c([H])c([H])c(C#N)c([H])c3[H])n2n1


 17 19  0  0  0  0  0  0  0  0999 V2000
   13.4196   24.9909   -1.9758 C   0  0  0  0  0  0  0  0  0  0  0  0
   12.0541   25.0610   -1.8497 C   0  0  0  0  0  0  0  0  0  0  0  0
   11.4325   24.7896   -0.6315 C   0  0  0  0  0  0  0  0  0  0  0  0
   12.1965   24.4500    0.4474 C   0  0  0  0  0  0  0  0  0  0  0  0
   13.5714   24.3869    0.2922 C   0  0  0  0  0  0  0  0  0  0  0  0
   14.5054   24.0842    1.1807 N   0  0  0  0  0  0  0  0  0  0  0  0
   15.6943   24.1584    0.5534 C   0  0  0  0  0  0  0  0  0  0  0  0
   15.4344   24.5129   -0.7284 N   0  0  0  0  0  0  0  0  0  0  0  0
   14.1493   24.6570   -0.9085 N   0  0  0  0  0  0  0  0  0  0  0  0
   15.1287   25.8347   -5.8047 C   0  0  0  0  0  0  0  0  0  0  0  0
   14.2073   26.6785   -5.2197 C   0  0  0  0  0  0  0  0  0  0  0  0
   13.6500   26.4191   -3.9893 C   0  0  0  0  0  0  0  0  0  0  0  0
   13.9957   25.2887   -3.2817 C   0  0  0  0  0  0  0  0  0  0  0  0
   14.9164   24.4304   -3.8491 C   0  0  0  0  0  0  0  0  0  0  0  0
   15.4635   24.7076   -5.0829 C   0  0  0  0  0  0  0  0  0  0  0  0
   16.1809   26.3138   -8.1270 N   0  0  0  0  0  0  0  0  0  0  0  0
   15.7111   26.1111   -7.0970 C   0  0  0  0  0  0  0  0  0  0  0  0
 16 17  3  0  0  0
 17 10  1  0  0  0
 10 11  2  0  0  0
 11 12  1  0  0  0
 12 13  2  0  0  0
 13 14  1  0  0  0
 14 15  2  0  0  0
 13  1  1  0  0  0
  1  2  2  0  0  0
  2  3  1  0  0  0
  3  4  2  0  0  0
  4  5  1  0  0  0
  5  6  2  0  0  0
  6  7  1  0  0  0
  7  8  2  0  0  0
  8  9  1  0  0  0
 15 10  1  0  0  0
  9  1  1  0  0  0
  9  5  1  0  0  0
M  END
> <minimizedAffinity>
-8.80894

> <CNNscore>
0.8281534910

> <CNNaffinity>
6.3032712936

> <CNN_VS>
5.2200760841

> <CNNaffinity_variance>
0.0689622313

$$$$
[H]c1nc2c([H])c([H])c([H])c(-c3c([H])c([H])c(C#N)c([H])c3[H])n2n1


 17 19  0  0  0  0  0  0  0  0999 V2000
   14.2974   22.6682   -1.6908 C   0  0  0  0  0  0  0  0  0  0  0  0
   13.3867   21.6680   -1.9268 C   0  0  0  0  0  0  0  0  0  0  0  0
   13.1816   20.6517   -0.9946 C   0  0  0  0  0  0  0  0  0  0  0  0
   13.8985   20.6557    0.1669 C   0  0  0  0  0  0  0  0  0  0  0  0
   14.8104   21.6765    0.3792 C   0  0  0  0  0  0  0  0  0  0  0  0
   15.6092   21.8895    1.4136 N   0  0  0  0  0  0  0  0  0  0  0  0
   16.3087   23.0104    1.1555 C   0  0  0  0  0  0  0  0  0  0  0  0
   15.8997   23.4512   -0.0589 N   0  0  0  0  0  0  0  0  0  0  0  0
   14.9887   22.6542   -0.5485 N   0  0  0  0  0  0  0  0  0  0  0  0
   14.7378   25.7027   -4.6727 C   0  0  0  0  0  0  0  0  0  0  0  0
   15.4316   24.5122   -4.7412 C   0  0  0  0  0  0  0  0  0  0  0  0
   15.2994   23.5283   -3.7893 C   0  0  0  0  0  0  0  0  0  0  0  0
   14.4555   23.6957   -2.7133 C   0  0  0  0  0  0  0  0  0  0  0  0
   13.7514   24.8801   -2.6254 C   0  0  0  0  0  0  0  0  0  0  0  0
   13.8975   25.8539   -3.5890 C   0  0  0  0  0  0  0  0  0  0  0  0
   14.9762   27.5594   -6.4687 N   0  0  0  0  0  0  0  0  0  0  0  0
   14.8801   26.7331   -5.6746 C   0  0  0  0  0  0  0  0  0  0  0  0
 16 17  3  0  0  0
 17 10  1  0  0  0
 10 11  2  0  0  0
 11 12  1  0  0  0
 12 13  2  0  0  0
 13 14  1  0  0  0
 14 15  2  0  0  0
 13  1  1  0  0  0
  1  2  2  0  0  0
  2  3  1  0  0  0
  3  4  2  0  0  0
  4  5  1  0  0  0
  5  6  2  0  0  0
  6  7  1  0  0  0
  7  8  2  0  0  0
  8  9  1  0  0  0
 15 10  1  0  0  0
  9  1  1  0  0  0
  9  5  1  0  0  0
M  END
> <minimizedAffinity>
-6.09815

> <CNNscore>
0.7290869951

> <CNNaffinity>
6.5933847427

> <CNN_VS>
4.8071508408

> <CNNaffinity_variance>
0.2851931453

$$$$
[H]c1nc2c([H])c([H])c([H])c(-c3c([H])c([H])c(C#N)c([H])c3[H])n2n1


 17 19  0  0  0  0  0  0  0  0999 V2000
   12.6734   24.0610   -0.9912 C   0  0  0  0  0  0  0  0  0  0  0  0
   11.4510   24.5055   -0.5513 C   0  0  0  0  0  0  0  0  0  0  0  0
   10.8338   23.9247    0.5558 C   0  0  0  0  0  0  0  0  0  0  0  0
   11.4576   22.9006    1.2078 C   0  0  0  0  0  0  0  0  0  0  0  0
   12.6900   22.4722    0.7429 C   0  0  0  0  0  0  0  0  0  0  0  0
   13.4752   21.5105    1.2036 N   0  0  0  0  0  0  0  0  0  0  0  0
   14.5666   21.4727    0.4163 C   0  0  0  0  0  0  0  0  0  0  0  0
   14.4022   22.4383   -0.5203 N   0  0  0  0  0  0  0  0  0  0  0  0
   13.2673   23.0581   -0.3397 N   0  0  0  0  0  0  0  0  0  0  0  0
   14.4020   25.9637   -4.4096 C   0  0  0  0  0  0  0  0  0  0  0  0
   13.3383   26.5204   -3.7299 C   0  0  0  0  0  0  0  0  0  0  0  0
   12.7731   25.9192   -2.6296 C   0  0  0  0  0  0  0  0  0  0  0  0
   13.2547   24.7187   -2.1555 C   0  0  0  0  0  0  0  0  0  0  0  0
   14.3192   24.1441   -2.8211 C   0  0  0  0  0  0  0  0  0  0  0  0
   14.8718   24.7617   -3.9217 C   0  0  0  0  0  0  0  0  0  0  0  0
   15.4577   27.1208   -6.4775 N   0  0  0  0  0  0  0  0  0  0  0  0
   14.9921   26.5986   -5.5647 C   0  0  0  0  0  0  0  0  0  0  0  0
 16 17  3  0  0  0
 17 10  1  0  0  0
 10 11  2  0  0  0
 11 12  1  0  0  0
 12 13  2  0  0  0
 13 14  1  0  0  0
 14 15  2  0  0  0
 13  1  1  0  0  0
  1  2  2  0  0  0
  2  3  1  0  0  0
  3  4  2  0  0  0
  4  5  1  0  0  0
  5  6  2  0  0  0
  6  7  1  0  0  0
  7  8  2  0  0  0
  8  9  1  0  0  0
 15 10  1  0  0  0
  9  1  1  0  0  0
  9  5  1  0  0  0
M  END
> <minimizedAffinity>
-8.41729

> <CNNscore>
0.5909112692

> <CNNaffinity>
6.1702980995

> <CNN_VS>
3.6460986137

> <CNNaffinity_variance>
0.2672259212

$$$$
[H]c1nc2c([H])c([H])c([H])c(-c3c([H])c([H])c(C#N)c([H])c3[H])n2n1


 17 19  0  0  0  0  0  0  0  0999 V2000
   13.7313   22.9892   -1.4002 C   0  0  0  0  0  0  0  0  0  0  0  0
   14.3447   21.7608   -1.4188 C   0  0  0  0  0  0  0  0  0  0  0  0
   14.0609   20.8038   -0.4453 C   0  0  0  0  0  0  0  0  0  0  0  0
   13.1603   21.0971    0.5375 C   0  0  0  0  0  0  0  0  0  0  0  0
   12.5564   22.3436    0.5323 C   0  0  0  0  0  0  0  0  0  0  0  0
   11.6641   22.8498    1.3697 N   0  0  0  0  0  0  0  0  0  0  0  0
   11.3811   24.0967    0.9481 C   0  0  0  0  0  0  0  0  0  0  0  0
   12.1312   24.3104   -0.1601 N   0  0  0  0  0  0  0  0  0  0  0  0
   12.8533   23.2567   -0.4304 N   0  0  0  0  0  0  0  0  0  0  0  0
   14.7792   25.7462   -4.4977 C   0  0  0  0  0  0  0  0  0  0  0  0
   13.7862   26.0269   -3.5821 C   0  0  0  0  0  0  0  0  0  0  0  0
   13.4393   25.1495   -2.5813 C   0  0  0  0  0  0  0  0  0  0  0  0
   14.0801   23.9367   -2.4521 C   0  0  0  0  0  0  0  0  0  0  0  0
   15.0773   23.6357   -3.3583 C   0  0  0  0  0  0  0  0  0  0  0  0
   15.4104   24.5278   -4.3540 C   0  0  0  0  0  0  0  0  0  0  0  0
   15.4409   27.4133   -6.3719 N   0  0  0  0  0  0  0  0  0  0  0  0
   15.1399   26.6706   -5.5469 C   0  0  0  0  0  0  0  0  0  0  0  0
 16 17  3  0  0  0
 17 10  1  0  0  0
 10 11  2  0  0  0
 11 12  1  0  0  0
 12 13  2  0  0  0
 13 14  1  0  0  0
 14 15  2  0  0  0
 13  1  1  0  0  0
  1  2  2  0  0  0
  2  3  1  0  0  0
  3  4  2  0  0  0
  4  5  1  0  0  0
  5  6  2  0  0  0
  6  7  1  0  0  0
  7  8  2  0  0  0
  8  9  1  0  0  0
 15 10  1  0  0  0
  9  1  1  0  0  0
  9  5  1  0  0  0
M  END
> <minimizedAffinity>
-8.20678

> <CNNscore>
0.5685222149

> <CNNaffinity>
6.0994043350

> <CNN_VS>
3.4676468372

> <CNNaffinity_variance>
0.2258478105

$$$$
[H]c1nc2c([H])c([H])c([H])c(-c3c([H])c([H])c(C#N)c([H])c3[H])n2n1


 17 19  0  0  0  0  0  0  0  0999 V2000
   14.5990   24.8521   -1.7331 C   0  0  0  0  0  0  0  0  0  0  0  0
   15.6841   24.7742   -0.8953 C   0  0  0  0  0  0  0  0  0  0  0  0
   15.5200   24.5364    0.4687 C   0  0  0  0  0  0  0  0  0  0  0  0
   14.2614   24.3796    0.9731 C   0  0  0  0  0  0  0  0  0  0  0  0
   13.1849   24.4629    0.1055 C   0  0  0  0  0  0  0  0  0  0  0  0
   11.8901   24.3463    0.3576 N   0  0  0  0  0  0  0  0  0  0  0  0
   11.2388   24.5043   -0.8100 C   0  0  0  0  0  0  0  0  0  0  0  0
   12.1855   24.7171   -1.7559 N   0  0  0  0  0  0  0  0  0  0  0  0
   13.3760   24.6959   -1.2203 N   0  0  0  0  0  0  0  0  0  0  0  0
   15.3514   25.5556   -5.8844 C   0  0  0  0  0  0  0  0  0  0  0  0
   14.8278   26.5350   -5.0658 C   0  0  0  0  0  0  0  0  0  0  0  0
   14.5810   26.3221   -3.7296 C   0  0  0  0  0  0  0  0  0  0  0  0
   14.8513   25.1032   -3.1471 C   0  0  0  0  0  0  0  0  0  0  0  0
   15.3759   24.1088   -3.9485 C   0  0  0  0  0  0  0  0  0  0  0  0
   15.6161   24.3414   -5.2851 C   0  0  0  0  0  0  0  0  0  0  0  0
   15.8203   25.9483   -8.4054 N   0  0  0  0  0  0  0  0  0  0  0  0
   15.6087   25.7838   -7.2869 C   0  0  0  0  0  0  0  0  0  0  0  0
 16 17  3  0  0  0
 17 10  1  0  0  0
 10 11  2  0  0  0
 11 12  1  0  0  0
 12 13  2  0  0  0
 13 14  1  0  0  0
 14 15  2  0  0  0
 13  1  1  0  0  0
  1  2  2  0  0  0
  2  3  1  0  0  0
  3  4  2  0  0  0
  4  5  1  0  0  0
  5  6  2  0  0  0
  6  7  1  0  0  0
  7  8  2  0  0  0
  8  9  1  0  0  0
 15 10  1  0  0  0
  9  1  1  0  0  0
  9  5  1  0  0  0
M  END
> <minimizedAffinity>
-7.50373

> <CNNscore>
0.4644921422

> <CNNaffinity>
5.7080321312

> <CNN_VS>
2.6513359547

> <CNNaffinity_variance>
0.4553432465

$$$$
[H]c1nc2c([H])c([H])c([H])c(-c3c([H])c([H])c(C#N)c([H])c3[H])n2n1


 17 19  0  0  0  0  0  0  0  0999 V2000
   13.0546   24.4225   -1.5606 C   0  0  0  0  0  0  0  0  0  0  0  0
   12.4667   25.3262   -0.7102 C   0  0  0  0  0  0  0  0  0  0  0  0
   11.8495   24.9051    0.4670 C   0  0  0  0  0  0  0  0  0  0  0  0
   11.8323   23.5751    0.7736 C   0  0  0  0  0  0  0  0  0  0  0  0
   12.4328   22.6855   -0.1018 C   0  0  0  0  0  0  0  0  0  0  0  0
   12.5414   21.3683   -0.0200 N   0  0  0  0  0  0  0  0  0  0  0  0
   13.2091   20.9527   -1.1127 C   0  0  0  0  0  0  0  0  0  0  0  0
   13.4905   22.0612   -1.8396 N   0  0  0  0  0  0  0  0  0  0  0  0
   13.0271   23.1259   -1.2426 N   0  0  0  0  0  0  0  0  0  0  0  0
   14.9119   25.9124   -5.1137 C   0  0  0  0  0  0  0  0  0  0  0  0
   13.8462   26.5616   -4.5252 C   0  0  0  0  0  0  0  0  0  0  0  0
   13.2399   26.0935   -3.3829 C   0  0  0  0  0  0  0  0  0  0  0  0
   13.6800   24.9397   -2.7720 C   0  0  0  0  0  0  0  0  0  0  0  0
   14.7455   24.2741   -3.3446 C   0  0  0  0  0  0  0  0  0  0  0  0
   15.3397   24.7589   -4.4892 C   0  0  0  0  0  0  0  0  0  0  0  0
   16.0477   26.7855   -7.2764 N   0  0  0  0  0  0  0  0  0  0  0  0
   15.5452   26.4077   -6.3133 C   0  0  0  0  0  0  0  0  0  0  0  0
 16 17  3  0  0  0
 17 10  1  0  0  0
 10 11  2  0  0  0
 11 12  1  0  0  0
 12 13  2  0  0  0
 13 14  1  0  0  0
 14 15  2  0  0  0
 13  1  1  0  0  0
  1  2  2  0  0  0
  2  3  1  0  0  0
  3  4  2  0  0  0
  4  5  1  0  0  0
  5  6  2  0  0  0
  6  7  1  0  0  0
  7  8  2  0  0  0
  8  9  1  0  0  0
 15 10  1  0  0  0
  9  1  1  0  0  0
  9  5  1  0  0  0
M  END
> <minimizedAffinity>
-9.03377

> <CNNscore>
0.4232885838

> <CNNaffinity>
5.8157057762

> <CNN_VS>
2.4617218971

> <CNNaffinity_variance>
0.0565782376

$$$$
[H]c1nc2c([H])c([H])c([H])c(-c3c([H])c([H])c(C#N)c([H])c3[H])n2n1


 17 19  0  0  0  0  0  0  0  0999 V2000
   13.0588   24.3945   -1.5645 C   0  0  0  0  0  0  0  0  0  0  0  0
   12.4724   25.3119   -0.7278 C   0  0  0  0  0  0  0  0  0  0  0  0
   11.8390   24.9077    0.4467 C   0  0  0  0  0  0  0  0  0  0  0  0
   11.8042   23.5807    0.7645 C   0  0  0  0  0  0  0  0  0  0  0  0
   12.4035   22.6771   -0.0972 C   0  0  0  0  0  0  0  0  0  0  0  0
   12.4969   21.3595   -0.0031 N   0  0  0  0  0  0  0  0  0  0  0  0
   13.1708   20.9272   -1.0854 C   0  0  0  0  0  0  0  0  0  0  0  0
   13.4714   22.0263   -1.8190 N   0  0  0  0  0  0  0  0  0  0  0  0
   13.0139   23.1011   -1.2357 N   0  0  0  0  0  0  0  0  0  0  0  0
   14.9219   25.8880   -5.1130 C   0  0  0  0  0  0  0  0  0  0  0  0
   15.3562   24.7326   -4.4969 C   0  0  0  0  0  0  0  0  0  0  0  0
   14.7662   24.2414   -3.3557 C   0  0  0  0  0  0  0  0  0  0  0  0
   13.7017   24.8943   -2.7740 C   0  0  0  0  0  0  0  0  0  0  0  0
   13.2510   26.0530   -3.3746 C   0  0  0  0  0  0  0  0  0  0  0  0
   13.8552   26.5292   -4.5175 C   0  0  0  0  0  0  0  0  0  0  0  0
   16.0362   26.7920   -7.2742 N   0  0  0  0  0  0  0  0  0  0  0  0
   15.5446   26.4000   -6.3112 C   0  0  0  0  0  0  0  0  0  0  0  0
 16 17  3  0  0  0
 17 10  1  0  0  0
 10 11  2  0  0  0
 11 12  1  0  0  0
 12 13  2  0  0  0
 13 14  1  0  0  0
 14 15  2  0  0  0
 13  1  1  0  0  0
  1  2  2  0  0  0
  2  3  1  0  0  0
  3  4  2  0  0  0
  4  5  1  0  0  0
  5  6  2  0  0  0
  6  7  1  0  0  0
  7  8  2  0  0  0
  8  9  1  0  0  0
 15 10  1  0  0  0
  9  1  1  0  0  0
  9  5  1  0  0  0
M  END
> <minimizedAffinity>
-9.00607

> <CNNscore>
0.4157080352

> <CNNaffinity>
5.8110084534

> <CNN_VS>
2.4156827927

> <CNNaffinity_variance>
0.0542786233

$$$$
[H]c1nc2c([H])c([H])c([H])c(-c3c([H])c([H])c(C#N)c([H])c3[H])n2n1


 17 19  0  0  0  0  0  0  0  0999 V2000
   13.3855   24.5807   -0.9069 C   0  0  0  0  0  0  0  0  0  0  0  0
   13.0324   25.5162   -1.8480 C   0  0  0  0  0  0  0  0  0  0  0  0
   11.7093   25.6447   -2.2686 C   0  0  0  0  0  0  0  0  0  0  0  0
   10.7559   24.8270   -1.7345 C   0  0  0  0  0  0  0  0  0  0  0  0
   11.1397   23.8923   -0.7871 C   0  0  0  0  0  0  0  0  0  0  0  0
   10.4052   23.0028   -0.1369 N   0  0  0  0  0  0  0  0  0  0  0  0
   11.2309   22.3209    0.6790 C   0  0  0  0  0  0  0  0  0  0  0  0
   12.4712   22.8334    0.4912 N   0  0  0  0  0  0  0  0  0  0  0  0
   12.4380   23.7903   -0.3965 N   0  0  0  0  0  0  0  0  0  0  0  0
   17.4924   24.3548    0.2663 C   0  0  0  0  0  0  0  0  0  0  0  0
   17.1223   24.7075   -1.0151 C   0  0  0  0  0  0  0  0  0  0  0  0
   15.8057   24.7839   -1.4055 C   0  0  0  0  0  0  0  0  0  0  0  0
   14.7889   24.5069   -0.5181 C   0  0  0  0  0  0  0  0  0  0  0  0
   15.1373   24.1518    0.7698 C   0  0  0  0  0  0  0  0  0  0  0  0
   16.4620   24.0807    1.1418 C   0  0  0  0  0  0  0  0  0  0  0  0
   19.9733   24.2170    1.0117 N   0  0  0  0  0  0  0  0  0  0  0  0
   18.8762   24.2758    0.6715 C   0  0  0  0  0  0  0  0  0  0  0  0
 16 17  3  0  0  0
 17 10  1  0  0  0
 10 11  2  0  0  0
 11 12  1  0  0  0
 12 13  2  0  0  0
 13 14  1  0  0  0
 14 15  2  0  0  0
 13  1  1  0  0  0
  1  2  2  0  0  0
  2  3  1  0  0  0
  3  4  2  0  0  0
  4  5  1  0  0  0
  5  6  2  0  0  0
  6  7  1  0  0  0
  7  8  2  0  0  0
  8  9  1  0  0  0
 15 10  1  0  0  0
  9  1  1  0  0  0
  9  5  1  0  0  0
M  END
> <minimizedAffinity>
2.49379

> <CNNscore>
0.3968734443

> <CNNaffinity>
5.6448068619

> <CNN_VS>
2.2402739525

> <CNNaffinity_variance>
0.4469196796

$$$$
[H]c1nc2c([H])c([H])c([H])c(-c3c([H])c([H])c(C#N)c([H])c3[H])n2n1


 17 19  0  0  0  0  0  0  0  0999 V2000
   15.5819   25.7346   -3.1149 C   0  0  0  0  0  0  0  0  0  0  0  0
   16.5751   26.2654   -2.3293 C   0  0  0  0  0  0  0  0  0  0  0  0
   17.3496   27.3341   -2.7789 C   0  0  0  0  0  0  0  0  0  0  0  0
   17.1132   27.8561   -4.0177 C   0  0  0  0  0  0  0  0  0  0  0  0
   16.1054   27.3014   -4.7891 C   0  0  0  0  0  0  0  0  0  0  0  0
   15.6968   27.6328   -6.0043 N   0  0  0  0  0  0  0  0  0  0  0  0
   14.6883   26.8018   -6.3284 C   0  0  0  0  0  0  0  0  0  0  0  0
   14.5147   25.9725   -5.2708 N   0  0  0  0  0  0  0  0  0  0  0  0
   15.3664   26.2593   -4.3238 N   0  0  0  0  0  0  0  0  0  0  0  0
   13.3092   22.4826   -1.5172 C   0  0  0  0  0  0  0  0  0  0  0  0
   14.4497   22.2725   -2.2643 C   0  0  0  0  0  0  0  0  0  0  0  0
   15.1897   23.3089   -2.7840 C   0  0  0  0  0  0  0  0  0  0  0  0
   14.8149   24.6181   -2.5752 C   0  0  0  0  0  0  0  0  0  0  0  0
   13.6762   24.8508   -1.8299 C   0  0  0  0  0  0  0  0  0  0  0  0
   12.9482   23.7992   -1.3179 C   0  0  0  0  0  0  0  0  0  0  0  0
   11.9265   20.5250   -0.5243 N   0  0  0  0  0  0  0  0  0  0  0  0
   12.5354   21.3910   -0.9737 C   0  0  0  0  0  0  0  0  0  0  0  0
 16 17  3  0  0  0
 17 10  1  0  0  0
 10 11  2  0  0  0
 11 12  1  0  0  0
 12 13  2  0  0  0
 13 14  1  0  0  0
 14 15  2  0  0  0
 13  1  1  0  0  0
  1  2  2  0  0  0
  2  3  1  0  0  0
  3  4  2  0  0  0
  4  5  1  0  0  0
  5  6  2  0  0  0
  6  7  1  0  0  0
  7  8  2  0  0  0
  8  9  1  0  0  0
 15 10  1  0  0  0
  9  1  1  0  0  0
  9  5  1  0  0  0
M  END
> <minimizedAffinity>
-7.43517

> <CNNscore>
0.3868559897

> <CNNaffinity>
5.6443395615

> <CNN_VS>
2.1835465431

> <CNNaffinity_variance>
0.2117256224

$$$$
[H]c1nc2c([H])c([H])c([H])c(-c3c([H])c([H])c(C#N)c([H])c3Br)n2n1


 18 20  0  0  0  0  0  0  0  0999 V2000
   14.9188   22.6563   -3.0579 Br  0  0  0  0  0  0  0  0  0  0  0  0
   14.6948   24.3736   -3.8738 C   0  0  0  0  0  0  0  0  0  0  0  0
   15.2747   24.6753   -5.0897 C   0  0  0  0  0  0  0  0  0  0  0  0
   15.1132   25.9129   -5.6778 C   0  0  0  0  0  0  0  0  0  0  0  0
   14.3453   26.8324   -4.9926 C   0  0  0  0  0  0  0  0  0  0  0  0
   13.7658   26.5301   -3.7770 C   0  0  0  0  0  0  0  0  0  0  0  0
   13.9272   25.2928   -3.1890 C   0  0  0  0  0  0  0  0  0  0  0  0
   13.3185   24.9501   -1.8945 C   0  0  0  0  0  0  0  0  0  0  0  0
   11.9483   24.8845   -1.7394 C   0  0  0  0  0  0  0  0  0  0  0  0
   11.3703   24.5642   -0.5298 C   0  0  0  0  0  0  0  0  0  0  0  0
   12.1818   24.3060    0.5398 C   0  0  0  0  0  0  0  0  0  0  0  0
   13.5327   24.3800    0.3504 C   0  0  0  0  0  0  0  0  0  0  0  0
   14.5330   24.1755    1.2239 N   0  0  0  0  0  0  0  0  0  0  0  0
   15.6969   24.3595    0.5908 C   0  0  0  0  0  0  0  0  0  0  0  0
   15.4313   24.6807   -0.6846 N   0  0  0  0  0  0  0  0  0  0  0  0
   14.1088   24.6911   -0.8231 N   0  0  0  0  0  0  0  0  0  0  0  0
   15.7185   26.2341   -6.9512 C   0  0  0  0  0  0  0  0  0  0  0  0
   16.2133   26.4781   -7.9688 N   0  0  0  0  0  0  0  0  0  0  0  0
  1  2  1  0  0  0
  2  3  2  0  0  0
  3  4  1  0  0  0
  4  5  2  0  0  0
  5  6  1  0  0  0
  6  7  2  0  0  0
  7  8  1  0  0  0
  8  9  2  0  0  0
  9 10  1  0  0  0
 10 11  2  0  0  0
 11 12  1  0  0  0
 12 13  2  0  0  0
 13 14  1  0  0  0
 14 15  2  0  0  0
 15 16  1  0  0  0
  4 17  1  0  0  0
 17 18  3  0  0  0
  7  2  1  0  0  0
 16  8  1  0  0  0
 16 12  1  0  0  0
M  END
> <minimizedAffinity>
-8.58901

> <CNNscore>
0.7852241993

> <CNNaffinity>
6.7209830284

> <CNN_VS>
5.2774786949

> <CNNaffinity_variance>
0.1269732416

$$$$
[H]c1nc2c([H])c([H])c([H])c(-c3c([H])c([H])c(C#N)c([H])c3Br)n2n1


 18 20  0  0  0  0  0  0  0  0999 V2000
   12.2014   25.3838   -0.9789 Br  0  0  0  0  0  0  0  0  0  0  0  0
   13.5067   25.0698   -2.3437 C   0  0  0  0  0  0  0  0  0  0  0  0
   13.9120   26.0750   -3.1987 C   0  0  0  0  0  0  0  0  0  0  0  0
   14.8528   25.8486   -4.1822 C   0  0  0  0  0  0  0  0  0  0  0  0
   15.3675   24.5711   -4.2694 C   0  0  0  0  0  0  0  0  0  0  0  0
   14.9618   23.5666   -3.4143 C   0  0  0  0  0  0  0  0  0  0  0  0
   14.0213   23.7928   -2.4309 C   0  0  0  0  0  0  0  0  0  0  0  0
   13.5751   22.7367   -1.5095 C   0  0  0  0  0  0  0  0  0  0  0  0
   12.3766   22.0778   -1.6975 C   0  0  0  0  0  0  0  0  0  0  0  0
   11.9516   21.0871   -0.8385 C   0  0  0  0  0  0  0  0  0  0  0  0
   12.7431   20.7538    0.2252 C   0  0  0  0  0  0  0  0  0  0  0  0
   13.9222   21.4261    0.3807 C   0  0  0  0  0  0  0  0  0  0  0  0
   14.8666   21.2923    1.3270 N   0  0  0  0  0  0  0  0  0  0  0  0
   15.8494   22.1643    1.0756 C   0  0  0  0  0  0  0  0  0  0  0  0
   15.5251   22.8499   -0.0313 N   0  0  0  0  0  0  0  0  0  0  0  0
   14.3480   22.3935   -0.4491 N   0  0  0  0  0  0  0  0  0  0  0  0
   15.2808   26.8980   -5.0805 C   0  0  0  0  0  0  0  0  0  0  0  0
   15.6368   27.7407   -5.7896 N   0  0  0  0  0  0  0  0  0  0  0  0
  1  2  1  0  0  0
  2  3  2  0  0  0
  3  4  1  0  0  0
  4  5  2  0  0  0
  5  6  1  0  0  0
  6  7  2  0  0  0
  7  8  1  0  0  0
  8  9  2  0  0  0
  9 10  1  0  0  0
 10 11  2  0  0  0
 11 12  1  0  0  0
 12 13  2  0  0  0
 13 14  1  0  0  0
 14 15  2  0  0  0
 15 16  1  0  0  0
  4 17  1  0  0  0
 17 18  3  0  0  0
  7  2  1  0  0  0
 16  8  1  0  0  0
 16 12  1  0  0  0
M  END
> <minimizedAffinity>
-6.81110

> <CNNscore>
0.7182921171

> <CNNaffinity>
6.9695024490

> <CNN_VS>
5.0061388016

> <CNNaffinity_variance>
0.4793349802

$$$$
[H]c1nc2c([H])c([H])c([H])c(-c3c([H])c([H])c(C#N)c([H])c3Br)n2n1


 18 20  0  0  0  0  0  0  0  0999 V2000
   11.6743   24.9365   -2.0814 Br  0  0  0  0  0  0  0  0  0  0  0  0
   13.4657   25.1154   -2.7323 C   0  0  0  0  0  0  0  0  0  0  0  0
   13.8509   26.1998   -3.4947 C   0  0  0  0  0  0  0  0  0  0  0  0
   15.1420   26.3287   -3.9638 C   0  0  0  0  0  0  0  0  0  0  0  0
   16.0275   25.3228   -3.6342 C   0  0  0  0  0  0  0  0  0  0  0  0
   15.6418   24.2389   -2.8719 C   0  0  0  0  0  0  0  0  0  0  0  0
   14.3510   24.1100   -2.4029 C   0  0  0  0  0  0  0  0  0  0  0  0
   13.9192   22.9632   -1.5892 C   0  0  0  0  0  0  0  0  0  0  0  0
   14.1058   21.6650   -2.0203 C   0  0  0  0  0  0  0  0  0  0  0  0
   13.7040   20.5853   -1.2636 C   0  0  0  0  0  0  0  0  0  0  0  0
   13.1057   20.8138   -0.0557 C   0  0  0  0  0  0  0  0  0  0  0  0
   12.9370   22.1107    0.3393 C   0  0  0  0  0  0  0  0  0  0  0  0
   12.3865   22.5994    1.4633 N   0  0  0  0  0  0  0  0  0  0  0  0
   12.4385   23.9354    1.4183 C   0  0  0  0  0  0  0  0  0  0  0  0
   13.0229   24.2909    0.2640 N   0  0  0  0  0  0  0  0  0  0  0  0
   13.3240   23.1720   -0.3885 N   0  0  0  0  0  0  0  0  0  0  0  0
   15.5507   27.4626   -4.7629 C   0  0  0  0  0  0  0  0  0  0  0  0
   15.8865   28.3761   -5.3893 N   0  0  0  0  0  0  0  0  0  0  0  0
  1  2  1  0  0  0
  2  3  2  0  0  0
  3  4  1  0  0  0
  4  5  2  0  0  0
  5  6  1  0  0  0
  6  7  2  0  0  0
  7  8  1  0  0  0
  8  9  2  0  0  0
  9 10  1  0  0  0
 10 11  2  0  0  0
 11 12  1  0  0  0
 12 13  2  0  0  0
 13 14  1  0  0  0
 14 15  2  0  0  0
 15 16  1  0  0  0
  4 17  1  0  0  0
 17 18  3  0  0  0
  7  2  1  0  0  0
 16  8  1  0  0  0
 16 12  1  0  0  0
M  END
> <minimizedAffinity>
-6.87919

> <CNNscore>
0.6129285097

> <CNNaffinity>
6.7143363953

> <CNN_VS>
4.1154084206

> <CNNaffinity_variance>
0.4355310798

$$$$
[H]c1nc2c([H])c([H])c([H])c(-c3c([H])c([H])c(C#N)c([H])c3Br)n2n1


 18 20  0  0  0  0  0  0  0  0999 V2000
   15.2182   24.6103    0.1231 Br  0  0  0  0  0  0  0  0  0  0  0  0
   13.3351   24.3360   -0.0863 C   0  0  0  0  0  0  0  0  0  0  0  0
   12.4952   24.2369    1.0047 C   0  0  0  0  0  0  0  0  0  0  0  0
   11.1381   24.0393    0.8538 C   0  0  0  0  0  0  0  0  0  0  0  0
   10.6625   23.9458   -0.4383 C   0  0  0  0  0  0  0  0  0  0  0  0
   11.5027   24.0450   -1.5287 C   0  0  0  0  0  0  0  0  0  0  0  0
   12.8595   24.2425   -1.3779 C   0  0  0  0  0  0  0  0  0  0  0  0
   13.7724   24.3510   -2.5261 C   0  0  0  0  0  0  0  0  0  0  0  0
   14.6995   23.3662   -2.8030 C   0  0  0  0  0  0  0  0  0  0  0  0
   15.5583   23.4607   -3.8770 C   0  0  0  0  0  0  0  0  0  0  0  0
   15.4841   24.5613   -4.6846 C   0  0  0  0  0  0  0  0  0  0  0  0
   14.5552   25.5160   -4.3811 C   0  0  0  0  0  0  0  0  0  0  0  0
   14.2818   26.6744   -5.0044 N   0  0  0  0  0  0  0  0  0  0  0  0
   13.2894   27.2876   -4.3499 C   0  0  0  0  0  0  0  0  0  0  0  0
   12.9354   26.5151   -3.3114 N   0  0  0  0  0  0  0  0  0  0  0  0
   13.7123   25.4362   -3.3375 N   0  0  0  0  0  0  0  0  0  0  0  0
   10.2539   23.9347    1.9933 C   0  0  0  0  0  0  0  0  0  0  0  0
    9.5439   23.8676    2.9050 N   0  0  0  0  0  0  0  0  0  0  0  0
  1  2  1  0  0  0
  2  3  2  0  0  0
  3  4  1  0  0  0
  4  5  2  0  0  0
  5  6  1  0  0  0
  6  7  2  0  0  0
  7  8  1  0  0  0
  8  9  2  0  0  0
  9 10  1  0  0  0
 10 11  2  0  0  0
 11 12  1  0  0  0
 12 13  2  0  0  0
 13 14  1  0  0  0
 14 15  2  0  0  0
 15 16  1  0  0  0
  4 17  1  0  0  0
 17 18  3  0  0  0
  7  2  1  0  0  0
 16  8  1  0  0  0
 16 12  1  0  0  0
M  END
> <minimizedAffinity>
-7.31365

> <CNNscore>
0.5428296924

> <CNNaffinity>
6.0686502457

> <CNN_VS>
3.2942435741

> <CNNaffinity_variance>
0.0495327003

$$$$
[H]c1nc2c([H])c([H])c([H])c(-c3c([H])c([H])c(C#N)c([H])c3Br)n2n1


 18 20  0  0  0  0  0  0  0  0999 V2000
   12.6216   26.1090   -2.4993 Br  0  0  0  0  0  0  0  0  0  0  0  0
   14.0612   25.4022   -3.5448 C   0  0  0  0  0  0  0  0  0  0  0  0
   14.3276   25.8714   -4.8154 C   0  0  0  0  0  0  0  0  0  0  0  0
   15.3652   25.3621   -5.5688 C   0  0  0  0  0  0  0  0  0  0  0  0
   16.1220   24.3629   -4.9913 C   0  0  0  0  0  0  0  0  0  0  0  0
   15.8552   23.8943   -3.7209 C   0  0  0  0  0  0  0  0  0  0  0  0
   14.8179   24.4034   -2.9676 C   0  0  0  0  0  0  0  0  0  0  0  0
   14.5164   23.9184   -1.6121 C   0  0  0  0  0  0  0  0  0  0  0  0
   14.6631   24.7337   -0.5077 C   0  0  0  0  0  0  0  0  0  0  0  0
   14.3828   24.2865    0.7656 C   0  0  0  0  0  0  0  0  0  0  0  0
   13.9485   23.0008    0.9313 C   0  0  0  0  0  0  0  0  0  0  0  0
   13.8147   22.2222   -0.1834 C   0  0  0  0  0  0  0  0  0  0  0  0
   13.4124   20.9450   -0.2932 N   0  0  0  0  0  0  0  0  0  0  0  0
   13.4377   20.5990   -1.5851 C   0  0  0  0  0  0  0  0  0  0  0  0
   13.8567   21.6595   -2.2923 N   0  0  0  0  0  0  0  0  0  0  0  0
   14.0846   22.6457   -1.4298 N   0  0  0  0  0  0  0  0  0  0  0  0
   15.6485   25.8499   -6.9004 C   0  0  0  0  0  0  0  0  0  0  0  0
   15.8590   26.2389   -7.9700 N   0  0  0  0  0  0  0  0  0  0  0  0
  1  2  1  0  0  0
  2  3  2  0  0  0
  3  4  1  0  0  0
  4  5  2  0  0  0
  5  6  1  0  0  0
  6  7  2  0  0  0
  7  8  1  0  0  0
  8  9  2  0  0  0
  9 10  1  0  0  0
 10 11  2  0  0  0
 11 12  1  0  0  0
 12 13  2  0  0  0
 13 14  1  0  0  0
 14 15  2  0  0  0
 15 16  1  0  0  0
  4 17  1  0  0  0
 17 18  3  0  0  0
  7  2  1  0  0  0
 16  8  1  0  0  0
 16 12  1  0  0  0
M  END
> <minimizedAffinity>
-6.89508

> <CNNscore>
0.4758842885

> <CNNaffinity>
6.3805127144

> <CNN_VS>
3.0363857746

> <CNNaffinity_variance>
0.0665441826

$$$$
[H]c1nc2c([H])c([H])c([H])c(-c3c([H])c([H])c(C#N)c([H])c3Br)n2n1


 18 20  0  0  0  0  0  0  0  0999 V2000
   15.5118   24.2139    0.4547 Br  0  0  0  0  0  0  0  0  0  0  0  0
   15.5176   24.7723   -1.3765 C   0  0  0  0  0  0  0  0  0  0  0  0
   16.3058   25.8201   -1.8084 C   0  0  0  0  0  0  0  0  0  0  0  0
   16.3100   26.2224   -3.1281 C   0  0  0  0  0  0  0  0  0  0  0  0
   15.4896   25.5276   -3.9934 C   0  0  0  0  0  0  0  0  0  0  0  0
   14.7018   24.4801   -3.5611 C   0  0  0  0  0  0  0  0  0  0  0  0
   14.6976   24.0778   -2.2416 C   0  0  0  0  0  0  0  0  0  0  0  0
   13.8658   22.9643   -1.7601 C   0  0  0  0  0  0  0  0  0  0  0  0
   14.3601   21.6773   -1.6866 C   0  0  0  0  0  0  0  0  0  0  0  0
   13.5870   20.6287   -1.2365 C   0  0  0  0  0  0  0  0  0  0  0  0
   12.2980   20.8773   -0.8547 C   0  0  0  0  0  0  0  0  0  0  0  0
   11.8420   22.1623   -0.9405 C   0  0  0  0  0  0  0  0  0  0  0  0
   10.6349   22.6655   -0.6326 N   0  0  0  0  0  0  0  0  0  0  0  0
   10.6451   23.9804   -0.8787 C   0  0  0  0  0  0  0  0  0  0  0  0
   11.8607   24.3080   -1.3427 N   0  0  0  0  0  0  0  0  0  0  0  0
   12.5850   23.1933   -1.3773 N   0  0  0  0  0  0  0  0  0  0  0  0
   17.1337   27.3194   -3.5857 C   0  0  0  0  0  0  0  0  0  0  0  0
   17.8065   28.1877   -3.9505 N   0  0  0  0  0  0  0  0  0  0  0  0
  1  2  1  0  0  0
  2  3  2  0  0  0
  3  4  1  0  0  0
  4  5  2  0  0  0
  5  6  1  0  0  0
  6  7  2  0  0  0
  7  8  1  0  0  0
  8  9  2  0  0  0
  9 10  1  0  0  0
 10 11  2  0  0  0
 11 12  1  0  0  0
 12 13  2  0  0  0
 13 14  1  0  0  0
 14 15  2  0  0  0
 15 16  1  0  0  0
  4 17  1  0  0  0
 17 18  3  0  0  0
  7  2  1  0  0  0
 16  8  1  0  0  0
 16 12  1  0  0  0
M  END
> <minimizedAffinity>
-7.72752

> <CNNscore>
0.4161281586

> <CNNaffinity>
6.4698362350

> <CNN_VS>
2.6922810078

> <CNNaffinity_variance>
0.1465425640

$$$$
[H]c1nc2c([H])c([H])c([H])c(-c3c([H])c([H])c(C#N)c([H])c3Br)n2n1


 18 20  0  0  0  0  0  0  0  0999 V2000
   15.1349   22.4018   -3.2673 Br  0  0  0  0  0  0  0  0  0  0  0  0
   15.1889   24.1577   -4.0282 C   0  0  0  0  0  0  0  0  0  0  0  0
   15.3920   24.3519   -5.3797 C   0  0  0  0  0  0  0  0  0  0  0  0
   15.4308   25.6174   -5.9280 C   0  0  0  0  0  0  0  0  0  0  0  0
   15.2570   26.6771   -5.0612 C   0  0  0  0  0  0  0  0  0  0  0  0
   15.0540   26.4823   -3.7101 C   0  0  0  0  0  0  0  0  0  0  0  0
   15.0152   25.2171   -3.1618 C   0  0  0  0  0  0  0  0  0  0  0  0
   14.8001   24.9873   -1.7249 C   0  0  0  0  0  0  0  0  0  0  0  0
   15.8604   24.8843   -0.8468 C   0  0  0  0  0  0  0  0  0  0  0  0
   15.6670   24.6690    0.5008 C   0  0  0  0  0  0  0  0  0  0  0  0
   14.3889   24.5557    0.9728 C   0  0  0  0  0  0  0  0  0  0  0  0
   13.3640   24.6628    0.0758 C   0  0  0  0  0  0  0  0  0  0  0  0
   12.0376   24.5899    0.2776 N   0  0  0  0  0  0  0  0  0  0  0  0
   11.4176   24.7527   -0.8965 C   0  0  0  0  0  0  0  0  0  0  0  0
   12.3540   24.9286   -1.8413 N   0  0  0  0  0  0  0  0  0  0  0  0
   13.5387   24.8724   -1.2399 N   0  0  0  0  0  0  0  0  0  0  0  0
   15.6433   25.8264   -7.3431 C   0  0  0  0  0  0  0  0  0  0  0  0
   15.8002   25.9838   -8.4790 N   0  0  0  0  0  0  0  0  0  0  0  0
  1  2  1  0  0  0
  2  3  2  0  0  0
  3  4  1  0  0  0
  4  5  2  0  0  0
  5  6  1  0  0  0
  6  7  2  0  0  0
  7  8  1  0  0  0
  8  9  2  0  0  0
  9 10  1  0  0  0
 10 11  2  0  0  0
 11 12  1  0  0  0
 12 13  2  0  0  0
 13 14  1  0  0  0
 14 15  2  0  0  0
 15 16  1  0  0  0
  4 17  1  0  0  0
 17 18  3  0  0  0
  7  2  1  0  0  0
 16  8  1  0  0  0
 16 12  1  0  0  0
M  END
> <minimizedAffinity>
-6.87945

> <CNNscore>
0.4116882682

> <CNNaffinity>
6.2502808571

> <CNN_VS>
2.5731673241

> <CNNaffinity_variance>
0.0910364166

$$$$
[H]c1nc2c([H])c([H])c([H])c(-c3c([H])c([H])c(C#N)c([H])c3Br)n2n1


 18 20  0  0  0  0  0  0  0  0999 V2000
   11.4972   23.8686   -1.0187 Br  0  0  0  0  0  0  0  0  0  0  0  0
   13.3266   23.3447   -0.8093 C   0  0  0  0  0  0  0  0  0  0  0  0
   13.6965   22.3579    0.0822 C   0  0  0  0  0  0  0  0  0  0  0  0
   15.0150   21.9803    0.2330 C   0  0  0  0  0  0  0  0  0  0  0  0
   15.9438   22.6360   -0.5493 C   0  0  0  0  0  0  0  0  0  0  0  0
   15.5733   23.6226   -1.4405 C   0  0  0  0  0  0  0  0  0  0  0  0
   14.2552   24.0001   -1.5913 C   0  0  0  0  0  0  0  0  0  0  0  0
   13.8390   25.0488   -2.5350 C   0  0  0  0  0  0  0  0  0  0  0  0
   12.5060   25.2828   -2.8075 C   0  0  0  0  0  0  0  0  0  0  0  0
   12.1081   26.2635   -3.6906 C   0  0  0  0  0  0  0  0  0  0  0  0
   13.0642   27.0203   -4.3088 C   0  0  0  0  0  0  0  0  0  0  0  0
   14.3732   26.7614   -4.0156 C   0  0  0  0  0  0  0  0  0  0  0  0
   15.4880   27.3513   -4.4789 N   0  0  0  0  0  0  0  0  0  0  0  0
   16.5483   26.7661   -3.9109 C   0  0  0  0  0  0  0  0  0  0  0  0
   16.1025   25.8051   -3.0875 N   0  0  0  0  0  0  0  0  0  0  0  0
   14.7745   25.8087   -3.1571 N   0  0  0  0  0  0  0  0  0  0  0  0
   15.4079   20.9472    1.1655 C   0  0  0  0  0  0  0  0  0  0  0  0
   15.7140   20.1283    1.9241 N   0  0  0  0  0  0  0  0  0  0  0  0
  1  2  1  0  0  0
  2  3  2  0  0  0
  3  4  1  0  0  0
  4  5  2  0  0  0
  5  6  1  0  0  0
  6  7  2  0  0  0
  7  8  1  0  0  0
  8  9  2  0  0  0
  9 10  1  0  0  0
 10 11  2  0  0  0
 11 12  1  0  0  0
 12 13  2  0  0  0
 13 14  1  0  0  0
 14 15  2  0  0  0
 15 16  1  0  0  0
  4 17  1  0  0  0
 17 18  3  0  0  0
  7  2  1  0  0  0
 16  8  1  0  0  0
 16 12  1  0  0  0
M  END
> <minimizedAffinity>
1.16800

> <CNNscore>
0.4088188410

> <CNNaffinity>
6.0550527573

> <CNN_VS>
2.4754197598

> <CNNaffinity_variance>
0.3272377551

$$$$
[H]c1nc2c([H])c([H])c([H])c(-c3c([H])c([H])c(C#N)c([H])c3Br)n2n1


 18 20  0  0  0  0  0  0  0  0999 V2000
   15.7114   24.7965   -0.2101 Br  0  0  0  0  0  0  0  0  0  0  0  0
   14.1019   23.7609   -0.2534 C   0  0  0  0  0  0  0  0  0  0  0  0
   13.5289   23.2702    0.9027 C   0  0  0  0  0  0  0  0  0  0  0  0
   12.3689   22.5239    0.8714 C   0  0  0  0  0  0  0  0  0  0  0  0
   11.8107   22.2925   -0.3693 C   0  0  0  0  0  0  0  0  0  0  0  0
   12.3840   22.7833   -1.5248 C   0  0  0  0  0  0  0  0  0  0  0  0
   13.5438   23.5294   -1.4936 C   0  0  0  0  0  0  0  0  0  0  0  0
   14.1712   24.0618   -2.7129 C   0  0  0  0  0  0  0  0  0  0  0  0
   15.1769   23.3747   -3.3627 C   0  0  0  0  0  0  0  0  0  0  0  0
   15.7697   23.8669   -4.5055 C   0  0  0  0  0  0  0  0  0  0  0  0
   15.3453   25.0677   -5.0026 C   0  0  0  0  0  0  0  0  0  0  0  0
   14.3483   25.7202   -4.3343 C   0  0  0  0  0  0  0  0  0  0  0  0
   13.7594   26.8962   -4.6092 N   0  0  0  0  0  0  0  0  0  0  0  0
   12.8312   27.1373   -3.6766 C   0  0  0  0  0  0  0  0  0  0  0  0
   12.8339   26.1118   -2.8113 N   0  0  0  0  0  0  0  0  0  0  0  0
   13.7622   25.2516   -3.2196 N   0  0  0  0  0  0  0  0  0  0  0  0
   11.7645   22.0075    2.0794 C   0  0  0  0  0  0  0  0  0  0  0  0
   11.2820   21.6094    3.0533 N   0  0  0  0  0  0  0  0  0  0  0  0
  1  2  1  0  0  0
  2  3  2  0  0  0
  3  4  1  0  0  0
  4  5  2  0  0  0
  5  6  1  0  0  0
  6  7  2  0  0  0
  7  8  1  0  0  0
  8  9  2  0  0  0
  9 10  1  0  0  0
 10 11  2  0  0  0
 11 12  1  0  0  0
 12 13  2  0  0  0
 13 14  1  0  0  0
 14 15  2  0  0  0
 15 16  1  0  0  0
  4 17  1  0  0  0
 17 18  3  0  0  0
  7  2  1  0  0  0
 16  8  1  0  0  0
 16 12  1  0  0  0
M  END
> <minimizedAffinity>
-6.86229

> <CNNscore>
0.4051812887

> <CNNaffinity>
6.1547656059

> <CNN_VS>
2.4937958717

> <CNNaffinity_variance>
0.1728682071

$$$$
[H]c1nc(C([H])([H])N2C([H])([H])C([H])([H])C3(C(=O)N(c4c([H])c([H])c(-c5c([H])nc(=O)n([H])c5[H])c([H])c4[H])C(=O)N3c3nc([H])n([H])c(=O)c3[H])C([H])([H])C2([H])[H])c(C([H])([H])[H])c([H])c1[H]


 42 47  0  0  0  0  0  0  0  0999 V2000
   10.1624   24.0644   -0.5298 N   0  0  0  0  0  0  0  0  0  0  0  0
   10.9570   24.3469    0.6598 C   0  0  0  0  0  0  0  0  0  0  0  0
   12.3391   23.8350    0.6608 C   0  0  0  0  0  0  0  0  0  0  0  0
   12.9318   23.6501   -0.6834 C   0  0  0  0  0  0  0  0  0  0  0  0
   12.0278   22.7366   -1.4799 C   0  0  0  0  0  0  0  0  0  0  0  0
   10.5861   22.8177   -1.1384 C   0  0  0  0  0  0  0  0  0  0  0  0
   14.2826   23.0987   -0.6307 N   0  0  0  0  0  0  0  0  0  0  0  0
   15.0218   23.6829   -1.7138 C   0  0  0  0  0  0  0  0  0  0  0  0
   16.1327   23.3214   -2.1735 O   0  0  0  0  0  0  0  0  0  0  0  0
   14.2958   24.7962   -2.2406 N   0  0  0  0  0  0  0  0  0  0  0  0
   13.1121   24.8826   -1.4643 C   0  0  0  0  0  0  0  0  0  0  0  0
   12.3612   25.8877   -1.4796 O   0  0  0  0  0  0  0  0  0  0  0  0
   14.8720   22.1479    0.2418 C   0  0  0  0  0  0  0  0  0  0  0  0
   14.5505   20.8229    0.2558 C   0  0  0  0  0  0  0  0  0  0  0  0
   15.1988   19.9910    1.1727 C   0  0  0  0  0  0  0  0  0  0  0  0
   14.9009   18.7710    1.1836 O   0  0  0  0  0  0  0  0  0  0  0  0
   16.1216   20.4399    2.0369 N   0  0  0  0  0  0  0  0  0  0  0  0
   16.4205   21.7590    2.0002 C   0  0  0  0  0  0  0  0  0  0  0  0
   15.8177   22.5641    1.1396 N   0  0  0  0  0  0  0  0  0  0  0  0
   16.6112   19.8167    2.7283 H   0  0  0  0  0  0  0  0  0  0  0  0
   14.7171   25.6196   -3.3483 C   0  0  0  0  0  0  0  0  0  0  0  0
   15.4001   26.7802   -3.0987 C   0  0  0  0  0  0  0  0  0  0  0  0
   15.8270   27.5674   -4.1578 C   0  0  0  0  0  0  0  0  0  0  0  0
   15.5881   27.2251   -5.4751 C   0  0  0  0  0  0  0  0  0  0  0  0
   14.8999   26.0574   -5.7132 C   0  0  0  0  0  0  0  0  0  0  0  0
   14.4714   25.2671   -4.6574 C   0  0  0  0  0  0  0  0  0  0  0  0
   16.0525   28.0347   -6.6011 C   0  0  0  0  0  0  0  0  0  0  0  0
   15.9721   29.4118   -6.5868 C   0  0  0  0  0  0  0  0  0  0  0  0
   16.4121   30.0686   -7.6735 N   0  0  0  0  0  0  0  0  0  0  0  0
   16.9150   29.4324   -8.7447 C   0  0  0  0  0  0  0  0  0  0  0  0
   17.3195   30.0783   -9.7508 O   0  0  0  0  0  0  0  0  0  0  0  0
   17.0001   28.1024   -8.7765 N   0  0  0  0  0  0  0  0  0  0  0  0
   16.5709   27.4069   -7.7095 C   0  0  0  0  0  0  0  0  0  0  0  0
   17.3845   27.5909   -9.5937 H   0  0  0  0  0  0  0  0  0  0  0  0
    8.7931   23.8235   -0.0578 C   0  0  0  0  0  0  0  0  0  0  0  0
    8.1635   21.1920    0.5824 C   0  0  0  0  0  0  0  0  0  0  0  0
    8.3330   22.1799    1.6693 C   0  0  0  0  0  0  0  0  0  0  0  0
    8.1901   21.7661    2.9578 C   0  0  0  0  0  0  0  0  0  0  0  0
    8.3409   22.6714    3.9848 C   0  0  0  0  0  0  0  0  0  0  0  0
    8.6393   23.9975    3.6540 C   0  0  0  0  0  0  0  0  0  0  0  0
    8.7738   24.3672    2.3718 N   0  0  0  0  0  0  0  0  0  0  0  0
    8.6343   23.5148    1.3427 C   0  0  0  0  0  0  0  0  0  0  0  0
 36 37  1  0  0  0
 37 38  2  0  0  0
 38 39  1  0  0  0
 39 40  2  0  0  0
 40 41  1  0  0  0
 41 42  2  0  0  0
 42 35  1  0  0  0
 35  1  1  0  0  0
  1  2  1  0  0  0
  2  3  1  0  0  0
  3  4  1  0  0  0
  4  5  1  0  0  0
  5  6  1  0  0  0
  4  7  1  0  0  0
  7  8  1  0  0  0
  8  9  2  0  0  0
  8 10  1  0  0  0
 10 11  1  0  0  0
 11 12  2  0  0  0
 10 21  1  0  0  0
 21 22  2  0  0  0
 22 23  1  0  0  0
 23 24  2  0  0  0
 24 25  1  0  0  0
 25 26  2  0  0  0
 24 27  1  0  0  0
 27 28  1  0  0  0
 28 29  2  0  0  0
 29 30  1  0  0  0
 30 31  2  0  0  0
 30 32  1  0  0  0
 32 33  1  0  0  0
  7 13  1  0  0  0
 13 14  2  0  0  0
 14 15  1  0  0  0
 15 16  2  0  0  0
 15 17  1  0  0  0
 17 18  1  0  0  0
 18 19  2  0  0  0
 42 37  1  0  0  0
  6  1  1  0  0  0
 26 21  1  0  0  0
 33 27  2  0  0  0
 19 13  1  0  0  0
 11  4  1  0  0  0
 32 34  1  0  0  0
 17 20  1  0  0  0
M  END
> <minimizedAffinity>
17.08578

> <CNNscore>
0.5591790676

> <CNNaffinity>
7.6858901978

> <CNN_VS>
4.2977890968

> <CNNaffinity_variance>
0.3929868340

$$$$
[H]c1nc(C([H])([H])N2C([H])([H])C([H])([H])C3(C(=O)N(c4c([H])c([H])c(-c5c([H])nc(=O)n([H])c5[H])c([H])c4[H])C(=O)N3c3nc([H])n([H])c(=O)c3[H])C([H])([H])C2([H])[H])c(C([H])([H])[H])c([H])c1[H]


 42 47  0  0  0  0  0  0  0  0999 V2000
    9.6899   21.0143    0.0328 N   0  0  0  0  0  0  0  0  0  0  0  0
   10.4245   21.1386    1.2862 C   0  0  0  0  0  0  0  0  0  0  0  0
   11.8777   21.3582    1.1744 C   0  0  0  0  0  0  0  0  0  0  0  0
   12.3112   22.0041   -0.0854 C   0  0  0  0  0  0  0  0  0  0  0  0
   11.8093   21.1716   -1.2435 C   0  0  0  0  0  0  0  0  0  0  0  0
   10.5381   20.4467   -0.9980 C   0  0  0  0  0  0  0  0  0  0  0  0
   13.7607   22.1576   -0.1680 N   0  0  0  0  0  0  0  0  0  0  0  0
   14.0181   23.3841   -0.8683 C   0  0  0  0  0  0  0  0  0  0  0  0
   15.1043   23.7799   -1.3578 O   0  0  0  0  0  0  0  0  0  0  0  0
   12.8133   24.1498   -0.9473 N   0  0  0  0  0  0  0  0  0  0  0  0
   11.8251   23.3770   -0.2858 C   0  0  0  0  0  0  0  0  0  0  0  0
   10.7124   23.8454    0.0560 O   0  0  0  0  0  0  0  0  0  0  0  0
   14.8173   21.3250    0.2826 C   0  0  0  0  0  0  0  0  0  0  0  0
   15.0102   20.0422   -0.1373 C   0  0  0  0  0  0  0  0  0  0  0  0
   16.0858   19.3239    0.3918 C   0  0  0  0  0  0  0  0  0  0  0  0
   16.2613   18.1425    0.0034 O   0  0  0  0  0  0  0  0  0  0  0  0
   16.9343   19.8421    1.2926 N   0  0  0  0  0  0  0  0  0  0  0  0
   16.7184   21.1170    1.6909 C   0  0  0  0  0  0  0  0  0  0  0  0
   15.7051   21.8145    1.2022 N   0  0  0  0  0  0  0  0  0  0  0  0
   17.7446   19.3043    1.6930 H   0  0  0  0  0  0  0  0  0  0  0  0
   12.6796   25.4324   -1.5949 C   0  0  0  0  0  0  0  0  0  0  0  0
   12.5445   26.5592   -0.8281 C   0  0  0  0  0  0  0  0  0  0  0  0
   12.4362   27.7985   -1.4414 C   0  0  0  0  0  0  0  0  0  0  0  0
   12.4586   27.9468   -2.8150 C   0  0  0  0  0  0  0  0  0  0  0  0
   12.5936   26.8073   -3.5748 C   0  0  0  0  0  0  0  0  0  0  0  0
   12.7025   25.5662   -2.9660 C   0  0  0  0  0  0  0  0  0  0  0  0
   12.3680   29.2497   -3.4732 C   0  0  0  0  0  0  0  0  0  0  0  0
   13.4634   29.8395   -4.0692 C   0  0  0  0  0  0  0  0  0  0  0  0
   13.2849   31.0443   -4.6373 N   0  0  0  0  0  0  0  0  0  0  0  0
   12.0963   31.6706   -4.6383 C   0  0  0  0  0  0  0  0  0  0  0  0
   11.9613   32.8026   -5.1800 O   0  0  0  0  0  0  0  0  0  0  0  0
   11.0270   31.1163   -4.0670 N   0  0  0  0  0  0  0  0  0  0  0  0
   11.1624   29.9114   -3.4873 C   0  0  0  0  0  0  0  0  0  0  0  0
   10.1000   31.5829   -4.0558 H   0  0  0  0  0  0  0  0  0  0  0  0
    8.6422   20.0137    0.2717 C   0  0  0  0  0  0  0  0  0  0  0  0
    7.9606   17.6755   -1.0696 C   0  0  0  0  0  0  0  0  0  0  0  0
    7.1271   18.8829   -1.2518 C   0  0  0  0  0  0  0  0  0  0  0  0
    6.0367   18.8089   -2.0629 C   0  0  0  0  0  0  0  0  0  0  0  0
    5.2489   19.9233   -2.2485 C   0  0  0  0  0  0  0  0  0  0  0  0
    5.6088   21.1011   -1.5850 C   0  0  0  0  0  0  0  0  0  0  0  0
    6.6904   21.1346   -0.7925 N   0  0  0  0  0  0  0  0  0  0  0  0
    7.4834   20.0700   -0.5862 C   0  0  0  0  0  0  0  0  0  0  0  0
 36 37  1  0  0  0
 37 38  2  0  0  0
 38 39  1  0  0  0
 39 40  2  0  0  0
 40 41  1  0  0  0
 41 42  2  0  0  0
 42 35  1  0  0  0
 35  1  1  0  0  0
  1  2  1  0  0  0
  2  3  1  0  0  0
  3  4  1  0  0  0
  4  5  1  0  0  0
  5  6  1  0  0  0
  4  7  1  0  0  0
  7  8  1  0  0  0
  8  9  2  0  0  0
  8 10  1  0  0  0
 10 11  1  0  0  0
 11 12  2  0  0  0
 10 21  1  0  0  0
 21 22  2  0  0  0
 22 23  1  0  0  0
 23 24  2  0  0  0
 24 25  1  0  0  0
 25 26  2  0  0  0
 24 27  1  0  0  0
 27 28  1  0  0  0
 28 29  2  0  0  0
 29 30  1  0  0  0
 30 31  2  0  0  0
 30 32  1  0  0  0
 32 33  1  0  0  0
  7 13  1  0  0  0
 13 14  2  0  0  0
 14 15  1  0  0  0
 15 16  2  0  0  0
 15 17  1  0  0  0
 17 18  1  0  0  0
 18 19  2  0  0  0
 42 37  1  0  0  0
  6  1  1  0  0  0
 26 21  1  0  0  0
 33 27  2  0  0  0
 19 13  1  0  0  0
 11  4  1  0  0  0
 32 34  1  0  0  0
 17 20  1  0  0  0
M  END
> <minimizedAffinity>
30.40965

> <CNNscore>
0.5220505595

> <CNNaffinity>
7.6034975052

> <CNN_VS>
3.9694101810

> <CNNaffinity_variance>
1.0345243216

$$$$
[H]c1nc(C([H])([H])N2C([H])([H])C([H])([H])C3(C(=O)N(c4c([H])c([H])c(-c5c([H])nc(=O)n([H])c5[H])c([H])c4[H])C(=O)N3c3nc([H])n([H])c(=O)c3[H])C([H])([H])C2([H])[H])c(C([H])([H])[H])c([H])c1[H]


 42 47  0  0  0  0  0  0  0  0999 V2000
   15.4775   24.6933   -4.4122 N   0  0  0  0  0  0  0  0  0  0  0  0
   16.5449   23.7624   -4.0655 C   0  0  0  0  0  0  0  0  0  0  0  0
   16.8094   23.5756   -2.6276 C   0  0  0  0  0  0  0  0  0  0  0  0
   15.6513   23.8443   -1.7450 C   0  0  0  0  0  0  0  0  0  0  0  0
   15.1623   25.2489   -2.0170 C   0  0  0  0  0  0  0  0  0  0  0  0
   15.3631   25.7315   -3.4057 C   0  0  0  0  0  0  0  0  0  0  0  0
   15.9758   23.6905   -0.3300 N   0  0  0  0  0  0  0  0  0  0  0  0
   14.8069   23.1677    0.3189 C   0  0  0  0  0  0  0  0  0  0  0  0
   14.5709   23.1047    1.5504 O   0  0  0  0  0  0  0  0  0  0  0  0
   13.8844   22.6976   -0.6670 N   0  0  0  0  0  0  0  0  0  0  0  0
   14.5070   22.9376   -1.9184 C   0  0  0  0  0  0  0  0  0  0  0  0
   14.0994   22.4266   -2.9894 O   0  0  0  0  0  0  0  0  0  0  0  0
   17.1576   23.9869    0.3968 C   0  0  0  0  0  0  0  0  0  0  0  0
   18.4184   23.8044   -0.0893 C   0  0  0  0  0  0  0  0  0  0  0  0
   19.5013   24.1274    0.7329 C   0  0  0  0  0  0  0  0  0  0  0  0
   20.6615   23.9584    0.2829 O   0  0  0  0  0  0  0  0  0  0  0  0
   19.3529   24.6084    1.9765 N   0  0  0  0  0  0  0  0  0  0  0  0
   18.0904   24.7793    2.4323 C   0  0  0  0  0  0  0  0  0  0  0  0
   17.0510   24.4791    1.6695 N   0  0  0  0  0  0  0  0  0  0  0  0
   20.1656   24.8524    2.5980 H   0  0  0  0  0  0  0  0  0  0  0  0
   12.5900   22.1216   -0.3927 C   0  0  0  0  0  0  0  0  0  0  0  0
   12.4027   20.7772   -0.5750 C   0  0  0  0  0  0  0  0  0  0  0  0
   11.1680   20.2113   -0.2941 C   0  0  0  0  0  0  0  0  0  0  0  0
   10.1017   20.9585    0.1686 C   0  0  0  0  0  0  0  0  0  0  0  0
   10.3017   22.3084    0.3467 C   0  0  0  0  0  0  0  0  0  0  0  0
   11.5347   22.8784    0.0674 C   0  0  0  0  0  0  0  0  0  0  0  0
    8.8018   20.3703    0.4898 C   0  0  0  0  0  0  0  0  0  0  0  0
    8.2430   19.3765   -0.2868 C   0  0  0  0  0  0  0  0  0  0  0  0
    7.0384   18.9076    0.0809 N   0  0  0  0  0  0  0  0  0  0  0  0
    6.3834   19.3717    1.1582 C   0  0  0  0  0  0  0  0  0  0  0  0
    5.2525   18.9108    1.4768 O   0  0  0  0  0  0  0  0  0  0  0  0
    6.9076   20.3318    1.9201 N   0  0  0  0  0  0  0  0  0  0  0  0
    8.1112   20.8287    1.5874 C   0  0  0  0  0  0  0  0  0  0  0  0
    6.4186   20.7052    2.7560 H   0  0  0  0  0  0  0  0  0  0  0  0
   15.9159   25.3798   -5.6339 C   0  0  0  0  0  0  0  0  0  0  0  0
   13.9860   27.2237   -6.4126 C   0  0  0  0  0  0  0  0  0  0  0  0
   15.2782   27.7093   -5.8833 C   0  0  0  0  0  0  0  0  0  0  0  0
   15.4795   29.0512   -5.7783 C   0  0  0  0  0  0  0  0  0  0  0  0
   16.6776   29.5242   -5.2905 C   0  0  0  0  0  0  0  0  0  0  0  0
   17.6507   28.5907   -4.9182 C   0  0  0  0  0  0  0  0  0  0  0  0
   17.4147   27.2755   -5.0352 N   0  0  0  0  0  0  0  0  0  0  0  0
   16.2602   26.7752   -5.5061 C   0  0  0  0  0  0  0  0  0  0  0  0
 36 37  1  0  0  0
 37 38  2  0  0  0
 38 39  1  0  0  0
 39 40  2  0  0  0
 40 41  1  0  0  0
 41 42  2  0  0  0
 42 35  1  0  0  0
 35  1  1  0  0  0
  1  2  1  0  0  0
  2  3  1  0  0  0
  3  4  1  0  0  0
  4  5  1  0  0  0
  5  6  1  0  0  0
  4  7  1  0  0  0
  7  8  1  0  0  0
  8  9  2  0  0  0
  8 10  1  0  0  0
 10 11  1  0  0  0
 11 12  2  0  0  0
 10 21  1  0  0  0
 21 22  2  0  0  0
 22 23  1  0  0  0
 23 24  2  0  0  0
 24 25  1  0  0  0
 25 26  2  0  0  0
 24 27  1  0  0  0
 27 28  1  0  0  0
 28 29  2  0  0  0
 29 30  1  0  0  0
 30 31  2  0  0  0
 30 32  1  0  0  0
 32 33  1  0  0  0
  7 13  1  0  0  0
 13 14  2  0  0  0
 14 15  1  0  0  0
 15 16  2  0  0  0
 15 17  1  0  0  0
 17 18  1  0  0  0
 18 19  2  0  0  0
 42 37  1  0  0  0
  6  1  1  0  0  0
 26 21  1  0  0  0
 33 27  2  0  0  0
 19 13  1  0  0  0
 11  4  1  0  0  0
 32 34  1  0  0  0
 17 20  1  0  0  0
M  END
> <minimizedAffinity>
19.82797

> <CNNscore>
0.5101192594

> <CNNaffinity>
7.9953856468

> <CNN_VS>
4.0786004066

> <CNNaffinity_variance>
0.7880362272

$$$$
[H]c1nc(C([H])([H])N2C([H])([H])C([H])([H])C3(C(=O)N(c4c([H])c([H])c(-c5c([H])nc(=O)n([H])c5[H])c([H])c4[H])C(=O)N3c3nc([H])n([H])c(=O)c3[H])C([H])([H])C2([H])[H])c(C([H])([H])[H])c([H])c1[H]


 42 47  0  0  0  0  0  0  0  0999 V2000
   13.3254   25.6465   -3.8520 N   0  0  0  0  0  0  0  0  0  0  0  0
   14.3012   24.5730   -3.9992 C   0  0  0  0  0  0  0  0  0  0  0  0
   15.0368   24.1855   -2.7821 C   0  0  0  0  0  0  0  0  0  0  0  0
   14.3260   24.4650   -1.5137 C   0  0  0  0  0  0  0  0  0  0  0  0
   13.9780   25.9359   -1.4780 C   0  0  0  0  0  0  0  0  0  0  0  0
   13.7312   26.5604   -2.8013 C   0  0  0  0  0  0  0  0  0  0  0  0
   15.1134   24.1064   -0.3378 N   0  0  0  0  0  0  0  0  0  0  0  0
   14.1953   23.6344    0.6597 C   0  0  0  0  0  0  0  0  0  0  0  0
   14.4128   23.4469    1.8819 O   0  0  0  0  0  0  0  0  0  0  0  0
   12.9223   23.3878    0.0574 N   0  0  0  0  0  0  0  0  0  0  0  0
   13.0793   23.7118   -1.3143 C   0  0  0  0  0  0  0  0  0  0  0  0
   12.2443   23.3810   -2.1906 O   0  0  0  0  0  0  0  0  0  0  0  0
   16.5072   24.1858   -0.0848 C   0  0  0  0  0  0  0  0  0  0  0  0
   17.0569   24.1954    1.1629 C   0  0  0  0  0  0  0  0  0  0  0  0
   18.4467   24.2869    1.2766 C   0  0  0  0  0  0  0  0  0  0  0  0
   18.9506   24.2954    2.4269 O   0  0  0  0  0  0  0  0  0  0  0  0
   19.2604   24.3651    0.2127 N   0  0  0  0  0  0  0  0  0  0  0  0
   18.6870   24.3535   -1.0128 C   0  0  0  0  0  0  0  0  0  0  0  0
   17.3724   24.2678   -1.1422 N   0  0  0  0  0  0  0  0  0  0  0  0
   20.3066   24.4343    0.2946 H   0  0  0  0  0  0  0  0  0  0  0  0
   11.7459   22.9222    0.7514 C   0  0  0  0  0  0  0  0  0  0  0  0
   11.5604   21.5766    0.9272 C   0  0  0  0  0  0  0  0  0  0  0  0
   10.4431   21.1208    1.6111 C   0  0  0  0  0  0  0  0  0  0  0  0
    9.4939   21.9804    2.1303 C   0  0  0  0  0  0  0  0  0  0  0  0
    9.6906   23.3300    1.9462 C   0  0  0  0  0  0  0  0  0  0  0  0
   10.8064   23.7903    1.2633 C   0  0  0  0  0  0  0  0  0  0  0  0
    8.3234   21.5137    2.8727 C   0  0  0  0  0  0  0  0  0  0  0  0
    7.0717   21.4600    2.2953 C   0  0  0  0  0  0  0  0  0  0  0  0
    6.0549   21.0296    3.0613 N   0  0  0  0  0  0  0  0  0  0  0  0
    6.2245   20.6603    4.3419 C   0  0  0  0  0  0  0  0  0  0  0  0
    5.2485   20.2611    5.0355 O   0  0  0  0  0  0  0  0  0  0  0  0
    7.4264   20.7059    4.9167 N   0  0  0  0  0  0  0  0  0  0  0  0
    8.4710   21.1306    4.1853 C   0  0  0  0  0  0  0  0  0  0  0  0
    7.5796   20.4260    5.9043 H   0  0  0  0  0  0  0  0  0  0  0  0
   13.3871   26.4268   -5.0942 C   0  0  0  0  0  0  0  0  0  0  0  0
   14.6989   25.6323   -7.4134 C   0  0  0  0  0  0  0  0  0  0  0  0
   15.2960   26.6908   -6.5714 C   0  0  0  0  0  0  0  0  0  0  0  0
   16.4681   27.2581   -6.9668 C   0  0  0  0  0  0  0  0  0  0  0  0
   17.0424   28.2437   -6.1949 C   0  0  0  0  0  0  0  0  0  0  0  0
   16.3860   28.6251   -5.0198 C   0  0  0  0  0  0  0  0  0  0  0  0
   15.2311   28.0433   -4.6638 N   0  0  0  0  0  0  0  0  0  0  0  0
   14.6398   27.0793   -5.3892 C   0  0  0  0  0  0  0  0  0  0  0  0
 36 37  1  0  0  0
 37 38  2  0  0  0
 38 39  1  0  0  0
 39 40  2  0  0  0
 40 41  1  0  0  0
 41 42  2  0  0  0
 42 35  1  0  0  0
 35  1  1  0  0  0
  1  2  1  0  0  0
  2  3  1  0  0  0
  3  4  1  0  0  0
  4  5  1  0  0  0
  5  6  1  0  0  0
  4  7  1  0  0  0
  7  8  1  0  0  0
  8  9  2  0  0  0
  8 10  1  0  0  0
 10 11  1  0  0  0
 11 12  2  0  0  0
 10 21  1  0  0  0
 21 22  2  0  0  0
 22 23  1  0  0  0
 23 24  2  0  0  0
 24 25  1  0  0  0
 25 26  2  0  0  0
 24 27  1  0  0  0
 27 28  1  0  0  0
 28 29  2  0  0  0
 29 30  1  0  0  0
 30 31  2  0  0  0
 30 32  1  0  0  0
 32 33  1  0  0  0
  7 13  1  0  0  0
 13 14  2  0  0  0
 14 15  1  0  0  0
 15 16  2  0  0  0
 15 17  1  0  0  0
 17 18  1  0  0  0
 18 19  2  0  0  0
 42 37  1  0  0  0
  6  1  1  0  0  0
 26 21  1  0  0  0
 33 27  2  0  0  0
 19 13  1  0  0  0
 11  4  1  0  0  0
 32 34  1  0  0  0
 17 20  1  0  0  0
M  END
> <minimizedAffinity>
6.96871

> <CNNscore>
0.5014457107

> <CNNaffinity>
7.9884557724

> <CNN_VS>
4.0057768822

> <CNNaffinity_variance>
0.7778662443

$$$$
[H]c1nc(C([H])([H])N2C([H])([H])C([H])([H])C3(C(=O)N(c4c([H])c([H])c(-c5c([H])nc(=O)n([H])c5[H])c([H])c4[H])C(=O)N3c3nc([H])n([H])c(=O)c3[H])C([H])([H])C2([H])[H])c(C([H])([H])[H])c([H])c1[H]


 42 47  0  0  0  0  0  0  0  0999 V2000
   10.5241   28.7966   -4.0360 N   0  0  0  0  0  0  0  0  0  0  0  0
   10.7228   28.0524   -5.2742 C   0  0  0  0  0  0  0  0  0  0  0  0
   12.0349   27.4030   -5.4443 C   0  0  0  0  0  0  0  0  0  0  0  0
   12.7300   27.0709   -4.1798 C   0  0  0  0  0  0  0  0  0  0  0  0
   12.8661   28.3376   -3.3655 C   0  0  0  0  0  0  0  0  0  0  0  0
   11.7843   29.3344   -3.5597 C   0  0  0  0  0  0  0  0  0  0  0  0
   14.0431   26.4725   -4.4012 N   0  0  0  0  0  0  0  0  0  0  0  0
   14.2524   25.5105   -3.3563 C   0  0  0  0  0  0  0  0  0  0  0  0
   15.3249   24.9439   -3.0325 O   0  0  0  0  0  0  0  0  0  0  0  0
   13.0152   25.2586   -2.6856 N   0  0  0  0  0  0  0  0  0  0  0  0
   12.0547   26.0744   -3.3359 C   0  0  0  0  0  0  0  0  0  0  0  0
   10.8187   25.9264   -3.1781 O   0  0  0  0  0  0  0  0  0  0  0  0
   15.0294   26.7192   -5.3907 C   0  0  0  0  0  0  0  0  0  0  0  0
   15.2172   25.9379   -6.4923 C   0  0  0  0  0  0  0  0  0  0  0  0
   16.2317   26.2849   -7.3885 C   0  0  0  0  0  0  0  0  0  0  0  0
   16.4027   25.5638   -8.4024 O   0  0  0  0  0  0  0  0  0  0  0  0
   17.0261   27.3514   -7.2112 N   0  0  0  0  0  0  0  0  0  0  0  0
   16.8168   28.1083   -6.1093 C   0  0  0  0  0  0  0  0  0  0  0  0
   15.8613   27.7966   -5.2479 N   0  0  0  0  0  0  0  0  0  0  0  0
   17.7907   27.6153   -7.8835 H   0  0  0  0  0  0  0  0  0  0  0  0
   12.8379   24.3618   -1.5689 C   0  0  0  0  0  0  0  0  0  0  0  0
   12.3231   24.8463   -0.3958 C   0  0  0  0  0  0  0  0  0  0  0  0
   12.1297   23.9875    0.6760 C   0  0  0  0  0  0  0  0  0  0  0  0
   12.4400   22.6426    0.6095 C   0  0  0  0  0  0  0  0  0  0  0  0
   12.9577   22.1679   -0.5739 C   0  0  0  0  0  0  0  0  0  0  0  0
   13.1524   23.0228   -1.6483 C   0  0  0  0  0  0  0  0  0  0  0  0
   12.2199   21.7224    1.7247 C   0  0  0  0  0  0  0  0  0  0  0  0
   11.3191   22.0037    2.7309 C   0  0  0  0  0  0  0  0  0  0  0  0
   11.1956   21.1029    3.7206 N   0  0  0  0  0  0  0  0  0  0  0  0
   11.9098   19.9653    3.7518 C   0  0  0  0  0  0  0  0  0  0  0  0
   11.7713   19.1394    4.6961 O   0  0  0  0  0  0  0  0  0  0  0  0
   12.7851   19.6769    2.7886 N   0  0  0  0  0  0  0  0  0  0  0  0
   12.9392   20.5514    1.7797 C   0  0  0  0  0  0  0  0  0  0  0  0
   13.3473   18.8045    2.7934 H   0  0  0  0  0  0  0  0  0  0  0  0
    9.7088   29.9656   -4.3892 C   0  0  0  0  0  0  0  0  0  0  0  0
    7.7807   28.7942   -6.0144 C   0  0  0  0  0  0  0  0  0  0  0  0
    7.3768   29.3729   -4.7152 C   0  0  0  0  0  0  0  0  0  0  0  0
    6.0692   29.3008   -4.3450 C   0  0  0  0  0  0  0  0  0  0  0  0
    5.6719   29.8366   -3.1400 C   0  0  0  0  0  0  0  0  0  0  0  0
    6.6444   30.4408   -2.3362 C   0  0  0  0  0  0  0  0  0  0  0  0
    7.9241   30.4913   -2.7348 N   0  0  0  0  0  0  0  0  0  0  0  0
    8.3507   29.9807   -3.9020 C   0  0  0  0  0  0  0  0  0  0  0  0
 36 37  1  0  0  0
 37 38  2  0  0  0
 38 39  1  0  0  0
 39 40  2  0  0  0
 40 41  1  0  0  0
 41 42  2  0  0  0
 42 35  1  0  0  0
 35  1  1  0  0  0
  1  2  1  0  0  0
  2  3  1  0  0  0
  3  4  1  0  0  0
  4  5  1  0  0  0
  5  6  1  0  0  0
  4  7  1  0  0  0
  7  8  1  0  0  0
  8  9  2  0  0  0
  8 10  1  0  0  0
 10 11  1  0  0  0
 11 12  2  0  0  0
 10 21  1  0  0  0
 21 22  2  0  0  0
 22 23  1  0  0  0
 23 24  2  0  0  0
 24 25  1  0  0  0
 25 26  2  0  0  0
 24 27  1  0  0  0
 27 28  1  0  0  0
 28 29  2  0  0  0
 29 30  1  0  0  0
 30 31  2  0  0  0
 30 32  1  0  0  0
 32 33  1  0  0  0
  7 13  1  0  0  0
 13 14  2  0  0  0
 14 15  1  0  0  0
 15 16  2  0  0  0
 15 17  1  0  0  0
 17 18  1  0  0  0
 18 19  2  0  0  0
 42 37  1  0  0  0
  6  1  1  0  0  0
 26 21  1  0  0  0
 33 27  2  0  0  0
 19 13  1  0  0  0
 11  4  1  0  0  0
 32 34  1  0  0  0
 17 20  1  0  0  0
M  END
> <minimizedAffinity>
18.26089

> <CNNscore>
0.4696767032

> <CNNaffinity>
7.2839326859

> <CNN_VS>
3.4210934639

> <CNNaffinity_variance>
0.5648920536

$$$$
[H]c1nc(C([H])([H])N2C([H])([H])C([H])([H])C3(C(=O)N(c4c([H])c([H])c(-c5c([H])nc(=O)n([H])c5[H])c([H])c4[H])C(=O)N3c3nc([H])n([H])c(=O)c3[H])C([H])([H])C2([H])[H])c(C([H])([H])[H])c([H])c1[H]


 42 47  0  0  0  0  0  0  0  0999 V2000
   14.6942   26.1662   -3.6638 N   0  0  0  0  0  0  0  0  0  0  0  0
   15.6437   25.0725   -3.8333 C   0  0  0  0  0  0  0  0  0  0  0  0
   16.2134   24.5030   -2.5990 C   0  0  0  0  0  0  0  0  0  0  0  0
   15.3647   24.6591   -1.3958 C   0  0  0  0  0  0  0  0  0  0  0  0
   15.0651   26.1298   -1.2130 C   0  0  0  0  0  0  0  0  0  0  0  0
   15.0012   26.9233   -2.4652 C   0  0  0  0  0  0  0  0  0  0  0  0
   15.9918   24.1208   -0.1924 N   0  0  0  0  0  0  0  0  0  0  0  0
   14.9445   23.5754    0.6240 C   0  0  0  0  0  0  0  0  0  0  0  0
   15.0065   23.2289    1.8291 O   0  0  0  0  0  0  0  0  0  0  0  0
   13.7459   23.4671   -0.1477 N   0  0  0  0  0  0  0  0  0  0  0  0
   14.0781   23.9490   -1.4395 C   0  0  0  0  0  0  0  0  0  0  0  0
   13.3442   23.7695   -2.4413 O   0  0  0  0  0  0  0  0  0  0  0  0
   17.3467   24.1004    0.2278 C   0  0  0  0  0  0  0  0  0  0  0  0
   17.7565   24.3857    1.4966 C   0  0  0  0  0  0  0  0  0  0  0  0
   19.1242   24.3391    1.7800 C   0  0  0  0  0  0  0  0  0  0  0  0
   19.4991   24.6023    2.9494 O   0  0  0  0  0  0  0  0  0  0  0  0
   20.0480   24.0259    0.8589 N   0  0  0  0  0  0  0  0  0  0  0  0
   19.6123   23.7475   -0.3915 C   0  0  0  0  0  0  0  0  0  0  0  0
   18.3212   23.7864   -0.6806 N   0  0  0  0  0  0  0  0  0  0  0  0
   21.0780   23.9901    1.0687 H   0  0  0  0  0  0  0  0  0  0  0  0
   12.4792   22.9779    0.3406 C   0  0  0  0  0  0  0  0  0  0  0  0
   12.3970   21.7003    0.8273 C   0  0  0  0  0  0  0  0  0  0  0  0
   11.1885   21.2286    1.3180 C   0  0  0  0  0  0  0  0  0  0  0  0
   10.0456   22.0051    1.3363 C   0  0  0  0  0  0  0  0  0  0  0  0
   10.1404   23.2865    0.8435 C   0  0  0  0  0  0  0  0  0  0  0  0
   11.3467   23.7626    0.3523 C   0  0  0  0  0  0  0  0  0  0  0  0
    8.7712   21.5273    1.8715 C   0  0  0  0  0  0  0  0  0  0  0  0
    8.5512   21.4124    3.2285 C   0  0  0  0  0  0  0  0  0  0  0  0
    7.3525   20.9514    3.6242 N   0  0  0  0  0  0  0  0  0  0  0  0
    6.3893   20.6091    2.7523 C   0  0  0  0  0  0  0  0  0  0  0  0
    5.2737   20.1784    3.1560 O   0  0  0  0  0  0  0  0  0  0  0  0
    6.5840   20.7130    1.4377 N   0  0  0  0  0  0  0  0  0  0  0  0
    7.7695   21.1701    0.9994 C   0  0  0  0  0  0  0  0  0  0  0  0
    5.8541   20.4535    0.7469 H   0  0  0  0  0  0  0  0  0  0  0  0
   14.9318   27.0892   -4.7808 C   0  0  0  0  0  0  0  0  0  0  0  0
   16.2658   28.7777   -6.5416 C   0  0  0  0  0  0  0  0  0  0  0  0
   16.0840   27.3553   -6.9015 C   0  0  0  0  0  0  0  0  0  0  0  0
   16.5911   26.9094   -8.0831 C   0  0  0  0  0  0  0  0  0  0  0  0
   16.4297   25.5885   -8.4384 C   0  0  0  0  0  0  0  0  0  0  0  0
   15.7413   24.7493   -7.5559 C   0  0  0  0  0  0  0  0  0  0  0  0
   15.2570   25.2255   -6.3993 N   0  0  0  0  0  0  0  0  0  0  0  0
   15.3935   26.5063   -6.0173 C   0  0  0  0  0  0  0  0  0  0  0  0
 36 37  1  0  0  0
 37 38  2  0  0  0
 38 39  1  0  0  0
 39 40  2  0  0  0
 40 41  1  0  0  0
 41 42  2  0  0  0
 42 35  1  0  0  0
 35  1  1  0  0  0
  1  2  1  0  0  0
  2  3  1  0  0  0
  3  4  1  0  0  0
  4  5  1  0  0  0
  5  6  1  0  0  0
  4  7  1  0  0  0
  7  8  1  0  0  0
  8  9  2  0  0  0
  8 10  1  0  0  0
 10 11  1  0  0  0
 11 12  2  0  0  0
 10 21  1  0  0  0
 21 22  2  0  0  0
 22 23  1  0  0  0
 23 24  2  0  0  0
 24 25  1  0  0  0
 25 26  2  0  0  0
 24 27  1  0  0  0
 27 28  1  0  0  0
 28 29  2  0  0  0
 29 30  1  0  0  0
 30 31  2  0  0  0
 30 32  1  0  0  0
 32 33  1  0  0  0
  7 13  1  0  0  0
 13 14  2  0  0  0
 14 15  1  0  0  0
 15 16  2  0  0  0
 15 17  1  0  0  0
 17 18  1  0  0  0
 18 19  2  0  0  0
 42 37  1  0  0  0
  6  1  1  0  0  0
 26 21  1  0  0  0
 33 27  2  0  0  0
 19 13  1  0  0  0
 11  4  1  0  0  0
 32 34  1  0  0  0
 17 20  1  0  0  0
M  END
> <minimizedAffinity>
12.01632

> <CNNscore>
0.4622367918

> <CNNaffinity>
8.0679769516

> <CNN_VS>
3.7293157578

> <CNNaffinity_variance>
1.1710907221

$$$$
[H]c1nc(C([H])([H])N2C([H])([H])C([H])([H])C3(C(=O)N(c4c([H])c([H])c(-c5c([H])nc(=O)n([H])c5[H])c([H])c4[H])C(=O)N3c3nc([H])n([H])c(=O)c3[H])C([H])([H])C2([H])[H])c(C([H])([H])[H])c([H])c1[H]


 42 47  0  0  0  0  0  0  0  0999 V2000
   13.3579   26.0957   -3.9542 N   0  0  0  0  0  0  0  0  0  0  0  0
   14.3149   25.0215   -4.1922 C   0  0  0  0  0  0  0  0  0  0  0  0
   15.0520   24.5285   -3.0148 C   0  0  0  0  0  0  0  0  0  0  0  0
   14.3543   24.7197   -1.7229 C   0  0  0  0  0  0  0  0  0  0  0  0
   14.0309   26.1887   -1.5702 C   0  0  0  0  0  0  0  0  0  0  0  0
   13.7859   26.9183   -2.8388 C   0  0  0  0  0  0  0  0  0  0  0  0
   15.1434   24.2580   -0.5847 N   0  0  0  0  0  0  0  0  0  0  0  0
   14.2241   23.7245    0.3802 C   0  0  0  0  0  0  0  0  0  0  0  0
   14.4466   23.4389    1.5823 O   0  0  0  0  0  0  0  0  0  0  0  0
   12.9434   23.5459   -0.2294 N   0  0  0  0  0  0  0  0  0  0  0  0
   13.0966   23.9733   -1.5730 C   0  0  0  0  0  0  0  0  0  0  0  0
   12.2505   23.7252   -2.4657 O   0  0  0  0  0  0  0  0  0  0  0  0
   16.5399   24.2952   -0.3373 C   0  0  0  0  0  0  0  0  0  0  0  0
   17.0949   24.2776    0.9080 C   0  0  0  0  0  0  0  0  0  0  0  0
   18.4873   24.3282    1.0162 C   0  0  0  0  0  0  0  0  0  0  0  0
   18.9961   24.3118    2.1643 O   0  0  0  0  0  0  0  0  0  0  0  0
   19.2983   24.3928   -0.0505 N   0  0  0  0  0  0  0  0  0  0  0  0
   18.7197   24.4088   -1.2735 C   0  0  0  0  0  0  0  0  0  0  0  0
   17.4027   24.3620   -1.3977 N   0  0  0  0  0  0  0  0  0  0  0  0
   20.3465   24.4312    0.0273 H   0  0  0  0  0  0  0  0  0  0  0  0
   11.7640   23.0466    0.4355 C   0  0  0  0  0  0  0  0  0  0  0  0
   11.5993   21.6948    0.5823 C   0  0  0  0  0  0  0  0  0  0  0  0
   10.4791   21.2065    1.2382 C   0  0  0  0  0  0  0  0  0  0  0  0
    9.5064   22.0392    1.7577 C   0  0  0  0  0  0  0  0  0  0  0  0
    9.6823   23.3953    1.6029 C   0  0  0  0  0  0  0  0  0  0  0  0
   10.8009   23.8881    0.9480 C   0  0  0  0  0  0  0  0  0  0  0  0
    8.3322   21.5379    2.4710 C   0  0  0  0  0  0  0  0  0  0  0  0
    7.0762   21.5504    1.9006 C   0  0  0  0  0  0  0  0  0  0  0  0
    6.0564   21.0808    2.6391 N   0  0  0  0  0  0  0  0  0  0  0  0
    6.2271   20.6119    3.8865 C   0  0  0  0  0  0  0  0  0  0  0  0
    5.2482   20.1782    4.5549 O   0  0  0  0  0  0  0  0  0  0  0  0
    7.4331   20.5924    4.4542 N   0  0  0  0  0  0  0  0  0  0  0  0
    8.4807   21.0532    3.7496 C   0  0  0  0  0  0  0  0  0  0  0  0
    7.5872   20.2353    5.4164 H   0  0  0  0  0  0  0  0  0  0  0  0
   13.4244   26.9693   -5.1325 C   0  0  0  0  0  0  0  0  0  0  0  0
   15.8595   28.3074   -5.0290 C   0  0  0  0  0  0  0  0  0  0  0  0
   15.6374   27.2902   -6.0787 C   0  0  0  0  0  0  0  0  0  0  0  0
   16.6423   27.0271   -6.9579 C   0  0  0  0  0  0  0  0  0  0  0  0
   16.4544   26.0853   -7.9452 C   0  0  0  0  0  0  0  0  0  0  0  0
   15.2200   25.4296   -8.0024 C   0  0  0  0  0  0  0  0  0  0  0  0
   14.2539   25.7153   -7.1169 N   0  0  0  0  0  0  0  0  0  0  0  0
   14.3984   26.6267   -6.1404 C   0  0  0  0  0  0  0  0  0  0  0  0
 36 37  1  0  0  0
 37 38  2  0  0  0
 38 39  1  0  0  0
 39 40  2  0  0  0
 40 41  1  0  0  0
 41 42  2  0  0  0
 42 35  1  0  0  0
 35  1  1  0  0  0
  1  2  1  0  0  0
  2  3  1  0  0  0
  3  4  1  0  0  0
  4  5  1  0  0  0
  5  6  1  0  0  0
  4  7  1  0  0  0
  7  8  1  0  0  0
  8  9  2  0  0  0
  8 10  1  0  0  0
 10 11  1  0  0  0
 11 12  2  0  0  0
 10 21  1  0  0  0
 21 22  2  0  0  0
 22 23  1  0  0  0
 23 24  2  0  0  0
 24 25  1  0  0  0
 25 26  2  0  0  0
 24 27  1  0  0  0
 27 28  1  0  0  0
 28 29  2  0  0  0
 29 30  1  0  0  0
 30 31  2  0  0  0
 30 32  1  0  0  0
 32 33  1  0  0  0
  7 13  1  0  0  0
 13 14  2  0  0  0
 14 15  1  0  0  0
 15 16  2  0  0  0
 15 17  1  0  0  0
 17 18  1  0  0  0
 18 19  2  0  0  0
 42 37  1  0  0  0
  6  1  1  0  0  0
 26 21  1  0  0  0
 33 27  2  0  0  0
 19 13  1  0  0  0
 11  4  1  0  0  0
 32 34  1  0  0  0
 17 20  1  0  0  0
M  END
> <minimizedAffinity>
5.94383

> <CNNscore>
0.4611395299

> <CNNaffinity>
7.9815254211

> <CNN_VS>
3.6805968285

> <CNNaffinity_variance>
0.9344059229

$$$$
[H]c1nc(C([H])([H])N2C([H])([H])C([H])([H])C3(C(=O)N(c4c([H])c([H])c(-c5c([H])nc(=O)n([H])c5[H])c([H])c4[H])C(=O)N3c3nc([H])n([H])c(=O)c3[H])C([H])([H])C2([H])[H])c(C([H])([H])[H])c([H])c1[H]


 42 47  0  0  0  0  0  0  0  0999 V2000
   15.1482   25.7674   -4.0041 N   0  0  0  0  0  0  0  0  0  0  0  0
   16.2687   24.8447   -3.8638 C   0  0  0  0  0  0  0  0  0  0  0  0
   16.5203   24.3217   -2.5090 C   0  0  0  0  0  0  0  0  0  0  0  0
   15.3322   24.2925   -1.6259 C   0  0  0  0  0  0  0  0  0  0  0  0
   14.7564   25.6889   -1.5576 C   0  0  0  0  0  0  0  0  0  0  0  0
   14.9486   26.5134   -2.7763 C   0  0  0  0  0  0  0  0  0  0  0  0
   15.6420   23.8106   -0.2832 N   0  0  0  0  0  0  0  0  0  0  0  0
   14.4992   23.0740    0.1774 C   0  0  0  0  0  0  0  0  0  0  0  0
   14.2470   22.6922    1.3465 O   0  0  0  0  0  0  0  0  0  0  0  0
   13.6266   22.8102   -0.9240 N   0  0  0  0  0  0  0  0  0  0  0  0
   14.2533   23.3912   -2.0559 C   0  0  0  0  0  0  0  0  0  0  0  0
   13.8984   23.1398   -3.2328 O   0  0  0  0  0  0  0  0  0  0  0  0
   16.7892   23.9865    0.5329 C   0  0  0  0  0  0  0  0  0  0  0  0
   17.1411   25.1707    1.1097 C   0  0  0  0  0  0  0  0  0  0  0  0
   18.3029   25.2135    1.8852 C   0  0  0  0  0  0  0  0  0  0  0  0
   18.6248   26.3055    2.4154 O   0  0  0  0  0  0  0  0  0  0  0  0
   19.0840   24.1413    2.0855 N   0  0  0  0  0  0  0  0  0  0  0  0
   18.7102   22.9797    1.5009 C   0  0  0  0  0  0  0  0  0  0  0  0
   17.6135   22.9181    0.7623 N   0  0  0  0  0  0  0  0  0  0  0  0
   19.9591   24.1700    2.6683 H   0  0  0  0  0  0  0  0  0  0  0  0
   12.3685   22.1080   -0.8435 C   0  0  0  0  0  0  0  0  0  0  0  0
   11.2114   22.7679   -1.1620 C   0  0  0  0  0  0  0  0  0  0  0  0
    9.9997   22.0953   -1.1075 C   0  0  0  0  0  0  0  0  0  0  0  0
    9.9089   20.7666   -0.7391 C   0  0  0  0  0  0  0  0  0  0  0  0
   11.0782   20.1146   -0.4201 C   0  0  0  0  0  0  0  0  0  0  0  0
   12.2920   20.7830   -0.4735 C   0  0  0  0  0  0  0  0  0  0  0  0
    8.6404   20.0399   -0.6994 C   0  0  0  0  0  0  0  0  0  0  0  0
    7.4329   20.6941   -0.5696 C   0  0  0  0  0  0  0  0  0  0  0  0
    6.3215   19.9397   -0.5294 N   0  0  0  0  0  0  0  0  0  0  0  0
    6.3581   18.5991   -0.6106 C   0  0  0  0  0  0  0  0  0  0  0  0
    5.2960   17.9185   -0.5691 O   0  0  0  0  0  0  0  0  0  0  0  0
    7.5156   17.9497   -0.7360 N   0  0  0  0  0  0  0  0  0  0  0  0
    8.6514   18.6669   -0.7803 C   0  0  0  0  0  0  0  0  0  0  0  0
    7.5667   16.9151   -0.7997 H   0  0  0  0  0  0  0  0  0  0  0  0
   15.5613   26.7615   -5.0027 C   0  0  0  0  0  0  0  0  0  0  0  0
   13.3716   26.9342   -6.7075 C   0  0  0  0  0  0  0  0  0  0  0  0
   14.6465   26.3895   -7.2210 C   0  0  0  0  0  0  0  0  0  0  0  0
   14.7148   26.0012   -8.5235 C   0  0  0  0  0  0  0  0  0  0  0  0
   15.8924   25.4882   -9.0206 C   0  0  0  0  0  0  0  0  0  0  0  0
   16.9843   25.3871   -8.1520 C   0  0  0  0  0  0  0  0  0  0  0  0
   16.8787   25.7816   -6.8744 N   0  0  0  0  0  0  0  0  0  0  0  0
   15.7484   26.2865   -6.3523 C   0  0  0  0  0  0  0  0  0  0  0  0
 36 37  1  0  0  0
 37 38  2  0  0  0
 38 39  1  0  0  0
 39 40  2  0  0  0
 40 41  1  0  0  0
 41 42  2  0  0  0
 42 35  1  0  0  0
 35  1  1  0  0  0
  1  2  1  0  0  0
  2  3  1  0  0  0
  3  4  1  0  0  0
  4  5  1  0  0  0
  5  6  1  0  0  0
  4  7  1  0  0  0
  7  8  1  0  0  0
  8  9  2  0  0  0
  8 10  1  0  0  0
 10 11  1  0  0  0
 11 12  2  0  0  0
 10 21  1  0  0  0
 21 22  2  0  0  0
 22 23  1  0  0  0
 23 24  2  0  0  0
 24 25  1  0  0  0
 25 26  2  0  0  0
 24 27  1  0  0  0
 27 28  1  0  0  0
 28 29  2  0  0  0
 29 30  1  0  0  0
 30 31  2  0  0  0
 30 32  1  0  0  0
 32 33  1  0  0  0
  7 13  1  0  0  0
 13 14  2  0  0  0
 14 15  1  0  0  0
 15 16  2  0  0  0
 15 17  1  0  0  0
 17 18  1  0  0  0
 18 19  2  0  0  0
 42 37  1  0  0  0
  6  1  1  0  0  0
 26 21  1  0  0  0
 33 27  2  0  0  0
 19 13  1  0  0  0
 11  4  1  0  0  0
 32 34  1  0  0  0
 17 20  1  0  0  0
M  END
> <minimizedAffinity>
20.52986

> <CNNscore>
0.4366458058

> <CNNaffinity>
7.7569952011

> <CNN_VS>
3.3870594501

> <CNNaffinity_variance>
0.5523731112

$$$$
[H]c1nc(C([H])([H])N2C([H])([H])C([H])([H])C3(C(=O)N(c4c([H])c([H])c(-c5c([H])nc(=O)n([H])c5[H])c([H])c4[H])C(=O)N3c3nc([H])n([H])c(=O)c3[H])C([H])([H])C2([H])[H])c(C([H])([H])[H])c([H])c1[H]


 42 47  0  0  0  0  0  0  0  0999 V2000
    9.5285   20.5365    0.8054 N   0  0  0  0  0  0  0  0  0  0  0  0
    8.3259   21.3447    0.6421 C   0  0  0  0  0  0  0  0  0  0  0  0
    8.3540   22.6895    1.2447 C   0  0  0  0  0  0  0  0  0  0  0  0
    9.7067   23.2724    1.3952 C   0  0  0  0  0  0  0  0  0  0  0  0
   10.5512   22.3116    2.2013 C   0  0  0  0  0  0  0  0  0  0  0  0
   10.2047   20.8775    2.0425 C   0  0  0  0  0  0  0  0  0  0  0  0
    9.6852   24.5831    2.0378 N   0  0  0  0  0  0  0  0  0  0  0  0
   10.7354   25.3628    1.4462 C   0  0  0  0  0  0  0  0  0  0  0  0
   11.2150   26.4484    1.8557 O   0  0  0  0  0  0  0  0  0  0  0  0
   11.1999   24.7145    0.2597 N   0  0  0  0  0  0  0  0  0  0  0  0
   10.4192   23.5370    0.1368 C   0  0  0  0  0  0  0  0  0  0  0  0
   10.3789   22.8551   -0.9157 O   0  0  0  0  0  0  0  0  0  0  0  0
    8.8665   25.1051    3.0723 C   0  0  0  0  0  0  0  0  0  0  0  0
    7.7312   24.5008    3.5251 C   0  0  0  0  0  0  0  0  0  0  0  0
    7.0076   25.1244    4.5452 C   0  0  0  0  0  0  0  0  0  0  0  0
    5.9622   24.5659    4.9606 O   0  0  0  0  0  0  0  0  0  0  0  0
    7.3821   26.2890    5.0961 N   0  0  0  0  0  0  0  0  0  0  0  0
    8.5127   26.8655    4.6268 C   0  0  0  0  0  0  0  0  0  0  0  0
    9.2124   26.2913    3.6609 N   0  0  0  0  0  0  0  0  0  0  0  0
    6.8398   26.7611    5.8637 H   0  0  0  0  0  0  0  0  0  0  0  0
   12.2613   25.1931   -0.5929 C   0  0  0  0  0  0  0  0  0  0  0  0
   13.4615   24.5333   -0.6031 C   0  0  0  0  0  0  0  0  0  0  0  0
   14.4804   24.9736   -1.4347 C   0  0  0  0  0  0  0  0  0  0  0  0
   14.3339   26.0676   -2.2661 C   0  0  0  0  0  0  0  0  0  0  0  0
   13.1240   26.7231   -2.2460 C   0  0  0  0  0  0  0  0  0  0  0  0
   12.1022   26.2862   -1.4164 C   0  0  0  0  0  0  0  0  0  0  0  0
   15.3924   26.5283   -3.1639 C   0  0  0  0  0  0  0  0  0  0  0  0
   15.1083   27.1364   -4.3691 C   0  0  0  0  0  0  0  0  0  0  0  0
   16.1483   27.5137   -5.1322 N   0  0  0  0  0  0  0  0  0  0  0  0
   17.4238   27.3178   -4.7584 C   0  0  0  0  0  0  0  0  0  0  0  0
   18.3789   27.6832   -5.4984 O   0  0  0  0  0  0  0  0  0  0  0  0
   17.7174   26.7317   -3.5977 N   0  0  0  0  0  0  0  0  0  0  0  0
   16.7063   26.3389   -2.8041 C   0  0  0  0  0  0  0  0  0  0  0  0
   18.6953   26.5701   -3.2900 H   0  0  0  0  0  0  0  0  0  0  0  0
    9.0693   19.1527    0.9794 C   0  0  0  0  0  0  0  0  0  0  0  0
    8.7757   18.3854   -1.6768 C   0  0  0  0  0  0  0  0  0  0  0  0
    7.5826   18.4470   -0.8058 C   0  0  0  0  0  0  0  0  0  0  0  0
    6.3724   18.1097   -1.3290 C   0  0  0  0  0  0  0  0  0  0  0  0
    5.2482   18.1635   -0.5352 C   0  0  0  0  0  0  0  0  0  0  0  0
    5.4011   18.5684    0.7951 C   0  0  0  0  0  0  0  0  0  0  0  0
    6.6110   18.8918    1.2751 N   0  0  0  0  0  0  0  0  0  0  0  0
    7.7305   18.8523    0.5332 C   0  0  0  0  0  0  0  0  0  0  0  0
 36 37  1  0  0  0
 37 38  2  0  0  0
 38 39  1  0  0  0
 39 40  2  0  0  0
 40 41  1  0  0  0
 41 42  2  0  0  0
 42 35  1  0  0  0
 35  1  1  0  0  0
  1  2  1  0  0  0
  2  3  1  0  0  0
  3  4  1  0  0  0
  4  5  1  0  0  0
  5  6  1  0  0  0
  4  7  1  0  0  0
  7  8  1  0  0  0
  8  9  2  0  0  0
  8 10  1  0  0  0
 10 11  1  0  0  0
 11 12  2  0  0  0
 10 21  1  0  0  0
 21 22  2  0  0  0
 22 23  1  0  0  0
 23 24  2  0  0  0
 24 25  1  0  0  0
 25 26  2  0  0  0
 24 27  1  0  0  0
 27 28  1  0  0  0
 28 29  2  0  0  0
 29 30  1  0  0  0
 30 31  2  0  0  0
 30 32  1  0  0  0
 32 33  1  0  0  0
  7 13  1  0  0  0
 13 14  2  0  0  0
 14 15  1  0  0  0
 15 16  2  0  0  0
 15 17  1  0  0  0
 17 18  1  0  0  0
 18 19  2  0  0  0
 42 37  1  0  0  0
  6  1  1  0  0  0
 26 21  1  0  0  0
 33 27  2  0  0  0
 19 13  1  0  0  0
 11  4  1  0  0  0
 32 34  1  0  0  0
 17 20  1  0  0  0
M  END
> <minimizedAffinity>
7.67471

> <CNNscore>
0.4350892007

> <CNNaffinity>
7.2304306030

> <CNN_VS>
3.1458823681

> <CNNaffinity_variance>
1.2964648008

$$$$
[H]c1nc(OC([H])([H])[H])c([H])c(N2C(=O)N(c3c([H])c([H])c(-c4c([H])c([H])c(C(=O)N([H])[H])c([H])c4[H])c([H])c3[H])C(=O)C23C([H])([H])C([H])([H])N(C([H])([H])c2nc([H])c([H])c([H])c2C([H])([H])[H])C([H])([H])C3([H])[H])n1


 45 50  0  0  0  0  0  0  0  0999 V2000
   14.4364   24.2873   -0.7791 N   0  0  0  0  0  0  0  0  0  0  0  0
   13.7905   23.3265    0.0876 C   0  0  0  0  0  0  0  0  0  0  0  0
   14.3778   22.3254    0.5725 O   0  0  0  0  0  0  0  0  0  0  0  0
   12.4450   23.7691    0.2335 N   0  0  0  0  0  0  0  0  0  0  0  0
   12.2720   24.9599   -0.5196 C   0  0  0  0  0  0  0  0  0  0  0  0
   11.3118   25.7423   -0.3406 O   0  0  0  0  0  0  0  0  0  0  0  0
   13.4170   25.0243   -1.4803 C   0  0  0  0  0  0  0  0  0  0  0  0
   12.9951   24.2980   -2.7500 C   0  0  0  0  0  0  0  0  0  0  0  0
   13.5671   25.0621   -3.9189 C   0  0  0  0  0  0  0  0  0  0  0  0
   12.8139   26.2911   -4.1047 N   0  0  0  0  0  0  0  0  0  0  0  0
   12.7934   26.9866   -2.8107 C   0  0  0  0  0  0  0  0  0  0  0  0
   13.7885   26.4209   -1.8309 C   0  0  0  0  0  0  0  0  0  0  0  0
   17.9742   24.2868    0.1784 C   0  0  0  0  0  0  0  0  0  0  0  0
   16.6015   24.1406    0.2271 C   0  0  0  0  0  0  0  0  0  0  0  0
   15.8478   24.4435   -0.8895 C   0  0  0  0  0  0  0  0  0  0  0  0
   16.4859   24.8695   -1.9825 N   0  0  0  0  0  0  0  0  0  0  0  0
   17.8207   25.0081   -2.0197 C   0  0  0  0  0  0  0  0  0  0  0  0
   18.5772   24.7189   -0.9426 N   0  0  0  0  0  0  0  0  0  0  0  0
   18.1582   24.2254    2.5823 C   0  0  0  0  0  0  0  0  0  0  0  0
   18.7213   23.9767    1.3169 O   0  0  0  0  0  0  0  0  0  0  0  0
   11.4856   23.0823    1.0275 C   0  0  0  0  0  0  0  0  0  0  0  0
   10.7885   23.7648    2.0028 C   0  0  0  0  0  0  0  0  0  0  0  0
    9.8450   23.1533    2.7838 C   0  0  0  0  0  0  0  0  0  0  0  0
    9.5572   21.8137    2.6161 C   0  0  0  0  0  0  0  0  0  0  0  0
   10.2686   21.1292    1.6252 C   0  0  0  0  0  0  0  0  0  0  0  0
   11.2180   21.7531    0.8431 C   0  0  0  0  0  0  0  0  0  0  0  0
    8.5457   21.1237    3.4226 C   0  0  0  0  0  0  0  0  0  0  0  0
    7.2044   21.3757    3.1387 C   0  0  0  0  0  0  0  0  0  0  0  0
    6.2162   20.7466    3.8709 C   0  0  0  0  0  0  0  0  0  0  0  0
    6.5526   19.8764    4.8734 C   0  0  0  0  0  0  0  0  0  0  0  0
    7.9026   19.6375    5.1423 C   0  0  0  0  0  0  0  0  0  0  0  0
    8.8911   20.2541    4.4253 C   0  0  0  0  0  0  0  0  0  0  0  0
    5.5395   19.1913    5.6659 C   0  0  0  0  0  0  0  0  0  0  0  0
    4.1686   19.4716    5.4749 N   0  0  0  0  0  0  0  0  0  0  0  0
    5.8822   18.3430    6.5280 O   0  0  0  0  0  0  0  0  0  0  0  0
    3.7451   20.3618    5.8627 H   0  0  0  0  0  0  0  0  0  0  0  0
    3.6105   18.7692    4.9436 H   0  0  0  0  0  0  0  0  0  0  0  0
   13.4665   27.1739   -5.0485 C   0  0  0  0  0  0  0  0  0  0  0  0
   14.8785   27.2934   -4.7024 C   0  0  0  0  0  0  0  0  0  0  0  0
   15.3362   27.9539   -3.6255 N   0  0  0  0  0  0  0  0  0  0  0  0
   16.6400   28.0697   -3.3274 C   0  0  0  0  0  0  0  0  0  0  0  0
   17.5674   27.4884   -4.1561 C   0  0  0  0  0  0  0  0  0  0  0  0
   17.1412   26.8027   -5.2701 C   0  0  0  0  0  0  0  0  0  0  0  0
   15.8043   26.7031   -5.5457 C   0  0  0  0  0  0  0  0  0  0  0  0
   15.3466   25.9785   -6.7222 C   0  0  0  0  0  0  0  0  0  0  0  0
 19 20  1  0  0  0
 20 13  1  0  0  0
 13 14  2  0  0  0
 14 15  1  0  0  0
 15 16  2  0  0  0
 16 17  1  0  0  0
 17 18  2  0  0  0
 15  1  1  0  0  0
  1  2  1  0  0  0
  2  3  2  0  0  0
  2  4  1  0  0  0
  4  5  1  0  0  0
  5  6  2  0  0  0
  5  7  1  0  0  0
  7  8  1  0  0  0
  8  9  1  0  0  0
  9 10  1  0  0  0
 10 38  1  0  0  0
 38 39  1  0  0  0
 39 40  2  0  0  0
 40 41  1  0  0  0
 41 42  2  0  0  0
 42 43  1  0  0  0
 43 44  2  0  0  0
 44 45  1  0  0  0
 10 11  1  0  0  0
 11 12  1  0  0  0
  4 21  1  0  0  0
 21 22  2  0  0  0
 22 23  1  0  0  0
 23 24  2  0  0  0
 24 25  1  0  0  0
 25 26  2  0  0  0
 24 27  1  0  0  0
 27 28  2  0  0  0
 28 29  1  0  0  0
 29 30  2  0  0  0
 30 31  1  0  0  0
 31 32  2  0  0  0
 30 33  1  0  0  0
 33 34  1  0  0  0
 33 35  2  0  0  0
 18 13  1  0  0  0
  7  1  1  0  0  0
 12  7  1  0  0  0
 26 21  1  0  0  0
 32 27  1  0  0  0
 44 39  1  0  0  0
 34 36  1  0  0  0
 34 37  1  0  0  0
M  END
> <minimizedAffinity>
8.38304

> <CNNscore>
0.5352718830

> <CNNaffinity>
7.7659811974

> <CNN_VS>
4.1569113731

> <CNNaffinity_variance>
0.9385188222

$$$$
[H]c1nc(OC([H])([H])[H])c([H])c(N2C(=O)N(c3c([H])c([H])c(-c4c([H])c([H])c(C(=O)N([H])[H])c([H])c4[H])c([H])c3[H])C(=O)C23C([H])([H])C([H])([H])N(C([H])([H])c2nc([H])c([H])c([H])c2C([H])([H])[H])C([H])([H])C3([H])[H])n1


 45 50  0  0  0  0  0  0  0  0999 V2000
   14.9853   23.8444   -0.5340 N   0  0  0  0  0  0  0  0  0  0  0  0
   14.1402   23.0759    0.3531 C   0  0  0  0  0  0  0  0  0  0  0  0
   14.5837   22.2392    1.1810 O   0  0  0  0  0  0  0  0  0  0  0  0
   12.8036   23.4768    0.0700 N   0  0  0  0  0  0  0  0  0  0  0  0
   12.8287   24.4566   -0.9568 C   0  0  0  0  0  0  0  0  0  0  0  0
   11.8612   25.2136   -1.1961 O   0  0  0  0  0  0  0  0  0  0  0  0
   14.1720   24.3550   -1.6074 C   0  0  0  0  0  0  0  0  0  0  0  0
   14.0617   23.3411   -2.7376 C   0  0  0  0  0  0  0  0  0  0  0  0
   14.9059   23.8463   -3.8819 C   0  0  0  0  0  0  0  0  0  0  0  0
   14.2316   24.9647   -4.5195 N   0  0  0  0  0  0  0  0  0  0  0  0
   13.9065   25.9336   -3.4640 C   0  0  0  0  0  0  0  0  0  0  0  0
   14.6305   25.6516   -2.1731 C   0  0  0  0  0  0  0  0  0  0  0  0
   18.1783   24.2932    1.2083 C   0  0  0  0  0  0  0  0  0  0  0  0
   16.8333   24.0950    0.9638 C   0  0  0  0  0  0  0  0  0  0  0  0
   16.3831   24.0371   -0.3403 C   0  0  0  0  0  0  0  0  0  0  0  0
   17.2781   24.1764   -1.3214 N   0  0  0  0  0  0  0  0  0  0  0  0
   18.5834   24.3686   -1.0733 C   0  0  0  0  0  0  0  0  0  0  0  0
   19.0463   24.4288    0.1910 N   0  0  0  0  0  0  0  0  0  0  0  0
   19.9625   24.6734    2.7859 C   0  0  0  0  0  0  0  0  0  0  0  0
   18.6165   24.3499    2.5332 O   0  0  0  0  0  0  0  0  0  0  0  0
   11.6746   22.9438    0.7509 C   0  0  0  0  0  0  0  0  0  0  0  0
   10.9182   23.7597    1.5664 C   0  0  0  0  0  0  0  0  0  0  0  0
    9.8143   23.2990    2.2323 C   0  0  0  0  0  0  0  0  0  0  0  0
    9.4177   21.9830    2.1055 C   0  0  0  0  0  0  0  0  0  0  0  0
   10.1902   21.1625    1.2769 C   0  0  0  0  0  0  0  0  0  0  0  0
   11.3012   21.6349    0.6100 C   0  0  0  0  0  0  0  0  0  0  0  0
    8.2352   21.4525    2.7912 C   0  0  0  0  0  0  0  0  0  0  0  0
    7.0315   21.4291    2.0885 C   0  0  0  0  0  0  0  0  0  0  0  0
    5.8914   20.9360    2.6930 C   0  0  0  0  0  0  0  0  0  0  0  0
    5.9427   20.4702    3.9797 C   0  0  0  0  0  0  0  0  0  0  0  0
    7.1587   20.5025    4.6669 C   0  0  0  0  0  0  0  0  0  0  0  0
    8.2950   20.9885    4.0804 C   0  0  0  0  0  0  0  0  0  0  0  0
    4.7627   19.9398    4.6506 C   0  0  0  0  0  0  0  0  0  0  0  0
    4.5361   18.5472    4.7093 N   0  0  0  0  0  0  0  0  0  0  0  0
    3.9362   20.7232    5.1832 O   0  0  0  0  0  0  0  0  0  0  0  0
    4.1793   18.0266    3.8586 H   0  0  0  0  0  0  0  0  0  0  0  0
    4.7348   18.0722    5.6160 H   0  0  0  0  0  0  0  0  0  0  0  0
   15.1009   25.6402   -5.4598 C   0  0  0  0  0  0  0  0  0  0  0  0
   15.9959   26.5349   -4.7344 C   0  0  0  0  0  0  0  0  0  0  0  0
   16.6106   26.2139   -3.5834 N   0  0  0  0  0  0  0  0  0  0  0  0
   17.4196   27.0532   -2.9176 C   0  0  0  0  0  0  0  0  0  0  0  0
   17.6412   28.3091   -3.4258 C   0  0  0  0  0  0  0  0  0  0  0  0
   17.0308   28.6784   -4.6022 C   0  0  0  0  0  0  0  0  0  0  0  0
   16.2115   27.7988   -5.2566 C   0  0  0  0  0  0  0  0  0  0  0  0
   15.5632   28.1828   -6.5021 C   0  0  0  0  0  0  0  0  0  0  0  0
 19 20  1  0  0  0
 20 13  1  0  0  0
 13 14  2  0  0  0
 14 15  1  0  0  0
 15 16  2  0  0  0
 16 17  1  0  0  0
 17 18  2  0  0  0
 15  1  1  0  0  0
  1  2  1  0  0  0
  2  3  2  0  0  0
  2  4  1  0  0  0
  4  5  1  0  0  0
  5  6  2  0  0  0
  5  7  1  0  0  0
  7  8  1  0  0  0
  8  9  1  0  0  0
  9 10  1  0  0  0
 10 38  1  0  0  0
 38 39  1  0  0  0
 39 40  2  0  0  0
 40 41  1  0  0  0
 41 42  2  0  0  0
 42 43  1  0  0  0
 43 44  2  0  0  0
 44 45  1  0  0  0
 10 11  1  0  0  0
 11 12  1  0  0  0
  4 21  1  0  0  0
 21 22  2  0  0  0
 22 23  1  0  0  0
 23 24  2  0  0  0
 24 25  1  0  0  0
 25 26  2  0  0  0
 24 27  1  0  0  0
 27 28  2  0  0  0
 28 29  1  0  0  0
 29 30  2  0  0  0
 30 31  1  0  0  0
 31 32  2  0  0  0
 30 33  1  0  0  0
 33 34  1  0  0  0
 33 35  2  0  0  0
 18 13  1  0  0  0
  7  1  1  0  0  0
 12  7  1  0  0  0
 26 21  1  0  0  0
 32 27  1  0  0  0
 44 39  1  0  0  0
 34 36  1  0  0  0
 34 37  1  0  0  0
M  END
> <minimizedAffinity>
3.45507

> <CNNscore>
0.4872234762

> <CNNaffinity>
7.8861236572

> <CNN_VS>
3.8423044682

> <CNNaffinity_variance>
0.5707622766

$$$$
[H]c1nc(OC([H])([H])[H])c([H])c(N2C(=O)N(c3c([H])c([H])c(-c4c([H])c([H])c(C(=O)N([H])[H])c([H])c4[H])c([H])c3[H])C(=O)C23C([H])([H])C([H])([H])N(C([H])([H])c2nc([H])c([H])c([H])c2C([H])([H])[H])C([H])([H])C3([H])[H])n1


 45 50  0  0  0  0  0  0  0  0999 V2000
   13.3724   25.0201   -2.1126 N   0  0  0  0  0  0  0  0  0  0  0  0
   12.2409   24.6436   -1.2943 C   0  0  0  0  0  0  0  0  0  0  0  0
   11.1226   25.2167   -1.3517 O   0  0  0  0  0  0  0  0  0  0  0  0
   12.6831   23.5588   -0.4850 N   0  0  0  0  0  0  0  0  0  0  0  0
   14.0400   23.2810   -0.7957 C   0  0  0  0  0  0  0  0  0  0  0  0
   14.6001   22.2051   -0.4873 O   0  0  0  0  0  0  0  0  0  0  0  0
   14.5665   24.4848   -1.5110 C   0  0  0  0  0  0  0  0  0  0  0  0
   15.1229   25.4378   -0.4622 C   0  0  0  0  0  0  0  0  0  0  0  0
   16.3662   26.0689   -1.0394 C   0  0  0  0  0  0  0  0  0  0  0  0
   17.4424   25.0922   -1.0459 N   0  0  0  0  0  0  0  0  0  0  0  0
   16.9356   23.8936   -1.7279 C   0  0  0  0  0  0  0  0  0  0  0  0
   15.6503   24.1479   -2.4718 C   0  0  0  0  0  0  0  0  0  0  0  0
   14.2428   26.3677   -5.4079 C   0  0  0  0  0  0  0  0  0  0  0  0
   14.2809   25.6331   -4.2387 C   0  0  0  0  0  0  0  0  0  0  0  0
   13.2758   25.7924   -3.3053 C   0  0  0  0  0  0  0  0  0  0  0  0
   12.2976   26.6600   -3.5763 N   0  0  0  0  0  0  0  0  0  0  0  0
   12.2695   27.3692   -4.7159 C   0  0  0  0  0  0  0  0  0  0  0  0
   13.2393   27.2310   -5.6415 N   0  0  0  0  0  0  0  0  0  0  0  0
   14.9387   25.7252   -7.6258 C   0  0  0  0  0  0  0  0  0  0  0  0
   15.2676   26.1948   -6.3408 O   0  0  0  0  0  0  0  0  0  0  0  0
   11.8434   22.9028    0.4569 C   0  0  0  0  0  0  0  0  0  0  0  0
   11.3139   23.6134    1.5142 C   0  0  0  0  0  0  0  0  0  0  0  0
   10.4892   23.0322    2.4395 C   0  0  0  0  0  0  0  0  0  0  0  0
   10.1565   21.6962    2.3410 C   0  0  0  0  0  0  0  0  0  0  0  0
   10.6978   20.9831    1.2663 C   0  0  0  0  0  0  0  0  0  0  0  0
   11.5283   21.5765    0.3387 C   0  0  0  0  0  0  0  0  0  0  0  0
    9.2671   21.0382    3.3033 C   0  0  0  0  0  0  0  0  0  0  0  0
    7.8935   21.1189    3.0802 C   0  0  0  0  0  0  0  0  0  0  0  0
    7.0170   20.5123    3.9590 C   0  0  0  0  0  0  0  0  0  0  0  0
    7.4956   19.8324    5.0471 C   0  0  0  0  0  0  0  0  0  0  0  0
    8.8757   19.7633    5.2529 C   0  0  0  0  0  0  0  0  0  0  0  0
    9.7547   20.3597    4.3909 C   0  0  0  0  0  0  0  0  0  0  0  0
    6.6034   19.1771    5.9949 C   0  0  0  0  0  0  0  0  0  0  0  0
    5.3451   19.7395    6.3022 N   0  0  0  0  0  0  0  0  0  0  0  0
    6.9510   18.1023    6.5468 O   0  0  0  0  0  0  0  0  0  0  0  0
    5.2759   20.5757    6.9487 H   0  0  0  0  0  0  0  0  0  0  0  0
    4.5081   19.2951    5.8672 H   0  0  0  0  0  0  0  0  0  0  0  0
   18.5795   25.5630   -1.8082 C   0  0  0  0  0  0  0  0  0  0  0  0
   18.1622   26.6640   -2.6692 C   0  0  0  0  0  0  0  0  0  0  0  0
   16.8811   26.9541   -2.9526 N   0  0  0  0  0  0  0  0  0  0  0  0
   16.5116   27.9610   -3.7599 C   0  0  0  0  0  0  0  0  0  0  0  0
   17.4811   28.7454   -4.3339 C   0  0  0  0  0  0  0  0  0  0  0  0
   18.8056   28.4824   -4.0702 C   0  0  0  0  0  0  0  0  0  0  0  0
   19.1490   27.4480   -3.2425 C   0  0  0  0  0  0  0  0  0  0  0  0
   20.5483   27.1648   -2.9586 C   0  0  0  0  0  0  0  0  0  0  0  0
 19 20  1  0  0  0
 20 13  1  0  0  0
 13 14  2  0  0  0
 14 15  1  0  0  0
 15 16  2  0  0  0
 16 17  1  0  0  0
 17 18  2  0  0  0
 15  1  1  0  0  0
  1  2  1  0  0  0
  2  3  2  0  0  0
  2  4  1  0  0  0
  4  5  1  0  0  0
  5  6  2  0  0  0
  5  7  1  0  0  0
  7  8  1  0  0  0
  8  9  1  0  0  0
  9 10  1  0  0  0
 10 38  1  0  0  0
 38 39  1  0  0  0
 39 40  2  0  0  0
 40 41  1  0  0  0
 41 42  2  0  0  0
 42 43  1  0  0  0
 43 44  2  0  0  0
 44 45  1  0  0  0
 10 11  1  0  0  0
 11 12  1  0  0  0
  4 21  1  0  0  0
 21 22  2  0  0  0
 22 23  1  0  0  0
 23 24  2  0  0  0
 24 25  1  0  0  0
 25 26  2  0  0  0
 24 27  1  0  0  0
 27 28  2  0  0  0
 28 29  1  0  0  0
 29 30  2  0  0  0
 30 31  1  0  0  0
 31 32  2  0  0  0
 30 33  1  0  0  0
 33 34  1  0  0  0
 33 35  2  0  0  0
 18 13  1  0  0  0
  7  1  1  0  0  0
 12  7  1  0  0  0
 26 21  1  0  0  0
 32 27  1  0  0  0
 44 39  1  0  0  0
 34 36  1  0  0  0
 34 37  1  0  0  0
M  END
> <minimizedAffinity>
7.73159

> <CNNscore>
0.4650971591

> <CNNaffinity>
7.7278661728

> <CNN_VS>
3.5942087173

> <CNNaffinity_variance>
0.7649860382

$$$$
[H]c1nc(OC([H])([H])[H])c([H])c(N2C(=O)N(c3c([H])c([H])c(-c4c([H])c([H])c(C(=O)N([H])[H])c([H])c4[H])c([H])c3[H])C(=O)C23C([H])([H])C([H])([H])N(C([H])([H])c2nc([H])c([H])c([H])c2C([H])([H])[H])C([H])([H])C3([H])[H])n1


 45 50  0  0  0  0  0  0  0  0999 V2000
   12.0883   22.9038    0.4317 N   0  0  0  0  0  0  0  0  0  0  0  0
   13.0983   23.4408   -0.4532 C   0  0  0  0  0  0  0  0  0  0  0  0
   14.3306   23.2378   -0.3029 O   0  0  0  0  0  0  0  0  0  0  0  0
   12.3986   24.1875   -1.4433 N   0  0  0  0  0  0  0  0  0  0  0  0
   11.0071   24.1119   -1.1733 C   0  0  0  0  0  0  0  0  0  0  0  0
   10.1345   24.3939   -2.0249 O   0  0  0  0  0  0  0  0  0  0  0  0
   10.8744   23.6561    0.2453 C   0  0  0  0  0  0  0  0  0  0  0  0
   10.8602   24.8958    1.1288 C   0  0  0  0  0  0  0  0  0  0  0  0
    9.8749   24.6449    2.2439 C   0  0  0  0  0  0  0  0  0  0  0  0
    8.5225   24.7304    1.7186 N   0  0  0  0  0  0  0  0  0  0  0  0
    8.4494   23.8289    0.5608 C   0  0  0  0  0  0  0  0  0  0  0  0
    9.6234   22.8876    0.4821 C   0  0  0  0  0  0  0  0  0  0  0  0
   13.6582   19.9436    1.9166 C   0  0  0  0  0  0  0  0  0  0  0  0
   13.4105   21.0226    1.0904 C   0  0  0  0  0  0  0  0  0  0  0  0
   12.3023   21.8130    1.3221 C   0  0  0  0  0  0  0  0  0  0  0  0
   11.5078   21.4972    2.3479 N   0  0  0  0  0  0  0  0  0  0  0  0
   11.7573   20.4464    3.1452 C   0  0  0  0  0  0  0  0  0  0  0  0
   12.8324   19.6604    2.9388 N   0  0  0  0  0  0  0  0  0  0  0  0
   15.8588   19.7170    0.9563 C   0  0  0  0  0  0  0  0  0  0  0  0
   14.7831   19.1542    1.6677 O   0  0  0  0  0  0  0  0  0  0  0  0
   13.0535   24.8682   -2.5064 C   0  0  0  0  0  0  0  0  0  0  0  0
   12.6165   26.1187   -2.8914 C   0  0  0  0  0  0  0  0  0  0  0  0
   13.2213   26.8212   -3.8988 C   0  0  0  0  0  0  0  0  0  0  0  0
   14.3046   26.2916   -4.5705 C   0  0  0  0  0  0  0  0  0  0  0  0
   14.7411   25.0232   -4.1740 C   0  0  0  0  0  0  0  0  0  0  0  0
   14.1257   24.3221   -3.1582 C   0  0  0  0  0  0  0  0  0  0  0  0
   14.9885   27.0157   -5.6465 C   0  0  0  0  0  0  0  0  0  0  0  0
   15.2973   28.3582   -5.4334 C   0  0  0  0  0  0  0  0  0  0  0  0
   15.9436   29.0802   -6.4179 C   0  0  0  0  0  0  0  0  0  0  0  0
   16.2813   28.4791   -7.6011 C   0  0  0  0  0  0  0  0  0  0  0  0
   15.9629   27.1326   -7.7951 C   0  0  0  0  0  0  0  0  0  0  0  0
   15.3228   26.4062   -6.8288 C   0  0  0  0  0  0  0  0  0  0  0  0
   16.9659   29.2061   -8.6624 C   0  0  0  0  0  0  0  0  0  0  0  0
   18.3719   29.3379   -8.6502 N   0  0  0  0  0  0  0  0  0  0  0  0
   16.3053   29.7225   -9.5990 O   0  0  0  0  0  0  0  0  0  0  0  0
   18.8393   30.0272   -7.9956 H   0  0  0  0  0  0  0  0  0  0  0  0
   18.9106   28.7329   -9.3066 H   0  0  0  0  0  0  0  0  0  0  0  0
    7.5499   24.2600    2.6823 C   0  0  0  0  0  0  0  0  0  0  0  0
    7.7018   25.0062    3.9264 C   0  0  0  0  0  0  0  0  0  0  0  0
    7.5462   26.3369    4.0298 N   0  0  0  0  0  0  0  0  0  0  0  0
    7.7047   27.0134    5.1784 C   0  0  0  0  0  0  0  0  0  0  0  0
    8.0436   26.3244    6.3165 C   0  0  0  0  0  0  0  0  0  0  0  0
    8.2128   24.9605    6.2545 C   0  0  0  0  0  0  0  0  0  0  0  0
    8.0437   24.3006    5.0675 C   0  0  0  0  0  0  0  0  0  0  0  0
    8.2205   22.8575    4.9950 C   0  0  0  0  0  0  0  0  0  0  0  0
 19 20  1  0  0  0
 20 13  1  0  0  0
 13 14  2  0  0  0
 14 15  1  0  0  0
 15 16  2  0  0  0
 16 17  1  0  0  0
 17 18  2  0  0  0
 15  1  1  0  0  0
  1  2  1  0  0  0
  2  3  2  0  0  0
  2  4  1  0  0  0
  4  5  1  0  0  0
  5  6  2  0  0  0
  5  7  1  0  0  0
  7  8  1  0  0  0
  8  9  1  0  0  0
  9 10  1  0  0  0
 10 38  1  0  0  0
 38 39  1  0  0  0
 39 40  2  0  0  0
 40 41  1  0  0  0
 41 42  2  0  0  0
 42 43  1  0  0  0
 43 44  2  0  0  0
 44 45  1  0  0  0
 10 11  1  0  0  0
 11 12  1  0  0  0
  4 21  1  0  0  0
 21 22  2  0  0  0
 22 23  1  0  0  0
 23 24  2  0  0  0
 24 25  1  0  0  0
 25 26  2  0  0  0
 24 27  1  0  0  0
 27 28  2  0  0  0
 28 29  1  0  0  0
 29 30  2  0  0  0
 30 31  1  0  0  0
 31 32  2  0  0  0
 30 33  1  0  0  0
 33 34  1  0  0  0
 33 35  2  0  0  0
 18 13  1  0  0  0
  7  1  1  0  0  0
 12  7  1  0  0  0
 26 21  1  0  0  0
 32 27  1  0  0  0
 44 39  1  0  0  0
 34 36  1  0  0  0
 34 37  1  0  0  0
M  END
> <minimizedAffinity>
14.88305

> <CNNscore>
0.4614479840

> <CNNaffinity>
7.7457566261

> <CNN_VS>
3.5742638111

> <CNNaffinity_variance>
0.5113792419

$$$$
[H]c1nc(OC([H])([H])[H])c([H])c(N2C(=O)N(c3c([H])c([H])c(-c4c([H])c([H])c(C(=O)N([H])[H])c([H])c4[H])c([H])c3[H])C(=O)C23C([H])([H])C([H])([H])N(C([H])([H])c2nc([H])c([H])c([H])c2C([H])([H])[H])C([H])([H])C3([H])[H])n1


 45 50  0  0  0  0  0  0  0  0999 V2000
   12.4364   22.9236   -0.0269 N   0  0  0  0  0  0  0  0  0  0  0  0
   13.4420   23.4103   -0.9452 C   0  0  0  0  0  0  0  0  0  0  0  0
   14.6485   23.0570   -0.9032 O   0  0  0  0  0  0  0  0  0  0  0  0
   12.7719   24.3079   -1.8243 N   0  0  0  0  0  0  0  0  0  0  0  0
   11.4024   24.3702   -1.4561 C   0  0  0  0  0  0  0  0  0  0  0  0
   10.5148   24.8163   -2.2173 O   0  0  0  0  0  0  0  0  0  0  0  0
   11.3112   23.8216   -0.0673 C   0  0  0  0  0  0  0  0  0  0  0  0
   11.5040   24.9811    0.9002 C   0  0  0  0  0  0  0  0  0  0  0  0
   10.5723   24.7566    2.0659 C   0  0  0  0  0  0  0  0  0  0  0  0
    9.2078   25.0370    1.6516 N   0  0  0  0  0  0  0  0  0  0  0  0
    8.9507   24.2441    0.4418 C   0  0  0  0  0  0  0  0  0  0  0  0
    9.9960   23.1844    0.2082 C   0  0  0  0  0  0  0  0  0  0  0  0
   11.5925   19.7200    1.5409 C   0  0  0  0  0  0  0  0  0  0  0  0
   11.5130   20.8693    0.7787 C   0  0  0  0  0  0  0  0  0  0  0  0
   12.5777   21.7485    0.7654 C   0  0  0  0  0  0  0  0  0  0  0  0
   13.6522   21.4463    1.4985 N   0  0  0  0  0  0  0  0  0  0  0  0
   13.7196   20.3265    2.2359 C   0  0  0  0  0  0  0  0  0  0  0  0
   12.6933   19.4536    2.2649 N   0  0  0  0  0  0  0  0  0  0  0  0
    9.9053   18.5083    0.3157 C   0  0  0  0  0  0  0  0  0  0  0  0
   10.5064   18.8421    1.5434 O   0  0  0  0  0  0  0  0  0  0  0  0
   13.4309   24.9915   -2.8830 C   0  0  0  0  0  0  0  0  0  0  0  0
   13.0767   26.2900   -3.1854 C   0  0  0  0  0  0  0  0  0  0  0  0
   13.6900   26.9963   -4.1850 C   0  0  0  0  0  0  0  0  0  0  0  0
   14.6981   26.4217   -4.9325 C   0  0  0  0  0  0  0  0  0  0  0  0
   15.0509   25.1049   -4.6196 C   0  0  0  0  0  0  0  0  0  0  0  0
   14.4275   24.4004   -3.6110 C   0  0  0  0  0  0  0  0  0  0  0  0
   15.3889   27.1470   -6.0033 C   0  0  0  0  0  0  0  0  0  0  0  0
   15.5956   28.5151   -5.8341 C   0  0  0  0  0  0  0  0  0  0  0  0
   16.2441   29.2395   -6.8155 C   0  0  0  0  0  0  0  0  0  0  0  0
   16.6840   28.6156   -7.9524 C   0  0  0  0  0  0  0  0  0  0  0  0
   16.4670   27.2437   -8.1029 C   0  0  0  0  0  0  0  0  0  0  0  0
   15.8259   26.5146   -7.1391 C   0  0  0  0  0  0  0  0  0  0  0  0
   17.3746   29.3445   -9.0086 C   0  0  0  0  0  0  0  0  0  0  0  0
   18.7780   29.4971   -8.9755 N   0  0  0  0  0  0  0  0  0  0  0  0
   16.7212   29.8438   -9.9595 O   0  0  0  0  0  0  0  0  0  0  0  0
   19.2250   30.1983   -8.3192 H   0  0  0  0  0  0  0  0  0  0  0  0
   19.3358   28.8951   -9.6187 H   0  0  0  0  0  0  0  0  0  0  0  0
    8.2526   24.6056    2.6504 C   0  0  0  0  0  0  0  0  0  0  0  0
    8.7470   23.3986    3.3031 C   0  0  0  0  0  0  0  0  0  0  0  0
    9.8646   23.3494    4.0475 N   0  0  0  0  0  0  0  0  0  0  0  0
   10.3171   22.2275    4.6297 C   0  0  0  0  0  0  0  0  0  0  0  0
    9.6126   21.0606    4.4659 C   0  0  0  0  0  0  0  0  0  0  0  0
    8.4625   21.0670    3.7109 C   0  0  0  0  0  0  0  0  0  0  0  0
    8.0281   22.2280    3.1306 C   0  0  0  0  0  0  0  0  0  0  0  0
    6.8118   22.2419    2.3312 C   0  0  0  0  0  0  0  0  0  0  0  0
 19 20  1  0  0  0
 20 13  1  0  0  0
 13 14  2  0  0  0
 14 15  1  0  0  0
 15 16  2  0  0  0
 16 17  1  0  0  0
 17 18  2  0  0  0
 15  1  1  0  0  0
  1  2  1  0  0  0
  2  3  2  0  0  0
  2  4  1  0  0  0
  4  5  1  0  0  0
  5  6  2  0  0  0
  5  7  1  0  0  0
  7  8  1  0  0  0
  8  9  1  0  0  0
  9 10  1  0  0  0
 10 38  1  0  0  0
 38 39  1  0  0  0
 39 40  2  0  0  0
 40 41  1  0  0  0
 41 42  2  0  0  0
 42 43  1  0  0  0
 43 44  2  0  0  0
 44 45  1  0  0  0
 10 11  1  0  0  0
 11 12  1  0  0  0
  4 21  1  0  0  0
 21 22  2  0  0  0
 22 23  1  0  0  0
 23 24  2  0  0  0
 24 25  1  0  0  0
 25 26  2  0  0  0
 24 27  1  0  0  0
 27 28  2  0  0  0
 28 29  1  0  0  0
 29 30  2  0  0  0
 30 31  1  0  0  0
 31 32  2  0  0  0
 30 33  1  0  0  0
 33 34  1  0  0  0
 33 35  2  0  0  0
 18 13  1  0  0  0
  7  1  1  0  0  0
 12  7  1  0  0  0
 26 21  1  0  0  0
 32 27  1  0  0  0
 44 39  1  0  0  0
 34 36  1  0  0  0
 34 37  1  0  0  0
M  END
> <minimizedAffinity>
18.05756

> <CNNscore>
0.4404630363

> <CNNaffinity>
7.6100211143

> <CNN_VS>
3.3519330025

> <CNNaffinity_variance>
0.3305777013

$$$$
[H]c1nc(OC([H])([H])[H])c([H])c(N2C(=O)N(c3c([H])c([H])c(-c4c([H])c([H])c(C(=O)N([H])[H])c([H])c4[H])c([H])c3[H])C(=O)C23C([H])([H])C([H])([H])N(C([H])([H])c2nc([H])c([H])c([H])c2C([H])([H])[H])C([H])([H])C3([H])[H])n1


 45 50  0  0  0  0  0  0  0  0999 V2000
   13.3338   23.5164   -2.0903 N   0  0  0  0  0  0  0  0  0  0  0  0
   12.2813   22.8548   -1.3513 C   0  0  0  0  0  0  0  0  0  0  0  0
   11.8644   21.6994   -1.6226 O   0  0  0  0  0  0  0  0  0  0  0  0
   11.8799   23.7671   -0.3344 N   0  0  0  0  0  0  0  0  0  0  0  0
   12.6590   24.9482   -0.4474 C   0  0  0  0  0  0  0  0  0  0  0  0
   12.7585   25.7864    0.4766 O   0  0  0  0  0  0  0  0  0  0  0  0
   13.2634   24.9284   -1.8158 C   0  0  0  0  0  0  0  0  0  0  0  0
   12.2897   25.6195   -2.7602 C   0  0  0  0  0  0  0  0  0  0  0  0
   13.1065   26.4182   -3.7462 C   0  0  0  0  0  0  0  0  0  0  0  0
   13.6457   27.5937   -3.0832 N   0  0  0  0  0  0  0  0  0  0  0  0
   14.3421   27.1290   -1.8759 C   0  0  0  0  0  0  0  0  0  0  0  0
   14.5684   25.6394   -1.8725 C   0  0  0  0  0  0  0  0  0  0  0  0
   15.8260   23.0077   -4.7290 C   0  0  0  0  0  0  0  0  0  0  0  0
   14.9244   23.6115   -3.8741 C   0  0  0  0  0  0  0  0  0  0  0  0
   14.2617   22.8445   -2.9365 C   0  0  0  0  0  0  0  0  0  0  0  0
   14.5241   21.5359   -2.8952 N   0  0  0  0  0  0  0  0  0  0  0  0
   15.4024   20.9585   -3.7305 C   0  0  0  0  0  0  0  0  0  0  0  0
   16.0611   21.6863   -4.6538 N   0  0  0  0  0  0  0  0  0  0  0  0
   17.2359   23.1627   -6.6795 C   0  0  0  0  0  0  0  0  0  0  0  0
   16.4871   23.7981   -5.6717 O   0  0  0  0  0  0  0  0  0  0  0  0
   10.8601   23.4722    0.6119 C   0  0  0  0  0  0  0  0  0  0  0  0
    9.5537   23.8248    0.3436 C   0  0  0  0  0  0  0  0  0  0  0  0
    8.5338   23.5509    1.2147 C   0  0  0  0  0  0  0  0  0  0  0  0
    8.7854   22.9026    2.4071 C   0  0  0  0  0  0  0  0  0  0  0  0
   10.1126   22.5489    2.6714 C   0  0  0  0  0  0  0  0  0  0  0  0
   11.1342   22.8291    1.7883 C   0  0  0  0  0  0  0  0  0  0  0  0
    7.7206   22.5795    3.3620 C   0  0  0  0  0  0  0  0  0  0  0  0
    7.4514   21.2336    3.6054 C   0  0  0  0  0  0  0  0  0  0  0  0
    6.4586   20.8813    4.4990 C   0  0  0  0  0  0  0  0  0  0  0  0
    5.7402   21.8515    5.1455 C   0  0  0  0  0  0  0  0  0  0  0  0
    6.0254   23.1946    4.8876 C   0  0  0  0  0  0  0  0  0  0  0  0
    7.0055   23.5574    4.0049 C   0  0  0  0  0  0  0  0  0  0  0  0
    4.6874   21.5200    6.0971 C   0  0  0  0  0  0  0  0  0  0  0  0
    4.4997   20.1869    6.5236 N   0  0  0  0  0  0  0  0  0  0  0  0
    3.9370   22.4235    6.5455 O   0  0  0  0  0  0  0  0  0  0  0  0
    4.0271   19.4831    5.8884 H   0  0  0  0  0  0  0  0  0  0  0  0
    4.8441   19.9409    7.4765 H   0  0  0  0  0  0  0  0  0  0  0  0
   14.6303   28.2615   -3.9082 C   0  0  0  0  0  0  0  0  0  0  0  0
   14.8417   27.4908   -5.1285 C   0  0  0  0  0  0  0  0  0  0  0  0
   13.8501   27.0414   -5.9162 N   0  0  0  0  0  0  0  0  0  0  0  0
   14.0584   26.3191   -7.0285 C   0  0  0  0  0  0  0  0  0  0  0  0
   15.3461   26.0150   -7.3945 C   0  0  0  0  0  0  0  0  0  0  0  0
   16.3911   26.4556   -6.6154 C   0  0  0  0  0  0  0  0  0  0  0  0
   16.1447   27.1902   -5.4872 C   0  0  0  0  0  0  0  0  0  0  0  0
   17.2455   27.6601   -4.6589 C   0  0  0  0  0  0  0  0  0  0  0  0
 19 20  1  0  0  0
 20 13  1  0  0  0
 13 14  2  0  0  0
 14 15  1  0  0  0
 15 16  2  0  0  0
 16 17  1  0  0  0
 17 18  2  0  0  0
 15  1  1  0  0  0
  1  2  1  0  0  0
  2  3  2  0  0  0
  2  4  1  0  0  0
  4  5  1  0  0  0
  5  6  2  0  0  0
  5  7  1  0  0  0
  7  8  1  0  0  0
  8  9  1  0  0  0
  9 10  1  0  0  0
 10 38  1  0  0  0
 38 39  1  0  0  0
 39 40  2  0  0  0
 40 41  1  0  0  0
 41 42  2  0  0  0
 42 43  1  0  0  0
 43 44  2  0  0  0
 44 45  1  0  0  0
 10 11  1  0  0  0
 11 12  1  0  0  0
  4 21  1  0  0  0
 21 22  2  0  0  0
 22 23  1  0  0  0
 23 24  2  0  0  0
 24 25  1  0  0  0
 25 26  2  0  0  0
 24 27  1  0  0  0
 27 28  2  0  0  0
 28 29  1  0  0  0
 29 30  2  0  0  0
 30 31  1  0  0  0
 31 32  2  0  0  0
 30 33  1  0  0  0
 33 34  1  0  0  0
 33 35  2  0  0  0
 18 13  1  0  0  0
  7  1  1  0  0  0
 12  7  1  0  0  0
 26 21  1  0  0  0
 32 27  1  0  0  0
 44 39  1  0  0  0
 34 36  1  0  0  0
 34 37  1  0  0  0
M  END
> <minimizedAffinity>
10.61041

> <CNNscore>
0.4248955846

> <CNNaffinity>
7.2662305832

> <CNN_VS>
3.0873892307

> <CNNaffinity_variance>
0.3728761077

$$$$
[H]c1nc(OC([H])([H])[H])c([H])c(N2C(=O)N(c3c([H])c([H])c(-c4c([H])c([H])c(C(=O)N([H])[H])c([H])c4[H])c([H])c3[H])C(=O)C23C([H])([H])C([H])([H])N(C([H])([H])c2nc([H])c([H])c([H])c2C([H])([H])[H])C([H])([H])C3([H])[H])n1


 45 50  0  0  0  0  0  0  0  0999 V2000
   14.6537   25.8741   -3.9063 N   0  0  0  0  0  0  0  0  0  0  0  0
   13.4878   25.5639   -3.1087 C   0  0  0  0  0  0  0  0  0  0  0  0
   12.3080   25.7046   -3.5214 O   0  0  0  0  0  0  0  0  0  0  0  0
   13.9795   25.1020   -1.8547 N   0  0  0  0  0  0  0  0  0  0  0  0
   15.3984   25.1298   -1.8825 C   0  0  0  0  0  0  0  0  0  0  0  0
   16.1055   24.4994   -1.0646 O   0  0  0  0  0  0  0  0  0  0  0  0
   15.7830   26.0168   -3.0241 C   0  0  0  0  0  0  0  0  0  0  0  0
   15.8815   27.4391   -2.4903 C   0  0  0  0  0  0  0  0  0  0  0  0
   17.0468   28.1021   -3.1829 C   0  0  0  0  0  0  0  0  0  0  0  0
   18.2894   27.5755   -2.6438 N   0  0  0  0  0  0  0  0  0  0  0  0
   18.2157   26.1111   -2.7362 C   0  0  0  0  0  0  0  0  0  0  0  0
   17.0915   25.6405   -3.6222 C   0  0  0  0  0  0  0  0  0  0  0  0
   15.6796   25.4639   -7.4008 C   0  0  0  0  0  0  0  0  0  0  0  0
   15.6379   25.3572   -6.0242 C   0  0  0  0  0  0  0  0  0  0  0  0
   14.6409   26.0074   -5.3242 C   0  0  0  0  0  0  0  0  0  0  0  0
   13.7484   26.7198   -6.0164 N   0  0  0  0  0  0  0  0  0  0  0  0
   13.7976   26.8170   -7.3545 C   0  0  0  0  0  0  0  0  0  0  0  0
   14.7612   26.1917   -8.0592 N   0  0  0  0  0  0  0  0  0  0  0  0
   17.1774   25.3647   -9.2885 C   0  0  0  0  0  0  0  0  0  0  0  0
   16.6951   24.8004   -8.0931 O   0  0  0  0  0  0  0  0  0  0  0  0
   13.1275   24.6892   -0.7935 C   0  0  0  0  0  0  0  0  0  0  0  0
   11.7722   24.9354   -0.8676 C   0  0  0  0  0  0  0  0  0  0  0  0
   10.9081   24.5458    0.1202 C   0  0  0  0  0  0  0  0  0  0  0  0
   11.3739   23.8836    1.2382 C   0  0  0  0  0  0  0  0  0  0  0  0
   12.7493   23.6382    1.3054 C   0  0  0  0  0  0  0  0  0  0  0  0
   13.6129   24.0346    0.3058 C   0  0  0  0  0  0  0  0  0  0  0  0
   10.4811   23.4385    2.3127 C   0  0  0  0  0  0  0  0  0  0  0  0
   10.4987   22.0874    2.6554 C   0  0  0  0  0  0  0  0  0  0  0  0
    9.6763   21.6226    3.6634 C   0  0  0  0  0  0  0  0  0  0  0  0
    8.8455   22.4866    4.3256 C   0  0  0  0  0  0  0  0  0  0  0  0
    8.8427   23.8369    3.9670 C   0  0  0  0  0  0  0  0  0  0  0  0
    9.6516   24.3104    2.9706 C   0  0  0  0  0  0  0  0  0  0  0  0
    7.9658   22.0352    5.3961 C   0  0  0  0  0  0  0  0  0  0  0  0
    8.2403   20.8384    6.0937 N   0  0  0  0  0  0  0  0  0  0  0  0
    6.9526   22.7121    5.7057 O   0  0  0  0  0  0  0  0  0  0  0  0
    8.0354   19.8997    5.6476 H   0  0  0  0  0  0  0  0  0  0  0  0
    8.6459   20.9293    7.0499 H   0  0  0  0  0  0  0  0  0  0  0  0
   19.4280   27.9920   -3.4351 C   0  0  0  0  0  0  0  0  0  0  0  0
   20.5692   27.1370   -3.1281 C   0  0  0  0  0  0  0  0  0  0  0  0
   20.8024   26.5983   -1.9193 N   0  0  0  0  0  0  0  0  0  0  0  0
   21.8658   25.8258   -1.6462 C   0  0  0  0  0  0  0  0  0  0  0  0
   22.7721   25.5625   -2.6432 C   0  0  0  0  0  0  0  0  0  0  0  0
   22.5711   26.0949   -3.8959 C   0  0  0  0  0  0  0  0  0  0  0  0
   21.4764   26.8787   -4.1415 C   0  0  0  0  0  0  0  0  0  0  0  0
   21.2572   27.4444   -5.4647 C   0  0  0  0  0  0  0  0  0  0  0  0
 19 20  1  0  0  0
 20 13  1  0  0  0
 13 14  2  0  0  0
 14 15  1  0  0  0
 15 16  2  0  0  0
 16 17  1  0  0  0
 17 18  2  0  0  0
 15  1  1  0  0  0
  1  2  1  0  0  0
  2  3  2  0  0  0
  2  4  1  0  0  0
  4  5  1  0  0  0
  5  6  2  0  0  0
  5  7  1  0  0  0
  7  8  1  0  0  0
  8  9  1  0  0  0
  9 10  1  0  0  0
 10 38  1  0  0  0
 38 39  1  0  0  0
 39 40  2  0  0  0
 40 41  1  0  0  0
 41 42  2  0  0  0
 42 43  1  0  0  0
 43 44  2  0  0  0
 44 45  1  0  0  0
 10 11  1  0  0  0
 11 12  1  0  0  0
  4 21  1  0  0  0
 21 22  2  0  0  0
 22 23  1  0  0  0
 23 24  2  0  0  0
 24 25  1  0  0  0
 25 26  2  0  0  0
 24 27  1  0  0  0
 27 28  2  0  0  0
 28 29  1  0  0  0
 29 30  2  0  0  0
 30 31  1  0  0  0
 31 32  2  0  0  0
 30 33  1  0  0  0
 33 34  1  0  0  0
 33 35  2  0  0  0
 18 13  1  0  0  0
  7  1  1  0  0  0
 12  7  1  0  0  0
 26 21  1  0  0  0
 32 27  1  0  0  0
 44 39  1  0  0  0
 34 36  1  0  0  0
 34 37  1  0  0  0
M  END
> <minimizedAffinity>
32.53518

> <CNNscore>
0.4248284698

> <CNNaffinity>
7.4107809067

> <CNN_VS>
3.1483106613

> <CNNaffinity_variance>
0.5392338634

$$$$
[H]c1nc(OC([H])([H])[H])c([H])c(N2C(=O)N(c3c([H])c([H])c(-c4c([H])c([H])c(C(=O)N([H])[H])c([H])c4[H])c([H])c3[H])C(=O)C23C([H])([H])C([H])([H])N(C([H])([H])c2nc([H])c([H])c([H])c2C([H])([H])[H])C([H])([H])C3([H])[H])n1


 45 50  0  0  0  0  0  0  0  0999 V2000
   13.8503   23.7259   -0.8806 N   0  0  0  0  0  0  0  0  0  0  0  0
   13.1013   22.5498   -0.4964 C   0  0  0  0  0  0  0  0  0  0  0  0
   13.6301   21.5237    0.0032 O   0  0  0  0  0  0  0  0  0  0  0  0
   11.7398   22.8319   -0.8030 N   0  0  0  0  0  0  0  0  0  0  0  0
   11.6575   24.1360   -1.3577 C   0  0  0  0  0  0  0  0  0  0  0  0
   10.5841   24.7754   -1.4315 O   0  0  0  0  0  0  0  0  0  0  0  0
   13.0432   24.5033   -1.7852 C   0  0  0  0  0  0  0  0  0  0  0  0
   13.2237   24.0301   -3.2209 C   0  0  0  0  0  0  0  0  0  0  0  0
   14.0438   25.0726   -3.9406 C   0  0  0  0  0  0  0  0  0  0  0  0
   13.2193   26.2423   -4.1937 N   0  0  0  0  0  0  0  0  0  0  0  0
   12.6278   26.6418   -2.9095 C   0  0  0  0  0  0  0  0  0  0  0  0
   13.2858   25.9695   -1.7325 C   0  0  0  0  0  0  0  0  0  0  0  0
   17.2502   25.0943   -0.8530 C   0  0  0  0  0  0  0  0  0  0  0  0
   15.9628   24.7861   -1.2476 C   0  0  0  0  0  0  0  0  0  0  0  0
   15.1638   24.0247   -0.4179 C   0  0  0  0  0  0  0  0  0  0  0  0
   15.6757   23.6141    0.7450 N   0  0  0  0  0  0  0  0  0  0  0  0
   16.9283   23.9192    1.1195 C   0  0  0  0  0  0  0  0  0  0  0  0
   17.7269   24.6606    0.3266 N   0  0  0  0  0  0  0  0  0  0  0  0
   17.4211   26.8140   -2.5353 C   0  0  0  0  0  0  0  0  0  0  0  0
   18.0449   25.8649   -1.7046 O   0  0  0  0  0  0  0  0  0  0  0  0
   10.6842   21.9106   -0.5592 C   0  0  0  0  0  0  0  0  0  0  0  0
   10.1946   21.1403   -1.5936 C   0  0  0  0  0  0  0  0  0  0  0  0
    9.1897   20.2292   -1.4082 C   0  0  0  0  0  0  0  0  0  0  0  0
    8.6271   20.0502   -0.1605 C   0  0  0  0  0  0  0  0  0  0  0  0
    9.1292   20.8353    0.8825 C   0  0  0  0  0  0  0  0  0  0  0  0
   10.1416   21.7513    0.6869 C   0  0  0  0  0  0  0  0  0  0  0  0
    7.5580   19.0768    0.0835 C   0  0  0  0  0  0  0  0  0  0  0  0
    6.6339   19.3633    1.0871 C   0  0  0  0  0  0  0  0  0  0  0  0
    5.6079   18.4768    1.3511 C   0  0  0  0  0  0  0  0  0  0  0  0
    5.4976   17.3188    0.6284 C   0  0  0  0  0  0  0  0  0  0  0  0
    6.4339   17.0501   -0.3731 C   0  0  0  0  0  0  0  0  0  0  0  0
    7.4549   17.9191   -0.6445 C   0  0  0  0  0  0  0  0  0  0  0  0
    4.4279   16.3603    0.8750 C   0  0  0  0  0  0  0  0  0  0  0  0
    3.9356   16.1554    2.1826 N   0  0  0  0  0  0  0  0  0  0  0  0
    3.9354   15.7074   -0.0798 O   0  0  0  0  0  0  0  0  0  0  0  0
    4.4907   15.5834    2.8802 H   0  0  0  0  0  0  0  0  0  0  0  0
    3.0164   16.5886    2.4164 H   0  0  0  0  0  0  0  0  0  0  0  0
   14.0143   27.3594   -4.6584 C   0  0  0  0  0  0  0  0  0  0  0  0
   14.7843   26.9516   -5.8282 C   0  0  0  0  0  0  0  0  0  0  0  0
   14.4415   25.9358   -6.6383 N   0  0  0  0  0  0  0  0  0  0  0  0
   15.1682   25.5607   -7.7029 C   0  0  0  0  0  0  0  0  0  0  0  0
   16.3251   26.2405   -7.9933 C   0  0  0  0  0  0  0  0  0  0  0  0
   16.7127   27.2873   -7.1890 C   0  0  0  0  0  0  0  0  0  0  0  0
   15.9491   27.6445   -6.1108 C   0  0  0  0  0  0  0  0  0  0  0  0
   16.3530   28.7515   -5.2563 C   0  0  0  0  0  0  0  0  0  0  0  0
 19 20  1  0  0  0
 20 13  1  0  0  0
 13 14  2  0  0  0
 14 15  1  0  0  0
 15 16  2  0  0  0
 16 17  1  0  0  0
 17 18  2  0  0  0
 15  1  1  0  0  0
  1  2  1  0  0  0
  2  3  2  0  0  0
  2  4  1  0  0  0
  4  5  1  0  0  0
  5  6  2  0  0  0
  5  7  1  0  0  0
  7  8  1  0  0  0
  8  9  1  0  0  0
  9 10  1  0  0  0
 10 38  1  0  0  0
 38 39  1  0  0  0
 39 40  2  0  0  0
 40 41  1  0  0  0
 41 42  2  0  0  0
 42 43  1  0  0  0
 43 44  2  0  0  0
 44 45  1  0  0  0
 10 11  1  0  0  0
 11 12  1  0  0  0
  4 21  1  0  0  0
 21 22  2  0  0  0
 22 23  1  0  0  0
 23 24  2  0  0  0
 24 25  1  0  0  0
 25 26  2  0  0  0
 24 27  1  0  0  0
 27 28  2  0  0  0
 28 29  1  0  0  0
 29 30  2  0  0  0
 30 31  1  0  0  0
 31 32  2  0  0  0
 30 33  1  0  0  0
 33 34  1  0  0  0
 33 35  2  0  0  0
 18 13  1  0  0  0
  7  1  1  0  0  0
 12  7  1  0  0  0
 26 21  1  0  0  0
 32 27  1  0  0  0
 44 39  1  0  0  0
 34 36  1  0  0  0
 34 37  1  0  0  0
M  END
> <minimizedAffinity>
1.19518

> <CNNscore>
0.4243124723

> <CNNaffinity>
7.7356595993

> <CNN_VS>
3.2823369503

> <CNNaffinity_variance>
0.5893939734

$$$$
[H]c1nc(OC([H])([H])[H])c([H])c(N2C(=O)N(c3c([H])c([H])c(-c4c([H])c([H])c(C(=O)N([H])[H])c([H])c4[H])c([H])c3[H])C(=O)C23C([H])([H])C([H])([H])N(C([H])([H])c2nc([H])c([H])c([H])c2C([H])([H])[H])C([H])([H])C3([H])[H])n1


 45 50  0  0  0  0  0  0  0  0999 V2000
   14.1839   24.1876   -0.7527 N   0  0  0  0  0  0  0  0  0  0  0  0
   13.3895   23.1688   -0.1028 C   0  0  0  0  0  0  0  0  0  0  0  0
   13.8599   22.0727    0.2966 O   0  0  0  0  0  0  0  0  0  0  0  0
   12.0632   23.6831   -0.0402 N   0  0  0  0  0  0  0  0  0  0  0  0
   12.0452   24.9727   -0.6331 C   0  0  0  0  0  0  0  0  0  0  0  0
   11.1163   25.7910   -0.4494 O   0  0  0  0  0  0  0  0  0  0  0  0
   13.2949   25.0823   -1.4481 C   0  0  0  0  0  0  0  0  0  0  0  0
   12.9819   24.5634   -2.8447 C   0  0  0  0  0  0  0  0  0  0  0  0
   13.7266   25.4332   -3.8275 C   0  0  0  0  0  0  0  0  0  0  0  0
   13.0701   26.7266   -3.9183 N   0  0  0  0  0  0  0  0  0  0  0  0
   12.9399   27.2436   -2.5492 C   0  0  0  0  0  0  0  0  0  0  0  0
   13.7822   26.4830   -1.5582 C   0  0  0  0  0  0  0  0  0  0  0  0
   17.5611   24.1525    0.6706 C   0  0  0  0  0  0  0  0  0  0  0  0
   16.1866   24.0832    0.5508 C   0  0  0  0  0  0  0  0  0  0  0  0
   15.6051   24.2559   -0.6896 C   0  0  0  0  0  0  0  0  0  0  0  0
   16.4059   24.4847   -1.7333 N   0  0  0  0  0  0  0  0  0  0  0  0
   17.7408   24.5501   -1.6064 C   0  0  0  0  0  0  0  0  0  0  0  0
   18.3312   24.3851   -0.4063 N   0  0  0  0  0  0  0  0  0  0  0  0
   19.3925   24.5482    2.1890 C   0  0  0  0  0  0  0  0  0  0  0  0
   18.1327   23.9762    1.9326 O   0  0  0  0  0  0  0  0  0  0  0  0
   10.9817   22.9671    0.5431 C   0  0  0  0  0  0  0  0  0  0  0  0
    9.7166   23.0782    0.0045 C   0  0  0  0  0  0  0  0  0  0  0  0
    8.6454   22.3992    0.5198 C   0  0  0  0  0  0  0  0  0  0  0  0
    8.8011   21.5687    1.6113 C   0  0  0  0  0  0  0  0  0  0  0  0
   10.0869   21.4618    2.1514 C   0  0  0  0  0  0  0  0  0  0  0  0
   11.1606   22.1500    1.6261 C   0  0  0  0  0  0  0  0  0  0  0  0
    7.6831   20.8142    2.1863 C   0  0  0  0  0  0  0  0  0  0  0  0
    7.6535   20.6482    3.5701 C   0  0  0  0  0  0  0  0  0  0  0  0
    6.6182   19.9467    4.1569 C   0  0  0  0  0  0  0  0  0  0  0  0
    5.6222   19.4154    3.3817 C   0  0  0  0  0  0  0  0  0  0  0  0
    5.6702   19.5927    1.9968 C   0  0  0  0  0  0  0  0  0  0  0  0
    6.6897   20.2849    1.4027 C   0  0  0  0  0  0  0  0  0  0  0  0
    4.5121   18.6717    3.9635 C   0  0  0  0  0  0  0  0  0  0  0  0
    3.9356   19.0824    5.1854 N   0  0  0  0  0  0  0  0  0  0  0  0
    4.0597   17.6554    3.3778 O   0  0  0  0  0  0  0  0  0  0  0  0
    4.4305   18.8907    6.1021 H   0  0  0  0  0  0  0  0  0  0  0  0
    3.0169   19.5730    5.1351 H   0  0  0  0  0  0  0  0  0  0  0  0
   13.8755   27.6782   -4.6543 C   0  0  0  0  0  0  0  0  0  0  0  0
   14.5561   26.9926   -5.7472 C   0  0  0  0  0  0  0  0  0  0  0  0
   13.9255   26.4340   -6.7941 N   0  0  0  0  0  0  0  0  0  0  0  0
   14.5634   25.7918   -7.7854 C   0  0  0  0  0  0  0  0  0  0  0  0
   15.9319   25.6918   -7.7427 C   0  0  0  0  0  0  0  0  0  0  0  0
   16.6168   26.2499   -6.6880 C   0  0  0  0  0  0  0  0  0  0  0  0
   15.9363   26.8981   -5.6931 C   0  0  0  0  0  0  0  0  0  0  0  0
   16.6547   27.4914   -4.5748 C   0  0  0  0  0  0  0  0  0  0  0  0
 19 20  1  0  0  0
 20 13  1  0  0  0
 13 14  2  0  0  0
 14 15  1  0  0  0
 15 16  2  0  0  0
 16 17  1  0  0  0
 17 18  2  0  0  0
 15  1  1  0  0  0
  1  2  1  0  0  0
  2  3  2  0  0  0
  2  4  1  0  0  0
  4  5  1  0  0  0
  5  6  2  0  0  0
  5  7  1  0  0  0
  7  8  1  0  0  0
  8  9  1  0  0  0
  9 10  1  0  0  0
 10 38  1  0  0  0
 38 39  1  0  0  0
 39 40  2  0  0  0
 40 41  1  0  0  0
 41 42  2  0  0  0
 42 43  1  0  0  0
 43 44  2  0  0  0
 44 45  1  0  0  0
 10 11  1  0  0  0
 11 12  1  0  0  0
  4 21  1  0  0  0
 21 22  2  0  0  0
 22 23  1  0  0  0
 23 24  2  0  0  0
 24 25  1  0  0  0
 25 26  2  0  0  0
 24 27  1  0  0  0
 27 28  2  0  0  0
 28 29  1  0  0  0
 29 30  2  0  0  0
 30 31  1  0  0  0
 31 32  2  0  0  0
 30 33  1  0  0  0
 33 34  1  0  0  0
 33 35  2  0  0  0
 18 13  1  0  0  0
  7  1  1  0  0  0
 12  7  1  0  0  0
 26 21  1  0  0  0
 32 27  1  0  0  0
 44 39  1  0  0  0
 34 36  1  0  0  0
 34 37  1  0  0  0
M  END
> <minimizedAffinity>
6.35194

> <CNNscore>
0.4140230417

> <CNNaffinity>
7.5934014320

> <CNN_VS>
3.1438431740

> <CNNaffinity_variance>
0.6767030954

$$$$
[H]c1nc(OC([H])([H])[H])c([H])c(N2C(=O)N(c3c([H])c([H])c(-c4c([H])c([H])c(C#N)c([H])c4[H])c([H])c3[H])C(=O)C23C([H])([H])C([H])([H])N(C([H])([H])c2nc([H])c([H])c([H])c2C([H])([H])[H])C([H])([H])C3([H])[H])n1


 42 47  0  0  0  0  0  0  0  0999 V2000
   13.0563   24.8003   -1.6485 N   0  0  0  0  0  0  0  0  0  0  0  0
   11.9203   23.9419   -1.3476 C   0  0  0  0  0  0  0  0  0  0  0  0
   11.2151   23.3430   -2.1996 O   0  0  0  0  0  0  0  0  0  0  0  0
   11.7674   23.9100    0.0765 N   0  0  0  0  0  0  0  0  0  0  0  0
   12.7935   24.7264    0.5994 C   0  0  0  0  0  0  0  0  0  0  0  0
   12.8388   25.3648    1.6944 O   0  0  0  0  0  0  0  0  0  0  0  0
   13.8958   24.6929   -0.4691 C   0  0  0  0  0  0  0  0  0  0  0  0
   14.4655   23.3045   -0.3398 C   0  0  0  0  0  0  0  0  0  0  0  0
   15.8874   23.1657   -0.8134 C   0  0  0  0  0  0  0  0  0  0  0  0
   16.6653   24.3202   -0.6806 N   0  0  0  0  0  0  0  0  0  0  0  0
   16.2004   25.3125    0.2108 C   0  0  0  0  0  0  0  0  0  0  0  0
   14.7964   25.7986   -0.1508 C   0  0  0  0  0  0  0  0  0  0  0  0
   14.3478   26.1116   -4.9169 C   0  0  0  0  0  0  0  0  0  0  0  0
   14.2555   25.3789   -3.7320 C   0  0  0  0  0  0  0  0  0  0  0  0
   13.1883   25.5222   -2.8484 C   0  0  0  0  0  0  0  0  0  0  0  0
   12.2826   26.4314   -3.2699 N   0  0  0  0  0  0  0  0  0  0  0  0
   12.3233   27.1450   -4.3746 C   0  0  0  0  0  0  0  0  0  0  0  0
   13.3657   26.9835   -5.2064 N   0  0  0  0  0  0  0  0  0  0  0  0
   15.1709   25.6378   -7.1246 C   0  0  0  0  0  0  0  0  0  0  0  0
   15.4321   25.9359   -5.7613 O   0  0  0  0  0  0  0  0  0  0  0  0
   10.7856   23.2299    0.8491 C   0  0  0  0  0  0  0  0  0  0  0  0
   11.1363   22.3387    1.8234 C   0  0  0  0  0  0  0  0  0  0  0  0
   10.1202   21.6897    2.5196 C   0  0  0  0  0  0  0  0  0  0  0  0
    8.7974   21.9237    2.2506 C   0  0  0  0  0  0  0  0  0  0  0  0
    8.4602   22.8195    1.2738 C   0  0  0  0  0  0  0  0  0  0  0  0
    9.4420   23.4625    0.5839 C   0  0  0  0  0  0  0  0  0  0  0  0
    7.7751   21.2108    2.9788 C   0  0  0  0  0  0  0  0  0  0  0  0
    6.5271   20.9277    2.4303 C   0  0  0  0  0  0  0  0  0  0  0  0
    5.5894   20.2219    3.1788 C   0  0  0  0  0  0  0  0  0  0  0  0
    5.8760   19.8061    4.4379 C   0  0  0  0  0  0  0  0  0  0  0  0
    7.0844   20.0701    4.9961 C   0  0  0  0  0  0  0  0  0  0  0  0
    8.0324   20.7794    4.2492 C   0  0  0  0  0  0  0  0  0  0  0  0
    4.9104   19.0675    5.2040 C   0  0  0  0  0  0  0  0  0  0  0  0
    4.1265   18.4793    5.8455 N   0  0  0  0  0  0  0  0  0  0  0  0
   18.0548   24.2567   -0.8770 C   0  0  0  0  0  0  0  0  0  0  0  0
   18.8285   24.3566    0.3585 C   0  0  0  0  0  0  0  0  0  0  0  0
   18.2611   24.3329    1.5541 N   0  0  0  0  0  0  0  0  0  0  0  0
   19.0148   24.4563    2.6680 C   0  0  0  0  0  0  0  0  0  0  0  0
   20.3779   24.6091    2.6147 C   0  0  0  0  0  0  0  0  0  0  0  0
   21.0188   24.6393    1.3775 C   0  0  0  0  0  0  0  0  0  0  0  0
   20.1935   24.5082    0.2778 C   0  0  0  0  0  0  0  0  0  0  0  0
   20.8010   24.5345   -1.0919 C   0  0  0  0  0  0  0  0  0  0  0  0
 19 20  1  0  0  0
 20 13  1  0  0  0
 13 14  2  0  0  0
 14 15  1  0  0  0
 15 16  2  0  0  0
 16 17  1  0  0  0
 17 18  2  0  0  0
 15  1  1  0  0  0
  1  2  1  0  0  0
  2  3  2  0  0  0
  2  4  1  0  0  0
  4  5  1  0  0  0
  5  6  2  0  0  0
  5  7  1  0  0  0
  7  8  1  0  0  0
  8  9  1  0  0  0
  9 10  1  0  0  0
 10 35  1  0  0  0
 35 36  1  0  0  0
 36 37  2  0  0  0
 37 38  1  0  0  0
 38 39  2  0  0  0
 39 40  1  0  0  0
 40 41  2  0  0  0
 41 42  1  0  0  0
 10 11  1  0  0  0
 11 12  1  0  0  0
  4 21  1  0  0  0
 21 22  2  0  0  0
 22 23  1  0  0  0
 23 24  2  0  0  0
 24 25  1  0  0  0
 25 26  2  0  0  0
 24 27  1  0  0  0
 27 28  2  0  0  0
 28 29  1  0  0  0
 29 30  2  0  0  0
 30 31  1  0  0  0
 31 32  2  0  0  0
 30 33  1  0  0  0
 33 34  3  0  0  0
 18 13  1  0  0  0
  7  1  1  0  0  0
 12  7  1  0  0  0
 26 21  1  0  0  0
 32 27  1  0  0  0
 41 36  1  0  0  0
M  END
> <minimizedAffinity>
18.80803

> <CNNscore>
0.5796852708

> <CNNaffinity>
7.8642463684

> <CNN_VS>
4.5587878227

> <CNNaffinity_variance>
0.4276719987

$$$$
[H]c1nc(OC([H])([H])[H])c([H])c(N2C(=O)N(c3c([H])c([H])c(-c4c([H])c([H])c(C#N)c([H])c4[H])c([H])c3[H])C(=O)C23C([H])([H])C([H])([H])N(C([H])([H])c2nc([H])c([H])c([H])c2C([H])([H])[H])C([H])([H])C3([H])[H])n1


 42 47  0  0  0  0  0  0  0  0999 V2000
   12.4748   25.6174   -2.1268 N   0  0  0  0  0  0  0  0  0  0  0  0
   11.2918   24.9877   -1.5595 C   0  0  0  0  0  0  0  0  0  0  0  0
   10.1307   25.0565   -2.0381 O   0  0  0  0  0  0  0  0  0  0  0  0
   11.6990   24.2872   -0.3780 N   0  0  0  0  0  0  0  0  0  0  0  0
   13.0899   24.4964   -0.2579 C   0  0  0  0  0  0  0  0  0  0  0  0
   13.8226   24.4810    0.7772 O   0  0  0  0  0  0  0  0  0  0  0  0
   13.5655   24.7631   -1.6933 C   0  0  0  0  0  0  0  0  0  0  0  0
   13.4796   23.4088   -2.3471 C   0  0  0  0  0  0  0  0  0  0  0  0
   14.3986   23.2237   -3.5247 C   0  0  0  0  0  0  0  0  0  0  0  0
   15.5836   23.9640   -3.4661 N   0  0  0  0  0  0  0  0  0  0  0  0
   15.9749   24.4562   -2.2012 C   0  0  0  0  0  0  0  0  0  0  0  0
   14.9008   25.3441   -1.5718 C   0  0  0  0  0  0  0  0  0  0  0  0
   11.9700   29.1689   -3.2229 C   0  0  0  0  0  0  0  0  0  0  0  0
   11.9898   28.0235   -2.4247 C   0  0  0  0  0  0  0  0  0  0  0  0
   12.4349   26.7920   -2.8994 C   0  0  0  0  0  0  0  0  0  0  0  0
   12.8322   26.8447   -4.1893 N   0  0  0  0  0  0  0  0  0  0  0  0
   12.8338   27.8953   -4.9814 C   0  0  0  0  0  0  0  0  0  0  0  0
   12.3987   29.0689   -4.4936 N   0  0  0  0  0  0  0  0  0  0  0  0
   11.6227   31.5285   -3.5192 C   0  0  0  0  0  0  0  0  0  0  0  0
   11.5140   30.3704   -2.7051 O   0  0  0  0  0  0  0  0  0  0  0  0
   10.8996   23.5408    0.5316 C   0  0  0  0  0  0  0  0  0  0  0  0
   10.9603   22.1769    0.5810 C   0  0  0  0  0  0  0  0  0  0  0  0
   10.1275   21.5123    1.4773 C   0  0  0  0  0  0  0  0  0  0  0  0
    9.2626   22.1886    2.2966 C   0  0  0  0  0  0  0  0  0  0  0  0
    9.2132   23.5541    2.2380 C   0  0  0  0  0  0  0  0  0  0  0  0
   10.0211   24.2189    1.3670 C   0  0  0  0  0  0  0  0  0  0  0  0
    8.3983   21.4596    3.1939 C   0  0  0  0  0  0  0  0  0  0  0  0
    8.5381   21.5184    4.5779 C   0  0  0  0  0  0  0  0  0  0  0  0
    7.6618   20.8041    5.3900 C   0  0  0  0  0  0  0  0  0  0  0  0
    6.6720   20.0500    4.8496 C   0  0  0  0  0  0  0  0  0  0  0  0
    6.5149   19.9749    3.5038 C   0  0  0  0  0  0  0  0  0  0  0  0
    7.3925   20.6906    2.6809 C   0  0  0  0  0  0  0  0  0  0  0  0
    5.7615   19.3231    5.6906 C   0  0  0  0  0  0  0  0  0  0  0  0
    5.0095   18.7222    6.3581 N   0  0  0  0  0  0  0  0  0  0  0  0
   16.6150   23.7117   -4.3859 C   0  0  0  0  0  0  0  0  0  0  0  0
   16.4801   24.4518   -5.6384 C   0  0  0  0  0  0  0  0  0  0  0  0
   16.6319   23.8774   -6.8212 N   0  0  0  0  0  0  0  0  0  0  0  0
   16.5251   24.6082   -7.9518 C   0  0  0  0  0  0  0  0  0  0  0  0
   16.2593   25.9548   -7.9291 C   0  0  0  0  0  0  0  0  0  0  0  0
   16.0914   26.6021   -6.7064 C   0  0  0  0  0  0  0  0  0  0  0  0
   16.2125   25.8004   -5.5883 C   0  0  0  0  0  0  0  0  0  0  0  0
   16.0506   26.4177   -4.2324 C   0  0  0  0  0  0  0  0  0  0  0  0
 19 20  1  0  0  0
 20 13  1  0  0  0
 13 14  2  0  0  0
 14 15  1  0  0  0
 15 16  2  0  0  0
 16 17  1  0  0  0
 17 18  2  0  0  0
 15  1  1  0  0  0
  1  2  1  0  0  0
  2  3  2  0  0  0
  2  4  1  0  0  0
  4  5  1  0  0  0
  5  6  2  0  0  0
  5  7  1  0  0  0
  7  8  1  0  0  0
  8  9  1  0  0  0
  9 10  1  0  0  0
 10 35  1  0  0  0
 35 36  1  0  0  0
 36 37  2  0  0  0
 37 38  1  0  0  0
 38 39  2  0  0  0
 39 40  1  0  0  0
 40 41  2  0  0  0
 41 42  1  0  0  0
 10 11  1  0  0  0
 11 12  1  0  0  0
  4 21  1  0  0  0
 21 22  2  0  0  0
 22 23  1  0  0  0
 23 24  2  0  0  0
 24 25  1  0  0  0
 25 26  2  0  0  0
 24 27  1  0  0  0
 27 28  2  0  0  0
 28 29  1  0  0  0
 29 30  2  0  0  0
 30 31  1  0  0  0
 31 32  2  0  0  0
 30 33  1  0  0  0
 33 34  3  0  0  0
 18 13  1  0  0  0
  7  1  1  0  0  0
 12  7  1  0  0  0
 26 21  1  0  0  0
 32 27  1  0  0  0
 41 36  1  0  0  0
M  END
> <minimizedAffinity>
18.41305

> <CNNscore>
0.5529041886

> <CNNaffinity>
7.4441223145

> <CNN_VS>
4.1158862114

> <CNNaffinity_variance>
0.5053948164

$$$$
[H]c1nc(OC([H])([H])[H])c([H])c(N2C(=O)N(c3c([H])c([H])c(-c4c([H])c([H])c(C#N)c([H])c4[H])c([H])c3[H])C(=O)C23C([H])([H])C([H])([H])N(C([H])([H])c2nc([H])c([H])c([H])c2C([H])([H])[H])C([H])([H])C3([H])[H])n1


 42 47  0  0  0  0  0  0  0  0999 V2000
   14.2674   24.0734   -0.3075 N   0  0  0  0  0  0  0  0  0  0  0  0
   13.4540   23.8174    0.8718 C   0  0  0  0  0  0  0  0  0  0  0  0
   13.7012   24.2374    2.0313 O   0  0  0  0  0  0  0  0  0  0  0  0
   12.3400   23.0147    0.4631 N   0  0  0  0  0  0  0  0  0  0  0  0
   12.4931   22.8090   -0.9250 C   0  0  0  0  0  0  0  0  0  0  0  0
   12.0676   21.8617   -1.6531 O   0  0  0  0  0  0  0  0  0  0  0  0
   13.3188   24.0116   -1.4047 C   0  0  0  0  0  0  0  0  0  0  0  0
   12.3418   25.1560   -1.3352 C   0  0  0  0  0  0  0  0  0  0  0  0
   12.6532   26.3008   -2.2615 C   0  0  0  0  0  0  0  0  0  0  0  0
   13.3157   25.9393   -3.4388 N   0  0  0  0  0  0  0  0  0  0  0  0
   13.2598   24.5801   -3.8193 C   0  0  0  0  0  0  0  0  0  0  0  0
   13.8112   23.6554   -2.7335 C   0  0  0  0  0  0  0  0  0  0  0  0
   17.8194   24.3247    0.8711 C   0  0  0  0  0  0  0  0  0  0  0  0
   16.4442   24.0834    0.8648 C   0  0  0  0  0  0  0  0  0  0  0  0
   15.6533   24.3080   -0.2595 C   0  0  0  0  0  0  0  0  0  0  0  0
   16.3630   24.7743   -1.3099 N   0  0  0  0  0  0  0  0  0  0  0  0
   17.6554   25.0169   -1.3549 C   0  0  0  0  0  0  0  0  0  0  0  0
   18.3910   24.7898   -0.2540 N   0  0  0  0  0  0  0  0  0  0  0  0
   19.9292   24.4729    2.0124 C   0  0  0  0  0  0  0  0  0  0  0  0
   18.5624   24.0892    2.0166 O   0  0  0  0  0  0  0  0  0  0  0  0
   11.2847   22.4891    1.2592 C   0  0  0  0  0  0  0  0  0  0  0  0
   11.5371   21.7424    2.3751 C   0  0  0  0  0  0  0  0  0  0  0  0
   10.4536   21.2374    3.0889 C   0  0  0  0  0  0  0  0  0  0  0  0
    9.1609   21.4708    2.6999 C   0  0  0  0  0  0  0  0  0  0  0  0
    8.9224   22.2213    1.5818 C   0  0  0  0  0  0  0  0  0  0  0  0
    9.9710   22.7224    0.8728 C   0  0  0  0  0  0  0  0  0  0  0  0
    8.0667   20.9076    3.4543 C   0  0  0  0  0  0  0  0  0  0  0  0
    6.7480   20.9609    3.0106 C   0  0  0  0  0  0  0  0  0  0  0  0
    5.7392   20.3844    3.7772 C   0  0  0  0  0  0  0  0  0  0  0  0
    6.0246   19.7707    4.9529 C   0  0  0  0  0  0  0  0  0  0  0  0
    7.3013   19.7060    5.4083 C   0  0  0  0  0  0  0  0  0  0  0  0
    8.3210   20.2836    4.6427 C   0  0  0  0  0  0  0  0  0  0  0  0
    4.9827   19.1660    5.7363 C   0  0  0  0  0  0  0  0  0  0  0  0
    4.1325   18.6564    6.3604 N   0  0  0  0  0  0  0  0  0  0  0  0
   13.4626   26.8743   -4.4769 C   0  0  0  0  0  0  0  0  0  0  0  0
   14.8535   27.2066   -4.7766 C   0  0  0  0  0  0  0  0  0  0  0  0
   15.6658   27.7361   -3.8756 N   0  0  0  0  0  0  0  0  0  0  0  0
   16.9364   28.0525   -4.2067 C   0  0  0  0  0  0  0  0  0  0  0  0
   17.4363   27.8441   -5.4681 C   0  0  0  0  0  0  0  0  0  0  0  0
   16.6173   27.2884   -6.4494 C   0  0  0  0  0  0  0  0  0  0  0  0
   15.3304   26.9873   -6.0483 C   0  0  0  0  0  0  0  0  0  0  0  0
   14.3819   26.3902   -7.0431 C   0  0  0  0  0  0  0  0  0  0  0  0
 19 20  1  0  0  0
 20 13  1  0  0  0
 13 14  2  0  0  0
 14 15  1  0  0  0
 15 16  2  0  0  0
 16 17  1  0  0  0
 17 18  2  0  0  0
 15  1  1  0  0  0
  1  2  1  0  0  0
  2  3  2  0  0  0
  2  4  1  0  0  0
  4  5  1  0  0  0
  5  6  2  0  0  0
  5  7  1  0  0  0
  7  8  1  0  0  0
  8  9  1  0  0  0
  9 10  1  0  0  0
 10 35  1  0  0  0
 35 36  1  0  0  0
 36 37  2  0  0  0
 37 38  1  0  0  0
 38 39  2  0  0  0
 39 40  1  0  0  0
 40 41  2  0  0  0
 41 42  1  0  0  0
 10 11  1  0  0  0
 11 12  1  0  0  0
  4 21  1  0  0  0
 21 22  2  0  0  0
 22 23  1  0  0  0
 23 24  2  0  0  0
 24 25  1  0  0  0
 25 26  2  0  0  0
 24 27  1  0  0  0
 27 28  2  0  0  0
 28 29  1  0  0  0
 29 30  2  0  0  0
 30 31  1  0  0  0
 31 32  2  0  0  0
 30 33  1  0  0  0
 33 34  3  0  0  0
 18 13  1  0  0  0
  7  1  1  0  0  0
 12  7  1  0  0  0
 26 21  1  0  0  0
 32 27  1  0  0  0
 41 36  1  0  0  0
M  END
> <minimizedAffinity>
5.04734

> <CNNscore>
0.5523359179

> <CNNaffinity>
7.8928594589

> <CNN_VS>
4.3595099449

> <CNNaffinity_variance>
0.5134800673

$$$$
[H]c1nc(OC([H])([H])[H])c([H])c(N2C(=O)N(c3c([H])c([H])c(-c4c([H])c([H])c(C#N)c([H])c4[H])c([H])c3[H])C(=O)C23C([H])([H])C([H])([H])N(C([H])([H])c2nc([H])c([H])c([H])c2C([H])([H])[H])C([H])([H])C3([H])[H])n1


 42 47  0  0  0  0  0  0  0  0999 V2000
   12.1872   25.1707   -1.7293 N   0  0  0  0  0  0  0  0  0  0  0  0
   11.1740   24.1767   -1.4080 C   0  0  0  0  0  0  0  0  0  0  0  0
   10.4744   23.5534   -2.2470 O   0  0  0  0  0  0  0  0  0  0  0  0
   11.1319   24.0472    0.0182 N   0  0  0  0  0  0  0  0  0  0  0  0
   12.1021   24.9403    0.5219 C   0  0  0  0  0  0  0  0  0  0  0  0
   12.1613   25.5164    1.6503 O   0  0  0  0  0  0  0  0  0  0  0  0
   13.1190   25.0893   -0.6190 C   0  0  0  0  0  0  0  0  0  0  0  0
   13.8403   23.7669   -0.6189 C   0  0  0  0  0  0  0  0  0  0  0  0
   15.2296   23.8126   -1.1961 C   0  0  0  0  0  0  0  0  0  0  0  0
   15.8888   25.0363   -1.0421 N   0  0  0  0  0  0  0  0  0  0  0  0
   15.3895   25.9189   -0.0588 C   0  0  0  0  0  0  0  0  0  0  0  0
   13.9189   26.2675   -0.2918 C   0  0  0  0  0  0  0  0  0  0  0  0
   13.1891   27.0464   -4.8191 C   0  0  0  0  0  0  0  0  0  0  0  0
   13.2659   26.2514   -3.6739 C   0  0  0  0  0  0  0  0  0  0  0  0
   12.1523   25.9699   -2.8861 C   0  0  0  0  0  0  0  0  0  0  0  0
   11.0242   26.5455   -3.3556 N   0  0  0  0  0  0  0  0  0  0  0  0
   10.8995   27.3000   -4.4262 C   0  0  0  0  0  0  0  0  0  0  0  0
   11.9923   27.5529   -5.1654 N   0  0  0  0  0  0  0  0  0  0  0  0
   14.6320   26.4152   -6.6344 C   0  0  0  0  0  0  0  0  0  0  0  0
   14.3269   27.3009   -5.5676 O   0  0  0  0  0  0  0  0  0  0  0  0
   10.2878   23.2202    0.8102 C   0  0  0  0  0  0  0  0  0  0  0  0
   10.7210   22.0208    1.3004 C   0  0  0  0  0  0  0  0  0  0  0  0
    9.8295   21.2523    2.0441 C   0  0  0  0  0  0  0  0  0  0  0  0
    8.5476   21.6688    2.2893 C   0  0  0  0  0  0  0  0  0  0  0  0
    8.1275   22.8723    1.7940 C   0  0  0  0  0  0  0  0  0  0  0  0
    8.9871   23.6357    1.0648 C   0  0  0  0  0  0  0  0  0  0  0  0
    7.6474   20.8299    3.0440 C   0  0  0  0  0  0  0  0  0  0  0  0
    7.9251   20.4164    4.3442 C   0  0  0  0  0  0  0  0  0  0  0  0
    7.0081   19.6207    5.0249 C   0  0  0  0  0  0  0  0  0  0  0  0
    5.8456   19.2419    4.4370 C   0  0  0  0  0  0  0  0  0  0  0  0
    5.5514   19.6305    3.1705 C   0  0  0  0  0  0  0  0  0  0  0  0
    6.4690   20.4308    2.4798 C   0  0  0  0  0  0  0  0  0  0  0  0
    4.8954   18.4303    5.1463 C   0  0  0  0  0  0  0  0  0  0  0  0
    4.1364   17.7641    5.7397 N   0  0  0  0  0  0  0  0  0  0  0  0
   17.2588   25.1373   -1.3361 C   0  0  0  0  0  0  0  0  0  0  0  0
   17.5655   26.1099   -2.3825 C   0  0  0  0  0  0  0  0  0  0  0  0
   18.4101   27.1114   -2.1939 N   0  0  0  0  0  0  0  0  0  0  0  0
   18.6414   28.0023   -3.1823 C   0  0  0  0  0  0  0  0  0  0  0  0
   18.0242   27.9136   -4.4052 C   0  0  0  0  0  0  0  0  0  0  0  0
   17.1273   26.8752   -4.6492 C   0  0  0  0  0  0  0  0  0  0  0  0
   16.9342   25.9983   -3.5998 C   0  0  0  0  0  0  0  0  0  0  0  0
   15.9819   24.8546   -3.7763 C   0  0  0  0  0  0  0  0  0  0  0  0
 19 20  1  0  0  0
 20 13  1  0  0  0
 13 14  2  0  0  0
 14 15  1  0  0  0
 15 16  2  0  0  0
 16 17  1  0  0  0
 17 18  2  0  0  0
 15  1  1  0  0  0
  1  2  1  0  0  0
  2  3  2  0  0  0
  2  4  1  0  0  0
  4  5  1  0  0  0
  5  6  2  0  0  0
  5  7  1  0  0  0
  7  8  1  0  0  0
  8  9  1  0  0  0
  9 10  1  0  0  0
 10 35  1  0  0  0
 35 36  1  0  0  0
 36 37  2  0  0  0
 37 38  1  0  0  0
 38 39  2  0  0  0
 39 40  1  0  0  0
 40 41  2  0  0  0
 41 42  1  0  0  0
 10 11  1  0  0  0
 11 12  1  0  0  0
  4 21  1  0  0  0
 21 22  2  0  0  0
 22 23  1  0  0  0
 23 24  2  0  0  0
 24 25  1  0  0  0
 25 26  2  0  0  0
 24 27  1  0  0  0
 27 28  2  0  0  0
 28 29  1  0  0  0
 29 30  2  0  0  0
 30 31  1  0  0  0
 31 32  2  0  0  0
 30 33  1  0  0  0
 33 34  3  0  0  0
 18 13  1  0  0  0
  7  1  1  0  0  0
 12  7  1  0  0  0
 26 21  1  0  0  0
 32 27  1  0  0  0
 41 36  1  0  0  0
M  END
> <minimizedAffinity>
12.54814

> <CNNscore>
0.5390384793

> <CNNaffinity>
7.6395430565

> <CNN_VS>
4.1180076599

> <CNNaffinity_variance>
0.8449142575

$$$$
[H]c1nc(OC([H])([H])[H])c([H])c(N2C(=O)N(c3c([H])c([H])c(-c4c([H])c([H])c(C#N)c([H])c4[H])c([H])c3[H])C(=O)C23C([H])([H])C([H])([H])N(C([H])([H])c2nc([H])c([H])c([H])c2C([H])([H])[H])C([H])([H])C3([H])[H])n1


 42 47  0  0  0  0  0  0  0  0999 V2000
   15.6869   24.3690    0.0715 N   0  0  0  0  0  0  0  0  0  0  0  0
   14.7998   24.8570    1.1168 C   0  0  0  0  0  0  0  0  0  0  0  0
   15.1510   25.1624    2.2852 O   0  0  0  0  0  0  0  0  0  0  0  0
   13.4786   24.9234    0.5668 N   0  0  0  0  0  0  0  0  0  0  0  0
   13.5889   24.4898   -0.7720 C   0  0  0  0  0  0  0  0  0  0  0  0
   12.7157   23.9601   -1.5241 O   0  0  0  0  0  0  0  0  0  0  0  0
   15.0434   24.7950   -1.1581 C   0  0  0  0  0  0  0  0  0  0  0  0
   15.0639   26.2960   -1.2830 C   0  0  0  0  0  0  0  0  0  0  0  0
   16.1395   26.8332   -2.1885 C   0  0  0  0  0  0  0  0  0  0  0  0
   16.5066   25.9799   -3.2339 N   0  0  0  0  0  0  0  0  0  0  0  0
   15.6041   24.9467   -3.5705 C   0  0  0  0  0  0  0  0  0  0  0  0
   15.3017   24.0362   -2.3798 C   0  0  0  0  0  0  0  0  0  0  0  0
   19.1777   23.4729    1.1109 C   0  0  0  0  0  0  0  0  0  0  0  0
   18.0234   24.2192    0.8663 C   0  0  0  0  0  0  0  0  0  0  0  0
   16.8701   23.6532    0.3281 C   0  0  0  0  0  0  0  0  0  0  0  0
   17.0059   22.3323    0.0806 N   0  0  0  0  0  0  0  0  0  0  0  0
   18.0683   21.5859    0.2931 C   0  0  0  0  0  0  0  0  0  0  0  0
   19.1649   22.1614    0.8135 N   0  0  0  0  0  0  0  0  0  0  0  0
   20.1393   24.8632    2.8192 C   0  0  0  0  0  0  0  0  0  0  0  0
   20.3015   24.0833    1.6440 O   0  0  0  0  0  0  0  0  0  0  0  0
   12.2696   25.3161    1.2054 C   0  0  0  0  0  0  0  0  0  0  0  0
   11.0688   24.7630    0.8609 C   0  0  0  0  0  0  0  0  0  0  0  0
    9.9237   25.2174    1.5095 C   0  0  0  0  0  0  0  0  0  0  0  0
    9.9772   26.1926    2.4703 C   0  0  0  0  0  0  0  0  0  0  0  0
   11.1860   26.7366    2.8066 C   0  0  0  0  0  0  0  0  0  0  0  0
   12.3151   26.3031    2.1817 C   0  0  0  0  0  0  0  0  0  0  0  0
    8.7630   26.6530    3.1006 C   0  0  0  0  0  0  0  0  0  0  0  0
    8.7260   27.7810    3.9158 C   0  0  0  0  0  0  0  0  0  0  0  0
    7.5194   28.1829    4.4818 C   0  0  0  0  0  0  0  0  0  0  0  0
    6.3775   27.4884    4.2494 C   0  0  0  0  0  0  0  0  0  0  0  0
    6.3867   26.3850    3.4596 C   0  0  0  0  0  0  0  0  0  0  0  0
    7.5964   25.9749    2.8870 C   0  0  0  0  0  0  0  0  0  0  0  0
    5.1312   27.9124    4.8254 C   0  0  0  0  0  0  0  0  0  0  0  0
    4.1236   28.2784    5.2975 N   0  0  0  0  0  0  0  0  0  0  0  0
   17.3318   26.4518   -4.2682 C   0  0  0  0  0  0  0  0  0  0  0  0
   16.5949   26.9610   -5.4225 C   0  0  0  0  0  0  0  0  0  0  0  0
   16.4174   28.2552   -5.6356 N   0  0  0  0  0  0  0  0  0  0  0  0
   15.7051   28.6783   -6.7022 C   0  0  0  0  0  0  0  0  0  0  0  0
   15.1423   27.8040   -7.5985 C   0  0  0  0  0  0  0  0  0  0  0  0
   15.3034   26.4319   -7.4145 C   0  0  0  0  0  0  0  0  0  0  0  0
   16.0413   26.0638   -6.3066 C   0  0  0  0  0  0  0  0  0  0  0  0
   16.2592   24.6068   -6.0319 C   0  0  0  0  0  0  0  0  0  0  0  0
 19 20  1  0  0  0
 20 13  1  0  0  0
 13 14  2  0  0  0
 14 15  1  0  0  0
 15 16  2  0  0  0
 16 17  1  0  0  0
 17 18  2  0  0  0
 15  1  1  0  0  0
  1  2  1  0  0  0
  2  3  2  0  0  0
  2  4  1  0  0  0
  4  5  1  0  0  0
  5  6  2  0  0  0
  5  7  1  0  0  0
  7  8  1  0  0  0
  8  9  1  0  0  0
  9 10  1  0  0  0
 10 35  1  0  0  0
 35 36  1  0  0  0
 36 37  2  0  0  0
 37 38  1  0  0  0
 38 39  2  0  0  0
 39 40  1  0  0  0
 40 41  2  0  0  0
 41 42  1  0  0  0
 10 11  1  0  0  0
 11 12  1  0  0  0
  4 21  1  0  0  0
 21 22  2  0  0  0
 22 23  1  0  0  0
 23 24  2  0  0  0
 24 25  1  0  0  0
 25 26  2  0  0  0
 24 27  1  0  0  0
 27 28  2  0  0  0
 28 29  1  0  0  0
 29 30  2  0  0  0
 30 31  1  0  0  0
 31 32  2  0  0  0
 30 33  1  0  0  0
 33 34  3  0  0  0
 18 13  1  0  0  0
  7  1  1  0  0  0
 12  7  1  0  0  0
 26 21  1  0  0  0
 32 27  1  0  0  0
 41 36  1  0  0  0
M  END
> <minimizedAffinity>
37.20517

> <CNNscore>
0.5026507974

> <CNNaffinity>
7.1867346764

> <CNN_VS>
3.6124179363

> <CNNaffinity_variance>
1.0724118948

$$$$
[H]c1nc(OC([H])([H])[H])c([H])c(N2C(=O)N(c3c([H])c([H])c(-c4c([H])c([H])c(C#N)c([H])c4[H])c([H])c3[H])C(=O)C23C([H])([H])C([H])([H])N(C([H])([H])c2nc([H])c([H])c([H])c2C([H])([H])[H])C([H])([H])C3([H])[H])n1


 42 47  0  0  0  0  0  0  0  0999 V2000
   15.3498   23.6281   -0.3187 N   0  0  0  0  0  0  0  0  0  0  0  0
   14.3670   23.8123    0.7386 C   0  0  0  0  0  0  0  0  0  0  0  0
   14.4435   24.6613    1.6634 O   0  0  0  0  0  0  0  0  0  0  0  0
   13.3170   22.8615    0.5236 N   0  0  0  0  0  0  0  0  0  0  0  0
   13.6728   22.1399   -0.6363 C   0  0  0  0  0  0  0  0  0  0  0  0
   13.3495   20.9649   -0.9876 O   0  0  0  0  0  0  0  0  0  0  0  0
   14.5746   23.0994   -1.4263 C   0  0  0  0  0  0  0  0  0  0  0  0
   13.6115   24.1327   -1.9496 C   0  0  0  0  0  0  0  0  0  0  0  0
   14.0707   24.8408   -3.1958 C   0  0  0  0  0  0  0  0  0  0  0  0
   14.8970   24.0821   -4.0310 N   0  0  0  0  0  0  0  0  0  0  0  0
   14.8827   22.6809   -3.8527 C   0  0  0  0  0  0  0  0  0  0  0  0
   15.2554   22.2786   -2.4253 C   0  0  0  0  0  0  0  0  0  0  0  0
   18.6774   24.5458    1.1493 C   0  0  0  0  0  0  0  0  0  0  0  0
   17.3153   24.2579    1.0428 C   0  0  0  0  0  0  0  0  0  0  0  0
   16.7158   23.9289   -0.1707 C   0  0  0  0  0  0  0  0  0  0  0  0
   17.5916   23.9241   -1.1990 N   0  0  0  0  0  0  0  0  0  0  0  0
   18.8799   24.1867   -1.1509 C   0  0  0  0  0  0  0  0  0  0  0  0
   19.4284   24.5004    0.0345 N   0  0  0  0  0  0  0  0  0  0  0  0
   19.1957   23.8876    3.4018 C   0  0  0  0  0  0  0  0  0  0  0  0
   19.2260   24.8718    2.3790 O   0  0  0  0  0  0  0  0  0  0  0  0
   12.1489   22.6371    1.3038 C   0  0  0  0  0  0  0  0  0  0  0  0
   11.9835   21.4894    2.0263 C   0  0  0  0  0  0  0  0  0  0  0  0
   10.8014   21.3270    2.7437 C   0  0  0  0  0  0  0  0  0  0  0  0
    9.8172   22.2800    2.7387 C   0  0  0  0  0  0  0  0  0  0  0  0
    9.9964   23.4249    2.0125 C   0  0  0  0  0  0  0  0  0  0  0  0
   11.1468   23.5990    1.3056 C   0  0  0  0  0  0  0  0  0  0  0  0
    8.5959   22.0610    3.4763 C   0  0  0  0  0  0  0  0  0  0  0  0
    7.4424   22.8071    3.2496 C   0  0  0  0  0  0  0  0  0  0  0  0
    6.2911   22.5361    3.9835 C   0  0  0  0  0  0  0  0  0  0  0  0
    6.2784   21.5532    4.9185 C   0  0  0  0  0  0  0  0  0  0  0  0
    7.3895   20.8123    5.1595 C   0  0  0  0  0  0  0  0  0  0  0  0
    8.5510   21.0793    4.4252 C   0  0  0  0  0  0  0  0  0  0  0  0
    5.0851   21.2677    5.6663 C   0  0  0  0  0  0  0  0  0  0  0  0
    4.1238   21.0372    6.2947 N   0  0  0  0  0  0  0  0  0  0  0  0
   15.2077   24.5458   -5.3201 C   0  0  0  0  0  0  0  0  0  0  0  0
   15.6375   25.9418   -5.3552 C   0  0  0  0  0  0  0  0  0  0  0  0
   16.2514   26.5205   -4.3352 N   0  0  0  0  0  0  0  0  0  0  0  0
   16.6056   27.8220   -4.4031 C   0  0  0  0  0  0  0  0  0  0  0  0
   16.3511   28.5917   -5.5108 C   0  0  0  0  0  0  0  0  0  0  0  0
   15.7070   28.0248   -6.6091 C   0  0  0  0  0  0  0  0  0  0  0  0
   15.3713   26.6915   -6.4776 C   0  0  0  0  0  0  0  0  0  0  0  0
   14.6717   26.0048   -7.6111 C   0  0  0  0  0  0  0  0  0  0  0  0
 19 20  1  0  0  0
 20 13  1  0  0  0
 13 14  2  0  0  0
 14 15  1  0  0  0
 15 16  2  0  0  0
 16 17  1  0  0  0
 17 18  2  0  0  0
 15  1  1  0  0  0
  1  2  1  0  0  0
  2  3  2  0  0  0
  2  4  1  0  0  0
  4  5  1  0  0  0
  5  6  2  0  0  0
  5  7  1  0  0  0
  7  8  1  0  0  0
  8  9  1  0  0  0
  9 10  1  0  0  0
 10 35  1  0  0  0
 35 36  1  0  0  0
 36 37  2  0  0  0
 37 38  1  0  0  0
 38 39  2  0  0  0
 39 40  1  0  0  0
 40 41  2  0  0  0
 41 42  1  0  0  0
 10 11  1  0  0  0
 11 12  1  0  0  0
  4 21  1  0  0  0
 21 22  2  0  0  0
 22 23  1  0  0  0
 23 24  2  0  0  0
 24 25  1  0  0  0
 25 26  2  0  0  0
 24 27  1  0  0  0
 27 28  2  0  0  0
 28 29  1  0  0  0
 29 30  2  0  0  0
 30 31  1  0  0  0
 31 32  2  0  0  0
 30 33  1  0  0  0
 33 34  3  0  0  0
 18 13  1  0  0  0
  7  1  1  0  0  0
 12  7  1  0  0  0
 26 21  1  0  0  0
 32 27  1  0  0  0
 41 36  1  0  0  0
M  END
> <minimizedAffinity>
8.74052

> <CNNscore>
0.4888646603

> <CNNaffinity>
7.8089103699

> <CNN_VS>
3.8175003529

> <CNNaffinity_variance>
0.3911155164

$$$$
[H]c1nc(OC([H])([H])[H])c([H])c(N2C(=O)N(c3c([H])c([H])c(-c4c([H])c([H])c(C#N)c([H])c4[H])c([H])c3[H])C(=O)C23C([H])([H])C([H])([H])N(C([H])([H])c2nc([H])c([H])c([H])c2C([H])([H])[H])C([H])([H])C3([H])[H])n1


 42 47  0  0  0  0  0  0  0  0999 V2000
   14.0934   25.9676   -3.1879 N   0  0  0  0  0  0  0  0  0  0  0  0
   14.2668   25.1082   -2.0263 C   0  0  0  0  0  0  0  0  0  0  0  0
   15.3557   24.8980   -1.4329 O   0  0  0  0  0  0  0  0  0  0  0  0
   12.9838   24.5633   -1.6958 N   0  0  0  0  0  0  0  0  0  0  0  0
   12.0773   25.0950   -2.6383 C   0  0  0  0  0  0  0  0  0  0  0  0
   10.9761   24.6235   -3.0551 O   0  0  0  0  0  0  0  0  0  0  0  0
   12.7169   26.4174   -3.0856 C   0  0  0  0  0  0  0  0  0  0  0  0
   12.5329   27.3161   -1.8908 C   0  0  0  0  0  0  0  0  0  0  0  0
   12.5174   28.7866   -2.2113 C   0  0  0  0  0  0  0  0  0  0  0  0
   12.0289   29.1049   -3.4824 N   0  0  0  0  0  0  0  0  0  0  0  0
   11.2561   28.1230   -4.1412 C   0  0  0  0  0  0  0  0  0  0  0  0
   12.0179   26.8076   -4.3079 C   0  0  0  0  0  0  0  0  0  0  0  0
   17.1564   27.3264   -4.8734 C   0  0  0  0  0  0  0  0  0  0  0  0
   16.1629   27.1071   -3.9173 C   0  0  0  0  0  0  0  0  0  0  0  0
   15.1100   26.2196   -4.1266 C   0  0  0  0  0  0  0  0  0  0  0  0
   15.1700   25.6171   -5.3340 N   0  0  0  0  0  0  0  0  0  0  0  0
   16.0821   25.7883   -6.2666 C   0  0  0  0  0  0  0  0  0  0  0  0
   17.0852   26.6510   -6.0343 N   0  0  0  0  0  0  0  0  0  0  0  0
   18.9333   28.0520   -3.4271 C   0  0  0  0  0  0  0  0  0  0  0  0
   18.1815   28.2231   -4.6192 O   0  0  0  0  0  0  0  0  0  0  0  0
   12.6469   23.6522   -0.6566 C   0  0  0  0  0  0  0  0  0  0  0  0
   13.1909   22.4001   -0.6018 C   0  0  0  0  0  0  0  0  0  0  0  0
   12.7924   21.5531    0.4289 C   0  0  0  0  0  0  0  0  0  0  0  0
   11.8801   21.9445    1.3730 C   0  0  0  0  0  0  0  0  0  0  0  0
   11.3445   23.2012    1.3072 C   0  0  0  0  0  0  0  0  0  0  0  0
   11.7239   24.0416    0.3057 C   0  0  0  0  0  0  0  0  0  0  0  0
   11.4753   21.0264    2.4107 C   0  0  0  0  0  0  0  0  0  0  0  0
   12.2538   19.9355    2.7882 C   0  0  0  0  0  0  0  0  0  0  0  0
   11.8150   19.0958    3.8079 C   0  0  0  0  0  0  0  0  0  0  0  0
   10.6367   19.3265    4.4394 C   0  0  0  0  0  0  0  0  0  0  0  0
    9.8588   20.3821    4.0898 C   0  0  0  0  0  0  0  0  0  0  0  0
   10.2937   21.2309    3.0652 C   0  0  0  0  0  0  0  0  0  0  0  0
   10.1919   18.4649    5.4998 C   0  0  0  0  0  0  0  0  0  0  0  0
    9.8381   17.7451    6.3536 N   0  0  0  0  0  0  0  0  0  0  0  0
   11.7570   30.4424   -3.8152 C   0  0  0  0  0  0  0  0  0  0  0  0
   10.4723   30.6324   -4.4846 C   0  0  0  0  0  0  0  0  0  0  0  0
    9.5208   29.7125   -4.4669 N   0  0  0  0  0  0  0  0  0  0  0  0
    8.3593   29.9214   -5.1237 C   0  0  0  0  0  0  0  0  0  0  0  0
    8.1147   31.0747   -5.8269 C   0  0  0  0  0  0  0  0  0  0  0  0
    9.0878   32.0714   -5.8731 C   0  0  0  0  0  0  0  0  0  0  0  0
   10.2518   31.7976   -5.1820 C   0  0  0  0  0  0  0  0  0  0  0  0
   11.3523   32.8148   -5.1835 C   0  0  0  0  0  0  0  0  0  0  0  0
 19 20  1  0  0  0
 20 13  1  0  0  0
 13 14  2  0  0  0
 14 15  1  0  0  0
 15 16  2  0  0  0
 16 17  1  0  0  0
 17 18  2  0  0  0
 15  1  1  0  0  0
  1  2  1  0  0  0
  2  3  2  0  0  0
  2  4  1  0  0  0
  4  5  1  0  0  0
  5  6  2  0  0  0
  5  7  1  0  0  0
  7  8  1  0  0  0
  8  9  1  0  0  0
  9 10  1  0  0  0
 10 35  1  0  0  0
 35 36  1  0  0  0
 36 37  2  0  0  0
 37 38  1  0  0  0
 38 39  2  0  0  0
 39 40  1  0  0  0
 40 41  2  0  0  0
 41 42  1  0  0  0
 10 11  1  0  0  0
 11 12  1  0  0  0
  4 21  1  0  0  0
 21 22  2  0  0  0
 22 23  1  0  0  0
 23 24  2  0  0  0
 24 25  1  0  0  0
 25 26  2  0  0  0
 24 27  1  0  0  0
 27 28  2  0  0  0
 28 29  1  0  0  0
 29 30  2  0  0  0
 30 31  1  0  0  0
 31 32  2  0  0  0
 30 33  1  0  0  0
 33 34  3  0  0  0
 18 13  1  0  0  0
  7  1  1  0  0  0
 12  7  1  0  0  0
 26 21  1  0  0  0
 32 27  1  0  0  0
 41 36  1  0  0  0
M  END
> <minimizedAffinity>
28.57290

> <CNNscore>
0.4289648831

> <CNNaffinity>
7.1354537010

> <CNN_VS>
3.0608589649

> <CNNaffinity_variance>
0.6257809401

$$$$
[H]c1nc(OC([H])([H])[H])c([H])c(N2C(=O)N(c3c([H])c([H])c(-c4c([H])c([H])c(C#N)c([H])c4[H])c([H])c3[H])C(=O)C23C([H])([H])C([H])([H])N(C([H])([H])c2nc([H])c([H])c([H])c2C([H])([H])[H])C([H])([H])C3([H])[H])n1


 42 47  0  0  0  0  0  0  0  0999 V2000
   14.5818   25.6093   -2.2455 N   0  0  0  0  0  0  0  0  0  0  0  0
   13.3542   25.5797   -1.4644 C   0  0  0  0  0  0  0  0  0  0  0  0
   12.4538   26.4575   -1.4906 O   0  0  0  0  0  0  0  0  0  0  0  0
   13.3694   24.3809   -0.6800 N   0  0  0  0  0  0  0  0  0  0  0  0
   14.5753   23.7196   -0.9978 C   0  0  0  0  0  0  0  0  0  0  0  0
   15.2555   22.9031   -0.3054 O   0  0  0  0  0  0  0  0  0  0  0  0
   14.9226   24.2080   -2.4116 C   0  0  0  0  0  0  0  0  0  0  0  0
   13.9107   23.5084   -3.2810 C   0  0  0  0  0  0  0  0  0  0  0  0
   14.3403   23.3185   -4.7110 C   0  0  0  0  0  0  0  0  0  0  0  0
   15.7201   23.1868   -4.8965 N   0  0  0  0  0  0  0  0  0  0  0  0
   16.4935   22.8451   -3.7650 C   0  0  0  0  0  0  0  0  0  0  0  0
   16.3232   23.8513   -2.6263 C   0  0  0  0  0  0  0  0  0  0  0  0
   17.1439   28.2373   -3.0191 C   0  0  0  0  0  0  0  0  0  0  0  0
   16.5669   27.0459   -2.5753 C   0  0  0  0  0  0  0  0  0  0  0  0
   15.2002   26.7968   -2.6761 C   0  0  0  0  0  0  0  0  0  0  0  0
   14.5250   27.8220   -3.2399 N   0  0  0  0  0  0  0  0  0  0  0  0
   15.0205   28.9610   -3.6736 C   0  0  0  0  0  0  0  0  0  0  0  0
   16.3427   29.1708   -3.5625 N   0  0  0  0  0  0  0  0  0  0  0  0
   19.2877   28.4738   -4.0794 C   0  0  0  0  0  0  0  0  0  0  0  0
   18.5088   28.4391   -2.8929 O   0  0  0  0  0  0  0  0  0  0  0  0
   12.4031   23.9207    0.2571 C   0  0  0  0  0  0  0  0  0  0  0  0
   12.3350   22.6064    0.6238 C   0  0  0  0  0  0  0  0  0  0  0  0
   11.3446   22.2242    1.5248 C   0  0  0  0  0  0  0  0  0  0  0  0
   10.4520   23.1259    2.0416 C   0  0  0  0  0  0  0  0  0  0  0  0
   10.5325   24.4387    1.6671 C   0  0  0  0  0  0  0  0  0  0  0  0
   11.4952   24.8286    0.7871 C   0  0  0  0  0  0  0  0  0  0  0  0
    9.4246   22.6833    2.9538 C   0  0  0  0  0  0  0  0  0  0  0  0
    8.2314   23.3790    3.1293 C   0  0  0  0  0  0  0  0  0  0  0  0
    7.2728   22.8911    4.0129 C   0  0  0  0  0  0  0  0  0  0  0  0
    7.4865   21.7450    4.7065 C   0  0  0  0  0  0  0  0  0  0  0  0
    8.6413   21.0487    4.5545 C   0  0  0  0  0  0  0  0  0  0  0  0
    9.6099   21.5334    3.6677 C   0  0  0  0  0  0  0  0  0  0  0  0
    6.4902   21.2374    5.6091 C   0  0  0  0  0  0  0  0  0  0  0  0
    5.6940   20.8198    6.3599 N   0  0  0  0  0  0  0  0  0  0  0  0
   16.2254   22.7854   -6.1443 C   0  0  0  0  0  0  0  0  0  0  0  0
   16.3961   23.8851   -7.0910 C   0  0  0  0  0  0  0  0  0  0  0  0
   17.1623   23.7831   -8.1655 N   0  0  0  0  0  0  0  0  0  0  0  0
   17.3117   24.8362   -8.9978 C   0  0  0  0  0  0  0  0  0  0  0  0
   16.6886   26.0387   -8.7739 C   0  0  0  0  0  0  0  0  0  0  0  0
   15.8718   26.1922   -7.6551 C   0  0  0  0  0  0  0  0  0  0  0  0
   15.7600   25.0798   -6.8441 C   0  0  0  0  0  0  0  0  0  0  0  0
   14.9039   25.1603   -5.6167 C   0  0  0  0  0  0  0  0  0  0  0  0
 19 20  1  0  0  0
 20 13  1  0  0  0
 13 14  2  0  0  0
 14 15  1  0  0  0
 15 16  2  0  0  0
 16 17  1  0  0  0
 17 18  2  0  0  0
 15  1  1  0  0  0
  1  2  1  0  0  0
  2  3  2  0  0  0
  2  4  1  0  0  0
  4  5  1  0  0  0
  5  6  2  0  0  0
  5  7  1  0  0  0
  7  8  1  0  0  0
  8  9  1  0  0  0
  9 10  1  0  0  0
 10 35  1  0  0  0
 35 36  1  0  0  0
 36 37  2  0  0  0
 37 38  1  0  0  0
 38 39  2  0  0  0
 39 40  1  0  0  0
 40 41  2  0  0  0
 41 42  1  0  0  0
 10 11  1  0  0  0
 11 12  1  0  0  0
  4 21  1  0  0  0
 21 22  2  0  0  0
 22 23  1  0  0  0
 23 24  2  0  0  0
 24 25  1  0  0  0
 25 26  2  0  0  0
 24 27  1  0  0  0
 27 28  2  0  0  0
 28 29  1  0  0  0
 29 30  2  0  0  0
 30 31  1  0  0  0
 31 32  2  0  0  0
 30 33  1  0  0  0
 33 34  3  0  0  0
 18 13  1  0  0  0
  7  1  1  0  0  0
 12  7  1  0  0  0
 26 21  1  0  0  0
 32 27  1  0  0  0
 41 36  1  0  0  0
M  END
> <minimizedAffinity>
22.59933

> <CNNscore>
0.4206930697

> <CNNaffinity>
7.5054311752

> <CNN_VS>
3.1574828625

> <CNNaffinity_variance>
0.7252985239

$$$$
[H]c1nc(OC([H])([H])[H])c([H])c(N2C(=O)N(c3c([H])c([H])c(-c4c([H])c([H])c(C#N)c([H])c4[H])c([H])c3[H])C(=O)C23C([H])([H])C([H])([H])N(C([H])([H])c2nc([H])c([H])c([H])c2C([H])([H])[H])C([H])([H])C3([H])[H])n1


 42 47  0  0  0  0  0  0  0  0999 V2000
   14.1115   25.0882   -2.2068 N   0  0  0  0  0  0  0  0  0  0  0  0
   12.8582   25.6043   -1.6768 C   0  0  0  0  0  0  0  0  0  0  0  0
   12.1340   26.4689   -2.2335 O   0  0  0  0  0  0  0  0  0  0  0  0
   12.6140   24.9478   -0.4271 N   0  0  0  0  0  0  0  0  0  0  0  0
   13.6960   24.0628   -0.2309 C   0  0  0  0  0  0  0  0  0  0  0  0
   14.1789   23.6040    0.8484 O   0  0  0  0  0  0  0  0  0  0  0  0
   14.2020   23.7518   -1.6470 C   0  0  0  0  0  0  0  0  0  0  0  0
   13.1292   22.8586   -2.2129 C   0  0  0  0  0  0  0  0  0  0  0  0
   13.5944   21.9428   -3.3131 C   0  0  0  0  0  0  0  0  0  0  0  0
   14.9357   21.5567   -3.2271 N   0  0  0  0  0  0  0  0  0  0  0  0
   15.5720   21.7092   -1.9753 C   0  0  0  0  0  0  0  0  0  0  0  0
   15.5247   23.1544   -1.4780 C   0  0  0  0  0  0  0  0  0  0  0  0
   16.3448   27.7587   -3.6032 C   0  0  0  0  0  0  0  0  0  0  0  0
   15.5052   27.0617   -2.7322 C   0  0  0  0  0  0  0  0  0  0  0  0
   14.9567   25.8233   -3.0572 C   0  0  0  0  0  0  0  0  0  0  0  0
   15.3283   25.3957   -4.2835 N   0  0  0  0  0  0  0  0  0  0  0  0
   16.1148   26.0125   -5.1391 C   0  0  0  0  0  0  0  0  0  0  0  0
   16.6283   27.2054   -4.7958 N   0  0  0  0  0  0  0  0  0  0  0  0
   17.6966   29.0437   -2.0875 C   0  0  0  0  0  0  0  0  0  0  0  0
   16.8623   28.9900   -3.2350 O   0  0  0  0  0  0  0  0  0  0  0  0
   11.5310   25.1332    0.4765 C   0  0  0  0  0  0  0  0  0  0  0  0
   10.5038   24.2356    0.5523 C   0  0  0  0  0  0  0  0  0  0  0  0
    9.4639   24.4978    1.4402 C   0  0  0  0  0  0  0  0  0  0  0  0
    9.4511   25.6200    2.2259 C   0  0  0  0  0  0  0  0  0  0  0  0
   10.4865   26.5094    2.1412 C   0  0  0  0  0  0  0  0  0  0  0  0
   11.5111   26.2676    1.2780 C   0  0  0  0  0  0  0  0  0  0  0  0
    8.3412   25.8665    3.1153 C   0  0  0  0  0  0  0  0  0  0  0  0
    8.1591   25.1542    4.2977 C   0  0  0  0  0  0  0  0  0  0  0  0
    7.0766   25.4509    5.1210 C   0  0  0  0  0  0  0  0  0  0  0  0
    6.1953   26.4262    4.7857 C   0  0  0  0  0  0  0  0  0  0  0  0
    6.3496   27.1343    3.6384 C   0  0  0  0  0  0  0  0  0  0  0  0
    7.4359   26.8414    2.8054 C   0  0  0  0  0  0  0  0  0  0  0  0
    5.0855   26.7383    5.6434 C   0  0  0  0  0  0  0  0  0  0  0  0
    4.1950   26.9985    6.3585 N   0  0  0  0  0  0  0  0  0  0  0  0
   15.4271   20.5368   -4.0588 C   0  0  0  0  0  0  0  0  0  0  0  0
   14.4563   20.0600   -5.0411 C   0  0  0  0  0  0  0  0  0  0  0  0
   13.7877   18.9283   -4.8854 N   0  0  0  0  0  0  0  0  0  0  0  0
   12.9202   18.5139   -5.8340 C   0  0  0  0  0  0  0  0  0  0  0  0
   12.6947   19.2321   -6.9819 C   0  0  0  0  0  0  0  0  0  0  0  0
   13.3761   20.4302   -7.1886 C   0  0  0  0  0  0  0  0  0  0  0  0
   14.2479   20.7987   -6.1829 C   0  0  0  0  0  0  0  0  0  0  0  0
   15.0248   22.0721   -6.3272 C   0  0  0  0  0  0  0  0  0  0  0  0
 19 20  1  0  0  0
 20 13  1  0  0  0
 13 14  2  0  0  0
 14 15  1  0  0  0
 15 16  2  0  0  0
 16 17  1  0  0  0
 17 18  2  0  0  0
 15  1  1  0  0  0
  1  2  1  0  0  0
  2  3  2  0  0  0
  2  4  1  0  0  0
  4  5  1  0  0  0
  5  6  2  0  0  0
  5  7  1  0  0  0
  7  8  1  0  0  0
  8  9  1  0  0  0
  9 10  1  0  0  0
 10 35  1  0  0  0
 35 36  1  0  0  0
 36 37  2  0  0  0
 37 38  1  0  0  0
 38 39  2  0  0  0
 39 40  1  0  0  0
 40 41  2  0  0  0
 41 42  1  0  0  0
 10 11  1  0  0  0
 11 12  1  0  0  0
  4 21  1  0  0  0
 21 22  2  0  0  0
 22 23  1  0  0  0
 23 24  2  0  0  0
 24 25  1  0  0  0
 25 26  2  0  0  0
 24 27  1  0  0  0
 27 28  2  0  0  0
 28 29  1  0  0  0
 29 30  2  0  0  0
 30 31  1  0  0  0
 31 32  2  0  0  0
 30 33  1  0  0  0
 33 34  3  0  0  0
 18 13  1  0  0  0
  7  1  1  0  0  0
 12  7  1  0  0  0
 26 21  1  0  0  0
 32 27  1  0  0  0
 41 36  1  0  0  0
M  END
> <minimizedAffinity>
35.43188

> <CNNscore>
0.3878132999

> <CNNaffinity>
7.1724228859

> <CNN_VS>
2.7815608978

> <CNNaffinity_variance>
0.9046538472

$$$$
[H]OC(=O)c1c([H])c([H])c(-c2nc([H])c(N3C(=O)N(c4nc([H])nc([H])c4[H])C4(C3=O)C([H])([H])C([H])([H])N(C([H])([H])c3nc([H])c([H])c([H])c3C([H])([H])[H])C([H])([H])C4([H])[H])c([H])c2[H])c(C([H])([H])[H])c1[H]


 43 48  0  0  0  0  0  0  0  0999 V2000
   15.9333   24.5961   -3.0750 N   0  0  0  0  0  0  0  0  0  0  0  0
   16.3471   24.1468   -1.8534 C   0  0  0  0  0  0  0  0  0  0  0  0
   15.4092   23.1925   -1.1524 C   0  0  0  0  0  0  0  0  0  0  0  0
   13.9980   23.5101   -1.3484 C   0  0  0  0  0  0  0  0  0  0  0  0
   13.6467   24.3721   -2.5515 C   0  0  0  0  0  0  0  0  0  0  0  0
   14.7009   24.0808   -3.6141 C   0  0  0  0  0  0  0  0  0  0  0  0
   13.2941   24.0514   -0.2268 N   0  0  0  0  0  0  0  0  0  0  0  0
   12.1202   23.3199    0.0113 C   0  0  0  0  0  0  0  0  0  0  0  0
   11.1392   23.5170    0.8104 O   0  0  0  0  0  0  0  0  0  0  0  0
   12.1197   22.1510   -0.8670 N   0  0  0  0  0  0  0  0  0  0  0  0
   13.2898   22.2113   -1.6181 C   0  0  0  0  0  0  0  0  0  0  0  0
   13.7384   21.3363   -2.4167 O   0  0  0  0  0  0  0  0  0  0  0  0
   11.0487   21.2189   -0.9088 C   0  0  0  0  0  0  0  0  0  0  0  0
   10.0534   21.4786   -1.8238 C   0  0  0  0  0  0  0  0  0  0  0  0
    8.9202   20.7031   -1.8004 C   0  0  0  0  0  0  0  0  0  0  0  0
    8.7920   19.7156   -0.8975 C   0  0  0  0  0  0  0  0  0  0  0  0
    9.8197   19.4810    0.0001 N   0  0  0  0  0  0  0  0  0  0  0  0
   10.9279   20.2157    0.0017 C   0  0  0  0  0  0  0  0  0  0  0  0
    7.5498   18.9473   -0.6711 C   0  0  0  0  0  0  0  0  0  0  0  0
    7.3922   17.6895   -1.0928 C   0  0  0  0  0  0  0  0  0  0  0  0
    6.2021   17.0101   -0.8064 C   0  0  0  0  0  0  0  0  0  0  0  0
    5.2395   17.6815   -0.0938 C   0  0  0  0  0  0  0  0  0  0  0  0
    5.4010   18.9847    0.3256 C   0  0  0  0  0  0  0  0  0  0  0  0
    6.5406   19.6096    0.0434 C   0  0  0  0  0  0  0  0  0  0  0  0
    6.7342   21.0056    0.4526 C   0  0  0  0  0  0  0  0  0  0  0  0
    4.1020   16.9614    0.4645 C   0  0  0  0  0  0  0  0  0  0  0  0
    3.5645   15.9431   -0.4535 O   0  0  0  0  0  0  0  0  0  0  0  0
    3.6078   17.1016    1.5252 O   0  0  0  0  0  0  0  0  0  0  0  0
    4.1923   15.1192   -0.5594 H   0  0  0  0  0  0  0  0  0  0  0  0
   13.5918   25.1837    0.6210 C   0  0  0  0  0  0  0  0  0  0  0  0
   12.6363   26.1447    0.8696 C   0  0  0  0  0  0  0  0  0  0  0  0
   12.8975   27.2496    1.6449 C   0  0  0  0  0  0  0  0  0  0  0  0
   14.1019   27.4052    2.1759 N   0  0  0  0  0  0  0  0  0  0  0  0
   15.0553   26.4478    1.9429 C   0  0  0  0  0  0  0  0  0  0  0  0
   14.8088   25.3841    1.1909 N   0  0  0  0  0  0  0  0  0  0  0  0
   16.2702   25.8544   -3.5865 C   0  0  0  0  0  0  0  0  0  0  0  0
   16.2229   28.3759   -4.7616 C   0  0  0  0  0  0  0  0  0  0  0  0
   16.0669   27.1548   -5.6243 C   0  0  0  0  0  0  0  0  0  0  0  0
   15.9485   27.2784   -6.9738 C   0  0  0  0  0  0  0  0  0  0  0  0
   15.6375   26.1278   -7.7338 C   0  0  0  0  0  0  0  0  0  0  0  0
   15.4646   24.9005   -7.1002 C   0  0  0  0  0  0  0  0  0  0  0  0
   15.6009   24.8567   -5.7527 N   0  0  0  0  0  0  0  0  0  0  0  0
   15.8951   25.9501   -5.0197 C   0  0  0  0  0  0  0  0  0  0  0  0
 37 38  1  0  0  0
 38 39  2  0  0  0
 39 40  1  0  0  0
 40 41  2  0  0  0
 41 42  1  0  0  0
 42 43  2  0  0  0
 43 36  1  0  0  0
 36  1  1  0  0  0
  1  2  1  0  0  0
  2  3  1  0  0  0
  3  4  1  0  0  0
  4  5  1  0  0  0
  5  6  1  0  0  0
  4  7  1  0  0  0
  7  8  1  0  0  0
  8  9  2  0  0  0
  8 10  1  0  0  0
 10 11  1  0  0  0
 11 12  2  0  0  0
 10 13  1  0  0  0
 13 14  2  0  0  0
 14 15  1  0  0  0
 15 16  2  0  0  0
 16 17  1  0  0  0
 17 18  2  0  0  0
 16 19  1  0  0  0
 19 20  2  0  0  0
 20 21  1  0  0  0
 21 22  2  0  0  0
 22 23  1  0  0  0
 23 24  2  0  0  0
 24 25  1  0  0  0
 22 26  1  0  0  0
 26 27  1  0  0  0
 26 28  2  0  0  0
  7 30  1  0  0  0
 30 31  2  0  0  0
 31 32  1  0  0  0
 32 33  2  0  0  0
 33 34  1  0  0  0
 34 35  2  0  0  0
 43 38  1  0  0  0
  6  1  1  0  0  0
 18 13  1  0  0  0
 24 19  1  0  0  0
 35 30  1  0  0  0
 11  4  1  0  0  0
 27 29  1  0  0  0
M  END
> <minimizedAffinity>
-2.20658

> <CNNscore>
0.5258802176

> <CNNaffinity>
7.8661932945

> <CNN_VS>
4.1366753578

> <CNNaffinity_variance>
0.3149278760

$$$$
[H]OC(=O)c1c([H])c([H])c(-c2nc([H])c(N3C(=O)N(c4nc([H])nc([H])c4[H])C4(C3=O)C([H])([H])C([H])([H])N(C([H])([H])c3nc([H])c([H])c([H])c3C([H])([H])[H])C([H])([H])C4([H])[H])c([H])c2[H])c(C([H])([H])[H])c1[H]


 43 48  0  0  0  0  0  0  0  0999 V2000
   16.4875   24.4524   -1.2548 N   0  0  0  0  0  0  0  0  0  0  0  0
   15.9732   25.6468   -0.8370 C   0  0  0  0  0  0  0  0  0  0  0  0
   14.6840   25.5687   -0.0538 C   0  0  0  0  0  0  0  0  0  0  0  0
   13.7717   24.5340   -0.5309 C   0  0  0  0  0  0  0  0  0  0  0  0
   14.3785   23.4055   -1.3508 C   0  0  0  0  0  0  0  0  0  0  0  0
   15.8139   23.2409   -0.8631 C   0  0  0  0  0  0  0  0  0  0  0  0
   12.6012   24.9731   -1.2266 N   0  0  0  0  0  0  0  0  0  0  0  0
   11.4535   24.3940   -0.6633 C   0  0  0  0  0  0  0  0  0  0  0  0
   10.2271   24.3982   -1.0318 O   0  0  0  0  0  0  0  0  0  0  0  0
   11.8462   23.6796    0.5505 N   0  0  0  0  0  0  0  0  0  0  0  0
   13.2222   23.8397    0.6844 C   0  0  0  0  0  0  0  0  0  0  0  0
   13.9483   23.4797    1.6579 O   0  0  0  0  0  0  0  0  0  0  0  0
   10.9259   22.9430    1.3430 C   0  0  0  0  0  0  0  0  0  0  0  0
   10.7789   21.6121    1.0232 C   0  0  0  0  0  0  0  0  0  0  0  0
    9.7918   20.8908    1.6487 C   0  0  0  0  0  0  0  0  0  0  0  0
    8.9879   21.4804    2.5502 C   0  0  0  0  0  0  0  0  0  0  0  0
    9.1739   22.8192    2.8503 N   0  0  0  0  0  0  0  0  0  0  0  0
   10.1206   23.5429    2.2606 C   0  0  0  0  0  0  0  0  0  0  0  0
    7.7902   20.8472    3.1415 C   0  0  0  0  0  0  0  0  0  0  0  0
    7.7670   20.3727    4.3901 C   0  0  0  0  0  0  0  0  0  0  0  0
    6.5837   19.8222    4.8967 C   0  0  0  0  0  0  0  0  0  0  0  0
    5.4868   19.7971    4.0711 C   0  0  0  0  0  0  0  0  0  0  0  0
    5.5206   20.2740    2.7782 C   0  0  0  0  0  0  0  0  0  0  0  0
    6.6553   20.7940    2.3190 C   0  0  0  0  0  0  0  0  0  0  0  0
    6.7324   21.2867    0.9387 C   0  0  0  0  0  0  0  0  0  0  0  0
    4.1681   19.4895    4.6100 C   0  0  0  0  0  0  0  0  0  0  0  0
    3.5630   20.6270    5.3231 O   0  0  0  0  0  0  0  0  0  0  0  0
    3.5701   18.4775    4.5236 O   0  0  0  0  0  0  0  0  0  0  0  0
    3.2601   21.3921    4.6852 H   0  0  0  0  0  0  0  0  0  0  0  0
   12.4500   25.8506   -2.3652 C   0  0  0  0  0  0  0  0  0  0  0  0
   13.4798   26.6787   -2.7546 C   0  0  0  0  0  0  0  0  0  0  0  0
   13.3567   27.5477   -3.8129 C   0  0  0  0  0  0  0  0  0  0  0  0
   12.2169   27.5982   -4.4875 N   0  0  0  0  0  0  0  0  0  0  0  0
   11.1908   26.7693   -4.1138 C   0  0  0  0  0  0  0  0  0  0  0  0
   11.3038   25.9344   -3.0901 N   0  0  0  0  0  0  0  0  0  0  0  0
   17.2393   24.3060   -2.4259 C   0  0  0  0  0  0  0  0  0  0  0  0
   17.3051   27.0334   -2.9722 C   0  0  0  0  0  0  0  0  0  0  0  0
   16.6766   26.0954   -3.9645 C   0  0  0  0  0  0  0  0  0  0  0  0
   16.1840   26.5695   -5.1405 C   0  0  0  0  0  0  0  0  0  0  0  0
   15.4542   25.6896   -5.9720 C   0  0  0  0  0  0  0  0  0  0  0  0
   15.2572   24.3674   -5.5839 C   0  0  0  0  0  0  0  0  0  0  0  0
   15.7806   23.9686   -4.3993 N   0  0  0  0  0  0  0  0  0  0  0  0
   16.4761   24.8021   -3.5988 C   0  0  0  0  0  0  0  0  0  0  0  0
 37 38  1  0  0  0
 38 39  2  0  0  0
 39 40  1  0  0  0
 40 41  2  0  0  0
 41 42  1  0  0  0
 42 43  2  0  0  0
 43 36  1  0  0  0
 36  1  1  0  0  0
  1  2  1  0  0  0
  2  3  1  0  0  0
  3  4  1  0  0  0
  4  5  1  0  0  0
  5  6  1  0  0  0
  4  7  1  0  0  0
  7  8  1  0  0  0
  8  9  2  0  0  0
  8 10  1  0  0  0
 10 11  1  0  0  0
 11 12  2  0  0  0
 10 13  1  0  0  0
 13 14  2  0  0  0
 14 15  1  0  0  0
 15 16  2  0  0  0
 16 17  1  0  0  0
 17 18  2  0  0  0
 16 19  1  0  0  0
 19 20  2  0  0  0
 20 21  1  0  0  0
 21 22  2  0  0  0
 22 23  1  0  0  0
 23 24  2  0  0  0
 24 25  1  0  0  0
 22 26  1  0  0  0
 26 27  1  0  0  0
 26 28  2  0  0  0
  7 30  1  0  0  0
 30 31  2  0  0  0
 31 32  1  0  0  0
 32 33  2  0  0  0
 33 34  1  0  0  0
 34 35  2  0  0  0
 43 38  1  0  0  0
  6  1  1  0  0  0
 18 13  1  0  0  0
 24 19  1  0  0  0
 35 30  1  0  0  0
 11  4  1  0  0  0
 27 29  1  0  0  0
M  END
> <minimizedAffinity>
4.93921

> <CNNscore>
0.5180056095

> <CNNaffinity>
7.7225265503

> <CNN_VS>
4.0003118515

> <CNNaffinity_variance>
0.6632059216

$$$$
[H]OC(=O)c1c([H])c([H])c(-c2nc([H])c(N3C(=O)N(c4nc([H])nc([H])c4[H])C4(C3=O)C([H])([H])C([H])([H])N(C([H])([H])c3nc([H])c([H])c([H])c3C([H])([H])[H])C([H])([H])C4([H])[H])c([H])c2[H])c(C([H])([H])[H])c1[H]


 43 48  0  0  0  0  0  0  0  0999 V2000
   16.2265   23.7169   -3.3791 N   0  0  0  0  0  0  0  0  0  0  0  0
   16.2856   24.7821   -2.5262 C   0  0  0  0  0  0  0  0  0  0  0  0
   15.3898   24.7022   -1.3126 C   0  0  0  0  0  0  0  0  0  0  0  0
   14.0960   24.0818   -1.5808 C   0  0  0  0  0  0  0  0  0  0  0  0
   14.0005   23.1922   -2.8110 C   0  0  0  0  0  0  0  0  0  0  0  0
   15.3892   22.5996   -3.0244 C   0  0  0  0  0  0  0  0  0  0  0  0
   12.9553   24.9449   -1.5998 N   0  0  0  0  0  0  0  0  0  0  0  0
   11.9534   24.4475   -0.7521 C   0  0  0  0  0  0  0  0  0  0  0  0
   10.7411   24.8118   -0.5583 O   0  0  0  0  0  0  0  0  0  0  0  0
   12.4986   23.3103   -0.0123 N   0  0  0  0  0  0  0  0  0  0  0  0
   13.8134   23.1460   -0.4382 C   0  0  0  0  0  0  0  0  0  0  0  0
   14.6809   22.3505    0.0299 O   0  0  0  0  0  0  0  0  0  0  0  0
   11.7285   22.5473    0.9055 C   0  0  0  0  0  0  0  0  0  0  0  0
   10.6381   21.8892    0.3828 C   0  0  0  0  0  0  0  0  0  0  0  0
    9.7696   21.2674    1.2461 C   0  0  0  0  0  0  0  0  0  0  0  0
    9.9849   21.3085    2.5722 C   0  0  0  0  0  0  0  0  0  0  0  0
   11.0981   21.9736    3.0573 N   0  0  0  0  0  0  0  0  0  0  0  0
   11.9559   22.5851    2.2460 C   0  0  0  0  0  0  0  0  0  0  0  0
    9.0242   20.8317    3.5894 C   0  0  0  0  0  0  0  0  0  0  0  0
    7.7446   21.2151    3.6090 C   0  0  0  0  0  0  0  0  0  0  0  0
    6.8824   20.6903    4.5791 C   0  0  0  0  0  0  0  0  0  0  0  0
    7.4034   19.7920    5.4774 C   0  0  0  0  0  0  0  0  0  0  0  0
    8.7283   19.4117    5.4623 C   0  0  0  0  0  0  0  0  0  0  0  0
    9.5284   19.9221    4.5305 C   0  0  0  0  0  0  0  0  0  0  0  0
   10.9499   19.5582    4.5027 C   0  0  0  0  0  0  0  0  0  0  0  0
    6.5191   19.0122    6.3341 C   0  0  0  0  0  0  0  0  0  0  0  0
    5.2113   19.6564    6.5418 O   0  0  0  0  0  0  0  0  0  0  0  0
    6.7359   17.9690    6.8379 O   0  0  0  0  0  0  0  0  0  0  0  0
    4.6090   19.6369    5.6927 H   0  0  0  0  0  0  0  0  0  0  0  0
   12.7005   26.1610   -2.3386 C   0  0  0  0  0  0  0  0  0  0  0  0
   12.6069   27.3713   -1.6872 C   0  0  0  0  0  0  0  0  0  0  0  0
   12.3337   28.5407   -2.3565 C   0  0  0  0  0  0  0  0  0  0  0  0
   12.1540   28.5153   -3.6694 N   0  0  0  0  0  0  0  0  0  0  0  0
   12.2567   27.3168   -4.3272 C   0  0  0  0  0  0  0  0  0  0  0  0
   12.5140   26.1862   -3.6843 N   0  0  0  0  0  0  0  0  0  0  0  0
   16.4428   23.8222   -4.7576 C   0  0  0  0  0  0  0  0  0  0  0  0
   15.3521   24.3356   -7.2653 C   0  0  0  0  0  0  0  0  0  0  0  0
   15.6218   25.4794   -6.3278 C   0  0  0  0  0  0  0  0  0  0  0  0
   15.2940   26.7507   -6.6839 C   0  0  0  0  0  0  0  0  0  0  0  0
   15.7118   27.8149   -5.8527 C   0  0  0  0  0  0  0  0  0  0  0  0
   16.4378   27.5507   -4.6947 C   0  0  0  0  0  0  0  0  0  0  0  0
   16.7238   26.2580   -4.4058 N   0  0  0  0  0  0  0  0  0  0  0  0
   16.3312   25.2367   -5.1945 C   0  0  0  0  0  0  0  0  0  0  0  0
 37 38  1  0  0  0
 38 39  2  0  0  0
 39 40  1  0  0  0
 40 41  2  0  0  0
 41 42  1  0  0  0
 42 43  2  0  0  0
 43 36  1  0  0  0
 36  1  1  0  0  0
  1  2  1  0  0  0
  2  3  1  0  0  0
  3  4  1  0  0  0
  4  5  1  0  0  0
  5  6  1  0  0  0
  4  7  1  0  0  0
  7  8  1  0  0  0
  8  9  2  0  0  0
  8 10  1  0  0  0
 10 11  1  0  0  0
 11 12  2  0  0  0
 10 13  1  0  0  0
 13 14  2  0  0  0
 14 15  1  0  0  0
 15 16  2  0  0  0
 16 17  1  0  0  0
 17 18  2  0  0  0
 16 19  1  0  0  0
 19 20  2  0  0  0
 20 21  1  0  0  0
 21 22  2  0  0  0
 22 23  1  0  0  0
 23 24  2  0  0  0
 24 25  1  0  0  0
 22 26  1  0  0  0
 26 27  1  0  0  0
 26 28  2  0  0  0
  7 30  1  0  0  0
 30 31  2  0  0  0
 31 32  1  0  0  0
 32 33  2  0  0  0
 33 34  1  0  0  0
 34 35  2  0  0  0
 43 38  1  0  0  0
  6  1  1  0  0  0
 18 13  1  0  0  0
 24 19  1  0  0  0
 35 30  1  0  0  0
 11  4  1  0  0  0
 27 29  1  0  0  0
M  END
> <minimizedAffinity>
8.84934

> <CNNscore>
0.5143877864

> <CNNaffinity>
7.6529798508

> <CNN_VS>
3.9365992546

> <CNNaffinity_variance>
0.6257670522

$$$$
[H]OC(=O)c1c([H])c([H])c(-c2nc([H])c(N3C(=O)N(c4nc([H])nc([H])c4[H])C4(C3=O)C([H])([H])C([H])([H])N(C([H])([H])c3nc([H])c([H])c([H])c3C([H])([H])[H])C([H])([H])C4([H])[H])c([H])c2[H])c(C([H])([H])[H])c1[H]


 43 48  0  0  0  0  0  0  0  0999 V2000
   16.1303   23.5795   -4.3522 N   0  0  0  0  0  0  0  0  0  0  0  0
   16.3898   24.5721   -3.4506 C   0  0  0  0  0  0  0  0  0  0  0  0
   15.7117   24.4336   -2.1081 C   0  0  0  0  0  0  0  0  0  0  0  0
   14.3606   23.8873   -2.1891 C   0  0  0  0  0  0  0  0  0  0  0  0
   14.0099   23.1004   -3.4427 C   0  0  0  0  0  0  0  0  0  0  0  0
   15.3089   22.4719   -3.9357 C   0  0  0  0  0  0  0  0  0  0  0  0
   13.2800   24.7936   -1.9488 N   0  0  0  0  0  0  0  0  0  0  0  0
   12.4132   24.2716   -0.9762 C   0  0  0  0  0  0  0  0  0  0  0  0
   11.2726   24.6672   -0.5491 O   0  0  0  0  0  0  0  0  0  0  0  0
   13.0167   23.0599   -0.4237 N   0  0  0  0  0  0  0  0  0  0  0  0
   14.2289   22.8775   -1.0827 C   0  0  0  0  0  0  0  0  0  0  0  0
   15.1210   22.0146   -0.8295 O   0  0  0  0  0  0  0  0  0  0  0  0
   12.3761   22.2589    0.5589 C   0  0  0  0  0  0  0  0  0  0  0  0
   11.2334   21.6043    0.1577 C   0  0  0  0  0  0  0  0  0  0  0  0
   10.4870   20.9450    1.1034 C   0  0  0  0  0  0  0  0  0  0  0  0
   10.8692   20.9467    2.3920 C   0  0  0  0  0  0  0  0  0  0  0  0
   12.0297   21.6098    2.7533 N   0  0  0  0  0  0  0  0  0  0  0  0
   12.7721   22.2571    1.8602 C   0  0  0  0  0  0  0  0  0  0  0  0
   10.0499   20.4263    3.5067 C   0  0  0  0  0  0  0  0  0  0  0  0
    8.8397   20.9103    3.7999 C   0  0  0  0  0  0  0  0  0  0  0  0
    8.1038   20.3401    4.8456 C   0  0  0  0  0  0  0  0  0  0  0  0
    8.6719   19.2938    5.5294 C   0  0  0  0  0  0  0  0  0  0  0  0
    9.9275   18.8084    5.2328 C   0  0  0  0  0  0  0  0  0  0  0  0
   10.6075   19.3646    4.2343 C   0  0  0  0  0  0  0  0  0  0  0  0
   11.9573   18.8889    3.9095 C   0  0  0  0  0  0  0  0  0  0  0  0
    7.8683   18.4880    6.4399 C   0  0  0  0  0  0  0  0  0  0  0  0
    6.5653   19.1016    6.7469 O   0  0  0  0  0  0  0  0  0  0  0  0
    8.1430   17.4458    6.9170 O   0  0  0  0  0  0  0  0  0  0  0  0
    5.9041   19.0755    5.9429 H   0  0  0  0  0  0  0  0  0  0  0  0
   12.9665   26.0723   -2.5454 C   0  0  0  0  0  0  0  0  0  0  0  0
   12.3801   26.1411   -3.7902 C   0  0  0  0  0  0  0  0  0  0  0  0
   12.0988   27.3414   -4.3987 C   0  0  0  0  0  0  0  0  0  0  0  0
   12.3954   28.4741   -3.7775 N   0  0  0  0  0  0  0  0  0  0  0  0
   12.9687   28.4148   -2.5335 C   0  0  0  0  0  0  0  0  0  0  0  0
   13.2469   27.2591   -1.9462 N   0  0  0  0  0  0  0  0  0  0  0  0
   16.1130   23.7829   -5.7367 C   0  0  0  0  0  0  0  0  0  0  0  0
   16.5398   24.5841   -8.3668 C   0  0  0  0  0  0  0  0  0  0  0  0
   16.0436   25.5843   -7.3602 C   0  0  0  0  0  0  0  0  0  0  0  0
   15.7623   26.8595   -7.7409 C   0  0  0  0  0  0  0  0  0  0  0  0
   15.4591   27.8124   -6.7419 C   0  0  0  0  0  0  0  0  0  0  0  0
   15.4472   27.4367   -5.4016 C   0  0  0  0  0  0  0  0  0  0  0  0
   15.7356   26.1471   -5.1012 N   0  0  0  0  0  0  0  0  0  0  0  0
   16.0284   25.2321   -6.0479 C   0  0  0  0  0  0  0  0  0  0  0  0
 37 38  1  0  0  0
 38 39  2  0  0  0
 39 40  1  0  0  0
 40 41  2  0  0  0
 41 42  1  0  0  0
 42 43  2  0  0  0
 43 36  1  0  0  0
 36  1  1  0  0  0
  1  2  1  0  0  0
  2  3  1  0  0  0
  3  4  1  0  0  0
  4  5  1  0  0  0
  5  6  1  0  0  0
  4  7  1  0  0  0
  7  8  1  0  0  0
  8  9  2  0  0  0
  8 10  1  0  0  0
 10 11  1  0  0  0
 11 12  2  0  0  0
 10 13  1  0  0  0
 13 14  2  0  0  0
 14 15  1  0  0  0
 15 16  2  0  0  0
 16 17  1  0  0  0
 17 18  2  0  0  0
 16 19  1  0  0  0
 19 20  2  0  0  0
 20 21  1  0  0  0
 21 22  2  0  0  0
 22 23  1  0  0  0
 23 24  2  0  0  0
 24 25  1  0  0  0
 22 26  1  0  0  0
 26 27  1  0  0  0
 26 28  2  0  0  0
  7 30  1  0  0  0
 30 31  2  0  0  0
 31 32  1  0  0  0
 32 33  2  0  0  0
 33 34  1  0  0  0
 34 35  2  0  0  0
 43 38  1  0  0  0
  6  1  1  0  0  0
 18 13  1  0  0  0
 24 19  1  0  0  0
 35 30  1  0  0  0
 11  4  1  0  0  0
 27 29  1  0  0  0
M  END
> <minimizedAffinity>
10.64866

> <CNNscore>
0.5087051392

> <CNNaffinity>
7.6396608353

> <CNN_VS>
3.8863346577

> <CNNaffinity_variance>
0.4916804433

$$$$
[H]OC(=O)c1c([H])c([H])c(-c2nc([H])c(N3C(=O)N(c4nc([H])nc([H])c4[H])C4(C3=O)C([H])([H])C([H])([H])N(C([H])([H])c3nc([H])c([H])c([H])c3C([H])([H])[H])C([H])([H])C4([H])[H])c([H])c2[H])c(C([H])([H])[H])c1[H]


 43 48  0  0  0  0  0  0  0  0999 V2000
   16.0231   24.3441   -2.6865 N   0  0  0  0  0  0  0  0  0  0  0  0
   16.3822   23.8727   -1.4559 C   0  0  0  0  0  0  0  0  0  0  0  0
   15.3028   23.1436   -0.6912 C   0  0  0  0  0  0  0  0  0  0  0  0
   13.9721   23.7167   -0.8683 C   0  0  0  0  0  0  0  0  0  0  0  0
   13.7531   24.5817   -2.1003 C   0  0  0  0  0  0  0  0  0  0  0  0
   14.6989   24.0527   -3.1730 C   0  0  0  0  0  0  0  0  0  0  0  0
   13.4192   24.4265    0.2441 N   0  0  0  0  0  0  0  0  0  0  0  0
   12.1360   23.9425    0.5420 C   0  0  0  0  0  0  0  0  0  0  0  0
   11.2358   24.3548    1.3541 O   0  0  0  0  0  0  0  0  0  0  0  0
   11.8861   22.7614   -0.2828 N   0  0  0  0  0  0  0  0  0  0  0  0
   13.0222   22.5674   -1.0629 C   0  0  0  0  0  0  0  0  0  0  0  0
   13.2713   21.5920   -1.8317 O   0  0  0  0  0  0  0  0  0  0  0  0
   10.6568   22.0500   -0.2578 C   0  0  0  0  0  0  0  0  0  0  0  0
   10.7392   20.7056    0.0264 C   0  0  0  0  0  0  0  0  0  0  0  0
    9.6063   19.9383   -0.0907 C   0  0  0  0  0  0  0  0  0  0  0  0
    8.4463   20.4953   -0.4789 C   0  0  0  0  0  0  0  0  0  0  0  0
    8.4033   21.8529   -0.7472 N   0  0  0  0  0  0  0  0  0  0  0  0
    9.4838   22.6208   -0.6431 C   0  0  0  0  0  0  0  0  0  0  0  0
    7.2231   19.7337   -0.8083 C   0  0  0  0  0  0  0  0  0  0  0  0
    6.0168   20.3030   -0.8833 C   0  0  0  0  0  0  0  0  0  0  0  0
    4.9085   19.5258   -1.2405 C   0  0  0  0  0  0  0  0  0  0  0  0
    5.1199   18.1943   -1.5008 C   0  0  0  0  0  0  0  0  0  0  0  0
    6.3642   17.6086   -1.4067 C   0  0  0  0  0  0  0  0  0  0  0  0
    7.4027   18.3669   -1.0672 C   0  0  0  0  0  0  0  0  0  0  0  0
    8.7363   17.7693   -0.9328 C   0  0  0  0  0  0  0  0  0  0  0  0
    4.0768   17.3936   -2.1292 C   0  0  0  0  0  0  0  0  0  0  0  0
    3.5849   17.9817   -3.3864 O   0  0  0  0  0  0  0  0  0  0  0  0
    3.6243   16.3724   -1.7531 O   0  0  0  0  0  0  0  0  0  0  0  0
    4.2752   17.9165   -4.1632 H   0  0  0  0  0  0  0  0  0  0  0  0
   13.9529   25.5138    1.0331 C   0  0  0  0  0  0  0  0  0  0  0  0
   13.1284   26.5165    1.4945 C   0  0  0  0  0  0  0  0  0  0  0  0
   13.6097   27.5807    2.2198 C   0  0  0  0  0  0  0  0  0  0  0  0
   14.9051   27.6543    2.4905 N   0  0  0  0  0  0  0  0  0  0  0  0
   15.7310   26.6548    2.0448 C   0  0  0  0  0  0  0  0  0  0  0  0
   15.2713   25.6302    1.3400 N   0  0  0  0  0  0  0  0  0  0  0  0
   16.5764   25.4937   -3.2615 C   0  0  0  0  0  0  0  0  0  0  0  0
   16.2773   24.4084   -5.8059 C   0  0  0  0  0  0  0  0  0  0  0  0
   15.3283   25.4778   -5.3418 C   0  0  0  0  0  0  0  0  0  0  0  0
   14.3039   25.8806   -6.1410 C   0  0  0  0  0  0  0  0  0  0  0  0
   13.5355   26.9987   -5.7440 C   0  0  0  0  0  0  0  0  0  0  0  0
   13.8301   27.6594   -4.5548 C   0  0  0  0  0  0  0  0  0  0  0  0
   14.8644   27.1974   -3.8111 N   0  0  0  0  0  0  0  0  0  0  0  0
   15.6042   26.1328   -4.1836 C   0  0  0  0  0  0  0  0  0  0  0  0
 37 38  1  0  0  0
 38 39  2  0  0  0
 39 40  1  0  0  0
 40 41  2  0  0  0
 41 42  1  0  0  0
 42 43  2  0  0  0
 43 36  1  0  0  0
 36  1  1  0  0  0
  1  2  1  0  0  0
  2  3  1  0  0  0
  3  4  1  0  0  0
  4  5  1  0  0  0
  5  6  1  0  0  0
  4  7  1  0  0  0
  7  8  1  0  0  0
  8  9  2  0  0  0
  8 10  1  0  0  0
 10 11  1  0  0  0
 11 12  2  0  0  0
 10 13  1  0  0  0
 13 14  2  0  0  0
 14 15  1  0  0  0
 15 16  2  0  0  0
 16 17  1  0  0  0
 17 18  2  0  0  0
 16 19  1  0  0  0
 19 20  2  0  0  0
 20 21  1  0  0  0
 21 22  2  0  0  0
 22 23  1  0  0  0
 23 24  2  0  0  0
 24 25  1  0  0  0
 22 26  1  0  0  0
 26 27  1  0  0  0
 26 28  2  0  0  0
  7 30  1  0  0  0
 30 31  2  0  0  0
 31 32  1  0  0  0
 32 33  2  0  0  0
 33 34  1  0  0  0
 34 35  2  0  0  0
 43 38  1  0  0  0
  6  1  1  0  0  0
 18 13  1  0  0  0
 24 19  1  0  0  0
 35 30  1  0  0  0
 11  4  1  0  0  0
 27 29  1  0  0  0
M  END
> <minimizedAffinity>
6.52777

> <CNNscore>
0.5023567677

> <CNNaffinity>
7.7795472145

> <CNN_VS>
3.9081082344

> <CNNaffinity_variance>
0.8853570819

$$$$
[H]OC(=O)c1c([H])c([H])c(-c2nc([H])c(N3C(=O)N(c4nc([H])nc([H])c4[H])C4(C3=O)C([H])([H])C([H])([H])N(C([H])([H])c3nc([H])c([H])c([H])c3C([H])([H])[H])C([H])([H])C4([H])[H])c([H])c2[H])c(C([H])([H])[H])c1[H]


 43 48  0  0  0  0  0  0  0  0999 V2000
   16.4280   25.2027   -0.5375 N   0  0  0  0  0  0  0  0  0  0  0  0
   15.6969   26.3496   -0.4129 C   0  0  0  0  0  0  0  0  0  0  0  0
   14.2496   26.1665   -0.0212 C   0  0  0  0  0  0  0  0  0  0  0  0
   13.6255   24.9916   -0.6218 C   0  0  0  0  0  0  0  0  0  0  0  0
   14.5556   23.8917   -1.1107 C   0  0  0  0  0  0  0  0  0  0  0  0
   15.7945   23.9477   -0.2234 C   0  0  0  0  0  0  0  0  0  0  0  0
   12.6719   25.2253   -1.6623 N   0  0  0  0  0  0  0  0  0  0  0  0
   11.4737   24.5483   -1.3866 C   0  0  0  0  0  0  0  0  0  0  0  0
   10.4149   24.3691   -2.0840 O   0  0  0  0  0  0  0  0  0  0  0  0
   11.5638   23.9818   -0.0417 N   0  0  0  0  0  0  0  0  0  0  0  0
   12.8170   24.3251    0.4567 C   0  0  0  0  0  0  0  0  0  0  0  0
   13.2589   24.1336    1.6283 O   0  0  0  0  0  0  0  0  0  0  0  0
   10.5307   23.1949    0.5338 C   0  0  0  0  0  0  0  0  0  0  0  0
   10.9355   22.0887    1.2462 C   0  0  0  0  0  0  0  0  0  0  0  0
    9.9808   21.2067    1.6896 C   0  0  0  0  0  0  0  0  0  0  0  0
    8.6808   21.4245    1.4262 C   0  0  0  0  0  0  0  0  0  0  0  0
    8.3141   22.5537    0.7139 N   0  0  0  0  0  0  0  0  0  0  0  0
    9.2159   23.4247    0.2714 C   0  0  0  0  0  0  0  0  0  0  0  0
    7.5996   20.4540    1.6982 C   0  0  0  0  0  0  0  0  0  0  0  0
    7.0893   20.2656    2.9184 C   0  0  0  0  0  0  0  0  0  0  0  0
    6.0380   19.3578    3.0935 C   0  0  0  0  0  0  0  0  0  0  0  0
    5.5755   18.6950    1.9835 C   0  0  0  0  0  0  0  0  0  0  0  0
    6.1162   18.8817    0.7293 C   0  0  0  0  0  0  0  0  0  0  0  0
    7.1131   19.7503    0.5867 C   0  0  0  0  0  0  0  0  0  0  0  0
    7.7284   19.9532   -0.7301 C   0  0  0  0  0  0  0  0  0  0  0  0
    4.3262   17.9467    2.0416 C   0  0  0  0  0  0  0  0  0  0  0  0
    4.0417   17.4139    3.3846 O   0  0  0  0  0  0  0  0  0  0  0  0
    3.5606   17.7492    1.1675 O   0  0  0  0  0  0  0  0  0  0  0  0
    3.7744   18.1534    4.0672 H   0  0  0  0  0  0  0  0  0  0  0  0
   12.7731   25.9895   -2.8851 C   0  0  0  0  0  0  0  0  0  0  0  0
   11.9809   27.0984   -3.0873 C   0  0  0  0  0  0  0  0  0  0  0  0
   12.0301   27.8275   -4.2518 C   0  0  0  0  0  0  0  0  0  0  0  0
   12.8625   27.4624   -5.2165 N   0  0  0  0  0  0  0  0  0  0  0  0
   13.6627   26.3668   -5.0190 C   0  0  0  0  0  0  0  0  0  0  0  0
   13.6137   25.6578   -3.8998 N   0  0  0  0  0  0  0  0  0  0  0  0
   17.5004   25.0666   -1.4263 C   0  0  0  0  0  0  0  0  0  0  0  0
   19.9590   26.3255   -1.7607 C   0  0  0  0  0  0  0  0  0  0  0  0
   18.8046   26.7109   -2.6431 C   0  0  0  0  0  0  0  0  0  0  0  0
   18.9715   27.6353   -3.6271 C   0  0  0  0  0  0  0  0  0  0  0  0
   17.8310   28.0936   -4.3251 C   0  0  0  0  0  0  0  0  0  0  0  0
   16.5713   27.5958   -4.0042 C   0  0  0  0  0  0  0  0  0  0  0  0
   16.4859   26.6752   -3.0134 N   0  0  0  0  0  0  0  0  0  0  0  0
   17.5686   26.2342   -2.3407 C   0  0  0  0  0  0  0  0  0  0  0  0
 37 38  1  0  0  0
 38 39  2  0  0  0
 39 40  1  0  0  0
 40 41  2  0  0  0
 41 42  1  0  0  0
 42 43  2  0  0  0
 43 36  1  0  0  0
 36  1  1  0  0  0
  1  2  1  0  0  0
  2  3  1  0  0  0
  3  4  1  0  0  0
  4  5  1  0  0  0
  5  6  1  0  0  0
  4  7  1  0  0  0
  7  8  1  0  0  0
  8  9  2  0  0  0
  8 10  1  0  0  0
 10 11  1  0  0  0
 11 12  2  0  0  0
 10 13  1  0  0  0
 13 14  2  0  0  0
 14 15  1  0  0  0
 15 16  2  0  0  0
 16 17  1  0  0  0
 17 18  2  0  0  0
 16 19  1  0  0  0
 19 20  2  0  0  0
 20 21  1  0  0  0
 21 22  2  0  0  0
 22 23  1  0  0  0
 23 24  2  0  0  0
 24 25  1  0  0  0
 22 26  1  0  0  0
 26 27  1  0  0  0
 26 28  2  0  0  0
  7 30  1  0  0  0
 30 31  2  0  0  0
 31 32  1  0  0  0
 32 33  2  0  0  0
 33 34  1  0  0  0
 34 35  2  0  0  0
 43 38  1  0  0  0
  6  1  1  0  0  0
 18 13  1  0  0  0
 24 19  1  0  0  0
 35 30  1  0  0  0
 11  4  1  0  0  0
 27 29  1  0  0  0
M  END
> <minimizedAffinity>
15.10388

> <CNNscore>
0.4981832206

> <CNNaffinity>
7.5883550644

> <CNN_VS>
3.7803912163

> <CNNaffinity_variance>
0.6291114092

$$$$
[H]OC(=O)c1c([H])c([H])c(-c2nc([H])c(N3C(=O)N(c4nc([H])nc([H])c4[H])C4(C3=O)C([H])([H])C([H])([H])N(C([H])([H])c3nc([H])c([H])c([H])c3C([H])([H])[H])C([H])([H])C4([H])[H])c([H])c2[H])c(C([H])([H])[H])c1[H]


 43 48  0  0  0  0  0  0  0  0999 V2000
   14.8129   23.8088   -4.3949 N   0  0  0  0  0  0  0  0  0  0  0  0
   15.2812   22.7147   -3.7248 C   0  0  0  0  0  0  0  0  0  0  0  0
   14.6385   22.4399   -2.3858 C   0  0  0  0  0  0  0  0  0  0  0  0
   14.3193   23.6482   -1.6315 C   0  0  0  0  0  0  0  0  0  0  0  0
   14.1977   24.9418   -2.4225 C   0  0  0  0  0  0  0  0  0  0  0  0
   13.7221   24.5518   -3.8178 C   0  0  0  0  0  0  0  0  0  0  0  0
   15.1319   23.9321   -0.4888 N   0  0  0  0  0  0  0  0  0  0  0  0
   14.3265   24.1556    0.6387 C   0  0  0  0  0  0  0  0  0  0  0  0
   14.6069   24.5595    1.8211 O   0  0  0  0  0  0  0  0  0  0  0  0
   12.9420   23.8469    0.2843 N   0  0  0  0  0  0  0  0  0  0  0  0
   12.9464   23.4522   -1.0503 C   0  0  0  0  0  0  0  0  0  0  0  0
   11.9758   22.9894   -1.7198 O   0  0  0  0  0  0  0  0  0  0  0  0
   11.8602   24.0081    1.1907 C   0  0  0  0  0  0  0  0  0  0  0  0
   11.6549   22.9776    2.0801 C   0  0  0  0  0  0  0  0  0  0  0  0
   10.5326   23.0058    2.8712 C   0  0  0  0  0  0  0  0  0  0  0  0
    9.6564   24.0200    2.7704 C   0  0  0  0  0  0  0  0  0  0  0  0
    9.9038   25.0417    1.8694 N   0  0  0  0  0  0  0  0  0  0  0  0
   10.9811   25.0411    1.0902 C   0  0  0  0  0  0  0  0  0  0  0  0
    8.3387   24.0547    3.4392 C   0  0  0  0  0  0  0  0  0  0  0  0
    7.5242   22.9967    3.4840 C   0  0  0  0  0  0  0  0  0  0  0  0
    6.3079   23.0915    4.1708 C   0  0  0  0  0  0  0  0  0  0  0  0
    6.0074   24.2874    4.7748 C   0  0  0  0  0  0  0  0  0  0  0  0
    6.8445   25.3809    4.7122 C   0  0  0  0  0  0  0  0  0  0  0  0
    7.9954   25.2670    4.0556 C   0  0  0  0  0  0  0  0  0  0  0  0
    8.8973   26.4198    3.9478 C   0  0  0  0  0  0  0  0  0  0  0  0
    4.9008   24.3764    5.7190 C   0  0  0  0  0  0  0  0  0  0  0  0
    4.1998   23.0941    5.8997 O   0  0  0  0  0  0  0  0  0  0  0  0
    4.5423   25.3214    6.3253 O   0  0  0  0  0  0  0  0  0  0  0  0
    4.7600   22.3960    6.4317 H   0  0  0  0  0  0  0  0  0  0  0  0
   16.5669   24.0370   -0.3501 C   0  0  0  0  0  0  0  0  0  0  0  0
   17.1622   23.9278    0.8876 C   0  0  0  0  0  0  0  0  0  0  0  0
   18.5205   24.0549    1.0574 C   0  0  0  0  0  0  0  0  0  0  0  0
   19.2915   24.2886    0.0049 N   0  0  0  0  0  0  0  0  0  0  0  0
   18.7085   24.3873   -1.2321 C   0  0  0  0  0  0  0  0  0  0  0  0
   17.3984   24.2713   -1.3989 N   0  0  0  0  0  0  0  0  0  0  0  0
   15.6009   24.5768   -5.2595 C   0  0  0  0  0  0  0  0  0  0  0  0
   15.1843   26.9949   -6.5713 C   0  0  0  0  0  0  0  0  0  0  0  0
   15.6625   26.9994   -5.1461 C   0  0  0  0  0  0  0  0  0  0  0  0
   15.8474   28.1754   -4.4878 C   0  0  0  0  0  0  0  0  0  0  0  0
   16.4538   28.1479   -3.2112 C   0  0  0  0  0  0  0  0  0  0  0  0
   16.8429   26.9345   -2.6510 C   0  0  0  0  0  0  0  0  0  0  0  0
   16.6235   25.8051   -3.3670 N   0  0  0  0  0  0  0  0  0  0  0  0
   16.0477   25.8225   -4.5867 C   0  0  0  0  0  0  0  0  0  0  0  0
 37 38  1  0  0  0
 38 39  2  0  0  0
 39 40  1  0  0  0
 40 41  2  0  0  0
 41 42  1  0  0  0
 42 43  2  0  0  0
 43 36  1  0  0  0
 36  1  1  0  0  0
  1  2  1  0  0  0
  2  3  1  0  0  0
  3  4  1  0  0  0
  4  5  1  0  0  0
  5  6  1  0  0  0
  4  7  1  0  0  0
  7  8  1  0  0  0
  8  9  2  0  0  0
  8 10  1  0  0  0
 10 11  1  0  0  0
 11 12  2  0  0  0
 10 13  1  0  0  0
 13 14  2  0  0  0
 14 15  1  0  0  0
 15 16  2  0  0  0
 16 17  1  0  0  0
 17 18  2  0  0  0
 16 19  1  0  0  0
 19 20  2  0  0  0
 20 21  1  0  0  0
 21 22  2  0  0  0
 22 23  1  0  0  0
 23 24  2  0  0  0
 24 25  1  0  0  0
 22 26  1  0  0  0
 26 27  1  0  0  0
 26 28  2  0  0  0
  7 30  1  0  0  0
 30 31  2  0  0  0
 31 32  1  0  0  0
 32 33  2  0  0  0
 33 34  1  0  0  0
 34 35  2  0  0  0
 43 38  1  0  0  0
  6  1  1  0  0  0
 18 13  1  0  0  0
 24 19  1  0  0  0
 35 30  1  0  0  0
 11  4  1  0  0  0
 27 29  1  0  0  0
M  END
> <minimizedAffinity>
2.40622

> <CNNscore>
0.4938617051

> <CNNaffinity>
7.9028625488

> <CNN_VS>
3.9029211998

> <CNNaffinity_variance>
0.3468778729

$$$$
[H]OC(=O)c1c([H])c([H])c(-c2nc([H])c(N3C(=O)N(c4nc([H])nc([H])c4[H])C4(C3=O)C([H])([H])C([H])([H])N(C([H])([H])c3nc([H])c([H])c([H])c3C([H])([H])[H])C([H])([H])C4([H])[H])c([H])c2[H])c(C([H])([H])[H])c1[H]


 43 48  0  0  0  0  0  0  0  0999 V2000
   15.9821   25.3356   -5.6433 N   0  0  0  0  0  0  0  0  0  0  0  0
   16.3296   26.1893   -4.6353 C   0  0  0  0  0  0  0  0  0  0  0  0
   15.7857   25.8473   -3.2683 C   0  0  0  0  0  0  0  0  0  0  0  0
   14.4325   25.3009   -3.2973 C   0  0  0  0  0  0  0  0  0  0  0  0
   13.9601   24.7008   -4.6129 C   0  0  0  0  0  0  0  0  0  0  0  0
   15.2040   24.1683   -5.3161 C   0  0  0  0  0  0  0  0  0  0  0  0
   13.3816   26.1479   -2.8233 N   0  0  0  0  0  0  0  0  0  0  0  0
   12.6134   25.4782   -1.8584 C   0  0  0  0  0  0  0  0  0  0  0  0
   11.5204   25.7920   -1.2695 O   0  0  0  0  0  0  0  0  0  0  0  0
   13.2667   24.2068   -1.5506 N   0  0  0  0  0  0  0  0  0  0  0  0
   14.4085   24.1387   -2.3434 C   0  0  0  0  0  0  0  0  0  0  0  0
   15.3200   23.2599   -2.3071 O   0  0  0  0  0  0  0  0  0  0  0  0
   12.7242   23.2625   -0.6387 C   0  0  0  0  0  0  0  0  0  0  0  0
   11.3531   23.1392   -0.6365 C   0  0  0  0  0  0  0  0  0  0  0  0
   10.7645   22.3608    0.3297 C   0  0  0  0  0  0  0  0  0  0  0  0
   11.5183   21.7388    1.2525 C   0  0  0  0  0  0  0  0  0  0  0  0
   12.8948   21.8814    1.2107 N   0  0  0  0  0  0  0  0  0  0  0  0
   13.4926   22.6288    0.2877 C   0  0  0  0  0  0  0  0  0  0  0  0
   10.9787   21.0314    2.4328 C   0  0  0  0  0  0  0  0  0  0  0  0
   11.2673   19.7553    2.7036 C   0  0  0  0  0  0  0  0  0  0  0  0
   10.7517   19.1627    3.8624 C   0  0  0  0  0  0  0  0  0  0  0  0
    9.9618   19.9354    4.6773 C   0  0  0  0  0  0  0  0  0  0  0  0
    9.6544   21.2471    4.3851 C   0  0  0  0  0  0  0  0  0  0  0  0
   10.1568   21.7895    3.2796 C   0  0  0  0  0  0  0  0  0  0  0  0
    9.8278   23.1753    2.9260 C   0  0  0  0  0  0  0  0  0  0  0  0
    9.6149   19.4753    6.0160 C   0  0  0  0  0  0  0  0  0  0  0  0
    9.8244   18.0286    6.1946 O   0  0  0  0  0  0  0  0  0  0  0  0
    9.2163   20.1174    6.9203 O   0  0  0  0  0  0  0  0  0  0  0  0
   10.8311   17.7650    6.2306 H   0  0  0  0  0  0  0  0  0  0  0  0
   13.0127   27.4959   -3.1927 C   0  0  0  0  0  0  0  0  0  0  0  0
   11.7597   27.7673   -3.6970 C   0  0  0  0  0  0  0  0  0  0  0  0
   11.3888   29.0323   -4.0876 C   0  0  0  0  0  0  0  0  0  0  0  0
   12.2550   30.0297   -3.9792 N   0  0  0  0  0  0  0  0  0  0  0  0
   13.5004   29.7705   -3.4677 C   0  0  0  0  0  0  0  0  0  0  0  0
   13.8635   28.5508   -3.0957 N   0  0  0  0  0  0  0  0  0  0  0  0
   15.8298   25.7388   -6.9747 C   0  0  0  0  0  0  0  0  0  0  0  0
   17.2773   26.5828   -9.1959 C   0  0  0  0  0  0  0  0  0  0  0  0
   16.6447   27.6050   -8.2933 C   0  0  0  0  0  0  0  0  0  0  0  0
   16.7404   28.9304   -8.5840 C   0  0  0  0  0  0  0  0  0  0  0  0
   16.2799   29.8670   -7.6307 C   0  0  0  0  0  0  0  0  0  0  0  0
   15.7374   29.4262   -6.4270 C   0  0  0  0  0  0  0  0  0  0  0  0
   15.6736   28.0899   -6.2108 N   0  0  0  0  0  0  0  0  0  0  0  0
   16.1129   27.1895   -7.1139 C   0  0  0  0  0  0  0  0  0  0  0  0
 37 38  1  0  0  0
 38 39  2  0  0  0
 39 40  1  0  0  0
 40 41  2  0  0  0
 41 42  1  0  0  0
 42 43  2  0  0  0
 43 36  1  0  0  0
 36  1  1  0  0  0
  1  2  1  0  0  0
  2  3  1  0  0  0
  3  4  1  0  0  0
  4  5  1  0  0  0
  5  6  1  0  0  0
  4  7  1  0  0  0
  7  8  1  0  0  0
  8  9  2  0  0  0
  8 10  1  0  0  0
 10 11  1  0  0  0
 11 12  2  0  0  0
 10 13  1  0  0  0
 13 14  2  0  0  0
 14 15  1  0  0  0
 15 16  2  0  0  0
 16 17  1  0  0  0
 17 18  2  0  0  0
 16 19  1  0  0  0
 19 20  2  0  0  0
 20 21  1  0  0  0
 21 22  2  0  0  0
 22 23  1  0  0  0
 23 24  2  0  0  0
 24 25  1  0  0  0
 22 26  1  0  0  0
 26 27  1  0  0  0
 26 28  2  0  0  0
  7 30  1  0  0  0
 30 31  2  0  0  0
 31 32  1  0  0  0
 32 33  2  0  0  0
 33 34  1  0  0  0
 34 35  2  0  0  0
 43 38  1  0  0  0
  6  1  1  0  0  0
 18 13  1  0  0  0
 24 19  1  0  0  0
 35 30  1  0  0  0
 11  4  1  0  0  0
 27 29  1  0  0  0
M  END
> <minimizedAffinity>
27.37779

> <CNNscore>
0.4884534776

> <CNNaffinity>
7.4766111374

> <CNN_VS>
3.6519768238

> <CNNaffinity_variance>
0.4574676454

$$$$
[H]OC(=O)c1c([H])c([H])c(-c2nc([H])c(N3C(=O)N(c4nc([H])nc([H])c4[H])C4(C3=O)C([H])([H])C([H])([H])N(C([H])([H])c3nc([H])c([H])c([H])c3C([H])([H])[H])C([H])([H])C4([H])[H])c([H])c2[H])c(C([H])([H])[H])c1[H]


 43 48  0  0  0  0  0  0  0  0999 V2000
   17.0240   23.2220   -3.5486 N   0  0  0  0  0  0  0  0  0  0  0  0
   17.4982   24.2055   -2.7279 C   0  0  0  0  0  0  0  0  0  0  0  0
   16.5563   24.6634   -1.6395 C   0  0  0  0  0  0  0  0  0  0  0  0
   15.1575   24.7022   -2.0549 C   0  0  0  0  0  0  0  0  0  0  0  0
   14.7731   23.8567   -3.2596 C   0  0  0  0  0  0  0  0  0  0  0  0
   15.7246   22.6651   -3.2722 C   0  0  0  0  0  0  0  0  0  0  0  0
   14.5749   25.9944   -2.2485 N   0  0  0  0  0  0  0  0  0  0  0  0
   13.3778   26.1029   -1.5238 C   0  0  0  0  0  0  0  0  0  0  0  0
   12.4736   27.0093   -1.5006 O   0  0  0  0  0  0  0  0  0  0  0  0
   13.2375   24.9135   -0.6851 N   0  0  0  0  0  0  0  0  0  0  0  0
   14.3500   24.1141   -0.9310 C   0  0  0  0  0  0  0  0  0  0  0  0
   14.6813   23.0494   -0.3300 O   0  0  0  0  0  0  0  0  0  0  0  0
   12.1092   24.6861    0.1472 C   0  0  0  0  0  0  0  0  0  0  0  0
   11.4096   25.8047    0.5402 C   0  0  0  0  0  0  0  0  0  0  0  0
   10.4085   25.6612    1.4693 C   0  0  0  0  0  0  0  0  0  0  0  0
   10.1267   24.4511    1.9821 C   0  0  0  0  0  0  0  0  0  0  0  0
   10.8480   23.3496    1.5543 N   0  0  0  0  0  0  0  0  0  0  0  0
   11.8229   23.4578    0.6566 C   0  0  0  0  0  0  0  0  0  0  0  0
    9.2004   24.2172    3.1100 C   0  0  0  0  0  0  0  0  0  0  0  0
    9.5909   23.6642    4.2617 C   0  0  0  0  0  0  0  0  0  0  0  0
    8.6660   23.5106    5.3014 C   0  0  0  0  0  0  0  0  0  0  0  0
    7.3816   23.9436    5.0822 C   0  0  0  0  0  0  0  0  0  0  0  0
    6.9801   24.4994    3.8864 C   0  0  0  0  0  0  0  0  0  0  0  0
    7.8764   24.6368    2.9135 C   0  0  0  0  0  0  0  0  0  0  0  0
    7.4756   25.2006    1.6191 C   0  0  0  0  0  0  0  0  0  0  0  0
    6.4456   24.0605    6.1933 C   0  0  0  0  0  0  0  0  0  0  0  0
    5.9195   25.4263    6.3555 O   0  0  0  0  0  0  0  0  0  0  0  0
    6.0825   23.2107    6.9248 O   0  0  0  0  0  0  0  0  0  0  0  0
    5.2524   25.6969    5.6032 H   0  0  0  0  0  0  0  0  0  0  0  0
   15.0062   27.1168   -3.0507 C   0  0  0  0  0  0  0  0  0  0  0  0
   16.3452   27.3332   -3.2924 C   0  0  0  0  0  0  0  0  0  0  0  0
   16.7899   28.4089   -4.0240 C   0  0  0  0  0  0  0  0  0  0  0  0
   15.9122   29.2706   -4.5181 N   0  0  0  0  0  0  0  0  0  0  0  0
   14.5770   29.0565   -4.2919 C   0  0  0  0  0  0  0  0  0  0  0  0
   14.1450   28.0236   -3.5818 N   0  0  0  0  0  0  0  0  0  0  0  0
   17.4013   23.0909   -4.8898 C   0  0  0  0  0  0  0  0  0  0  0  0
   14.9533   21.8217   -5.2615 C   0  0  0  0  0  0  0  0  0  0  0  0
   15.1521   23.2147   -5.7905 C   0  0  0  0  0  0  0  0  0  0  0  0
   14.1298   23.8674   -6.4065 C   0  0  0  0  0  0  0  0  0  0  0  0
   14.3987   25.1040   -7.0362 C   0  0  0  0  0  0  0  0  0  0  0  0
   15.6865   25.6320   -7.0129 C   0  0  0  0  0  0  0  0  0  0  0  0
   16.6516   24.9241   -6.3774 N   0  0  0  0  0  0  0  0  0  0  0  0
   16.4042   23.7423   -5.7761 C   0  0  0  0  0  0  0  0  0  0  0  0
 37 38  1  0  0  0
 38 39  2  0  0  0
 39 40  1  0  0  0
 40 41  2  0  0  0
 41 42  1  0  0  0
 42 43  2  0  0  0
 43 36  1  0  0  0
 36  1  1  0  0  0
  1  2  1  0  0  0
  2  3  1  0  0  0
  3  4  1  0  0  0
  4  5  1  0  0  0
  5  6  1  0  0  0
  4  7  1  0  0  0
  7  8  1  0  0  0
  8  9  2  0  0  0
  8 10  1  0  0  0
 10 11  1  0  0  0
 11 12  2  0  0  0
 10 13  1  0  0  0
 13 14  2  0  0  0
 14 15  1  0  0  0
 15 16  2  0  0  0
 16 17  1  0  0  0
 17 18  2  0  0  0
 16 19  1  0  0  0
 19 20  2  0  0  0
 20 21  1  0  0  0
 21 22  2  0  0  0
 22 23  1  0  0  0
 23 24  2  0  0  0
 24 25  1  0  0  0
 22 26  1  0  0  0
 26 27  1  0  0  0
 26 28  2  0  0  0
  7 30  1  0  0  0
 30 31  2  0  0  0
 31 32  1  0  0  0
 32 33  2  0  0  0
 33 34  1  0  0  0
 34 35  2  0  0  0
 43 38  1  0  0  0
  6  1  1  0  0  0
 18 13  1  0  0  0
 24 19  1  0  0  0
 35 30  1  0  0  0
 11  4  1  0  0  0
 27 29  1  0  0  0
M  END
> <minimizedAffinity>
28.92739

> <CNNscore>
0.4829995334

> <CNNaffinity>
7.4464516640

> <CNN_VS>
3.5966327190

> <CNNaffinity_variance>
1.0673403740

$$$$
[H]c1nc2c([H])c(C([H])([H])[H])c([H])c(-c3c([H])c([H])c(C#N)c([H])c3[H])n2n1


 18 20  0  0  0  0  0  0  0  0999 V2000
    9.7544   21.2012   -0.9778 C   0  0  0  0  0  0  0  0  0  0  0  0
   11.1607   21.6438   -0.7963 C   0  0  0  0  0  0  0  0  0  0  0  0
   11.7349   22.6478   -1.5848 C   0  0  0  0  0  0  0  0  0  0  0  0
   13.0389   23.0675   -1.4260 C   0  0  0  0  0  0  0  0  0  0  0  0
   13.7768   22.4812   -0.4725 N   0  0  0  0  0  0  0  0  0  0  0  0
   15.0223   22.6174   -0.0299 N   0  0  0  0  0  0  0  0  0  0  0  0
   15.2834   21.7761    0.9793 C   0  0  0  0  0  0  0  0  0  0  0  0
   14.1627   21.0778    1.1879 N   0  0  0  0  0  0  0  0  0  0  0  0
   13.2434   21.5132    0.2970 C   0  0  0  0  0  0  0  0  0  0  0  0
   11.9449   21.0645    0.1708 C   0  0  0  0  0  0  0  0  0  0  0  0
   13.5385   24.1315   -2.2671 C   0  0  0  0  0  0  0  0  0  0  0  0
   14.6923   23.9021   -3.0347 C   0  0  0  0  0  0  0  0  0  0  0  0
   15.2153   24.8913   -3.8264 C   0  0  0  0  0  0  0  0  0  0  0  0
   14.6205   26.1327   -3.8868 C   0  0  0  0  0  0  0  0  0  0  0  0
   13.4952   26.3432   -3.1328 C   0  0  0  0  0  0  0  0  0  0  0  0
   12.9311   25.3609   -2.3126 C   0  0  0  0  0  0  0  0  0  0  0  0
   15.1844   27.1628   -4.7262 C   0  0  0  0  0  0  0  0  0  0  0  0
   15.6161   27.9707   -5.4023 N   0  0  0  0  0  0  0  0  0  0  0  0
  1  2  1  0  0  0
  2  3  1  0  0  0
  3  4  2  0  0  0
  4 11  1  0  0  0
 11 12  2  0  0  0
 12 13  1  0  0  0
 13 14  2  0  0  0
 14 15  1  0  0  0
 15 16  2  0  0  0
 14 17  1  0  0  0
 17 18  3  0  0  0
  4  5  1  0  0  0
  5  6  1  0  0  0
  6  7  2  0  0  0
  7  8  1  0  0  0
  8  9  2  0  0  0
  9 10  1  0  0  0
 10  2  2  0  0  0
 16 11  1  0  0  0
  9  5  1  0  0  0
M  END
> <minimizedAffinity>
-7.58812

> <CNNscore>
0.6835158467

> <CNNaffinity>
6.5319356918

> <CNN_VS>
4.4646816254

> <CNNaffinity_variance>
0.3262047172

$$$$
[H]c1nc2c([H])c(C([H])([H])[H])c([H])c(-c3c([H])c([H])c(C#N)c([H])c3[H])n2n1


 18 20  0  0  0  0  0  0  0  0999 V2000
   16.1183   28.1874   -4.6605 C   0  0  0  0  0  0  0  0  0  0  0  0
   15.1582   27.3033   -3.9511 C   0  0  0  0  0  0  0  0  0  0  0  0
   15.5694   26.3784   -2.9842 C   0  0  0  0  0  0  0  0  0  0  0  0
   14.6880   25.5524   -2.3189 C   0  0  0  0  0  0  0  0  0  0  0  0
   13.3852   25.6496   -2.6201 N   0  0  0  0  0  0  0  0  0  0  0  0
   12.2755   25.0513   -2.2004 N   0  0  0  0  0  0  0  0  0  0  0  0
   11.1907   25.5250   -2.8274 C   0  0  0  0  0  0  0  0  0  0  0  0
   11.6250   26.4602   -3.6783 N   0  0  0  0  0  0  0  0  0  0  0  0
   12.9688   26.5329   -3.5474 C   0  0  0  0  0  0  0  0  0  0  0  0
   13.8167   27.3763   -4.2353 C   0  0  0  0  0  0  0  0  0  0  0  0
   15.1998   24.6479   -1.3144 C   0  0  0  0  0  0  0  0  0  0  0  0
   14.9551   23.2719   -1.4554 C   0  0  0  0  0  0  0  0  0  0  0  0
   15.3997   22.3810   -0.5132 C   0  0  0  0  0  0  0  0  0  0  0  0
   16.0969   22.8158    0.5929 C   0  0  0  0  0  0  0  0  0  0  0  0
   16.3288   24.1610    0.7182 C   0  0  0  0  0  0  0  0  0  0  0  0
   15.8918   25.1016   -0.2200 C   0  0  0  0  0  0  0  0  0  0  0  0
   16.5581   21.8638    1.5750 C   0  0  0  0  0  0  0  0  0  0  0  0
   16.9294   21.1278    2.3603 N   0  0  0  0  0  0  0  0  0  0  0  0
  1  2  1  0  0  0
  2  3  1  0  0  0
  3  4  2  0  0  0
  4 11  1  0  0  0
 11 12  2  0  0  0
 12 13  1  0  0  0
 13 14  2  0  0  0
 14 15  1  0  0  0
 15 16  2  0  0  0
 14 17  1  0  0  0
 17 18  3  0  0  0
  4  5  1  0  0  0
  5  6  1  0  0  0
  6  7  2  0  0  0
  7  8  1  0  0  0
  8  9  2  0  0  0
  9 10  1  0  0  0
 10  2  2  0  0  0
 16 11  1  0  0  0
  9  5  1  0  0  0
M  END
> <minimizedAffinity>
5.36063

> <CNNscore>
0.6440583467

> <CNNaffinity>
6.0133180618

> <CNN_VS>
3.8729276657

> <CNNaffinity_variance>
0.6025257111

$$$$
[H]c1nc2c([H])c(C([H])([H])[H])c([H])c(-c3c([H])c([H])c(C#N)c([H])c3[H])n2n1


 18 20  0  0  0  0  0  0  0  0999 V2000
   17.7903   23.7444    1.6224 C   0  0  0  0  0  0  0  0  0  0  0  0
   16.5898   23.2926    0.8733 C   0  0  0  0  0  0  0  0  0  0  0  0
   15.9049   24.1305   -0.0145 C   0  0  0  0  0  0  0  0  0  0  0  0
   14.7896   23.7229   -0.7157 C   0  0  0  0  0  0  0  0  0  0  0  0
   14.3535   22.4687   -0.5304 N   0  0  0  0  0  0  0  0  0  0  0  0
   13.3556   21.7383   -1.0163 N   0  0  0  0  0  0  0  0  0  0  0  0
   13.3538   20.5004   -0.5044 C   0  0  0  0  0  0  0  0  0  0  0  0
   14.3893   20.4393    0.3389 N   0  0  0  0  0  0  0  0  0  0  0  0
   14.9982   21.6464    0.3193 C   0  0  0  0  0  0  0  0  0  0  0  0
   16.1160   22.0144    1.0394 C   0  0  0  0  0  0  0  0  0  0  0  0
   14.1637   24.6479   -1.6332 C   0  0  0  0  0  0  0  0  0  0  0  0
   12.9199   25.2035   -1.2904 C   0  0  0  0  0  0  0  0  0  0  0  0
   12.2786   26.0649   -2.1421 C   0  0  0  0  0  0  0  0  0  0  0  0
   12.8402   26.4051   -3.3535 C   0  0  0  0  0  0  0  0  0  0  0  0
   14.0541   25.8559   -3.6757 C   0  0  0  0  0  0  0  0  0  0  0  0
   14.7399   24.9733   -2.8350 C   0  0  0  0  0  0  0  0  0  0  0  0
   12.1513   27.3141   -4.2382 C   0  0  0  0  0  0  0  0  0  0  0  0
   11.5932   28.0324   -4.9229 N   0  0  0  0  0  0  0  0  0  0  0  0
  1  2  1  0  0  0
  2  3  1  0  0  0
  3  4  2  0  0  0
  4 11  1  0  0  0
 11 12  2  0  0  0
 12 13  1  0  0  0
 13 14  2  0  0  0
 14 15  1  0  0  0
 15 16  2  0  0  0
 14 17  1  0  0  0
 17 18  3  0  0  0
  4  5  1  0  0  0
  5  6  1  0  0  0
  6  7  2  0  0  0
  7  8  1  0  0  0
  8  9  2  0  0  0
  9 10  1  0  0  0
 10  2  2  0  0  0
 16 11  1  0  0  0
  9  5  1  0  0  0
M  END
> <minimizedAffinity>
-1.51020

> <CNNscore>
0.5702459812

> <CNNaffinity>
6.0892801285

> <CNN_VS>
3.4723875523

> <CNNaffinity_variance>
0.4973770976

$$$$
[H]c1nc2c([H])c(C([H])([H])[H])c([H])c(-c3c([H])c([H])c(C#N)c([H])c3[H])n2n1


 18 20  0  0  0  0  0  0  0  0999 V2000
   12.4465   26.8899   -3.9708 C   0  0  0  0  0  0  0  0  0  0  0  0
   12.5392   25.8753   -2.8897 C   0  0  0  0  0  0  0  0  0  0  0  0
   13.7225   25.6507   -2.1763 C   0  0  0  0  0  0  0  0  0  0  0  0
   13.8212   24.7121   -1.1709 C   0  0  0  0  0  0  0  0  0  0  0  0
   12.7304   23.9913   -0.8738 N   0  0  0  0  0  0  0  0  0  0  0  0
   12.4444   23.0366    0.0049 N   0  0  0  0  0  0  0  0  0  0  0  0
   11.1698   22.6370   -0.0961 C   0  0  0  0  0  0  0  0  0  0  0  0
   10.6229   23.3642   -1.0756 N   0  0  0  0  0  0  0  0  0  0  0  0
   11.5821   24.1919   -1.5482 C   0  0  0  0  0  0  0  0  0  0  0  0
   11.4413   25.1194   -2.5598 C   0  0  0  0  0  0  0  0  0  0  0  0
   15.0762   24.5691   -0.4683 C   0  0  0  0  0  0  0  0  0  0  0  0
   16.2010   25.2629   -0.9446 C   0  0  0  0  0  0  0  0  0  0  0  0
   17.4168   25.1360   -0.3244 C   0  0  0  0  0  0  0  0  0  0  0  0
   17.5623   24.3253    0.7801 C   0  0  0  0  0  0  0  0  0  0  0  0
   16.4568   23.6541    1.2344 C   0  0  0  0  0  0  0  0  0  0  0  0
   15.1998   23.7562    0.6300 C   0  0  0  0  0  0  0  0  0  0  0  0
   18.8499   24.2037    1.4212 C   0  0  0  0  0  0  0  0  0  0  0  0
   19.8598   24.1211    1.9403 N   0  0  0  0  0  0  0  0  0  0  0  0
  1  2  1  0  0  0
  2  3  1  0  0  0
  3  4  2  0  0  0
  4 11  1  0  0  0
 11 12  2  0  0  0
 12 13  1  0  0  0
 13 14  2  0  0  0
 14 15  1  0  0  0
 15 16  2  0  0  0
 14 17  1  0  0  0
 17 18  3  0  0  0
  4  5  1  0  0  0
  5  6  1  0  0  0
  6  7  2  0  0  0
  7  8  1  0  0  0
  8  9  2  0  0  0
  9 10  1  0  0  0
 10  2  2  0  0  0
 16 11  1  0  0  0
  9  5  1  0  0  0
M  END
> <minimizedAffinity>
2.52425

> <CNNscore>
0.5180983543

> <CNNaffinity>
5.9677782059

> <CNN_VS>
3.0918960571

> <CNNaffinity_variance>
0.6757429242

$$$$
[H]c1nc2c([H])c(C([H])([H])[H])c([H])c(-c3c([H])c([H])c(C#N)c([H])c3[H])n2n1


 18 20  0  0  0  0  0  0  0  0999 V2000
    9.6734   24.5557    2.0303 C   0  0  0  0  0  0  0  0  0  0  0  0
   10.8446   23.9393    1.3556 C   0  0  0  0  0  0  0  0  0  0  0  0
   11.3977   24.4724    0.1854 C   0  0  0  0  0  0  0  0  0  0  0  0
   12.4845   23.9097   -0.4501 C   0  0  0  0  0  0  0  0  0  0  0  0
   13.0248   22.8059    0.0860 N   0  0  0  0  0  0  0  0  0  0  0  0
   14.0458   22.0135   -0.2221 N   0  0  0  0  0  0  0  0  0  0  0  0
   14.1833   21.0172    0.6627 C   0  0  0  0  0  0  0  0  0  0  0  0
   13.2139   21.1808    1.5687 N   0  0  0  0  0  0  0  0  0  0  0  0
   12.5077   22.2771    1.2114 C   0  0  0  0  0  0  0  0  0  0  0  0
   11.4224   22.8082    1.8775 C   0  0  0  0  0  0  0  0  0  0  0  0
   13.0064   24.5459   -1.6384 C   0  0  0  0  0  0  0  0  0  0  0  0
   14.0443   23.9144   -2.3435 C   0  0  0  0  0  0  0  0  0  0  0  0
   14.5865   24.4946   -3.4608 C   0  0  0  0  0  0  0  0  0  0  0  0
   14.1251   25.7101   -3.9170 C   0  0  0  0  0  0  0  0  0  0  0  0
   13.1120   26.3154   -3.2196 C   0  0  0  0  0  0  0  0  0  0  0  0
   12.5328   25.7570   -2.0757 C   0  0  0  0  0  0  0  0  0  0  0  0
   14.7072   26.3065   -5.0956 C   0  0  0  0  0  0  0  0  0  0  0  0
   15.1826   26.7812   -6.0148 N   0  0  0  0  0  0  0  0  0  0  0  0
  1  2  1  0  0  0
  2  3  1  0  0  0
  3  4  2  0  0  0
  4 11  1  0  0  0
 11 12  2  0  0  0
 12 13  1  0  0  0
 13 14  2  0  0  0
 14 15  1  0  0  0
 15 16  2  0  0  0
 14 17  1  0  0  0
 17 18  3  0  0  0
  4  5  1  0  0  0
  5  6  1  0  0  0
  6  7  2  0  0  0
  7  8  1  0  0  0
  8  9  2  0  0  0
  9 10  1  0  0  0
 10  2  2  0  0  0
 16 11  1  0  0  0
  9  5  1  0  0  0
M  END
> <minimizedAffinity>
-8.42701

> <CNNscore>
0.5103257298

> <CNNaffinity>
6.2843966484

> <CNN_VS>
3.2070894241

> <CNNaffinity_variance>
0.3521580696

$$$$
[H]c1nc2c([H])c(C([H])([H])[H])c([H])c(-c3c([H])c([H])c(C#N)c([H])c3[H])n2n1


 18 20  0  0  0  0  0  0  0  0999 V2000
   15.4444   20.4830   -0.0610 C   0  0  0  0  0  0  0  0  0  0  0  0
   14.7494   21.7507   -0.4025 C   0  0  0  0  0  0  0  0  0  0  0  0
   15.0404   22.4711   -1.5669 C   0  0  0  0  0  0  0  0  0  0  0  0
   14.4024   23.6488   -1.8950 C   0  0  0  0  0  0  0  0  0  0  0  0
   13.4657   24.1120   -1.0550 N   0  0  0  0  0  0  0  0  0  0  0  0
   12.6590   25.1677   -1.0354 N   0  0  0  0  0  0  0  0  0  0  0  0
   11.8780   25.1732    0.0530 C   0  0  0  0  0  0  0  0  0  0  0  0
   12.1987   24.0804    0.7530 N   0  0  0  0  0  0  0  0  0  0  0  0
   13.1707   23.4341    0.0706 C   0  0  0  0  0  0  0  0  0  0  0  0
   13.7850   22.2538    0.4356 C   0  0  0  0  0  0  0  0  0  0  0  0
   14.7475   24.3097   -3.1333 C   0  0  0  0  0  0  0  0  0  0  0  0
   14.0009   25.4304   -3.5329 C   0  0  0  0  0  0  0  0  0  0  0  0
   14.2771   26.0720   -4.7123 C   0  0  0  0  0  0  0  0  0  0  0  0
   15.2936   25.6319   -5.5317 C   0  0  0  0  0  0  0  0  0  0  0  0
   16.0143   24.5373   -5.1298 C   0  0  0  0  0  0  0  0  0  0  0  0
   15.7638   23.8550   -3.9350 C   0  0  0  0  0  0  0  0  0  0  0  0
   15.5712   26.3198   -6.7700 C   0  0  0  0  0  0  0  0  0  0  0  0
   15.7815   26.8786   -7.7394 N   0  0  0  0  0  0  0  0  0  0  0  0
  1  2  1  0  0  0
  2  3  1  0  0  0
  3  4  2  0  0  0
  4 11  1  0  0  0
 11 12  2  0  0  0
 12 13  1  0  0  0
 13 14  2  0  0  0
 14 15  1  0  0  0
 15 16  2  0  0  0
 14 17  1  0  0  0
 17 18  3  0  0  0
  4  5  1  0  0  0
  5  6  1  0  0  0
  6  7  2  0  0  0
  7  8  1  0  0  0
  8  9  2  0  0  0
  9 10  1  0  0  0
 10  2  2  0  0  0
 16 11  1  0  0  0
  9  5  1  0  0  0
M  END
> <minimizedAffinity>
-6.34217

> <CNNscore>
0.4381531477

> <CNNaffinity>
6.0983386040

> <CNN_VS>
2.6720063686

> <CNNaffinity_variance>
0.1534602493

$$$$
[H]c1nc2c([H])c(C([H])([H])[H])c([H])c(-c3c([H])c([H])c(C#N)c([H])c3[H])n2n1


 18 20  0  0  0  0  0  0  0  0999 V2000
   14.7936   25.6677    1.4970 C   0  0  0  0  0  0  0  0  0  0  0  0
   14.5720   24.6779    0.4117 C   0  0  0  0  0  0  0  0  0  0  0  0
   14.7999   24.9835   -0.9352 C   0  0  0  0  0  0  0  0  0  0  0  0
   14.5980   24.0737   -1.9516 C   0  0  0  0  0  0  0  0  0  0  0  0
   14.1652   22.8482   -1.6221 N   0  0  0  0  0  0  0  0  0  0  0  0
   13.8754   21.7403   -2.2960 N   0  0  0  0  0  0  0  0  0  0  0  0
   13.4800   20.7543   -1.4800 C   0  0  0  0  0  0  0  0  0  0  0  0
   13.5195   21.2521   -0.2399 N   0  0  0  0  0  0  0  0  0  0  0  0
   13.9398   22.5339   -0.3322 C   0  0  0  0  0  0  0  0  0  0  0  0
   14.1288   23.4137    0.7136 C   0  0  0  0  0  0  0  0  0  0  0  0
   14.8876   24.4686   -3.3115 C   0  0  0  0  0  0  0  0  0  0  0  0
   14.3694   25.6842   -3.7879 C   0  0  0  0  0  0  0  0  0  0  0  0
   14.5977   26.0852   -5.0786 C   0  0  0  0  0  0  0  0  0  0  0  0
   15.3408   25.3048   -5.9371 C   0  0  0  0  0  0  0  0  0  0  0  0
   15.8406   24.1211   -5.4595 C   0  0  0  0  0  0  0  0  0  0  0  0
   15.6299   23.6763   -4.1504 C   0  0  0  0  0  0  0  0  0  0  0  0
   15.5718   25.7427   -7.2931 C   0  0  0  0  0  0  0  0  0  0  0  0
   15.7673   26.1011   -8.3559 N   0  0  0  0  0  0  0  0  0  0  0  0
  1  2  1  0  0  0
  2  3  1  0  0  0
  3  4  2  0  0  0
  4 11  1  0  0  0
 11 12  2  0  0  0
 12 13  1  0  0  0
 13 14  2  0  0  0
 14 15  1  0  0  0
 15 16  2  0  0  0
 14 17  1  0  0  0
 17 18  3  0  0  0
  4  5  1  0  0  0
  5  6  1  0  0  0
  6  7  2  0  0  0
  7  8  1  0  0  0
  8  9  2  0  0  0
  9 10  1  0  0  0
 10  2  2  0  0  0
 16 11  1  0  0  0
  9  5  1  0  0  0
M  END
> <minimizedAffinity>
-5.78896

> <CNNscore>
0.4220117331

> <CNNaffinity>
6.0456881523

> <CNN_VS>
2.5513513088

> <CNNaffinity_variance>
0.1177963391

$$$$
[H]c1nc2c([H])c(C([H])([H])[H])c([H])c(-c3c([H])c([H])c(C#N)c([H])c3[H])n2n1


 18 20  0  0  0  0  0  0  0  0999 V2000
   17.0137   24.1127    1.1384 C   0  0  0  0  0  0  0  0  0  0  0  0
   15.8037   24.3410    0.3076 C   0  0  0  0  0  0  0  0  0  0  0  0
   15.8815   24.6489   -1.0557 C   0  0  0  0  0  0  0  0  0  0  0  0
   14.7659   24.8629   -1.8375 C   0  0  0  0  0  0  0  0  0  0  0  0
   13.5620   24.7689   -1.2550 N   0  0  0  0  0  0  0  0  0  0  0  0
   12.3051   24.8941   -1.6674 N   0  0  0  0  0  0  0  0  0  0  0  0
   11.4346   24.6899   -0.6700 C   0  0  0  0  0  0  0  0  0  0  0  0
   12.1637   24.4244    0.4187 N   0  0  0  0  0  0  0  0  0  0  0  0
   13.4651   24.4736    0.0553 C   0  0  0  0  0  0  0  0  0  0  0  0
   14.5550   24.2528    0.8720 C   0  0  0  0  0  0  0  0  0  0  0  0
   14.9414   25.1473   -3.2438 C   0  0  0  0  0  0  0  0  0  0  0  0
   15.4157   24.1280   -4.0861 C   0  0  0  0  0  0  0  0  0  0  0  0
   15.6212   24.3613   -5.4211 C   0  0  0  0  0  0  0  0  0  0  0  0
   15.3668   25.6008   -5.9663 C   0  0  0  0  0  0  0  0  0  0  0  0
   14.9044   26.5864   -5.1333 C   0  0  0  0  0  0  0  0  0  0  0  0
   14.6823   26.3890   -3.7667 C   0  0  0  0  0  0  0  0  0  0  0  0
   15.5885   25.8288   -7.3744 C   0  0  0  0  0  0  0  0  0  0  0  0
   15.7770   25.9946   -8.4848 N   0  0  0  0  0  0  0  0  0  0  0  0
  1  2  1  0  0  0
  2  3  1  0  0  0
  3  4  2  0  0  0
  4 11  1  0  0  0
 11 12  2  0  0  0
 12 13  1  0  0  0
 13 14  2  0  0  0
 14 15  1  0  0  0
 15 16  2  0  0  0
 14 17  1  0  0  0
 17 18  3  0  0  0
  4  5  1  0  0  0
  5  6  1  0  0  0
  6  7  2  0  0  0
  7  8  1  0  0  0
  8  9  2  0  0  0
  9 10  1  0  0  0
 10  2  2  0  0  0
 16 11  1  0  0  0
  9  5  1  0  0  0
M  END
> <minimizedAffinity>
-7.09102

> <CNNscore>
0.3888937533

> <CNNaffinity>
5.9358620644

> <CNN_VS>
2.3084197044

> <CNNaffinity_variance>
0.3558577001

$$$$
[H]c1nc2c([H])c(C([H])([H])[H])c([H])c(-c3c([H])c([H])c(C#N)c([H])c3[H])n2n1


 18 20  0  0  0  0  0  0  0  0999 V2000
   16.0476   22.6950   -4.0417 C   0  0  0  0  0  0  0  0  0  0  0  0
   15.0841   23.7863   -3.7463 C   0  0  0  0  0  0  0  0  0  0  0  0
   14.1837   23.7178   -2.6766 C   0  0  0  0  0  0  0  0  0  0  0  0
   13.2846   24.7240   -2.3921 C   0  0  0  0  0  0  0  0  0  0  0  0
   13.2835   25.8082   -3.1808 N   0  0  0  0  0  0  0  0  0  0  0  0
   12.5963   26.9449   -3.2162 N   0  0  0  0  0  0  0  0  0  0  0  0
   12.9909   27.7301   -4.2272 C   0  0  0  0  0  0  0  0  0  0  0  0
   13.9661   27.0695   -4.8596 N   0  0  0  0  0  0  0  0  0  0  0  0
   14.1416   25.8939   -4.2151 C   0  0  0  0  0  0  0  0  0  0  0  0
   15.0556   24.9108   -4.5339 C   0  0  0  0  0  0  0  0  0  0  0  0
   12.4119   24.5794   -1.2490 C   0  0  0  0  0  0  0  0  0  0  0  0
   11.2661   23.7760   -1.3699 C   0  0  0  0  0  0  0  0  0  0  0  0
   10.3975   23.6317   -0.3194 C   0  0  0  0  0  0  0  0  0  0  0  0
   10.6294   24.2715    0.8786 C   0  0  0  0  0  0  0  0  0  0  0  0
   11.7512   25.0524    0.9832 C   0  0  0  0  0  0  0  0  0  0  0  0
   12.6611   25.2256   -0.0646 C   0  0  0  0  0  0  0  0  0  0  0  0
    9.7045   24.1080    1.9747 C   0  0  0  0  0  0  0  0  0  0  0  0
    8.9881   23.9676    2.8483 N   0  0  0  0  0  0  0  0  0  0  0  0
  1  2  1  0  0  0
  2  3  1  0  0  0
  3  4  2  0  0  0
  4 11  1  0  0  0
 11 12  2  0  0  0
 12 13  1  0  0  0
 13 14  2  0  0  0
 14 15  1  0  0  0
 15 16  2  0  0  0
 14 17  1  0  0  0
 17 18  3  0  0  0
  4  5  1  0  0  0
  5  6  1  0  0  0
  6  7  2  0  0  0
  7  8  1  0  0  0
  8  9  2  0  0  0
  9 10  1  0  0  0
 10  2  2  0  0  0
 16 11  1  0  0  0
  9  5  1  0  0  0
M  END
> <minimizedAffinity>
-5.11211

> <CNNscore>
0.3759418130

> <CNNaffinity>
5.5450844765

> <CNN_VS>
2.0846290588

> <CNNaffinity_variance>
0.1655061096

$$$$
[H]c1nc2c([H])c(N([H])C(=O)C3(C#N)C([H])([H])C3([H])[H])c([H])c(-c3c([H])c([H])c(C#N)c(F)c3[H])n2n1


 27 30  0  0  0  0  0  0  0  0999 V2000
   13.2521   23.9949   -1.6591 C   0  0  0  0  0  0  0  0  0  0  0  0
   11.9298   23.5531   -1.6804 C   0  0  0  0  0  0  0  0  0  0  0  0
   11.4918   22.8081   -0.6209 C   0  0  0  0  0  0  0  0  0  0  0  0
   12.3717   22.5220    0.4248 C   0  0  0  0  0  0  0  0  0  0  0  0
   13.6420   22.9741    0.3956 C   0  0  0  0  0  0  0  0  0  0  0  0
   14.6895   22.8521    1.2522 N   0  0  0  0  0  0  0  0  0  0  0  0
   15.7356   23.5056    0.7279 C   0  0  0  0  0  0  0  0  0  0  0  0
   15.3337   24.0313   -0.4525 N   0  0  0  0  0  0  0  0  0  0  0  0
   14.0609   23.7056   -0.6503 N   0  0  0  0  0  0  0  0  0  0  0  0
   16.1356   24.3792   -5.4863 F   0  0  0  0  0  0  0  0  0  0  0  0
   15.2040   24.9493   -4.7035 C   0  0  0  0  0  0  0  0  0  0  0  0
   14.6948   24.2496   -3.6147 C   0  0  0  0  0  0  0  0  0  0  0  0
   13.7379   24.7937   -2.7836 C   0  0  0  0  0  0  0  0  0  0  0  0
   13.2620   26.0578   -3.0197 C   0  0  0  0  0  0  0  0  0  0  0  0
   13.7460   26.7826   -4.0936 C   0  0  0  0  0  0  0  0  0  0  0  0
   14.6977   26.2209   -4.9067 C   0  0  0  0  0  0  0  0  0  0  0  0
   15.1902   26.9898   -6.0202 C   0  0  0  0  0  0  0  0  0  0  0  0
   15.6017   27.5981   -6.9077 N   0  0  0  0  0  0  0  0  0  0  0  0
   10.1843   22.3268   -0.5218 N   0  0  0  0  0  0  0  0  0  0  0  0
    9.8005   20.9846   -0.5118 C   0  0  0  0  0  0  0  0  0  0  0  0
   10.5658   19.9970   -0.5955 O   0  0  0  0  0  0  0  0  0  0  0  0
    9.4115   23.0496   -0.4434 H   0  0  0  0  0  0  0  0  0  0  0  0
    8.3314   20.6299   -0.3904 C   0  0  0  0  0  0  0  0  0  0  0  0
    7.6828   20.3218   -1.6801 C   0  0  0  0  0  0  0  0  0  0  0  0
    7.9296   19.2159   -0.6803 C   0  0  0  0  0  0  0  0  0  0  0  0
    7.5497   21.3736    0.6026 C   0  0  0  0  0  0  0  0  0  0  0  0
    6.9386   21.9789    1.4018 N   0  0  0  0  0  0  0  0  0  0  0  0
 10 11  1  0  0  0
 11 12  2  0  0  0
 12 13  1  0  0  0
 13 14  2  0  0  0
 14 15  1  0  0  0
 15 16  2  0  0  0
 16 17  1  0  0  0
 17 18  3  0  0  0
 13  1  1  0  0  0
  1  2  2  0  0  0
  2  3  1  0  0  0
  3 19  1  0  0  0
 19 20  1  0  0  0
 20 21  2  0  0  0
 20 23  1  0  0  0
 23 24  1  0  0  0
 24 25  1  0  0  0
 23 26  1  0  0  0
 26 27  3  0  0  0
  3  4  2  0  0  0
  4  5  1  0  0  0
  5  6  2  0  0  0
  6  7  1  0  0  0
  7  8  2  0  0  0
  8  9  1  0  0  0
 16 11  1  0  0  0
  9  1  1  0  0  0
 25 23  1  0  0  0
  9  5  1  0  0  0
 19 22  1  0  0  0
M  END
> <minimizedAffinity>
-7.28316

> <CNNscore>
0.6541708708

> <CNNaffinity>
7.6121382713

> <CNN_VS>
4.9796390533

> <CNNaffinity_variance>
0.6431363821

$$$$
[H]c1nc2c([H])c(N([H])C(=O)C3(C#N)C([H])([H])C3([H])[H])c([H])c(-c3c([H])c([H])c(C#N)c(F)c3[H])n2n1


 27 30  0  0  0  0  0  0  0  0999 V2000
   13.7516   26.6885   -3.4994 C   0  0  0  0  0  0  0  0  0  0  0  0
   13.4440   25.5132   -2.8155 C   0  0  0  0  0  0  0  0  0  0  0  0
   14.4804   24.6958   -2.4588 C   0  0  0  0  0  0  0  0  0  0  0  0
   15.7864   25.0633   -2.7887 C   0  0  0  0  0  0  0  0  0  0  0  0
   16.0291   26.2123   -3.4519 C   0  0  0  0  0  0  0  0  0  0  0  0
   17.1693   26.8059   -3.8917 N   0  0  0  0  0  0  0  0  0  0  0  0
   16.8350   27.9532   -4.4987 C   0  0  0  0  0  0  0  0  0  0  0  0
   15.4883   28.0677   -4.4335 N   0  0  0  0  0  0  0  0  0  0  0  0
   15.0028   27.0076   -3.7967 N   0  0  0  0  0  0  0  0  0  0  0  0
   11.6637   31.0097   -3.2206 F   0  0  0  0  0  0  0  0  0  0  0  0
   11.6345   29.7637   -3.7231 C   0  0  0  0  0  0  0  0  0  0  0  0
   12.6437   28.8640   -3.3970 C   0  0  0  0  0  0  0  0  0  0  0  0
   12.6558   27.5753   -3.8885 C   0  0  0  0  0  0  0  0  0  0  0  0
   11.6547   27.1494   -4.7230 C   0  0  0  0  0  0  0  0  0  0  0  0
   10.6349   28.0175   -5.0684 C   0  0  0  0  0  0  0  0  0  0  0  0
   10.6438   29.2947   -4.5674 C   0  0  0  0  0  0  0  0  0  0  0  0
    9.5742   30.1850   -4.9376 C   0  0  0  0  0  0  0  0  0  0  0  0
    8.7060   30.8838   -5.2290 N   0  0  0  0  0  0  0  0  0  0  0  0
   14.2976   23.5033   -1.7550 N   0  0  0  0  0  0  0  0  0  0  0  0
   14.0145   23.3873   -0.3929 C   0  0  0  0  0  0  0  0  0  0  0  0
   13.8842   24.3330    0.4175 O   0  0  0  0  0  0  0  0  0  0  0  0
   14.3784   22.6018   -2.3089 H   0  0  0  0  0  0  0  0  0  0  0  0
   13.8379   22.0106    0.2175 C   0  0  0  0  0  0  0  0  0  0  0  0
   14.2001   20.9040   -0.6897 C   0  0  0  0  0  0  0  0  0  0  0  0
   15.0726   21.2121    0.5052 C   0  0  0  0  0  0  0  0  0  0  0  0
   12.6787   21.8182    1.0947 C   0  0  0  0  0  0  0  0  0  0  0  0
   11.7464   21.6490    1.7881 N   0  0  0  0  0  0  0  0  0  0  0  0
 10 11  1  0  0  0
 11 12  2  0  0  0
 12 13  1  0  0  0
 13 14  2  0  0  0
 14 15  1  0  0  0
 15 16  2  0  0  0
 16 17  1  0  0  0
 17 18  3  0  0  0
 13  1  1  0  0  0
  1  2  2  0  0  0
  2  3  1  0  0  0
  3 19  1  0  0  0
 19 20  1  0  0  0
 20 21  2  0  0  0
 20 23  1  0  0  0
 23 24  1  0  0  0
 24 25  1  0  0  0
 23 26  1  0  0  0
 26 27  3  0  0  0
  3  4  2  0  0  0
  4  5  1  0  0  0
  5  6  2  0  0  0
  6  7  1  0  0  0
  7  8  2  0  0  0
  8  9  1  0  0  0
 16 11  1  0  0  0
  9  1  1  0  0  0
 25 23  1  0  0  0
  9  5  1  0  0  0
 19 22  1  0  0  0
M  END
> <minimizedAffinity>
9.00159

> <CNNscore>
0.6443653703

> <CNNaffinity>
7.2199831009

> <CNN_VS>
4.6523070335

> <CNNaffinity_variance>
0.8974569440

$$$$
[H]c1nc2c([H])c(N([H])C(=O)C3(C#N)C([H])([H])C3([H])[H])c([H])c(-c3c([H])c([H])c(C#N)c(F)c3[H])n2n1


 27 30  0  0  0  0  0  0  0  0999 V2000
   13.6448   24.7877   -1.6788 C   0  0  0  0  0  0  0  0  0  0  0  0
   12.2758   24.6580   -1.4488 C   0  0  0  0  0  0  0  0  0  0  0  0
   11.8733   24.3107   -0.1891 C   0  0  0  0  0  0  0  0  0  0  0  0
   12.8335   24.1018    0.8028 C   0  0  0  0  0  0  0  0  0  0  0  0
   14.1463   24.2404    0.5268 C   0  0  0  0  0  0  0  0  0  0  0  0
   15.2709   24.1029    1.2767 N   0  0  0  0  0  0  0  0  0  0  0  0
   16.3282   24.3602    0.4942 C   0  0  0  0  0  0  0  0  0  0  0  0
   15.8561   24.6565   -0.7389 N   0  0  0  0  0  0  0  0  0  0  0  0
   14.5298   24.5824   -0.7143 N   0  0  0  0  0  0  0  0  0  0  0  0
   16.2967   23.7659   -5.5560 F   0  0  0  0  0  0  0  0  0  0  0  0
   15.4419   24.6102   -4.9541 C   0  0  0  0  0  0  0  0  0  0  0  0
   14.9718   24.3227   -3.6772 C   0  0  0  0  0  0  0  0  0  0  0  0
   14.0937   25.1591   -3.0200 C   0  0  0  0  0  0  0  0  0  0  0  0
   13.6600   26.3108   -3.6246 C   0  0  0  0  0  0  0  0  0  0  0  0
   14.1071   26.6284   -4.8943 C   0  0  0  0  0  0  0  0  0  0  0  0
   14.9803   25.7812   -5.5285 C   0  0  0  0  0  0  0  0  0  0  0  0
   15.4353   26.1275   -6.8501 C   0  0  0  0  0  0  0  0  0  0  0  0
   15.7920   26.3884   -7.9140 N   0  0  0  0  0  0  0  0  0  0  0  0
   10.5296   24.1700    0.1655 N   0  0  0  0  0  0  0  0  0  0  0  0
    9.9853   23.1388    0.9332 C   0  0  0  0  0  0  0  0  0  0  0  0
   10.6129   22.1720    1.4227 O   0  0  0  0  0  0  0  0  0  0  0  0
    9.8615   24.9190   -0.1785 H   0  0  0  0  0  0  0  0  0  0  0  0
    8.4993   23.1379    1.2346 C   0  0  0  0  0  0  0  0  0  0  0  0
    7.6615   22.6837    0.1074 C   0  0  0  0  0  0  0  0  0  0  0  0
    7.8089   21.8118    1.3328 C   0  0  0  0  0  0  0  0  0  0  0  0
    7.9896   24.2375    2.0600 C   0  0  0  0  0  0  0  0  0  0  0  0
    7.5650   25.1104    2.7205 N   0  0  0  0  0  0  0  0  0  0  0  0
 10 11  1  0  0  0
 11 12  2  0  0  0
 12 13  1  0  0  0
 13 14  2  0  0  0
 14 15  1  0  0  0
 15 16  2  0  0  0
 16 17  1  0  0  0
 17 18  3  0  0  0
 13  1  1  0  0  0
  1  2  2  0  0  0
  2  3  1  0  0  0
  3 19  1  0  0  0
 19 20  1  0  0  0
 20 21  2  0  0  0
 20 23  1  0  0  0
 23 24  1  0  0  0
 24 25  1  0  0  0
 23 26  1  0  0  0
 26 27  3  0  0  0
  3  4  2  0  0  0
  4  5  1  0  0  0
  5  6  2  0  0  0
  6  7  1  0  0  0
  7  8  2  0  0  0
  8  9  1  0  0  0
 16 11  1  0  0  0
  9  1  1  0  0  0
 25 23  1  0  0  0
  9  5  1  0  0  0
 19 22  1  0  0  0
M  END
> <minimizedAffinity>
-7.79108

> <CNNscore>
0.6373543739

> <CNNaffinity>
7.3125104904

> <CNN_VS>
4.6606607437

> <CNNaffinity_variance>
0.2445025891

$$$$
[H]c1nc2c([H])c(N([H])C(=O)C3(C#N)C([H])([H])C3([H])[H])c([H])c(-c3c([H])c([H])c(C#N)c(F)c3[H])n2n1


 27 30  0  0  0  0  0  0  0  0999 V2000
   14.3078   25.5489   -2.4380 C   0  0  0  0  0  0  0  0  0  0  0  0
   14.3263   24.4720   -1.5527 C   0  0  0  0  0  0  0  0  0  0  0  0
   13.1334   23.8745   -1.2539 C   0  0  0  0  0  0  0  0  0  0  0  0
   11.9607   24.3586   -1.8370 C   0  0  0  0  0  0  0  0  0  0  0  0
   11.9985   25.4044   -2.6877 C   0  0  0  0  0  0  0  0  0  0  0  0
   11.0393   26.0681   -3.3843 N   0  0  0  0  0  0  0  0  0  0  0  0
   11.6331   27.0422   -4.0877 C   0  0  0  0  0  0  0  0  0  0  0  0
   12.9592   26.9797   -3.8254 N   0  0  0  0  0  0  0  0  0  0  0  0
   13.1765   25.9831   -2.9741 N   0  0  0  0  0  0  0  0  0  0  0  0
   16.7842   28.4980   -5.3155 F   0  0  0  0  0  0  0  0  0  0  0  0
   16.7876   27.6910   -4.2410 C   0  0  0  0  0  0  0  0  0  0  0  0
   15.6191   27.0375   -3.8647 C   0  0  0  0  0  0  0  0  0  0  0  0
   15.5745   26.1999   -2.7697 C   0  0  0  0  0  0  0  0  0  0  0  0
   16.7023   25.9922   -2.0180 C   0  0  0  0  0  0  0  0  0  0  0  0
   17.8822   26.6258   -2.3632 C   0  0  0  0  0  0  0  0  0  0  0  0
   17.9026   27.4545   -3.4565 C   0  0  0  0  0  0  0  0  0  0  0  0
   19.1396   28.1061   -3.8013 C   0  0  0  0  0  0  0  0  0  0  0  0
   20.1350   28.6255   -4.0592 N   0  0  0  0  0  0  0  0  0  0  0  0
   13.0291   22.7769   -0.3964 N   0  0  0  0  0  0  0  0  0  0  0  0
   12.3063   22.7314    0.7971 C   0  0  0  0  0  0  0  0  0  0  0  0
   11.6398   23.6684    1.2931 O   0  0  0  0  0  0  0  0  0  0  0  0
   13.5452   21.8946   -0.6811 H   0  0  0  0  0  0  0  0  0  0  0  0
   12.2909   21.4525    1.6114 C   0  0  0  0  0  0  0  0  0  0  0  0
   12.0896   20.2330    0.8046 C   0  0  0  0  0  0  0  0  0  0  0  0
   13.4355   20.5015    1.4371 C   0  0  0  0  0  0  0  0  0  0  0  0
   11.6445   21.5116    2.9263 C   0  0  0  0  0  0  0  0  0  0  0  0
   11.1357   21.5745    3.9826 N   0  0  0  0  0  0  0  0  0  0  0  0
 10 11  1  0  0  0
 11 12  2  0  0  0
 12 13  1  0  0  0
 13 14  2  0  0  0
 14 15  1  0  0  0
 15 16  2  0  0  0
 16 17  1  0  0  0
 17 18  3  0  0  0
 13  1  1  0  0  0
  1  2  2  0  0  0
  2  3  1  0  0  0
  3 19  1  0  0  0
 19 20  1  0  0  0
 20 21  2  0  0  0
 20 23  1  0  0  0
 23 24  1  0  0  0
 24 25  1  0  0  0
 23 26  1  0  0  0
 26 27  3  0  0  0
  3  4  2  0  0  0
  4  5  1  0  0  0
  5  6  2  0  0  0
  6  7  1  0  0  0
  7  8  2  0  0  0
  8  9  1  0  0  0
 16 11  1  0  0  0
  9  1  1  0  0  0
 25 23  1  0  0  0
  9  5  1  0  0  0
 19 22  1  0  0  0
M  END
> <minimizedAffinity>
3.03804

> <CNNscore>
0.6047330499

> <CNNaffinity>
7.1315469742

> <CNN_VS>
4.3126821518

> <CNNaffinity_variance>
1.3665100336

$$$$
[H]c1nc2c([H])c(N([H])C(=O)C3(C#N)C([H])([H])C3([H])[H])c([H])c(-c3c([H])c([H])c(C#N)c(F)c3[H])n2n1


 27 30  0  0  0  0  0  0  0  0999 V2000
   13.9627   25.8087   -3.6582 C   0  0  0  0  0  0  0  0  0  0  0  0
   13.7311   25.1058   -2.4766 C   0  0  0  0  0  0  0  0  0  0  0  0
   14.2832   23.8604   -2.3596 C   0  0  0  0  0  0  0  0  0  0  0  0
   15.0450   23.3481   -3.4115 C   0  0  0  0  0  0  0  0  0  0  0  0
   15.2382   24.0703   -4.5340 C   0  0  0  0  0  0  0  0  0  0  0  0
   15.9165   23.8294   -5.6863 N   0  0  0  0  0  0  0  0  0  0  0  0
   15.7808   24.8994   -6.4819 C   0  0  0  0  0  0  0  0  0  0  0  0
   15.0187   25.8010   -5.8205 N   0  0  0  0  0  0  0  0  0  0  0  0
   14.6912   25.2928   -4.6374 N   0  0  0  0  0  0  0  0  0  0  0  0
   14.6107   30.5346   -4.2540 F   0  0  0  0  0  0  0  0  0  0  0  0
   13.7474   29.5163   -4.1014 C   0  0  0  0  0  0  0  0  0  0  0  0
   14.2281   28.2189   -3.9599 C   0  0  0  0  0  0  0  0  0  0  0  0
   13.3805   27.1425   -3.8009 C   0  0  0  0  0  0  0  0  0  0  0  0
   12.0231   27.3351   -3.7790 C   0  0  0  0  0  0  0  0  0  0  0  0
   11.5098   28.6119   -3.9169 C   0  0  0  0  0  0  0  0  0  0  0  0
   12.3723   29.6673   -4.0739 C   0  0  0  0  0  0  0  0  0  0  0  0
   11.8205   30.9898   -4.2162 C   0  0  0  0  0  0  0  0  0  0  0  0
   11.3899   32.0504   -4.3455 N   0  0  0  0  0  0  0  0  0  0  0  0
   14.1365   23.0706   -1.2169 N   0  0  0  0  0  0  0  0  0  0  0  0
   14.5358   21.7400   -1.0801 C   0  0  0  0  0  0  0  0  0  0  0  0
   15.0846   21.0392   -1.9610 O   0  0  0  0  0  0  0  0  0  0  0  0
   13.6819   23.5265   -0.3735 H   0  0  0  0  0  0  0  0  0  0  0  0
   14.3085   21.0247    0.2374 C   0  0  0  0  0  0  0  0  0  0  0  0
   14.9495   19.6973    0.3148 C   0  0  0  0  0  0  0  0  0  0  0  0
   15.4878   20.8409    1.1432 C   0  0  0  0  0  0  0  0  0  0  0  0
   12.9879   21.1787    0.8560 C   0  0  0  0  0  0  0  0  0  0  0  0
   11.9297   21.2839    1.3536 N   0  0  0  0  0  0  0  0  0  0  0  0
 10 11  1  0  0  0
 11 12  2  0  0  0
 12 13  1  0  0  0
 13 14  2  0  0  0
 14 15  1  0  0  0
 15 16  2  0  0  0
 16 17  1  0  0  0
 17 18  3  0  0  0
 13  1  1  0  0  0
  1  2  2  0  0  0
  2  3  1  0  0  0
  3 19  1  0  0  0
 19 20  1  0  0  0
 20 21  2  0  0  0
 20 23  1  0  0  0
 23 24  1  0  0  0
 24 25  1  0  0  0
 23 26  1  0  0  0
 26 27  3  0  0  0
  3  4  2  0  0  0
  4  5  1  0  0  0
  5  6  2  0  0  0
  6  7  1  0  0  0
  7  8  2  0  0  0
  8  9  1  0  0  0
 16 11  1  0  0  0
  9  1  1  0  0  0
 25 23  1  0  0  0
  9  5  1  0  0  0
 19 22  1  0  0  0
M  END
> <minimizedAffinity>
11.48514

> <CNNscore>
0.5801074505

> <CNNaffinity>
6.7853212357

> <CNN_VS>
3.9362154007

> <CNNaffinity_variance>
1.0657728910

$$$$
[H]c1nc2c([H])c(N([H])C(=O)C3(C#N)C([H])([H])C3([H])[H])c([H])c(-c3c([H])c([H])c(C#N)c(F)c3[H])n2n1


 27 30  0  0  0  0  0  0  0  0999 V2000
   13.4055   24.5860   -2.2541 C   0  0  0  0  0  0  0  0  0  0  0  0
   14.2615   23.6435   -1.6860 C   0  0  0  0  0  0  0  0  0  0  0  0
   13.7115   22.7002   -0.8630 C   0  0  0  0  0  0  0  0  0  0  0  0
   12.3355   22.7173   -0.6262 C   0  0  0  0  0  0  0  0  0  0  0  0
   11.5520   23.6522   -1.2013 C   0  0  0  0  0  0  0  0  0  0  0  0
   10.2175   23.9022   -1.1509 N   0  0  0  0  0  0  0  0  0  0  0  0
    9.9632   24.9681   -1.9227 C   0  0  0  0  0  0  0  0  0  0  0  0
   11.1409   25.3760   -2.4496 N   0  0  0  0  0  0  0  0  0  0  0  0
   12.1035   24.5736   -2.0084 N   0  0  0  0  0  0  0  0  0  0  0  0
   17.2310   27.1413   -3.6489 F   0  0  0  0  0  0  0  0  0  0  0  0
   15.9250   26.8697   -3.8115 C   0  0  0  0  0  0  0  0  0  0  0  0
   15.3132   25.9143   -3.0071 C   0  0  0  0  0  0  0  0  0  0  0  0
   13.9760   25.6022   -3.1374 C   0  0  0  0  0  0  0  0  0  0  0  0
   13.2110   26.2398   -4.0799 C   0  0  0  0  0  0  0  0  0  0  0  0
   13.7865   27.1956   -4.8973 C   0  0  0  0  0  0  0  0  0  0  0  0
   15.1184   27.4895   -4.7494 C   0  0  0  0  0  0  0  0  0  0  0  0
   15.7011   28.4872   -5.6090 C   0  0  0  0  0  0  0  0  0  0  0  0
   16.1535   29.2821   -6.3093 N   0  0  0  0  0  0  0  0  0  0  0  0
   14.4648   21.6948   -0.2527 N   0  0  0  0  0  0  0  0  0  0  0  0
   15.5026   21.8847    0.6615 C   0  0  0  0  0  0  0  0  0  0  0  0
   15.9284   22.9866    1.0770 O   0  0  0  0  0  0  0  0  0  0  0  0
   14.2227   20.6931   -0.5056 H   0  0  0  0  0  0  0  0  0  0  0  0
   16.2181   20.6790    1.2387 C   0  0  0  0  0  0  0  0  0  0  0  0
   15.4612   19.4181    1.1121 C   0  0  0  0  0  0  0  0  0  0  0  0
   16.7055   19.6338    0.2821 C   0  0  0  0  0  0  0  0  0  0  0  0
   16.9851   20.8902    2.4706 C   0  0  0  0  0  0  0  0  0  0  0  0
   17.5850   21.0531    3.4666 N   0  0  0  0  0  0  0  0  0  0  0  0
 10 11  1  0  0  0
 11 12  2  0  0  0
 12 13  1  0  0  0
 13 14  2  0  0  0
 14 15  1  0  0  0
 15 16  2  0  0  0
 16 17  1  0  0  0
 17 18  3  0  0  0
 13  1  1  0  0  0
  1  2  2  0  0  0
  2  3  1  0  0  0
  3 19  1  0  0  0
 19 20  1  0  0  0
 20 21  2  0  0  0
 20 23  1  0  0  0
 23 24  1  0  0  0
 24 25  1  0  0  0
 23 26  1  0  0  0
 26 27  3  0  0  0
  3  4  2  0  0  0
  4  5  1  0  0  0
  5  6  2  0  0  0
  6  7  1  0  0  0
  7  8  2  0  0  0
  8  9  1  0  0  0
 16 11  1  0  0  0
  9  1  1  0  0  0
 25 23  1  0  0  0
  9  5  1  0  0  0
 19 22  1  0  0  0
M  END
> <minimizedAffinity>
14.11815

> <CNNscore>
0.5683535337

> <CNNaffinity>
7.0765495300

> <CNN_VS>
4.0219817162

> <CNNaffinity_variance>
1.2514764071

$$$$
[H]c1nc2c([H])c(N([H])C(=O)C3(C#N)C([H])([H])C3([H])[H])c([H])c(-c3c([H])c([H])c(C#N)c(F)c3[H])n2n1


 27 30  0  0  0  0  0  0  0  0999 V2000
   13.8272   24.3193   -1.8317 C   0  0  0  0  0  0  0  0  0  0  0  0
   12.5001   23.9144   -1.6955 C   0  0  0  0  0  0  0  0  0  0  0  0
   12.0695   23.5579   -0.4477 C   0  0  0  0  0  0  0  0  0  0  0  0
   12.9614   23.6115    0.6252 C   0  0  0  0  0  0  0  0  0  0  0  0
   14.2360   24.0107    0.4384 C   0  0  0  0  0  0  0  0  0  0  0  0
   15.2945   24.1559    1.2777 N   0  0  0  0  0  0  0  0  0  0  0  0
   16.3399   24.5894    0.5597 C   0  0  0  0  0  0  0  0  0  0  0  0
   15.9266   24.7118   -0.7230 N   0  0  0  0  0  0  0  0  0  0  0  0
   14.6476   24.3590   -0.7919 N   0  0  0  0  0  0  0  0  0  0  0  0
   13.7660   27.4593   -5.4712 F   0  0  0  0  0  0  0  0  0  0  0  0
   14.2476   26.3090   -4.9707 C   0  0  0  0  0  0  0  0  0  0  0  0
   13.8381   25.8781   -3.7134 C   0  0  0  0  0  0  0  0  0  0  0  0
   14.3053   24.7048   -3.1589 C   0  0  0  0  0  0  0  0  0  0  0  0
   15.1986   23.9271   -3.8496 C   0  0  0  0  0  0  0  0  0  0  0  0
   15.6276   24.3249   -5.1028 C   0  0  0  0  0  0  0  0  0  0  0  0
   15.1493   25.4958   -5.6342 C   0  0  0  0  0  0  0  0  0  0  0  0
   15.6068   25.8947   -6.9401 C   0  0  0  0  0  0  0  0  0  0  0  0
   15.9857   26.2000   -7.9842 N   0  0  0  0  0  0  0  0  0  0  0  0
   10.7584   23.1543   -0.1849 N   0  0  0  0  0  0  0  0  0  0  0  0
   10.3036   21.8367   -0.1065 C   0  0  0  0  0  0  0  0  0  0  0  0
   10.9964   20.8056   -0.2642 O   0  0  0  0  0  0  0  0  0  0  0  0
   10.0425   23.9214   -0.0270 H   0  0  0  0  0  0  0  0  0  0  0  0
    8.8420   21.5689    0.1955 C   0  0  0  0  0  0  0  0  0  0  0  0
    8.4842   21.7429    1.6169 C   0  0  0  0  0  0  0  0  0  0  0  0
    7.9871   22.7343    0.5904 C   0  0  0  0  0  0  0  0  0  0  0  0
    8.2047   20.4693   -0.5359 C   0  0  0  0  0  0  0  0  0  0  0  0
    7.6790   19.5986   -1.1224 N   0  0  0  0  0  0  0  0  0  0  0  0
 10 11  1  0  0  0
 11 12  2  0  0  0
 12 13  1  0  0  0
 13 14  2  0  0  0
 14 15  1  0  0  0
 15 16  2  0  0  0
 16 17  1  0  0  0
 17 18  3  0  0  0
 13  1  1  0  0  0
  1  2  2  0  0  0
  2  3  1  0  0  0
  3 19  1  0  0  0
 19 20  1  0  0  0
 20 21  2  0  0  0
 20 23  1  0  0  0
 23 24  1  0  0  0
 24 25  1  0  0  0
 23 26  1  0  0  0
 26 27  3  0  0  0
  3  4  2  0  0  0
  4  5  1  0  0  0
  5  6  2  0  0  0
  6  7  1  0  0  0
  7  8  2  0  0  0
  8  9  1  0  0  0
 16 11  1  0  0  0
  9  1  1  0  0  0
 25 23  1  0  0  0
  9  5  1  0  0  0
 19 22  1  0  0  0
M  END
> <minimizedAffinity>
-7.77635

> <CNNscore>
0.5673021078

> <CNNaffinity>
7.3990082741

> <CNN_VS>
4.1974730492

> <CNNaffinity_variance>
0.2769585252

$$$$
[H]c1nc2c([H])c(N([H])C(=O)C3(C#N)C([H])([H])C3([H])[H])c([H])c(-c3c([H])c([H])c(C#N)c(F)c3[H])n2n1


 27 30  0  0  0  0  0  0  0  0999 V2000
   14.4862   25.1555   -3.8804 C   0  0  0  0  0  0  0  0  0  0  0  0
   14.8124   24.1695   -2.9502 C   0  0  0  0  0  0  0  0  0  0  0  0
   14.1546   24.1844   -1.7516 C   0  0  0  0  0  0  0  0  0  0  0  0
   13.1973   25.1713   -1.5086 C   0  0  0  0  0  0  0  0  0  0  0  0
   12.9197   26.1028   -2.4436 C   0  0  0  0  0  0  0  0  0  0  0  0
   12.0586   27.1531   -2.4788 N   0  0  0  0  0  0  0  0  0  0  0  0
   12.1890   27.7598   -3.6668 C   0  0  0  0  0  0  0  0  0  0  0  0
   13.1307   27.0838   -4.3649 N   0  0  0  0  0  0  0  0  0  0  0  0
   13.5719   26.0779   -3.6177 N   0  0  0  0  0  0  0  0  0  0  0  0
   16.2258   27.6346   -7.6138 F   0  0  0  0  0  0  0  0  0  0  0  0
   16.0419   26.4380   -7.0307 C   0  0  0  0  0  0  0  0  0  0  0  0
   15.3905   26.3603   -5.8044 C   0  0  0  0  0  0  0  0  0  0  0  0
   15.1791   25.1549   -5.1682 C   0  0  0  0  0  0  0  0  0  0  0  0
   15.6152   23.9892   -5.7437 C   0  0  0  0  0  0  0  0  0  0  0  0
   16.2668   24.0290   -6.9630 C   0  0  0  0  0  0  0  0  0  0  0  0
   16.4658   25.2396   -7.5771 C   0  0  0  0  0  0  0  0  0  0  0  0
   17.1462   25.2623   -8.8461 C   0  0  0  0  0  0  0  0  0  0  0  0
   17.7029   25.2928   -9.8541 N   0  0  0  0  0  0  0  0  0  0  0  0
   14.3824   23.2376   -0.7503 N   0  0  0  0  0  0  0  0  0  0  0  0
   13.7228   22.0153   -0.6088 C   0  0  0  0  0  0  0  0  0  0  0  0
   12.8178   21.5739   -1.3532 O   0  0  0  0  0  0  0  0  0  0  0  0
   15.1290   23.4682   -0.0325 H   0  0  0  0  0  0  0  0  0  0  0  0
   14.0963   21.0945    0.5365 C   0  0  0  0  0  0  0  0  0  0  0  0
   15.0334   20.0190    0.1570 C   0  0  0  0  0  0  0  0  0  0  0  0
   15.5053   21.1485    1.0431 C   0  0  0  0  0  0  0  0  0  0  0  0
   13.0366   20.7653    1.4950 C   0  0  0  0  0  0  0  0  0  0  0  0
   12.2004   20.4936    2.2732 N   0  0  0  0  0  0  0  0  0  0  0  0
 10 11  1  0  0  0
 11 12  2  0  0  0
 12 13  1  0  0  0
 13 14  2  0  0  0
 14 15  1  0  0  0
 15 16  2  0  0  0
 16 17  1  0  0  0
 17 18  3  0  0  0
 13  1  1  0  0  0
  1  2  2  0  0  0
  2  3  1  0  0  0
  3 19  1  0  0  0
 19 20  1  0  0  0
 20 21  2  0  0  0
 20 23  1  0  0  0
 23 24  1  0  0  0
 24 25  1  0  0  0
 23 26  1  0  0  0
 26 27  3  0  0  0
  3  4  2  0  0  0
  4  5  1  0  0  0
  5  6  2  0  0  0
  6  7  1  0  0  0
  7  8  2  0  0  0
  8  9  1  0  0  0
 16 11  1  0  0  0
  9  1  1  0  0  0
 25 23  1  0  0  0
  9  5  1  0  0  0
 19 22  1  0  0  0
M  END
> <minimizedAffinity>
5.42356

> <CNNscore>
0.5672371387

> <CNNaffinity>
6.8699388504

> <CNN_VS>
3.8968844414

> <CNNaffinity_variance>
0.6075495481

$$$$
[H]c1nc2c([H])c(N([H])C(=O)C3(C#N)C([H])([H])C3([H])[H])c([H])c(-c3c([H])c([H])c(C#N)c(F)c3[H])n2n1


 27 30  0  0  0  0  0  0  0  0999 V2000
   14.4005   25.5746   -3.7549 C   0  0  0  0  0  0  0  0  0  0  0  0
   15.0887   24.5839   -3.0557 C   0  0  0  0  0  0  0  0  0  0  0  0
   14.4402   23.9701   -2.0203 C   0  0  0  0  0  0  0  0  0  0  0  0
   13.1346   24.3535   -1.7071 C   0  0  0  0  0  0  0  0  0  0  0  0
   12.5143   25.3187   -2.4160 C   0  0  0  0  0  0  0  0  0  0  0  0
   11.2791   25.8789   -2.3364 N   0  0  0  0  0  0  0  0  0  0  0  0
   11.1793   26.8075   -3.2976 C   0  0  0  0  0  0  0  0  0  0  0  0
   12.3531   26.8205   -3.9708 N   0  0  0  0  0  0  0  0  0  0  0  0
   13.1613   25.9142   -3.4315 N   0  0  0  0  0  0  0  0  0  0  0  0
   15.7762   25.5176   -8.3607 F   0  0  0  0  0  0  0  0  0  0  0  0
   15.7535   26.1760   -7.1895 C   0  0  0  0  0  0  0  0  0  0  0  0
   15.1268   25.6036   -6.0878 C   0  0  0  0  0  0  0  0  0  0  0  0
   15.0782   26.2416   -4.8659 C   0  0  0  0  0  0  0  0  0  0  0  0
   15.6576   27.4748   -4.7118 C   0  0  0  0  0  0  0  0  0  0  0  0
   16.2897   28.0739   -5.7863 C   0  0  0  0  0  0  0  0  0  0  0  0
   16.3254   27.4203   -6.9921 C   0  0  0  0  0  0  0  0  0  0  0  0
   16.9877   28.0589   -8.0999 C   0  0  0  0  0  0  0  0  0  0  0  0
   17.5199   28.5853   -8.9755 N   0  0  0  0  0  0  0  0  0  0  0  0
   15.0197   22.9515   -1.2603 N   0  0  0  0  0  0  0  0  0  0  0  0
   14.4161   22.2701   -0.2018 C   0  0  0  0  0  0  0  0  0  0  0  0
   13.2607   22.4660    0.2396 O   0  0  0  0  0  0  0  0  0  0  0  0
   16.0100   22.6675   -1.5140 H   0  0  0  0  0  0  0  0  0  0  0  0
   15.1851   21.1797    0.5184 C   0  0  0  0  0  0  0  0  0  0  0  0
   14.3427   20.0575    0.9764 C   0  0  0  0  0  0  0  0  0  0  0  0
   15.3140   19.8515   -0.1628 C   0  0  0  0  0  0  0  0  0  0  0  0
   16.2802   21.6087    1.3943 C   0  0  0  0  0  0  0  0  0  0  0  0
   17.1553   21.9367    2.1049 N   0  0  0  0  0  0  0  0  0  0  0  0
 10 11  1  0  0  0
 11 12  2  0  0  0
 12 13  1  0  0  0
 13 14  2  0  0  0
 14 15  1  0  0  0
 15 16  2  0  0  0
 16 17  1  0  0  0
 17 18  3  0  0  0
 13  1  1  0  0  0
  1  2  2  0  0  0
  2  3  1  0  0  0
  3 19  1  0  0  0
 19 20  1  0  0  0
 20 21  2  0  0  0
 20 23  1  0  0  0
 23 24  1  0  0  0
 24 25  1  0  0  0
 23 26  1  0  0  0
 26 27  3  0  0  0
  3  4  2  0  0  0
  4  5  1  0  0  0
  5  6  2  0  0  0
  6  7  1  0  0  0
  7  8  2  0  0  0
  8  9  1  0  0  0
 16 11  1  0  0  0
  9  1  1  0  0  0
 25 23  1  0  0  0
  9  5  1  0  0  0
 19 22  1  0  0  0
M  END
> <minimizedAffinity>
10.94053

> <CNNscore>
0.5573437214

> <CNNaffinity>
6.8564796448

> <CNN_VS>
3.8214159012

> <CNNaffinity_variance>
0.8483044505

$$$$
[H]OC(=O)c1sc([H])c(-c2c([H])c([H])c(N3C(=O)N(c4nc([H])nc(OC([H])([H])[H])c4[H])C4(C3=O)C([H])([H])C([H])([H])N(C([H])([H])c3nc([H])c([H])c([H])c3C([H])([H])[H])C([H])([H])C4([H])[H])c([H])c2[H])c1[H]


 43 48  0  0  0  0  0  0  0  0999 V2000
   15.1917   23.8543   -0.3695 N   0  0  0  0  0  0  0  0  0  0  0  0
   14.1839   23.7546    0.6704 C   0  0  0  0  0  0  0  0  0  0  0  0
   14.4619   23.8963    1.9075 O   0  0  0  0  0  0  0  0  0  0  0  0
   12.9151   23.4899    0.1172 N   0  0  0  0  0  0  0  0  0  0  0  0
   13.1115   23.4189   -1.2920 C   0  0  0  0  0  0  0  0  0  0  0  0
   12.2137   23.1352   -2.0967 O   0  0  0  0  0  0  0  0  0  0  0  0
   14.5180   23.7294   -1.6201 C   0  0  0  0  0  0  0  0  0  0  0  0
   15.0350   22.6242   -2.5124 C   0  0  0  0  0  0  0  0  0  0  0  0
   14.7084   22.9220   -3.9642 C   0  0  0  0  0  0  0  0  0  0  0  0
   15.5196   24.0197   -4.4997 N   0  0  0  0  0  0  0  0  0  0  0  0
   15.8175   24.8789   -3.3626 C   0  0  0  0  0  0  0  0  0  0  0  0
   14.6390   25.0090   -2.4204 C   0  0  0  0  0  0  0  0  0  0  0  0
   18.4985   24.1848    1.3612 C   0  0  0  0  0  0  0  0  0  0  0  0
   17.1384   23.9952    1.1547 C   0  0  0  0  0  0  0  0  0  0  0  0
   16.5741   24.0500   -0.1016 C   0  0  0  0  0  0  0  0  0  0  0  0
   17.3978   24.2956   -1.1272 N   0  0  0  0  0  0  0  0  0  0  0  0
   18.7330   24.4852   -0.9542 C   0  0  0  0  0  0  0  0  0  0  0  0
   19.2504   24.4257    0.2813 N   0  0  0  0  0  0  0  0  0  0  0  0
   20.1103   24.8977    3.0524 C   0  0  0  0  0  0  0  0  0  0  0  0
   18.9982   24.1149    2.6542 O   0  0  0  0  0  0  0  0  0  0  0  0
   11.6862   23.3142    0.8353 C   0  0  0  0  0  0  0  0  0  0  0  0
   11.2435   22.0470    1.1615 C   0  0  0  0  0  0  0  0  0  0  0  0
   10.0687   21.8684    1.8731 C   0  0  0  0  0  0  0  0  0  0  0  0
    9.3051   22.9478    2.2771 C   0  0  0  0  0  0  0  0  0  0  0  0
    9.7266   24.2157    1.9604 C   0  0  0  0  0  0  0  0  0  0  0  0
   10.9027   24.3690    1.2500 C   0  0  0  0  0  0  0  0  0  0  0  0
    8.0700   22.7087    3.0841 C   0  0  0  0  0  0  0  0  0  0  0  0
    7.5547   23.7074    3.8620 C   0  0  0  0  0  0  0  0  0  0  0  0
    6.2063   22.9671    4.5982 S   0  0  0  0  0  0  0  0  0  0  0  0
    6.3277   21.4174    3.9057 C   0  0  0  0  0  0  0  0  0  0  0  0
    7.4339   21.5219    3.1063 C   0  0  0  0  0  0  0  0  0  0  0  0
    5.4723   20.2326    4.1037 C   0  0  0  0  0  0  0  0  0  0  0  0
    5.9991   18.9861    3.8668 O   0  0  0  0  0  0  0  0  0  0  0  0
    4.3117   20.4025    4.4751 O   0  0  0  0  0  0  0  0  0  0  0  0
    6.7037   18.5334    4.4374 H   0  0  0  0  0  0  0  0  0  0  0  0
   14.7623   24.7373   -5.4978 C   0  0  0  0  0  0  0  0  0  0  0  0
   15.1574   26.1500   -5.6832 C   0  0  0  0  0  0  0  0  0  0  0  0
   15.0485   27.0786   -4.7284 N   0  0  0  0  0  0  0  0  0  0  0  0
   15.4518   28.3476   -4.9219 C   0  0  0  0  0  0  0  0  0  0  0  0
   16.0006   28.7616   -6.1174 C   0  0  0  0  0  0  0  0  0  0  0  0
   16.1218   27.8241   -7.1141 C   0  0  0  0  0  0  0  0  0  0  0  0
   15.7064   26.5365   -6.9006 C   0  0  0  0  0  0  0  0  0  0  0  0
   15.8468   25.5445   -8.0116 C   0  0  0  0  0  0  0  0  0  0  0  0
 19 20  1  0  0  0
 20 13  1  0  0  0
 13 14  2  0  0  0
 14 15  1  0  0  0
 15 16  2  0  0  0
 16 17  1  0  0  0
 17 18  2  0  0  0
 15  1  1  0  0  0
  1  2  1  0  0  0
  2  3  2  0  0  0
  2  4  1  0  0  0
  4  5  1  0  0  0
  5  6  2  0  0  0
  5  7  1  0  0  0
  7  8  1  0  0  0
  8  9  1  0  0  0
  9 10  1  0  0  0
 10 36  1  0  0  0
 36 37  1  0  0  0
 37 38  2  0  0  0
 38 39  1  0  0  0
 39 40  2  0  0  0
 40 41  1  0  0  0
 41 42  2  0  0  0
 42 43  1  0  0  0
 10 11  1  0  0  0
 11 12  1  0  0  0
  4 21  1  0  0  0
 21 22  2  0  0  0
 22 23  1  0  0  0
 23 24  2  0  0  0
 24 25  1  0  0  0
 25 26  2  0  0  0
 24 27  1  0  0  0
 27 28  2  0  0  0
 28 29  1  0  0  0
 29 30  1  0  0  0
 30 31  2  0  0  0
 30 32  1  0  0  0
 32 33  1  0  0  0
 32 34  2  0  0  0
 18 13  1  0  0  0
  7  1  1  0  0  0
 12  7  1  0  0  0
 26 21  1  0  0  0
 31 27  1  0  0  0
 42 37  1  0  0  0
 33 35  1  0  0  0
M  END
> <minimizedAffinity>
6.62450

> <CNNscore>
0.5963651538

> <CNNaffinity>
8.0339393616

> <CNN_VS>
4.7911615372

> <CNNaffinity_variance>
0.5290725827

$$$$
[H]OC(=O)c1sc([H])c(-c2c([H])c([H])c(N3C(=O)N(c4nc([H])nc(OC([H])([H])[H])c4[H])C4(C3=O)C([H])([H])C([H])([H])N(C([H])([H])c3nc([H])c([H])c([H])c3C([H])([H])[H])C([H])([H])C4([H])[H])c([H])c2[H])c1[H]


 43 48  0  0  0  0  0  0  0  0999 V2000
   12.3330   24.9954   -1.7272 N   0  0  0  0  0  0  0  0  0  0  0  0
   11.0229   24.3996   -1.5382 C   0  0  0  0  0  0  0  0  0  0  0  0
   10.0587   24.5968   -2.3501 O   0  0  0  0  0  0  0  0  0  0  0  0
   10.9937   23.6089   -0.3720 N   0  0  0  0  0  0  0  0  0  0  0  0
   12.2985   23.6990    0.1927 C   0  0  0  0  0  0  0  0  0  0  0  0
   12.6185   23.1748    1.2684 O   0  0  0  0  0  0  0  0  0  0  0  0
   13.1747   24.4957   -0.6902 C   0  0  0  0  0  0  0  0  0  0  0  0
   13.8360   25.5579    0.1582 C   0  0  0  0  0  0  0  0  0  0  0  0
   15.1001   25.0120    0.7963 C   0  0  0  0  0  0  0  0  0  0  0  0
   16.1768   24.8250   -0.1812 N   0  0  0  0  0  0  0  0  0  0  0  0
   15.5138   24.5443   -1.4468 C   0  0  0  0  0  0  0  0  0  0  0  0
   14.2965   23.6608   -1.2706 C   0  0  0  0  0  0  0  0  0  0  0  0
   12.3234   27.9363   -4.0488 C   0  0  0  0  0  0  0  0  0  0  0  0
   11.9808   27.0875   -3.0046 C   0  0  0  0  0  0  0  0  0  0  0  0
   12.6368   25.8953   -2.7849 C   0  0  0  0  0  0  0  0  0  0  0  0
   13.6291   25.5841   -3.6270 N   0  0  0  0  0  0  0  0  0  0  0  0
   13.9857   26.3961   -4.6576 C   0  0  0  0  0  0  0  0  0  0  0  0
   13.3270   27.5490   -4.8440 N   0  0  0  0  0  0  0  0  0  0  0  0
   11.9341   30.2698   -3.4407 C   0  0  0  0  0  0  0  0  0  0  0  0
   11.6197   29.1219   -4.2098 O   0  0  0  0  0  0  0  0  0  0  0  0
    9.8708   22.8792    0.1414 C   0  0  0  0  0  0  0  0  0  0  0  0
    9.9965   21.5424    0.4660 C   0  0  0  0  0  0  0  0  0  0  0  0
    8.9234   20.8348    0.9820 C   0  0  0  0  0  0  0  0  0  0  0  0
    7.6980   21.4411    1.1871 C   0  0  0  0  0  0  0  0  0  0  0  0
    7.5518   22.7687    0.8683 C   0  0  0  0  0  0  0  0  0  0  0  0
    8.6371   23.4544    0.3552 C   0  0  0  0  0  0  0  0  0  0  0  0
    6.5827   20.6502    1.7907 C   0  0  0  0  0  0  0  0  0  0  0  0
    5.9379   21.1124    2.9037 C   0  0  0  0  0  0  0  0  0  0  0  0
    4.8015   19.8835    3.2303 S   0  0  0  0  0  0  0  0  0  0  0  0
    5.1693   18.8190    1.9545 C   0  0  0  0  0  0  0  0  0  0  0  0
    6.1841   19.4618    1.2984 C   0  0  0  0  0  0  0  0  0  0  0  0
    4.5664   17.5160    1.6176 C   0  0  0  0  0  0  0  0  0  0  0  0
    4.3108   16.6212    2.6281 O   0  0  0  0  0  0  0  0  0  0  0  0
    4.3128   17.2746    0.4380 O   0  0  0  0  0  0  0  0  0  0  0  0
    3.5961   16.7326    3.3379 H   0  0  0  0  0  0  0  0  0  0  0  0
   17.0050   23.7124    0.2197 C   0  0  0  0  0  0  0  0  0  0  0  0
   16.2804   22.4412    0.4326 C   0  0  0  0  0  0  0  0  0  0  0  0
   16.1057   21.8831    1.6341 N   0  0  0  0  0  0  0  0  0  0  0  0
   15.4094   20.7429    1.7936 C   0  0  0  0  0  0  0  0  0  0  0  0
   14.8365   20.0854    0.7252 C   0  0  0  0  0  0  0  0  0  0  0  0
   15.0037   20.6405   -0.5202 C   0  0  0  0  0  0  0  0  0  0  0  0
   15.7154   21.8019   -0.6651 C   0  0  0  0  0  0  0  0  0  0  0  0
   15.8833   22.3730   -2.0375 C   0  0  0  0  0  0  0  0  0  0  0  0
 19 20  1  0  0  0
 20 13  1  0  0  0
 13 14  2  0  0  0
 14 15  1  0  0  0
 15 16  2  0  0  0
 16 17  1  0  0  0
 17 18  2  0  0  0
 15  1  1  0  0  0
  1  2  1  0  0  0
  2  3  2  0  0  0
  2  4  1  0  0  0
  4  5  1  0  0  0
  5  6  2  0  0  0
  5  7  1  0  0  0
  7  8  1  0  0  0
  8  9  1  0  0  0
  9 10  1  0  0  0
 10 36  1  0  0  0
 36 37  1  0  0  0
 37 38  2  0  0  0
 38 39  1  0  0  0
 39 40  2  0  0  0
 40 41  1  0  0  0
 41 42  2  0  0  0
 42 43  1  0  0  0
 10 11  1  0  0  0
 11 12  1  0  0  0
  4 21  1  0  0  0
 21 22  2  0  0  0
 22 23  1  0  0  0
 23 24  2  0  0  0
 24 25  1  0  0  0
 25 26  2  0  0  0
 24 27  1  0  0  0
 27 28  2  0  0  0
 28 29  1  0  0  0
 29 30  1  0  0  0
 30 31  2  0  0  0
 30 32  1  0  0  0
 32 33  1  0  0  0
 32 34  2  0  0  0
 18 13  1  0  0  0
  7  1  1  0  0  0
 12  7  1  0  0  0
 26 21  1  0  0  0
 31 27  1  0  0  0
 42 37  1  0  0  0
 33 35  1  0  0  0
M  END
> <minimizedAffinity>
6.74265

> <CNNscore>
0.5941680670

> <CNNaffinity>
7.8732323647

> <CNN_VS>
4.6780233383

> <CNNaffinity_variance>
1.0319739580

$$$$
[H]OC(=O)c1sc([H])c(-c2c([H])c([H])c(N3C(=O)N(c4nc([H])nc(OC([H])([H])[H])c4[H])C4(C3=O)C([H])([H])C([H])([H])N(C([H])([H])c3nc([H])c([H])c([H])c3C([H])([H])[H])C([H])([H])C4([H])[H])c([H])c2[H])c1[H]


 43 48  0  0  0  0  0  0  0  0999 V2000
   16.1831   24.2096   -0.3776 N   0  0  0  0  0  0  0  0  0  0  0  0
   15.0302   23.6418    0.2972 C   0  0  0  0  0  0  0  0  0  0  0  0
   15.1022   23.1388    1.4674 O   0  0  0  0  0  0  0  0  0  0  0  0
   13.8792   23.7336   -0.5108 N   0  0  0  0  0  0  0  0  0  0  0  0
   14.2986   24.3665   -1.7161 C   0  0  0  0  0  0  0  0  0  0  0  0
   13.5540   24.5536   -2.6882 O   0  0  0  0  0  0  0  0  0  0  0  0
   15.7220   24.7482   -1.6148 C   0  0  0  0  0  0  0  0  0  0  0  0
   16.4274   24.2161   -2.8414 C   0  0  0  0  0  0  0  0  0  0  0  0
   16.3194   25.2087   -3.9843 C   0  0  0  0  0  0  0  0  0  0  0  0
   17.1495   26.3972   -3.7650 N   0  0  0  0  0  0  0  0  0  0  0  0
   17.2215   26.5649   -2.3204 C   0  0  0  0  0  0  0  0  0  0  0  0
   15.9042   26.2511   -1.6424 C   0  0  0  0  0  0  0  0  0  0  0  0
   19.1071   24.5728    1.9371 C   0  0  0  0  0  0  0  0  0  0  0  0
   17.8090   24.6155    1.4458 C   0  0  0  0  0  0  0  0  0  0  0  0
   17.4946   24.1960    0.1710 C   0  0  0  0  0  0  0  0  0  0  0  0
   18.5011   23.7400   -0.5838 N   0  0  0  0  0  0  0  0  0  0  0  0
   19.7812   23.6869   -0.1286 C   0  0  0  0  0  0  0  0  0  0  0  0
   20.0535   24.1031    1.1166 N   0  0  0  0  0  0  0  0  0  0  0  0
   20.1513   24.2537    4.1221 C   0  0  0  0  0  0  0  0  0  0  0  0
   19.3506   25.0111    3.2314 O   0  0  0  0  0  0  0  0  0  0  0  0
   12.5626   23.2682   -0.1838 C   0  0  0  0  0  0  0  0  0  0  0  0
   12.2680   21.9193   -0.2288 C   0  0  0  0  0  0  0  0  0  0  0  0
   11.0053   21.4585    0.1056 C   0  0  0  0  0  0  0  0  0  0  0  0
   10.0043   22.3300    0.4925 C   0  0  0  0  0  0  0  0  0  0  0  0
   10.2763   23.6751    0.5411 C   0  0  0  0  0  0  0  0  0  0  0  0
   11.5440   24.1113    0.2035 C   0  0  0  0  0  0  0  0  0  0  0  0
    8.6716   21.7826    0.8900 C   0  0  0  0  0  0  0  0  0  0  0  0
    7.7964   21.3465   -0.0650 C   0  0  0  0  0  0  0  0  0  0  0  0
    6.4395   20.8611    0.8469 S   0  0  0  0  0  0  0  0  0  0  0  0
    7.0115   21.2207    2.4088 C   0  0  0  0  0  0  0  0  0  0  0  0
    8.2650   21.7170    2.1722 C   0  0  0  0  0  0  0  0  0  0  0  0
    6.3429   21.0563    3.7129 C   0  0  0  0  0  0  0  0  0  0  0  0
    7.1109   20.8310    4.8294 O   0  0  0  0  0  0  0  0  0  0  0  0
    5.1151   21.1262    3.7555 O   0  0  0  0  0  0  0  0  0  0  0  0
    7.7211   21.5135    5.2640 H   0  0  0  0  0  0  0  0  0  0  0  0
   16.5245   27.5431   -4.3819 C   0  0  0  0  0  0  0  0  0  0  0  0
   15.0745   27.4016   -4.6339 C   0  0  0  0  0  0  0  0  0  0  0  0
   14.1367   27.6665   -3.7195 N   0  0  0  0  0  0  0  0  0  0  0  0
   12.8242   27.5605   -3.9961 C   0  0  0  0  0  0  0  0  0  0  0  0
   12.3726   27.1721   -5.2399 C   0  0  0  0  0  0  0  0  0  0  0  0
   13.3188   26.8938   -6.1960 C   0  0  0  0  0  0  0  0  0  0  0  0
   14.6509   27.0068   -5.8979 C   0  0  0  0  0  0  0  0  0  0  0  0
   15.6531   26.6882   -6.9620 C   0  0  0  0  0  0  0  0  0  0  0  0
 19 20  1  0  0  0
 20 13  1  0  0  0
 13 14  2  0  0  0
 14 15  1  0  0  0
 15 16  2  0  0  0
 16 17  1  0  0  0
 17 18  2  0  0  0
 15  1  1  0  0  0
  1  2  1  0  0  0
  2  3  2  0  0  0
  2  4  1  0  0  0
  4  5  1  0  0  0
  5  6  2  0  0  0
  5  7  1  0  0  0
  7  8  1  0  0  0
  8  9  1  0  0  0
  9 10  1  0  0  0
 10 36  1  0  0  0
 36 37  1  0  0  0
 37 38  2  0  0  0
 38 39  1  0  0  0
 39 40  2  0  0  0
 40 41  1  0  0  0
 41 42  2  0  0  0
 42 43  1  0  0  0
 10 11  1  0  0  0
 11 12  1  0  0  0
  4 21  1  0  0  0
 21 22  2  0  0  0
 22 23  1  0  0  0
 23 24  2  0  0  0
 24 25  1  0  0  0
 25 26  2  0  0  0
 24 27  1  0  0  0
 27 28  2  0  0  0
 28 29  1  0  0  0
 29 30  1  0  0  0
 30 31  2  0  0  0
 30 32  1  0  0  0
 32 33  1  0  0  0
 32 34  2  0  0  0
 18 13  1  0  0  0
  7  1  1  0  0  0
 12  7  1  0  0  0
 26 21  1  0  0  0
 31 27  1  0  0  0
 42 37  1  0  0  0
 33 35  1  0  0  0
M  END
> <minimizedAffinity>
12.91123

> <CNNscore>
0.5732892156

> <CNNaffinity>
7.9640526772

> <CNN_VS>
4.5657052994

> <CNNaffinity_variance>
0.5826424360

$$$$
[H]OC(=O)c1sc([H])c(-c2c([H])c([H])c(N3C(=O)N(c4nc([H])nc(OC([H])([H])[H])c4[H])C4(C3=O)C([H])([H])C([H])([H])N(C([H])([H])c3nc([H])c([H])c([H])c3C([H])([H])[H])C([H])([H])C4([H])[H])c([H])c2[H])c1[H]


 43 48  0  0  0  0  0  0  0  0999 V2000
   13.4594   25.1151   -1.3775 N   0  0  0  0  0  0  0  0  0  0  0  0
   12.3375   25.7515   -0.7118 C   0  0  0  0  0  0  0  0  0  0  0  0
   11.7728   26.7981   -1.1738 O   0  0  0  0  0  0  0  0  0  0  0  0
   11.9931   25.0589    0.4662 N   0  0  0  0  0  0  0  0  0  0  0  0
   12.9039   23.9672    0.5568 C   0  0  0  0  0  0  0  0  0  0  0  0
   12.9349   23.1765    1.5097 O   0  0  0  0  0  0  0  0  0  0  0  0
   13.7752   23.9389   -0.6357 C   0  0  0  0  0  0  0  0  0  0  0  0
   15.2063   23.8558   -0.1556 C   0  0  0  0  0  0  0  0  0  0  0  0
   15.6018   22.4091    0.0761 C   0  0  0  0  0  0  0  0  0  0  0  0
   15.7599   21.6708   -1.1807 N   0  0  0  0  0  0  0  0  0  0  0  0
   14.8480   22.3019   -2.1243 C   0  0  0  0  0  0  0  0  0  0  0  0
   13.5394   22.7007   -1.4747 C   0  0  0  0  0  0  0  0  0  0  0  0
   15.8107   26.8052   -3.7555 C   0  0  0  0  0  0  0  0  0  0  0  0
   15.2559   26.3278   -2.5753 C   0  0  0  0  0  0  0  0  0  0  0  0
   14.0657   25.6330   -2.5545 C   0  0  0  0  0  0  0  0  0  0  0  0
   13.4583   25.4335   -3.7301 N   0  0  0  0  0  0  0  0  0  0  0  0
   13.9785   25.8895   -4.9006 C   0  0  0  0  0  0  0  0  0  0  0  0
   15.1382   26.5624   -4.8861 N   0  0  0  0  0  0  0  0  0  0  0  0
   17.6880   27.6959   -2.4716 C   0  0  0  0  0  0  0  0  0  0  0  0
   17.0131   27.4965   -3.7015 O   0  0  0  0  0  0  0  0  0  0  0  0
   10.9478   25.4000    1.3870 C   0  0  0  0  0  0  0  0  0  0  0  0
    9.7676   24.6823    1.4001 C   0  0  0  0  0  0  0  0  0  0  0  0
    8.7608   24.9909    2.2999 C   0  0  0  0  0  0  0  0  0  0  0  0
    8.9044   26.0227    3.2088 C   0  0  0  0  0  0  0  0  0  0  0  0
   10.0691   26.7500    3.2101 C   0  0  0  0  0  0  0  0  0  0  0  0
   11.0600   26.4230    2.3031 C   0  0  0  0  0  0  0  0  0  0  0  0
    7.8106   26.2884    4.1922 C   0  0  0  0  0  0  0  0  0  0  0  0
    7.4431   25.3228    5.0870 C   0  0  0  0  0  0  0  0  0  0  0  0
    6.1688   26.0590    5.9485 S   0  0  0  0  0  0  0  0  0  0  0  0
    6.1328   27.5655    5.1576 C   0  0  0  0  0  0  0  0  0  0  0  0
    7.1319   27.4509    4.2290 C   0  0  0  0  0  0  0  0  0  0  0  0
    5.2507   28.7244    5.3883 C   0  0  0  0  0  0  0  0  0  0  0  0
    5.5089   29.8985    4.7233 O   0  0  0  0  0  0  0  0  0  0  0  0
    4.3105   28.5992    6.1722 O   0  0  0  0  0  0  0  0  0  0  0  0
    5.3860   30.0432    3.7278 H   0  0  0  0  0  0  0  0  0  0  0  0
   15.4052   20.2864   -0.9753 C   0  0  0  0  0  0  0  0  0  0  0  0
   14.1873   20.0688   -0.1656 C   0  0  0  0  0  0  0  0  0  0  0  0
   14.1763   20.0841    1.1706 N   0  0  0  0  0  0  0  0  0  0  0  0
   13.0415   19.9175    1.8740 C   0  0  0  0  0  0  0  0  0  0  0  0
   11.8248   19.7213    1.2550 C   0  0  0  0  0  0  0  0  0  0  0  0
   11.8118   19.7010   -0.1185 C   0  0  0  0  0  0  0  0  0  0  0  0
   12.9761   19.8724   -0.8194 C   0  0  0  0  0  0  0  0  0  0  0  0
   12.9248   19.8367   -2.3140 C   0  0  0  0  0  0  0  0  0  0  0  0
 19 20  1  0  0  0
 20 13  1  0  0  0
 13 14  2  0  0  0
 14 15  1  0  0  0
 15 16  2  0  0  0
 16 17  1  0  0  0
 17 18  2  0  0  0
 15  1  1  0  0  0
  1  2  1  0  0  0
  2  3  2  0  0  0
  2  4  1  0  0  0
  4  5  1  0  0  0
  5  6  2  0  0  0
  5  7  1  0  0  0
  7  8  1  0  0  0
  8  9  1  0  0  0
  9 10  1  0  0  0
 10 36  1  0  0  0
 36 37  1  0  0  0
 37 38  2  0  0  0
 38 39  1  0  0  0
 39 40  2  0  0  0
 40 41  1  0  0  0
 41 42  2  0  0  0
 42 43  1  0  0  0
 10 11  1  0  0  0
 11 12  1  0  0  0
  4 21  1  0  0  0
 21 22  2  0  0  0
 22 23  1  0  0  0
 23 24  2  0  0  0
 24 25  1  0  0  0
 25 26  2  0  0  0
 24 27  1  0  0  0
 27 28  2  0  0  0
 28 29  1  0  0  0
 29 30  1  0  0  0
 30 31  2  0  0  0
 30 32  1  0  0  0
 32 33  1  0  0  0
 32 34  2  0  0  0
 18 13  1  0  0  0
  7  1  1  0  0  0
 12  7  1  0  0  0
 26 21  1  0  0  0
 31 27  1  0  0  0
 42 37  1  0  0  0
 33 35  1  0  0  0
M  END
> <minimizedAffinity>
9.93567

> <CNNscore>
0.5640301704

> <CNNaffinity>
7.6726121902

> <CNN_VS>
4.3275847435

> <CNNaffinity_variance>
1.0310782194

$$$$
[H]OC(=O)c1sc([H])c(-c2c([H])c([H])c(N3C(=O)N(c4nc([H])nc(OC([H])([H])[H])c4[H])C4(C3=O)C([H])([H])C([H])([H])N(C([H])([H])c3nc([H])c([H])c([H])c3C([H])([H])[H])C([H])([H])C4([H])[H])c([H])c2[H])c1[H]


 43 48  0  0  0  0  0  0  0  0999 V2000
   12.5119   25.0042   -1.7255 N   0  0  0  0  0  0  0  0  0  0  0  0
   11.2105   24.4798   -1.3537 C   0  0  0  0  0  0  0  0  0  0  0  0
   10.1677   24.6726   -2.0632 O   0  0  0  0  0  0  0  0  0  0  0  0
   11.2851   23.7604   -0.1442 N   0  0  0  0  0  0  0  0  0  0  0  0
   12.6484   23.8244    0.2638 C   0  0  0  0  0  0  0  0  0  0  0  0
   13.0695   23.3499    1.3277 O   0  0  0  0  0  0  0  0  0  0  0  0
   13.4474   24.5284   -0.7600 C   0  0  0  0  0  0  0  0  0  0  0  0
   14.2414   25.6073   -0.0596 C   0  0  0  0  0  0  0  0  0  0  0  0
   15.5486   25.0432    0.4658 C   0  0  0  0  0  0  0  0  0  0  0  0
   16.4983   24.7516   -0.6126 N   0  0  0  0  0  0  0  0  0  0  0  0
   15.6845   24.4278   -1.7757 C   0  0  0  0  0  0  0  0  0  0  0  0
   14.4627   23.6115   -1.4089 C   0  0  0  0  0  0  0  0  0  0  0  0
   13.9242   26.4911   -4.8613 C   0  0  0  0  0  0  0  0  0  0  0  0
   13.7648   25.6646   -3.7569 C   0  0  0  0  0  0  0  0  0  0  0  0
   12.7264   25.8266   -2.8651 C   0  0  0  0  0  0  0  0  0  0  0  0
   11.8672   26.8232   -3.1080 N   0  0  0  0  0  0  0  0  0  0  0  0
   11.9990   27.6476   -4.1812 C   0  0  0  0  0  0  0  0  0  0  0  0
   13.0207   27.4632   -5.0297 N   0  0  0  0  0  0  0  0  0  0  0  0
   15.5760   24.9836   -5.8437 C   0  0  0  0  0  0  0  0  0  0  0  0
   14.9933   26.2692   -5.7183 O   0  0  0  0  0  0  0  0  0  0  0  0
   10.2015   23.1129    0.5367 C   0  0  0  0  0  0  0  0  0  0  0  0
   10.4547   22.2079    1.5491 C   0  0  0  0  0  0  0  0  0  0  0  0
    9.4144   21.5935    2.2265 C   0  0  0  0  0  0  0  0  0  0  0  0
    8.0959   21.8647    1.9117 C   0  0  0  0  0  0  0  0  0  0  0  0
    7.8231   22.7595    0.9065 C   0  0  0  0  0  0  0  0  0  0  0  0
    8.8778   23.3607    0.2451 C   0  0  0  0  0  0  0  0  0  0  0  0
    7.0067   21.2139    2.7017 C   0  0  0  0  0  0  0  0  0  0  0  0
    6.0170   21.9731    3.2606 C   0  0  0  0  0  0  0  0  0  0  0  0
    5.0558   20.8200    4.0699 S   0  0  0  0  0  0  0  0  0  0  0  0
    5.9273   19.4107    3.6822 C   0  0  0  0  0  0  0  0  0  0  0  0
    6.9601   19.8859    2.9198 C   0  0  0  0  0  0  0  0  0  0  0  0
    5.6640   18.0109    4.0642 C   0  0  0  0  0  0  0  0  0  0  0  0
    4.3781   17.5330    3.9907 O   0  0  0  0  0  0  0  0  0  0  0  0
    6.6091   17.3171    4.4376 O   0  0  0  0  0  0  0  0  0  0  0  0
    3.8688   17.3611    3.1316 H   0  0  0  0  0  0  0  0  0  0  0  0
   17.3241   23.6281   -0.2379 C   0  0  0  0  0  0  0  0  0  0  0  0
   16.5850   22.4565    0.2791 C   0  0  0  0  0  0  0  0  0  0  0  0
   16.5598   22.1099    1.5695 N   0  0  0  0  0  0  0  0  0  0  0  0
   15.8465   21.0570    2.0088 C   0  0  0  0  0  0  0  0  0  0  0  0
   15.1007   20.2756    1.1513 C   0  0  0  0  0  0  0  0  0  0  0  0
   15.1121   20.6127   -0.1803 C   0  0  0  0  0  0  0  0  0  0  0  0
   15.8436   21.6877   -0.6109 C   0  0  0  0  0  0  0  0  0  0  0  0
   15.8383   22.0203   -2.0694 C   0  0  0  0  0  0  0  0  0  0  0  0
 19 20  1  0  0  0
 20 13  1  0  0  0
 13 14  2  0  0  0
 14 15  1  0  0  0
 15 16  2  0  0  0
 16 17  1  0  0  0
 17 18  2  0  0  0
 15  1  1  0  0  0
  1  2  1  0  0  0
  2  3  2  0  0  0
  2  4  1  0  0  0
  4  5  1  0  0  0
  5  6  2  0  0  0
  5  7  1  0  0  0
  7  8  1  0  0  0
  8  9  1  0  0  0
  9 10  1  0  0  0
 10 36  1  0  0  0
 36 37  1  0  0  0
 37 38  2  0  0  0
 38 39  1  0  0  0
 39 40  2  0  0  0
 40 41  1  0  0  0
 41 42  2  0  0  0
 42 43  1  0  0  0
 10 11  1  0  0  0
 11 12  1  0  0  0
  4 21  1  0  0  0
 21 22  2  0  0  0
 22 23  1  0  0  0
 23 24  2  0  0  0
 24 25  1  0  0  0
 25 26  2  0  0  0
 24 27  1  0  0  0
 27 28  2  0  0  0
 28 29  1  0  0  0
 29 30  1  0  0  0
 30 31  2  0  0  0
 30 32  1  0  0  0
 32 33  1  0  0  0
 32 34  2  0  0  0
 18 13  1  0  0  0
  7  1  1  0  0  0
 12  7  1  0  0  0
 26 21  1  0  0  0
 31 27  1  0  0  0
 42 37  1  0  0  0
 33 35  1  0  0  0
M  END
> <minimizedAffinity>
7.06376

> <CNNscore>
0.5391094089

> <CNNaffinity>
7.7628388405

> <CNN_VS>
4.1850194931

> <CNNaffinity_variance>
0.5084767342

$$$$
[H]OC(=O)c1sc([H])c(-c2c([H])c([H])c(N3C(=O)N(c4nc([H])nc(OC([H])([H])[H])c4[H])C4(C3=O)C([H])([H])C([H])([H])N(C([H])([H])c3nc([H])c([H])c([H])c3C([H])([H])[H])C([H])([H])C4([H])[H])c([H])c2[H])c1[H]


 43 48  0  0  0  0  0  0  0  0999 V2000
   15.6235   24.0566   -0.3158 N   0  0  0  0  0  0  0  0  0  0  0  0
   14.4411   23.4755    0.2935 C   0  0  0  0  0  0  0  0  0  0  0  0
   14.4278   23.0599    1.4997 O   0  0  0  0  0  0  0  0  0  0  0  0
   13.3673   23.4482   -0.6187 N   0  0  0  0  0  0  0  0  0  0  0  0
   13.8665   24.0173   -1.8255 C   0  0  0  0  0  0  0  0  0  0  0  0
   13.2076   24.0955   -2.8714 O   0  0  0  0  0  0  0  0  0  0  0  0
   15.2545   24.4819   -1.6260 C   0  0  0  0  0  0  0  0  0  0  0  0
   16.0956   23.9046   -2.7415 C   0  0  0  0  0  0  0  0  0  0  0  0
   16.0473   24.8077   -3.9601 C   0  0  0  0  0  0  0  0  0  0  0  0
   16.7958   26.0519   -3.7565 N   0  0  0  0  0  0  0  0  0  0  0  0
   16.7248   26.3235   -2.3278 C   0  0  0  0  0  0  0  0  0  0  0  0
   15.3666   25.9868   -1.7488 C   0  0  0  0  0  0  0  0  0  0  0  0
   19.2640   23.7893    0.5295 C   0  0  0  0  0  0  0  0  0  0  0  0
   18.0629   23.6611   -0.1555 C   0  0  0  0  0  0  0  0  0  0  0  0
   16.8773   24.1524    0.3474 C   0  0  0  0  0  0  0  0  0  0  0  0
   16.9294   24.7655    1.5357 N   0  0  0  0  0  0  0  0  0  0  0  0
   18.0911   24.9052    2.2282 C   0  0  0  0  0  0  0  0  0  0  0  0
   19.2272   24.4156    1.7110 N   0  0  0  0  0  0  0  0  0  0  0  0
   20.3576   22.3076   -1.0752 C   0  0  0  0  0  0  0  0  0  0  0  0
   20.4199   23.2709   -0.0377 O   0  0  0  0  0  0  0  0  0  0  0  0
   12.0497   22.9359   -0.3771 C   0  0  0  0  0  0  0  0  0  0  0  0
   11.3866   23.2406    0.7958 C   0  0  0  0  0  0  0  0  0  0  0  0
   10.1058   22.7678    1.0288 C   0  0  0  0  0  0  0  0  0  0  0  0
    9.4537   21.9789    0.0995 C   0  0  0  0  0  0  0  0  0  0  0  0
   10.0967   21.6624   -1.0718 C   0  0  0  0  0  0  0  0  0  0  0  0
   11.3745   22.1464   -1.2823 C   0  0  0  0  0  0  0  0  0  0  0  0
    8.0542   21.5314    0.3736 C   0  0  0  0  0  0  0  0  0  0  0  0
    7.1386   21.4821   -0.6401 C   0  0  0  0  0  0  0  0  0  0  0  0
    5.7179   20.9627    0.1472 S   0  0  0  0  0  0  0  0  0  0  0  0
    6.3157   20.8211    1.7342 C   0  0  0  0  0  0  0  0  0  0  0  0
    7.6279   21.1884    1.6041 C   0  0  0  0  0  0  0  0  0  0  0  0
    5.6160   20.4132    2.9666 C   0  0  0  0  0  0  0  0  0  0  0  0
    5.2819   21.3741    3.8898 O   0  0  0  0  0  0  0  0  0  0  0  0
    5.3553   19.2212    3.1259 O   0  0  0  0  0  0  0  0  0  0  0  0
    4.5715   22.0850    3.7595 H   0  0  0  0  0  0  0  0  0  0  0  0
   16.1770   27.1165   -4.5104 C   0  0  0  0  0  0  0  0  0  0  0  0
   15.7388   26.7424   -5.8721 C   0  0  0  0  0  0  0  0  0  0  0  0
   16.5825   26.5189   -6.8841 N   0  0  0  0  0  0  0  0  0  0  0  0
   16.1487   26.1451   -8.1016 C   0  0  0  0  0  0  0  0  0  0  0  0
   14.8079   25.9716   -8.3740 C   0  0  0  0  0  0  0  0  0  0  0  0
   13.9217   26.1965   -7.3488 C   0  0  0  0  0  0  0  0  0  0  0  0
   14.3800   26.5765   -6.1152 C   0  0  0  0  0  0  0  0  0  0  0  0
   13.3851   26.8200   -5.0248 C   0  0  0  0  0  0  0  0  0  0  0  0
 19 20  1  0  0  0
 20 13  1  0  0  0
 13 14  2  0  0  0
 14 15  1  0  0  0
 15 16  2  0  0  0
 16 17  1  0  0  0
 17 18  2  0  0  0
 15  1  1  0  0  0
  1  2  1  0  0  0
  2  3  2  0  0  0
  2  4  1  0  0  0
  4  5  1  0  0  0
  5  6  2  0  0  0
  5  7  1  0  0  0
  7  8  1  0  0  0
  8  9  1  0  0  0
  9 10  1  0  0  0
 10 36  1  0  0  0
 36 37  1  0  0  0
 37 38  2  0  0  0
 38 39  1  0  0  0
 39 40  2  0  0  0
 40 41  1  0  0  0
 41 42  2  0  0  0
 42 43  1  0  0  0
 10 11  1  0  0  0
 11 12  1  0  0  0
  4 21  1  0  0  0
 21 22  2  0  0  0
 22 23  1  0  0  0
 23 24  2  0  0  0
 24 25  1  0  0  0
 25 26  2  0  0  0
 24 27  1  0  0  0
 27 28  2  0  0  0
 28 29  1  0  0  0
 29 30  1  0  0  0
 30 31  2  0  0  0
 30 32  1  0  0  0
 32 33  1  0  0  0
 32 34  2  0  0  0
 18 13  1  0  0  0
  7  1  1  0  0  0
 12  7  1  0  0  0
 26 21  1  0  0  0
 31 27  1  0  0  0
 42 37  1  0  0  0
 33 35  1  0  0  0
M  END
> <minimizedAffinity>
15.69812

> <CNNscore>
0.5158711076

> <CNNaffinity>
7.9206819534

> <CNN_VS>
4.0860509872

> <CNNaffinity_variance>
0.7559192777

$$$$
[H]OC(=O)c1sc([H])c(-c2c([H])c([H])c(N3C(=O)N(c4nc([H])nc(OC([H])([H])[H])c4[H])C4(C3=O)C([H])([H])C([H])([H])N(C([H])([H])c3nc([H])c([H])c([H])c3C([H])([H])[H])C([H])([H])C4([H])[H])c([H])c2[H])c1[H]


 43 48  0  0  0  0  0  0  0  0999 V2000
   13.2173   22.0720   -0.4280 N   0  0  0  0  0  0  0  0  0  0  0  0
   14.0696   23.0004   -1.1482 C   0  0  0  0  0  0  0  0  0  0  0  0
   15.3424   22.9608   -1.0706 O   0  0  0  0  0  0  0  0  0  0  0  0
   13.2997   23.9044   -1.9072 N   0  0  0  0  0  0  0  0  0  0  0  0
   11.9398   23.5521   -1.6711 C   0  0  0  0  0  0  0  0  0  0  0  0
   10.9777   24.1815   -2.1321 O   0  0  0  0  0  0  0  0  0  0  0  0
   11.8729   22.3516   -0.8129 C   0  0  0  0  0  0  0  0  0  0  0  0
   10.9352   22.6588    0.3323 C   0  0  0  0  0  0  0  0  0  0  0  0
    9.5012   22.3627   -0.0662 C   0  0  0  0  0  0  0  0  0  0  0  0
    9.2415   20.9233   -0.1685 N   0  0  0  0  0  0  0  0  0  0  0  0
   10.5118   20.3211   -0.5476 C   0  0  0  0  0  0  0  0  0  0  0  0
   11.2718   21.1703   -1.5449 C   0  0  0  0  0  0  0  0  0  0  0  0
   15.4389   19.6317    1.3464 C   0  0  0  0  0  0  0  0  0  0  0  0
   14.9984   20.5855    0.4383 C   0  0  0  0  0  0  0  0  0  0  0  0
   13.7159   21.0895    0.4703 C   0  0  0  0  0  0  0  0  0  0  0  0
   12.9019   20.6185    1.4223 N   0  0  0  0  0  0  0  0  0  0  0  0
   13.3064   19.6849    2.3242 C   0  0  0  0  0  0  0  0  0  0  0  0
   14.5608   19.2148    2.2655 N   0  0  0  0  0  0  0  0  0  0  0  0
   17.8235   20.0619    1.0384 C   0  0  0  0  0  0  0  0  0  0  0  0
   16.7444   19.1694    1.2553 O   0  0  0  0  0  0  0  0  0  0  0  0
   13.7933   24.9679   -2.7332 C   0  0  0  0  0  0  0  0  0  0  0  0
   15.1502   25.1134   -2.9470 C   0  0  0  0  0  0  0  0  0  0  0  0
   15.6349   26.1247   -3.7600 C   0  0  0  0  0  0  0  0  0  0  0  0
   14.7798   27.0167   -4.3799 C   0  0  0  0  0  0  0  0  0  0  0  0
   13.4275   26.8907   -4.1781 C   0  0  0  0  0  0  0  0  0  0  0  0
   12.9673   25.8732   -3.3630 C   0  0  0  0  0  0  0  0  0  0  0  0
   15.3453   28.0621   -5.2863 C   0  0  0  0  0  0  0  0  0  0  0  0
   15.3125   29.3784   -4.9198 C   0  0  0  0  0  0  0  0  0  0  0  0
   16.0200   30.1690   -6.2550 S   0  0  0  0  0  0  0  0  0  0  0  0
   16.3388   28.8187   -7.2404 C   0  0  0  0  0  0  0  0  0  0  0  0
   15.8776   27.7718   -6.4887 C   0  0  0  0  0  0  0  0  0  0  0  0
   16.9523   28.7598   -8.5801 C   0  0  0  0  0  0  0  0  0  0  0  0
   17.4916   29.9047   -9.1145 O   0  0  0  0  0  0  0  0  0  0  0  0
   16.9591   27.6829   -9.1753 O   0  0  0  0  0  0  0  0  0  0  0  0
   18.3337   30.3614   -8.7838 H   0  0  0  0  0  0  0  0  0  0  0  0
    8.2402   20.6842   -1.1809 C   0  0  0  0  0  0  0  0  0  0  0  0
    7.1871   19.7189   -0.7999 C   0  0  0  0  0  0  0  0  0  0  0  0
    7.0657   19.2047    0.4276 N   0  0  0  0  0  0  0  0  0  0  0  0
    6.0723   18.3554    0.7474 C   0  0  0  0  0  0  0  0  0  0  0  0
    5.1227   17.9675   -0.1744 C   0  0  0  0  0  0  0  0  0  0  0  0
    5.2278   18.4830   -1.4433 C   0  0  0  0  0  0  0  0  0  0  0  0
    6.2452   19.3465   -1.7523 C   0  0  0  0  0  0  0  0  0  0  0  0
    6.3324   19.8818   -3.1464 C   0  0  0  0  0  0  0  0  0  0  0  0
 19 20  1  0  0  0
 20 13  1  0  0  0
 13 14  2  0  0  0
 14 15  1  0  0  0
 15 16  2  0  0  0
 16 17  1  0  0  0
 17 18  2  0  0  0
 15  1  1  0  0  0
  1  2  1  0  0  0
  2  3  2  0  0  0
  2  4  1  0  0  0
  4  5  1  0  0  0
  5  6  2  0  0  0
  5  7  1  0  0  0
  7  8  1  0  0  0
  8  9  1  0  0  0
  9 10  1  0  0  0
 10 36  1  0  0  0
 36 37  1  0  0  0
 37 38  2  0  0  0
 38 39  1  0  0  0
 39 40  2  0  0  0
 40 41  1  0  0  0
 41 42  2  0  0  0
 42 43  1  0  0  0
 10 11  1  0  0  0
 11 12  1  0  0  0
  4 21  1  0  0  0
 21 22  2  0  0  0
 22 23  1  0  0  0
 23 24  2  0  0  0
 24 25  1  0  0  0
 25 26  2  0  0  0
 24 27  1  0  0  0
 27 28  2  0  0  0
 28 29  1  0  0  0
 29 30  1  0  0  0
 30 31  2  0  0  0
 30 32  1  0  0  0
 32 33  1  0  0  0
 32 34  2  0  0  0
 18 13  1  0  0  0
  7  1  1  0  0  0
 12  7  1  0  0  0
 26 21  1  0  0  0
 31 27  1  0  0  0
 42 37  1  0  0  0
 33 35  1  0  0  0
M  END
> <minimizedAffinity>
23.94621

> <CNNscore>
0.5106862783

> <CNNaffinity>
7.4909248352

> <CNN_VS>
3.8255124092

> <CNNaffinity_variance>
0.2830185890

$$$$
[H]OC(=O)c1sc([H])c(-c2c([H])c([H])c(N3C(=O)N(c4nc([H])nc(OC([H])([H])[H])c4[H])C4(C3=O)C([H])([H])C([H])([H])N(C([H])([H])c3nc([H])c([H])c([H])c3C([H])([H])[H])C([H])([H])C4([H])[H])c([H])c2[H])c1[H]


 43 48  0  0  0  0  0  0  0  0999 V2000
   12.6188   24.8475   -1.6262 N   0  0  0  0  0  0  0  0  0  0  0  0
   11.3184   24.2095   -1.7201 C   0  0  0  0  0  0  0  0  0  0  0  0
   10.5484   24.3715   -2.7244 O   0  0  0  0  0  0  0  0  0  0  0  0
   11.0608   23.4230   -0.5794 N   0  0  0  0  0  0  0  0  0  0  0  0
   12.2078   23.5584    0.2545 C   0  0  0  0  0  0  0  0  0  0  0  0
   12.3022   23.0495    1.3798 O   0  0  0  0  0  0  0  0  0  0  0  0
   13.2298   24.3802   -0.4255 C   0  0  0  0  0  0  0  0  0  0  0  0
   13.6568   25.4670    0.5345 C   0  0  0  0  0  0  0  0  0  0  0  0
   14.7681   24.9658    1.4383 C   0  0  0  0  0  0  0  0  0  0  0  0
   16.0371   24.8106    0.7206 N   0  0  0  0  0  0  0  0  0  0  0  0
   15.6748   24.5030   -0.6557 C   0  0  0  0  0  0  0  0  0  0  0  0
   14.4768   23.5804   -0.7387 C   0  0  0  0  0  0  0  0  0  0  0  0
   14.8694   27.0400   -3.6676 C   0  0  0  0  0  0  0  0  0  0  0  0
   14.4315   26.1594   -2.6872 C   0  0  0  0  0  0  0  0  0  0  0  0
   13.1173   25.7527   -2.6025 C   0  0  0  0  0  0  0  0  0  0  0  0
   12.2693   26.2452   -3.5131 N   0  0  0  0  0  0  0  0  0  0  0  0
   12.6703   27.1087   -4.4838 C   0  0  0  0  0  0  0  0  0  0  0  0
   13.9562   27.4848   -4.5382 N   0  0  0  0  0  0  0  0  0  0  0  0
   17.1867   26.6496   -3.0016 C   0  0  0  0  0  0  0  0  0  0  0  0
   16.2080   27.4058   -3.6932 O   0  0  0  0  0  0  0  0  0  0  0  0
    9.8765   22.6586   -0.3145 C   0  0  0  0  0  0  0  0  0  0  0  0
    9.7554   21.3697   -0.7964 C   0  0  0  0  0  0  0  0  0  0  0  0
    8.6245   20.6164   -0.5280 C   0  0  0  0  0  0  0  0  0  0  0  0
    7.5856   21.1286    0.2268 C   0  0  0  0  0  0  0  0  0  0  0  0
    7.6855   22.4089    0.7129 C   0  0  0  0  0  0  0  0  0  0  0  0
    8.8241   23.1413    0.4324 C   0  0  0  0  0  0  0  0  0  0  0  0
    6.4062   20.2622    0.5307 C   0  0  0  0  0  0  0  0  0  0  0  0
    5.5018   20.6435    1.4819 C   0  0  0  0  0  0  0  0  0  0  0  0
    4.3882   19.3519    1.4962 S   0  0  0  0  0  0  0  0  0  0  0  0
    5.0924   18.3649    0.3020 C   0  0  0  0  0  0  0  0  0  0  0  0
    6.1939   19.0815   -0.0812 C   0  0  0  0  0  0  0  0  0  0  0  0
    4.6522   17.0538   -0.2096 C   0  0  0  0  0  0  0  0  0  0  0  0
    4.4561   16.0254    0.6800 O   0  0  0  0  0  0  0  0  0  0  0  0
    4.4759   16.9258   -1.4206 O   0  0  0  0  0  0  0  0  0  0  0  0
    3.7047   15.9774    1.3583 H   0  0  0  0  0  0  0  0  0  0  0  0
   16.7926   23.7277    1.3044 C   0  0  0  0  0  0  0  0  0  0  0  0
   16.1778   22.3907    1.1609 C   0  0  0  0  0  0  0  0  0  0  0  0
   14.9097   22.1223    1.4861 N   0  0  0  0  0  0  0  0  0  0  0  0
   14.3736   20.9011    1.3082 C   0  0  0  0  0  0  0  0  0  0  0  0
   15.1032   19.8568    0.7799 C   0  0  0  0  0  0  0  0  0  0  0  0
   16.4097   20.1092    0.4387 C   0  0  0  0  0  0  0  0  0  0  0  0
   16.9400   21.3581    0.6262 C   0  0  0  0  0  0  0  0  0  0  0  0
   18.3686   21.5941    0.2502 C   0  0  0  0  0  0  0  0  0  0  0  0
 19 20  1  0  0  0
 20 13  1  0  0  0
 13 14  2  0  0  0
 14 15  1  0  0  0
 15 16  2  0  0  0
 16 17  1  0  0  0
 17 18  2  0  0  0
 15  1  1  0  0  0
  1  2  1  0  0  0
  2  3  2  0  0  0
  2  4  1  0  0  0
  4  5  1  0  0  0
  5  6  2  0  0  0
  5  7  1  0  0  0
  7  8  1  0  0  0
  8  9  1  0  0  0
  9 10  1  0  0  0
 10 36  1  0  0  0
 36 37  1  0  0  0
 37 38  2  0  0  0
 38 39  1  0  0  0
 39 40  2  0  0  0
 40 41  1  0  0  0
 41 42  2  0  0  0
 42 43  1  0  0  0
 10 11  1  0  0  0
 11 12  1  0  0  0
  4 21  1  0  0  0
 21 22  2  0  0  0
 22 23  1  0  0  0
 23 24  2  0  0  0
 24 25  1  0  0  0
 25 26  2  0  0  0
 24 27  1  0  0  0
 27 28  2  0  0  0
 28 29  1  0  0  0
 29 30  1  0  0  0
 30 31  2  0  0  0
 30 32  1  0  0  0
 32 33  1  0  0  0
 32 34  2  0  0  0
 18 13  1  0  0  0
  7  1  1  0  0  0
 12  7  1  0  0  0
 26 21  1  0  0  0
 31 27  1  0  0  0
 42 37  1  0  0  0
 33 35  1  0  0  0
M  END
> <minimizedAffinity>
6.26109

> <CNNscore>
0.4966071248

> <CNNaffinity>
7.7841901779

> <CNN_VS>
3.8656842709

> <CNNaffinity_variance>
0.5781596303

$$$$
[H]OC(=O)c1sc([H])c(-c2c([H])c([H])c(N3C(=O)N(c4nc([H])nc(OC([H])([H])[H])c4[H])C4(C3=O)C([H])([H])C([H])([H])N(C([H])([H])c3nc([H])c([H])c([H])c3C([H])([H])[H])C([H])([H])C4([H])[H])c([H])c2[H])c1[H]


 43 48  0  0  0  0  0  0  0  0999 V2000
   15.9461   24.0462   -0.3885 N   0  0  0  0  0  0  0  0  0  0  0  0
   14.7669   23.4302    0.1919 C   0  0  0  0  0  0  0  0  0  0  0  0
   14.7758   22.8929    1.3491 O   0  0  0  0  0  0  0  0  0  0  0  0
   13.6689   23.5192   -0.6869 N   0  0  0  0  0  0  0  0  0  0  0  0
   14.1491   24.1992   -1.8429 C   0  0  0  0  0  0  0  0  0  0  0  0
   13.4647   24.3984   -2.8559 O   0  0  0  0  0  0  0  0  0  0  0  0
   15.5526   24.6117   -1.6371 C   0  0  0  0  0  0  0  0  0  0  0  0
   16.3498   24.1350   -2.8297 C   0  0  0  0  0  0  0  0  0  0  0  0
   16.2905   25.1597   -3.9475 C   0  0  0  0  0  0  0  0  0  0  0  0
   17.0733   26.3604   -3.6393 N   0  0  0  0  0  0  0  0  0  0  0  0
   17.0469   26.4849   -2.1888 C   0  0  0  0  0  0  0  0  0  0  0  0
   15.6969   26.1186   -1.6084 C   0  0  0  0  0  0  0  0  0  0  0  0
   19.5636   23.4621    0.3939 C   0  0  0  0  0  0  0  0  0  0  0  0
   18.3394   23.4230   -0.2606 C   0  0  0  0  0  0  0  0  0  0  0  0
   17.2190   24.0471    0.2445 C   0  0  0  0  0  0  0  0  0  0  0  0
   17.3585   24.7003    1.4040 N   0  0  0  0  0  0  0  0  0  0  0  0
   18.5447   24.7550    2.0662 C   0  0  0  0  0  0  0  0  0  0  0  0
   19.6157   24.1368    1.5478 N   0  0  0  0  0  0  0  0  0  0  0  0
   20.5760   21.4438   -0.5376 C   0  0  0  0  0  0  0  0  0  0  0  0
   20.6503   22.8113   -0.1737 O   0  0  0  0  0  0  0  0  0  0  0  0
   12.3464   23.0123   -0.4610 C   0  0  0  0  0  0  0  0  0  0  0  0
   12.1218   22.0566    0.5108 C   0  0  0  0  0  0  0  0  0  0  0  0
   10.8449   21.5765    0.7504 C   0  0  0  0  0  0  0  0  0  0  0  0
    9.7598   22.0359    0.0274 C   0  0  0  0  0  0  0  0  0  0  0  0
    9.9624   22.9840   -0.9450 C   0  0  0  0  0  0  0  0  0  0  0  0
   11.2457   23.4486   -1.1657 C   0  0  0  0  0  0  0  0  0  0  0  0
    8.3941   21.5238    0.3536 C   0  0  0  0  0  0  0  0  0  0  0  0
    7.5738   22.2368    1.1824 C   0  0  0  0  0  0  0  0  0  0  0  0
    6.1794   21.2600    1.2802 S   0  0  0  0  0  0  0  0  0  0  0  0
    6.6673   19.9778    0.2732 C   0  0  0  0  0  0  0  0  0  0  0  0
    7.9242   20.3532   -0.1180 C   0  0  0  0  0  0  0  0  0  0  0  0
    5.9410   18.7495   -0.0989 C   0  0  0  0  0  0  0  0  0  0  0  0
    6.5966   17.7840   -0.8236 O   0  0  0  0  0  0  0  0  0  0  0  0
    4.7680   18.6322    0.2535 O   0  0  0  0  0  0  0  0  0  0  0  0
    7.3436   17.1973   -0.4704 H   0  0  0  0  0  0  0  0  0  0  0  0
   16.4601   27.5096   -4.2620 C   0  0  0  0  0  0  0  0  0  0  0  0
   15.0253   27.3530   -4.5827 C   0  0  0  0  0  0  0  0  0  0  0  0
   14.0415   27.6338   -3.7230 N   0  0  0  0  0  0  0  0  0  0  0  0
   12.7451   27.5129   -4.0623 C   0  0  0  0  0  0  0  0  0  0  0  0
   12.3583   27.0920   -5.3173 C   0  0  0  0  0  0  0  0  0  0  0  0
   13.3528   26.7969   -6.2179 C   0  0  0  0  0  0  0  0  0  0  0  0
   14.6677   26.9254   -5.8564 C   0  0  0  0  0  0  0  0  0  0  0  0
   15.7235   26.5877   -6.8610 C   0  0  0  0  0  0  0  0  0  0  0  0
 19 20  1  0  0  0
 20 13  1  0  0  0
 13 14  2  0  0  0
 14 15  1  0  0  0
 15 16  2  0  0  0
 16 17  1  0  0  0
 17 18  2  0  0  0
 15  1  1  0  0  0
  1  2  1  0  0  0
  2  3  2  0  0  0
  2  4  1  0  0  0
  4  5  1  0  0  0
  5  6  2  0  0  0
  5  7  1  0  0  0
  7  8  1  0  0  0
  8  9  1  0  0  0
  9 10  1  0  0  0
 10 36  1  0  0  0
 36 37  1  0  0  0
 37 38  2  0  0  0
 38 39  1  0  0  0
 39 40  2  0  0  0
 40 41  1  0  0  0
 41 42  2  0  0  0
 42 43  1  0  0  0
 10 11  1  0  0  0
 11 12  1  0  0  0
  4 21  1  0  0  0
 21 22  2  0  0  0
 22 23  1  0  0  0
 23 24  2  0  0  0
 24 25  1  0  0  0
 25 26  2  0  0  0
 24 27  1  0  0  0
 27 28  2  0  0  0
 28 29  1  0  0  0
 29 30  1  0  0  0
 30 31  2  0  0  0
 30 32  1  0  0  0
 32 33  1  0  0  0
 32 34  2  0  0  0
 18 13  1  0  0  0
  7  1  1  0  0  0
 12  7  1  0  0  0
 26 21  1  0  0  0
 31 27  1  0  0  0
 42 37  1  0  0  0
 33 35  1  0  0  0
M  END
> <minimizedAffinity>
16.69912

> <CNNscore>
0.4864284694

> <CNNaffinity>
8.0183801651

> <CNN_VS>
3.9003684521

> <CNNaffinity_variance>
0.9417007565

$$$$
[H]OC(=O)C([H])([H])N([H])C(=O)c1c(O[H])c2c([H])c(C([H])([H])N([H])C(=O)[C@]([H])(N([H])C(=O)[C@@]([H])(N([H])C(=O)C([H])([H])[H])C([H])([H])c3c([H])c([H])c([H])c([H])c3[H])C([H])([H])c3c([H])c([H])c([H])c([H])c3[H])c([H])c([H])c2n(C([H])([H])[H])c1=O


 53 56  0  0  0  0  0  0  0  0999 V2000
    9.2810   20.3376   -0.4494 C   0  0  0  0  0  0  0  0  0  0  0  0
    9.2156   19.0568   -0.4296 O   0  0  0  0  0  0  0  0  0  0  0  0
   10.5358   20.9623   -0.6182 N   0  0  0  0  0  0  0  0  0  0  0  0
   10.6057   22.0024   -0.6467 H   0  0  0  0  0  0  0  0  0  0  0  0
    8.0165   21.0803   -0.2896 C   0  0  0  0  0  0  0  0  0  0  0  0
    8.9034   22.4147    1.6070 C   0  0  0  0  0  0  0  0  0  0  0  0
    9.5316   21.3985    2.0305 O   0  0  0  0  0  0  0  0  0  0  0  0
    8.1299   22.3123    0.4454 N   0  0  0  0  0  0  0  0  0  0  0  0
    7.6292   23.1651    0.1186 H   0  0  0  0  0  0  0  0  0  0  0  0
    9.0584   23.6635    2.4283 C   0  0  0  0  0  0  0  0  0  0  0  0
   12.2006   25.0846    0.6144 C   0  0  0  0  0  0  0  0  0  0  0  0
   10.8926   24.4555    0.9015 C   0  0  0  0  0  0  0  0  0  0  0  0
   10.2231   24.0432   -0.0935 O   0  0  0  0  0  0  0  0  0  0  0  0
   10.3405   24.2833    2.2000 N   0  0  0  0  0  0  0  0  0  0  0  0
   10.9138   24.6307    2.9970 H   0  0  0  0  0  0  0  0  0  0  0  0
    7.9060   24.5490    2.1107 C   0  0  0  0  0  0  0  0  0  0  0  0
    7.3924   25.3266    3.2514 C   0  0  0  0  0  0  0  0  0  0  0  0
    7.3343   26.7113    3.1011 C   0  0  0  0  0  0  0  0  0  0  0  0
    6.8539   27.4716    4.1544 C   0  0  0  0  0  0  0  0  0  0  0  0
    6.4482   26.8484    5.3145 C   0  0  0  0  0  0  0  0  0  0  0  0
    6.5211   25.4566    5.4288 C   0  0  0  0  0  0  0  0  0  0  0  0
    6.9965   24.6875    4.3905 C   0  0  0  0  0  0  0  0  0  0  0  0
    6.8489   20.2181    0.0581 C   0  0  0  0  0  0  0  0  0  0  0  0
    5.8742   20.3019   -1.0687 C   0  0  0  0  0  0  0  0  0  0  0  0
    4.9277   21.3385   -0.9840 C   0  0  0  0  0  0  0  0  0  0  0  0
    3.9790   21.5208   -1.9516 C   0  0  0  0  0  0  0  0  0  0  0  0
    3.9540   20.6668   -3.0322 C   0  0  0  0  0  0  0  0  0  0  0  0
    4.8642   19.6372   -3.1540 C   0  0  0  0  0  0  0  0  0  0  0  0
    5.8104   19.4922   -2.1447 C   0  0  0  0  0  0  0  0  0  0  0  0
   11.7875   20.2448   -0.7573 C   0  0  0  0  0  0  0  0  0  0  0  0
   12.8978   21.1934   -0.5141 C   0  0  0  0  0  0  0  0  0  0  0  0
   13.5658   21.2982    0.6709 C   0  0  0  0  0  0  0  0  0  0  0  0
   14.6120   22.1984    0.8327 C   0  0  0  0  0  0  0  0  0  0  0  0
   14.9872   23.0095   -0.2349 C   0  0  0  0  0  0  0  0  0  0  0  0
   16.0063   23.8709   -0.0756 N   0  0  0  0  0  0  0  0  0  0  0  0
   16.6952   23.9572    1.1850 C   0  0  0  0  0  0  0  0  0  0  0  0
   16.3486   24.6374   -1.1419 C   0  0  0  0  0  0  0  0  0  0  0  0
   17.3082   25.4145   -0.9110 O   0  0  0  0  0  0  0  0  0  0  0  0
   15.7503   24.6114   -2.3614 C   0  0  0  0  0  0  0  0  0  0  0  0
   14.6862   23.7125   -2.5273 C   0  0  0  0  0  0  0  0  0  0  0  0
   13.9667   23.5352   -3.6467 O   0  0  0  0  0  0  0  0  0  0  0  0
   14.3258   22.9152   -1.4291 C   0  0  0  0  0  0  0  0  0  0  0  0
   13.2898   22.0166   -1.5717 C   0  0  0  0  0  0  0  0  0  0  0  0
   13.8060   23.7667   -4.5319 H   0  0  0  0  0  0  0  0  0  0  0  0
   16.1237   25.4218   -3.5033 C   0  0  0  0  0  0  0  0  0  0  0  0
   16.1250   24.8842   -4.6821 O   0  0  0  0  0  0  0  0  0  0  0  0
   16.4918   26.7592   -3.4369 N   0  0  0  0  0  0  0  0  0  0  0  0
   16.5340   27.3078   -2.5827 H   0  0  0  0  0  0  0  0  0  0  0  0
   16.8509   27.4541   -4.6888 C   0  0  0  0  0  0  0  0  0  0  0  0
   15.6490   28.0633   -5.2950 C   0  0  0  0  0  0  0  0  0  0  0  0
   15.6394   29.4271   -5.5320 O   0  0  0  0  0  0  0  0  0  0  0  0
   14.6512   27.3781   -5.5940 O   0  0  0  0  0  0  0  0  0  0  0  0
   15.3267   30.0780   -4.8161 H   0  0  0  0  0  0  0  0  0  0  0  0
 11 12  1  0  0  0
 12 13  2  0  0  0
 12 14  1  0  0  0
 14 10  1  0  0  0
 10 16  1  0  0  0
 16 17  1  0  0  0
 17 18  2  0  0  0
 18 19  1  0  0  0
 19 20  2  0  0  0
 20 21  1  0  0  0
 21 22  2  0  0  0
 10  6  1  0  0  0
  6  7  2  0  0  0
  6  8  1  0  0  0
  8  5  1  0  0  0
  5 23  1  0  0  0
 23 24  1  0  0  0
 24 25  2  0  0  0
 25 26  1  0  0  0
 26 27  2  0  0  0
 27 28  1  0  0  0
 28 29  2  0  0  0
  5  1  1  0  0  0
  1  2  2  0  0  0
  1  3  1  0  0  0
  3 30  1  0  0  0
 30 31  1  0  0  0
 31 32  2  0  0  0
 32 33  1  0  0  0
 33 34  2  0  0  0
 34 35  1  0  0  0
 35 36  1  0  0  0
 35 37  1  0  0  0
 37 38  2  0  0  0
 37 39  1  0  0  0
 39 45  1  0  0  0
 45 46  2  0  0  0
 45 47  1  0  0  0
 47 49  1  0  0  0
 49 50  1  0  0  0
 50 51  1  0  0  0
 50 52  2  0  0  0
 39 40  2  0  0  0
 40 41  1  0  0  0
 40 42  1  0  0  0
 42 43  2  0  0  0
 22 17  1  0  0  0
 29 24  1  0  0  0
 43 31  1  0  0  0
 42 34  1  0  0  0
 14 15  1  0  0  0
  8  9  1  0  0  0
  3  4  1  0  0  0
 47 48  1  0  0  0
 51 53  1  0  0  0
 41 44  1  0  0  0
M  END
> <minimizedAffinity>
-7.55373

> <CNNscore>
0.3392330706

> <CNNaffinity>
7.4279160500

> <CNN_VS>
2.5197947025

> <CNNaffinity_variance>
0.2808952630

$$$$
[H]OC(=O)C([H])([H])N([H])C(=O)c1c(O[H])c2c([H])c(C([H])([H])N([H])C(=O)[C@]([H])(N([H])C(=O)[C@@]([H])(N([H])C(=O)C([H])([H])[H])C([H])([H])c3c([H])c([H])c([H])c([H])c3[H])C([H])([H])c3c([H])c([H])c([H])c([H])c3[H])c([H])c([H])c2n(C([H])([H])[H])c1=O


 53 56  0  0  0  0  0  0  0  0999 V2000
    9.9835   21.7109   -1.7464 C   0  0  0  0  0  0  0  0  0  0  0  0
    9.8704   21.4740   -3.0019 O   0  0  0  0  0  0  0  0  0  0  0  0
    9.0156   21.1963   -0.8568 N   0  0  0  0  0  0  0  0  0  0  0  0
    9.0978   21.3710    0.1680 H   0  0  0  0  0  0  0  0  0  0  0  0
   11.1382   22.5208   -1.3140 C   0  0  0  0  0  0  0  0  0  0  0  0
   12.3903   21.0142    0.2112 C   0  0  0  0  0  0  0  0  0  0  0  0
   12.6137   20.2216   -0.7524 O   0  0  0  0  0  0  0  0  0  0  0  0
   11.6574   22.1846   -0.0147 N   0  0  0  0  0  0  0  0  0  0  0  0
   11.4940   22.8191    0.7949 H   0  0  0  0  0  0  0  0  0  0  0  0
   12.9522   20.5958    1.5406 C   0  0  0  0  0  0  0  0  0  0  0  0
   16.6188   21.8458    1.1198 C   0  0  0  0  0  0  0  0  0  0  0  0
   15.1415   21.7684    1.1470 C   0  0  0  0  0  0  0  0  0  0  0  0
   14.5055   22.8096    0.8010 O   0  0  0  0  0  0  0  0  0  0  0  0
   14.3942   20.6214    1.5297 N   0  0  0  0  0  0  0  0  0  0  0  0
   14.9440   19.7817    1.8075 H   0  0  0  0  0  0  0  0  0  0  0  0
   12.3506   21.4803    2.5744 C   0  0  0  0  0  0  0  0  0  0  0  0
   11.5061   20.7883    3.5631 C   0  0  0  0  0  0  0  0  0  0  0  0
   11.7838   19.4438    3.8053 C   0  0  0  0  0  0  0  0  0  0  0  0
   11.0095   18.7645    4.7312 C   0  0  0  0  0  0  0  0  0  0  0  0
    9.9932   19.4264    5.3853 C   0  0  0  0  0  0  0  0  0  0  0  0
    9.7440   20.7758    5.1162 C   0  0  0  0  0  0  0  0  0  0  0  0
   10.5050   21.4643    4.1984 C   0  0  0  0  0  0  0  0  0  0  0  0
   10.9964   23.9782   -1.6031 C   0  0  0  0  0  0  0  0  0  0  0  0
   12.3137   24.4697   -2.1031 C   0  0  0  0  0  0  0  0  0  0  0  0
   12.3351   25.7957   -2.5709 C   0  0  0  0  0  0  0  0  0  0  0  0
   13.4800   26.3635   -3.0570 C   0  0  0  0  0  0  0  0  0  0  0  0
   14.6363   25.6153   -3.0873 C   0  0  0  0  0  0  0  0  0  0  0  0
   14.6587   24.3111   -2.6380 C   0  0  0  0  0  0  0  0  0  0  0  0
   13.4695   23.7774   -2.1521 C   0  0  0  0  0  0  0  0  0  0  0  0
    7.8666   20.4154   -1.2704 C   0  0  0  0  0  0  0  0  0  0  0  0
    7.0238   20.1602   -0.0803 C   0  0  0  0  0  0  0  0  0  0  0  0
    6.1149   19.1465    0.0076 C   0  0  0  0  0  0  0  0  0  0  0  0
    5.3638   18.9483    1.1598 C   0  0  0  0  0  0  0  0  0  0  0  0
    5.5417   19.7999    2.2467 C   0  0  0  0  0  0  0  0  0  0  0  0
    4.8197   19.5970    3.3620 N   0  0  0  0  0  0  0  0  0  0  0  0
    3.8707   18.5171    3.4274 C   0  0  0  0  0  0  0  0  0  0  0  0
    5.0284   20.4420    4.4032 C   0  0  0  0  0  0  0  0  0  0  0  0
    4.3156   20.1853    5.4053 O   0  0  0  0  0  0  0  0  0  0  0  0
    5.9057   21.4792    4.4188 C   0  0  0  0  0  0  0  0  0  0  0  0
    6.6588   21.6911    3.2544 C   0  0  0  0  0  0  0  0  0  0  0  0
    7.5728   22.6564    3.0674 O   0  0  0  0  0  0  0  0  0  0  0  0
    6.4496   20.8210    2.1724 C   0  0  0  0  0  0  0  0  0  0  0  0
    7.1861   21.0031    1.0211 C   0  0  0  0  0  0  0  0  0  0  0  0
    8.0324   23.3901    3.4039 H   0  0  0  0  0  0  0  0  0  0  0  0
    6.1364   22.3741    5.5351 C   0  0  0  0  0  0  0  0  0  0  0  0
    6.6077   21.8909    6.6410 O   0  0  0  0  0  0  0  0  0  0  0  0
    5.8857   23.7398    5.5181 N   0  0  0  0  0  0  0  0  0  0  0  0
    5.5184   24.2527    4.7215 H   0  0  0  0  0  0  0  0  0  0  0  0
    6.1680   24.5231    6.7371 C   0  0  0  0  0  0  0  0  0  0  0  0
    6.4234   25.9356    6.3861 C   0  0  0  0  0  0  0  0  0  0  0  0
    5.3956   26.6833    5.8378 O   0  0  0  0  0  0  0  0  0  0  0  0
    7.5380   26.4622    6.5724 O   0  0  0  0  0  0  0  0  0  0  0  0
    5.2431   26.7007    4.8325 H   0  0  0  0  0  0  0  0  0  0  0  0
 11 12  1  0  0  0
 12 13  2  0  0  0
 12 14  1  0  0  0
 14 10  1  0  0  0
 10 16  1  0  0  0
 16 17  1  0  0  0
 17 18  2  0  0  0
 18 19  1  0  0  0
 19 20  2  0  0  0
 20 21  1  0  0  0
 21 22  2  0  0  0
 10  6  1  0  0  0
  6  7  2  0  0  0
  6  8  1  0  0  0
  8  5  1  0  0  0
  5 23  1  0  0  0
 23 24  1  0  0  0
 24 25  2  0  0  0
 25 26  1  0  0  0
 26 27  2  0  0  0
 27 28  1  0  0  0
 28 29  2  0  0  0
  5  1  1  0  0  0
  1  2  2  0  0  0
  1  3  1  0  0  0
  3 30  1  0  0  0
 30 31  1  0  0  0
 31 32  2  0  0  0
 32 33  1  0  0  0
 33 34  2  0  0  0
 34 35  1  0  0  0
 35 36  1  0  0  0
 35 37  1  0  0  0
 37 38  2  0  0  0
 37 39  1  0  0  0
 39 45  1  0  0  0
 45 46  2  0  0  0
 45 47  1  0  0  0
 47 49  1  0  0  0
 49 50  1  0  0  0
 50 51  1  0  0  0
 50 52  2  0  0  0
 39 40  2  0  0  0
 40 41  1  0  0  0
 40 42  1  0  0  0
 42 43  2  0  0  0
 22 17  1  0  0  0
 29 24  1  0  0  0
 43 31  1  0  0  0
 42 34  1  0  0  0
 14 15  1  0  0  0
  8  9  1  0  0  0
  3  4  1  0  0  0
 47 48  1  0  0  0
 51 53  1  0  0  0
 41 44  1  0  0  0
M  END
> <minimizedAffinity>
-6.51437

> <CNNscore>
0.2002948523

> <CNNaffinity>
7.0900382996

> <CNN_VS>
1.4200981855

> <CNNaffinity_variance>
0.0692775473

$$$$
[H]OC(=O)C([H])([H])N([H])C(=O)c1c(O[H])c2c([H])c(C([H])([H])N([H])C(=O)[C@]([H])(N([H])C(=O)[C@@]([H])(N([H])C(=O)C([H])([H])[H])C([H])([H])c3c([H])c([H])c([H])c([H])c3[H])C([H])([H])c3c([H])c([H])c([H])c([H])c3[H])c([H])c([H])c2n(C([H])([H])[H])c1=O


 53 56  0  0  0  0  0  0  0  0999 V2000
    8.3290   20.6792   -0.3200 C   0  0  0  0  0  0  0  0  0  0  0  0
    8.4253   19.4150   -0.5143 O   0  0  0  0  0  0  0  0  0  0  0  0
    9.2697   21.5437   -0.9207 N   0  0  0  0  0  0  0  0  0  0  0  0
    9.2001   22.5748   -0.7813 H   0  0  0  0  0  0  0  0  0  0  0  0
    7.2218   21.1479    0.5348 C   0  0  0  0  0  0  0  0  0  0  0  0
    8.1845   22.9421    1.9555 C   0  0  0  0  0  0  0  0  0  0  0  0
    8.3375   23.6733    0.9315 O   0  0  0  0  0  0  0  0  0  0  0  0
    7.6266   21.6665    1.8147 N   0  0  0  0  0  0  0  0  0  0  0  0
    7.5084   21.0906    2.6743 H   0  0  0  0  0  0  0  0  0  0  0  0
    8.6380   23.5423    3.2564 C   0  0  0  0  0  0  0  0  0  0  0  0
   11.3689   21.1231    4.6249 C   0  0  0  0  0  0  0  0  0  0  0  0
   10.0791   21.7107    4.2004 C   0  0  0  0  0  0  0  0  0  0  0  0
    9.0463   20.9874    4.3362 O   0  0  0  0  0  0  0  0  0  0  0  0
    9.9190   23.0143    3.6569 N   0  0  0  0  0  0  0  0  0  0  0  0
   10.7847   23.5848    3.5586 H   0  0  0  0  0  0  0  0  0  0  0  0
    8.6312   25.0204    3.0889 C   0  0  0  0  0  0  0  0  0  0  0  0
    7.4167   25.6919    3.5827 C   0  0  0  0  0  0  0  0  0  0  0  0
    6.6767   25.0277    4.5599 C   0  0  0  0  0  0  0  0  0  0  0  0
    5.5303   25.6332    5.0473 C   0  0  0  0  0  0  0  0  0  0  0  0
    5.1517   26.8655    4.5606 C   0  0  0  0  0  0  0  0  0  0  0  0
    5.9194   27.5017    3.5801 C   0  0  0  0  0  0  0  0  0  0  0  0
    7.0613   26.9123    3.0858 C   0  0  0  0  0  0  0  0  0  0  0  0
    6.0384   20.2386    0.5438 C   0  0  0  0  0  0  0  0  0  0  0  0
    5.3334   20.4020   -0.7612 C   0  0  0  0  0  0  0  0  0  0  0  0
    5.1971   19.2351   -1.5340 C   0  0  0  0  0  0  0  0  0  0  0  0
    4.5727   19.2523   -2.7503 C   0  0  0  0  0  0  0  0  0  0  0  0
    4.0673   20.4426   -3.2252 C   0  0  0  0  0  0  0  0  0  0  0  0
    4.1796   21.6102   -2.4990 C   0  0  0  0  0  0  0  0  0  0  0  0
    4.8225   21.5424   -1.2672 C   0  0  0  0  0  0  0  0  0  0  0  0
   10.3728   21.0947   -1.7469 C   0  0  0  0  0  0  0  0  0  0  0  0
   11.6348   21.5769   -1.1414 C   0  0  0  0  0  0  0  0  0  0  0  0
   12.1627   21.0839    0.0161 C   0  0  0  0  0  0  0  0  0  0  0  0
   13.3614   21.5676    0.5263 C   0  0  0  0  0  0  0  0  0  0  0  0
   14.0381   22.5747   -0.1564 C   0  0  0  0  0  0  0  0  0  0  0  0
   15.2020   23.0314    0.3366 N   0  0  0  0  0  0  0  0  0  0  0  0
   15.7368   22.4898    1.5580 C   0  0  0  0  0  0  0  0  0  0  0  0
   15.8365   24.0064   -0.3623 C   0  0  0  0  0  0  0  0  0  0  0  0
   16.9149   24.3775    0.1645 O   0  0  0  0  0  0  0  0  0  0  0  0
   15.3982   24.5645   -1.5208 C   0  0  0  0  0  0  0  0  0  0  0  0
   14.1830   24.0880   -2.0349 C   0  0  0  0  0  0  0  0  0  0  0  0
   13.5809   24.5061   -3.1596 O   0  0  0  0  0  0  0  0  0  0  0  0
   13.5201   23.0788   -1.3183 C   0  0  0  0  0  0  0  0  0  0  0  0
   12.3294   22.5872   -1.8099 C   0  0  0  0  0  0  0  0  0  0  0  0
   13.5847   25.0659   -3.9008 H   0  0  0  0  0  0  0  0  0  0  0  0
   16.0819   25.5975   -2.2728 C   0  0  0  0  0  0  0  0  0  0  0  0
   17.2957   25.9127   -1.9474 O   0  0  0  0  0  0  0  0  0  0  0  0
   15.5294   26.2966   -3.3380 N   0  0  0  0  0  0  0  0  0  0  0  0
   14.5915   26.1539   -3.7018 H   0  0  0  0  0  0  0  0  0  0  0  0
   16.3494   27.3266   -4.0057 C   0  0  0  0  0  0  0  0  0  0  0  0
   15.6558   27.8260   -5.2111 C   0  0  0  0  0  0  0  0  0  0  0  0
   15.8550   29.1396   -5.5995 O   0  0  0  0  0  0  0  0  0  0  0  0
   14.9003   27.0930   -5.8790 O   0  0  0  0  0  0  0  0  0  0  0  0
   15.2686   29.8856   -5.2338 H   0  0  0  0  0  0  0  0  0  0  0  0
 11 12  1  0  0  0
 12 13  2  0  0  0
 12 14  1  0  0  0
 14 10  1  0  0  0
 10 16  1  0  0  0
 16 17  1  0  0  0
 17 18  2  0  0  0
 18 19  1  0  0  0
 19 20  2  0  0  0
 20 21  1  0  0  0
 21 22  2  0  0  0
 10  6  1  0  0  0
  6  7  2  0  0  0
  6  8  1  0  0  0
  8  5  1  0  0  0
  5 23  1  0  0  0
 23 24  1  0  0  0
 24 25  2  0  0  0
 25 26  1  0  0  0
 26 27  2  0  0  0
 27 28  1  0  0  0
 28 29  2  0  0  0
  5  1  1  0  0  0
  1  2  2  0  0  0
  1  3  1  0  0  0
  3 30  1  0  0  0
 30 31  1  0  0  0
 31 32  2  0  0  0
 32 33  1  0  0  0
 33 34  2  0  0  0
 34 35  1  0  0  0
 35 36  1  0  0  0
 35 37  1  0  0  0
 37 38  2  0  0  0
 37 39  1  0  0  0
 39 45  1  0  0  0
 45 46  2  0  0  0
 45 47  1  0  0  0
 47 49  1  0  0  0
 49 50  1  0  0  0
 50 51  1  0  0  0
 50 52  2  0  0  0
 39 40  2  0  0  0
 40 41  1  0  0  0
 40 42  1  0  0  0
 42 43  2  0  0  0
 22 17  1  0  0  0
 29 24  1  0  0  0
 43 31  1  0  0  0
 42 34  1  0  0  0
 14 15  1  0  0  0
  8  9  1  0  0  0
  3  4  1  0  0  0
 47 48  1  0  0  0
 51 53  1  0  0  0
 41 44  1  0  0  0
M  END
> <minimizedAffinity>
-8.75103

> <CNNscore>
0.1966054440

> <CNNaffinity>
7.2006406784

> <CNN_VS>
1.4156851768

> <CNNaffinity_variance>
0.2224915922

$$$$
[H]OC(=O)C([H])([H])N([H])C(=O)c1c(O[H])c2c([H])c(C([H])([H])N([H])C(=O)[C@]([H])(N([H])C(=O)[C@@]([H])(N([H])C(=O)C([H])([H])[H])C([H])([H])c3c([H])c([H])c([H])c([H])c3[H])C([H])([H])c3c([H])c([H])c([H])c([H])c3[H])c([H])c([H])c2n(C([H])([H])[H])c1=O


 53 56  0  0  0  0  0  0  0  0999 V2000
   10.8615   22.6061    2.2671 C   0  0  0  0  0  0  0  0  0  0  0  0
    9.9526   21.7851    1.8864 O   0  0  0  0  0  0  0  0  0  0  0  0
   11.5826   22.3378    3.4507 N   0  0  0  0  0  0  0  0  0  0  0  0
   12.3317   22.9895    3.7692 H   0  0  0  0  0  0  0  0  0  0  0  0
   11.0916   23.7956    1.4253 C   0  0  0  0  0  0  0  0  0  0  0  0
   12.5105   23.7624   -0.6117 C   0  0  0  0  0  0  0  0  0  0  0  0
   11.4740   23.6600   -1.3342 O   0  0  0  0  0  0  0  0  0  0  0  0
   12.3767   23.8371    0.7791 N   0  0  0  0  0  0  0  0  0  0  0  0
   13.2456   23.9259    1.3465 H   0  0  0  0  0  0  0  0  0  0  0  0
   13.8183   23.7894   -1.3515 C   0  0  0  0  0  0  0  0  0  0  0  0
   15.4224   20.3859   -0.3385 C   0  0  0  0  0  0  0  0  0  0  0  0
   14.8261   21.7395   -0.3004 C   0  0  0  0  0  0  0  0  0  0  0  0
   14.6945   22.2770    0.8406 O   0  0  0  0  0  0  0  0  0  0  0  0
   14.3954   22.4707   -1.4407 N   0  0  0  0  0  0  0  0  0  0  0  0
   14.5173   22.0039   -2.3637 H   0  0  0  0  0  0  0  0  0  0  0  0
   13.5656   24.4178   -2.6759 C   0  0  0  0  0  0  0  0  0  0  0  0
   14.5775   25.4027   -3.0950 C   0  0  0  0  0  0  0  0  0  0  0  0
   14.2487   26.2357   -4.1633 C   0  0  0  0  0  0  0  0  0  0  0  0
   15.1775   27.1746   -4.5806 C   0  0  0  0  0  0  0  0  0  0  0  0
   16.3926   27.2631   -3.9366 C   0  0  0  0  0  0  0  0  0  0  0  0
   16.6872   26.4102   -2.8683 C   0  0  0  0  0  0  0  0  0  0  0  0
   15.7742   25.4719   -2.4423 C   0  0  0  0  0  0  0  0  0  0  0  0
   10.6310   25.0729    2.0450 C   0  0  0  0  0  0  0  0  0  0  0  0
    9.3409   24.7971    2.7423 C   0  0  0  0  0  0  0  0  0  0  0  0
    9.3228   25.0606    4.1235 C   0  0  0  0  0  0  0  0  0  0  0  0
    8.2020   24.8473    4.8771 C   0  0  0  0  0  0  0  0  0  0  0  0
    7.0670   24.3632    4.2645 C   0  0  0  0  0  0  0  0  0  0  0  0
    7.0422   24.0916    2.9121 C   0  0  0  0  0  0  0  0  0  0  0  0
    8.2066   24.3250    2.1875 C   0  0  0  0  0  0  0  0  0  0  0  0
   11.3535   21.1831    4.2965 C   0  0  0  0  0  0  0  0  0  0  0  0
    9.9058   21.1047    4.5960 C   0  0  0  0  0  0  0  0  0  0  0  0
    9.3675   21.3423    5.8270 C   0  0  0  0  0  0  0  0  0  0  0  0
    7.9966   21.2688    6.0419 C   0  0  0  0  0  0  0  0  0  0  0  0
    7.1547   20.9469    4.9808 C   0  0  0  0  0  0  0  0  0  0  0  0
    5.8288   20.8872    5.1924 N   0  0  0  0  0  0  0  0  0  0  0  0
    5.2889   21.1464    6.5010 C   0  0  0  0  0  0  0  0  0  0  0  0
    5.0404   20.5799    4.1314 C   0  0  0  0  0  0  0  0  0  0  0  0
    3.8165   20.5441    4.4124 O   0  0  0  0  0  0  0  0  0  0  0  0
    5.4737   20.3261    2.8690 C   0  0  0  0  0  0  0  0  0  0  0  0
    6.8577   20.3879    2.6486 C   0  0  0  0  0  0  0  0  0  0  0  0
    7.4839   20.1703    1.4813 O   0  0  0  0  0  0  0  0  0  0  0  0
    7.6808   20.7058    3.7408 C   0  0  0  0  0  0  0  0  0  0  0  0
    9.0436   20.7829    3.5459 C   0  0  0  0  0  0  0  0  0  0  0  0
    7.4290   19.9585    0.5785 H   0  0  0  0  0  0  0  0  0  0  0  0
    4.6305   20.0093    1.7339 C   0  0  0  0  0  0  0  0  0  0  0  0
    3.7617   20.8831    1.3331 O   0  0  0  0  0  0  0  0  0  0  0  0
    4.6756   18.8166    1.0241 N   0  0  0  0  0  0  0  0  0  0  0  0
    5.3058   18.0453    1.2248 H   0  0  0  0  0  0  0  0  0  0  0  0
    3.7484   18.6364   -0.1104 C   0  0  0  0  0  0  0  0  0  0  0  0
    4.3648   17.7725   -1.1385 C   0  0  0  0  0  0  0  0  0  0  0  0
    5.5894   18.1379   -1.6704 O   0  0  0  0  0  0  0  0  0  0  0  0
    3.8072   16.7296   -1.5332 O   0  0  0  0  0  0  0  0  0  0  0  0
    5.6436   18.7495   -2.4811 H   0  0  0  0  0  0  0  0  0  0  0  0
 11 12  1  0  0  0
 12 13  2  0  0  0
 12 14  1  0  0  0
 14 10  1  0  0  0
 10 16  1  0  0  0
 16 17  1  0  0  0
 17 18  2  0  0  0
 18 19  1  0  0  0
 19 20  2  0  0  0
 20 21  1  0  0  0
 21 22  2  0  0  0
 10  6  1  0  0  0
  6  7  2  0  0  0
  6  8  1  0  0  0
  8  5  1  0  0  0
  5 23  1  0  0  0
 23 24  1  0  0  0
 24 25  2  0  0  0
 25 26  1  0  0  0
 26 27  2  0  0  0
 27 28  1  0  0  0
 28 29  2  0  0  0
  5  1  1  0  0  0
  1  2  2  0  0  0
  1  3  1  0  0  0
  3 30  1  0  0  0
 30 31  1  0  0  0
 31 32  2  0  0  0
 32 33  1  0  0  0
 33 34  2  0  0  0
 34 35  1  0  0  0
 35 36  1  0  0  0
 35 37  1  0  0  0
 37 38  2  0  0  0
 37 39  1  0  0  0
 39 45  1  0  0  0
 45 46  2  0  0  0
 45 47  1  0  0  0
 47 49  1  0  0  0
 49 50  1  0  0  0
 50 51  1  0  0  0
 50 52  2  0  0  0
 39 40  2  0  0  0
 40 41  1  0  0  0
 40 42  1  0  0  0
 42 43  2  0  0  0
 22 17  1  0  0  0
 29 24  1  0  0  0
 43 31  1  0  0  0
 42 34  1  0  0  0
 14 15  1  0  0  0
  8  9  1  0  0  0
  3  4  1  0  0  0
 47 48  1  0  0  0
 51 53  1  0  0  0
 41 44  1  0  0  0
M  END
> <minimizedAffinity>
-6.67734

> <CNNscore>
0.1869257987

> <CNNaffinity>
6.9227104187

> <CNN_VS>
1.2940331697

> <CNNaffinity_variance>
0.4101706445

$$$$
[H]OC(=O)C([H])([H])N([H])C(=O)c1c(O[H])c2c([H])c(C([H])([H])N([H])C(=O)[C@]([H])(N([H])C(=O)[C@@]([H])(N([H])C(=O)C([H])([H])[H])C([H])([H])c3c([H])c([H])c([H])c([H])c3[H])C([H])([H])c3c([H])c([H])c([H])c([H])c3[H])c([H])c([H])c2n(C([H])([H])[H])c1=O


 53 56  0  0  0  0  0  0  0  0999 V2000
    8.3023   20.5927   -0.4036 C   0  0  0  0  0  0  0  0  0  0  0  0
    8.3821   19.3481   -0.7030 O   0  0  0  0  0  0  0  0  0  0  0  0
    9.2612   21.4903   -0.9213 N   0  0  0  0  0  0  0  0  0  0  0  0
    9.2053   22.5069   -0.6959 H   0  0  0  0  0  0  0  0  0  0  0  0
    7.1940   21.0047    0.4786 C   0  0  0  0  0  0  0  0  0  0  0  0
    7.9656   22.8690    1.9253 C   0  0  0  0  0  0  0  0  0  0  0  0
    7.9320   23.6559    0.9322 O   0  0  0  0  0  0  0  0  0  0  0  0
    7.6026   21.5283    1.7551 N   0  0  0  0  0  0  0  0  0  0  0  0
    7.6350   20.9067    2.5902 H   0  0  0  0  0  0  0  0  0  0  0  0
    8.4111   23.4800    3.2239 C   0  0  0  0  0  0  0  0  0  0  0  0
    7.5480   27.2341    3.8117 C   0  0  0  0  0  0  0  0  0  0  0  0
    8.2640   25.9728    3.5186 C   0  0  0  0  0  0  0  0  0  0  0  0
    9.5000   26.0634    3.2496 O   0  0  0  0  0  0  0  0  0  0  0  0
    7.6695   24.6817    3.5175 N   0  0  0  0  0  0  0  0  0  0  0  0
    6.6538   24.6390    3.7431 H   0  0  0  0  0  0  0  0  0  0  0  0
    8.2846   22.4330    4.2730 C   0  0  0  0  0  0  0  0  0  0  0  0
    9.3964   21.4680    4.3191 C   0  0  0  0  0  0  0  0  0  0  0  0
    9.1864   20.2911    5.0363 C   0  0  0  0  0  0  0  0  0  0  0  0
   10.2114   19.3615    5.0973 C   0  0  0  0  0  0  0  0  0  0  0  0
   11.4026   19.6183    4.4539 C   0  0  0  0  0  0  0  0  0  0  0  0
   11.5768   20.8104    3.7438 C   0  0  0  0  0  0  0  0  0  0  0  0
   10.5673   21.7440    3.6743 C   0  0  0  0  0  0  0  0  0  0  0  0
    6.0516   20.0446    0.5024 C   0  0  0  0  0  0  0  0  0  0  0  0
    5.3516   20.1428   -0.8118 C   0  0  0  0  0  0  0  0  0  0  0  0
    4.8608   21.4163   -1.1506 C   0  0  0  0  0  0  0  0  0  0  0  0
    4.1987   21.6375   -2.3263 C   0  0  0  0  0  0  0  0  0  0  0  0
    4.0107   20.5854   -3.1955 C   0  0  0  0  0  0  0  0  0  0  0  0
    4.4762   19.3203   -2.9017 C   0  0  0  0  0  0  0  0  0  0  0  0
    5.1440   19.1448   -1.6941 C   0  0  0  0  0  0  0  0  0  0  0  0
   10.3655   21.0957   -1.7733 C   0  0  0  0  0  0  0  0  0  0  0  0
   11.6230   21.5810   -1.1608 C   0  0  0  0  0  0  0  0  0  0  0  0
   12.1385   21.0990    0.0068 C   0  0  0  0  0  0  0  0  0  0  0  0
   13.3335   21.5849    0.5234 C   0  0  0  0  0  0  0  0  0  0  0  0
   14.0194   22.5829   -0.1635 C   0  0  0  0  0  0  0  0  0  0  0  0
   15.1798   23.0418    0.3358 N   0  0  0  0  0  0  0  0  0  0  0  0
   15.7014   22.5118    1.5679 C   0  0  0  0  0  0  0  0  0  0  0  0
   15.8236   24.0076   -0.3673 C   0  0  0  0  0  0  0  0  0  0  0  0
   16.8979   24.3814    0.1658 O   0  0  0  0  0  0  0  0  0  0  0  0
   15.3980   24.5545   -1.5359 C   0  0  0  0  0  0  0  0  0  0  0  0
   14.1865   24.0758   -2.0565 C   0  0  0  0  0  0  0  0  0  0  0  0
   13.5963   24.4834   -3.1912 O   0  0  0  0  0  0  0  0  0  0  0  0
   13.5140   23.0759   -1.3356 C   0  0  0  0  0  0  0  0  0  0  0  0
   12.3267   22.5822   -1.8333 C   0  0  0  0  0  0  0  0  0  0  0  0
   13.6087   25.0352   -3.9384 H   0  0  0  0  0  0  0  0  0  0  0  0
   16.0916   25.5776   -2.2922 C   0  0  0  0  0  0  0  0  0  0  0  0
   17.3491   25.7867   -2.0602 O   0  0  0  0  0  0  0  0  0  0  0  0
   15.5054   26.3738   -3.2673 N   0  0  0  0  0  0  0  0  0  0  0  0
   14.5318   26.3191   -3.5532 H   0  0  0  0  0  0  0  0  0  0  0  0
   16.3413   27.3795   -3.9520 C   0  0  0  0  0  0  0  0  0  0  0  0
   15.6672   27.8503   -5.1798 C   0  0  0  0  0  0  0  0  0  0  0  0
   15.8924   29.1466   -5.6095 O   0  0  0  0  0  0  0  0  0  0  0  0
   14.9052   27.1082   -5.8303 O   0  0  0  0  0  0  0  0  0  0  0  0
   15.3157   29.9142   -5.2743 H   0  0  0  0  0  0  0  0  0  0  0  0
 11 12  1  0  0  0
 12 13  2  0  0  0
 12 14  1  0  0  0
 14 10  1  0  0  0
 10 16  1  0  0  0
 16 17  1  0  0  0
 17 18  2  0  0  0
 18 19  1  0  0  0
 19 20  2  0  0  0
 20 21  1  0  0  0
 21 22  2  0  0  0
 10  6  1  0  0  0
  6  7  2  0  0  0
  6  8  1  0  0  0
  8  5  1  0  0  0
  5 23  1  0  0  0
 23 24  1  0  0  0
 24 25  2  0  0  0
 25 26  1  0  0  0
 26 27  2  0  0  0
 27 28  1  0  0  0
 28 29  2  0  0  0
  5  1  1  0  0  0
  1  2  2  0  0  0
  1  3  1  0  0  0
  3 30  1  0  0  0
 30 31  1  0  0  0
 31 32  2  0  0  0
 32 33  1  0  0  0
 33 34  2  0  0  0
 34 35  1  0  0  0
 35 36  1  0  0  0
 35 37  1  0  0  0
 37 38  2  0  0  0
 37 39  1  0  0  0
 39 45  1  0  0  0
 45 46  2  0  0  0
 45 47  1  0  0  0
 47 49  1  0  0  0
 49 50  1  0  0  0
 50 51  1  0  0  0
 50 52  2  0  0  0
 39 40  2  0  0  0
 40 41  1  0  0  0
 40 42  1  0  0  0
 42 43  2  0  0  0
 22 17  1  0  0  0
 29 24  1  0  0  0
 43 31  1  0  0  0
 42 34  1  0  0  0
 14 15  1  0  0  0
  8  9  1  0  0  0
  3  4  1  0  0  0
 47 48  1  0  0  0
 51 53  1  0  0  0
 41 44  1  0  0  0
M  END
> <minimizedAffinity>
-8.52635

> <CNNscore>
0.1749505699

> <CNNaffinity>
7.1447782516

> <CNN_VS>
1.2499830723

> <CNNaffinity_variance>
0.4625704885

$$$$
[H]OC(=O)C([H])([H])N([H])C(=O)c1c(O[H])c2c([H])c(C([H])([H])N([H])C(=O)[C@]([H])(N([H])C(=O)[C@@]([H])(N([H])C(=O)C([H])([H])[H])C([H])([H])c3c([H])c([H])c([H])c([H])c3[H])C([H])([H])c3c([H])c([H])c([H])c([H])c3[H])c([H])c([H])c2n(C([H])([H])[H])c1=O


 53 56  0  0  0  0  0  0  0  0999 V2000
    9.6635   21.4667    1.9933 C   0  0  0  0  0  0  0  0  0  0  0  0
   10.3368   20.3804    2.1017 O   0  0  0  0  0  0  0  0  0  0  0  0
   10.3194   22.7053    2.1620 N   0  0  0  0  0  0  0  0  0  0  0  0
    9.7892   23.5982    2.0674 H   0  0  0  0  0  0  0  0  0  0  0  0
    8.2240   21.3413    1.6959 C   0  0  0  0  0  0  0  0  0  0  0  0
    7.1296   22.9892    3.1961 C   0  0  0  0  0  0  0  0  0  0  0  0
    7.7058   23.9353    2.5802 O   0  0  0  0  0  0  0  0  0  0  0  0
    7.3514   21.6678    2.7927 N   0  0  0  0  0  0  0  0  0  0  0  0
    6.8603   20.9119    3.3143 H   0  0  0  0  0  0  0  0  0  0  0  0
    6.2418   23.4015    4.3364 C   0  0  0  0  0  0  0  0  0  0  0  0
    6.3451   20.3345    6.7376 C   0  0  0  0  0  0  0  0  0  0  0  0
    6.7220   21.5104    5.9224 C   0  0  0  0  0  0  0  0  0  0  0  0
    7.9387   21.8664    5.9563 O   0  0  0  0  0  0  0  0  0  0  0  0
    5.8254   22.2601    5.1135 N   0  0  0  0  0  0  0  0  0  0  0  0
    4.8334   21.9432    5.1050 H   0  0  0  0  0  0  0  0  0  0  0  0
    6.9816   24.4208    5.1280 C   0  0  0  0  0  0  0  0  0  0  0  0
    6.3718   25.7616    5.1312 C   0  0  0  0  0  0  0  0  0  0  0  0
    6.8968   26.7000    4.2439 C   0  0  0  0  0  0  0  0  0  0  0  0
    6.3442   27.9699    4.2203 C   0  0  0  0  0  0  0  0  0  0  0  0
    5.2987   28.2732    5.0652 C   0  0  0  0  0  0  0  0  0  0  0  0
    4.7983   27.3056    5.9420 C   0  0  0  0  0  0  0  0  0  0  0  0
    5.3373   26.0392    5.9771 C   0  0  0  0  0  0  0  0  0  0  0  0
    7.8708   20.1136    0.9242 C   0  0  0  0  0  0  0  0  0  0  0  0
    8.2863   20.3351   -0.4918 C   0  0  0  0  0  0  0  0  0  0  0  0
    9.5166   20.9916   -0.6735 C   0  0  0  0  0  0  0  0  0  0  0  0
   10.0078   21.2563   -1.9218 C   0  0  0  0  0  0  0  0  0  0  0  0
    9.2771   20.8689   -3.0235 C   0  0  0  0  0  0  0  0  0  0  0  0
    8.0657   20.2224   -2.8895 C   0  0  0  0  0  0  0  0  0  0  0  0
    7.6077   19.9749   -1.5995 C   0  0  0  0  0  0  0  0  0  0  0  0
   11.7286   22.8418    2.4729 C   0  0  0  0  0  0  0  0  0  0  0  0
   12.5027   22.6326    1.2284 C   0  0  0  0  0  0  0  0  0  0  0  0
   13.1232   21.4617    0.9036 C   0  0  0  0  0  0  0  0  0  0  0  0
   13.8225   21.3219   -0.2890 C   0  0  0  0  0  0  0  0  0  0  0  0
   13.8915   22.3969   -1.1710 C   0  0  0  0  0  0  0  0  0  0  0  0
   14.5607   22.2525   -2.3276 N   0  0  0  0  0  0  0  0  0  0  0  0
   15.2025   21.0042   -2.6453 C   0  0  0  0  0  0  0  0  0  0  0  0
   14.5974   23.3196   -3.1652 C   0  0  0  0  0  0  0  0  0  0  0  0
   15.2415   23.1032   -4.2219 O   0  0  0  0  0  0  0  0  0  0  0  0
   14.0156   24.5261   -2.9380 C   0  0  0  0  0  0  0  0  0  0  0  0
   13.3177   24.6768   -1.7305 C   0  0  0  0  0  0  0  0  0  0  0  0
   12.6777   25.7827   -1.3186 O   0  0  0  0  0  0  0  0  0  0  0  0
   13.2742   23.5774   -0.8581 C   0  0  0  0  0  0  0  0  0  0  0  0
   12.5849   23.6984    0.3299 C   0  0  0  0  0  0  0  0  0  0  0  0
   12.4286   26.6626   -1.4814 H   0  0  0  0  0  0  0  0  0  0  0  0
   14.0453   25.6615   -3.8379 C   0  0  0  0  0  0  0  0  0  0  0  0
   13.1007   26.5454   -3.7660 O   0  0  0  0  0  0  0  0  0  0  0  0
   15.0250   25.8849   -4.7965 N   0  0  0  0  0  0  0  0  0  0  0  0
   15.8228   25.2782   -4.9633 H   0  0  0  0  0  0  0  0  0  0  0  0
   14.9186   27.0879   -5.6455 C   0  0  0  0  0  0  0  0  0  0  0  0
   15.8775   28.1166   -5.1921 C   0  0  0  0  0  0  0  0  0  0  0  0
   16.8902   27.7483   -4.3232 O   0  0  0  0  0  0  0  0  0  0  0  0
   15.7922   29.3004   -5.5737 O   0  0  0  0  0  0  0  0  0  0  0  0
   16.7459   27.7683   -3.3167 H   0  0  0  0  0  0  0  0  0  0  0  0
 11 12  1  0  0  0
 12 13  2  0  0  0
 12 14  1  0  0  0
 14 10  1  0  0  0
 10 16  1  0  0  0
 16 17  1  0  0  0
 17 18  2  0  0  0
 18 19  1  0  0  0
 19 20  2  0  0  0
 20 21  1  0  0  0
 21 22  2  0  0  0
 10  6  1  0  0  0
  6  7  2  0  0  0
  6  8  1  0  0  0
  8  5  1  0  0  0
  5 23  1  0  0  0
 23 24  1  0  0  0
 24 25  2  0  0  0
 25 26  1  0  0  0
 26 27  2  0  0  0
 27 28  1  0  0  0
 28 29  2  0  0  0
  5  1  1  0  0  0
  1  2  2  0  0  0
  1  3  1  0  0  0
  3 30  1  0  0  0
 30 31  1  0  0  0
 31 32  2  0  0  0
 32 33  1  0  0  0
 33 34  2  0  0  0
 34 35  1  0  0  0
 35 36  1  0  0  0
 35 37  1  0  0  0
 37 38  2  0  0  0
 37 39  1  0  0  0
 39 45  1  0  0  0
 45 46  2  0  0  0
 45 47  1  0  0  0
 47 49  1  0  0  0
 49 50  1  0  0  0
 50 51  1  0  0  0
 50 52  2  0  0  0
 39 40  2  0  0  0
 40 41  1  0  0  0
 40 42  1  0  0  0
 42 43  2  0  0  0
 22 17  1  0  0  0
 29 24  1  0  0  0
 43 31  1  0  0  0
 42 34  1  0  0  0
 14 15  1  0  0  0
  8  9  1  0  0  0
  3  4  1  0  0  0
 47 48  1  0  0  0
 51 53  1  0  0  0
 41 44  1  0  0  0
M  END
> <minimizedAffinity>
-5.00692

> <CNNscore>
0.1654857546

> <CNNaffinity>
6.6035032272

> <CNN_VS>
1.0927857161

> <CNNaffinity_variance>
0.2085334808

$$$$
[H]OC(=O)C([H])([H])N([H])C(=O)c1c(O[H])c2c([H])c(C([H])([H])N([H])C(=O)[C@]([H])(N([H])C(=O)[C@@]([H])(N([H])C(=O)C([H])([H])[H])C([H])([H])c3c([H])c([H])c([H])c([H])c3[H])C([H])([H])c3c([H])c([H])c([H])c([H])c3[H])c([H])c([H])c2n(C([H])([H])[H])c1=O


 53 56  0  0  0  0  0  0  0  0999 V2000
    8.8504   22.9231    1.7709 C   0  0  0  0  0  0  0  0  0  0  0  0
    8.2042   22.1183    1.0094 O   0  0  0  0  0  0  0  0  0  0  0  0
    9.8393   23.7600    1.2100 N   0  0  0  0  0  0  0  0  0  0  0  0
   10.3671   24.4273    1.8130 H   0  0  0  0  0  0  0  0  0  0  0  0
    8.5083   22.9152    3.2059 C   0  0  0  0  0  0  0  0  0  0  0  0
    7.5468   25.1696    3.6021 C   0  0  0  0  0  0  0  0  0  0  0  0
    8.6579   25.6987    3.2988 O   0  0  0  0  0  0  0  0  0  0  0  0
    7.4147   23.7769    3.5695 N   0  0  0  0  0  0  0  0  0  0  0  0
    6.4885   23.3710    3.8187 H   0  0  0  0  0  0  0  0  0  0  0  0
    6.4528   26.1274    3.9815 C   0  0  0  0  0  0  0  0  0  0  0  0
    3.7484   25.6013    6.7370 C   0  0  0  0  0  0  0  0  0  0  0  0
    4.4462   25.9856    5.4901 C   0  0  0  0  0  0  0  0  0  0  0  0
    3.7586   26.5842    4.6085 O   0  0  0  0  0  0  0  0  0  0  0  0
    5.8177   25.7332    5.2149 N   0  0  0  0  0  0  0  0  0  0  0  0
    6.3565   25.2412    5.9580 H   0  0  0  0  0  0  0  0  0  0  0  0
    7.0522   27.4880    4.0308 C   0  0  0  0  0  0  0  0  0  0  0  0
    6.5139   28.4358    3.0401 C   0  0  0  0  0  0  0  0  0  0  0  0
    6.0495   27.9029    1.8385 C   0  0  0  0  0  0  0  0  0  0  0  0
    5.5348   28.7671    0.8864 C   0  0  0  0  0  0  0  0  0  0  0  0
    5.4936   30.1198    1.1461 C   0  0  0  0  0  0  0  0  0  0  0  0
    5.9689   30.6180    2.3632 C   0  0  0  0  0  0  0  0  0  0  0  0
    6.4834   29.7715    3.3193 C   0  0  0  0  0  0  0  0  0  0  0  0
    9.6951   22.9497    4.1103 C   0  0  0  0  0  0  0  0  0  0  0  0
   10.3887   21.6335    3.9958 C   0  0  0  0  0  0  0  0  0  0  0  0
   10.0701   20.6852    4.9841 C   0  0  0  0  0  0  0  0  0  0  0  0
   10.6397   19.4422    4.9919 C   0  0  0  0  0  0  0  0  0  0  0  0
   11.5459   19.1162    4.0068 C   0  0  0  0  0  0  0  0  0  0  0  0
   11.8863   20.0169    3.0188 C   0  0  0  0  0  0  0  0  0  0  0  0
   11.2802   21.2686    3.0526 C   0  0  0  0  0  0  0  0  0  0  0  0
   10.1980   23.7641   -0.1944 C   0  0  0  0  0  0  0  0  0  0  0  0
   11.6505   24.0291   -0.3035 C   0  0  0  0  0  0  0  0  0  0  0  0
   12.5600   23.7026    0.6596 C   0  0  0  0  0  0  0  0  0  0  0  0
   13.9146   23.9630    0.4914 C   0  0  0  0  0  0  0  0  0  0  0  0
   14.3536   24.5686   -0.6829 C   0  0  0  0  0  0  0  0  0  0  0  0
   15.6660   24.8087   -0.8441 N   0  0  0  0  0  0  0  0  0  0  0  0
   16.6030   24.4499    0.1876 C   0  0  0  0  0  0  0  0  0  0  0  0
   16.0560   25.3914   -2.0061 C   0  0  0  0  0  0  0  0  0  0  0  0
   17.2957   25.5816   -2.0779 O   0  0  0  0  0  0  0  0  0  0  0  0
   15.2346   25.7553   -3.0252 C   0  0  0  0  0  0  0  0  0  0  0  0
   13.8646   25.5050   -2.8563 C   0  0  0  0  0  0  0  0  0  0  0  0
   12.8934   25.7885   -3.7387 O   0  0  0  0  0  0  0  0  0  0  0  0
   13.4525   24.9018   -1.6572 C   0  0  0  0  0  0  0  0  0  0  0  0
   12.1120   24.6363   -1.4733 C   0  0  0  0  0  0  0  0  0  0  0  0
   12.6479   26.1370   -4.5640 H   0  0  0  0  0  0  0  0  0  0  0  0
   15.6529   26.3669   -4.2705 C   0  0  0  0  0  0  0  0  0  0  0  0
   16.4153   27.4137   -4.2316 O   0  0  0  0  0  0  0  0  0  0  0  0
   15.2934   25.9145   -5.5332 N   0  0  0  0  0  0  0  0  0  0  0  0
   14.7037   25.1070   -5.7143 H   0  0  0  0  0  0  0  0  0  0  0  0
   15.7956   26.6458   -6.7131 C   0  0  0  0  0  0  0  0  0  0  0  0
   15.7335   25.7827   -7.9108 C   0  0  0  0  0  0  0  0  0  0  0  0
   16.9145   25.4269   -8.5390 O   0  0  0  0  0  0  0  0  0  0  0  0
   14.6463   25.3726   -8.3629 O   0  0  0  0  0  0  0  0  0  0  0  0
   17.3153   26.0144   -9.2659 H   0  0  0  0  0  0  0  0  0  0  0  0
 11 12  1  0  0  0
 12 13  2  0  0  0
 12 14  1  0  0  0
 14 10  1  0  0  0
 10 16  1  0  0  0
 16 17  1  0  0  0
 17 18  2  0  0  0
 18 19  1  0  0  0
 19 20  2  0  0  0
 20 21  1  0  0  0
 21 22  2  0  0  0
 10  6  1  0  0  0
  6  7  2  0  0  0
  6  8  1  0  0  0
  8  5  1  0  0  0
  5 23  1  0  0  0
 23 24  1  0  0  0
 24 25  2  0  0  0
 25 26  1  0  0  0
 26 27  2  0  0  0
 27 28  1  0  0  0
 28 29  2  0  0  0
  5  1  1  0  0  0
  1  2  2  0  0  0
  1  3  1  0  0  0
  3 30  1  0  0  0
 30 31  1  0  0  0
 31 32  2  0  0  0
 32 33  1  0  0  0
 33 34  2  0  0  0
 34 35  1  0  0  0
 35 36  1  0  0  0
 35 37  1  0  0  0
 37 38  2  0  0  0
 37 39  1  0  0  0
 39 45  1  0  0  0
 45 46  2  0  0  0
 45 47  1  0  0  0
 47 49  1  0  0  0
 49 50  1  0  0  0
 50 51  1  0  0  0
 50 52  2  0  0  0
 39 40  2  0  0  0
 40 41  1  0  0  0
 40 42  1  0  0  0
 42 43  2  0  0  0
 22 17  1  0  0  0
 29 24  1  0  0  0
 43 31  1  0  0  0
 42 34  1  0  0  0
 14 15  1  0  0  0
  8  9  1  0  0  0
  3  4  1  0  0  0
 47 48  1  0  0  0
 51 53  1  0  0  0
 41 44  1  0  0  0
M  END
> <minimizedAffinity>
-9.35285

> <CNNscore>
0.1638686657

> <CNNaffinity>
6.8350982666

> <CNN_VS>
1.1200584173

> <CNNaffinity_variance>
0.4099012315

$$$$
[H]OC(=O)C([H])([H])N([H])C(=O)c1c(O[H])c2c([H])c(C([H])([H])N([H])C(=O)[C@]([H])(N([H])C(=O)[C@@]([H])(N([H])C(=O)C([H])([H])[H])C([H])([H])c3c([H])c([H])c([H])c([H])c3[H])C([H])([H])c3c([H])c([H])c([H])c([H])c3[H])c([H])c([H])c2n(C([H])([H])[H])c1=O


 53 56  0  0  0  0  0  0  0  0999 V2000
   10.1145   21.0577   -1.1880 C   0  0  0  0  0  0  0  0  0  0  0  0
   10.4472   21.8652   -2.1273 O   0  0  0  0  0  0  0  0  0  0  0  0
   11.0447   20.0922   -0.7457 N   0  0  0  0  0  0  0  0  0  0  0  0
   10.7940   19.4344    0.0237 H   0  0  0  0  0  0  0  0  0  0  0  0
    8.7570   21.1973   -0.6276 C   0  0  0  0  0  0  0  0  0  0  0  0
    9.3294   21.7407    1.7263 C   0  0  0  0  0  0  0  0  0  0  0  0
   10.0355   20.6905    1.7988 O   0  0  0  0  0  0  0  0  0  0  0  0
    8.6679   22.0454    0.5315 N   0  0  0  0  0  0  0  0  0  0  0  0
    8.0992   22.9174    0.5001 H   0  0  0  0  0  0  0  0  0  0  0  0
    9.2726   22.5733    2.9760 C   0  0  0  0  0  0  0  0  0  0  0  0
   10.5209   21.1927    6.3993 C   0  0  0  0  0  0  0  0  0  0  0  0
    9.6787   21.7436    5.3147 C   0  0  0  0  0  0  0  0  0  0  0  0
    8.4610   21.9663    5.5900 O   0  0  0  0  0  0  0  0  0  0  0  0
   10.1344   22.0371    4.0007 N   0  0  0  0  0  0  0  0  0  0  0  0
   11.1391   21.8449    3.8049 H   0  0  0  0  0  0  0  0  0  0  0  0
    9.6050   23.9717    2.5925 C   0  0  0  0  0  0  0  0  0  0  0  0
    8.7590   25.0013    3.2200 C   0  0  0  0  0  0  0  0  0  0  0  0
    7.4231   24.6738    3.4469 C   0  0  0  0  0  0  0  0  0  0  0  0
    6.6011   25.6192    4.0376 C   0  0  0  0  0  0  0  0  0  0  0  0
    7.1174   26.8488    4.3844 C   0  0  0  0  0  0  0  0  0  0  0  0
    8.4630   27.1417    4.1412 C   0  0  0  0  0  0  0  0  0  0  0  0
    9.2923   26.2123    3.5546 C   0  0  0  0  0  0  0  0  0  0  0  0
    7.9969   19.9148   -0.5580 C   0  0  0  0  0  0  0  0  0  0  0  0
    6.6431   20.1601   -1.1357 C   0  0  0  0  0  0  0  0  0  0  0  0
    6.4700   19.7725   -2.4764 C   0  0  0  0  0  0  0  0  0  0  0  0
    5.2773   19.9460   -3.1221 C   0  0  0  0  0  0  0  0  0  0  0  0
    4.2242   20.5140   -2.4394 C   0  0  0  0  0  0  0  0  0  0  0  0
    4.3517   20.9081   -1.1234 C   0  0  0  0  0  0  0  0  0  0  0  0
    5.5841   20.7108   -0.5092 C   0  0  0  0  0  0  0  0  0  0  0  0
   12.3742   19.9321   -1.3005 C   0  0  0  0  0  0  0  0  0  0  0  0
   13.1972   21.0885   -0.8792 C   0  0  0  0  0  0  0  0  0  0  0  0
   13.5087   21.3705    0.4188 C   0  0  0  0  0  0  0  0  0  0  0  0
   14.3003   22.4636    0.7501 C   0  0  0  0  0  0  0  0  0  0  0  0
   14.7860   23.2874   -0.2616 C   0  0  0  0  0  0  0  0  0  0  0  0
   15.5595   24.3371    0.0642 N   0  0  0  0  0  0  0  0  0  0  0  0
   15.8748   24.6082    1.4420 C   0  0  0  0  0  0  0  0  0  0  0  0
   16.0217   25.1109   -0.9503 C   0  0  0  0  0  0  0  0  0  0  0  0
   16.7352   26.0693   -0.5624 O   0  0  0  0  0  0  0  0  0  0  0  0
   15.7712   24.9183   -2.2716 C   0  0  0  0  0  0  0  0  0  0  0  0
   14.9634   23.8229   -2.6114 C   0  0  0  0  0  0  0  0  0  0  0  0
   14.5991   23.4625   -3.8522 O   0  0  0  0  0  0  0  0  0  0  0  0
   14.4813   23.0167   -1.5678 C   0  0  0  0  0  0  0  0  0  0  0  0
   13.6942   21.9280   -1.8782 C   0  0  0  0  0  0  0  0  0  0  0  0
   14.6324   23.6214   -4.7668 H   0  0  0  0  0  0  0  0  0  0  0  0
   16.2745   25.7382   -3.3554 C   0  0  0  0  0  0  0  0  0  0  0  0
   16.0886   25.3484   -4.5770 O   0  0  0  0  0  0  0  0  0  0  0  0
   16.9586   26.9351   -3.1892 N   0  0  0  0  0  0  0  0  0  0  0  0
   17.1737   27.3609   -2.2920 H   0  0  0  0  0  0  0  0  0  0  0  0
   17.4147   27.6589   -4.3922 C   0  0  0  0  0  0  0  0  0  0  0  0
   18.6771   28.3724   -4.1083 C   0  0  0  0  0  0  0  0  0  0  0  0
   19.8050   27.6339   -3.7941 O   0  0  0  0  0  0  0  0  0  0  0  0
   18.7451   29.6168   -4.1454 O   0  0  0  0  0  0  0  0  0  0  0  0
   20.0048   27.3720   -2.8320 H   0  0  0  0  0  0  0  0  0  0  0  0
 11 12  1  0  0  0
 12 13  2  0  0  0
 12 14  1  0  0  0
 14 10  1  0  0  0
 10 16  1  0  0  0
 16 17  1  0  0  0
 17 18  2  0  0  0
 18 19  1  0  0  0
 19 20  2  0  0  0
 20 21  1  0  0  0
 21 22  2  0  0  0
 10  6  1  0  0  0
  6  7  2  0  0  0
  6  8  1  0  0  0
  8  5  1  0  0  0
  5 23  1  0  0  0
 23 24  1  0  0  0
 24 25  2  0  0  0
 25 26  1  0  0  0
 26 27  2  0  0  0
 27 28  1  0  0  0
 28 29  2  0  0  0
  5  1  1  0  0  0
  1  2  2  0  0  0
  1  3  1  0  0  0
  3 30  1  0  0  0
 30 31  1  0  0  0
 31 32  2  0  0  0
 32 33  1  0  0  0
 33 34  2  0  0  0
 34 35  1  0  0  0
 35 36  1  0  0  0
 35 37  1  0  0  0
 37 38  2  0  0  0
 37 39  1  0  0  0
 39 45  1  0  0  0
 45 46  2  0  0  0
 45 47  1  0  0  0
 47 49  1  0  0  0
 49 50  1  0  0  0
 50 51  1  0  0  0
 50 52  2  0  0  0
 39 40  2  0  0  0
 40 41  1  0  0  0
 40 42  1  0  0  0
 42 43  2  0  0  0
 22 17  1  0  0  0
 29 24  1  0  0  0
 43 31  1  0  0  0
 42 34  1  0  0  0
 14 15  1  0  0  0
  8  9  1  0  0  0
  3  4  1  0  0  0
 47 48  1  0  0  0
 51 53  1  0  0  0
 41 44  1  0  0  0
M  END
> <minimizedAffinity>
-5.87665

> <CNNscore>
0.1602275074

> <CNNaffinity>
7.0750780106

> <CNN_VS>
1.1336221695

> <CNNaffinity_variance>
0.1615785211

$$$$
[H]OC(=O)C([H])([H])N([H])C(=O)c1c(O[H])c2c([H])c(C([H])([H])N([H])C(=O)[C@]([H])(N([H])C(=O)[C@@]([H])(N([H])C(=O)C([H])([H])[H])C([H])([H])c3c([H])c([H])c([H])c([H])c3[H])C([H])([H])c3c([H])c([H])c([H])c([H])c3[H])c([H])c([H])c2n(C([H])([H])[H])c1=O


 53 56  0  0  0  0  0  0  0  0999 V2000
   13.1656   21.3790   -1.4829 C   0  0  0  0  0  0  0  0  0  0  0  0
   13.5618   20.1599   -1.4376 O   0  0  0  0  0  0  0  0  0  0  0  0
   11.8177   21.6783   -1.1885 N   0  0  0  0  0  0  0  0  0  0  0  0
   11.4813   22.6651   -1.2108 H   0  0  0  0  0  0  0  0  0  0  0  0
   14.1656   22.4002   -1.8480 C   0  0  0  0  0  0  0  0  0  0  0  0
   13.4678   23.9887   -0.0721 C   0  0  0  0  0  0  0  0  0  0  0  0
   13.3738   23.0296    0.7513 O   0  0  0  0  0  0  0  0  0  0  0  0
   13.8638   23.7303   -1.3891 N   0  0  0  0  0  0  0  0  0  0  0  0
   13.9371   24.5387   -2.0416 H   0  0  0  0  0  0  0  0  0  0  0  0
   13.1280   25.3478    0.4717 C   0  0  0  0  0  0  0  0  0  0  0  0
    9.7201   24.6515    2.2281 C   0  0  0  0  0  0  0  0  0  0  0  0
   10.8025   24.7587    1.2249 C   0  0  0  0  0  0  0  0  0  0  0  0
   10.5359   24.3668    0.0486 O   0  0  0  0  0  0  0  0  0  0  0  0
   12.1052   25.2643    1.4851 N   0  0  0  0  0  0  0  0  0  0  0  0
   12.2939   25.5794    2.4596 H   0  0  0  0  0  0  0  0  0  0  0  0
   14.3941   25.9611    0.9551 C   0  0  0  0  0  0  0  0  0  0  0  0
   15.6127   25.4633    0.2942 C   0  0  0  0  0  0  0  0  0  0  0  0
   15.8879   25.9523   -0.9819 C   0  0  0  0  0  0  0  0  0  0  0  0
   17.0277   25.5059   -1.6301 C   0  0  0  0  0  0  0  0  0  0  0  0
   17.8551   24.5985   -1.0050 C   0  0  0  0  0  0  0  0  0  0  0  0
   17.5465   24.1301    0.2760 C   0  0  0  0  0  0  0  0  0  0  0  0
   16.4171   24.5644    0.9328 C   0  0  0  0  0  0  0  0  0  0  0  0
   14.6566   22.2903   -3.2531 C   0  0  0  0  0  0  0  0  0  0  0  0
   14.7038   23.6681   -3.8241 C   0  0  0  0  0  0  0  0  0  0  0  0
   15.6717   23.8851   -4.8210 C   0  0  0  0  0  0  0  0  0  0  0  0
   15.8179   25.1046   -5.4217 C   0  0  0  0  0  0  0  0  0  0  0  0
   14.9959   26.1414   -5.0380 C   0  0  0  0  0  0  0  0  0  0  0  0
   14.0336   25.9711   -4.0642 C   0  0  0  0  0  0  0  0  0  0  0  0
   13.9226   24.7123   -3.4825 C   0  0  0  0  0  0  0  0  0  0  0  0
   10.8211   20.6827   -0.8470 C   0  0  0  0  0  0  0  0  0  0  0  0
   10.6221   20.7067    0.6199 C   0  0  0  0  0  0  0  0  0  0  0  0
   11.5491   20.2742    1.5226 C   0  0  0  0  0  0  0  0  0  0  0  0
   11.3095   20.3375    2.8900 C   0  0  0  0  0  0  0  0  0  0  0  0
   10.1002   20.8527    3.3489 C   0  0  0  0  0  0  0  0  0  0  0  0
    9.8783   20.9208    4.6727 N   0  0  0  0  0  0  0  0  0  0  0  0
   10.8762   20.4604    5.6019 C   0  0  0  0  0  0  0  0  0  0  0  0
    8.6920   21.4379    5.0812 C   0  0  0  0  0  0  0  0  0  0  0  0
    8.5631   21.4661    6.3305 O   0  0  0  0  0  0  0  0  0  0  0  0
    7.7043   21.8948    4.2678 C   0  0  0  0  0  0  0  0  0  0  0  0
    7.9360   21.8232    2.8861 C   0  0  0  0  0  0  0  0  0  0  0  0
    7.0917   22.2186    1.9202 O   0  0  0  0  0  0  0  0  0  0  0  0
    9.1612   21.2899    2.4548 C   0  0  0  0  0  0  0  0  0  0  0  0
    9.4158   21.2193    1.1015 C   0  0  0  0  0  0  0  0  0  0  0  0
    6.2723   22.5870    1.6843 H   0  0  0  0  0  0  0  0  0  0  0  0
    6.4424   22.4576    4.7048 C   0  0  0  0  0  0  0  0  0  0  0  0
    5.3481   21.8054    4.4687 O   0  0  0  0  0  0  0  0  0  0  0  0
    6.3052   23.6691    5.3695 N   0  0  0  0  0  0  0  0  0  0  0  0
    7.0744   24.2835    5.6210 H   0  0  0  0  0  0  0  0  0  0  0  0
    4.9501   24.1149    5.7491 C   0  0  0  0  0  0  0  0  0  0  0  0
    4.7877   25.5541    5.4564 C   0  0  0  0  0  0  0  0  0  0  0  0
    5.8152   26.4218    5.7840 O   0  0  0  0  0  0  0  0  0  0  0  0
    3.7510   25.9982    4.9249 O   0  0  0  0  0  0  0  0  0  0  0  0
    5.8618   26.8497    6.7054 H   0  0  0  0  0  0  0  0  0  0  0  0
 11 12  1  0  0  0
 12 13  2  0  0  0
 12 14  1  0  0  0
 14 10  1  0  0  0
 10 16  1  0  0  0
 16 17  1  0  0  0
 17 18  2  0  0  0
 18 19  1  0  0  0
 19 20  2  0  0  0
 20 21  1  0  0  0
 21 22  2  0  0  0
 10  6  1  0  0  0
  6  7  2  0  0  0
  6  8  1  0  0  0
  8  5  1  0  0  0
  5 23  1  0  0  0
 23 24  1  0  0  0
 24 25  2  0  0  0
 25 26  1  0  0  0
 26 27  2  0  0  0
 27 28  1  0  0  0
 28 29  2  0  0  0
  5  1  1  0  0  0
  1  2  2  0  0  0
  1  3  1  0  0  0
  3 30  1  0  0  0
 30 31  1  0  0  0
 31 32  2  0  0  0
 32 33  1  0  0  0
 33 34  2  0  0  0
 34 35  1  0  0  0
 35 36  1  0  0  0
 35 37  1  0  0  0
 37 38  2  0  0  0
 37 39  1  0  0  0
 39 45  1  0  0  0
 45 46  2  0  0  0
 45 47  1  0  0  0
 47 49  1  0  0  0
 49 50  1  0  0  0
 50 51  1  0  0  0
 50 52  2  0  0  0
 39 40  2  0  0  0
 40 41  1  0  0  0
 40 42  1  0  0  0
 42 43  2  0  0  0
 22 17  1  0  0  0
 29 24  1  0  0  0
 43 31  1  0  0  0
 42 34  1  0  0  0
 14 15  1  0  0  0
  8  9  1  0  0  0
  3  4  1  0  0  0
 47 48  1  0  0  0
 51 53  1  0  0  0
 41 44  1  0  0  0
M  END
> <minimizedAffinity>
-4.19038

> <CNNscore>
0.1448085159

> <CNNaffinity>
6.9826827049

> <CNN_VS>
1.0111519098

> <CNNaffinity_variance>
0.1785373390

$$$$
[H]c1nc2c([H])c(N([H])[H])c([H])c(-c3c([H])c([H])c(C#N)c(F)c3F)n2n1


 22 24  0  0  0  0  0  0  0  0999 V2000
    9.8662   23.9625   -0.6213 N   0  0  0  0  0  0  0  0  0  0  0  0
   11.2714   24.1711   -0.6665 C   0  0  0  0  0  0  0  0  0  0  0  0
   11.8940   24.5320   -1.8466 C   0  0  0  0  0  0  0  0  0  0  0  0
   13.2608   24.7392   -1.9091 C   0  0  0  0  0  0  0  0  0  0  0  0
   14.0441   24.5985   -0.8241 N   0  0  0  0  0  0  0  0  0  0  0  0
   15.3638   24.7391   -0.6272 N   0  0  0  0  0  0  0  0  0  0  0  0
   15.6032   24.4727    0.6697 C   0  0  0  0  0  0  0  0  0  0  0  0
   14.4328   24.1708    1.2615 N   0  0  0  0  0  0  0  0  0  0  0  0
   13.4588   24.2479    0.3347 C   0  0  0  0  0  0  0  0  0  0  0  0
   12.0896   24.0311    0.4374 C   0  0  0  0  0  0  0  0  0  0  0  0
    9.4287   23.1250   -0.1816 H   0  0  0  0  0  0  0  0  0  0  0  0
    9.2141   24.6600   -1.0378 H   0  0  0  0  0  0  0  0  0  0  0  0
   13.8998   25.1218   -3.1735 C   0  0  0  0  0  0  0  0  0  0  0  0
   13.5872   26.3422   -3.7240 C   0  0  0  0  0  0  0  0  0  0  0  0
   14.1670   26.7378   -4.9118 C   0  0  0  0  0  0  0  0  0  0  0  0
   15.0683   25.9407   -5.5852 C   0  0  0  0  0  0  0  0  0  0  0  0
   15.3566   24.7162   -4.9951 C   0  0  0  0  0  0  0  0  0  0  0  0
   16.2383   23.8986   -5.6225 F   0  0  0  0  0  0  0  0  0  0  0  0
   14.7884   24.3049   -3.8116 C   0  0  0  0  0  0  0  0  0  0  0  0
   15.1088   23.1031   -3.2881 F   0  0  0  0  0  0  0  0  0  0  0  0
   15.6671   26.3588   -6.8196 C   0  0  0  0  0  0  0  0  0  0  0  0
   16.1627   26.6986   -7.8226 N   0  0  0  0  0  0  0  0  0  0  0  0
  1  2  1  0  0  0
  2  3  1  0  0  0
  3  4  2  0  0  0
  4 13  1  0  0  0
 13 14  2  0  0  0
 14 15  1  0  0  0
 15 16  2  0  0  0
 16 21  1  0  0  0
 21 22  3  0  0  0
 16 17  1  0  0  0
 17 18  1  0  0  0
 17 19  2  0  0  0
 19 20  1  0  0  0
  4  5  1  0  0  0
  5  6  1  0  0  0
  6  7  2  0  0  0
  7  8  1  0  0  0
  8  9  2  0  0  0
  9 10  1  0  0  0
 10  2  2  0  0  0
 19 13  1  0  0  0
  9  5  1  0  0  0
  1 11  1  0  0  0
  1 12  1  0  0  0
M  END
> <minimizedAffinity>
-8.39244

> <CNNscore>
0.7998043299

> <CNNaffinity>
7.0369787216

> <CNN_VS>
5.6282062531

> <CNNaffinity_variance>
0.1777731478

$$$$
[H]c1nc2c([H])c(N([H])[H])c([H])c(-c3c([H])c([H])c(C#N)c(F)c3F)n2n1


 22 24  0  0  0  0  0  0  0  0999 V2000
    9.4920   21.4211   -0.6038 N   0  0  0  0  0  0  0  0  0  0  0  0
   10.8778   21.7234   -0.5127 C   0  0  0  0  0  0  0  0  0  0  0  0
   11.4499   22.6702   -1.3415 C   0  0  0  0  0  0  0  0  0  0  0  0
   12.7972   22.9772   -1.2668 C   0  0  0  0  0  0  0  0  0  0  0  0
   13.6098   22.3678   -0.3843 N   0  0  0  0  0  0  0  0  0  0  0  0
   14.9199   22.4840   -0.1194 N   0  0  0  0  0  0  0  0  0  0  0  0
   15.2032   21.6213    0.8735 C   0  0  0  0  0  0  0  0  0  0  0  0
   14.0690   20.9813    1.2128 N   0  0  0  0  0  0  0  0  0  0  0  0
   13.0738   21.4432    0.4319 C   0  0  0  0  0  0  0  0  0  0  0  0
   11.7256   21.1075    0.3871 C   0  0  0  0  0  0  0  0  0  0  0  0
    9.1235   20.4475   -0.6512 H   0  0  0  0  0  0  0  0  0  0  0  0
    8.7842   22.1852   -0.6265 H   0  0  0  0  0  0  0  0  0  0  0  0
   13.3824   23.9862   -2.1572 C   0  0  0  0  0  0  0  0  0  0  0  0
   14.5054   23.6540   -2.8774 C   0  0  0  0  0  0  0  0  0  0  0  0
   15.0851   24.5753   -3.7252 C   0  0  0  0  0  0  0  0  0  0  0  0
   14.5722   25.8454   -3.8835 C   0  0  0  0  0  0  0  0  0  0  0  0
   13.4373   26.1403   -3.1379 C   0  0  0  0  0  0  0  0  0  0  0  0
   12.8978   27.3784   -3.2619 F   0  0  0  0  0  0  0  0  0  0  0  0
   12.8457   25.2348   -2.2878 C   0  0  0  0  0  0  0  0  0  0  0  0
   11.7438   25.5809   -1.5900 F   0  0  0  0  0  0  0  0  0  0  0  0
   15.1803   26.7977   -4.7668 C   0  0  0  0  0  0  0  0  0  0  0  0
   15.6796   27.5778   -5.4805 N   0  0  0  0  0  0  0  0  0  0  0  0
  1  2  1  0  0  0
  2  3  1  0  0  0
  3  4  2  0  0  0
  4 13  1  0  0  0
 13 14  2  0  0  0
 14 15  1  0  0  0
 15 16  2  0  0  0
 16 21  1  0  0  0
 21 22  3  0  0  0
 16 17  1  0  0  0
 17 18  1  0  0  0
 17 19  2  0  0  0
 19 20  1  0  0  0
  4  5  1  0  0  0
  5  6  1  0  0  0
  6  7  2  0  0  0
  7  8  1  0  0  0
  8  9  2  0  0  0
  9 10  1  0  0  0
 10  2  2  0  0  0
 19 13  1  0  0  0
  9  5  1  0  0  0
  1 11  1  0  0  0
  1 12  1  0  0  0
M  END
> <minimizedAffinity>
-8.31648

> <CNNscore>
0.6468424797

> <CNNaffinity>
7.0823569298

> <CNN_VS>
4.5811691284

> <CNNaffinity_variance>
0.4053997993

$$$$
[H]c1nc2c([H])c(N([H])[H])c([H])c(-c3c([H])c([H])c(C#N)c(F)c3F)n2n1


 22 24  0  0  0  0  0  0  0  0999 V2000
   15.1402   20.2836    0.5568 N   0  0  0  0  0  0  0  0  0  0  0  0
   14.3782   21.4660    0.3532 C   0  0  0  0  0  0  0  0  0  0  0  0
   14.7727   22.4086   -0.5775 C   0  0  0  0  0  0  0  0  0  0  0  0
   14.0432   23.5655   -0.7889 C   0  0  0  0  0  0  0  0  0  0  0  0
   12.9180   23.8238   -0.0979 N   0  0  0  0  0  0  0  0  0  0  0  0
   12.0513   24.8479   -0.1156 N   0  0  0  0  0  0  0  0  0  0  0  0
   11.0983   24.5784    0.7952 C   0  0  0  0  0  0  0  0  0  0  0  0
   11.3832   23.3935    1.3662 N   0  0  0  0  0  0  0  0  0  0  0  0
   12.5159   22.9198    0.8129 C   0  0  0  0  0  0  0  0  0  0  0  0
   13.2213   21.7465    1.0537 C   0  0  0  0  0  0  0  0  0  0  0  0
   15.4171   19.9400    1.5009 H   0  0  0  0  0  0  0  0  0  0  0  0
   15.4530   19.7095   -0.2544 H   0  0  0  0  0  0  0  0  0  0  0  0
   14.4816   24.5521   -1.7827 C   0  0  0  0  0  0  0  0  0  0  0  0
   13.6491   24.8334   -2.8401 C   0  0  0  0  0  0  0  0  0  0  0  0
   14.0257   25.7550   -3.7951 C   0  0  0  0  0  0  0  0  0  0  0  0
   15.2313   26.4213   -3.7311 C   0  0  0  0  0  0  0  0  0  0  0  0
   16.0425   26.1081   -2.6474 C   0  0  0  0  0  0  0  0  0  0  0  0
   17.2384   26.7394   -2.5434 F   0  0  0  0  0  0  0  0  0  0  0  0
   15.6837   25.1921   -1.6856 C   0  0  0  0  0  0  0  0  0  0  0  0
   16.5155   24.9305   -0.6557 F   0  0  0  0  0  0  0  0  0  0  0  0
   15.6159   27.3782   -4.7279 C   0  0  0  0  0  0  0  0  0  0  0  0
   15.9216   28.1594   -5.5424 N   0  0  0  0  0  0  0  0  0  0  0  0
  1  2  1  0  0  0
  2  3  1  0  0  0
  3  4  2  0  0  0
  4 13  1  0  0  0
 13 14  2  0  0  0
 14 15  1  0  0  0
 15 16  2  0  0  0
 16 21  1  0  0  0
 21 22  3  0  0  0
 16 17  1  0  0  0
 17 18  1  0  0  0
 17 19  2  0  0  0
 19 20  1  0  0  0
  4  5  1  0  0  0
  5  6  1  0  0  0
  6  7  2  0  0  0
  7  8  1  0  0  0
  8  9  2  0  0  0
  9 10  1  0  0  0
 10  2  2  0  0  0
 19 13  1  0  0  0
  9  5  1  0  0  0
  1 11  1  0  0  0
  1 12  1  0  0  0
M  END
> <minimizedAffinity>
-8.24769

> <CNNscore>
0.6362824440

> <CNNaffinity>
7.0259237289

> <CNN_VS>
4.4704718590

> <CNNaffinity_variance>
0.1621088684

$$$$
[H]c1nc2c([H])c(N([H])[H])c([H])c(-c3c([H])c([H])c(C#N)c(F)c3F)n2n1


 22 24  0  0  0  0  0  0  0  0999 V2000
   11.2996   23.8643   -2.5790 N   0  0  0  0  0  0  0  0  0  0  0  0
   12.5786   23.9889   -1.9718 C   0  0  0  0  0  0  0  0  0  0  0  0
   13.4876   24.9259   -2.4261 C   0  0  0  0  0  0  0  0  0  0  0  0
   14.7371   25.0613   -1.8470 C   0  0  0  0  0  0  0  0  0  0  0  0
   15.1224   24.2870   -0.8163 N   0  0  0  0  0  0  0  0  0  0  0  0
   16.2530   24.2222   -0.0967 N   0  0  0  0  0  0  0  0  0  0  0  0
   16.0860   23.2518    0.8203 C   0  0  0  0  0  0  0  0  0  0  0  0
   14.8572   22.7268    0.6600 N   0  0  0  0  0  0  0  0  0  0  0  0
   14.2534   23.3686   -0.3583 C   0  0  0  0  0  0  0  0  0  0  0  0
   12.9899   23.2026   -0.9134 C   0  0  0  0  0  0  0  0  0  0  0  0
   10.8942   22.9494   -2.8702 H   0  0  0  0  0  0  0  0  0  0  0  0
   10.7134   24.7071   -2.7559 H   0  0  0  0  0  0  0  0  0  0  0  0
   15.6857   26.0633   -2.3464 C   0  0  0  0  0  0  0  0  0  0  0  0
   15.9522   26.1004   -3.6947 C   0  0  0  0  0  0  0  0  0  0  0  0
   16.8383   27.0278   -4.2027 C   0  0  0  0  0  0  0  0  0  0  0  0
   17.4827   27.9405   -3.3947 C   0  0  0  0  0  0  0  0  0  0  0  0
   17.1855   27.8692   -2.0392 C   0  0  0  0  0  0  0  0  0  0  0  0
   17.7964   28.7479   -1.2061 F   0  0  0  0  0  0  0  0  0  0  0  0
   16.3050   26.9515   -1.5147 C   0  0  0  0  0  0  0  0  0  0  0  0
   16.0573   26.9319   -0.1884 F   0  0  0  0  0  0  0  0  0  0  0  0
   18.4026   28.9018   -3.9302 C   0  0  0  0  0  0  0  0  0  0  0  0
   19.1463   29.6907   -4.3682 N   0  0  0  0  0  0  0  0  0  0  0  0
  1  2  1  0  0  0
  2  3  1  0  0  0
  3  4  2  0  0  0
  4 13  1  0  0  0
 13 14  2  0  0  0
 14 15  1  0  0  0
 15 16  2  0  0  0
 16 21  1  0  0  0
 21 22  3  0  0  0
 16 17  1  0  0  0
 17 18  1  0  0  0
 17 19  2  0  0  0
 19 20  1  0  0  0
  4  5  1  0  0  0
  5  6  1  0  0  0
  6  7  2  0  0  0
  7  8  1  0  0  0
  8  9  2  0  0  0
  9 10  1  0  0  0
 10  2  2  0  0  0
 19 13  1  0  0  0
  9  5  1  0  0  0
  1 11  1  0  0  0
  1 12  1  0  0  0
M  END
> <minimizedAffinity>
9.30403

> <CNNscore>
0.6324604154

> <CNNaffinity>
6.6795172691

> <CNN_VS>
4.2245302200

> <CNNaffinity_variance>
0.9253414869

$$$$
[H]c1nc2c([H])c(N([H])[H])c([H])c(-c3c([H])c([H])c(C#N)c(F)c3F)n2n1


 22 24  0  0  0  0  0  0  0  0999 V2000
    9.3408   21.6095   -0.5803 N   0  0  0  0  0  0  0  0  0  0  0  0
   10.7353   21.8678   -0.4860 C   0  0  0  0  0  0  0  0  0  0  0  0
   11.3394   22.7942   -1.3150 C   0  0  0  0  0  0  0  0  0  0  0  0
   12.6956   23.0585   -1.2371 C   0  0  0  0  0  0  0  0  0  0  0  0
   13.4860   22.4253   -0.3512 N   0  0  0  0  0  0  0  0  0  0  0  0
   14.7984   22.5004   -0.0829 N   0  0  0  0  0  0  0  0  0  0  0  0
   15.0515   21.6312    0.9124 C   0  0  0  0  0  0  0  0  0  0  0  0
   13.8965   21.0282    1.2498 N   0  0  0  0  0  0  0  0  0  0  0  0
   12.9187   21.5199    0.4652 C   0  0  0  0  0  0  0  0  0  0  0  0
   11.5607   21.2271    0.4174 C   0  0  0  0  0  0  0  0  0  0  0  0
    8.9417   20.6479   -0.6268 H   0  0  0  0  0  0  0  0  0  0  0  0
    8.6577   22.3956   -0.6065 H   0  0  0  0  0  0  0  0  0  0  0  0
   13.3149   24.0465   -2.1279 C   0  0  0  0  0  0  0  0  0  0  0  0
   12.8214   25.3297   -2.1292 C   0  0  0  0  0  0  0  0  0  0  0  0
   13.3768   26.2871   -2.9528 C   0  0  0  0  0  0  0  0  0  0  0  0
   14.4315   26.0031   -3.7944 C   0  0  0  0  0  0  0  0  0  0  0  0
   14.9000   24.6954   -3.7623 C   0  0  0  0  0  0  0  0  0  0  0  0
   15.9369   24.3702   -4.5739 F   0  0  0  0  0  0  0  0  0  0  0  0
   14.3589   23.7275   -2.9480 C   0  0  0  0  0  0  0  0  0  0  0  0
   14.8582   22.4740   -2.9619 F   0  0  0  0  0  0  0  0  0  0  0  0
   15.0038   27.0039   -4.6477 C   0  0  0  0  0  0  0  0  0  0  0  0
   15.4631   27.8204   -5.3472 N   0  0  0  0  0  0  0  0  0  0  0  0
  1  2  1  0  0  0
  2  3  1  0  0  0
  3  4  2  0  0  0
  4 13  1  0  0  0
 13 14  2  0  0  0
 14 15  1  0  0  0
 15 16  2  0  0  0
 16 21  1  0  0  0
 21 22  3  0  0  0
 16 17  1  0  0  0
 17 18  1  0  0  0
 17 19  2  0  0  0
 19 20  1  0  0  0
  4  5  1  0  0  0
  5  6  1  0  0  0
  6  7  2  0  0  0
  7  8  1  0  0  0
  8  9  2  0  0  0
  9 10  1  0  0  0
 10  2  2  0  0  0
 19 13  1  0  0  0
  9  5  1  0  0  0
  1 11  1  0  0  0
  1 12  1  0  0  0
M  END
> <minimizedAffinity>
-8.45860

> <CNNscore>
0.6052318215

> <CNNaffinity>
7.1253685951

> <CNN_VS>
4.3125000000

> <CNNaffinity_variance>
0.5133427978

$$$$
[H]c1nc2c([H])c(N([H])[H])c([H])c(-c3c([H])c([H])c(C#N)c(F)c3F)n2n1


 22 24  0  0  0  0  0  0  0  0999 V2000
   15.9741   21.3757    1.5585 N   0  0  0  0  0  0  0  0  0  0  0  0
   14.8959   21.6448    0.6724 C   0  0  0  0  0  0  0  0  0  0  0  0
   15.0386   22.5562   -0.3569 C   0  0  0  0  0  0  0  0  0  0  0  0
   13.9997   22.8306   -1.2290 C   0  0  0  0  0  0  0  0  0  0  0  0
   12.8050   22.2225   -1.1135 N   0  0  0  0  0  0  0  0  0  0  0  0
   11.6643   22.3118   -1.8143 N   0  0  0  0  0  0  0  0  0  0  0  0
   10.7829   21.4668   -1.2491 C   0  0  0  0  0  0  0  0  0  0  0  0
   11.3847   20.8643   -0.2069 N   0  0  0  0  0  0  0  0  0  0  0  0
   12.6444   21.3320   -0.1188 C   0  0  0  0  0  0  0  0  0  0  0  0
   13.6636   21.0297    0.7768 C   0  0  0  0  0  0  0  0  0  0  0  0
   15.8697   21.3634    2.5953 H   0  0  0  0  0  0  0  0  0  0  0  0
   16.9272   21.1774    1.1873 H   0  0  0  0  0  0  0  0  0  0  0  0
   14.1745   23.8023   -2.3146 C   0  0  0  0  0  0  0  0  0  0  0  0
   15.0598   23.5065   -3.3241 C   0  0  0  0  0  0  0  0  0  0  0  0
   15.2520   24.3946   -4.3623 C   0  0  0  0  0  0  0  0  0  0  0  0
   14.5767   25.5949   -4.4305 C   0  0  0  0  0  0  0  0  0  0  0  0
   13.6920   25.8549   -3.3911 C   0  0  0  0  0  0  0  0  0  0  0  0
   13.0053   27.0242   -3.4166 F   0  0  0  0  0  0  0  0  0  0  0  0
   13.4874   24.9816   -2.3479 C   0  0  0  0  0  0  0  0  0  0  0  0
   12.6139   25.2910   -1.3671 F   0  0  0  0  0  0  0  0  0  0  0  0
   14.7817   26.5131   -5.5131 C   0  0  0  0  0  0  0  0  0  0  0  0
   14.9563   27.2636   -6.3925 N   0  0  0  0  0  0  0  0  0  0  0  0
  1  2  1  0  0  0
  2  3  1  0  0  0
  3  4  2  0  0  0
  4 13  1  0  0  0
 13 14  2  0  0  0
 14 15  1  0  0  0
 15 16  2  0  0  0
 16 21  1  0  0  0
 21 22  3  0  0  0
 16 17  1  0  0  0
 17 18  1  0  0  0
 17 19  2  0  0  0
 19 20  1  0  0  0
  4  5  1  0  0  0
  5  6  1  0  0  0
  6  7  2  0  0  0
  7  8  1  0  0  0
  8  9  2  0  0  0
  9 10  1  0  0  0
 10  2  2  0  0  0
 19 13  1  0  0  0
  9  5  1  0  0  0
  1 11  1  0  0  0
  1 12  1  0  0  0
M  END
> <minimizedAffinity>
-8.76178

> <CNNscore>
0.5897277594

> <CNNaffinity>
6.9135909081

> <CNN_VS>
4.0771365166

> <CNNaffinity_variance>
0.0445180349

$$$$
[H]c1nc2c([H])c(N([H])[H])c([H])c(-c3c([H])c([H])c(C#N)c(F)c3F)n2n1


 22 24  0  0  0  0  0  0  0  0999 V2000
   18.5959   25.2774    0.3966 N   0  0  0  0  0  0  0  0  0  0  0  0
   17.3212   24.7795    0.0127 C   0  0  0  0  0  0  0  0  0  0  0  0
   16.4736   25.5392   -0.7715 C   0  0  0  0  0  0  0  0  0  0  0  0
   15.2291   25.0706   -1.1549 C   0  0  0  0  0  0  0  0  0  0  0  0
   14.7893   23.8551   -0.7811 N   0  0  0  0  0  0  0  0  0  0  0  0
   13.6505   23.1854   -1.0150 N   0  0  0  0  0  0  0  0  0  0  0  0
   13.7514   21.9983   -0.3898 C   0  0  0  0  0  0  0  0  0  0  0  0
   14.9483   21.9447    0.2233 N   0  0  0  0  0  0  0  0  0  0  0  0
   15.5982   23.0993   -0.0178 C   0  0  0  0  0  0  0  0  0  0  0  0
   16.8546   23.5347    0.3874 C   0  0  0  0  0  0  0  0  0  0  0  0
   18.9489   25.2435    1.3766 H   0  0  0  0  0  0  0  0  0  0  0  0
   19.2327   25.7026   -0.3099 H   0  0  0  0  0  0  0  0  0  0  0  0
   14.3462   25.8951   -1.9878 C   0  0  0  0  0  0  0  0  0  0  0  0
   13.5538   26.8357   -1.3733 C   0  0  0  0  0  0  0  0  0  0  0  0
   12.7102   27.6302   -2.1222 C   0  0  0  0  0  0  0  0  0  0  0  0
   12.6274   27.5168   -3.4939 C   0  0  0  0  0  0  0  0  0  0  0  0
   13.4444   26.5548   -4.0751 C   0  0  0  0  0  0  0  0  0  0  0  0
   13.3962   26.4079   -5.4225 F   0  0  0  0  0  0  0  0  0  0  0  0
   14.2915   25.7537   -3.3447 C   0  0  0  0  0  0  0  0  0  0  0  0
   15.0609   24.8366   -3.9674 F   0  0  0  0  0  0  0  0  0  0  0  0
   11.7481   28.3464   -4.2657 C   0  0  0  0  0  0  0  0  0  0  0  0
   11.0250   29.0204   -4.8900 N   0  0  0  0  0  0  0  0  0  0  0  0
  1  2  1  0  0  0
  2  3  1  0  0  0
  3  4  2  0  0  0
  4 13  1  0  0  0
 13 14  2  0  0  0
 14 15  1  0  0  0
 15 16  2  0  0  0
 16 21  1  0  0  0
 21 22  3  0  0  0
 16 17  1  0  0  0
 17 18  1  0  0  0
 17 19  2  0  0  0
 19 20  1  0  0  0
  4  5  1  0  0  0
  5  6  1  0  0  0
  6  7  2  0  0  0
  7  8  1  0  0  0
  8  9  2  0  0  0
  9 10  1  0  0  0
 10  2  2  0  0  0
 19 13  1  0  0  0
  9  5  1  0  0  0
  1 11  1  0  0  0
  1 12  1  0  0  0
M  END
> <minimizedAffinity>
15.58812

> <CNNscore>
0.5487087965

> <CNNaffinity>
6.4279527664

> <CNN_VS>
3.5270743370

> <CNNaffinity_variance>
0.9391183853

$$$$
[H]c1nc2c([H])c(N([H])[H])c([H])c(-c3c([H])c([H])c(C#N)c(F)c3F)n2n1


 22 24  0  0  0  0  0  0  0  0999 V2000
   12.2554   26.9952   -4.1622 N   0  0  0  0  0  0  0  0  0  0  0  0
   12.3681   26.0470   -3.1094 C   0  0  0  0  0  0  0  0  0  0  0  0
   13.5619   25.8822   -2.4325 C   0  0  0  0  0  0  0  0  0  0  0  0
   13.6899   24.9640   -1.4051 C   0  0  0  0  0  0  0  0  0  0  0  0
   12.6581   24.1911   -1.0197 N   0  0  0  0  0  0  0  0  0  0  0  0
   12.5279   23.2480   -0.0744 N   0  0  0  0  0  0  0  0  0  0  0  0
   11.2608   22.7992   -0.1317 C   0  0  0  0  0  0  0  0  0  0  0  0
   10.6205   23.4671   -1.1091 N   0  0  0  0  0  0  0  0  0  0  0  0
   11.4871   24.3352   -1.6649 C   0  0  0  0  0  0  0  0  0  0  0  0
   11.3194   25.2461   -2.7014 C   0  0  0  0  0  0  0  0  0  0  0  0
   11.8335   26.7704   -5.0883 H   0  0  0  0  0  0  0  0  0  0  0  0
   12.6007   27.9699   -4.0357 H   0  0  0  0  0  0  0  0  0  0  0  0
   14.9675   24.8066   -0.7007 C   0  0  0  0  0  0  0  0  0  0  0  0
   14.9470   24.6049    0.6591 C   0  0  0  0  0  0  0  0  0  0  0  0
   16.1274   24.4526    1.3570 C   0  0  0  0  0  0  0  0  0  0  0  0
   17.3556   24.4953    0.7318 C   0  0  0  0  0  0  0  0  0  0  0  0
   17.3319   24.7009   -0.6422 C   0  0  0  0  0  0  0  0  0  0  0  0
   18.5173   24.7501   -1.2994 F   0  0  0  0  0  0  0  0  0  0  0  0
   16.1651   24.8548   -1.3546 C   0  0  0  0  0  0  0  0  0  0  0  0
   16.2073   25.0517   -2.6889 F   0  0  0  0  0  0  0  0  0  0  0  0
   18.5786   24.3360    1.4641 C   0  0  0  0  0  0  0  0  0  0  0  0
   19.5720   24.2099    2.0676 N   0  0  0  0  0  0  0  0  0  0  0  0
  1  2  1  0  0  0
  2  3  1  0  0  0
  3  4  2  0  0  0
  4 13  1  0  0  0
 13 14  2  0  0  0
 14 15  1  0  0  0
 15 16  2  0  0  0
 16 21  1  0  0  0
 21 22  3  0  0  0
 16 17  1  0  0  0
 17 18  1  0  0  0
 17 19  2  0  0  0
 19 20  1  0  0  0
  4  5  1  0  0  0
  5  6  1  0  0  0
  6  7  2  0  0  0
  7  8  1  0  0  0
  8  9  2  0  0  0
  9 10  1  0  0  0
 10  2  2  0  0  0
 19 13  1  0  0  0
  9  5  1  0  0  0
  1 11  1  0  0  0
  1 12  1  0  0  0
M  END
> <minimizedAffinity>
4.38252

> <CNNscore>
0.5088934302

> <CNNaffinity>
6.5827512741

> <CNN_VS>
3.3499188423

> <CNNaffinity_variance>
0.9675992727

$$$$
[H]c1nc2c([H])c(N([H])[H])c([H])c(-c3c([H])c([H])c(C#N)c(F)c3F)n2n1


 22 24  0  0  0  0  0  0  0  0999 V2000
    9.4788   24.7231   -2.2587 N   0  0  0  0  0  0  0  0  0  0  0  0
   10.7566   24.3433   -1.7656 C   0  0  0  0  0  0  0  0  0  0  0  0
   11.8973   25.0086   -2.1738 C   0  0  0  0  0  0  0  0  0  0  0  0
   13.1494   24.6525   -1.7042 C   0  0  0  0  0  0  0  0  0  0  0  0
   13.3118   23.6429   -0.8297 N   0  0  0  0  0  0  0  0  0  0  0  0
   14.3933   23.1142   -0.2373 N   0  0  0  0  0  0  0  0  0  0  0  0
   13.9649   22.1118    0.5514 C   0  0  0  0  0  0  0  0  0  0  0  0
   12.6262   22.0301    0.4401 N   0  0  0  0  0  0  0  0  0  0  0  0
   12.2150   22.9819   -0.4192 C   0  0  0  0  0  0  0  0  0  0  0  0
   10.9409   23.3099   -0.8679 C   0  0  0  0  0  0  0  0  0  0  0  0
    8.7858   24.0395   -2.6308 H   0  0  0  0  0  0  0  0  0  0  0  0
    9.1893   25.7239   -2.2627 H   0  0  0  0  0  0  0  0  0  0  0  0
   14.3464   25.3736   -2.1520 C   0  0  0  0  0  0  0  0  0  0  0  0
   14.2085   26.3329   -3.1271 C   0  0  0  0  0  0  0  0  0  0  0  0
   15.3103   27.0324   -3.5746 C   0  0  0  0  0  0  0  0  0  0  0  0
   16.5738   26.8034   -3.0721 C   0  0  0  0  0  0  0  0  0  0  0  0
   16.6693   25.8263   -2.0888 C   0  0  0  0  0  0  0  0  0  0  0  0
   17.8933   25.5671   -1.5653 F   0  0  0  0  0  0  0  0  0  0  0  0
   15.5821   25.1188   -1.6303 C   0  0  0  0  0  0  0  0  0  0  0  0
   15.7391   24.1814   -0.6725 F   0  0  0  0  0  0  0  0  0  0  0  0
   17.7145   27.5347   -3.5424 C   0  0  0  0  0  0  0  0  0  0  0  0
   18.6405   28.1322   -3.9329 N   0  0  0  0  0  0  0  0  0  0  0  0
  1  2  1  0  0  0
  2  3  1  0  0  0
  3  4  2  0  0  0
  4 13  1  0  0  0
 13 14  2  0  0  0
 14 15  1  0  0  0
 15 16  2  0  0  0
 16 21  1  0  0  0
 21 22  3  0  0  0
 16 17  1  0  0  0
 17 18  1  0  0  0
 17 19  2  0  0  0
 19 20  1  0  0  0
  4  5  1  0  0  0
  5  6  1  0  0  0
  6  7  2  0  0  0
  7  8  1  0  0  0
  8  9  2  0  0  0
  9 10  1  0  0  0
 10  2  2  0  0  0
 19 13  1  0  0  0
  9  5  1  0  0  0
  1 11  1  0  0  0
  1 12  1  0  0  0
M  END
> <minimizedAffinity>
-2.46877

> <CNNscore>
0.4167797565

> <CNNaffinity>
6.6799287796

> <CNN_VS>
2.7840590477

> <CNNaffinity_variance>
0.7500328422

$$$$
[H]c1nc2nc(N([H])C3([H])C([H])([H])C3([H])[H])c([H])c(-c3c([H])c([H])c(C#N)c([H])c3[H])n2n1


 22 25  0  0  0  0  0  0  0  0999 V2000
   13.5111   24.7143   -1.9645 C   0  0  0  0  0  0  0  0  0  0  0  0
   12.1279   24.5138   -1.8606 C   0  0  0  0  0  0  0  0  0  0  0  0
   11.5539   24.1537   -0.6698 C   0  0  0  0  0  0  0  0  0  0  0  0
   12.3779   24.0058    0.3761 N   0  0  0  0  0  0  0  0  0  0  0  0
   13.7140   24.1932    0.3029 C   0  0  0  0  0  0  0  0  0  0  0  0
   14.7028   24.1040    1.2270 N   0  0  0  0  0  0  0  0  0  0  0  0
   15.8706   24.3986    0.6432 C   0  0  0  0  0  0  0  0  0  0  0  0
   15.5859   24.6658   -0.6346 N   0  0  0  0  0  0  0  0  0  0  0  0
   14.2916   24.5512   -0.8773 N   0  0  0  0  0  0  0  0  0  0  0  0
   15.1024   25.8255   -5.7649 C   0  0  0  0  0  0  0  0  0  0  0  0
   14.1660   26.6232   -5.1441 C   0  0  0  0  0  0  0  0  0  0  0  0
   13.6487   26.2605   -3.8876 C   0  0  0  0  0  0  0  0  0  0  0  0
   14.0453   25.1213   -3.2413 C   0  0  0  0  0  0  0  0  0  0  0  0
   14.9894   24.3414   -3.8947 C   0  0  0  0  0  0  0  0  0  0  0  0
   15.5013   24.6776   -5.1112 C   0  0  0  0  0  0  0  0  0  0  0  0
   16.1171   26.4098   -8.0854 N   0  0  0  0  0  0  0  0  0  0  0  0
   15.6612   26.1535   -7.0492 C   0  0  0  0  0  0  0  0  0  0  0  0
   10.1398   23.9481   -0.5614 N   0  0  0  0  0  0  0  0  0  0  0  0
    9.5389   24.2175   -1.3460 H   0  0  0  0  0  0  0  0  0  0  0  0
    9.5968   23.3693    0.6444 C   0  0  0  0  0  0  0  0  0  0  0  0
    8.3576   23.9270    1.2664 C   0  0  0  0  0  0  0  0  0  0  0  0
    8.3211   22.6021    0.5850 C   0  0  0  0  0  0  0  0  0  0  0  0
 16 17  3  0  0  0
 17 10  1  0  0  0
 10 11  2  0  0  0
 11 12  1  0  0  0
 12 13  2  0  0  0
 13 14  1  0  0  0
 14 15  2  0  0  0
 13  1  1  0  0  0
  1  2  2  0  0  0
  2  3  1  0  0  0
  3 18  1  0  0  0
 18 20  1  0  0  0
 20 21  1  0  0  0
 21 22  1  0  0  0
  3  4  2  0  0  0
  4  5  1  0  0  0
  5  6  2  0  0  0
  6  7  1  0  0  0
  7  8  2  0  0  0
  8  9  1  0  0  0
 15 10  1  0  0  0
  9  1  1  0  0  0
 22 20  1  0  0  0
  9  5  1  0  0  0
 18 19  1  0  0  0
M  END
> <minimizedAffinity>
-8.25243

> <CNNscore>
0.8192433715

> <CNNaffinity>
6.9713449478

> <CNN_VS>
5.7112283707

> <CNNaffinity_variance>
0.1458118707

$$$$
[H]c1nc2nc(N([H])C3([H])C([H])([H])C3([H])[H])c([H])c(-c3c([H])c([H])c(C#N)c([H])c3[H])n2n1


 22 25  0  0  0  0  0  0  0  0999 V2000
   13.5329   24.6415   -1.9528 C   0  0  0  0  0  0  0  0  0  0  0  0
   12.1487   24.4445   -1.8567 C   0  0  0  0  0  0  0  0  0  0  0  0
   11.5599   24.1412   -0.6573 C   0  0  0  0  0  0  0  0  0  0  0  0
   12.3708   24.0448    0.4048 N   0  0  0  0  0  0  0  0  0  0  0  0
   13.7076   24.2302    0.3394 C   0  0  0  0  0  0  0  0  0  0  0  0
   14.6848   24.1867    1.2790 N   0  0  0  0  0  0  0  0  0  0  0  0
   15.8597   24.4545    0.6964 C   0  0  0  0  0  0  0  0  0  0  0  0
   15.5909   24.6595   -0.5963 N   0  0  0  0  0  0  0  0  0  0  0  0
   14.2998   24.5318   -0.8493 N   0  0  0  0  0  0  0  0  0  0  0  0
   15.1497   25.7578   -5.7410 C   0  0  0  0  0  0  0  0  0  0  0  0
   15.5585   24.5939   -5.1272 C   0  0  0  0  0  0  0  0  0  0  0  0
   15.0186   24.2226   -3.8828 C   0  0  0  0  0  0  0  0  0  0  0  0
   14.0828   24.9874   -3.2409 C   0  0  0  0  0  0  0  0  0  0  0  0
   13.6935   26.1526   -3.8870 C   0  0  0  0  0  0  0  0  0  0  0  0
   14.2055   26.5272   -5.0922 C   0  0  0  0  0  0  0  0  0  0  0  0
   16.1005   26.5146   -8.0386 N   0  0  0  0  0  0  0  0  0  0  0  0
   15.6718   26.1803   -7.0130 C   0  0  0  0  0  0  0  0  0  0  0  0
   10.1448   23.9393   -0.5569 N   0  0  0  0  0  0  0  0  0  0  0  0
    9.5490   24.2096   -1.3451 H   0  0  0  0  0  0  0  0  0  0  0  0
    9.5934   23.3628    0.6462 C   0  0  0  0  0  0  0  0  0  0  0  0
    8.3568   23.9293    1.2654 C   0  0  0  0  0  0  0  0  0  0  0  0
    8.3118   22.6059    0.5816 C   0  0  0  0  0  0  0  0  0  0  0  0
 16 17  3  0  0  0
 17 10  1  0  0  0
 10 11  2  0  0  0
 11 12  1  0  0  0
 12 13  2  0  0  0
 13 14  1  0  0  0
 14 15  2  0  0  0
 13  1  1  0  0  0
  1  2  2  0  0  0
  2  3  1  0  0  0
  3 18  1  0  0  0
 18 20  1  0  0  0
 20 21  1  0  0  0
 21 22  1  0  0  0
  3  4  2  0  0  0
  4  5  1  0  0  0
  5  6  2  0  0  0
  6  7  1  0  0  0
  7  8  2  0  0  0
  8  9  1  0  0  0
 15 10  1  0  0  0
  9  1  1  0  0  0
 22 20  1  0  0  0
  9  5  1  0  0  0
 18 19  1  0  0  0
M  END
> <minimizedAffinity>
-7.99671

> <CNNscore>
0.8021495342

> <CNNaffinity>
6.9331197739

> <CNN_VS>
5.5613989830

> <CNNaffinity_variance>
0.1407615244

$$$$
[H]c1nc2nc(N([H])C3([H])C([H])([H])C3([H])[H])c([H])c(-c3c([H])c([H])c(C#N)c([H])c3[H])n2n1


 22 25  0  0  0  0  0  0  0  0999 V2000
   12.7034   23.1867   -1.2461 C   0  0  0  0  0  0  0  0  0  0  0  0
   11.3172   22.9846   -1.2848 C   0  0  0  0  0  0  0  0  0  0  0  0
   10.7143   22.0653   -0.4670 C   0  0  0  0  0  0  0  0  0  0  0  0
   11.5136   21.3794    0.3608 N   0  0  0  0  0  0  0  0  0  0  0  0
   12.8522   21.5551    0.4180 C   0  0  0  0  0  0  0  0  0  0  0  0
   13.8193   20.9800    1.1754 N   0  0  0  0  0  0  0  0  0  0  0  0
   15.0017   21.5166    0.8505 C   0  0  0  0  0  0  0  0  0  0  0  0
   14.7475   22.4163   -0.1040 N   0  0  0  0  0  0  0  0  0  0  0  0
   13.4583   22.4669   -0.3917 N   0  0  0  0  0  0  0  0  0  0  0  0
   14.4094   26.0891   -3.8685 C   0  0  0  0  0  0  0  0  0  0  0  0
   13.2579   26.3772   -3.1687 C   0  0  0  0  0  0  0  0  0  0  0  0
   12.7014   25.4231   -2.2981 C   0  0  0  0  0  0  0  0  0  0  0  0
   13.2687   24.1915   -2.1134 C   0  0  0  0  0  0  0  0  0  0  0  0
   14.4273   23.9347   -2.8334 C   0  0  0  0  0  0  0  0  0  0  0  0
   14.9801   24.8469   -3.6803 C   0  0  0  0  0  0  0  0  0  0  0  0
   15.4982   27.7925   -5.5021 N   0  0  0  0  0  0  0  0  0  0  0  0
   15.0167   27.0311   -4.7701 C   0  0  0  0  0  0  0  0  0  0  0  0
    9.2970   21.8571   -0.5050 N   0  0  0  0  0  0  0  0  0  0  0  0
    8.6773   22.6725   -0.5279 H   0  0  0  0  0  0  0  0  0  0  0  0
    8.7771   20.5104   -0.5100 C   0  0  0  0  0  0  0  0  0  0  0  0
    7.3105   20.2592   -0.3700 C   0  0  0  0  0  0  0  0  0  0  0  0
    7.9872   20.0288   -1.6778 C   0  0  0  0  0  0  0  0  0  0  0  0
 16 17  3  0  0  0
 17 10  1  0  0  0
 10 11  2  0  0  0
 11 12  1  0  0  0
 12 13  2  0  0  0
 13 14  1  0  0  0
 14 15  2  0  0  0
 13  1  1  0  0  0
  1  2  2  0  0  0
  2  3  1  0  0  0
  3 18  1  0  0  0
 18 20  1  0  0  0
 20 21  1  0  0  0
 21 22  1  0  0  0
  3  4  2  0  0  0
  4  5  1  0  0  0
  5  6  2  0  0  0
  6  7  1  0  0  0
  7  8  2  0  0  0
  8  9  1  0  0  0
 15 10  1  0  0  0
  9  1  1  0  0  0
 22 20  1  0  0  0
  9  5  1  0  0  0
 18 19  1  0  0  0
M  END
> <minimizedAffinity>
-8.09099

> <CNNscore>
0.6297544837

> <CNNaffinity>
6.9186105728

> <CNN_VS>
4.3570261002

> <CNNaffinity_variance>
0.5279129744

$$$$
[H]c1nc2nc(N([H])C3([H])C([H])([H])C3([H])[H])c([H])c(-c3c([H])c([H])c(C#N)c([H])c3[H])n2n1


 22 25  0  0  0  0  0  0  0  0999 V2000
   12.8763   23.9881   -0.8863 C   0  0  0  0  0  0  0  0  0  0  0  0
   11.8319   24.6326   -0.2096 C   0  0  0  0  0  0  0  0  0  0  0  0
   11.3109   24.1115    0.9455 C   0  0  0  0  0  0  0  0  0  0  0  0
   11.8486   22.9664    1.3863 N   0  0  0  0  0  0  0  0  0  0  0  0
   12.8557   22.3253    0.7534 C   0  0  0  0  0  0  0  0  0  0  0  0
   13.5325   21.1835    1.0327 N   0  0  0  0  0  0  0  0  0  0  0  0
   14.4564   20.9836    0.0851 C   0  0  0  0  0  0  0  0  0  0  0  0
   14.3367   22.0059   -0.7669 N   0  0  0  0  0  0  0  0  0  0  0  0
   13.3785   22.8372   -0.3952 N   0  0  0  0  0  0  0  0  0  0  0  0
   14.3934   25.9062   -4.3833 C   0  0  0  0  0  0  0  0  0  0  0  0
   14.9548   24.7293   -3.9380 C   0  0  0  0  0  0  0  0  0  0  0  0
   14.4484   24.0934   -2.7903 C   0  0  0  0  0  0  0  0  0  0  0  0
   13.3973   24.6074   -2.0805 C   0  0  0  0  0  0  0  0  0  0  0  0
   12.8558   25.7934   -2.5568 C   0  0  0  0  0  0  0  0  0  0  0  0
   13.3333   26.4224   -3.6665 C   0  0  0  0  0  0  0  0  0  0  0  0
   15.2719   27.1522   -6.4884 N   0  0  0  0  0  0  0  0  0  0  0  0
   14.8754   26.5939   -5.5512 C   0  0  0  0  0  0  0  0  0  0  0  0
   10.2429   24.7689    1.6389 N   0  0  0  0  0  0  0  0  0  0  0  0
    9.9113   25.6742    1.2929 H   0  0  0  0  0  0  0  0  0  0  0  0
    9.6615   24.1441    2.8032 C   0  0  0  0  0  0  0  0  0  0  0  0
    9.1115   24.9732    3.9184 C   0  0  0  0  0  0  0  0  0  0  0  0
    8.1899   24.2182    3.0229 C   0  0  0  0  0  0  0  0  0  0  0  0
 16 17  3  0  0  0
 17 10  1  0  0  0
 10 11  2  0  0  0
 11 12  1  0  0  0
 12 13  2  0  0  0
 13 14  1  0  0  0
 14 15  2  0  0  0
 13  1  1  0  0  0
  1  2  2  0  0  0
  2  3  1  0  0  0
  3 18  1  0  0  0
 18 20  1  0  0  0
 20 21  1  0  0  0
 21 22  1  0  0  0
  3  4  2  0  0  0
  4  5  1  0  0  0
  5  6  2  0  0  0
  6  7  1  0  0  0
  7  8  2  0  0  0
  8  9  1  0  0  0
 15 10  1  0  0  0
  9  1  1  0  0  0
 22 20  1  0  0  0
  9  5  1  0  0  0
 18 19  1  0  0  0
M  END
> <minimizedAffinity>
-8.77380

> <CNNscore>
0.5902164578

> <CNNaffinity>
6.6722517014

> <CNN_VS>
3.9380726814

> <CNNaffinity_variance>
0.3517504334

$$$$
[H]c1nc2nc(N([H])C3([H])C([H])([H])C3([H])[H])c([H])c(-c3c([H])c([H])c(C#N)c([H])c3[H])n2n1


 22 25  0  0  0  0  0  0  0  0999 V2000
   13.7837   26.6227   -4.8398 C   0  0  0  0  0  0  0  0  0  0  0  0
   12.9019   27.7012   -4.9927 C   0  0  0  0  0  0  0  0  0  0  0  0
   11.9819   28.0042   -4.0236 C   0  0  0  0  0  0  0  0  0  0  0  0
   11.9724   27.2222   -2.9360 N   0  0  0  0  0  0  0  0  0  0  0  0
   12.8114   26.1770   -2.7638 C   0  0  0  0  0  0  0  0  0  0  0  0
   12.9666   25.2846   -1.7543 N   0  0  0  0  0  0  0  0  0  0  0  0
   13.9553   24.4394   -2.0701 C   0  0  0  0  0  0  0  0  0  0  0  0
   14.3967   24.8224   -3.2717 N   0  0  0  0  0  0  0  0  0  0  0  0
   13.7283   25.8698   -3.7226 N   0  0  0  0  0  0  0  0  0  0  0  0
   16.5629   25.8583   -7.9865 C   0  0  0  0  0  0  0  0  0  0  0  0
   16.7235   26.9564   -7.1698 C   0  0  0  0  0  0  0  0  0  0  0  0
   15.8118   27.2026   -6.1276 C   0  0  0  0  0  0  0  0  0  0  0  0
   14.7467   26.3781   -5.8857 C   0  0  0  0  0  0  0  0  0  0  0  0
   14.6152   25.2817   -6.7268 C   0  0  0  0  0  0  0  0  0  0  0  0
   15.4887   25.0279   -7.7405 C   0  0  0  0  0  0  0  0  0  0  0  0
   18.2041   25.3209   -9.9291 N   0  0  0  0  0  0  0  0  0  0  0  0
   17.4681   25.5638   -9.0650 C   0  0  0  0  0  0  0  0  0  0  0  0
   11.0794   29.1066   -4.1780 N   0  0  0  0  0  0  0  0  0  0  0  0
   11.3939   30.0447   -3.9130 H   0  0  0  0  0  0  0  0  0  0  0  0
    9.7544   28.8716   -4.7006 C   0  0  0  0  0  0  0  0  0  0  0  0
    8.6707   29.8836   -4.5132 C   0  0  0  0  0  0  0  0  0  0  0  0
    9.2673   29.6678   -5.8618 C   0  0  0  0  0  0  0  0  0  0  0  0
 16 17  3  0  0  0
 17 10  1  0  0  0
 10 11  2  0  0  0
 11 12  1  0  0  0
 12 13  2  0  0  0
 13 14  1  0  0  0
 14 15  2  0  0  0
 13  1  1  0  0  0
  1  2  2  0  0  0
  2  3  1  0  0  0
  3 18  1  0  0  0
 18 20  1  0  0  0
 20 21  1  0  0  0
 21 22  1  0  0  0
  3  4  2  0  0  0
  4  5  1  0  0  0
  5  6  2  0  0  0
  6  7  1  0  0  0
  7  8  2  0  0  0
  8  9  1  0  0  0
 15 10  1  0  0  0
  9  1  1  0  0  0
 22 20  1  0  0  0
  9  5  1  0  0  0
 18 19  1  0  0  0
M  END
> <minimizedAffinity>
17.26116

> <CNNscore>
0.5695854425

> <CNNaffinity>
5.8437724113

> <CNN_VS>
3.3285276890

> <CNNaffinity_variance>
1.0141242743

$$$$
[H]c1nc2nc(N([H])C3([H])C([H])([H])C3([H])[H])c([H])c(-c3c([H])c([H])c(C#N)c([H])c3[H])n2n1


 22 25  0  0  0  0  0  0  0  0999 V2000
   12.6082   23.4324   -1.1732 C   0  0  0  0  0  0  0  0  0  0  0  0
   11.2143   23.5030   -1.0464 C   0  0  0  0  0  0  0  0  0  0  0  0
   10.5483   22.7314   -0.1307 C   0  0  0  0  0  0  0  0  0  0  0  0
   11.2944   21.9164    0.6268 N   0  0  0  0  0  0  0  0  0  0  0  0
   12.6390   21.8296    0.5249 C   0  0  0  0  0  0  0  0  0  0  0  0
   13.5613   21.0895    1.1891 N   0  0  0  0  0  0  0  0  0  0  0  0
   14.7774   21.3809    0.7117 C   0  0  0  0  0  0  0  0  0  0  0  0
   14.5882   22.2977   -0.2417 N   0  0  0  0  0  0  0  0  0  0  0  0
   13.3076   22.5933   -0.3830 N   0  0  0  0  0  0  0  0  0  0  0  0
   14.4665   26.0587   -3.9768 C   0  0  0  0  0  0  0  0  0  0  0  0
   15.0343   24.8369   -3.6879 C   0  0  0  0  0  0  0  0  0  0  0  0
   14.4164   23.9685   -2.7703 C   0  0  0  0  0  0  0  0  0  0  0  0
   13.2479   24.2944   -2.1371 C   0  0  0  0  0  0  0  0  0  0  0  0
   12.7033   25.5319   -2.4513 C   0  0  0  0  0  0  0  0  0  0  0  0
   13.2879   26.3851   -3.3376 C   0  0  0  0  0  0  0  0  0  0  0  0
   15.5303   27.7249   -5.6643 N   0  0  0  0  0  0  0  0  0  0  0  0
   15.0598   26.9811   -4.9076 C   0  0  0  0  0  0  0  0  0  0  0  0
    9.1231   22.8020    0.0005 N   0  0  0  0  0  0  0  0  0  0  0  0
    8.5436   22.1510   -0.5375 H   0  0  0  0  0  0  0  0  0  0  0  0
    8.5391   23.7838    0.8832 C   0  0  0  0  0  0  0  0  0  0  0  0
    8.0425   23.3917    2.2372 C   0  0  0  0  0  0  0  0  0  0  0  0
    9.2793   24.2123    2.1030 C   0  0  0  0  0  0  0  0  0  0  0  0
 16 17  3  0  0  0
 17 10  1  0  0  0
 10 11  2  0  0  0
 11 12  1  0  0  0
 12 13  2  0  0  0
 13 14  1  0  0  0
 14 15  2  0  0  0
 13  1  1  0  0  0
  1  2  2  0  0  0
  2  3  1  0  0  0
  3 18  1  0  0  0
 18 20  1  0  0  0
 20 21  1  0  0  0
 21 22  1  0  0  0
  3  4  2  0  0  0
  4  5  1  0  0  0
  5  6  2  0  0  0
  6  7  1  0  0  0
  7  8  2  0  0  0
  8  9  1  0  0  0
 15 10  1  0  0  0
  9  1  1  0  0  0
 22 20  1  0  0  0
  9  5  1  0  0  0
 18 19  1  0  0  0
M  END
> <minimizedAffinity>
-8.24338

> <CNNscore>
0.5542536378

> <CNNaffinity>
6.7998709679

> <CNN_VS>
3.7688531876

> <CNNaffinity_variance>
0.3293134570

$$$$
[H]c1nc2nc(N([H])C3([H])C([H])([H])C3([H])[H])c([H])c(-c3c([H])c([H])c(C#N)c([H])c3[H])n2n1


 22 25  0  0  0  0  0  0  0  0999 V2000
   13.9105   25.2289   -3.3712 C   0  0  0  0  0  0  0  0  0  0  0  0
   13.6825   24.4824   -2.2073 C   0  0  0  0  0  0  0  0  0  0  0  0
   14.2589   23.2517   -2.0332 C   0  0  0  0  0  0  0  0  0  0  0  0
   15.0424   22.8075   -3.0249 N   0  0  0  0  0  0  0  0  0  0  0  0
   15.2787   23.5070   -4.1566 C   0  0  0  0  0  0  0  0  0  0  0  0
   16.0309   23.2450   -5.2544 N   0  0  0  0  0  0  0  0  0  0  0  0
   15.9370   24.2771   -6.1015 C   0  0  0  0  0  0  0  0  0  0  0  0
   15.1271   25.1626   -5.5140 N   0  0  0  0  0  0  0  0  0  0  0  0
   14.7092   24.7309   -4.3365 N   0  0  0  0  0  0  0  0  0  0  0  0
   12.0607   29.0539   -3.7693 C   0  0  0  0  0  0  0  0  0  0  0  0
   12.1809   28.4664   -2.5287 C   0  0  0  0  0  0  0  0  0  0  0  0
   12.7985   27.2097   -2.3976 C   0  0  0  0  0  0  0  0  0  0  0  0
   13.2959   26.5299   -3.4761 C   0  0  0  0  0  0  0  0  0  0  0  0
   13.1583   27.1504   -4.7101 C   0  0  0  0  0  0  0  0  0  0  0  0
   12.5635   28.3670   -4.8553 C   0  0  0  0  0  0  0  0  0  0  0  0
   10.9318   31.3723   -4.0952 N   0  0  0  0  0  0  0  0  0  0  0  0
   11.4377   30.3371   -3.9548 C   0  0  0  0  0  0  0  0  0  0  0  0
   14.0271   22.4868   -0.8438 N   0  0  0  0  0  0  0  0  0  0  0  0
   14.1334   21.4687   -0.8814 H   0  0  0  0  0  0  0  0  0  0  0  0
   13.6510   23.1644    0.3741 C   0  0  0  0  0  0  0  0  0  0  0  0
   14.6598   23.9413    1.1567 C   0  0  0  0  0  0  0  0  0  0  0  0
   13.5897   24.6527    0.4017 C   0  0  0  0  0  0  0  0  0  0  0  0
 16 17  3  0  0  0
 17 10  1  0  0  0
 10 11  2  0  0  0
 11 12  1  0  0  0
 12 13  2  0  0  0
 13 14  1  0  0  0
 14 15  2  0  0  0
 13  1  1  0  0  0
  1  2  2  0  0  0
  2  3  1  0  0  0
  3 18  1  0  0  0
 18 20  1  0  0  0
 20 21  1  0  0  0
 21 22  1  0  0  0
  3  4  2  0  0  0
  4  5  1  0  0  0
  5  6  2  0  0  0
  6  7  1  0  0  0
  7  8  2  0  0  0
  8  9  1  0  0  0
 15 10  1  0  0  0
  9  1  1  0  0  0
 22 20  1  0  0  0
  9  5  1  0  0  0
 18 19  1  0  0  0
M  END
> <minimizedAffinity>
12.19879

> <CNNscore>
0.5231282711

> <CNNaffinity>
6.1683115959

> <CNN_VS>
3.2268180847

> <CNNaffinity_variance>
0.8750029802

$$$$
[H]c1nc2nc(N([H])C3([H])C([H])([H])C3([H])[H])c([H])c(-c3c([H])c([H])c(C#N)c([H])c3[H])n2n1


 22 25  0  0  0  0  0  0  0  0999 V2000
   14.2904   25.2366   -3.3270 C   0  0  0  0  0  0  0  0  0  0  0  0
   14.1275   24.6564   -2.0617 C   0  0  0  0  0  0  0  0  0  0  0  0
   14.6298   23.4119   -1.7854 C   0  0  0  0  0  0  0  0  0  0  0  0
   15.2768   22.7888   -2.7793 N   0  0  0  0  0  0  0  0  0  0  0  0
   15.4479   23.3258   -4.0074 C   0  0  0  0  0  0  0  0  0  0  0  0
   16.0662   22.8728   -5.1264 N   0  0  0  0  0  0  0  0  0  0  0  0
   15.9615   23.8002   -6.0859 C   0  0  0  0  0  0  0  0  0  0  0  0
   15.2792   24.8136   -5.5450 N   0  0  0  0  0  0  0  0  0  0  0  0
   14.9514   24.5622   -4.2893 N   0  0  0  0  0  0  0  0  0  0  0  0
   12.6643   29.1419   -3.8878 C   0  0  0  0  0  0  0  0  0  0  0  0
   13.9974   28.9020   -4.1404 C   0  0  0  0  0  0  0  0  0  0  0  0
   14.5303   27.6125   -3.9635 C   0  0  0  0  0  0  0  0  0  0  0  0
   13.7622   26.5620   -3.5405 C   0  0  0  0  0  0  0  0  0  0  0  0
   12.4242   26.8387   -3.2956 C   0  0  0  0  0  0  0  0  0  0  0  0
   11.8914   28.0811   -3.4619 C   0  0  0  0  0  0  0  0  0  0  0  0
   11.5874   31.4891   -4.1826 N   0  0  0  0  0  0  0  0  0  0  0  0
   12.0726   30.4425   -4.0538 C   0  0  0  0  0  0  0  0  0  0  0  0
   14.4643   22.8168   -0.4923 N   0  0  0  0  0  0  0  0  0  0  0  0
   14.6084   23.3951    0.3408 H   0  0  0  0  0  0  0  0  0  0  0  0
   14.1003   21.4234   -0.3933 C   0  0  0  0  0  0  0  0  0  0  0  0
   14.9530   20.4656    0.3742 C   0  0  0  0  0  0  0  0  0  0  0  0
   13.6233   20.8760    0.9076 C   0  0  0  0  0  0  0  0  0  0  0  0
 16 17  3  0  0  0
 17 10  1  0  0  0
 10 11  2  0  0  0
 11 12  1  0  0  0
 12 13  2  0  0  0
 13 14  1  0  0  0
 14 15  2  0  0  0
 13  1  1  0  0  0
  1  2  2  0  0  0
  2  3  1  0  0  0
  3 18  1  0  0  0
 18 20  1  0  0  0
 20 21  1  0  0  0
 21 22  1  0  0  0
  3  4  2  0  0  0
  4  5  1  0  0  0
  5  6  2  0  0  0
  6  7  1  0  0  0
  7  8  2  0  0  0
  8  9  1  0  0  0
 15 10  1  0  0  0
  9  1  1  0  0  0
 22 20  1  0  0  0
  9  5  1  0  0  0
 18 19  1  0  0  0
M  END
> <minimizedAffinity>
9.14475

> <CNNscore>
0.5171086192

> <CNNaffinity>
6.2229499817

> <CNN_VS>
3.2179410458

> <CNNaffinity_variance>
0.7979310155

$$$$
[H]c1nc2nc(N([H])C3([H])C([H])([H])C3([H])[H])c([H])c(-c3c([H])c([H])c(C#N)c([H])c3[H])n2n1


 22 25  0  0  0  0  0  0  0  0999 V2000
   14.2080   23.7092   -2.2154 C   0  0  0  0  0  0  0  0  0  0  0  0
   14.1645   22.6457   -3.1270 C   0  0  0  0  0  0  0  0  0  0  0  0
   14.5304   21.3793   -2.7530 C   0  0  0  0  0  0  0  0  0  0  0  0
   14.9270   21.2167   -1.4838 N   0  0  0  0  0  0  0  0  0  0  0  0
   14.9778   22.2246   -0.5853 C   0  0  0  0  0  0  0  0  0  0  0  0
   15.3348   22.2678    0.7225 N   0  0  0  0  0  0  0  0  0  0  0  0
   15.2000   23.5228    1.1682 C   0  0  0  0  0  0  0  0  0  0  0  0
   14.7614   24.2373    0.1279 N   0  0  0  0  0  0  0  0  0  0  0  0
   14.6157   23.4858   -0.9498 N   0  0  0  0  0  0  0  0  0  0  0  0
   12.9038   27.5747   -3.4674 C   0  0  0  0  0  0  0  0  0  0  0  0
   14.0608   27.0317   -3.9822 C   0  0  0  0  0  0  0  0  0  0  0  0
   14.4851   25.7540   -3.5754 C   0  0  0  0  0  0  0  0  0  0  0  0
   13.7806   25.0106   -2.6678 C   0  0  0  0  0  0  0  0  0  0  0  0
   12.6204   25.5874   -2.1698 C   0  0  0  0  0  0  0  0  0  0  0  0
   12.1946   26.8231   -2.5529 C   0  0  0  0  0  0  0  0  0  0  0  0
   12.0357   29.9242   -4.1617 N   0  0  0  0  0  0  0  0  0  0  0  0
   12.4285   28.8767   -3.8520 C   0  0  0  0  0  0  0  0  0  0  0  0
   14.4867   20.2905   -3.6836 N   0  0  0  0  0  0  0  0  0  0  0  0
   14.8475   19.3767   -3.3937 H   0  0  0  0  0  0  0  0  0  0  0  0
   13.9380   20.5045   -5.0016 C   0  0  0  0  0  0  0  0  0  0  0  0
   14.2394   19.5553   -6.1159 C   0  0  0  0  0  0  0  0  0  0  0  0
   12.8759   19.5949   -5.5155 C   0  0  0  0  0  0  0  0  0  0  0  0
 16 17  3  0  0  0
 17 10  1  0  0  0
 10 11  2  0  0  0
 11 12  1  0  0  0
 12 13  2  0  0  0
 13 14  1  0  0  0
 14 15  2  0  0  0
 13  1  1  0  0  0
  1  2  2  0  0  0
  2  3  1  0  0  0
  3 18  1  0  0  0
 18 20  1  0  0  0
 20 21  1  0  0  0
 21 22  1  0  0  0
  3  4  2  0  0  0
  4  5  1  0  0  0
  5  6  2  0  0  0
  6  7  1  0  0  0
  7  8  2  0  0  0
  8  9  1  0  0  0
 15 10  1  0  0  0
  9  1  1  0  0  0
 22 20  1  0  0  0
  9  5  1  0  0  0
 18 19  1  0  0  0
M  END
> <minimizedAffinity>
12.97987

> <CNNscore>
0.4453193843

> <CNNaffinity>
6.1783475876

> <CNN_VS>
2.7513380051

> <CNNaffinity_variance>
0.7183462977

$$$$
[H]c1nc2c([H])c([H])c([H])c(-c3c(C([H])([H])[H])nc(C#N)c([H])c3[H])n2n1


 18 20  0  0  0  0  0  0  0  0999 V2000
   15.0553   23.0743   -3.2597 C   0  0  0  0  0  0  0  0  0  0  0  0
   14.8291   24.3832   -3.9530 C   0  0  0  0  0  0  0  0  0  0  0  0
   15.3604   24.6384   -5.1633 N   0  0  0  0  0  0  0  0  0  0  0  0
   15.1565   25.8141   -5.7850 C   0  0  0  0  0  0  0  0  0  0  0  0
   14.3787   26.7436   -5.1240 C   0  0  0  0  0  0  0  0  0  0  0  0
   13.8184   26.5145   -3.8817 C   0  0  0  0  0  0  0  0  0  0  0  0
   14.0489   25.3007   -3.2774 C   0  0  0  0  0  0  0  0  0  0  0  0
   13.4873   24.9934   -1.9660 C   0  0  0  0  0  0  0  0  0  0  0  0
   12.1118   24.9697   -1.8603 C   0  0  0  0  0  0  0  0  0  0  0  0
   11.5018   24.6913   -0.6718 C   0  0  0  0  0  0  0  0  0  0  0  0
   12.2805   24.4328    0.4273 C   0  0  0  0  0  0  0  0  0  0  0  0
   13.6540   24.4674    0.2751 C   0  0  0  0  0  0  0  0  0  0  0  0
   14.6183   24.2566    1.1703 N   0  0  0  0  0  0  0  0  0  0  0  0
   15.7947   24.3988    0.5601 C   0  0  0  0  0  0  0  0  0  0  0  0
   15.5425   24.6994   -0.7201 N   0  0  0  0  0  0  0  0  0  0  0  0
   14.2520   24.7406   -0.8911 N   0  0  0  0  0  0  0  0  0  0  0  0
   15.7285   26.0913   -7.0899 C   0  0  0  0  0  0  0  0  0  0  0  0
   16.1901   26.2938   -8.1341 N   0  0  0  0  0  0  0  0  0  0  0  0
  1  2  1  0  0  0
  2  3  2  0  0  0
  3  4  1  0  0  0
  4  5  2  0  0  0
  5  6  1  0  0  0
  6  7  2  0  0  0
  7  8  1  0  0  0
  8  9  2  0  0  0
  9 10  1  0  0  0
 10 11  2  0  0  0
 11 12  1  0  0  0
 12 13  2  0  0  0
 13 14  1  0  0  0
 14 15  2  0  0  0
 15 16  1  0  0  0
  4 17  1  0  0  0
 17 18  3  0  0  0
  7  2  1  0  0  0
 16  8  1  0  0  0
 16 12  1  0  0  0
M  END
> <minimizedAffinity>
-8.56443

> <CNNscore>
0.8697587848

> <CNNaffinity>
6.7802443504

> <CNN_VS>
5.8971772194

> <CNNaffinity_variance>
0.1502227485

$$$$
[H]c1nc2c([H])c([H])c([H])c(-c3c(C([H])([H])[H])nc(C#N)c([H])c3[H])n2n1


 18 20  0  0  0  0  0  0  0  0999 V2000
   12.1775   25.3732   -1.2361 C   0  0  0  0  0  0  0  0  0  0  0  0
   13.2620   25.1185   -2.2379 C   0  0  0  0  0  0  0  0  0  0  0  0
   13.7248   26.0982   -3.0369 N   0  0  0  0  0  0  0  0  0  0  0  0
   14.6988   25.8684   -3.9362 C   0  0  0  0  0  0  0  0  0  0  0  0
   15.1994   24.5834   -4.0002 C   0  0  0  0  0  0  0  0  0  0  0  0
   14.7475   23.5548   -3.1955 C   0  0  0  0  0  0  0  0  0  0  0  0
   13.7507   23.8279   -2.2882 C   0  0  0  0  0  0  0  0  0  0  0  0
   13.2276   22.7881   -1.4081 C   0  0  0  0  0  0  0  0  0  0  0  0
   11.9293   22.3744   -1.6250 C   0  0  0  0  0  0  0  0  0  0  0  0
   11.3598   21.4069   -0.8491 C   0  0  0  0  0  0  0  0  0  0  0  0
   12.1011   20.8453    0.1588 C   0  0  0  0  0  0  0  0  0  0  0  0
   13.3974   21.2903    0.3397 C   0  0  0  0  0  0  0  0  0  0  0  0
   14.3129   20.9146    1.2321 N   0  0  0  0  0  0  0  0  0  0  0  0
   15.4204   21.6253    1.0206 C   0  0  0  0  0  0  0  0  0  0  0  0
   15.1752   22.4419   -0.0117 N   0  0  0  0  0  0  0  0  0  0  0  0
   13.9557   22.2394   -0.4216 N   0  0  0  0  0  0  0  0  0  0  0  0
   15.1993   26.9232   -4.7986 C   0  0  0  0  0  0  0  0  0  0  0  0
   15.5903   27.7791   -5.4760 N   0  0  0  0  0  0  0  0  0  0  0  0
  1  2  1  0  0  0
  2  3  2  0  0  0
  3  4  1  0  0  0
  4  5  2  0  0  0
  5  6  1  0  0  0
  6  7  2  0  0  0
  7  8  1  0  0  0
  8  9  2  0  0  0
  9 10  1  0  0  0
 10 11  2  0  0  0
 11 12  1  0  0  0
 12 13  2  0  0  0
 13 14  1  0  0  0
 14 15  2  0  0  0
 15 16  1  0  0  0
  4 17  1  0  0  0
 17 18  3  0  0  0
  7  2  1  0  0  0
 16  8  1  0  0  0
 16 12  1  0  0  0
M  END
> <minimizedAffinity>
-6.91997

> <CNNscore>
0.6627679467

> <CNNaffinity>
6.7210273743

> <CNN_VS>
4.4544816017

> <CNNaffinity_variance>
0.3867095113

$$$$
[H]c1nc2c([H])c([H])c([H])c(-c3c(C([H])([H])[H])nc(C#N)c([H])c3[H])n2n1


 18 20  0  0  0  0  0  0  0  0999 V2000
   12.5863   26.1930   -2.7853 C   0  0  0  0  0  0  0  0  0  0  0  0
   13.7272   25.5621   -3.5238 C   0  0  0  0  0  0  0  0  0  0  0  0
   14.1685   26.0609   -4.6937 N   0  0  0  0  0  0  0  0  0  0  0  0
   15.1932   25.4937   -5.3560 C   0  0  0  0  0  0  0  0  0  0  0  0
   15.7684   24.3787   -4.7801 C   0  0  0  0  0  0  0  0  0  0  0  0
   15.3404   23.8408   -3.5812 C   0  0  0  0  0  0  0  0  0  0  0  0
   14.2903   24.4481   -2.9332 C   0  0  0  0  0  0  0  0  0  0  0  0
   13.7885   23.9319   -1.6639 C   0  0  0  0  0  0  0  0  0  0  0  0
   13.4912   24.8550   -0.6824 C   0  0  0  0  0  0  0  0  0  0  0  0
   13.0169   24.4604    0.5348 C   0  0  0  0  0  0  0  0  0  0  0  0
   12.8378   23.1216    0.7730 C   0  0  0  0  0  0  0  0  0  0  0  0
   13.1486   22.2326   -0.2391 C   0  0  0  0  0  0  0  0  0  0  0  0
   13.0663   20.9029   -0.2631 N   0  0  0  0  0  0  0  0  0  0  0  0
   13.4764   20.4794   -1.4585 C   0  0  0  0  0  0  0  0  0  0  0  0
   13.8117   21.5639   -2.1687 N   0  0  0  0  0  0  0  0  0  0  0  0
   13.6138   22.6202   -1.4330 N   0  0  0  0  0  0  0  0  0  0  0  0
   15.6706   26.0299   -6.6175 C   0  0  0  0  0  0  0  0  0  0  0  0
   16.0390   26.4473   -7.6346 N   0  0  0  0  0  0  0  0  0  0  0  0
  1  2  1  0  0  0
  2  3  2  0  0  0
  3  4  1  0  0  0
  4  5  2  0  0  0
  5  6  1  0  0  0
  6  7  2  0  0  0
  7  8  1  0  0  0
  8  9  2  0  0  0
  9 10  1  0  0  0
 10 11  2  0  0  0
 11 12  1  0  0  0
 12 13  2  0  0  0
 13 14  1  0  0  0
 14 15  2  0  0  0
 15 16  1  0  0  0
  4 17  1  0  0  0
 17 18  3  0  0  0
  7  2  1  0  0  0
 16  8  1  0  0  0
 16 12  1  0  0  0
M  END
> <minimizedAffinity>
-8.03776

> <CNNscore>
0.6445957422

> <CNNaffinity>
6.3771224022

> <CNN_VS>
4.1106657982

> <CNNaffinity_variance>
0.0977284834

$$$$
[H]c1nc2c([H])c([H])c([H])c(-c3c(C([H])([H])[H])nc(C#N)c([H])c3[H])n2n1


 18 20  0  0  0  0  0  0  0  0999 V2000
   15.3348   24.4414   -0.0981 C   0  0  0  0  0  0  0  0  0  0  0  0
   14.0861   23.6142   -0.1332 C   0  0  0  0  0  0  0  0  0  0  0  0
   13.5544   23.0964    0.9900 N   0  0  0  0  0  0  0  0  0  0  0  0
   12.4329   22.3538    0.9574 C   0  0  0  0  0  0  0  0  0  0  0  0
   11.8553   22.1486   -0.2795 C   0  0  0  0  0  0  0  0  0  0  0  0
   12.3744   22.6650   -1.4516 C   0  0  0  0  0  0  0  0  0  0  0  0
   13.5221   23.4193   -1.3785 C   0  0  0  0  0  0  0  0  0  0  0  0
   14.1232   23.9943   -2.5775 C   0  0  0  0  0  0  0  0  0  0  0  0
   15.1244   23.2686   -3.1896 C   0  0  0  0  0  0  0  0  0  0  0  0
   15.7415   23.7312   -4.3154 C   0  0  0  0  0  0  0  0  0  0  0  0
   15.3504   24.9382   -4.8361 C   0  0  0  0  0  0  0  0  0  0  0  0
   14.3434   25.6308   -4.1901 C   0  0  0  0  0  0  0  0  0  0  0  0
   13.7884   26.8055   -4.4864 N   0  0  0  0  0  0  0  0  0  0  0  0
   12.8533   27.0690   -3.5740 C   0  0  0  0  0  0  0  0  0  0  0  0
   12.8399   26.0431   -2.7136 N   0  0  0  0  0  0  0  0  0  0  0  0
   13.7383   25.1767   -3.0857 N   0  0  0  0  0  0  0  0  0  0  0  0
   11.8580   21.7946    2.1673 C   0  0  0  0  0  0  0  0  0  0  0  0
   11.4120   21.3578    3.1443 N   0  0  0  0  0  0  0  0  0  0  0  0
  1  2  1  0  0  0
  2  3  2  0  0  0
  3  4  1  0  0  0
  4  5  2  0  0  0
  5  6  1  0  0  0
  6  7  2  0  0  0
  7  8  1  0  0  0
  8  9  2  0  0  0
  9 10  1  0  0  0
 10 11  2  0  0  0
 11 12  1  0  0  0
 12 13  2  0  0  0
 13 14  1  0  0  0
 14 15  2  0  0  0
 15 16  1  0  0  0
  4 17  1  0  0  0
 17 18  3  0  0  0
  7  2  1  0  0  0
 16  8  1  0  0  0
 16 12  1  0  0  0
M  END
> <minimizedAffinity>
-7.50742

> <CNNscore>
0.5878402591

> <CNNaffinity>
6.3897633553

> <CNN_VS>
3.7561602592

> <CNNaffinity_variance>
0.3305926025

$$$$
[H]c1nc2c([H])c([H])c([H])c(-c3c(C([H])([H])[H])nc(C#N)c([H])c3[H])n2n1


 18 20  0  0  0  0  0  0  0  0999 V2000
   15.1807   22.7799   -3.4540 C   0  0  0  0  0  0  0  0  0  0  0  0
   15.1868   24.1538   -4.0517 C   0  0  0  0  0  0  0  0  0  0  0  0
   15.4071   24.3476   -5.3655 N   0  0  0  0  0  0  0  0  0  0  0  0
   15.4124   25.5819   -5.9012 C   0  0  0  0  0  0  0  0  0  0  0  0
   15.1819   26.6370   -5.0414 C   0  0  0  0  0  0  0  0  0  0  0  0
   14.9525   26.4738   -3.6884 C   0  0  0  0  0  0  0  0  0  0  0  0
   14.9547   25.1970   -3.1772 C   0  0  0  0  0  0  0  0  0  0  0  0
   14.7192   24.9536   -1.7577 C   0  0  0  0  0  0  0  0  0  0  0  0
   15.8282   24.8702   -0.9410 C   0  0  0  0  0  0  0  0  0  0  0  0
   15.7004   24.6448    0.3988 C   0  0  0  0  0  0  0  0  0  0  0  0
   14.4437   24.5006    0.9288 C   0  0  0  0  0  0  0  0  0  0  0  0
   13.3616   24.5916    0.0734 C   0  0  0  0  0  0  0  0  0  0  0  0
   12.0581   24.4900    0.3309 N   0  0  0  0  0  0  0  0  0  0  0  0
   11.3917   24.6471   -0.8127 C   0  0  0  0  0  0  0  0  0  0  0  0
   12.3003   24.8464   -1.7758 N   0  0  0  0  0  0  0  0  0  0  0  0
   13.4874   24.8128   -1.2409 N   0  0  0  0  0  0  0  0  0  0  0  0
   15.6496   25.7930   -7.3176 C   0  0  0  0  0  0  0  0  0  0  0  0
   15.8571   25.9543   -8.4469 N   0  0  0  0  0  0  0  0  0  0  0  0
  1  2  1  0  0  0
  2  3  2  0  0  0
  3  4  1  0  0  0
  4  5  2  0  0  0
  5  6  1  0  0  0
  6  7  2  0  0  0
  7  8  1  0  0  0
  8  9  2  0  0  0
  9 10  1  0  0  0
 10 11  2  0  0  0
 11 12  1  0  0  0
 12 13  2  0  0  0
 13 14  1  0  0  0
 14 15  2  0  0  0
 15 16  1  0  0  0
  4 17  1  0  0  0
 17 18  3  0  0  0
  7  2  1  0  0  0
 16  8  1  0  0  0
 16 12  1  0  0  0
M  END
> <minimizedAffinity>
-7.22774

> <CNNscore>
0.5421554446

> <CNNaffinity>
6.2833395004

> <CNN_VS>
3.4065468311

> <CNNaffinity_variance>
0.2663283348

$$$$
[H]c1nc2c([H])c([H])c([H])c(-c3c(C([H])([H])[H])nc(C#N)c([H])c3[H])n2n1


 18 20  0  0  0  0  0  0  0  0999 V2000
   13.2902   25.5099   -3.5423 C   0  0  0  0  0  0  0  0  0  0  0  0
   14.6821   25.6927   -3.0187 C   0  0  0  0  0  0  0  0  0  0  0  0
   15.4940   26.6520   -3.5011 N   0  0  0  0  0  0  0  0  0  0  0  0
   16.7437   26.8153   -3.0301 C   0  0  0  0  0  0  0  0  0  0  0  0
   17.1524   25.9542   -2.0314 C   0  0  0  0  0  0  0  0  0  0  0  0
   16.3452   24.9592   -1.5137 C   0  0  0  0  0  0  0  0  0  0  0  0
   15.0739   24.8228   -2.0203 C   0  0  0  0  0  0  0  0  0  0  0  0
   14.1696   23.7931   -1.5189 C   0  0  0  0  0  0  0  0  0  0  0  0
   14.3777   22.5029   -1.9613 C   0  0  0  0  0  0  0  0  0  0  0  0
   13.5795   21.4780   -1.5435 C   0  0  0  0  0  0  0  0  0  0  0  0
   12.5576   21.7488   -0.6697 C   0  0  0  0  0  0  0  0  0  0  0  0
   12.3862   23.0556   -0.2529 C   0  0  0  0  0  0  0  0  0  0  0  0
   11.4842   23.5757    0.5787 N   0  0  0  0  0  0  0  0  0  0  0  0
   11.7116   24.8853    0.6776 C   0  0  0  0  0  0  0  0  0  0  0  0
   12.7635   25.1641   -0.1025 N   0  0  0  0  0  0  0  0  0  0  0  0
   13.1695   24.0608   -0.6630 N   0  0  0  0  0  0  0  0  0  0  0  0
   17.6208   27.8491   -3.5488 C   0  0  0  0  0  0  0  0  0  0  0  0
   18.3349   28.6697   -3.9500 N   0  0  0  0  0  0  0  0  0  0  0  0
  1  2  1  0  0  0
  2  3  2  0  0  0
  3  4  1  0  0  0
  4  5  2  0  0  0
  5  6  1  0  0  0
  6  7  2  0  0  0
  7  8  1  0  0  0
  8  9  2  0  0  0
  9 10  1  0  0  0
 10 11  2  0  0  0
 11 12  1  0  0  0
 12 13  2  0  0  0
 13 14  1  0  0  0
 14 15  2  0  0  0
 15 16  1  0  0  0
  4 17  1  0  0  0
 17 18  3  0  0  0
  7  2  1  0  0  0
 16  8  1  0  0  0
 16 12  1  0  0  0
M  END
> <minimizedAffinity>
-6.41418

> <CNNscore>
0.4974059761

> <CNNaffinity>
6.4778280258

> <CNN_VS>
3.2221102715

> <CNNaffinity_variance>
0.4205963612

$$$$
[H]c1nc2c([H])c([H])c([H])c(-c3c(C([H])([H])[H])nc(C#N)c([H])c3[H])n2n1


 18 20  0  0  0  0  0  0  0  0999 V2000
   15.7144   25.4821   -6.4751 C   0  0  0  0  0  0  0  0  0  0  0  0
   15.5014   24.4457   -5.4142 C   0  0  0  0  0  0  0  0  0  0  0  0
   15.0746   23.2059   -5.7188 N   0  0  0  0  0  0  0  0  0  0  0  0
   14.8837   22.2759   -4.7653 C   0  0  0  0  0  0  0  0  0  0  0  0
   15.1455   22.6532   -3.4634 C   0  0  0  0  0  0  0  0  0  0  0  0
   15.5844   23.9167   -3.1159 C   0  0  0  0  0  0  0  0  0  0  0  0
   15.7681   24.8405   -4.1181 C   0  0  0  0  0  0  0  0  0  0  0  0
   16.2297   26.1926   -3.8208 C   0  0  0  0  0  0  0  0  0  0  0  0
   16.9203   26.3766   -2.6406 C   0  0  0  0  0  0  0  0  0  0  0  0
   17.3882   27.6078   -2.2834 C   0  0  0  0  0  0  0  0  0  0  0  0
   17.1613   28.6705   -3.1202 C   0  0  0  0  0  0  0  0  0  0  0  0
   16.4651   28.4397   -4.2920 C   0  0  0  0  0  0  0  0  0  0  0  0
   16.1182   29.2867   -5.2605 N   0  0  0  0  0  0  0  0  0  0  0  0
   15.4540   28.6059   -6.1942 C   0  0  0  0  0  0  0  0  0  0  0  0
   15.3966   27.3312   -5.7887 N   0  0  0  0  0  0  0  0  0  0  0  0
   16.0062   27.2318   -4.6421 N   0  0  0  0  0  0  0  0  0  0  0  0
   14.4236   20.9384   -5.0915 C   0  0  0  0  0  0  0  0  0  0  0  0
   14.0704   19.8686   -5.3653 N   0  0  0  0  0  0  0  0  0  0  0  0
  1  2  1  0  0  0
  2  3  2  0  0  0
  3  4  1  0  0  0
  4  5  2  0  0  0
  5  6  1  0  0  0
  6  7  2  0  0  0
  7  8  1  0  0  0
  8  9  2  0  0  0
  9 10  1  0  0  0
 10 11  2  0  0  0
 11 12  1  0  0  0
 12 13  2  0  0  0
 13 14  1  0  0  0
 14 15  2  0  0  0
 15 16  1  0  0  0
  4 17  1  0  0  0
 17 18  3  0  0  0
  7  2  1  0  0  0
 16  8  1  0  0  0
 16 12  1  0  0  0
M  END
> <minimizedAffinity>
3.35701

> <CNNscore>
0.4316662252

> <CNNaffinity>
5.6533498764

> <CNN_VS>
2.4403603077

> <CNNaffinity_variance>
0.2205375433

$$$$
[H]c1nc2c([H])c([H])c([H])c(-c3c(C([H])([H])[H])nc(C#N)c([H])c3[H])n2n1


 18 20  0  0  0  0  0  0  0  0999 V2000
   16.2173   24.6736   -3.1422 C   0  0  0  0  0  0  0  0  0  0  0  0
   15.3759   23.4365   -3.0634 C   0  0  0  0  0  0  0  0  0  0  0  0
   15.2611   22.5968   -4.1094 N   0  0  0  0  0  0  0  0  0  0  0  0
   14.5053   21.4861   -4.0375 C   0  0  0  0  0  0  0  0  0  0  0  0
   13.8547   21.2494   -2.8431 C   0  0  0  0  0  0  0  0  0  0  0  0
   13.9506   22.0899   -1.7503 C   0  0  0  0  0  0  0  0  0  0  0  0
   14.7327   23.2157   -1.8615 C   0  0  0  0  0  0  0  0  0  0  0  0
   14.8775   24.1455   -0.7461 C   0  0  0  0  0  0  0  0  0  0  0  0
   16.1589   24.4039   -0.3044 C   0  0  0  0  0  0  0  0  0  0  0  0
   16.3865   25.2604    0.7332 C   0  0  0  0  0  0  0  0  0  0  0  0
   15.3154   25.8673    1.3377 C   0  0  0  0  0  0  0  0  0  0  0  0
   14.0497   25.5790    0.8622 C   0  0  0  0  0  0  0  0  0  0  0  0
   12.8622   26.0279    1.2673 N   0  0  0  0  0  0  0  0  0  0  0  0
   11.9214   25.4691    0.5063 C   0  0  0  0  0  0  0  0  0  0  0  0
   12.5440   24.6719   -0.3709 N   0  0  0  0  0  0  0  0  0  0  0  0
   13.8268   24.7387   -0.1557 N   0  0  0  0  0  0  0  0  0  0  0  0
   14.3802   20.5794   -5.1641 C   0  0  0  0  0  0  0  0  0  0  0  0
   14.2755   19.8703   -6.0755 N   0  0  0  0  0  0  0  0  0  0  0  0
  1  2  1  0  0  0
  2  3  2  0  0  0
  3  4  1  0  0  0
  4  5  2  0  0  0
  5  6  1  0  0  0
  6  7  2  0  0  0
  7  8  1  0  0  0
  8  9  2  0  0  0
  9 10  1  0  0  0
 10 11  2  0  0  0
 11 12  1  0  0  0
 12 13  2  0  0  0
 13 14  1  0  0  0
 14 15  2  0  0  0
 15 16  1  0  0  0
  4 17  1  0  0  0
 17 18  3  0  0  0
  7  2  1  0  0  0
 16  8  1  0  0  0
 16 12  1  0  0  0
M  END
> <minimizedAffinity>
4.01712

> <CNNscore>
0.4138332903

> <CNNaffinity>
5.7791180611

> <CNN_VS>
2.3915915489

> <CNNaffinity_variance>
0.2700532079

$$$$
[H]c1nc2c([H])c([H])c([H])c(-c3c(C([H])([H])[H])nc(C#N)c([H])c3[H])n2n1


 18 20  0  0  0  0  0  0  0  0999 V2000
   15.4680   25.3556   -7.4238 C   0  0  0  0  0  0  0  0  0  0  0  0
   15.3716   24.4950   -6.2011 C   0  0  0  0  0  0  0  0  0  0  0  0
   15.0755   23.1845   -6.2858 N   0  0  0  0  0  0  0  0  0  0  0  0
   14.9892   22.4125   -5.1872 C   0  0  0  0  0  0  0  0  0  0  0  0
   15.2180   23.0271   -3.9724 C   0  0  0  0  0  0  0  0  0  0  0  0
   15.5240   24.3691   -3.8495 C   0  0  0  0  0  0  0  0  0  0  0  0
   15.6034   25.1262   -4.9950 C   0  0  0  0  0  0  0  0  0  0  0  0
   15.9223   26.5491   -4.9369 C   0  0  0  0  0  0  0  0  0  0  0  0
   15.5295   27.3263   -6.0071 C   0  0  0  0  0  0  0  0  0  0  0  0
   15.7868   28.6662   -6.0361 C   0  0  0  0  0  0  0  0  0  0  0  0
   16.4471   29.2363   -4.9778 C   0  0  0  0  0  0  0  0  0  0  0  0
   16.8216   28.4196   -3.9272 C   0  0  0  0  0  0  0  0  0  0  0  0
   17.4632   28.7196   -2.7985 N   0  0  0  0  0  0  0  0  0  0  0  0
   17.6026   27.6019   -2.0861 C   0  0  0  0  0  0  0  0  0  0  0  0
   17.0395   26.6116   -2.7896 N   0  0  0  0  0  0  0  0  0  0  0  0
   16.5690   27.1052   -3.8992 N   0  0  0  0  0  0  0  0  0  0  0  0
   14.6701   20.9993   -5.2763 C   0  0  0  0  0  0  0  0  0  0  0  0
   14.4335   19.8662   -5.3421 N   0  0  0  0  0  0  0  0  0  0  0  0
  1  2  1  0  0  0
  2  3  2  0  0  0
  3  4  1  0  0  0
  4  5  2  0  0  0
  5  6  1  0  0  0
  6  7  2  0  0  0
  7  8  1  0  0  0
  8  9  2  0  0  0
  9 10  1  0  0  0
 10 11  2  0  0  0
 11 12  1  0  0  0
 12 13  2  0  0  0
 13 14  1  0  0  0
 14 15  2  0  0  0
 15 16  1  0  0  0
  4 17  1  0  0  0
 17 18  3  0  0  0
  7  2  1  0  0  0
 16  8  1  0  0  0
 16 12  1  0  0  0
M  END
> <minimizedAffinity>
7.37249

> <CNNscore>
0.4078182876

> <CNNaffinity>
5.5942316055

> <CNN_VS>
2.2814300060

> <CNNaffinity_variance>
0.3560792506

$$$$
[H]c1nc(C([H])([H])N2C([H])([H])C([H])([H])C3(C(=O)N(c4c([H])c([H])c(-c5c([H])c([H])c(-c6nn([H])c([H])c6[H])c([H])c5[H])c([H])c4[H])C(=O)N3c3nc([H])n([H])c(=O)c3[H])C([H])([H])C2([H])[H])c(C([H])([H])[H])c([H])c1[H]


 46 52  0  0  0  0  0  0  0  0999 V2000
   16.6016   24.1180   -1.4415 N   0  0  0  0  0  0  0  0  0  0  0  0
   16.0060   25.3297   -1.0730 C   0  0  0  0  0  0  0  0  0  0  0  0
   14.7966   25.1649   -0.1668 C   0  0  0  0  0  0  0  0  0  0  0  0
   13.8558   24.1048   -0.6727 C   0  0  0  0  0  0  0  0  0  0  0  0
   14.4989   22.8463   -1.1276 C   0  0  0  0  0  0  0  0  0  0  0  0
   15.7838   23.0500   -1.8451 C   0  0  0  0  0  0  0  0  0  0  0  0
   12.8695   24.6486   -1.5892 N   0  0  0  0  0  0  0  0  0  0  0  0
   11.5586   24.2277   -1.1520 C   0  0  0  0  0  0  0  0  0  0  0  0
   10.4693   24.3206   -1.7860 O   0  0  0  0  0  0  0  0  0  0  0  0
   11.6414   23.6627    0.1526 N   0  0  0  0  0  0  0  0  0  0  0  0
   13.0062   23.7350    0.5193 C   0  0  0  0  0  0  0  0  0  0  0  0
   13.4918   23.5337    1.6417 O   0  0  0  0  0  0  0  0  0  0  0  0
   13.0179   25.4569   -2.7355 C   0  0  0  0  0  0  0  0  0  0  0  0
   12.1451   26.4798   -3.0257 C   0  0  0  0  0  0  0  0  0  0  0  0
   12.3091   27.2643   -4.1671 C   0  0  0  0  0  0  0  0  0  0  0  0
   11.5217   28.1951   -4.4386 O   0  0  0  0  0  0  0  0  0  0  0  0
   13.3308   27.0150   -4.9886 N   0  0  0  0  0  0  0  0  0  0  0  0
   14.1843   26.0052   -4.6926 C   0  0  0  0  0  0  0  0  0  0  0  0
   14.0316   25.2317   -3.5767 N   0  0  0  0  0  0  0  0  0  0  0  0
   13.4481   27.6074   -5.8449 H   0  0  0  0  0  0  0  0  0  0  0  0
   10.5461   23.1334    0.9303 C   0  0  0  0  0  0  0  0  0  0  0  0
    9.3338   23.7888    0.9813 C   0  0  0  0  0  0  0  0  0  0  0  0
    8.2628   23.3124    1.7080 C   0  0  0  0  0  0  0  0  0  0  0  0
    8.3816   22.1330    2.4234 C   0  0  0  0  0  0  0  0  0  0  0  0
    9.6090   21.4744    2.3694 C   0  0  0  0  0  0  0  0  0  0  0  0
   10.6780   21.9624    1.6360 C   0  0  0  0  0  0  0  0  0  0  0  0
    7.2585   21.6194    3.1868 C   0  0  0  0  0  0  0  0  0  0  0  0
    7.1418   21.9538    4.5160 C   0  0  0  0  0  0  0  0  0  0  0  0
    6.0904   21.5050    5.2942 C   0  0  0  0  0  0  0  0  0  0  0  0
    5.1300   20.7038    4.7399 C   0  0  0  0  0  0  0  0  0  0  0  0
    5.2178   20.3548    3.4257 C   0  0  0  0  0  0  0  0  0  0  0  0
    6.2721   20.8114    2.6668 C   0  0  0  0  0  0  0  0  0  0  0  0
    4.0119   20.2378    5.5688 C   0  0  0  0  0  0  0  0  0  0  0  0
    3.1798   19.1800    5.3014 C   0  0  0  0  0  0  0  0  0  0  0  0
    2.2607   19.0841    6.3355 C   0  0  0  0  0  0  0  0  0  0  0  0
    2.5810   20.0916    7.1833 N   0  0  0  0  0  0  0  0  0  0  0  0
    3.6114   20.7726    6.7349 N   0  0  0  0  0  0  0  0  0  0  0  0
    2.0682   20.2850    8.0670 H   0  0  0  0  0  0  0  0  0  0  0  0
   17.9961   23.9827   -1.4705 C   0  0  0  0  0  0  0  0  0  0  0  0
   16.6073   22.9584    0.7121 C   0  0  0  0  0  0  0  0  0  0  0  0
   17.8849   23.6392    0.9731 C   0  0  0  0  0  0  0  0  0  0  0  0
   18.4070   23.7750    2.2453 C   0  0  0  0  0  0  0  0  0  0  0  0
   19.6202   24.4382    2.3982 C   0  0  0  0  0  0  0  0  0  0  0  0
   20.2887   24.9500    1.3039 C   0  0  0  0  0  0  0  0  0  0  0  0
   19.7436   24.7939    0.0869 N   0  0  0  0  0  0  0  0  0  0  0  0
   18.5761   24.1627   -0.1197 C   0  0  0  0  0  0  0  0  0  0  0  0
 40 41  1  0  0  0
 41 42  2  0  0  0
 42 43  1  0  0  0
 43 44  2  0  0  0
 44 45  1  0  0  0
 45 46  2  0  0  0
 46 39  1  0  0  0
 39  1  1  0  0  0
  1  2  1  0  0  0
  2  3  1  0  0  0
  3  4  1  0  0  0
  4  5  1  0  0  0
  5  6  1  0  0  0
  4  7  1  0  0  0
  7  8  1  0  0  0
  8  9  2  0  0  0
  8 10  1  0  0  0
 10 11  1  0  0  0
 11 12  2  0  0  0
 10 21  1  0  0  0
 21 22  2  0  0  0
 22 23  1  0  0  0
 23 24  2  0  0  0
 24 25  1  0  0  0
 25 26  2  0  0  0
 24 27  1  0  0  0
 27 28  2  0  0  0
 28 29  1  0  0  0
 29 30  2  0  0  0
 30 31  1  0  0  0
 31 32  2  0  0  0
 30 33  1  0  0  0
 33 34  1  0  0  0
 34 35  2  0  0  0
 35 36  1  0  0  0
 36 37  1  0  0  0
  7 13  1  0  0  0
 13 14  2  0  0  0
 14 15  1  0  0  0
 15 16  2  0  0  0
 15 17  1  0  0  0
 17 18  1  0  0  0
 18 19  2  0  0  0
 46 41  1  0  0  0
  6  1  1  0  0  0
 26 21  1  0  0  0
 32 27  1  0  0  0
 37 33  2  0  0  0
 19 13  1  0  0  0
 11  4  1  0  0  0
 36 38  1  0  0  0
 17 20  1  0  0  0
M  END
> <minimizedAffinity>
14.16786

> <CNNscore>
0.5610414147

> <CNNaffinity>
7.9147253036

> <CNN_VS>
4.4404888153

> <CNNaffinity_variance>
0.7667012215

$$$$
[H]c1nc(C([H])([H])N2C([H])([H])C([H])([H])C3(C(=O)N(c4c([H])c([H])c(-c5c([H])c([H])c(-c6nn([H])c([H])c6[H])c([H])c5[H])c([H])c4[H])C(=O)N3c3nc([H])n([H])c(=O)c3[H])C([H])([H])C2([H])[H])c(C([H])([H])[H])c([H])c1[H]


 46 52  0  0  0  0  0  0  0  0999 V2000
   16.6212   24.3313   -1.5404 N   0  0  0  0  0  0  0  0  0  0  0  0
   15.9920   25.5246   -1.1675 C   0  0  0  0  0  0  0  0  0  0  0  0
   14.7493   25.3195   -0.3163 C   0  0  0  0  0  0  0  0  0  0  0  0
   13.8467   24.2586   -0.8862 C   0  0  0  0  0  0  0  0  0  0  0  0
   14.5277   23.0213   -1.3446 C   0  0  0  0  0  0  0  0  0  0  0  0
   15.8375   23.2618   -2.0032 C   0  0  0  0  0  0  0  0  0  0  0  0
   12.8904   24.8104   -1.8292 N   0  0  0  0  0  0  0  0  0  0  0  0
   11.5695   24.3595   -1.4569 C   0  0  0  0  0  0  0  0  0  0  0  0
   10.5057   24.4521   -2.1329 O   0  0  0  0  0  0  0  0  0  0  0  0
   11.6076   23.7635   -0.1641 N   0  0  0  0  0  0  0  0  0  0  0  0
   12.9550   23.8467    0.2604 C   0  0  0  0  0  0  0  0  0  0  0  0
   13.3973   23.6247    1.3966 O   0  0  0  0  0  0  0  0  0  0  0  0
   13.0729   25.6491   -2.9485 C   0  0  0  0  0  0  0  0  0  0  0  0
   14.0235   25.3894   -3.9082 C   0  0  0  0  0  0  0  0  0  0  0  0
   14.1890   26.2346   -5.0052 C   0  0  0  0  0  0  0  0  0  0  0  0
   15.0494   26.0068   -5.8814 O   0  0  0  0  0  0  0  0  0  0  0  0
   13.4103   27.3121   -5.1216 N   0  0  0  0  0  0  0  0  0  0  0  0
   12.4770   27.5577   -4.1704 C   0  0  0  0  0  0  0  0  0  0  0  0
   12.3078   26.7352   -3.0927 N   0  0  0  0  0  0  0  0  0  0  0  0
   13.5401   27.9437   -5.9475 H   0  0  0  0  0  0  0  0  0  0  0  0
   10.4899   23.1989    0.5546 C   0  0  0  0  0  0  0  0  0  0  0  0
   10.2865   21.8353    0.5869 C   0  0  0  0  0  0  0  0  0  0  0  0
    9.2343   21.2581    1.2664 C   0  0  0  0  0  0  0  0  0  0  0  0
    8.3321   22.0546    1.9509 C   0  0  0  0  0  0  0  0  0  0  0  0
    8.5413   23.4323    1.9148 C   0  0  0  0  0  0  0  0  0  0  0  0
    9.6019   24.0010    1.2289 C   0  0  0  0  0  0  0  0  0  0  0  0
    7.2244   21.4569    2.6746 C   0  0  0  0  0  0  0  0  0  0  0  0
    6.4403   20.5182    2.0450 C   0  0  0  0  0  0  0  0  0  0  0  0
    5.3773   19.9055    2.6830 C   0  0  0  0  0  0  0  0  0  0  0  0
    5.0843   20.2321    3.9788 C   0  0  0  0  0  0  0  0  0  0  0  0
    5.8424   21.1586    4.6295 C   0  0  0  0  0  0  0  0  0  0  0  0
    6.8968   21.7581    3.9777 C   0  0  0  0  0  0  0  0  0  0  0  0
    3.9602   19.5719    4.6533 C   0  0  0  0  0  0  0  0  0  0  0  0
    3.5625   19.7573    5.9534 C   0  0  0  0  0  0  0  0  0  0  0  0
    2.4651   18.9422    6.1875 C   0  0  0  0  0  0  0  0  0  0  0  0
    2.2492   18.3000    5.0139 N   0  0  0  0  0  0  0  0  0  0  0  0
    3.1276   18.6684    4.1088 N   0  0  0  0  0  0  0  0  0  0  0  0
    1.4848   17.6104    4.8674 H   0  0  0  0  0  0  0  0  0  0  0  0
   18.0176   24.2173   -1.5150 C   0  0  0  0  0  0  0  0  0  0  0  0
   20.7436   24.6099   -1.1188 C   0  0  0  0  0  0  0  0  0  0  0  0
   19.8940   24.4611    0.0728 C   0  0  0  0  0  0  0  0  0  0  0  0
   20.4010   24.5168    1.3572 C   0  0  0  0  0  0  0  0  0  0  0  0
   19.5232   24.3613    2.4251 C   0  0  0  0  0  0  0  0  0  0  0  0
   18.1753   24.1555    2.2079 C   0  0  0  0  0  0  0  0  0  0  0  0
   17.7279   24.1091    0.9430 N   0  0  0  0  0  0  0  0  0  0  0  0
   18.5290   24.2530   -0.1255 C   0  0  0  0  0  0  0  0  0  0  0  0
 40 41  1  0  0  0
 41 42  2  0  0  0
 42 43  1  0  0  0
 43 44  2  0  0  0
 44 45  1  0  0  0
 45 46  2  0  0  0
 46 39  1  0  0  0
 39  1  1  0  0  0
  1  2  1  0  0  0
  2  3  1  0  0  0
  3  4  1  0  0  0
  4  5  1  0  0  0
  5  6  1  0  0  0
  4  7  1  0  0  0
  7  8  1  0  0  0
  8  9  2  0  0  0
  8 10  1  0  0  0
 10 11  1  0  0  0
 11 12  2  0  0  0
 10 21  1  0  0  0
 21 22  2  0  0  0
 22 23  1  0  0  0
 23 24  2  0  0  0
 24 25  1  0  0  0
 25 26  2  0  0  0
 24 27  1  0  0  0
 27 28  2  0  0  0
 28 29  1  0  0  0
 29 30  2  0  0  0
 30 31  1  0  0  0
 31 32  2  0  0  0
 30 33  1  0  0  0
 33 34  1  0  0  0
 34 35  2  0  0  0
 35 36  1  0  0  0
 36 37  1  0  0  0
  7 13  1  0  0  0
 13 14  2  0  0  0
 14 15  1  0  0  0
 15 16  2  0  0  0
 15 17  1  0  0  0
 17 18  1  0  0  0
 18 19  2  0  0  0
 46 41  1  0  0  0
  6  1  1  0  0  0
 26 21  1  0  0  0
 32 27  1  0  0  0
 37 33  2  0  0  0
 19 13  1  0  0  0
 11  4  1  0  0  0
 36 38  1  0  0  0
 17 20  1  0  0  0
M  END
> <minimizedAffinity>
16.00723

> <CNNscore>
0.5542787910

> <CNNaffinity>
7.8705010414

> <CNN_VS>
4.3624520302

> <CNNaffinity_variance>
0.6900000572

$$$$
[H]c1nc(C([H])([H])N2C([H])([H])C([H])([H])C3(C(=O)N(c4c([H])c([H])c(-c5c([H])c([H])c(-c6nn([H])c([H])c6[H])c([H])c5[H])c([H])c4[H])C(=O)N3c3nc([H])n([H])c(=O)c3[H])C([H])([H])C2([H])[H])c(C([H])([H])[H])c([H])c1[H]


 46 52  0  0  0  0  0  0  0  0999 V2000
   17.8182   23.8084    0.9281 N   0  0  0  0  0  0  0  0  0  0  0  0
   16.9507   24.9017    1.0324 C   0  0  0  0  0  0  0  0  0  0  0  0
   15.4818   24.5133    1.0797 C   0  0  0  0  0  0  0  0  0  0  0  0
   15.1327   23.5049    0.0186 C   0  0  0  0  0  0  0  0  0  0  0  0
   16.0933   22.3832   -0.1353 C   0  0  0  0  0  0  0  0  0  0  0  0
   17.5163   22.7815    0.0189 C   0  0  0  0  0  0  0  0  0  0  0  0
   14.7386   24.1419   -1.2253 N   0  0  0  0  0  0  0  0  0  0  0  0
   13.4782   23.5772   -1.6484 C   0  0  0  0  0  0  0  0  0  0  0  0
   12.9100   23.7160   -2.7688 O   0  0  0  0  0  0  0  0  0  0  0  0
   12.9175   22.8003   -0.5948 N   0  0  0  0  0  0  0  0  0  0  0  0
   13.8350   22.8859    0.4791 C   0  0  0  0  0  0  0  0  0  0  0  0
   13.6540   22.5212    1.6497 O   0  0  0  0  0  0  0  0  0  0  0  0
   15.3690   25.1439   -1.9922 C   0  0  0  0  0  0  0  0  0  0  0  0
   15.2057   25.2312   -3.3553 C   0  0  0  0  0  0  0  0  0  0  0  0
   15.8418   26.2284   -4.0943 C   0  0  0  0  0  0  0  0  0  0  0  0
   15.6993   26.3155   -5.3322 O   0  0  0  0  0  0  0  0  0  0  0  0
   16.6209   27.1101   -3.4647 N   0  0  0  0  0  0  0  0  0  0  0  0
   16.7742   27.0146   -2.1219 C   0  0  0  0  0  0  0  0  0  0  0  0
   16.1549   26.0414   -1.3899 N   0  0  0  0  0  0  0  0  0  0  0  0
   17.0968   27.8564   -4.0256 H   0  0  0  0  0  0  0  0  0  0  0  0
   11.6653   22.0822   -0.6299 C   0  0  0  0  0  0  0  0  0  0  0  0
   10.9525   21.9614   -1.8042 C   0  0  0  0  0  0  0  0  0  0  0  0
    9.7562   21.2794   -1.8791 C   0  0  0  0  0  0  0  0  0  0  0  0
    9.2272   20.6833   -0.7468 C   0  0  0  0  0  0  0  0  0  0  0  0
    9.9509   20.8087    0.4380 C   0  0  0  0  0  0  0  0  0  0  0  0
   11.1517   21.4963    0.5013 C   0  0  0  0  0  0  0  0  0  0  0  0
    7.9716   19.9577   -0.8158 C   0  0  0  0  0  0  0  0  0  0  0  0
    7.9930   18.5833   -0.8695 C   0  0  0  0  0  0  0  0  0  0  0  0
    6.8316   17.8348   -0.9264 C   0  0  0  0  0  0  0  0  0  0  0  0
    5.6177   18.4654   -0.9303 C   0  0  0  0  0  0  0  0  0  0  0  0
    5.5634   19.8259   -0.8782 C   0  0  0  0  0  0  0  0  0  0  0  0
    6.7305   20.5544   -0.8220 C   0  0  0  0  0  0  0  0  0  0  0  0
    4.3884   17.6650   -0.9820 C   0  0  0  0  0  0  0  0  0  0  0  0
    3.1328   18.0674   -0.6019 C   0  0  0  0  0  0  0  0  0  0  0  0
    2.2609   17.0092   -0.8103 C   0  0  0  0  0  0  0  0  0  0  0  0
    3.0323   16.0129   -1.3090 N   0  0  0  0  0  0  0  0  0  0  0  0
    4.2851   16.3957   -1.4113 N   0  0  0  0  0  0  0  0  0  0  0  0
    2.6642   15.0762   -1.5704 H   0  0  0  0  0  0  0  0  0  0  0  0
   19.0056   23.7603    1.6706 C   0  0  0  0  0  0  0  0  0  0  0  0
   21.5356   24.3852    0.6957 C   0  0  0  0  0  0  0  0  0  0  0  0
   20.8006   25.4376    1.4141 C   0  0  0  0  0  0  0  0  0  0  0  0
   21.3186   26.7041    1.6080 C   0  0  0  0  0  0  0  0  0  0  0  0
   20.5540   27.6351    2.3035 C   0  0  0  0  0  0  0  0  0  0  0  0
   19.3054   27.3024    2.7899 C   0  0  0  0  0  0  0  0  0  0  0  0
   18.8429   26.0601    2.5772 N   0  0  0  0  0  0  0  0  0  0  0  0
   19.5369   25.1214    1.9129 C   0  0  0  0  0  0  0  0  0  0  0  0
 40 41  1  0  0  0
 41 42  2  0  0  0
 42 43  1  0  0  0
 43 44  2  0  0  0
 44 45  1  0  0  0
 45 46  2  0  0  0
 46 39  1  0  0  0
 39  1  1  0  0  0
  1  2  1  0  0  0
  2  3  1  0  0  0
  3  4  1  0  0  0
  4  5  1  0  0  0
  5  6  1  0  0  0
  4  7  1  0  0  0
  7  8  1  0  0  0
  8  9  2  0  0  0
  8 10  1  0  0  0
 10 11  1  0  0  0
 11 12  2  0  0  0
 10 21  1  0  0  0
 21 22  2  0  0  0
 22 23  1  0  0  0
 23 24  2  0  0  0
 24 25  1  0  0  0
 25 26  2  0  0  0
 24 27  1  0  0  0
 27 28  2  0  0  0
 28 29  1  0  0  0
 29 30  2  0  0  0
 30 31  1  0  0  0
 31 32  2  0  0  0
 30 33  1  0  0  0
 33 34  1  0  0  0
 34 35  2  0  0  0
 35 36  1  0  0  0
 36 37  1  0  0  0
  7 13  1  0  0  0
 13 14  2  0  0  0
 14 15  1  0  0  0
 15 16  2  0  0  0
 15 17  1  0  0  0
 17 18  1  0  0  0
 18 19  2  0  0  0
 46 41  1  0  0  0
  6  1  1  0  0  0
 26 21  1  0  0  0
 32 27  1  0  0  0
 37 33  2  0  0  0
 19 13  1  0  0  0
 11  4  1  0  0  0
 36 38  1  0  0  0
 17 20  1  0  0  0
M  END
> <minimizedAffinity>
35.78127

> <CNNscore>
0.4776276946

> <CNNaffinity>
7.7732229233

> <CNN_VS>
3.7127065659

> <CNNaffinity_variance>
0.1249984950

$$$$
[H]c1nc(C([H])([H])N2C([H])([H])C([H])([H])C3(C(=O)N(c4c([H])c([H])c(-c5c([H])c([H])c(-c6nn([H])c([H])c6[H])c([H])c5[H])c([H])c4[H])C(=O)N3c3nc([H])n([H])c(=O)c3[H])C([H])([H])C2([H])[H])c(C([H])([H])[H])c([H])c1[H]


 46 52  0  0  0  0  0  0  0  0999 V2000
   15.5921   25.8640   -2.7491 N   0  0  0  0  0  0  0  0  0  0  0  0
   15.9893   25.0328   -1.6955 C   0  0  0  0  0  0  0  0  0  0  0  0
   15.0152   23.9011   -1.4101 C   0  0  0  0  0  0  0  0  0  0  0  0
   13.5914   24.3856   -1.3553 C   0  0  0  0  0  0  0  0  0  0  0  0
   13.1949   25.3224   -2.4368 C   0  0  0  0  0  0  0  0  0  0  0  0
   14.2559   26.2911   -2.8155 C   0  0  0  0  0  0  0  0  0  0  0  0
   13.2138   24.8070   -0.0181 N   0  0  0  0  0  0  0  0  0  0  0  0
   11.9787   24.1474    0.3370 C   0  0  0  0  0  0  0  0  0  0  0  0
   11.2265   24.3999    1.3207 O   0  0  0  0  0  0  0  0  0  0  0  0
   11.6902   23.1195   -0.6055 N   0  0  0  0  0  0  0  0  0  0  0  0
   12.7493   23.1467   -1.5435 C   0  0  0  0  0  0  0  0  0  0  0  0
   12.9984   22.3030   -2.4165 O   0  0  0  0  0  0  0  0  0  0  0  0
   13.8414   25.6891    0.8861 C   0  0  0  0  0  0  0  0  0  0  0  0
   13.1477   26.6822    1.5378 C   0  0  0  0  0  0  0  0  0  0  0  0
   13.7896   27.5457    2.4252 C   0  0  0  0  0  0  0  0  0  0  0  0
   13.1679   28.4502    3.0214 O   0  0  0  0  0  0  0  0  0  0  0  0
   15.0985   27.4027    2.6425 N   0  0  0  0  0  0  0  0  0  0  0  0
   15.7715   26.4208    1.9953 C   0  0  0  0  0  0  0  0  0  0  0  0
   15.1510   25.5703    1.1246 N   0  0  0  0  0  0  0  0  0  0  0  0
   15.5752   28.0551    3.3097 H   0  0  0  0  0  0  0  0  0  0  0  0
   10.5485   22.2358   -0.5898 C   0  0  0  0  0  0  0  0  0  0  0  0
    9.8132   22.0513    0.5622 C   0  0  0  0  0  0  0  0  0  0  0  0
    8.7138   21.2204    0.6155 C   0  0  0  0  0  0  0  0  0  0  0  0
    8.3105   20.5326   -0.5163 C   0  0  0  0  0  0  0  0  0  0  0  0
    9.0571   20.7217   -1.6783 C   0  0  0  0  0  0  0  0  0  0  0  0
   10.1598   21.5589   -1.7200 C   0  0  0  0  0  0  0  0  0  0  0  0
    7.1509   19.6600   -0.4728 C   0  0  0  0  0  0  0  0  0  0  0  0
    7.3373   18.2974   -0.4412 C   0  0  0  0  0  0  0  0  0  0  0  0
    6.2745   17.4142   -0.3892 C   0  0  0  0  0  0  0  0  0  0  0  0
    4.9938   17.8945   -0.3680 C   0  0  0  0  0  0  0  0  0  0  0  0
    4.7764   19.2393   -0.3985 C   0  0  0  0  0  0  0  0  0  0  0  0
    5.8473   20.1033   -0.4503 C   0  0  0  0  0  0  0  0  0  0  0  0
    3.8702   16.9522   -0.3040 C   0  0  0  0  0  0  0  0  0  0  0  0
    3.3072   16.4255    0.8311 C   0  0  0  0  0  0  0  0  0  0  0  0
    2.2767   15.5804    0.4472 C   0  0  0  0  0  0  0  0  0  0  0  0
    2.2643   15.6358   -0.9067 N   0  0  0  0  0  0  0  0  0  0  0  0
    3.2010   16.4424   -1.3520 N   0  0  0  0  0  0  0  0  0  0  0  0
    1.5948   15.1036   -1.4982 H   0  0  0  0  0  0  0  0  0  0  0  0
   16.5212   26.3197   -3.6939 C   0  0  0  0  0  0  0  0  0  0  0  0
   16.1806   28.4139   -5.4940 C   0  0  0  0  0  0  0  0  0  0  0  0
   15.9203   27.0487   -5.9762 C   0  0  0  0  0  0  0  0  0  0  0  0
   15.5261   26.7827   -7.2737 C   0  0  0  0  0  0  0  0  0  0  0  0
   15.2979   25.4604   -7.6407 C   0  0  0  0  0  0  0  0  0  0  0  0
   15.4609   24.4358   -6.7297 C   0  0  0  0  0  0  0  0  0  0  0  0
   15.8455   24.7419   -5.4803 N   0  0  0  0  0  0  0  0  0  0  0  0
   16.0800   25.9995   -5.0710 C   0  0  0  0  0  0  0  0  0  0  0  0
 40 41  1  0  0  0
 41 42  2  0  0  0
 42 43  1  0  0  0
 43 44  2  0  0  0
 44 45  1  0  0  0
 45 46  2  0  0  0
 46 39  1  0  0  0
 39  1  1  0  0  0
  1  2  1  0  0  0
  2  3  1  0  0  0
  3  4  1  0  0  0
  4  5  1  0  0  0
  5  6  1  0  0  0
  4  7  1  0  0  0
  7  8  1  0  0  0
  8  9  2  0  0  0
  8 10  1  0  0  0
 10 11  1  0  0  0
 11 12  2  0  0  0
 10 21  1  0  0  0
 21 22  2  0  0  0
 22 23  1  0  0  0
 23 24  2  0  0  0
 24 25  1  0  0  0
 25 26  2  0  0  0
 24 27  1  0  0  0
 27 28  2  0  0  0
 28 29  1  0  0  0
 29 30  2  0  0  0
 30 31  1  0  0  0
 31 32  2  0  0  0
 30 33  1  0  0  0
 33 34  1  0  0  0
 34 35  2  0  0  0
 35 36  1  0  0  0
 36 37  1  0  0  0
  7 13  1  0  0  0
 13 14  2  0  0  0
 14 15  1  0  0  0
 15 16  2  0  0  0
 15 17  1  0  0  0
 17 18  1  0  0  0
 18 19  2  0  0  0
 46 41  1  0  0  0
  6  1  1  0  0  0
 26 21  1  0  0  0
 32 27  1  0  0  0
 37 33  2  0  0  0
 19 13  1  0  0  0
 11  4  1  0  0  0
 36 38  1  0  0  0
 17 20  1  0  0  0
M  END
> <minimizedAffinity>
3.97825

> <CNNscore>
0.4642103016

> <CNNaffinity>
7.7031607628

> <CNN_VS>
3.5758864880

> <CNNaffinity_variance>
0.5054329634

$$$$
[H]c1nc(C([H])([H])N2C([H])([H])C([H])([H])C3(C(=O)N(c4c([H])c([H])c(-c5c([H])c([H])c(-c6nn([H])c([H])c6[H])c([H])c5[H])c([H])c4[H])C(=O)N3c3nc([H])n([H])c(=O)c3[H])C([H])([H])C2([H])[H])c(C([H])([H])[H])c([H])c1[H]


 46 52  0  0  0  0  0  0  0  0999 V2000
   17.0278   24.4492   -0.9175 N   0  0  0  0  0  0  0  0  0  0  0  0
   16.4364   25.7169   -0.8721 C   0  0  0  0  0  0  0  0  0  0  0  0
   15.1843   25.7761   -0.0121 C   0  0  0  0  0  0  0  0  0  0  0  0
   14.2499   24.6321   -0.3007 C   0  0  0  0  0  0  0  0  0  0  0  0
   14.8920   23.2984   -0.4168 C   0  0  0  0  0  0  0  0  0  0  0  0
   16.2116   23.3210   -1.0990 C   0  0  0  0  0  0  0  0  0  0  0  0
   13.3158   24.9512   -1.3656 N   0  0  0  0  0  0  0  0  0  0  0  0
   11.9794   24.6519   -0.9060 C   0  0  0  0  0  0  0  0  0  0  0  0
   10.9219   24.5996   -1.5960 O   0  0  0  0  0  0  0  0  0  0  0  0
   11.9930   24.4083    0.4970 N   0  0  0  0  0  0  0  0  0  0  0  0
   13.3406   24.5570    0.9022 C   0  0  0  0  0  0  0  0  0  0  0  0
   13.7710   24.6219    2.0627 O   0  0  0  0  0  0  0  0  0  0  0  0
   13.5300   25.4672   -2.6608 C   0  0  0  0  0  0  0  0  0  0  0  0
   14.5082   24.9719   -3.4915 C   0  0  0  0  0  0  0  0  0  0  0  0
   14.7047   25.4999   -4.7673 C   0  0  0  0  0  0  0  0  0  0  0  0
   15.5903   25.0566   -5.5284 O   0  0  0  0  0  0  0  0  0  0  0  0
   13.9290   26.5023   -5.1848 N   0  0  0  0  0  0  0  0  0  0  0  0
   12.9685   26.9820   -4.3582 C   0  0  0  0  0  0  0  0  0  0  0  0
   12.7687   26.4707   -3.1071 N   0  0  0  0  0  0  0  0  0  0  0  0
   14.0822   26.8953   -6.1441 H   0  0  0  0  0  0  0  0  0  0  0  0
   10.8545   24.0823    1.3231 C   0  0  0  0  0  0  0  0  0  0  0  0
   10.5466   22.7704    1.6163 C   0  0  0  0  0  0  0  0  0  0  0  0
    9.4714   22.4193    2.4054 C   0  0  0  0  0  0  0  0  0  0  0  0
    8.6529   23.4014    2.9368 C   0  0  0  0  0  0  0  0  0  0  0  0
    8.9677   24.7259    2.6372 C   0  0  0  0  0  0  0  0  0  0  0  0
   10.0503   25.0668    1.8432 C   0  0  0  0  0  0  0  0  0  0  0  0
    7.5220   23.0431    3.7739 C   0  0  0  0  0  0  0  0  0  0  0  0
    7.0579   23.9496    4.6986 C   0  0  0  0  0  0  0  0  0  0  0  0
    5.9791   23.6721    5.5181 C   0  0  0  0  0  0  0  0  0  0  0  0
    5.3442   22.4645    5.4180 C   0  0  0  0  0  0  0  0  0  0  0  0
    5.7805   21.5453    4.5117 C   0  0  0  0  0  0  0  0  0  0  0  0
    6.8564   21.8396    3.7043 C   0  0  0  0  0  0  0  0  0  0  0  0
    4.1943   22.1793    6.2846 C   0  0  0  0  0  0  0  0  0  0  0  0
    3.2363   21.2178    6.0835 C   0  0  0  0  0  0  0  0  0  0  0  0
    2.3323   21.2858    7.1331 C   0  0  0  0  0  0  0  0  0  0  0  0
    2.7875   22.2884    7.9229 N   0  0  0  0  0  0  0  0  0  0  0  0
    3.8834   22.8165    7.4263 N   0  0  0  0  0  0  0  0  0  0  0  0
    2.3187   22.5866    8.8019 H   0  0  0  0  0  0  0  0  0  0  0  0
   18.4197   24.3031   -0.8465 C   0  0  0  0  0  0  0  0  0  0  0  0
   20.9606   23.3893   -0.1753 C   0  0  0  0  0  0  0  0  0  0  0  0
   20.1873   24.0848    0.8650 C   0  0  0  0  0  0  0  0  0  0  0  0
   20.6806   24.2985    2.1381 C   0  0  0  0  0  0  0  0  0  0  0  0
   19.8767   24.9619    3.0593 C   0  0  0  0  0  0  0  0  0  0  0  0
   18.6137   25.3975    2.7107 C   0  0  0  0  0  0  0  0  0  0  0  0
   18.1765   25.1679    1.4622 N   0  0  0  0  0  0  0  0  0  0  0  0
   18.9090   24.5332    0.5323 C   0  0  0  0  0  0  0  0  0  0  0  0
 40 41  1  0  0  0
 41 42  2  0  0  0
 42 43  1  0  0  0
 43 44  2  0  0  0
 44 45  1  0  0  0
 45 46  2  0  0  0
 46 39  1  0  0  0
 39  1  1  0  0  0
  1  2  1  0  0  0
  2  3  1  0  0  0
  3  4  1  0  0  0
  4  5  1  0  0  0
  5  6  1  0  0  0
  4  7  1  0  0  0
  7  8  1  0  0  0
  8  9  2  0  0  0
  8 10  1  0  0  0
 10 11  1  0  0  0
 11 12  2  0  0  0
 10 21  1  0  0  0
 21 22  2  0  0  0
 22 23  1  0  0  0
 23 24  2  0  0  0
 24 25  1  0  0  0
 25 26  2  0  0  0
 24 27  1  0  0  0
 27 28  2  0  0  0
 28 29  1  0  0  0
 29 30  2  0  0  0
 30 31  1  0  0  0
 31 32  2  0  0  0
 30 33  1  0  0  0
 33 34  1  0  0  0
 34 35  2  0  0  0
 35 36  1  0  0  0
 36 37  1  0  0  0
  7 13  1  0  0  0
 13 14  2  0  0  0
 14 15  1  0  0  0
 15 16  2  0  0  0
 15 17  1  0  0  0
 17 18  1  0  0  0
 18 19  2  0  0  0
 46 41  1  0  0  0
  6  1  1  0  0  0
 26 21  1  0  0  0
 32 27  1  0  0  0
 37 33  2  0  0  0
 19 13  1  0  0  0
 11  4  1  0  0  0
 36 38  1  0  0  0
 17 20  1  0  0  0
M  END
> <minimizedAffinity>
22.78896

> <CNNscore>
0.4389401376

> <CNNaffinity>
7.7542738914

> <CNN_VS>
3.4036619663

> <CNNaffinity_variance>
0.3940516114

$$$$
[H]c1nc(C([H])([H])N2C([H])([H])C([H])([H])C3(C(=O)N(c4c([H])c([H])c(-c5c([H])c([H])c(-c6nn([H])c([H])c6[H])c([H])c5[H])c([H])c4[H])C(=O)N3c3nc([H])n([H])c(=O)c3[H])C([H])([H])C2([H])[H])c(C([H])([H])[H])c([H])c1[H]


 46 52  0  0  0  0  0  0  0  0999 V2000
   17.0396   25.3610   -1.8597 N   0  0  0  0  0  0  0  0  0  0  0  0
   16.1861   26.4143   -1.5119 C   0  0  0  0  0  0  0  0  0  0  0  0
   15.1074   26.0225   -0.5151 C   0  0  0  0  0  0  0  0  0  0  0  0
   14.4289   24.7350   -0.8986 C   0  0  0  0  0  0  0  0  0  0  0  0
   15.3350   23.6421   -1.3335 C   0  0  0  0  0  0  0  0  0  0  0  0
   16.4879   24.1025   -2.1497 C   0  0  0  0  0  0  0  0  0  0  0  0
   13.2893   24.9617   -1.7693 N   0  0  0  0  0  0  0  0  0  0  0  0
   12.1488   24.2662   -1.2196 C   0  0  0  0  0  0  0  0  0  0  0  0
   11.0362   24.0504   -1.7787 O   0  0  0  0  0  0  0  0  0  0  0  0
   12.4412   23.8261    0.1028 N   0  0  0  0  0  0  0  0  0  0  0  0
   13.7648   24.2507    0.3678 C   0  0  0  0  0  0  0  0  0  0  0  0
   14.3474   24.2479    1.4617 O   0  0  0  0  0  0  0  0  0  0  0  0
   13.1698   25.7039   -2.9629 C   0  0  0  0  0  0  0  0  0  0  0  0
   12.1768   26.6383   -3.1453 C   0  0  0  0  0  0  0  0  0  0  0  0
   12.0754   27.3582   -4.3355 C   0  0  0  0  0  0  0  0  0  0  0  0
   11.1773   28.2085   -4.5100 O   0  0  0  0  0  0  0  0  0  0  0  0
   12.9581   27.1336   -5.3108 N   0  0  0  0  0  0  0  0  0  0  0  0
   13.9321   26.2112   -5.1198 C   0  0  0  0  0  0  0  0  0  0  0  0
   14.0392   25.5015   -3.9573 N   0  0  0  0  0  0  0  0  0  0  0  0
   12.8761   27.6771   -6.2029 H   0  0  0  0  0  0  0  0  0  0  0  0
   11.5552   23.1004    0.9820 C   0  0  0  0  0  0  0  0  0  0  0  0
   10.5313   23.7454    1.6434 C   0  0  0  0  0  0  0  0  0  0  0  0
    9.6615   23.0863    2.4866 C   0  0  0  0  0  0  0  0  0  0  0  0
    9.7986   21.7245    2.6956 C   0  0  0  0  0  0  0  0  0  0  0  0
   10.8353   21.0769    2.0255 C   0  0  0  0  0  0  0  0  0  0  0  0
   11.7031   21.7494    1.1808 C   0  0  0  0  0  0  0  0  0  0  0  0
    8.8846   21.0198    3.5765 C   0  0  0  0  0  0  0  0  0  0  0  0
    9.3914   20.3101    4.6403 C   0  0  0  0  0  0  0  0  0  0  0  0
    8.5730   19.6263    5.5206 C   0  0  0  0  0  0  0  0  0  0  0  0
    7.2169   19.6468    5.3414 C   0  0  0  0  0  0  0  0  0  0  0  0
    6.6844   20.3409    4.2966 C   0  0  0  0  0  0  0  0  0  0  0  0
    7.5153   21.0156    3.4305 C   0  0  0  0  0  0  0  0  0  0  0  0
    6.3530   18.9263    6.2842 C   0  0  0  0  0  0  0  0  0  0  0  0
    5.0021   19.0987    6.4526 C   0  0  0  0  0  0  0  0  0  0  0  0
    4.5774   18.2245    7.4419 C   0  0  0  0  0  0  0  0  0  0  0  0
    5.6949   17.5616    7.8268 N   0  0  0  0  0  0  0  0  0  0  0  0
    6.7418   17.9724    7.1472 N   0  0  0  0  0  0  0  0  0  0  0  0
    5.7037   16.8281    8.5639 H   0  0  0  0  0  0  0  0  0  0  0  0
   18.4206   25.5655   -1.9805 C   0  0  0  0  0  0  0  0  0  0  0  0
   21.0797   26.2754   -2.3891 C   0  0  0  0  0  0  0  0  0  0  0  0
   20.0443   27.1210   -3.0029 C   0  0  0  0  0  0  0  0  0  0  0  0
   20.3499   28.2313   -3.7669 C   0  0  0  0  0  0  0  0  0  0  0  0
   19.3049   28.9754   -4.3049 C   0  0  0  0  0  0  0  0  0  0  0  0
   17.9913   28.6138   -4.0812 C   0  0  0  0  0  0  0  0  0  0  0  0
   17.7423   27.5272   -3.3329 N   0  0  0  0  0  0  0  0  0  0  0  0
   18.7108   26.7720   -2.7890 C   0  0  0  0  0  0  0  0  0  0  0  0
 40 41  1  0  0  0
 41 42  2  0  0  0
 42 43  1  0  0  0
 43 44  2  0  0  0
 44 45  1  0  0  0
 45 46  2  0  0  0
 46 39  1  0  0  0
 39  1  1  0  0  0
  1  2  1  0  0  0
  2  3  1  0  0  0
  3  4  1  0  0  0
  4  5  1  0  0  0
  5  6  1  0  0  0
  4  7  1  0  0  0
  7  8  1  0  0  0
  8  9  2  0  0  0
  8 10  1  0  0  0
 10 11  1  0  0  0
 11 12  2  0  0  0
 10 21  1  0  0  0
 21 22  2  0  0  0
 22 23  1  0  0  0
 23 24  2  0  0  0
 24 25  1  0  0  0
 25 26  2  0  0  0
 24 27  1  0  0  0
 27 28  2  0  0  0
 28 29  1  0  0  0
 29 30  2  0  0  0
 30 31  1  0  0  0
 31 32  2  0  0  0
 30 33  1  0  0  0
 33 34  1  0  0  0
 34 35  2  0  0  0
 35 36  1  0  0  0
 36 37  1  0  0  0
  7 13  1  0  0  0
 13 14  2  0  0  0
 14 15  1  0  0  0
 15 16  2  0  0  0
 15 17  1  0  0  0
 17 18  1  0  0  0
 18 19  2  0  0  0
 46 41  1  0  0  0
  6  1  1  0  0  0
 26 21  1  0  0  0
 32 27  1  0  0  0
 37 33  2  0  0  0
 19 13  1  0  0  0
 11  4  1  0  0  0
 36 38  1  0  0  0
 17 20  1  0  0  0
M  END
> <minimizedAffinity>
14.91804

> <CNNscore>
0.4311019778

> <CNNaffinity>
7.6872673035

> <CNN_VS>
3.3139960766

> <CNNaffinity_variance>
0.5737981200

$$$$
[H]c1nc(C([H])([H])N2C([H])([H])C([H])([H])C3(C(=O)N(c4c([H])c([H])c(-c5c([H])c([H])c(-c6nn([H])c([H])c6[H])c([H])c5[H])c([H])c4[H])C(=O)N3c3nc([H])n([H])c(=O)c3[H])C([H])([H])C2([H])[H])c(C([H])([H])[H])c([H])c1[H]


 46 52  0  0  0  0  0  0  0  0999 V2000
   16.0879   25.8355   -3.3483 N   0  0  0  0  0  0  0  0  0  0  0  0
   16.6228   24.6997   -2.7295 C   0  0  0  0  0  0  0  0  0  0  0  0
   15.5916   23.6227   -2.4338 C   0  0  0  0  0  0  0  0  0  0  0  0
   14.3539   24.1907   -1.7931 C   0  0  0  0  0  0  0  0  0  0  0  0
   13.8301   25.4350   -2.4108 C   0  0  0  0  0  0  0  0  0  0  0  0
   14.8872   26.3769   -2.8611 C   0  0  0  0  0  0  0  0  0  0  0  0
   14.4629   24.2305   -0.3457 N   0  0  0  0  0  0  0  0  0  0  0  0
   13.2894   23.6048    0.2182 C   0  0  0  0  0  0  0  0  0  0  0  0
   12.9135   23.6204    1.4248 O   0  0  0  0  0  0  0  0  0  0  0  0
   12.5627   22.9290   -0.8032 N   0  0  0  0  0  0  0  0  0  0  0  0
   13.2897   23.1397   -1.9988 C   0  0  0  0  0  0  0  0  0  0  0  0
   13.1210   22.5724   -3.0877 O   0  0  0  0  0  0  0  0  0  0  0  0
   15.4717   24.7496    0.4924 C   0  0  0  0  0  0  0  0  0  0  0  0
   16.6786   24.1120    0.6634 C   0  0  0  0  0  0  0  0  0  0  0  0
   17.6607   24.6417    1.5001 C   0  0  0  0  0  0  0  0  0  0  0  0
   18.7594   24.0699    1.6614 O   0  0  0  0  0  0  0  0  0  0  0  0
   17.4212   25.7860    2.1438 N   0  0  0  0  0  0  0  0  0  0  0  0
   16.2290   26.4053    1.9675 C   0  0  0  0  0  0  0  0  0  0  0  0
   15.2614   25.8939    1.1498 N   0  0  0  0  0  0  0  0  0  0  0  0
   18.1627   26.1784    2.7717 H   0  0  0  0  0  0  0  0  0  0  0  0
   11.3386   22.1820   -0.6353 C   0  0  0  0  0  0  0  0  0  0  0  0
   10.1227   22.8273   -0.5508 C   0  0  0  0  0  0  0  0  0  0  0  0
    8.9320   22.1489   -0.3959 C   0  0  0  0  0  0  0  0  0  0  0  0
    8.9279   20.7665   -0.3191 C   0  0  0  0  0  0  0  0  0  0  0  0
   10.1593   20.1187   -0.4042 C   0  0  0  0  0  0  0  0  0  0  0  0
   11.3491   20.8106   -0.5598 C   0  0  0  0  0  0  0  0  0  0  0  0
    7.6794   20.0422   -0.1620 C   0  0  0  0  0  0  0  0  0  0  0  0
    7.4142   18.9754   -0.9890 C   0  0  0  0  0  0  0  0  0  0  0  0
    6.2482   18.2394   -0.8832 C   0  0  0  0  0  0  0  0  0  0  0  0
    5.3213   18.5699    0.0671 C   0  0  0  0  0  0  0  0  0  0  0  0
    5.5550   19.6217    0.9013 C   0  0  0  0  0  0  0  0  0  0  0  0
    6.7218   20.3428    0.7808 C   0  0  0  0  0  0  0  0  0  0  0  0
    4.0897   17.7795    0.1802 C   0  0  0  0  0  0  0  0  0  0  0  0
    3.5955   16.8968   -0.7469 C   0  0  0  0  0  0  0  0  0  0  0  0
    2.4139   16.3677   -0.2493 C   0  0  0  0  0  0  0  0  0  0  0  0
    2.2483   16.9568    0.9598 N   0  0  0  0  0  0  0  0  0  0  0  0
    3.2330   17.7884    1.2156 N   0  0  0  0  0  0  0  0  0  0  0  0
    1.4426   16.7640    1.5882 H   0  0  0  0  0  0  0  0  0  0  0  0
   16.7660   26.4672   -4.3994 C   0  0  0  0  0  0  0  0  0  0  0  0
   15.7346   28.6093   -5.8449 C   0  0  0  0  0  0  0  0  0  0  0  0
   15.6036   27.2650   -6.4276 C   0  0  0  0  0  0  0  0  0  0  0  0
   15.0010   27.0422   -7.6511 C   0  0  0  0  0  0  0  0  0  0  0  0
   14.9175   25.7360   -8.1224 C   0  0  0  0  0  0  0  0  0  0  0  0
   15.4248   24.6848   -7.3849 C   0  0  0  0  0  0  0  0  0  0  0  0
   16.0019   24.9491   -6.2019 N   0  0  0  0  0  0  0  0  0  0  0  0
   16.1104   26.1895   -5.6981 C   0  0  0  0  0  0  0  0  0  0  0  0
 40 41  1  0  0  0
 41 42  2  0  0  0
 42 43  1  0  0  0
 43 44  2  0  0  0
 44 45  1  0  0  0
 45 46  2  0  0  0
 46 39  1  0  0  0
 39  1  1  0  0  0
  1  2  1  0  0  0
  2  3  1  0  0  0
  3  4  1  0  0  0
  4  5  1  0  0  0
  5  6  1  0  0  0
  4  7  1  0  0  0
  7  8  1  0  0  0
  8  9  2  0  0  0
  8 10  1  0  0  0
 10 11  1  0  0  0
 11 12  2  0  0  0
 10 21  1  0  0  0
 21 22  2  0  0  0
 22 23  1  0  0  0
 23 24  2  0  0  0
 24 25  1  0  0  0
 25 26  2  0  0  0
 24 27  1  0  0  0
 27 28  2  0  0  0
 28 29  1  0  0  0
 29 30  2  0  0  0
 30 31  1  0  0  0
 31 32  2  0  0  0
 30 33  1  0  0  0
 33 34  1  0  0  0
 34 35  2  0  0  0
 35 36  1  0  0  0
 36 37  1  0  0  0
  7 13  1  0  0  0
 13 14  2  0  0  0
 14 15  1  0  0  0
 15 16  2  0  0  0
 15 17  1  0  0  0
 17 18  1  0  0  0
 18 19  2  0  0  0
 46 41  1  0  0  0
  6  1  1  0  0  0
 26 21  1  0  0  0
 32 27  1  0  0  0
 37 33  2  0  0  0
 19 13  1  0  0  0
 11  4  1  0  0  0
 36 38  1  0  0  0
 17 20  1  0  0  0
M  END
> <minimizedAffinity>
8.86431

> <CNNscore>
0.4272467494

> <CNNaffinity>
7.7680411339

> <CNN_VS>
3.3188703060

> <CNNaffinity_variance>
0.5105847120

$$$$
[H]c1nc(C([H])([H])N2C([H])([H])C([H])([H])C3(C(=O)N(c4c([H])c([H])c(-c5c([H])c([H])c(-c6nn([H])c([H])c6[H])c([H])c5[H])c([H])c4[H])C(=O)N3c3nc([H])n([H])c(=O)c3[H])C([H])([H])C2([H])[H])c(C([H])([H])[H])c([H])c1[H]


 46 52  0  0  0  0  0  0  0  0999 V2000
   15.8176   25.4784   -3.2387 N   0  0  0  0  0  0  0  0  0  0  0  0
   15.1878   26.4568   -2.4609 C   0  0  0  0  0  0  0  0  0  0  0  0
   14.4636   25.8986   -1.2465 C   0  0  0  0  0  0  0  0  0  0  0  0
   13.6196   24.7026   -1.5962 C   0  0  0  0  0  0  0  0  0  0  0  0
   14.2688   23.7006   -2.4788 C   0  0  0  0  0  0  0  0  0  0  0  0
   15.1253   24.2938   -3.5380 C   0  0  0  0  0  0  0  0  0  0  0  0
   12.2773   25.0853   -1.9964 N   0  0  0  0  0  0  0  0  0  0  0  0
   11.3326   24.3079   -1.2283 C   0  0  0  0  0  0  0  0  0  0  0  0
   10.0882   24.1996   -1.4211 O   0  0  0  0  0  0  0  0  0  0  0  0
   12.0057   23.6386   -0.1667 N   0  0  0  0  0  0  0  0  0  0  0  0
   13.3680   24.0038   -0.2818 C   0  0  0  0  0  0  0  0  0  0  0  0
   14.2693   23.8043    0.5453 O   0  0  0  0  0  0  0  0  0  0  0  0
   11.8275   26.0282   -2.9441 C   0  0  0  0  0  0  0  0  0  0  0  0
   10.6251   25.8899   -3.5977 C   0  0  0  0  0  0  0  0  0  0  0  0
   10.2018   26.8330   -4.5340 C   0  0  0  0  0  0  0  0  0  0  0  0
    9.1116   26.7157   -5.1322 O   0  0  0  0  0  0  0  0  0  0  0  0
   10.9794   27.8851   -4.7972 N   0  0  0  0  0  0  0  0  0  0  0  0
   12.1615   28.0111   -4.1472 C   0  0  0  0  0  0  0  0  0  0  0  0
   12.5841   27.0925   -3.2284 N   0  0  0  0  0  0  0  0  0  0  0  0
   10.6562   28.5896   -5.5023 H   0  0  0  0  0  0  0  0  0  0  0  0
   11.4052   22.7720    0.8197 C   0  0  0  0  0  0  0  0  0  0  0  0
   11.1663   21.4427    0.5409 C   0  0  0  0  0  0  0  0  0  0  0  0
   10.5998   20.5825    1.4580 C   0  0  0  0  0  0  0  0  0  0  0  0
   10.2474   21.0447    2.7147 C   0  0  0  0  0  0  0  0  0  0  0  0
   10.4901   22.3892    2.9916 C   0  0  0  0  0  0  0  0  0  0  0  0
   11.0598   23.2440    2.0624 C   0  0  0  0  0  0  0  0  0  0  0  0
    9.6560   20.1462    3.6898 C   0  0  0  0  0  0  0  0  0  0  0  0
   10.4441   19.1876    4.2834 C   0  0  0  0  0  0  0  0  0  0  0  0
    9.9428   18.3089    5.2263 C   0  0  0  0  0  0  0  0  0  0  0  0
    8.6261   18.3828    5.5900 C   0  0  0  0  0  0  0  0  0  0  0  0
    7.8197   19.3216    5.0197 C   0  0  0  0  0  0  0  0  0  0  0  0
    8.3368   20.1878    4.0826 C   0  0  0  0  0  0  0  0  0  0  0  0
    8.1021   17.4531    6.5977 C   0  0  0  0  0  0  0  0  0  0  0  0
    6.7871   17.1128    6.7924 C   0  0  0  0  0  0  0  0  0  0  0  0
    6.7280   16.2103    7.8438 C   0  0  0  0  0  0  0  0  0  0  0  0
    8.0144   16.0460    8.2371 N   0  0  0  0  0  0  0  0  0  0  0  0
    8.8257   16.7762    7.5056 N   0  0  0  0  0  0  0  0  0  0  0  0
    8.3024   15.4207    9.0164 H   0  0  0  0  0  0  0  0  0  0  0  0
   17.0969   25.6953   -3.7680 C   0  0  0  0  0  0  0  0  0  0  0  0
   19.1765   27.3982   -3.0486 C   0  0  0  0  0  0  0  0  0  0  0  0
   18.2317   27.8679   -4.0737 C   0  0  0  0  0  0  0  0  0  0  0  0
   18.3502   29.1033   -4.6816 C   0  0  0  0  0  0  0  0  0  0  0  0
   17.4074   29.4662   -5.6379 C   0  0  0  0  0  0  0  0  0  0  0  0
   16.3757   28.6121   -5.9730 C   0  0  0  0  0  0  0  0  0  0  0  0
   16.3008   27.4218   -5.3564 N   0  0  0  0  0  0  0  0  0  0  0  0
   17.1824   27.0192   -4.4266 C   0  0  0  0  0  0  0  0  0  0  0  0
 40 41  1  0  0  0
 41 42  2  0  0  0
 42 43  1  0  0  0
 43 44  2  0  0  0
 44 45  1  0  0  0
 45 46  2  0  0  0
 46 39  1  0  0  0
 39  1  1  0  0  0
  1  2  1  0  0  0
  2  3  1  0  0  0
  3  4  1  0  0  0
  4  5  1  0  0  0
  5  6  1  0  0  0
  4  7  1  0  0  0
  7  8  1  0  0  0
  8  9  2  0  0  0
  8 10  1  0  0  0
 10 11  1  0  0  0
 11 12  2  0  0  0
 10 21  1  0  0  0
 21 22  2  0  0  0
 22 23  1  0  0  0
 23 24  2  0  0  0
 24 25  1  0  0  0
 25 26  2  0  0  0
 24 27  1  0  0  0
 27 28  2  0  0  0
 28 29  1  0  0  0
 29 30  2  0  0  0
 30 31  1  0  0  0
 31 32  2  0  0  0
 30 33  1  0  0  0
 33 34  1  0  0  0
 34 35  2  0  0  0
 35 36  1  0  0  0
 36 37  1  0  0  0
  7 13  1  0  0  0
 13 14  2  0  0  0
 14 15  1  0  0  0
 15 16  2  0  0  0
 15 17  1  0  0  0
 17 18  1  0  0  0
 18 19  2  0  0  0
 46 41  1  0  0  0
  6  1  1  0  0  0
 26 21  1  0  0  0
 32 27  1  0  0  0
 37 33  2  0  0  0
 19 13  1  0  0  0
 11  4  1  0  0  0
 36 38  1  0  0  0
 17 20  1  0  0  0
M  END
> <minimizedAffinity>
28.61795

> <CNNscore>
0.4212190509

> <CNNaffinity>
7.1410942078

> <CNN_VS>
3.0079648495

> <CNNaffinity_variance>
0.6015878916

$$$$
[H]c1nc(C([H])([H])N2C([H])([H])C([H])([H])C3(C(=O)N(c4c([H])c([H])c(-c5c([H])c([H])c(-c6nn([H])c([H])c6[H])c([H])c5[H])c([H])c4[H])C(=O)N3c3nc([H])n([H])c(=O)c3[H])C([H])([H])C2([H])[H])c(C([H])([H])[H])c([H])c1[H]


 46 52  0  0  0  0  0  0  0  0999 V2000
   16.1577   25.0239   -1.7199 N   0  0  0  0  0  0  0  0  0  0  0  0
   15.3328   25.9912   -1.1344 C   0  0  0  0  0  0  0  0  0  0  0  0
   14.4408   25.4459   -0.0308 C   0  0  0  0  0  0  0  0  0  0  0  0
   13.7571   24.1693   -0.4402 C   0  0  0  0  0  0  0  0  0  0  0  0
   14.6215   23.1742   -1.1236 C   0  0  0  0  0  0  0  0  0  0  0  0
   15.6129   23.7734   -2.0539 C   0  0  0  0  0  0  0  0  0  0  0  0
   12.4862   24.4216   -1.0957 N   0  0  0  0  0  0  0  0  0  0  0  0
   11.4734   23.6159   -0.4541 C   0  0  0  0  0  0  0  0  0  0  0  0
   10.2946   23.3988   -0.8548 O   0  0  0  0  0  0  0  0  0  0  0  0
   11.9877   23.0622    0.7529 N   0  0  0  0  0  0  0  0  0  0  0  0
   13.3203   23.5271    0.8545 C   0  0  0  0  0  0  0  0  0  0  0  0
   14.0689   23.4459    1.8389 O   0  0  0  0  0  0  0  0  0  0  0  0
   12.1520   25.2717   -2.1705 C   0  0  0  0  0  0  0  0  0  0  0  0
   13.0999   26.0127   -2.8374 C   0  0  0  0  0  0  0  0  0  0  0  0
   12.7462   26.8497   -3.8954 C   0  0  0  0  0  0  0  0  0  0  0  0
   13.5999   27.5261   -4.5068 O   0  0  0  0  0  0  0  0  0  0  0  0
   11.4659   26.9303   -4.2634 N   0  0  0  0  0  0  0  0  0  0  0  0
   10.5410   26.1956   -3.5995 C   0  0  0  0  0  0  0  0  0  0  0  0
   10.8784   25.3729   -2.5622 N   0  0  0  0  0  0  0  0  0  0  0  0
   11.2064   27.5616   -5.0584 H   0  0  0  0  0  0  0  0  0  0  0  0
   11.2792   22.2070    1.6757 C   0  0  0  0  0  0  0  0  0  0  0  0
   10.0675   22.5930    2.2090 C   0  0  0  0  0  0  0  0  0  0  0  0
    9.3584   21.8022    3.0887 C   0  0  0  0  0  0  0  0  0  0  0  0
    9.8592   20.5685    3.4683 C   0  0  0  0  0  0  0  0  0  0  0  0
   11.0846   20.1829    2.9272 C   0  0  0  0  0  0  0  0  0  0  0  0
   11.7880   20.9856    2.0443 C   0  0  0  0  0  0  0  0  0  0  0  0
    9.1180   19.7254    4.3891 C   0  0  0  0  0  0  0  0  0  0  0  0
    7.7565   19.6008    4.2370 C   0  0  0  0  0  0  0  0  0  0  0  0
    6.9961   18.8058    5.0748 C   0  0  0  0  0  0  0  0  0  0  0  0
    7.6013   18.1164    6.0896 C   0  0  0  0  0  0  0  0  0  0  0  0
    8.9485   18.2193    6.2662 C   0  0  0  0  0  0  0  0  0  0  0  0
    9.6891   19.0160    5.4220 C   0  0  0  0  0  0  0  0  0  0  0  0
    6.7900   17.2672    6.9700 C   0  0  0  0  0  0  0  0  0  0  0  0
    5.5157   17.5249    7.4090 C   0  0  0  0  0  0  0  0  0  0  0  0
    5.1196   16.4720    8.2202 C   0  0  0  0  0  0  0  0  0  0  0  0
    6.1761   15.6235    8.2337 N   0  0  0  0  0  0  0  0  0  0  0  0
    7.1610   16.0887    7.4987 N   0  0  0  0  0  0  0  0  0  0  0  0
    6.1879   14.7276    8.7612 H   0  0  0  0  0  0  0  0  0  0  0  0
   17.4937   25.3116   -2.0297 C   0  0  0  0  0  0  0  0  0  0  0  0
   15.9807   25.1621   -4.3599 C   0  0  0  0  0  0  0  0  0  0  0  0
   16.8191   26.3549   -4.1645 C   0  0  0  0  0  0  0  0  0  0  0  0
   16.8694   27.3852   -5.0842 C   0  0  0  0  0  0  0  0  0  0  0  0
   17.6944   28.4732   -4.8182 C   0  0  0  0  0  0  0  0  0  0  0  0
   18.4467   28.5237   -3.6616 C   0  0  0  0  0  0  0  0  0  0  0  0
   18.3656   27.4999   -2.7969 N   0  0  0  0  0  0  0  0  0  0  0  0
   17.5864   26.4252   -3.0018 C   0  0  0  0  0  0  0  0  0  0  0  0
 40 41  1  0  0  0
 41 42  2  0  0  0
 42 43  1  0  0  0
 43 44  2  0  0  0
 44 45  1  0  0  0
 45 46  2  0  0  0
 46 39  1  0  0  0
 39  1  1  0  0  0
  1  2  1  0  0  0
  2  3  1  0  0  0
  3  4  1  0  0  0
  4  5  1  0  0  0
  5  6  1  0  0  0
  4  7  1  0  0  0
  7  8  1  0  0  0
  8  9  2  0  0  0
  8 10  1  0  0  0
 10 11  1  0  0  0
 11 12  2  0  0  0
 10 21  1  0  0  0
 21 22  2  0  0  0
 22 23  1  0  0  0
 23 24  2  0  0  0
 24 25  1  0  0  0
 25 26  2  0  0  0
 24 27  1  0  0  0
 27 28  2  0  0  0
 28 29  1  0  0  0
 29 30  2  0  0  0
 30 31  1  0  0  0
 31 32  2  0  0  0
 30 33  1  0  0  0
 33 34  1  0  0  0
 34 35  2  0  0  0
 35 36  1  0  0  0
 36 37  1  0  0  0
  7 13  1  0  0  0
 13 14  2  0  0  0
 14 15  1  0  0  0
 15 16  2  0  0  0
 15 17  1  0  0  0
 17 18  1  0  0  0
 18 19  2  0  0  0
 46 41  1  0  0  0
  6  1  1  0  0  0
 26 21  1  0  0  0
 32 27  1  0  0  0
 37 33  2  0  0  0
 19 13  1  0  0  0
 11  4  1  0  0  0
 36 38  1  0  0  0
 17 20  1  0  0  0
M  END
> <minimizedAffinity>
10.39088

> <CNNscore>
0.4176726937

> <CNNaffinity>
7.3777008057

> <CNN_VS>
3.0814640522

> <CNNaffinity_variance>
0.3405257463

$$$$
[H]c1nc2c([H])c(N([H])C(=O)C3([H])C([H])([H])C3([H])C([H])([H])[H])c([H])c(-c3c([H])c([H])c(C#N)c(F)c3[H])n2n1


 26 29  0  0  0  0  0  0  0  0999 V2000
   13.0943   25.3695   -2.9728 C   0  0  0  0  0  0  0  0  0  0  0  0
   14.1972   25.1547   -2.1462 C   0  0  0  0  0  0  0  0  0  0  0  0
   14.0928   24.6772   -0.8632 C   0  0  0  0  0  0  0  0  0  0  0  0
   12.8378   24.4072   -0.3968 N   0  0  0  0  0  0  0  0  0  0  0  0
   12.4002   23.9582    0.7607 N   0  0  0  0  0  0  0  0  0  0  0  0
   11.0779   23.8661    0.7389 C   0  0  0  0  0  0  0  0  0  0  0  0
   10.6671   24.2697   -0.4702 N   0  0  0  0  0  0  0  0  0  0  0  0
   11.7660   24.6057   -1.1733 C   0  0  0  0  0  0  0  0  0  0  0  0
   11.8429   25.0922   -2.4876 C   0  0  0  0  0  0  0  0  0  0  0  0
   15.2789   24.5109   -0.0649 C   0  0  0  0  0  0  0  0  0  0  0  0
   16.1662   25.5867    0.0472 C   0  0  0  0  0  0  0  0  0  0  0  0
   17.3267   25.4638    0.7789 C   0  0  0  0  0  0  0  0  0  0  0  0
   17.6748   24.2988    1.4299 C   0  0  0  0  0  0  0  0  0  0  0  0
   16.7983   23.2520    1.3129 C   0  0  0  0  0  0  0  0  0  0  0  0
   17.1101   22.1021    1.9368 F   0  0  0  0  0  0  0  0  0  0  0  0
   15.6089   23.3457    0.5749 C   0  0  0  0  0  0  0  0  0  0  0  0
   18.8995   24.1932    2.1932 C   0  0  0  0  0  0  0  0  0  0  0  0
   19.8733   24.1211    2.8021 N   0  0  0  0  0  0  0  0  0  0  0  0
   14.5239   26.3520   -4.7668 C   0  0  0  0  0  0  0  0  0  0  0  0
   15.5978   26.4692   -4.1543 O   0  0  0  0  0  0  0  0  0  0  0  0
   13.3190   25.8484   -4.2891 N   0  0  0  0  0  0  0  0  0  0  0  0
   12.5053   25.8257   -4.9664 H   0  0  0  0  0  0  0  0  0  0  0  0
   15.2384   25.7444   -8.4038 C   0  0  0  0  0  0  0  0  0  0  0  0
   15.6666   26.1358   -6.9969 C   0  0  0  0  0  0  0  0  0  0  0  0
   15.7722   27.5764   -6.6574 C   0  0  0  0  0  0  0  0  0  0  0  0
   14.5678   26.8215   -6.1978 C   0  0  0  0  0  0  0  0  0  0  0  0
 23 24  1  0  0  0
 24 25  1  0  0  0
 25 26  1  0  0  0
 26 19  1  0  0  0
 19 20  2  0  0  0
 19 21  1  0  0  0
 21  1  1  0  0  0
  1  2  1  0  0  0
  2  3  2  0  0  0
  3 10  1  0  0  0
 10 11  2  0  0  0
 11 12  1  0  0  0
 12 13  2  0  0  0
 13 17  1  0  0  0
 17 18  3  0  0  0
 13 14  1  0  0  0
 14 15  1  0  0  0
 14 16  2  0  0  0
  3  4  1  0  0  0
  4  5  1  0  0  0
  5  6  2  0  0  0
  6  7  1  0  0  0
  7  8  2  0  0  0
  8  9  1  0  0  0
 26 24  1  0  0  0
  9  1  2  0  0  0
 16 10  1  0  0  0
  8  4  1  0  0  0
 21 22  1  0  0  0
M  END
> <minimizedAffinity>
3.34192

> <CNNscore>
0.6323702335

> <CNNaffinity>
7.3105239868

> <CNN_VS>
4.6229577065

> <CNNaffinity_variance>
0.9335209131

$$$$
[H]c1nc2c([H])c(N([H])C(=O)C3([H])C([H])([H])C3([H])C([H])([H])[H])c([H])c(-c3c([H])c([H])c(C#N)c(F)c3[H])n2n1


 26 29  0  0  0  0  0  0  0  0999 V2000
   11.2240   23.9004    1.1115 C   0  0  0  0  0  0  0  0  0  0  0  0
   11.7716   24.4464   -0.0493 C   0  0  0  0  0  0  0  0  0  0  0  0
   12.8320   23.8845   -0.7161 C   0  0  0  0  0  0  0  0  0  0  0  0
   13.3586   22.7357   -0.1979 N   0  0  0  0  0  0  0  0  0  0  0  0
   14.3581   21.9684   -0.5789 N   0  0  0  0  0  0  0  0  0  0  0  0
   14.4951   20.9537    0.2631 C   0  0  0  0  0  0  0  0  0  0  0  0
   13.5527   21.0841    1.2059 N   0  0  0  0  0  0  0  0  0  0  0  0
   12.8482   22.1948    0.9148 C   0  0  0  0  0  0  0  0  0  0  0  0
   11.7652   22.7469    1.6164 C   0  0  0  0  0  0  0  0  0  0  0  0
   13.3571   24.5272   -1.8921 C   0  0  0  0  0  0  0  0  0  0  0  0
   12.7742   25.7262   -2.3160 C   0  0  0  0  0  0  0  0  0  0  0  0
   13.2269   26.3621   -3.4509 C   0  0  0  0  0  0  0  0  0  0  0  0
   14.2588   25.8653   -4.2194 C   0  0  0  0  0  0  0  0  0  0  0  0
   14.8218   24.6905   -3.7947 C   0  0  0  0  0  0  0  0  0  0  0  0
   15.8307   24.1807   -4.5235 F   0  0  0  0  0  0  0  0  0  0  0  0
   14.3831   24.0189   -2.6437 C   0  0  0  0  0  0  0  0  0  0  0  0
   14.7176   26.5511   -5.4080 C   0  0  0  0  0  0  0  0  0  0  0  0
   15.0935   27.0919   -6.3516 N   0  0  0  0  0  0  0  0  0  0  0  0
    9.5688   24.2399    2.9480 C   0  0  0  0  0  0  0  0  0  0  0  0
    9.9375   23.3602    3.7432 O   0  0  0  0  0  0  0  0  0  0  0  0
   10.1158   24.5543    1.7088 N   0  0  0  0  0  0  0  0  0  0  0  0
    9.6623   25.3451    1.1700 H   0  0  0  0  0  0  0  0  0  0  0  0
    7.8973   27.5334    3.6308 C   0  0  0  0  0  0  0  0  0  0  0  0
    8.7952   26.3726    4.0336 C   0  0  0  0  0  0  0  0  0  0  0  0
    8.2297   25.2926    4.8795 C   0  0  0  0  0  0  0  0  0  0  0  0
    8.3836   25.0449    3.4142 C   0  0  0  0  0  0  0  0  0  0  0  0
 23 24  1  0  0  0
 24 25  1  0  0  0
 25 26  1  0  0  0
 26 19  1  0  0  0
 19 20  2  0  0  0
 19 21  1  0  0  0
 21  1  1  0  0  0
  1  2  1  0  0  0
  2  3  2  0  0  0
  3 10  1  0  0  0
 10 11  2  0  0  0
 11 12  1  0  0  0
 12 13  2  0  0  0
 13 17  1  0  0  0
 17 18  3  0  0  0
 13 14  1  0  0  0
 14 15  1  0  0  0
 14 16  2  0  0  0
  3  4  1  0  0  0
  4  5  1  0  0  0
  5  6  2  0  0  0
  6  7  1  0  0  0
  7  8  2  0  0  0
  8  9  1  0  0  0
 26 24  1  0  0  0
  9  1  2  0  0  0
 16 10  1  0  0  0
  8  4  1  0  0  0
 21 22  1  0  0  0
M  END
> <minimizedAffinity>
-10.16228

> <CNNscore>
0.6235927343

> <CNNaffinity>
6.9460191727

> <CNN_VS>
4.3314871788

> <CNNaffinity_variance>
0.1140599102

$$$$
[H]c1nc2c([H])c(N([H])C(=O)C3([H])C([H])([H])C3([H])C([H])([H])[H])c([H])c(-c3c([H])c([H])c(C#N)c(F)c3[H])n2n1


 26 29  0  0  0  0  0  0  0  0999 V2000
   12.2242   23.4714   -0.3876 C   0  0  0  0  0  0  0  0  0  0  0  0
   12.6734   23.8636   -1.6485 C   0  0  0  0  0  0  0  0  0  0  0  0
   13.9497   24.3104   -1.8859 C   0  0  0  0  0  0  0  0  0  0  0  0
   14.8016   24.3645   -0.8197 N   0  0  0  0  0  0  0  0  0  0  0  0
   16.0571   24.7441   -0.7068 N   0  0  0  0  0  0  0  0  0  0  0  0
   16.4545   24.6223    0.5519 C   0  0  0  0  0  0  0  0  0  0  0  0
   15.4176   24.1511    1.2567 N   0  0  0  0  0  0  0  0  0  0  0  0
   14.3912   23.9927    0.3987 C   0  0  0  0  0  0  0  0  0  0  0  0
   13.0935   23.5319    0.6702 C   0  0  0  0  0  0  0  0  0  0  0  0
   14.3259   24.7243   -3.2122 C   0  0  0  0  0  0  0  0  0  0  0  0
   15.2390   23.9393   -3.9243 C   0  0  0  0  0  0  0  0  0  0  0  0
   15.6476   24.3113   -5.1860 C   0  0  0  0  0  0  0  0  0  0  0  0
   15.1907   25.4542   -5.8081 C   0  0  0  0  0  0  0  0  0  0  0  0
   14.2969   26.2151   -5.1012 C   0  0  0  0  0  0  0  0  0  0  0  0
   13.8329   27.3362   -5.6816 F   0  0  0  0  0  0  0  0  0  0  0  0
   13.8618   25.8634   -3.8147 C   0  0  0  0  0  0  0  0  0  0  0  0
   15.6341   25.8247   -7.1347 C   0  0  0  0  0  0  0  0  0  0  0  0
   15.9943   26.1099   -8.1898 N   0  0  0  0  0  0  0  0  0  0  0  0
    9.9586   23.4813    0.6586 C   0  0  0  0  0  0  0  0  0  0  0  0
   10.1114   24.3740    1.5083 O   0  0  0  0  0  0  0  0  0  0  0  0
   10.8896   23.0078   -0.2593 N   0  0  0  0  0  0  0  0  0  0  0  0
   10.5722   22.2360   -0.9112 H   0  0  0  0  0  0  0  0  0  0  0  0
    7.1230   21.7508    2.4114 C   0  0  0  0  0  0  0  0  0  0  0  0
    8.4533   21.7401    1.6724 C   0  0  0  0  0  0  0  0  0  0  0  0
    8.4614   21.4322    0.2209 C   0  0  0  0  0  0  0  0  0  0  0  0
    8.5869   22.8581    0.6487 C   0  0  0  0  0  0  0  0  0  0  0  0
 23 24  1  0  0  0
 24 25  1  0  0  0
 25 26  1  0  0  0
 26 19  1  0  0  0
 19 20  2  0  0  0
 19 21  1  0  0  0
 21  1  1  0  0  0
  1  2  1  0  0  0
  2  3  2  0  0  0
  3 10  1  0  0  0
 10 11  2  0  0  0
 11 12  1  0  0  0
 12 13  2  0  0  0
 13 17  1  0  0  0
 17 18  3  0  0  0
 13 14  1  0  0  0
 14 15  1  0  0  0
 14 16  2  0  0  0
  3  4  1  0  0  0
  4  5  1  0  0  0
  5  6  2  0  0  0
  6  7  1  0  0  0
  7  8  2  0  0  0
  8  9  1  0  0  0
 26 24  1  0  0  0
  9  1  2  0  0  0
 16 10  1  0  0  0
  8  4  1  0  0  0
 21 22  1  0  0  0
M  END
> <minimizedAffinity>
-7.72986

> <CNNscore>
0.6170782447

> <CNNaffinity>
7.2008528709

> <CNN_VS>
4.4434895515

> <CNNaffinity_variance>
0.1500332803

$$$$
[H]c1nc2c([H])c(N([H])C(=O)C3([H])C([H])([H])C3([H])C([H])([H])[H])c([H])c(-c3c([H])c([H])c(C#N)c(F)c3[H])n2n1


 26 29  0  0  0  0  0  0  0  0999 V2000
   12.4149   23.0197   -0.4382 C   0  0  0  0  0  0  0  0  0  0  0  0
   12.8364   23.4875   -1.6828 C   0  0  0  0  0  0  0  0  0  0  0  0
   14.0350   24.1281   -1.8780 C   0  0  0  0  0  0  0  0  0  0  0  0
   14.8353   24.3037   -0.7852 N   0  0  0  0  0  0  0  0  0  0  0  0
   16.0129   24.8715   -0.6313 N   0  0  0  0  0  0  0  0  0  0  0  0
   16.3857   24.8015    0.6389 C   0  0  0  0  0  0  0  0  0  0  0  0
   15.4131   24.1698    1.3087 N   0  0  0  0  0  0  0  0  0  0  0  0
   14.4502   23.8623    0.4181 C   0  0  0  0  0  0  0  0  0  0  0  0
   13.2317   23.2044    0.6468 C   0  0  0  0  0  0  0  0  0  0  0  0
   14.3830   24.6066   -3.1901 C   0  0  0  0  0  0  0  0  0  0  0  0
   15.3032   23.8739   -3.9472 C   0  0  0  0  0  0  0  0  0  0  0  0
   15.6856   24.3086   -5.1971 C   0  0  0  0  0  0  0  0  0  0  0  0
   15.1945   25.4662   -5.7635 C   0  0  0  0  0  0  0  0  0  0  0  0
   14.2940   26.1756   -5.0128 C   0  0  0  0  0  0  0  0  0  0  0  0
   13.7970   27.3095   -5.5383 F   0  0  0  0  0  0  0  0  0  0  0  0
   13.8852   25.7595   -3.7369 C   0  0  0  0  0  0  0  0  0  0  0  0
   15.6107   25.9031   -7.0787 C   0  0  0  0  0  0  0  0  0  0  0  0
   15.9494   26.2411   -8.1251 N   0  0  0  0  0  0  0  0  0  0  0  0
   10.9887   20.9757   -0.3132 C   0  0  0  0  0  0  0  0  0  0  0  0
   11.8632   20.0943   -0.3365 O   0  0  0  0  0  0  0  0  0  0  0  0
   11.1648   22.3544   -0.3539 N   0  0  0  0  0  0  0  0  0  0  0  0
   10.2908   22.9517   -0.3222 H   0  0  0  0  0  0  0  0  0  0  0  0
    7.8661   19.6730   -1.9440 C   0  0  0  0  0  0  0  0  0  0  0  0
    8.7573   20.8083   -1.4613 C   0  0  0  0  0  0  0  0  0  0  0  0
    8.4610   21.4414   -0.1524 C   0  0  0  0  0  0  0  0  0  0  0  0
    9.5782   20.4526   -0.2302 C   0  0  0  0  0  0  0  0  0  0  0  0
 23 24  1  0  0  0
 24 25  1  0  0  0
 25 26  1  0  0  0
 26 19  1  0  0  0
 19 20  2  0  0  0
 19 21  1  0  0  0
 21  1  1  0  0  0
  1  2  1  0  0  0
  2  3  2  0  0  0
  3 10  1  0  0  0
 10 11  2  0  0  0
 11 12  1  0  0  0
 12 13  2  0  0  0
 13 17  1  0  0  0
 17 18  3  0  0  0
 13 14  1  0  0  0
 14 15  1  0  0  0
 14 16  2  0  0  0
  3  4  1  0  0  0
  4  5  1  0  0  0
  5  6  2  0  0  0
  6  7  1  0  0  0
  7  8  2  0  0  0
  8  9  1  0  0  0
 26 24  1  0  0  0
  9  1  2  0  0  0
 16 10  1  0  0  0
  8  4  1  0  0  0
 21 22  1  0  0  0
M  END
> <minimizedAffinity>
-7.15202

> <CNNscore>
0.5952368379

> <CNNaffinity>
7.3449158669

> <CNN_VS>
4.3719644547

> <CNNaffinity_variance>
0.3983164132

$$$$
[H]c1nc2c([H])c(N([H])C(=O)C3([H])C([H])([H])C3([H])C([H])([H])[H])c([H])c(-c3c([H])c([H])c(C#N)c(F)c3[H])n2n1


 26 29  0  0  0  0  0  0  0  0999 V2000
   11.2924   23.8553    1.0440 C   0  0  0  0  0  0  0  0  0  0  0  0
   11.8120   24.4122   -0.1245 C   0  0  0  0  0  0  0  0  0  0  0  0
   12.8606   23.8606   -0.8180 C   0  0  0  0  0  0  0  0  0  0  0  0
   13.4042   22.7111   -0.3193 N   0  0  0  0  0  0  0  0  0  0  0  0
   14.3991   21.9517   -0.7272 N   0  0  0  0  0  0  0  0  0  0  0  0
   14.5596   20.9320    0.1045 C   0  0  0  0  0  0  0  0  0  0  0  0
   13.6371   21.0508    1.0682 N   0  0  0  0  0  0  0  0  0  0  0  0
   12.9208   22.1597    0.8002 C   0  0  0  0  0  0  0  0  0  0  0  0
   11.8504   22.7012    1.5289 C   0  0  0  0  0  0  0  0  0  0  0  0
   13.3568   24.5142   -2.0005 C   0  0  0  0  0  0  0  0  0  0  0  0
   14.4453   23.9470   -2.6717 C   0  0  0  0  0  0  0  0  0  0  0  0
   14.9700   24.5526   -3.7921 C   0  0  0  0  0  0  0  0  0  0  0  0
   14.4642   25.7278   -4.3071 C   0  0  0  0  0  0  0  0  0  0  0  0
   13.3983   26.2741   -3.6415 C   0  0  0  0  0  0  0  0  0  0  0  0
   12.8828   27.4205   -4.1199 F   0  0  0  0  0  0  0  0  0  0  0  0
   12.8419   25.6819   -2.4979 C   0  0  0  0  0  0  0  0  0  0  0  0
   15.0319   26.3457   -5.4860 C   0  0  0  0  0  0  0  0  0  0  0  0
   15.4945   26.8346   -6.4193 N   0  0  0  0  0  0  0  0  0  0  0  0
    9.6453   24.1425    2.8966 C   0  0  0  0  0  0  0  0  0  0  0  0
   10.0038   23.2268    3.6550 O   0  0  0  0  0  0  0  0  0  0  0  0
   10.1940   24.4992    1.6696 N   0  0  0  0  0  0  0  0  0  0  0  0
    9.7500   25.3168    1.1640 H   0  0  0  0  0  0  0  0  0  0  0  0
    8.0018   27.4295    3.6725 C   0  0  0  0  0  0  0  0  0  0  0  0
    8.8997   26.2562    4.0375 C   0  0  0  0  0  0  0  0  0  0  0  0
    8.3415   25.1618    4.8697 C   0  0  0  0  0  0  0  0  0  0  0  0
    8.4716   24.9436    3.3975 C   0  0  0  0  0  0  0  0  0  0  0  0
 23 24  1  0  0  0
 24 25  1  0  0  0
 25 26  1  0  0  0
 26 19  1  0  0  0
 19 20  2  0  0  0
 19 21  1  0  0  0
 21  1  1  0  0  0
  1  2  1  0  0  0
  2  3  2  0  0  0
  3 10  1  0  0  0
 10 11  2  0  0  0
 11 12  1  0  0  0
 12 13  2  0  0  0
 13 17  1  0  0  0
 17 18  3  0  0  0
 13 14  1  0  0  0
 14 15  1  0  0  0
 14 16  2  0  0  0
  3  4  1  0  0  0
  4  5  1  0  0  0
  5  6  2  0  0  0
  6  7  1  0  0  0
  7  8  2  0  0  0
  8  9  1  0  0  0
 26 24  1  0  0  0
  9  1  2  0  0  0
 16 10  1  0  0  0
  8  4  1  0  0  0
 21 22  1  0  0  0
M  END
> <minimizedAffinity>
-10.03677

> <CNNscore>
0.5863578320

> <CNNaffinity>
6.9328918457

> <CNN_VS>
4.0651555061

> <CNNaffinity_variance>
0.0893544480

$$$$
[H]c1nc2c([H])c(N([H])C(=O)C3([H])C([H])([H])C3([H])C([H])([H])[H])c([H])c(-c3c([H])c([H])c(C#N)c(F)c3[H])n2n1


 26 29  0  0  0  0  0  0  0  0999 V2000
   12.1766   21.1731   -0.6157 C   0  0  0  0  0  0  0  0  0  0  0  0
   12.5781   22.1147   -1.5632 C   0  0  0  0  0  0  0  0  0  0  0  0
   13.7647   22.8008   -1.4845 C   0  0  0  0  0  0  0  0  0  0  0  0
   14.5736   22.5306   -0.4177 N   0  0  0  0  0  0  0  0  0  0  0  0
   15.7440   23.0077   -0.0498 N   0  0  0  0  0  0  0  0  0  0  0  0
   16.1310   22.4333    1.0805 C   0  0  0  0  0  0  0  0  0  0  0  0
   15.1750   21.5661    1.4382 N   0  0  0  0  0  0  0  0  0  0  0  0
   14.2078   21.6306    0.5028 C   0  0  0  0  0  0  0  0  0  0  0  0
   13.0017   20.9147    0.4477 C   0  0  0  0  0  0  0  0  0  0  0  0
   14.0918   23.7783   -2.4891 C   0  0  0  0  0  0  0  0  0  0  0  0
   13.4301   25.0106   -2.4641 C   0  0  0  0  0  0  0  0  0  0  0  0
   13.6921   25.9657   -3.4215 C   0  0  0  0  0  0  0  0  0  0  0  0
   14.6022   25.7679   -4.4387 C   0  0  0  0  0  0  0  0  0  0  0  0
   15.2440   24.5573   -4.4531 C   0  0  0  0  0  0  0  0  0  0  0  0
   16.1377   24.3346   -5.4332 F   0  0  0  0  0  0  0  0  0  0  0  0
   14.9989   23.5644   -3.4928 C   0  0  0  0  0  0  0  0  0  0  0  0
   14.8612   26.7863   -5.4334 C   0  0  0  0  0  0  0  0  0  0  0  0
   15.0663   27.5878   -6.2332 N   0  0  0  0  0  0  0  0  0  0  0  0
    9.7923   20.7099   -0.0430 C   0  0  0  0  0  0  0  0  0  0  0  0
    9.6397   21.4872    0.9134 O   0  0  0  0  0  0  0  0  0  0  0  0
   10.9376   20.5088   -0.8055 N   0  0  0  0  0  0  0  0  0  0  0  0
   10.8752   19.7984   -1.5884 H   0  0  0  0  0  0  0  0  0  0  0  0
    7.1236   19.6741   -2.4746 C   0  0  0  0  0  0  0  0  0  0  0  0
    7.6847   20.6075   -1.4116 C   0  0  0  0  0  0  0  0  0  0  0  0
    7.2308   20.4461   -0.0082 C   0  0  0  0  0  0  0  0  0  0  0  0
    8.5686   19.9033   -0.3924 C   0  0  0  0  0  0  0  0  0  0  0  0
 23 24  1  0  0  0
 24 25  1  0  0  0
 25 26  1  0  0  0
 26 19  1  0  0  0
 19 20  2  0  0  0
 19 21  1  0  0  0
 21  1  1  0  0  0
  1  2  1  0  0  0
  2  3  2  0  0  0
  3 10  1  0  0  0
 10 11  2  0  0  0
 11 12  1  0  0  0
 12 13  2  0  0  0
 13 17  1  0  0  0
 17 18  3  0  0  0
 13 14  1  0  0  0
 14 15  1  0  0  0
 14 16  2  0  0  0
  3  4  1  0  0  0
  4  5  1  0  0  0
  5  6  2  0  0  0
  6  7  1  0  0  0
  7  8  2  0  0  0
  8  9  1  0  0  0
 26 24  1  0  0  0
  9  1  2  0  0  0
 16 10  1  0  0  0
  8  4  1  0  0  0
 21 22  1  0  0  0
M  END
> <minimizedAffinity>
-6.74921

> <CNNscore>
0.5860780478

> <CNNaffinity>
7.3829717636

> <CNN_VS>
4.3269977570

> <CNNaffinity_variance>
0.5849800110

$$$$
[H]c1nc2c([H])c(N([H])C(=O)C3([H])C([H])([H])C3([H])C([H])([H])[H])c([H])c(-c3c([H])c([H])c(C#N)c(F)c3[H])n2n1


 26 29  0  0  0  0  0  0  0  0999 V2000
   12.0746   21.2546   -0.5977 C   0  0  0  0  0  0  0  0  0  0  0  0
   12.4490   22.2292   -1.5227 C   0  0  0  0  0  0  0  0  0  0  0  0
   13.6476   22.8963   -1.4675 C   0  0  0  0  0  0  0  0  0  0  0  0
   14.4971   22.5723   -0.4483 N   0  0  0  0  0  0  0  0  0  0  0  0
   15.6889   23.0190   -0.1121 N   0  0  0  0  0  0  0  0  0  0  0  0
   16.1153   22.3937    0.9763 C   0  0  0  0  0  0  0  0  0  0  0  0
   15.1630   21.5248    1.3393 N   0  0  0  0  0  0  0  0  0  0  0  0
   14.1578   21.6399    0.4499 C   0  0  0  0  0  0  0  0  0  0  0  0
   12.9404   20.9423    0.4178 C   0  0  0  0  0  0  0  0  0  0  0  0
   13.9458   23.9101   -2.4448 C   0  0  0  0  0  0  0  0  0  0  0  0
   14.9844   23.6790   -3.3531 C   0  0  0  0  0  0  0  0  0  0  0  0
   15.3219   24.6324   -4.2883 C   0  0  0  0  0  0  0  0  0  0  0  0
   14.6701   25.8442   -4.3824 C   0  0  0  0  0  0  0  0  0  0  0  0
   13.6549   26.0594   -3.4877 C   0  0  0  0  0  0  0  0  0  0  0  0
   13.0001   27.2323   -3.5546 F   0  0  0  0  0  0  0  0  0  0  0  0
   13.2877   25.1087   -2.5236 C   0  0  0  0  0  0  0  0  0  0  0  0
   15.0422   26.8306   -5.3735 C   0  0  0  0  0  0  0  0  0  0  0  0
   15.3482   27.6174   -6.1555 N   0  0  0  0  0  0  0  0  0  0  0  0
    9.6897   20.8497    0.0155 C   0  0  0  0  0  0  0  0  0  0  0  0
    9.5677   21.6424    0.9636 O   0  0  0  0  0  0  0  0  0  0  0  0
   10.8192   20.6144   -0.7608 N   0  0  0  0  0  0  0  0  0  0  0  0
   10.7302   19.8955   -1.5332 H   0  0  0  0  0  0  0  0  0  0  0  0
    7.1999   19.5022   -2.4528 C   0  0  0  0  0  0  0  0  0  0  0  0
    7.7277   20.5977   -1.5378 C   0  0  0  0  0  0  0  0  0  0  0  0
    7.1245   20.7556   -0.1913 C   0  0  0  0  0  0  0  0  0  0  0  0
    8.4443   20.0649   -0.3055 C   0  0  0  0  0  0  0  0  0  0  0  0
 23 24  1  0  0  0
 24 25  1  0  0  0
 25 26  1  0  0  0
 26 19  1  0  0  0
 19 20  2  0  0  0
 19 21  1  0  0  0
 21  1  1  0  0  0
  1  2  1  0  0  0
  2  3  2  0  0  0
  3 10  1  0  0  0
 10 11  2  0  0  0
 11 12  1  0  0  0
 12 13  2  0  0  0
 13 17  1  0  0  0
 17 18  3  0  0  0
 13 14  1  0  0  0
 14 15  1  0  0  0
 14 16  2  0  0  0
  3  4  1  0  0  0
  4  5  1  0  0  0
  5  6  2  0  0  0
  6  7  1  0  0  0
  7  8  2  0  0  0
  8  9  1  0  0  0
 26 24  1  0  0  0
  9  1  2  0  0  0
 16 10  1  0  0  0
  8  4  1  0  0  0
 21 22  1  0  0  0
M  END
> <minimizedAffinity>
-7.46182

> <CNNscore>
0.5849382877

> <CNNaffinity>
7.3874092102

> <CNN_VS>
4.3211784363

> <CNNaffinity_variance>
0.5468147993

$$$$
[H]c1nc2c([H])c(N([H])C(=O)C3([H])C([H])([H])C3([H])C([H])([H])[H])c([H])c(-c3c([H])c([H])c(C#N)c(F)c3[H])n2n1


 26 29  0  0  0  0  0  0  0  0999 V2000
   13.6443   24.3864   -1.7143 C   0  0  0  0  0  0  0  0  0  0  0  0
   14.3585   24.3611   -2.9122 C   0  0  0  0  0  0  0  0  0  0  0  0
   14.3742   25.4084   -3.7998 C   0  0  0  0  0  0  0  0  0  0  0  0
   13.6475   26.5172   -3.4714 N   0  0  0  0  0  0  0  0  0  0  0  0
   13.4484   27.6617   -4.0907 N   0  0  0  0  0  0  0  0  0  0  0  0
   12.6479   28.4329   -3.3685 C   0  0  0  0  0  0  0  0  0  0  0  0
   12.3310   27.7544   -2.2580 N   0  0  0  0  0  0  0  0  0  0  0  0
   12.9553   26.5627   -2.3270 C   0  0  0  0  0  0  0  0  0  0  0  0
   12.9214   25.5080   -1.4015 C   0  0  0  0  0  0  0  0  0  0  0  0
   15.1139   25.2911   -5.0290 C   0  0  0  0  0  0  0  0  0  0  0  0
   14.8635   26.2127   -6.0512 C   0  0  0  0  0  0  0  0  0  0  0  0
   15.5287   26.1224   -7.2540 C   0  0  0  0  0  0  0  0  0  0  0  0
   16.4605   25.1399   -7.5157 C   0  0  0  0  0  0  0  0  0  0  0  0
   16.6975   24.2429   -6.5073 C   0  0  0  0  0  0  0  0  0  0  0  0
   17.6014   23.2727   -6.7324 F   0  0  0  0  0  0  0  0  0  0  0  0
   16.0362   24.3080   -5.2717 C   0  0  0  0  0  0  0  0  0  0  0  0
   17.1473   25.0650   -8.7871 C   0  0  0  0  0  0  0  0  0  0  0  0
   17.6847   24.9981   -9.8024 N   0  0  0  0  0  0  0  0  0  0  0  0
   12.8826   23.0165    0.2274 C   0  0  0  0  0  0  0  0  0  0  0  0
   11.9495   23.7225    0.6435 O   0  0  0  0  0  0  0  0  0  0  0  0
   13.7136   23.2548   -0.8617 N   0  0  0  0  0  0  0  0  0  0  0  0
   14.4592   22.5308   -1.0648 H   0  0  0  0  0  0  0  0  0  0  0  0
   14.9014   19.9460    1.0043 C   0  0  0  0  0  0  0  0  0  0  0  0
   13.8346   20.6886    0.2129 C   0  0  0  0  0  0  0  0  0  0  0  0
   12.4111   20.5112    0.5922 C   0  0  0  0  0  0  0  0  0  0  0  0
   13.1141   21.7574    1.0219 C   0  0  0  0  0  0  0  0  0  0  0  0
 23 24  1  0  0  0
 24 25  1  0  0  0
 25 26  1  0  0  0
 26 19  1  0  0  0
 19 20  2  0  0  0
 19 21  1  0  0  0
 21  1  1  0  0  0
  1  2  1  0  0  0
  2  3  2  0  0  0
  3 10  1  0  0  0
 10 11  2  0  0  0
 11 12  1  0  0  0
 12 13  2  0  0  0
 13 17  1  0  0  0
 17 18  3  0  0  0
 13 14  1  0  0  0
 14 15  1  0  0  0
 14 16  2  0  0  0
  3  4  1  0  0  0
  4  5  1  0  0  0
  5  6  2  0  0  0
  6  7  1  0  0  0
  7  8  2  0  0  0
  8  9  1  0  0  0
 26 24  1  0  0  0
  9  1  2  0  0  0
 16 10  1  0  0  0
  8  4  1  0  0  0
 21 22  1  0  0  0
M  END
> <minimizedAffinity>
12.52033

> <CNNscore>
0.5778266788

> <CNNaffinity>
6.7382493019

> <CNN_VS>
3.8935401440

> <CNNaffinity_variance>
0.9953224063

$$$$
[H]c1nc2c([H])c(N([H])C(=O)C3([H])C([H])([H])C3([H])C([H])([H])[H])c([H])c(-c3c([H])c([H])c(C#N)c(F)c3[H])n2n1


 26 29  0  0  0  0  0  0  0  0999 V2000
   12.6173   25.3548   -2.7721 C   0  0  0  0  0  0  0  0  0  0  0  0
   13.4952   24.5746   -2.0197 C   0  0  0  0  0  0  0  0  0  0  0  0
   13.0912   23.7932   -0.9656 C   0  0  0  0  0  0  0  0  0  0  0  0
   11.7603   23.7972   -0.6585 N   0  0  0  0  0  0  0  0  0  0  0  0
   11.0642   23.1817    0.2740 N   0  0  0  0  0  0  0  0  0  0  0  0
    9.7844   23.5126    0.1748 C   0  0  0  0  0  0  0  0  0  0  0  0
    9.6681   24.3640   -0.8525 N   0  0  0  0  0  0  0  0  0  0  0  0
   10.9006   24.5382   -1.3676 C   0  0  0  0  0  0  0  0  0  0  0  0
   11.2853   25.3454   -2.4495 C   0  0  0  0  0  0  0  0  0  0  0  0
   14.0657   23.0396   -0.2211 C   0  0  0  0  0  0  0  0  0  0  0  0
   15.1190   23.7278    0.3904 C   0  0  0  0  0  0  0  0  0  0  0  0
   16.0889   23.0447    1.0904 C   0  0  0  0  0  0  0  0  0  0  0  0
   16.0791   21.6724    1.2268 C   0  0  0  0  0  0  0  0  0  0  0  0
   15.0429   21.0090    0.6237 C   0  0  0  0  0  0  0  0  0  0  0  0
   15.0057   19.6695    0.7391 F   0  0  0  0  0  0  0  0  0  0  0  0
   14.0403   21.6759   -0.0962 C   0  0  0  0  0  0  0  0  0  0  0  0
   17.1091   20.9763    1.9674 C   0  0  0  0  0  0  0  0  0  0  0  0
   17.9300   20.4327    2.5630 N   0  0  0  0  0  0  0  0  0  0  0  0
   14.4578   26.5398   -3.9702 C   0  0  0  0  0  0  0  0  0  0  0  0
   15.3965   26.3456   -3.1807 O   0  0  0  0  0  0  0  0  0  0  0  0
   13.1405   26.1102   -3.8528 N   0  0  0  0  0  0  0  0  0  0  0  0
   12.4774   26.3739   -4.6352 H   0  0  0  0  0  0  0  0  0  0  0  0
   15.8559   26.7714   -7.4486 C   0  0  0  0  0  0  0  0  0  0  0  0
   16.0140   26.7465   -5.9352 C   0  0  0  0  0  0  0  0  0  0  0  0
   16.1495   28.0341   -5.2102 C   0  0  0  0  0  0  0  0  0  0  0  0
   14.8263   27.3407   -5.1920 C   0  0  0  0  0  0  0  0  0  0  0  0
 23 24  1  0  0  0
 24 25  1  0  0  0
 25 26  1  0  0  0
 26 19  1  0  0  0
 19 20  2  0  0  0
 19 21  1  0  0  0
 21  1  1  0  0  0
  1  2  1  0  0  0
  2  3  2  0  0  0
  3 10  1  0  0  0
 10 11  2  0  0  0
 11 12  1  0  0  0
 12 13  2  0  0  0
 13 17  1  0  0  0
 17 18  3  0  0  0
 13 14  1  0  0  0
 14 15  1  0  0  0
 14 16  2  0  0  0
  3  4  1  0  0  0
  4  5  1  0  0  0
  5  6  2  0  0  0
  6  7  1  0  0  0
  7  8  2  0  0  0
  8  9  1  0  0  0
 26 24  1  0  0  0
  9  1  2  0  0  0
 16 10  1  0  0  0
  8  4  1  0  0  0
 21 22  1  0  0  0
M  END
> <minimizedAffinity>
4.97103

> <CNNscore>
0.5699821115

> <CNNaffinity>
7.2164978981

> <CNN_VS>
4.1132745743

> <CNNaffinity_variance>
1.0527993441

$$$$
[H]OC(=O)C([H])([H])N([H])C(=O)c1c(O[H])n(C2([H])C([H])([H])C([H])([H])C([H])([H])C([H])([H])C2([H])[H])c(=O)n(C2([H])C([H])([H])C([H])([H])C([H])([H])C([H])([H])C2([H])[H])c1=O


 31 33  0  0  0  0  0  0  0  0999 V2000
   11.3097   23.8931   -0.2598 C   0  0  0  0  0  0  0  0  0  0  0  0
   11.5690   24.3900   -1.5340 C   0  0  0  0  0  0  0  0  0  0  0  0
   10.4570   24.6561   -2.3623 O   0  0  0  0  0  0  0  0  0  0  0  0
   12.8171   24.6062   -1.9358 N   0  0  0  0  0  0  0  0  0  0  0  0
   13.8208   24.3256   -1.0470 C   0  0  0  0  0  0  0  0  0  0  0  0
   15.0038   24.5224   -1.3892 O   0  0  0  0  0  0  0  0  0  0  0  0
   13.6400   23.8516    0.1833 N   0  0  0  0  0  0  0  0  0  0  0  0
   12.3982   23.6315    0.5880 C   0  0  0  0  0  0  0  0  0  0  0  0
   12.2369   23.1775    1.7663 O   0  0  0  0  0  0  0  0  0  0  0  0
    9.9803   25.5628   -2.2663 H   0  0  0  0  0  0  0  0  0  0  0  0
   13.1611   25.0862   -3.2387 C   0  0  0  0  0  0  0  0  0  0  0  0
   13.1422   26.5998   -3.3192 C   0  0  0  0  0  0  0  0  0  0  0  0
   14.1733   27.0988   -4.2971 C   0  0  0  0  0  0  0  0  0  0  0  0
   15.5419   26.7862   -3.8239 C   0  0  0  0  0  0  0  0  0  0  0  0
   15.6410   25.3719   -3.3438 C   0  0  0  0  0  0  0  0  0  0  0  0
   14.4076   24.6477   -3.8935 C   0  0  0  0  0  0  0  0  0  0  0  0
   14.7994   23.5807    1.0647 C   0  0  0  0  0  0  0  0  0  0  0  0
   15.8591   24.5393    0.7359 C   0  0  0  0  0  0  0  0  0  0  0  0
   17.2361   23.9929    0.5543 C   0  0  0  0  0  0  0  0  0  0  0  0
   17.4205   22.7959    1.4615 C   0  0  0  0  0  0  0  0  0  0  0  0
   16.5064   21.7329    0.8718 C   0  0  0  0  0  0  0  0  0  0  0  0
   15.0772   22.1420    1.0263 C   0  0  0  0  0  0  0  0  0  0  0  0
    9.3184   23.9721    1.3929 N   0  0  0  0  0  0  0  0  0  0  0  0
    9.9826   23.5880    0.2290 C   0  0  0  0  0  0  0  0  0  0  0  0
    9.2895   22.8124   -0.5763 O   0  0  0  0  0  0  0  0  0  0  0  0
    9.7273   24.5895    2.0964 H   0  0  0  0  0  0  0  0  0  0  0  0
    7.9542   23.5278    1.6956 C   0  0  0  0  0  0  0  0  0  0  0  0
    8.5619   21.2759    2.4242 O   0  0  0  0  0  0  0  0  0  0  0  0
    7.9108   22.4780    2.7308 C   0  0  0  0  0  0  0  0  0  0  0  0
    7.3567   22.5581    3.8385 O   0  0  0  0  0  0  0  0  0  0  0  0
    9.2142   21.1751    1.6690 H   0  0  0  0  0  0  0  0  0  0  0  0
 28 29  1  0  0  0
 29 30  2  0  0  0
 29 27  1  0  0  0
 27 23  1  0  0  0
 23 24  1  0  0  0
 24 25  2  0  0  0
 24  1  1  0  0  0
  1  2  2  0  0  0
  2  3  1  0  0  0
  2  4  1  0  0  0
  4 11  1  0  0  0
 11 12  1  0  0  0
 12 13  1  0  0  0
 13 14  1  0  0  0
 14 15  1  0  0  0
 15 16  1  0  0  0
  4  5  1  0  0  0
  5  6  2  0  0  0
  5  7  1  0  0  0
  7 17  1  0  0  0
 17 18  1  0  0  0
 18 19  1  0  0  0
 19 20  1  0  0  0
 20 21  1  0  0  0
 21 22  1  0  0  0
  7  8  1  0  0  0
  8  9  2  0  0  0
  8  1  1  0  0  0
 16 11  1  0  0  0
 22 17  1  0  0  0
 28 31  1  0  0  0
 23 26  1  0  0  0
  3 10  1  0  0  0
M  END
> <minimizedAffinity>
-2.97436

> <CNNscore>
0.5970489383

> <CNNaffinity>
6.9308609962

> <CNN_VS>
4.1380634308

> <CNNaffinity_variance>
0.8548175693

$$$$
[H]OC(=O)C([H])([H])N([H])C(=O)c1c(O[H])n(C2([H])C([H])([H])C([H])([H])C([H])([H])C([H])([H])C2([H])[H])c(=O)n(C2([H])C([H])([H])C([H])([H])C([H])([H])C([H])([H])C2([H])[H])c1=O


 31 33  0  0  0  0  0  0  0  0999 V2000
   12.1815   24.2150   -0.8510 C   0  0  0  0  0  0  0  0  0  0  0  0
   12.4136   24.9229   -2.0269 C   0  0  0  0  0  0  0  0  0  0  0  0
   11.4221   25.8418   -2.4343 O   0  0  0  0  0  0  0  0  0  0  0  0
   13.5308   24.7349   -2.7216 N   0  0  0  0  0  0  0  0  0  0  0  0
   14.4318   23.8284   -2.2291 C   0  0  0  0  0  0  0  0  0  0  0  0
   15.4938   23.6317   -2.8528 O   0  0  0  0  0  0  0  0  0  0  0  0
   14.2711   23.1224   -1.1126 N   0  0  0  0  0  0  0  0  0  0  0  0
   13.1581   23.3036   -0.4178 C   0  0  0  0  0  0  0  0  0  0  0  0
   13.0144   22.6226    0.6481 O   0  0  0  0  0  0  0  0  0  0  0  0
   11.4385   26.7897   -2.0344 H   0  0  0  0  0  0  0  0  0  0  0  0
   13.8240   25.4030   -3.9520 C   0  0  0  0  0  0  0  0  0  0  0  0
   13.5484   26.8919   -3.8796 C   0  0  0  0  0  0  0  0  0  0  0  0
   14.5060   27.6586   -4.7536 C   0  0  0  0  0  0  0  0  0  0  0  0
   15.8941   27.5304   -4.2522 C   0  0  0  0  0  0  0  0  0  0  0  0
   16.2203   26.1092   -3.9136 C   0  0  0  0  0  0  0  0  0  0  0  0
   15.1451   25.2523   -4.5899 C   0  0  0  0  0  0  0  0  0  0  0  0
   15.3110   22.1646   -0.6700 C   0  0  0  0  0  0  0  0  0  0  0  0
   14.6954   20.8385   -0.5591 C   0  0  0  0  0  0  0  0  0  0  0  0
   14.9750   20.0624    0.6848 C   0  0  0  0  0  0  0  0  0  0  0  0
   16.3629   20.4027    1.1827 C   0  0  0  0  0  0  0  0  0  0  0  0
   16.2515   21.8460    1.6494 C   0  0  0  0  0  0  0  0  0  0  0  0
   16.0083   22.7457    0.4809 C   0  0  0  0  0  0  0  0  0  0  0  0
   10.7645   24.6750    1.2663 N   0  0  0  0  0  0  0  0  0  0  0  0
   10.9700   24.3312   -0.0690 C   0  0  0  0  0  0  0  0  0  0  0  0
    9.8758   24.0652   -0.7491 O   0  0  0  0  0  0  0  0  0  0  0  0
   11.5205   24.9268    1.9052 H   0  0  0  0  0  0  0  0  0  0  0  0
    9.4260   24.7198    1.8634 C   0  0  0  0  0  0  0  0  0  0  0  0
    9.5049   26.2678    3.7526 O   0  0  0  0  0  0  0  0  0  0  0  0
    9.4573   24.9354    3.3223 C   0  0  0  0  0  0  0  0  0  0  0  0
    9.4456   24.0553    4.1974 O   0  0  0  0  0  0  0  0  0  0  0  0
    9.3027   27.0503    3.1586 H   0  0  0  0  0  0  0  0  0  0  0  0
 28 29  1  0  0  0
 29 30  2  0  0  0
 29 27  1  0  0  0
 27 23  1  0  0  0
 23 24  1  0  0  0
 24 25  2  0  0  0
 24  1  1  0  0  0
  1  2  2  0  0  0
  2  3  1  0  0  0
  2  4  1  0  0  0
  4 11  1  0  0  0
 11 12  1  0  0  0
 12 13  1  0  0  0
 13 14  1  0  0  0
 14 15  1  0  0  0
 15 16  1  0  0  0
  4  5  1  0  0  0
  5  6  2  0  0  0
  5  7  1  0  0  0
  7 17  1  0  0  0
 17 18  1  0  0  0
 18 19  1  0  0  0
 19 20  1  0  0  0
 20 21  1  0  0  0
 21 22  1  0  0  0
  7  8  1  0  0  0
  8  9  2  0  0  0
  8  1  1  0  0  0
 16 11  1  0  0  0
 22 17  1  0  0  0
 28 31  1  0  0  0
 23 26  1  0  0  0
  3 10  1  0  0  0
M  END
> <minimizedAffinity>
-3.47883

> <CNNscore>
0.5339240432

> <CNNaffinity>
6.8148550987

> <CNN_VS>
3.6386148930

> <CNNaffinity_variance>
0.7344086170

$$$$
[H]OC(=O)C([H])([H])N([H])C(=O)c1c(O[H])n(C2([H])C([H])([H])C([H])([H])C([H])([H])C([H])([H])C2([H])[H])c(=O)n(C2([H])C([H])([H])C([H])([H])C([H])([H])C([H])([H])C2([H])[H])c1=O


 31 33  0  0  0  0  0  0  0  0999 V2000
   11.5560   23.2605   -0.2254 C   0  0  0  0  0  0  0  0  0  0  0  0
   12.6403   23.2600    0.6475 C   0  0  0  0  0  0  0  0  0  0  0  0
   12.4424   22.6885    1.9233 O   0  0  0  0  0  0  0  0  0  0  0  0
   13.8087   23.7735    0.2769 N   0  0  0  0  0  0  0  0  0  0  0  0
   13.8945   24.2909   -0.9884 C   0  0  0  0  0  0  0  0  0  0  0  0
   14.9781   24.7755   -1.3711 O   0  0  0  0  0  0  0  0  0  0  0  0
   12.8981   24.3202   -1.8699 N   0  0  0  0  0  0  0  0  0  0  0  0
   11.7306   23.8124   -1.5049 C   0  0  0  0  0  0  0  0  0  0  0  0
   10.7842   23.8462   -2.3557 O   0  0  0  0  0  0  0  0  0  0  0  0
   12.5480   21.6702    2.0259 H   0  0  0  0  0  0  0  0  0  0  0  0
   14.9563   23.8348    1.1286 C   0  0  0  0  0  0  0  0  0  0  0  0
   15.8934   22.6617    0.9189 C   0  0  0  0  0  0  0  0  0  0  0  0
   17.3242   23.0682    1.1553 C   0  0  0  0  0  0  0  0  0  0  0  0
   17.7639   24.0580    0.1444 C   0  0  0  0  0  0  0  0  0  0  0  0
   16.7397   25.1332   -0.0444 C   0  0  0  0  0  0  0  0  0  0  0  0
   15.8002   25.0437    1.1627 C   0  0  0  0  0  0  0  0  0  0  0  0
   13.0990   24.9064   -3.2155 C   0  0  0  0  0  0  0  0  0  0  0  0
   14.3526   24.3787   -3.7629 C   0  0  0  0  0  0  0  0  0  0  0  0
   15.2954   25.3633   -4.3709 C   0  0  0  0  0  0  0  0  0  0  0  0
   14.5033   26.4938   -4.9907 C   0  0  0  0  0  0  0  0  0  0  0  0
   13.8998   27.2260   -3.8019 C   0  0  0  0  0  0  0  0  0  0  0  0
   12.8958   26.3548   -3.1187 C   0  0  0  0  0  0  0  0  0  0  0  0
    9.2720   23.2587    0.9935 N   0  0  0  0  0  0  0  0  0  0  0  0
   10.2429   22.7640    0.1240 C   0  0  0  0  0  0  0  0  0  0  0  0
    9.9183   21.6500   -0.4957 O   0  0  0  0  0  0  0  0  0  0  0  0
    9.3802   24.1251    1.5234 H   0  0  0  0  0  0  0  0  0  0  0  0
    7.9931   22.5738    1.2062 C   0  0  0  0  0  0  0  0  0  0  0  0
    9.0068   21.8242    3.2994 O   0  0  0  0  0  0  0  0  0  0  0  0
    8.0452   21.5935    2.3071 C   0  0  0  0  0  0  0  0  0  0  0  0
    7.3237   20.5918    2.4363 O   0  0  0  0  0  0  0  0  0  0  0  0
    9.4872   22.6972    3.4144 H   0  0  0  0  0  0  0  0  0  0  0  0
 28 29  1  0  0  0
 29 30  2  0  0  0
 29 27  1  0  0  0
 27 23  1  0  0  0
 23 24  1  0  0  0
 24 25  2  0  0  0
 24  1  1  0  0  0
  1  2  2  0  0  0
  2  3  1  0  0  0
  2  4  1  0  0  0
  4 11  1  0  0  0
 11 12  1  0  0  0
 12 13  1  0  0  0
 13 14  1  0  0  0
 14 15  1  0  0  0
 15 16  1  0  0  0
  4  5  1  0  0  0
  5  6  2  0  0  0
  5  7  1  0  0  0
  7 17  1  0  0  0
 17 18  1  0  0  0
 18 19  1  0  0  0
 19 20  1  0  0  0
 20 21  1  0  0  0
 21 22  1  0  0  0
  7  8  1  0  0  0
  8  9  2  0  0  0
  8  1  1  0  0  0
 16 11  1  0  0  0
 22 17  1  0  0  0
 28 31  1  0  0  0
 23 26  1  0  0  0
  3 10  1  0  0  0
M  END
> <minimizedAffinity>
-2.29209

> <CNNscore>
0.5336455703

> <CNNaffinity>
6.8579664230

> <CNN_VS>
3.6597235203

> <CNNaffinity_variance>
1.1788299084

$$$$
[H]OC(=O)C([H])([H])N([H])C(=O)c1c(O[H])n(C2([H])C([H])([H])C([H])([H])C([H])([H])C([H])([H])C2([H])[H])c(=O)n(C2([H])C([H])([H])C([H])([H])C([H])([H])C([H])([H])C2([H])[H])c1=O


 31 33  0  0  0  0  0  0  0  0999 V2000
   13.5266   24.3240   -1.5430 C   0  0  0  0  0  0  0  0  0  0  0  0
   13.6353   22.9887   -1.9209 C   0  0  0  0  0  0  0  0  0  0  0  0
   12.7489   22.0716   -1.3153 O   0  0  0  0  0  0  0  0  0  0  0  0
   14.5366   22.6106   -2.8213 N   0  0  0  0  0  0  0  0  0  0  0  0
   15.3380   23.5846   -3.3554 C   0  0  0  0  0  0  0  0  0  0  0  0
   16.1908   23.2658   -4.2077 O   0  0  0  0  0  0  0  0  0  0  0  0
   15.2834   24.8760   -3.0388 N   0  0  0  0  0  0  0  0  0  0  0  0
   14.3890   25.2580   -2.1398 C   0  0  0  0  0  0  0  0  0  0  0  0
   14.3459   26.4954   -1.8440 O   0  0  0  0  0  0  0  0  0  0  0  0
   11.8102   21.9568   -1.7207 H   0  0  0  0  0  0  0  0  0  0  0  0
   14.7259   21.2548   -3.2360 C   0  0  0  0  0  0  0  0  0  0  0  0
   13.4132   20.5191   -3.4193 C   0  0  0  0  0  0  0  0  0  0  0  0
   13.5216   19.4914   -4.5150 C   0  0  0  0  0  0  0  0  0  0  0  0
   13.7490   20.1424   -5.8263 C   0  0  0  0  0  0  0  0  0  0  0  0
   14.8059   21.1982   -5.7326 C   0  0  0  0  0  0  0  0  0  0  0  0
   15.5501   20.9411   -4.4181 C   0  0  0  0  0  0  0  0  0  0  0  0
   16.2007   25.8482   -3.6776 C   0  0  0  0  0  0  0  0  0  0  0  0
   16.9157   26.5677   -2.6188 C   0  0  0  0  0  0  0  0  0  0  0  0
   16.9861   28.0539   -2.7364 C   0  0  0  0  0  0  0  0  0  0  0  0
   17.0197   28.4366   -4.2001 C   0  0  0  0  0  0  0  0  0  0  0  0
   15.6342   28.0774   -4.7145 C   0  0  0  0  0  0  0  0  0  0  0  0
   15.4452   26.5950   -4.6874 C   0  0  0  0  0  0  0  0  0  0  0  0
   12.1551   24.2238    0.6504 N   0  0  0  0  0  0  0  0  0  0  0  0
   12.6041   24.8016   -0.5361 C   0  0  0  0  0  0  0  0  0  0  0  0
   12.1103   25.9928   -0.7959 O   0  0  0  0  0  0  0  0  0  0  0  0
   12.4712   23.3130    0.9876 H   0  0  0  0  0  0  0  0  0  0  0  0
   11.1926   24.8949    1.5298 C   0  0  0  0  0  0  0  0  0  0  0  0
    9.9846   22.7784    1.3495 O   0  0  0  0  0  0  0  0  0  0  0  0
    9.9371   24.1371    1.6880 C   0  0  0  0  0  0  0  0  0  0  0  0
    8.8515   24.5854    2.0892 O   0  0  0  0  0  0  0  0  0  0  0  0
   10.8385   22.2671    1.2251 H   0  0  0  0  0  0  0  0  0  0  0  0
 28 29  1  0  0  0
 29 30  2  0  0  0
 29 27  1  0  0  0
 27 23  1  0  0  0
 23 24  1  0  0  0
 24 25  2  0  0  0
 24  1  1  0  0  0
  1  2  2  0  0  0
  2  3  1  0  0  0
  2  4  1  0  0  0
  4 11  1  0  0  0
 11 12  1  0  0  0
 12 13  1  0  0  0
 13 14  1  0  0  0
 14 15  1  0  0  0
 15 16  1  0  0  0
  4  5  1  0  0  0
  5  6  2  0  0  0
  5  7  1  0  0  0
  7 17  1  0  0  0
 17 18  1  0  0  0
 18 19  1  0  0  0
 19 20  1  0  0  0
 20 21  1  0  0  0
 21 22  1  0  0  0
  7  8  1  0  0  0
  8  9  2  0  0  0
  8  1  1  0  0  0
 16 11  1  0  0  0
 22 17  1  0  0  0
 28 31  1  0  0  0
 23 26  1  0  0  0
  3 10  1  0  0  0
M  END
> <minimizedAffinity>
8.42507

> <CNNscore>
0.5269334912

> <CNNaffinity>
6.6490502357

> <CNN_VS>
3.5036072731

> <CNNaffinity_variance>
1.6999461651

$$$$
[H]OC(=O)C([H])([H])N([H])C(=O)c1c(O[H])n(C2([H])C([H])([H])C([H])([H])C([H])([H])C([H])([H])C2([H])[H])c(=O)n(C2([H])C([H])([H])C([H])([H])C([H])([H])C([H])([H])C2([H])[H])c1=O


 31 33  0  0  0  0  0  0  0  0999 V2000
   11.3652   24.1726    0.3136 C   0  0  0  0  0  0  0  0  0  0  0  0
   11.7446   22.8438    0.1463 C   0  0  0  0  0  0  0  0  0  0  0  0
   11.0077   21.8677    0.8518 O   0  0  0  0  0  0  0  0  0  0  0  0
   12.7562   22.5237   -0.6539 N   0  0  0  0  0  0  0  0  0  0  0  0
   13.3945   23.5487   -1.3004 C   0  0  0  0  0  0  0  0  0  0  0  0
   14.3445   23.2835   -2.0637 O   0  0  0  0  0  0  0  0  0  0  0  0
   13.0803   24.8366   -1.1851 N   0  0  0  0  0  0  0  0  0  0  0  0
   12.0748   25.1617   -0.3867 C   0  0  0  0  0  0  0  0  0  0  0  0
   11.7832   26.3965   -0.2833 O   0  0  0  0  0  0  0  0  0  0  0  0
   10.1347   21.5170    0.4353 H   0  0  0  0  0  0  0  0  0  0  0  0
   13.2208   21.1853   -0.8516 C   0  0  0  0  0  0  0  0  0  0  0  0
   14.6814   21.1354   -1.2541 C   0  0  0  0  0  0  0  0  0  0  0  0
   15.3428   19.8907   -0.7234 C   0  0  0  0  0  0  0  0  0  0  0  0
   15.3838   19.9071    0.7574 C   0  0  0  0  0  0  0  0  0  0  0  0
   14.0628   20.3127    1.3329 C   0  0  0  0  0  0  0  0  0  0  0  0
   13.0415   20.1671    0.2001 C   0  0  0  0  0  0  0  0  0  0  0  0
   13.8394   25.8675   -1.9306 C   0  0  0  0  0  0  0  0  0  0  0  0
   13.2570   25.9856   -3.2710 C   0  0  0  0  0  0  0  0  0  0  0  0
   14.2044   25.9911   -4.4244 C   0  0  0  0  0  0  0  0  0  0  0  0
   15.5034   26.6400   -3.9988 C   0  0  0  0  0  0  0  0  0  0  0  0
   16.1096   25.6552   -3.0107 C   0  0  0  0  0  0  0  0  0  0  0  0
   15.2691   25.5835   -1.7769 C   0  0  0  0  0  0  0  0  0  0  0  0
   10.3424   25.3145    2.3998 N   0  0  0  0  0  0  0  0  0  0  0  0
   10.3075   24.6003    1.2031 C   0  0  0  0  0  0  0  0  0  0  0  0
    9.1054   24.2494    0.8001 O   0  0  0  0  0  0  0  0  0  0  0  0
   11.2039   25.6686    2.8188 H   0  0  0  0  0  0  0  0  0  0  0  0
    9.1260   25.6336    3.1539 C   0  0  0  0  0  0  0  0  0  0  0  0
    9.5484   23.5414    4.3436 O   0  0  0  0  0  0  0  0  0  0  0  0
    8.9819   24.8223    4.3773 C   0  0  0  0  0  0  0  0  0  0  0  0
    8.4111   25.1642    5.4250 O   0  0  0  0  0  0  0  0  0  0  0  0
   10.2078   23.2443    3.6487 H   0  0  0  0  0  0  0  0  0  0  0  0
 28 29  1  0  0  0
 29 30  2  0  0  0
 29 27  1  0  0  0
 27 23  1  0  0  0
 23 24  1  0  0  0
 24 25  2  0  0  0
 24  1  1  0  0  0
  1  2  2  0  0  0
  2  3  1  0  0  0
  2  4  1  0  0  0
  4 11  1  0  0  0
 11 12  1  0  0  0
 12 13  1  0  0  0
 13 14  1  0  0  0
 14 15  1  0  0  0
 15 16  1  0  0  0
  4  5  1  0  0  0
  5  6  2  0  0  0
  5  7  1  0  0  0
  7 17  1  0  0  0
 17 18  1  0  0  0
 18 19  1  0  0  0
 19 20  1  0  0  0
 20 21  1  0  0  0
 21 22  1  0  0  0
  7  8  1  0  0  0
  8  9  2  0  0  0
  8  1  1  0  0  0
 16 11  1  0  0  0
 22 17  1  0  0  0
 28 31  1  0  0  0
 23 26  1  0  0  0
  3 10  1  0  0  0
M  END
> <minimizedAffinity>
-2.58827

> <CNNscore>
0.5123786330

> <CNNaffinity>
6.5726499557

> <CNN_VS>
3.3676853180

> <CNNaffinity_variance>
0.7406568527

$$$$
[H]OC(=O)C([H])([H])N([H])C(=O)c1c(O[H])n(C2([H])C([H])([H])C([H])([H])C([H])([H])C([H])([H])C2([H])[H])c(=O)n(C2([H])C([H])([H])C([H])([H])C([H])([H])C([H])([H])C2([H])[H])c1=O


 31 33  0  0  0  0  0  0  0  0999 V2000
   12.9915   25.1773   -2.0691 C   0  0  0  0  0  0  0  0  0  0  0  0
   13.9874   24.8860   -1.1412 C   0  0  0  0  0  0  0  0  0  0  0  0
   15.2909   25.3476   -1.4260 O   0  0  0  0  0  0  0  0  0  0  0  0
   13.7045   24.2067   -0.0345 N   0  0  0  0  0  0  0  0  0  0  0  0
   12.4041   23.8175    0.1487 C   0  0  0  0  0  0  0  0  0  0  0  0
   12.1023   23.1834    1.1793 O   0  0  0  0  0  0  0  0  0  0  0  0
   11.4072   24.0654   -0.6972 N   0  0  0  0  0  0  0  0  0  0  0  0
   11.6839   24.7395   -1.8032 C   0  0  0  0  0  0  0  0  0  0  0  0
   10.7229   24.9705   -2.6055 O   0  0  0  0  0  0  0  0  0  0  0  0
   15.5367   26.3124   -1.1664 H   0  0  0  0  0  0  0  0  0  0  0  0
   14.6796   23.8454    0.9478 C   0  0  0  0  0  0  0  0  0  0  0  0
   15.4407   22.5899    0.5705 C   0  0  0  0  0  0  0  0  0  0  0  0
   16.8539   22.6421    1.0888 C   0  0  0  0  0  0  0  0  0  0  0  0
   17.6157   23.7293    0.4313 C   0  0  0  0  0  0  0  0  0  0  0  0
   16.8245   24.9993    0.3905 C   0  0  0  0  0  0  0  0  0  0  0  0
   15.6854   24.8245    1.4003 C   0  0  0  0  0  0  0  0  0  0  0  0
   10.0335   23.5961   -0.4017 C   0  0  0  0  0  0  0  0  0  0  0  0
    9.6130   24.1834    0.8743 C   0  0  0  0  0  0  0  0  0  0  0  0
    8.9876   23.2649    1.8708 C   0  0  0  0  0  0  0  0  0  0  0  0
    8.2271   22.1801    1.1397 C   0  0  0  0  0  0  0  0  0  0  0  0
    9.3104   21.3438    0.4758 C   0  0  0  0  0  0  0  0  0  0  0  0
    9.9973   22.1422   -0.5847 C   0  0  0  0  0  0  0  0  0  0  0  0
   14.1567   25.6374   -4.3347 N   0  0  0  0  0  0  0  0  0  0  0  0
   13.2330   25.8690   -3.3165 C   0  0  0  0  0  0  0  0  0  0  0  0
   12.4326   26.8939   -3.5148 O   0  0  0  0  0  0  0  0  0  0  0  0
   14.8242   24.8644   -4.3237 H   0  0  0  0  0  0  0  0  0  0  0  0
   14.2328   26.4871   -5.5273 C   0  0  0  0  0  0  0  0  0  0  0  0
   16.0964   26.7665   -7.0830 O   0  0  0  0  0  0  0  0  0  0  0  0
   15.5972   26.9812   -5.7917 C   0  0  0  0  0  0  0  0  0  0  0  0
   16.3388   27.5642   -4.9851 O   0  0  0  0  0  0  0  0  0  0  0  0
   15.5224   26.5083   -7.8640 H   0  0  0  0  0  0  0  0  0  0  0  0
 28 29  1  0  0  0
 29 30  2  0  0  0
 29 27  1  0  0  0
 27 23  1  0  0  0
 23 24  1  0  0  0
 24 25  2  0  0  0
 24  1  1  0  0  0
  1  2  2  0  0  0
  2  3  1  0  0  0
  2  4  1  0  0  0
  4 11  1  0  0  0
 11 12  1  0  0  0
 12 13  1  0  0  0
 13 14  1  0  0  0
 14 15  1  0  0  0
 15 16  1  0  0  0
  4  5  1  0  0  0
  5  6  2  0  0  0
  5  7  1  0  0  0
  7 17  1  0  0  0
 17 18  1  0  0  0
 18 19  1  0  0  0
 19 20  1  0  0  0
 20 21  1  0  0  0
 21 22  1  0  0  0
  7  8  1  0  0  0
  8  9  2  0  0  0
  8  1  1  0  0  0
 16 11  1  0  0  0
 22 17  1  0  0  0
 28 31  1  0  0  0
 23 26  1  0  0  0
  3 10  1  0  0  0
M  END
> <minimizedAffinity>
-2.50484

> <CNNscore>
0.4955173433

> <CNNaffinity>
6.8512039185

> <CNN_VS>
3.3948903084

> <CNNaffinity_variance>
1.2112777233

$$$$
[H]OC(=O)C([H])([H])N([H])C(=O)c1c(O[H])n(C2([H])C([H])([H])C([H])([H])C([H])([H])C([H])([H])C2([H])[H])c(=O)n(C2([H])C([H])([H])C([H])([H])C([H])([H])C([H])([H])C2([H])[H])c1=O


 31 33  0  0  0  0  0  0  0  0999 V2000
   12.8129   24.7774   -2.2602 C   0  0  0  0  0  0  0  0  0  0  0  0
   11.5892   24.3731   -1.7341 C   0  0  0  0  0  0  0  0  0  0  0  0
   10.4454   25.1033   -2.1239 O   0  0  0  0  0  0  0  0  0  0  0  0
   11.5171   23.3360   -0.9062 N   0  0  0  0  0  0  0  0  0  0  0  0
   12.6870   22.6906   -0.6044 C   0  0  0  0  0  0  0  0  0  0  0  0
   12.6550   21.7095    0.1648 O   0  0  0  0  0  0  0  0  0  0  0  0
   13.8862   23.0253   -1.0742 N   0  0  0  0  0  0  0  0  0  0  0  0
   13.9643   24.0599   -1.8974 C   0  0  0  0  0  0  0  0  0  0  0  0
   15.1163   24.3717   -2.3403 O   0  0  0  0  0  0  0  0  0  0  0  0
    9.9813   24.8523   -3.0072 H   0  0  0  0  0  0  0  0  0  0  0  0
   10.3015   22.8822   -0.3041 C   0  0  0  0  0  0  0  0  0  0  0  0
   10.4046   21.4561    0.1993 C   0  0  0  0  0  0  0  0  0  0  0  0
    9.5484   21.2547    1.4220 C   0  0  0  0  0  0  0  0  0  0  0  0
   10.0494   22.0674    2.5548 C   0  0  0  0  0  0  0  0  0  0  0  0
   10.3586   23.4673    2.1242 C   0  0  0  0  0  0  0  0  0  0  0  0
    9.6627   23.6612    0.7730 C   0  0  0  0  0  0  0  0  0  0  0  0
   15.0909   22.2580   -0.6811 C   0  0  0  0  0  0  0  0  0  0  0  0
   14.7247   20.8406   -0.5981 C   0  0  0  0  0  0  0  0  0  0  0  0
   15.1688   20.0949    0.6162 C   0  0  0  0  0  0  0  0  0  0  0  0
   16.4855   20.6650    1.0968 C   0  0  0  0  0  0  0  0  0  0  0  0
   16.1299   22.0524    1.6088 C   0  0  0  0  0  0  0  0  0  0  0  0
   15.7014   22.9242    0.4730 C   0  0  0  0  0  0  0  0  0  0  0  0
   12.5311   27.2400   -3.0077 N   0  0  0  0  0  0  0  0  0  0  0  0
   12.9753   25.9240   -3.1274 C   0  0  0  0  0  0  0  0  0  0  0  0
   13.6674   25.6678   -4.2163 O   0  0  0  0  0  0  0  0  0  0  0  0
   12.0021   27.5845   -2.2048 H   0  0  0  0  0  0  0  0  0  0  0  0
   12.8071   28.2528   -4.0315 C   0  0  0  0  0  0  0  0  0  0  0  0
   10.5558   28.8016   -4.8074 O   0  0  0  0  0  0  0  0  0  0  0  0
   11.7208   29.2416   -4.1655 C   0  0  0  0  0  0  0  0  0  0  0  0
   11.7410   30.4168   -3.7668 O   0  0  0  0  0  0  0  0  0  0  0  0
   10.3448   27.8351   -4.9730 H   0  0  0  0  0  0  0  0  0  0  0  0
 28 29  1  0  0  0
 29 30  2  0  0  0
 29 27  1  0  0  0
 27 23  1  0  0  0
 23 24  1  0  0  0
 24 25  2  0  0  0
 24  1  1  0  0  0
  1  2  2  0  0  0
  2  3  1  0  0  0
  2  4  1  0  0  0
  4 11  1  0  0  0
 11 12  1  0  0  0
 12 13  1  0  0  0
 13 14  1  0  0  0
 14 15  1  0  0  0
 15 16  1  0  0  0
  4  5  1  0  0  0
  5  6  2  0  0  0
  5  7  1  0  0  0
  7 17  1  0  0  0
 17 18  1  0  0  0
 18 19  1  0  0  0
 19 20  1  0  0  0
 20 21  1  0  0  0
 21 22  1  0  0  0
  7  8  1  0  0  0
  8  9  2  0  0  0
  8  1  1  0  0  0
 16 11  1  0  0  0
 22 17  1  0  0  0
 28 31  1  0  0  0
 23 26  1  0  0  0
  3 10  1  0  0  0
M  END
> <minimizedAffinity>
3.37918

> <CNNscore>
0.4704463780

> <CNNaffinity>
6.5679616928

> <CNN_VS>
3.0898737907

> <CNNaffinity_variance>
1.2683470249

$$$$
[H]OC(=O)C([H])([H])N([H])C(=O)c1c(O[H])n(C2([H])C([H])([H])C([H])([H])C([H])([H])C([H])([H])C2([H])[H])c(=O)n(C2([H])C([H])([H])C([H])([H])C([H])([H])C([H])([H])C2([H])[H])c1=O


 31 33  0  0  0  0  0  0  0  0999 V2000
   11.1501   23.8030    0.0778 C   0  0  0  0  0  0  0  0  0  0  0  0
   11.5554   24.3254   -1.1472 C   0  0  0  0  0  0  0  0  0  0  0  0
   10.6359   25.1466   -1.8354 O   0  0  0  0  0  0  0  0  0  0  0  0
   12.7639   24.0584   -1.6311 N   0  0  0  0  0  0  0  0  0  0  0  0
   13.5812   23.2605   -0.8751 C   0  0  0  0  0  0  0  0  0  0  0  0
   14.7245   22.9945   -1.2964 O   0  0  0  0  0  0  0  0  0  0  0  0
   13.2552   22.7323    0.3021 N   0  0  0  0  0  0  0  0  0  0  0  0
   12.0509   22.9928    0.7878 C   0  0  0  0  0  0  0  0  0  0  0  0
   11.7494   22.4819    1.9142 O   0  0  0  0  0  0  0  0  0  0  0  0
   10.5923   26.1451   -1.5910 H   0  0  0  0  0  0  0  0  0  0  0  0
   13.2378   24.5345   -2.8940 C   0  0  0  0  0  0  0  0  0  0  0  0
   13.0500   26.0303   -3.0537 C   0  0  0  0  0  0  0  0  0  0  0  0
   14.1478   26.6225   -3.8979 C   0  0  0  0  0  0  0  0  0  0  0  0
   15.4584   26.5006   -3.2179 C   0  0  0  0  0  0  0  0  0  0  0  0
   15.6535   25.1267   -2.6568 C   0  0  0  0  0  0  0  0  0  0  0  0
   14.6113   24.2352   -3.3400 C   0  0  0  0  0  0  0  0  0  0  0  0
   14.2173   21.8793    1.0379 C   0  0  0  0  0  0  0  0  0  0  0  0
   15.4364   22.6597    1.2714 C   0  0  0  0  0  0  0  0  0  0  0  0
   16.7367   21.9976    0.9574 C   0  0  0  0  0  0  0  0  0  0  0  0
   16.6134   20.5114    1.2138 C   0  0  0  0  0  0  0  0  0  0  0  0
   15.6633   20.0208    0.1320 C   0  0  0  0  0  0  0  0  0  0  0  0
   14.2973   20.5851    0.3545 C   0  0  0  0  0  0  0  0  0  0  0  0
    9.4334   24.5122    1.8812 N   0  0  0  0  0  0  0  0  0  0  0  0
    9.8351   24.0104    0.6442 C   0  0  0  0  0  0  0  0  0  0  0  0
    8.8538   23.6624   -0.1597 O   0  0  0  0  0  0  0  0  0  0  0  0
   10.0868   24.8405    2.5943 H   0  0  0  0  0  0  0  0  0  0  0  0
    8.0202   24.6263    2.2553 C   0  0  0  0  0  0  0  0  0  0  0  0
    7.7475   26.1388    4.1552 O   0  0  0  0  0  0  0  0  0  0  0  0
    7.8257   24.8143    3.7053 C   0  0  0  0  0  0  0  0  0  0  0  0
    7.7255   23.9175    4.5575 O   0  0  0  0  0  0  0  0  0  0  0  0
    7.5993   26.9232    3.5479 H   0  0  0  0  0  0  0  0  0  0  0  0
 28 29  1  0  0  0
 29 30  2  0  0  0
 29 27  1  0  0  0
 27 23  1  0  0  0
 23 24  1  0  0  0
 24 25  2  0  0  0
 24  1  1  0  0  0
  1  2  2  0  0  0
  2  3  1  0  0  0
  2  4  1  0  0  0
  4 11  1  0  0  0
 11 12  1  0  0  0
 12 13  1  0  0  0
 13 14  1  0  0  0
 14 15  1  0  0  0
 15 16  1  0  0  0
  4  5  1  0  0  0
  5  6  2  0  0  0
  5  7  1  0  0  0
  7 17  1  0  0  0
 17 18  1  0  0  0
 18 19  1  0  0  0
 19 20  1  0  0  0
 20 21  1  0  0  0
 21 22  1  0  0  0
  7  8  1  0  0  0
  8  9  2  0  0  0
  8  1  1  0  0  0
 16 11  1  0  0  0
 22 17  1  0  0  0
 28 31  1  0  0  0
 23 26  1  0  0  0
  3 10  1  0  0  0
M  END
> <minimizedAffinity>
-2.24353

> <CNNscore>
0.4614735246

> <CNNaffinity>
6.5874338150

> <CNN_VS>
3.0399262905

> <CNNaffinity_variance>
0.6219808459

$$$$
[H]OC(=O)C([H])([H])N([H])C(=O)c1c(O[H])n(C2([H])C([H])([H])C([H])([H])C([H])([H])C([H])([H])C2([H])[H])c(=O)n(C2([H])C([H])([H])C([H])([H])C([H])([H])C([H])([H])C2([H])[H])c1=O


 31 33  0  0  0  0  0  0  0  0999 V2000
   12.1052   24.2978   -1.2612 C   0  0  0  0  0  0  0  0  0  0  0  0
   12.4931   25.3371   -2.1020 C   0  0  0  0  0  0  0  0  0  0  0  0
   11.4936   26.2494   -2.5050 O   0  0  0  0  0  0  0  0  0  0  0  0
   13.7574   25.4556   -2.4939 N   0  0  0  0  0  0  0  0  0  0  0  0
   14.6480   24.5226   -2.0331 C   0  0  0  0  0  0  0  0  0  0  0  0
   15.8440   24.6073   -2.3764 O   0  0  0  0  0  0  0  0  0  0  0  0
   14.3422   23.5084   -1.2277 N   0  0  0  0  0  0  0  0  0  0  0  0
   13.0830   23.3838   -0.8363 C   0  0  0  0  0  0  0  0  0  0  0  0
   12.8015   22.4097   -0.0665 O   0  0  0  0  0  0  0  0  0  0  0  0
   11.2673   27.0355   -1.8809 H   0  0  0  0  0  0  0  0  0  0  0  0
   14.2229   26.4783   -3.3791 C   0  0  0  0  0  0  0  0  0  0  0  0
   15.7147   26.7159   -3.2521 C   0  0  0  0  0  0  0  0  0  0  0  0
   16.3074   27.1290   -4.5736 C   0  0  0  0  0  0  0  0  0  0  0  0
   16.2064   26.0302   -5.5621 C   0  0  0  0  0  0  0  0  0  0  0  0
   14.8413   25.4161   -5.5543 C   0  0  0  0  0  0  0  0  0  0  0  0
   13.9316   26.4088   -4.8231 C   0  0  0  0  0  0  0  0  0  0  0  0
   15.3858   22.5528   -0.7892 C   0  0  0  0  0  0  0  0  0  0  0  0
   14.8504   21.1947   -0.9260 C   0  0  0  0  0  0  0  0  0  0  0  0
   15.0372   20.2717    0.2320 C   0  0  0  0  0  0  0  0  0  0  0  0
   16.3338   20.6104    0.9347 C   0  0  0  0  0  0  0  0  0  0  0  0
   16.0750   21.9695    1.5667 C   0  0  0  0  0  0  0  0  0  0  0  0
   15.9077   23.0064    0.5033 C   0  0  0  0  0  0  0  0  0  0  0  0
   10.1854   23.9390    0.4383 N   0  0  0  0  0  0  0  0  0  0  0  0
   10.7411   24.0773   -0.8327 C   0  0  0  0  0  0  0  0  0  0  0  0
    9.8827   23.9972   -1.8263 O   0  0  0  0  0  0  0  0  0  0  0  0
   10.7299   24.0013    1.3003 H   0  0  0  0  0  0  0  0  0  0  0  0
    8.7520   23.7069    0.6423 C   0  0  0  0  0  0  0  0  0  0  0  0
    8.3720   21.5530   -0.4473 O   0  0  0  0  0  0  0  0  0  0  0  0
    8.4142   22.2754    0.7523 C   0  0  0  0  0  0  0  0  0  0  0  0
    8.1657   21.6554    1.7984 O   0  0  0  0  0  0  0  0  0  0  0  0
    8.7588   21.8873   -1.3102 H   0  0  0  0  0  0  0  0  0  0  0  0
 28 29  1  0  0  0
 29 30  2  0  0  0
 29 27  1  0  0  0
 27 23  1  0  0  0
 23 24  1  0  0  0
 24 25  2  0  0  0
 24  1  1  0  0  0
  1  2  2  0  0  0
  2  3  1  0  0  0
  2  4  1  0  0  0
  4 11  1  0  0  0
 11 12  1  0  0  0
 12 13  1  0  0  0
 13 14  1  0  0  0
 14 15  1  0  0  0
 15 16  1  0  0  0
  4  5  1  0  0  0
  5  6  2  0  0  0
  5  7  1  0  0  0
  7 17  1  0  0  0
 17 18  1  0  0  0
 18 19  1  0  0  0
 19 20  1  0  0  0
 20 21  1  0  0  0
 21 22  1  0  0  0
  7  8  1  0  0  0
  8  9  2  0  0  0
  8  1  1  0  0  0
 16 11  1  0  0  0
 22 17  1  0  0  0
 28 31  1  0  0  0
 23 26  1  0  0  0
  3 10  1  0  0  0
M  END
> <minimizedAffinity>
-2.45311

> <CNNscore>
0.4582900107

> <CNNaffinity>
6.8619031906

> <CNN_VS>
3.1447417736

> <CNNaffinity_variance>
1.0305392742

$$$$
[H]c1nc2c([H])c(N([H])C(=O)C([H])([H])[H])c([H])c(-c3c([H])nc(C#N)c([H])c3C([H])([H])[H])n2n1


 23 25  0  0  0  0  0  0  0  0999 V2000
   15.1316   25.4779   -3.1921 C   0  0  0  0  0  0  0  0  0  0  0  0
   13.9879   24.7198   -2.8403 C   0  0  0  0  0  0  0  0  0  0  0  0
   13.8440   24.0682   -1.6580 C   0  0  0  0  0  0  0  0  0  0  0  0
   14.8576   24.1578   -0.7792 N   0  0  0  0  0  0  0  0  0  0  0  0
   15.0369   23.6531    0.4478 N   0  0  0  0  0  0  0  0  0  0  0  0
   16.2154   24.0150    0.9488 C   0  0  0  0  0  0  0  0  0  0  0  0
   16.8064   24.7796   -0.0015 N   0  0  0  0  0  0  0  0  0  0  0  0
   15.9688   24.8583   -1.0475 C   0  0  0  0  0  0  0  0  0  0  0  0
   16.1276   25.5286   -2.2519 C   0  0  0  0  0  0  0  0  0  0  0  0
   12.6668   23.2932   -1.2892 C   0  0  0  0  0  0  0  0  0  0  0  0
   11.5151   23.9634   -0.9357 C   0  0  0  0  0  0  0  0  0  0  0  0
   10.4085   23.2680   -0.5877 N   0  0  0  0  0  0  0  0  0  0  0  0
   10.3637   21.9315   -0.5649 C   0  0  0  0  0  0  0  0  0  0  0  0
   11.5269   21.2522   -0.9221 C   0  0  0  0  0  0  0  0  0  0  0  0
   12.6702   21.9225   -1.2816 C   0  0  0  0  0  0  0  0  0  0  0  0
   13.9152   21.2276   -1.6667 C   0  0  0  0  0  0  0  0  0  0  0  0
    9.1808   21.2131   -0.1930 C   0  0  0  0  0  0  0  0  0  0  0  0
    8.2317   20.6240    0.1234 N   0  0  0  0  0  0  0  0  0  0  0  0
   15.4478   25.6447   -6.8321 C   0  0  0  0  0  0  0  0  0  0  0  0
   15.2448   26.6070   -5.6450 C   0  0  0  0  0  0  0  0  0  0  0  0
   15.1635   27.8141   -6.0578 O   0  0  0  0  0  0  0  0  0  0  0  0
   15.1896   26.0559   -4.4477 N   0  0  0  0  0  0  0  0  0  0  0  0
   14.8182   27.2660   -3.9141 H   0  0  0  0  0  0  0  0  0  0  0  0
 19 20  1  0  0  0
 20 21  2  0  0  0
 20 22  1  0  0  0
 22  1  1  0  0  0
  1  2  1  0  0  0
  2  3  2  0  0  0
  3 10  1  0  0  0
 10 11  2  0  0  0
 11 12  1  0  0  0
 12 13  2  0  0  0
 13 14  1  0  0  0
 14 15  2  0  0  0
 15 16  1  0  0  0
 13 17  1  0  0  0
 17 18  3  0  0  0
  3  4  1  0  0  0
  4  5  1  0  0  0
  5  6  2  0  0  0
  6  7  1  0  0  0
  7  8  2  0  0  0
  8  9  1  0  0  0
  9  1  2  0  0  0
 15 10  1  0  0  0
  8  4  1  0  0  0
 22 23  1  0  0  0
M  END
> <minimizedAffinity>
-7.38544

> <CNNscore>
0.8823863864

> <CNNaffinity>
7.5196485519

> <CNN_VS>
6.6352353096

> <CNNaffinity_variance>
0.1396716237

$$$$
[H]c1nc2c([H])c(N([H])C(=O)C([H])([H])[H])c([H])c(-c3c([H])nc(C#N)c([H])c3C([H])([H])[H])n2n1


 23 25  0  0  0  0  0  0  0  0999 V2000
   15.3919   25.5649   -3.1784 C   0  0  0  0  0  0  0  0  0  0  0  0
   14.2794   24.7275   -2.9181 C   0  0  0  0  0  0  0  0  0  0  0  0
   14.1182   24.0140   -1.7744 C   0  0  0  0  0  0  0  0  0  0  0  0
   15.0820   24.1196   -0.8429 N   0  0  0  0  0  0  0  0  0  0  0  0
   15.2323   23.5688    0.3681 N   0  0  0  0  0  0  0  0  0  0  0  0
   16.3623   23.9730    0.9430 C   0  0  0  0  0  0  0  0  0  0  0  0
   16.9517   24.8136    0.0582 N   0  0  0  0  0  0  0  0  0  0  0  0
   16.1614   24.8937   -1.0240 C   0  0  0  0  0  0  0  0  0  0  0  0
   16.3374   25.6278   -2.1882 C   0  0  0  0  0  0  0  0  0  0  0  0
   12.9726   23.1570   -1.4996 C   0  0  0  0  0  0  0  0  0  0  0  0
   13.1143   21.7933   -1.6438 C   0  0  0  0  0  0  0  0  0  0  0  0
   12.0660   20.9753   -1.3964 N   0  0  0  0  0  0  0  0  0  0  0  0
   10.8664   21.4228   -1.0099 C   0  0  0  0  0  0  0  0  0  0  0  0
   10.7213   22.8011   -0.8634 C   0  0  0  0  0  0  0  0  0  0  0  0
   11.7619   23.6641   -1.1048 C   0  0  0  0  0  0  0  0  0  0  0  0
   11.6360   25.1278   -0.9549 C   0  0  0  0  0  0  0  0  0  0  0  0
    9.7680   20.5392   -0.7527 C   0  0  0  0  0  0  0  0  0  0  0  0
    8.8774   19.8189   -0.5629 N   0  0  0  0  0  0  0  0  0  0  0  0
   15.4535   25.9139   -6.8187 C   0  0  0  0  0  0  0  0  0  0  0  0
   15.5546   26.8125   -5.5703 C   0  0  0  0  0  0  0  0  0  0  0  0
   15.7028   28.0356   -5.9116 O   0  0  0  0  0  0  0  0  0  0  0  0
   15.4752   26.2036   -4.4028 N   0  0  0  0  0  0  0  0  0  0  0  0
   15.4149   27.4247   -3.7764 H   0  0  0  0  0  0  0  0  0  0  0  0
 19 20  1  0  0  0
 20 21  2  0  0  0
 20 22  1  0  0  0
 22  1  1  0  0  0
  1  2  1  0  0  0
  2  3  2  0  0  0
  3 10  1  0  0  0
 10 11  2  0  0  0
 11 12  1  0  0  0
 12 13  2  0  0  0
 13 14  1  0  0  0
 14 15  2  0  0  0
 15 16  1  0  0  0
 13 17  1  0  0  0
 17 18  3  0  0  0
  3  4  1  0  0  0
  4  5  1  0  0  0
  5  6  2  0  0  0
  6  7  1  0  0  0
  7  8  2  0  0  0
  8  9  1  0  0  0
  9  1  2  0  0  0
 15 10  1  0  0  0
  8  4  1  0  0  0
 22 23  1  0  0  0
M  END
> <minimizedAffinity>
-7.63456

> <CNNscore>
0.7687437534

> <CNNaffinity>
7.2539558411

> <CNN_VS>
5.5764331818

> <CNNaffinity_variance>
0.1729396135

$$$$
[H]c1nc2c([H])c(N([H])C(=O)C([H])([H])[H])c([H])c(-c3c([H])nc(C#N)c([H])c3C([H])([H])[H])n2n1


 23 25  0  0  0  0  0  0  0  0999 V2000
   11.2696   21.0985   -0.5383 C   0  0  0  0  0  0  0  0  0  0  0  0
   11.7331   22.1641   -1.3483 C   0  0  0  0  0  0  0  0  0  0  0  0
   12.9810   22.6924   -1.2657 C   0  0  0  0  0  0  0  0  0  0  0  0
   13.8147   22.1606   -0.3547 N   0  0  0  0  0  0  0  0  0  0  0  0
   15.0819   22.4348   -0.0210 N   0  0  0  0  0  0  0  0  0  0  0  0
   15.5066   21.6332    0.9527 C   0  0  0  0  0  0  0  0  0  0  0  0
   14.4640   20.8190    1.2477 N   0  0  0  0  0  0  0  0  0  0  0  0
   13.4412   21.1510    0.4442 C   0  0  0  0  0  0  0  0  0  0  0  0
   12.1689   20.6025    0.3692 C   0  0  0  0  0  0  0  0  0  0  0  0
   13.4643   23.7836   -2.1014 C   0  0  0  0  0  0  0  0  0  0  0  0
   14.4989   23.5392   -2.9791 C   0  0  0  0  0  0  0  0  0  0  0  0
   14.9674   24.5350   -3.7652 N   0  0  0  0  0  0  0  0  0  0  0  0
   14.4734   25.7777   -3.7410 C   0  0  0  0  0  0  0  0  0  0  0  0
   13.4273   26.0265   -2.8546 C   0  0  0  0  0  0  0  0  0  0  0  0
   12.9241   25.0419   -2.0403 C   0  0  0  0  0  0  0  0  0  0  0  0
   11.8150   25.2779   -1.0942 C   0  0  0  0  0  0  0  0  0  0  0  0
   14.9840   26.8192   -4.5825 C   0  0  0  0  0  0  0  0  0  0  0  0
   15.3801   27.6703   -5.2655 N   0  0  0  0  0  0  0  0  0  0  0  0
    8.1999   20.0821   -2.2475 C   0  0  0  0  0  0  0  0  0  0  0  0
    8.7095   20.2744   -0.8055 C   0  0  0  0  0  0  0  0  0  0  0  0
    7.7870   19.9961    0.0347 O   0  0  0  0  0  0  0  0  0  0  0  0
    9.9590   20.6767   -0.6751 N   0  0  0  0  0  0  0  0  0  0  0  0
    9.8792   20.4667    0.6802 H   0  0  0  0  0  0  0  0  0  0  0  0
 19 20  1  0  0  0
 20 21  2  0  0  0
 20 22  1  0  0  0
 22  1  1  0  0  0
  1  2  1  0  0  0
  2  3  2  0  0  0
  3 10  1  0  0  0
 10 11  2  0  0  0
 11 12  1  0  0  0
 12 13  2  0  0  0
 13 14  1  0  0  0
 14 15  2  0  0  0
 15 16  1  0  0  0
 13 17  1  0  0  0
 17 18  3  0  0  0
  3  4  1  0  0  0
  4  5  1  0  0  0
  5  6  2  0  0  0
  6  7  1  0  0  0
  7  8  2  0  0  0
  8  9  1  0  0  0
  9  1  2  0  0  0
 15 10  1  0  0  0
  8  4  1  0  0  0
 22 23  1  0  0  0
M  END
> <minimizedAffinity>
-7.64740

> <CNNscore>
0.6903125644

> <CNNaffinity>
7.2780084610

> <CNN_VS>
5.0241007805

> <CNNaffinity_variance>
0.5969117880

$$$$
[H]c1nc2c([H])c(N([H])C(=O)C([H])([H])[H])c([H])c(-c3c([H])nc(C#N)c([H])c3C([H])([H])[H])n2n1


 23 25  0  0  0  0  0  0  0  0999 V2000
   12.2935   23.0228   -0.4574 C   0  0  0  0  0  0  0  0  0  0  0  0
   12.7065   23.5161   -1.7194 C   0  0  0  0  0  0  0  0  0  0  0  0
   13.8967   24.1306   -1.9411 C   0  0  0  0  0  0  0  0  0  0  0  0
   14.7213   24.2716   -0.8886 N   0  0  0  0  0  0  0  0  0  0  0  0
   15.9388   24.8136   -0.7610 N   0  0  0  0  0  0  0  0  0  0  0  0
   16.3769   24.7217    0.4922 C   0  0  0  0  0  0  0  0  0  0  0  0
   15.3949   24.0965    1.1862 N   0  0  0  0  0  0  0  0  0  0  0  0
   14.3935   23.8282    0.3334 C   0  0  0  0  0  0  0  0  0  0  0  0
   13.1805   23.1984    0.5725 C   0  0  0  0  0  0  0  0  0  0  0  0
   14.3284   24.6333   -3.2386 C   0  0  0  0  0  0  0  0  0  0  0  0
   15.2394   23.8971   -3.9657 C   0  0  0  0  0  0  0  0  0  0  0  0
   15.6579   24.3419   -5.1724 N   0  0  0  0  0  0  0  0  0  0  0  0
   15.2292   25.4855   -5.7176 C   0  0  0  0  0  0  0  0  0  0  0  0
   14.3081   26.2309   -4.9841 C   0  0  0  0  0  0  0  0  0  0  0  0
   13.8590   25.8128   -3.7556 C   0  0  0  0  0  0  0  0  0  0  0  0
   12.8819   26.5818   -2.9588 C   0  0  0  0  0  0  0  0  0  0  0  0
   15.6851   25.9394   -6.9981 C   0  0  0  0  0  0  0  0  0  0  0  0
   16.0488   26.2906   -8.0432 N   0  0  0  0  0  0  0  0  0  0  0  0
    9.6056   20.5971   -0.9754 C   0  0  0  0  0  0  0  0  0  0  0  0
    9.8348   21.9249   -0.2265 C   0  0  0  0  0  0  0  0  0  0  0  0
    8.7733   22.2768    0.3929 O   0  0  0  0  0  0  0  0  0  0  0  0
   11.0349   22.4607   -0.3392 N   0  0  0  0  0  0  0  0  0  0  0  0
   10.7042   23.3886    0.6183 H   0  0  0  0  0  0  0  0  0  0  0  0
 19 20  1  0  0  0
 20 21  2  0  0  0
 20 22  1  0  0  0
 22  1  1  0  0  0
  1  2  1  0  0  0
  2  3  2  0  0  0
  3 10  1  0  0  0
 10 11  2  0  0  0
 11 12  1  0  0  0
 12 13  2  0  0  0
 13 14  1  0  0  0
 14 15  2  0  0  0
 15 16  1  0  0  0
 13 17  1  0  0  0
 17 18  3  0  0  0
  3  4  1  0  0  0
  4  5  1  0  0  0
  5  6  2  0  0  0
  6  7  1  0  0  0
  7  8  2  0  0  0
  8  9  1  0  0  0
  9  1  2  0  0  0
 15 10  1  0  0  0
  8  4  1  0  0  0
 22 23  1  0  0  0
M  END
> <minimizedAffinity>
-7.64127

> <CNNscore>
0.6548432708

> <CNNaffinity>
7.1576333046

> <CNN_VS>
4.6871280670

> <CNNaffinity_variance>
0.4047285914

$$$$
[H]c1nc2c([H])c(N([H])C(=O)C([H])([H])[H])c([H])c(-c3c([H])nc(C#N)c([H])c3C([H])([H])[H])n2n1


 23 25  0  0  0  0  0  0  0  0999 V2000
   14.4310   22.6182   -0.8518 C   0  0  0  0  0  0  0  0  0  0  0  0
   14.8684   22.9639   -2.1541 C   0  0  0  0  0  0  0  0  0  0  0  0
   14.4661   24.0773   -2.8187 C   0  0  0  0  0  0  0  0  0  0  0  0
   13.6000   24.8901   -2.1888 N   0  0  0  0  0  0  0  0  0  0  0  0
   13.0180   26.0416   -2.5463 N   0  0  0  0  0  0  0  0  0  0  0  0
   12.2221   26.4975   -1.5823 C   0  0  0  0  0  0  0  0  0  0  0  0
   12.3032   25.5960   -0.5734 N   0  0  0  0  0  0  0  0  0  0  0  0
   13.1454   24.6233   -0.9561 C   0  0  0  0  0  0  0  0  0  0  0  0
   13.5492   23.4890   -0.2666 C   0  0  0  0  0  0  0  0  0  0  0  0
   14.9186   24.4403   -4.1551 C   0  0  0  0  0  0  0  0  0  0  0  0
   14.8896   25.7673   -4.5278 C   0  0  0  0  0  0  0  0  0  0  0  0
   15.3027   26.1312   -5.7632 N   0  0  0  0  0  0  0  0  0  0  0  0
   15.7497   25.2561   -6.6705 C   0  0  0  0  0  0  0  0  0  0  0  0
   15.7799   23.9143   -6.2954 C   0  0  0  0  0  0  0  0  0  0  0  0
   15.3691   23.5054   -5.0505 C   0  0  0  0  0  0  0  0  0  0  0  0
   15.3931   22.0909   -4.6267 C   0  0  0  0  0  0  0  0  0  0  0  0
   16.1830   25.6621   -7.9747 C   0  0  0  0  0  0  0  0  0  0  0  0
   16.5158   25.9930   -9.0366 N   0  0  0  0  0  0  0  0  0  0  0  0
   15.9936   19.3141   -0.7146 C   0  0  0  0  0  0  0  0  0  0  0  0
   15.2849   20.2972    0.2382 C   0  0  0  0  0  0  0  0  0  0  0  0
   15.2299   19.8122    1.4197 O   0  0  0  0  0  0  0  0  0  0  0  0
   14.8681   21.4300   -0.2939 N   0  0  0  0  0  0  0  0  0  0  0  0
   14.5631   21.9002    0.9603 H   0  0  0  0  0  0  0  0  0  0  0  0
 19 20  1  0  0  0
 20 21  2  0  0  0
 20 22  1  0  0  0
 22  1  1  0  0  0
  1  2  1  0  0  0
  2  3  2  0  0  0
  3 10  1  0  0  0
 10 11  2  0  0  0
 11 12  1  0  0  0
 12 13  2  0  0  0
 13 14  1  0  0  0
 14 15  2  0  0  0
 15 16  1  0  0  0
 13 17  1  0  0  0
 17 18  3  0  0  0
  3  4  1  0  0  0
  4  5  1  0  0  0
  5  6  2  0  0  0
  6  7  1  0  0  0
  7  8  2  0  0  0
  8  9  1  0  0  0
  9  1  2  0  0  0
 15 10  1  0  0  0
  8  4  1  0  0  0
 22 23  1  0  0  0
M  END
> <minimizedAffinity>
5.57106

> <CNNscore>
0.5755798817

> <CNNaffinity>
6.5902633667

> <CNN_VS>
3.7932229042

> <CNNaffinity_variance>
0.7837055922

$$$$
[H]c1nc2c([H])c(N([H])C(=O)C([H])([H])[H])c([H])c(-c3c([H])nc(C#N)c([H])c3C([H])([H])[H])n2n1


 23 25  0  0  0  0  0  0  0  0999 V2000
   14.0820   24.5300   -2.8268 C   0  0  0  0  0  0  0  0  0  0  0  0
   12.9559   24.6333   -1.9736 C   0  0  0  0  0  0  0  0  0  0  0  0
   12.5834   23.6725   -1.0896 C   0  0  0  0  0  0  0  0  0  0  0  0
   13.3397   22.5623   -1.0332 N   0  0  0  0  0  0  0  0  0  0  0  0
   13.2589   21.4508   -0.2914 N   0  0  0  0  0  0  0  0  0  0  0  0
   14.2464   20.6071   -0.5806 C   0  0  0  0  0  0  0  0  0  0  0  0
   14.9818   21.2098   -1.5465 N   0  0  0  0  0  0  0  0  0  0  0  0
   14.4187   22.3991   -1.8120 C   0  0  0  0  0  0  0  0  0  0  0  0
   14.8096   23.3736   -2.7190 C   0  0  0  0  0  0  0  0  0  0  0  0
   11.4302   23.7774   -0.2054 C   0  0  0  0  0  0  0  0  0  0  0  0
   11.4947   24.6374    0.8701 C   0  0  0  0  0  0  0  0  0  0  0  0
   10.4387   24.7526    1.7072 N   0  0  0  0  0  0  0  0  0  0  0  0
    9.3040   24.0623    1.5499 C   0  0  0  0  0  0  0  0  0  0  0  0
    9.2369   23.1925    0.4631 C   0  0  0  0  0  0  0  0  0  0  0  0
   10.2877   23.0481   -0.4091 C   0  0  0  0  0  0  0  0  0  0  0  0
   10.2421   22.1358   -1.5696 C   0  0  0  0  0  0  0  0  0  0  0  0
    8.1961   24.1987    2.4484 C   0  0  0  0  0  0  0  0  0  0  0  0
    7.3105   24.3150    3.1901 N   0  0  0  0  0  0  0  0  0  0  0  0
   15.9041   27.2840   -4.3993 C   0  0  0  0  0  0  0  0  0  0  0  0
   14.5756   26.5240   -4.5831 C   0  0  0  0  0  0  0  0  0  0  0  0
   13.9242   26.9976   -5.5759 O   0  0  0  0  0  0  0  0  0  0  0  0
   14.3346   25.5508   -3.7258 N   0  0  0  0  0  0  0  0  0  0  0  0
   13.2439   25.1727   -4.4704 H   0  0  0  0  0  0  0  0  0  0  0  0
 19 20  1  0  0  0
 20 21  2  0  0  0
 20 22  1  0  0  0
 22  1  1  0  0  0
  1  2  1  0  0  0
  2  3  2  0  0  0
  3 10  1  0  0  0
 10 11  2  0  0  0
 11 12  1  0  0  0
 12 13  2  0  0  0
 13 14  1  0  0  0
 14 15  2  0  0  0
 15 16  1  0  0  0
 13 17  1  0  0  0
 17 18  3  0  0  0
  3  4  1  0  0  0
  4  5  1  0  0  0
  5  6  2  0  0  0
  6  7  1  0  0  0
  7  8  2  0  0  0
  8  9  1  0  0  0
  9  1  2  0  0  0
 15 10  1  0  0  0
  8  4  1  0  0  0
 22 23  1  0  0  0
M  END
> <minimizedAffinity>
-7.74576

> <CNNscore>
0.5132809281

> <CNNaffinity>
6.6196508408

> <CNN_VS>
3.3977406025

> <CNNaffinity_variance>
0.0776888058

$$$$
[H]c1nc2c([H])c(N([H])C(=O)C([H])([H])[H])c([H])c(-c3c([H])nc(C#N)c([H])c3C([H])([H])[H])n2n1


 23 25  0  0  0  0  0  0  0  0999 V2000
   16.3104   25.0182   -5.8641 C   0  0  0  0  0  0  0  0  0  0  0  0
   15.3897   26.0589   -5.5890 C   0  0  0  0  0  0  0  0  0  0  0  0
   14.8292   26.2735   -4.3712 C   0  0  0  0  0  0  0  0  0  0  0  0
   15.1796   25.4386   -3.3773 N   0  0  0  0  0  0  0  0  0  0  0  0
   14.8260   25.3702   -2.0879 N   0  0  0  0  0  0  0  0  0  0  0  0
   15.4400   24.3618   -1.4740 C   0  0  0  0  0  0  0  0  0  0  0  0
   16.2133   23.7670   -2.4148 N   0  0  0  0  0  0  0  0  0  0  0  0
   16.0452   24.4328   -3.5683 C   0  0  0  0  0  0  0  0  0  0  0  0
   16.6248   24.2035   -4.8078 C   0  0  0  0  0  0  0  0  0  0  0  0
   13.8873   27.3467   -4.0820 C   0  0  0  0  0  0  0  0  0  0  0  0
   14.2805   28.6505   -4.2967 C   0  0  0  0  0  0  0  0  0  0  0  0
   13.4261   29.6656   -4.0351 N   0  0  0  0  0  0  0  0  0  0  0  0
   12.1878   29.4750   -3.5668 C   0  0  0  0  0  0  0  0  0  0  0  0
   11.7884   28.1577   -3.3494 C   0  0  0  0  0  0  0  0  0  0  0  0
   12.6269   27.1001   -3.6031 C   0  0  0  0  0  0  0  0  0  0  0  0
   12.2283   25.6951   -3.3840 C   0  0  0  0  0  0  0  0  0  0  0  0
   11.2974   30.5646   -3.2958 C   0  0  0  0  0  0  0  0  0  0  0  0
   10.5853   31.4579   -3.0892 N   0  0  0  0  0  0  0  0  0  0  0  0
   17.3331   26.0003   -9.2356 C   0  0  0  0  0  0  0  0  0  0  0  0
   17.2213   24.7159   -8.3906 C   0  0  0  0  0  0  0  0  0  0  0  0
   17.5969   23.7004   -9.0704 O   0  0  0  0  0  0  0  0  0  0  0  0
   16.7767   24.8634   -7.1575 N   0  0  0  0  0  0  0  0  0  0  0  0
   17.0847   23.5506   -6.8954 H   0  0  0  0  0  0  0  0  0  0  0  0
 19 20  1  0  0  0
 20 21  2  0  0  0
 20 22  1  0  0  0
 22  1  1  0  0  0
  1  2  1  0  0  0
  2  3  2  0  0  0
  3 10  1  0  0  0
 10 11  2  0  0  0
 11 12  1  0  0  0
 12 13  2  0  0  0
 13 14  1  0  0  0
 14 15  2  0  0  0
 15 16  1  0  0  0
 13 17  1  0  0  0
 17 18  3  0  0  0
  3  4  1  0  0  0
  4  5  1  0  0  0
  5  6  2  0  0  0
  6  7  1  0  0  0
  7  8  2  0  0  0
  8  9  1  0  0  0
  9  1  2  0  0  0
 15 10  1  0  0  0
  8  4  1  0  0  0
 22 23  1  0  0  0
M  END
> <minimizedAffinity>
29.11072

> <CNNscore>
0.4767426252

> <CNNaffinity>
5.8621506691

> <CNN_VS>
2.7947371006

> <CNNaffinity_variance>
1.4207025766

$$$$
[H]c1nc2c([H])c(N([H])C(=O)C([H])([H])[H])c([H])c(-c3c([H])nc(C#N)c([H])c3C([H])([H])[H])n2n1


 23 25  0  0  0  0  0  0  0  0999 V2000
   15.9442   24.7262   -0.9095 C   0  0  0  0  0  0  0  0  0  0  0  0
   14.7169   24.3368   -0.3190 C   0  0  0  0  0  0  0  0  0  0  0  0
   13.4976   24.6430   -0.8315 C   0  0  0  0  0  0  0  0  0  0  0  0
   13.4711   25.3600   -1.9686 N   0  0  0  0  0  0  0  0  0  0  0  0
   12.4656   25.8193   -2.7238 N   0  0  0  0  0  0  0  0  0  0  0  0
   12.9238   26.4883   -3.7789 C   0  0  0  0  0  0  0  0  0  0  0  0
   14.2755   26.4515   -3.6864 N   0  0  0  0  0  0  0  0  0  0  0  0
   14.5946   25.7615   -2.5800 C   0  0  0  0  0  0  0  0  0  0  0  0
   15.8464   25.4546   -2.0663 C   0  0  0  0  0  0  0  0  0  0  0  0
   12.2331   24.2388   -0.2314 C   0  0  0  0  0  0  0  0  0  0  0  0
   11.6561   25.0579    0.7156 C   0  0  0  0  0  0  0  0  0  0  0  0
   10.4832   24.7054    1.2893 N   0  0  0  0  0  0  0  0  0  0  0  0
    9.8316   23.5778    0.9847 C   0  0  0  0  0  0  0  0  0  0  0  0
   10.4132   22.7487    0.0274 C   0  0  0  0  0  0  0  0  0  0  0  0
   11.6028   23.0719   -0.5777 C   0  0  0  0  0  0  0  0  0  0  0  0
   12.2394   22.2129   -1.5964 C   0  0  0  0  0  0  0  0  0  0  0  0
    8.5893   23.2223    1.6043 C   0  0  0  0  0  0  0  0  0  0  0  0
    7.5782   22.9527    2.1072 N   0  0  0  0  0  0  0  0  0  0  0  0
   18.3222   24.4039    1.8507 C   0  0  0  0  0  0  0  0  0  0  0  0
   18.2539   24.0921    0.3426 C   0  0  0  0  0  0  0  0  0  0  0  0
   19.3500   23.5679   -0.0549 O   0  0  0  0  0  0  0  0  0  0  0  0
   17.1266   24.4016   -0.2685 N   0  0  0  0  0  0  0  0  0  0  0  0
   17.5662   23.7520   -1.3963 H   0  0  0  0  0  0  0  0  0  0  0  0
 19 20  1  0  0  0
 20 21  2  0  0  0
 20 22  1  0  0  0
 22  1  1  0  0  0
  1  2  1  0  0  0
  2  3  2  0  0  0
  3 10  1  0  0  0
 10 11  2  0  0  0
 11 12  1  0  0  0
 12 13  2  0  0  0
 13 14  1  0  0  0
 14 15  2  0  0  0
 15 16  1  0  0  0
 13 17  1  0  0  0
 17 18  3  0  0  0
  3  4  1  0  0  0
  4  5  1  0  0  0
  5  6  2  0  0  0
  6  7  1  0  0  0
  7  8  2  0  0  0
  8  9  1  0  0  0
  9  1  2  0  0  0
 15 10  1  0  0  0
  8  4  1  0  0  0
 22 23  1  0  0  0
M  END
> <minimizedAffinity>
-0.36587

> <CNNscore>
0.4691291749

> <CNNaffinity>
6.5621919632

> <CNN_VS>
3.0785157681

> <CNNaffinity_variance>
0.7259607911

$$$$
[H]c1nc2c([H])c(N([H])C(=O)C([H])([H])[H])c([H])c(-c3c([H])nc(C#N)c([H])c3C([H])([H])[H])n2n1


 23 25  0  0  0  0  0  0  0  0999 V2000
   14.2605   24.6954   -3.2167 C   0  0  0  0  0  0  0  0  0  0  0  0
   13.1651   24.8333   -2.3292 C   0  0  0  0  0  0  0  0  0  0  0  0
   12.7783   23.8764   -1.4472 C   0  0  0  0  0  0  0  0  0  0  0  0
   13.4884   22.7349   -1.4279 N   0  0  0  0  0  0  0  0  0  0  0  0
   13.3823   21.6171   -0.6987 N   0  0  0  0  0  0  0  0  0  0  0  0
   14.3245   20.7371   -1.0281 C   0  0  0  0  0  0  0  0  0  0  0  0
   15.0563   21.3224   -2.0074 N   0  0  0  0  0  0  0  0  0  0  0  0
   14.5364   22.5379   -2.2404 C   0  0  0  0  0  0  0  0  0  0  0  0
   14.9415   23.5082   -3.1457 C   0  0  0  0  0  0  0  0  0  0  0  0
   11.6567   24.0166   -0.5280 C   0  0  0  0  0  0  0  0  0  0  0  0
   10.4962   23.3186   -0.7858 C   0  0  0  0  0  0  0  0  0  0  0  0
    9.4396   23.4321    0.0508 N   0  0  0  0  0  0  0  0  0  0  0  0
    9.4535   24.2029    1.1437 C   0  0  0  0  0  0  0  0  0  0  0  0
   10.6260   24.9091    1.4061 C   0  0  0  0  0  0  0  0  0  0  0  0
   11.7200   24.8199    0.5808 C   0  0  0  0  0  0  0  0  0  0  0  0
   12.9749   25.5552    0.8368 C   0  0  0  0  0  0  0  0  0  0  0  0
    8.3230   24.3096    2.0177 C   0  0  0  0  0  0  0  0  0  0  0  0
    7.4000   24.4099    2.7148 N   0  0  0  0  0  0  0  0  0  0  0  0
   14.9652   26.2824   -6.4357 C   0  0  0  0  0  0  0  0  0  0  0  0
   14.7865   26.6921   -4.9604 C   0  0  0  0  0  0  0  0  0  0  0  0
   14.9257   27.9560   -4.8283 O   0  0  0  0  0  0  0  0  0  0  0  0
   14.5298   25.7175   -4.1093 N   0  0  0  0  0  0  0  0  0  0  0  0
   14.2880   26.6468   -3.1269 H   0  0  0  0  0  0  0  0  0  0  0  0
 19 20  1  0  0  0
 20 21  2  0  0  0
 20 22  1  0  0  0
 22  1  1  0  0  0
  1  2  1  0  0  0
  2  3  2  0  0  0
  3 10  1  0  0  0
 10 11  2  0  0  0
 11 12  1  0  0  0
 12 13  2  0  0  0
 13 14  1  0  0  0
 14 15  2  0  0  0
 15 16  1  0  0  0
 13 17  1  0  0  0
 17 18  3  0  0  0
  3  4  1  0  0  0
  4  5  1  0  0  0
  5  6  2  0  0  0
  6  7  1  0  0  0
  7  8  2  0  0  0
  8  9  1  0  0  0
  9  1  2  0  0  0
 15 10  1  0  0  0
  8  4  1  0  0  0
 22 23  1  0  0  0
M  END
> <minimizedAffinity>
-7.41142

> <CNNscore>
0.4645483196

> <CNNaffinity>
6.6896414757

> <CNN_VS>
3.1076617241

> <CNNaffinity_variance>
0.1825768352

$$$$
[H]c1nc2c([H])c(N([H])C([H])([H])c3c([H])c([H])c([H])c([H])c3F)c([H])c(-c3c([H])c([H])c(C#N)c([H])c3[H])n2n1


 27 30  0  0  0  0  0  0  0  0999 V2000
   11.4690   24.1577   -0.7357 C   0  0  0  0  0  0  0  0  0  0  0  0
   12.0470   24.6645   -1.8713 C   0  0  0  0  0  0  0  0  0  0  0  0
   13.3844   24.9000   -1.9555 C   0  0  0  0  0  0  0  0  0  0  0  0
   14.1505   24.6186   -0.8406 N   0  0  0  0  0  0  0  0  0  0  0  0
   15.4608   24.7434   -0.7536 N   0  0  0  0  0  0  0  0  0  0  0  0
   15.8236   24.3169    0.4891 C   0  0  0  0  0  0  0  0  0  0  0  0
   14.7022   23.9361    1.1300 N   0  0  0  0  0  0  0  0  0  0  0  0
   13.6577   24.1270    0.2849 C   0  0  0  0  0  0  0  0  0  0  0  0
   12.3028   23.8876    0.3625 C   0  0  0  0  0  0  0  0  0  0  0  0
   14.1118   25.2362   -3.1571 C   0  0  0  0  0  0  0  0  0  0  0  0
   14.9866   24.3514   -3.7156 C   0  0  0  0  0  0  0  0  0  0  0  0
   15.4826   24.5967   -4.9758 C   0  0  0  0  0  0  0  0  0  0  0  0
   15.1199   25.7071   -5.6977 C   0  0  0  0  0  0  0  0  0  0  0  0
   14.2381   26.6079   -5.1407 C   0  0  0  0  0  0  0  0  0  0  0  0
   13.7404   26.3574   -3.8664 C   0  0  0  0  0  0  0  0  0  0  0  0
   15.5882   25.9405   -7.0540 C   0  0  0  0  0  0  0  0  0  0  0  0
   15.9976   26.1393   -8.1442 N   0  0  0  0  0  0  0  0  0  0  0  0
   10.1273   23.8422   -0.5416 N   0  0  0  0  0  0  0  0  0  0  0  0
    9.4674   24.1587   -1.3524 H   0  0  0  0  0  0  0  0  0  0  0  0
    9.5363   23.1804    0.5900 C   0  0  0  0  0  0  0  0  0  0  0  0
    7.1270   22.5806    1.5811 F   0  0  0  0  0  0  0  0  0  0  0  0
    7.5926   21.6848    0.6643 C   0  0  0  0  0  0  0  0  0  0  0  0
    6.8654   20.6318    0.2936 C   0  0  0  0  0  0  0  0  0  0  0  0
    7.3599   19.7259   -0.6056 C   0  0  0  0  0  0  0  0  0  0  0  0
    8.5979   19.9227   -1.1103 C   0  0  0  0  0  0  0  0  0  0  0  0
    9.3699   21.0300   -0.7215 C   0  0  0  0  0  0  0  0  0  0  0  0
    8.8884   21.9206    0.1605 C   0  0  0  0  0  0  0  0  0  0  0  0
 21 22  1  0  0  0
 22 23  2  0  0  0
 23 24  1  0  0  0
 24 25  2  0  0  0
 25 26  1  0  0  0
 26 27  2  0  0  0
 27 20  1  0  0  0
 20 18  1  0  0  0
 18  1  1  0  0  0
  1  2  1  0  0  0
  2  3  2  0  0  0
  3 10  1  0  0  0
 10 11  2  0  0  0
 11 12  1  0  0  0
 12 13  2  0  0  0
 13 14  1  0  0  0
 14 15  2  0  0  0
 13 16  1  0  0  0
 16 17  3  0  0  0
  3  4  1  0  0  0
  4  5  1  0  0  0
  5  6  2  0  0  0
  6  7  1  0  0  0
  7  8  2  0  0  0
  8  9  1  0  0  0
 27 22  1  0  0  0
  9  1  2  0  0  0
 15 10  1  0  0  0
  8  4  1  0  0  0
 18 19  1  0  0  0
M  END
> <minimizedAffinity>
-9.27890

> <CNNscore>
0.8030306101

> <CNNaffinity>
7.4401960373

> <CNN_VS>
5.9747052193

> <CNNaffinity_variance>
0.2683550715

$$$$
[H]c1nc2c([H])c(N([H])C([H])([H])c3c([H])c([H])c([H])c([H])c3F)c([H])c(-c3c([H])c([H])c(C#N)c([H])c3[H])n2n1


 27 30  0  0  0  0  0  0  0  0999 V2000
   11.4184   24.2616   -0.7581 C   0  0  0  0  0  0  0  0  0  0  0  0
   12.0093   24.7534   -1.8936 C   0  0  0  0  0  0  0  0  0  0  0  0
   13.3528   24.9505   -1.9793 C   0  0  0  0  0  0  0  0  0  0  0  0
   14.1119   24.6453   -0.8659 N   0  0  0  0  0  0  0  0  0  0  0  0
   15.4254   24.7322   -0.7804 N   0  0  0  0  0  0  0  0  0  0  0  0
   15.7773   24.2933    0.4611 C   0  0  0  0  0  0  0  0  0  0  0  0
   14.6463   23.9439    1.1028 N   0  0  0  0  0  0  0  0  0  0  0  0
   13.6066   24.1662    0.2595 C   0  0  0  0  0  0  0  0  0  0  0  0
   12.2455   23.9658    0.3385 C   0  0  0  0  0  0  0  0  0  0  0  0
   14.0880   25.2676   -3.1813 C   0  0  0  0  0  0  0  0  0  0  0  0
   14.9577   24.3697   -3.7265 C   0  0  0  0  0  0  0  0  0  0  0  0
   15.4610   24.5972   -4.9872 C   0  0  0  0  0  0  0  0  0  0  0  0
   15.1106   25.7027   -5.7225 C   0  0  0  0  0  0  0  0  0  0  0  0
   14.2341   26.6167   -5.1790 C   0  0  0  0  0  0  0  0  0  0  0  0
   13.7289   26.3842   -3.9043 C   0  0  0  0  0  0  0  0  0  0  0  0
   15.5865   25.9176   -7.0792 C   0  0  0  0  0  0  0  0  0  0  0  0
   16.0038   26.0907   -8.1707 N   0  0  0  0  0  0  0  0  0  0  0  0
   10.0684   23.9845   -0.5628 N   0  0  0  0  0  0  0  0  0  0  0  0
    9.3884   24.6820   -1.0568 H   0  0  0  0  0  0  0  0  0  0  0  0
    9.4948   22.9190    0.2142 C   0  0  0  0  0  0  0  0  0  0  0  0
   10.5117   21.5987    2.3045 F   0  0  0  0  0  0  0  0  0  0  0  0
    9.7888   22.7052    2.6407 C   0  0  0  0  0  0  0  0  0  0  0  0
    9.6525   23.0838    3.9108 C   0  0  0  0  0  0  0  0  0  0  0  0
    8.8987   24.1799    4.2334 C   0  0  0  0  0  0  0  0  0  0  0  0
    8.2986   24.8700    3.2385 C   0  0  0  0  0  0  0  0  0  0  0  0
    8.4372   24.4742    1.8980 C   0  0  0  0  0  0  0  0  0  0  0  0
    9.1756   23.3993    1.5775 C   0  0  0  0  0  0  0  0  0  0  0  0
 21 22  1  0  0  0
 22 23  2  0  0  0
 23 24  1  0  0  0
 24 25  2  0  0  0
 25 26  1  0  0  0
 26 27  2  0  0  0
 27 20  1  0  0  0
 20 18  1  0  0  0
 18  1  1  0  0  0
  1  2  1  0  0  0
  2  3  2  0  0  0
  3 10  1  0  0  0
 10 11  2  0  0  0
 11 12  1  0  0  0
 12 13  2  0  0  0
 13 14  1  0  0  0
 14 15  2  0  0  0
 13 16  1  0  0  0
 16 17  3  0  0  0
  3  4  1  0  0  0
  4  5  1  0  0  0
  5  6  2  0  0  0
  6  7  1  0  0  0
  7  8  2  0  0  0
  8  9  1  0  0  0
 27 22  1  0  0  0
  9  1  2  0  0  0
 15 10  1  0  0  0
  8  4  1  0  0  0
 18 19  1  0  0  0
M  END
> <minimizedAffinity>
-9.63690

> <CNNscore>
0.8001204729

> <CNNaffinity>
7.3284506798

> <CNN_VS>
5.8636436462

> <CNNaffinity_variance>
0.0747527778

$$$$
[H]c1nc2c([H])c(N([H])C([H])([H])c3c([H])c([H])c([H])c([H])c3F)c([H])c(-c3c([H])c([H])c(C#N)c([H])c3[H])n2n1


 27 30  0  0  0  0  0  0  0  0999 V2000
   11.5619   24.3175   -0.1683 C   0  0  0  0  0  0  0  0  0  0  0  0
   11.8991   24.7705   -1.4179 C   0  0  0  0  0  0  0  0  0  0  0  0
   13.1920   24.9906   -1.7800 C   0  0  0  0  0  0  0  0  0  0  0  0
   14.1672   24.7504   -0.8311 N   0  0  0  0  0  0  0  0  0  0  0  0
   15.4681   24.8676   -1.0153 N   0  0  0  0  0  0  0  0  0  0  0  0
   16.0740   24.4912    0.1462 C   0  0  0  0  0  0  0  0  0  0  0  0
   15.1050   24.1478    1.0157 N   0  0  0  0  0  0  0  0  0  0  0  0
   13.9115   24.3115    0.3909 C   0  0  0  0  0  0  0  0  0  0  0  0
   12.6000   24.0873    0.7501 C   0  0  0  0  0  0  0  0  0  0  0  0
   13.6621   25.2691   -3.1170 C   0  0  0  0  0  0  0  0  0  0  0  0
   13.3447   26.4399   -3.7402 C   0  0  0  0  0  0  0  0  0  0  0  0
   13.9929   26.7818   -4.9052 C   0  0  0  0  0  0  0  0  0  0  0  0
   14.9592   25.9812   -5.4628 C   0  0  0  0  0  0  0  0  0  0  0  0
   15.2850   24.7951   -4.8414 C   0  0  0  0  0  0  0  0  0  0  0  0
   14.6268   24.4523   -3.6652 C   0  0  0  0  0  0  0  0  0  0  0  0
   15.6940   26.3653   -6.6569 C   0  0  0  0  0  0  0  0  0  0  0  0
   16.3110   26.6521   -7.6226 N   0  0  0  0  0  0  0  0  0  0  0  0
   10.2870   24.0222    0.3056 N   0  0  0  0  0  0  0  0  0  0  0  0
    9.5515   23.8170   -0.4754 H   0  0  0  0  0  0  0  0  0  0  0  0
    9.8476   23.9796    1.6742 C   0  0  0  0  0  0  0  0  0  0  0  0
    8.8176   23.5786    4.1083 F   0  0  0  0  0  0  0  0  0  0  0  0
    8.1960   22.8787    3.1165 C   0  0  0  0  0  0  0  0  0  0  0  0
    7.1464   22.0991    3.3723 C   0  0  0  0  0  0  0  0  0  0  0  0
    6.5526   21.3800    2.3702 C   0  0  0  0  0  0  0  0  0  0  0  0
    7.0509   21.4790    1.1180 C   0  0  0  0  0  0  0  0  0  0  0  0
    8.1586   22.2978    0.8430 C   0  0  0  0  0  0  0  0  0  0  0  0
    8.7439   23.0044    1.8234 C   0  0  0  0  0  0  0  0  0  0  0  0
 21 22  1  0  0  0
 22 23  2  0  0  0
 23 24  1  0  0  0
 24 25  2  0  0  0
 25 26  1  0  0  0
 26 27  2  0  0  0
 27 20  1  0  0  0
 20 18  1  0  0  0
 18  1  1  0  0  0
  1  2  1  0  0  0
  2  3  2  0  0  0
  3 10  1  0  0  0
 10 11  2  0  0  0
 11 12  1  0  0  0
 12 13  2  0  0  0
 13 14  1  0  0  0
 14 15  2  0  0  0
 13 16  1  0  0  0
 16 17  3  0  0  0
  3  4  1  0  0  0
  4  5  1  0  0  0
  5  6  2  0  0  0
  6  7  1  0  0  0
  7  8  2  0  0  0
  8  9  1  0  0  0
 27 22  1  0  0  0
  9  1  2  0  0  0
 15 10  1  0  0  0
  8  4  1  0  0  0
 18 19  1  0  0  0
M  END
> <minimizedAffinity>
-9.01293

> <CNNscore>
0.7437813878

> <CNNaffinity>
7.1419820786

> <CNN_VS>
5.3120732307

> <CNNaffinity_variance>
0.1864506900

$$$$
[H]c1nc2c([H])c(N([H])C([H])([H])c3c([H])c([H])c([H])c([H])c3F)c([H])c(-c3c([H])c([H])c(C#N)c([H])c3[H])n2n1


 27 30  0  0  0  0  0  0  0  0999 V2000
   11.5734   24.1410   -0.1298 C   0  0  0  0  0  0  0  0  0  0  0  0
   11.8985   24.6364   -1.3665 C   0  0  0  0  0  0  0  0  0  0  0  0
   13.1856   24.8952   -1.7234 C   0  0  0  0  0  0  0  0  0  0  0  0
   14.1674   24.6498   -0.7826 N   0  0  0  0  0  0  0  0  0  0  0  0
   15.4651   24.8008   -0.9647 N   0  0  0  0  0  0  0  0  0  0  0  0
   16.0811   24.4053    0.1851 C   0  0  0  0  0  0  0  0  0  0  0  0
   15.1212   24.0161    1.0455 N   0  0  0  0  0  0  0  0  0  0  0  0
   13.9234   24.1710    0.4267 C   0  0  0  0  0  0  0  0  0  0  0  0
   12.6178   23.9079    0.7807 C   0  0  0  0  0  0  0  0  0  0  0  0
   13.6474   25.2216   -3.0524 C   0  0  0  0  0  0  0  0  0  0  0  0
   13.3184   26.4101   -3.6347 C   0  0  0  0  0  0  0  0  0  0  0  0
   13.9586   26.7956   -4.7906 C   0  0  0  0  0  0  0  0  0  0  0  0
   14.9281   26.0214   -5.3789 C   0  0  0  0  0  0  0  0  0  0  0  0
   15.2657   24.8178   -4.7989 C   0  0  0  0  0  0  0  0  0  0  0  0
   14.6155   24.4309   -3.6319 C   0  0  0  0  0  0  0  0  0  0  0  0
   15.6544   26.4506   -6.5628 C   0  0  0  0  0  0  0  0  0  0  0  0
   16.2424   26.7692   -7.5366 N   0  0  0  0  0  0  0  0  0  0  0  0
   10.3060   23.8042    0.3367 N   0  0  0  0  0  0  0  0  0  0  0  0
    9.4868   24.3177   -0.1715 H   0  0  0  0  0  0  0  0  0  0  0  0
    9.9755   22.8929    1.3989 C   0  0  0  0  0  0  0  0  0  0  0  0
    9.4982   21.5407    3.6551 F   0  0  0  0  0  0  0  0  0  0  0  0
    9.3546   22.8918    3.7726 C   0  0  0  0  0  0  0  0  0  0  0  0
    9.0368   23.4557    4.9370 C   0  0  0  0  0  0  0  0  0  0  0  0
    8.8672   24.8108    5.0310 C   0  0  0  0  0  0  0  0  0  0  0  0
    9.0307   25.5634    3.9206 C   0  0  0  0  0  0  0  0  0  0  0  0
    9.3636   24.9740    2.6899 C   0  0  0  0  0  0  0  0  0  0  0  0
    9.5306   23.6451    2.5937 C   0  0  0  0  0  0  0  0  0  0  0  0
 21 22  1  0  0  0
 22 23  2  0  0  0
 23 24  1  0  0  0
 24 25  2  0  0  0
 25 26  1  0  0  0
 26 27  2  0  0  0
 27 20  1  0  0  0
 20 18  1  0  0  0
 18  1  1  0  0  0
  1  2  1  0  0  0
  2  3  2  0  0  0
  3 10  1  0  0  0
 10 11  2  0  0  0
 11 12  1  0  0  0
 12 13  2  0  0  0
 13 14  1  0  0  0
 14 15  2  0  0  0
 13 16  1  0  0  0
 16 17  3  0  0  0
  3  4  1  0  0  0
  4  5  1  0  0  0
  5  6  2  0  0  0
  6  7  1  0  0  0
  7  8  2  0  0  0
  8  9  1  0  0  0
 27 22  1  0  0  0
  9  1  2  0  0  0
 15 10  1  0  0  0
  8  4  1  0  0  0
 18 19  1  0  0  0
M  END
> <minimizedAffinity>
-9.67010

> <CNNscore>
0.6901633739

> <CNNaffinity>
7.0700197220

> <CNN_VS>
4.8794684410

> <CNNaffinity_variance>
0.1310876459

$$$$
[H]c1nc2c([H])c(N([H])C([H])([H])c3c([H])c([H])c([H])c([H])c3F)c([H])c(-c3c([H])c([H])c(C#N)c([H])c3[H])n2n1


 27 30  0  0  0  0  0  0  0  0999 V2000
   11.4272   24.2323   -0.2507 C   0  0  0  0  0  0  0  0  0  0  0  0
   11.7924   24.7205   -1.4790 C   0  0  0  0  0  0  0  0  0  0  0  0
   13.0919   24.9637   -1.8005 C   0  0  0  0  0  0  0  0  0  0  0  0
   14.0441   24.7098   -0.8320 N   0  0  0  0  0  0  0  0  0  0  0  0
   15.3481   24.8456   -0.9781 N   0  0  0  0  0  0  0  0  0  0  0  0
   15.9271   24.4463    0.1894 C   0  0  0  0  0  0  0  0  0  0  0  0
   14.9392   24.0704    1.0236 N   0  0  0  0  0  0  0  0  0  0  0  0
   13.7610   24.2371    0.3712 C   0  0  0  0  0  0  0  0  0  0  0  0
   12.4430   23.9898    0.6892 C   0  0  0  0  0  0  0  0  0  0  0  0
   13.5943   25.2812   -3.1168 C   0  0  0  0  0  0  0  0  0  0  0  0
   13.2750   26.4613   -3.7213 C   0  0  0  0  0  0  0  0  0  0  0  0
   13.9495   26.8409   -4.8594 C   0  0  0  0  0  0  0  0  0  0  0  0
   14.9440   26.0692   -5.4081 C   0  0  0  0  0  0  0  0  0  0  0  0
   15.2720   24.8740   -4.8055 C   0  0  0  0  0  0  0  0  0  0  0  0
   14.5871   24.4930   -3.6566 C   0  0  0  0  0  0  0  0  0  0  0  0
   15.7052   26.4930   -6.5718 C   0  0  0  0  0  0  0  0  0  0  0  0
   16.2959   26.8440   -7.5328 N   0  0  0  0  0  0  0  0  0  0  0  0
   10.1436   23.9112    0.1810 N   0  0  0  0  0  0  0  0  0  0  0  0
    9.3570   24.5494   -0.2278 H   0  0  0  0  0  0  0  0  0  0  0  0
    9.7603   22.8706    1.0965 C   0  0  0  0  0  0  0  0  0  0  0  0
   10.6046   20.9447   -0.5543 F   0  0  0  0  0  0  0  0  0  0  0  0
    9.2572   20.9486   -0.3432 C   0  0  0  0  0  0  0  0  0  0  0  0
    8.4661   20.0334   -0.9015 C   0  0  0  0  0  0  0  0  0  0  0  0
    7.1122   20.0694   -0.7035 C   0  0  0  0  0  0  0  0  0  0  0  0
    6.5957   21.0494    0.0705 C   0  0  0  0  0  0  0  0  0  0  0  0
    7.4248   22.0180    0.6599 C   0  0  0  0  0  0  0  0  0  0  0  0
    8.7534   21.9862    0.4678 C   0  0  0  0  0  0  0  0  0  0  0  0
 21 22  1  0  0  0
 22 23  2  0  0  0
 23 24  1  0  0  0
 24 25  2  0  0  0
 25 26  1  0  0  0
 26 27  2  0  0  0
 27 20  1  0  0  0
 20 18  1  0  0  0
 18  1  1  0  0  0
  1  2  1  0  0  0
  2  3  2  0  0  0
  3 10  1  0  0  0
 10 11  2  0  0  0
 11 12  1  0  0  0
 12 13  2  0  0  0
 13 14  1  0  0  0
 14 15  2  0  0  0
 13 16  1  0  0  0
 16 17  3  0  0  0
  3  4  1  0  0  0
  4  5  1  0  0  0
  5  6  2  0  0  0
  6  7  1  0  0  0
  7  8  2  0  0  0
  8  9  1  0  0  0
 27 22  1  0  0  0
  9  1  2  0  0  0
 15 10  1  0  0  0
  8  4  1  0  0  0
 18 19  1  0  0  0
M  END
> <minimizedAffinity>
-9.38526

> <CNNscore>
0.6713914275

> <CNNaffinity>
7.2477660179

> <CNN_VS>
4.8660879135

> <CNNaffinity_variance>
0.2790319324

$$$$
[H]c1nc2c([H])c(N([H])C([H])([H])c3c([H])c([H])c([H])c([H])c3F)c([H])c(-c3c([H])c([H])c(C#N)c([H])c3[H])n2n1


 27 30  0  0  0  0  0  0  0  0999 V2000
   11.7084   24.1856   -0.1807 C   0  0  0  0  0  0  0  0  0  0  0  0
   12.0140   24.6527   -1.4333 C   0  0  0  0  0  0  0  0  0  0  0  0
   13.2923   24.9324   -1.8060 C   0  0  0  0  0  0  0  0  0  0  0  0
   14.2853   24.7386   -0.8649 N   0  0  0  0  0  0  0  0  0  0  0  0
   15.5778   24.9159   -1.0597 N   0  0  0  0  0  0  0  0  0  0  0  0
   16.2100   24.5691    0.0970 C   0  0  0  0  0  0  0  0  0  0  0  0
   15.2650   24.1817    0.9745 N   0  0  0  0  0  0  0  0  0  0  0  0
   14.0602   24.2892    0.3593 C   0  0  0  0  0  0  0  0  0  0  0  0
   12.7635   24.0046    0.7293 C   0  0  0  0  0  0  0  0  0  0  0  0
   13.7382   25.2313   -3.1468 C   0  0  0  0  0  0  0  0  0  0  0  0
   13.4216   26.4173   -3.7410 C   0  0  0  0  0  0  0  0  0  0  0  0
   14.0497   26.7744   -4.9124 C   0  0  0  0  0  0  0  0  0  0  0  0
   14.9951   25.9740   -5.5050 C   0  0  0  0  0  0  0  0  0  0  0  0
   15.3200   24.7727   -4.9131 C   0  0  0  0  0  0  0  0  0  0  0  0
   14.6821   24.4146   -3.7303 C   0  0  0  0  0  0  0  0  0  0  0  0
   15.7097   26.3728   -6.7065 C   0  0  0  0  0  0  0  0  0  0  0  0
   16.2693   26.6797   -7.7006 N   0  0  0  0  0  0  0  0  0  0  0  0
   10.4525   23.8317    0.3036 N   0  0  0  0  0  0  0  0  0  0  0  0
    9.8628   24.6689    0.6835 H   0  0  0  0  0  0  0  0  0  0  0  0
    9.8769   22.5156    0.3709 C   0  0  0  0  0  0  0  0  0  0  0  0
   11.6564   20.5275    0.2039 F   0  0  0  0  0  0  0  0  0  0  0  0
   11.2873   20.8412    1.4788 C   0  0  0  0  0  0  0  0  0  0  0  0
   11.8162   20.2123    2.5274 C   0  0  0  0  0  0  0  0  0  0  0  0
   11.4128   20.5186    3.7991 C   0  0  0  0  0  0  0  0  0  0  0  0
   10.4702   21.4721    3.9685 C   0  0  0  0  0  0  0  0  0  0  0  0
    9.9077   22.1368    2.8665 C   0  0  0  0  0  0  0  0  0  0  0  0
   10.3006   21.8389    1.6175 C   0  0  0  0  0  0  0  0  0  0  0  0
 21 22  1  0  0  0
 22 23  2  0  0  0
 23 24  1  0  0  0
 24 25  2  0  0  0
 25 26  1  0  0  0
 26 27  2  0  0  0
 27 20  1  0  0  0
 20 18  1  0  0  0
 18  1  1  0  0  0
  1  2  1  0  0  0
  2  3  2  0  0  0
  3 10  1  0  0  0
 10 11  2  0  0  0
 11 12  1  0  0  0
 12 13  2  0  0  0
 13 14  1  0  0  0
 14 15  2  0  0  0
 13 16  1  0  0  0
 16 17  3  0  0  0
  3  4  1  0  0  0
  4  5  1  0  0  0
  5  6  2  0  0  0
  6  7  1  0  0  0
  7  8  2  0  0  0
  8  9  1  0  0  0
 27 22  1  0  0  0
  9  1  2  0  0  0
 15 10  1  0  0  0
  8  4  1  0  0  0
 18 19  1  0  0  0
M  END
> <minimizedAffinity>
-9.47350

> <CNNscore>
0.6596441865

> <CNNaffinity>
7.2849836349

> <CNN_VS>
4.8054971695

> <CNNaffinity_variance>
0.1095527038

$$$$
[H]c1nc2c([H])c(N([H])C([H])([H])c3c([H])c([H])c([H])c([H])c3F)c([H])c(-c3c([H])c([H])c(C#N)c([H])c3[H])n2n1


 27 30  0  0  0  0  0  0  0  0999 V2000
   10.6181   23.6108   -0.3425 C   0  0  0  0  0  0  0  0  0  0  0  0
   11.3300   24.3662   -1.2387 C   0  0  0  0  0  0  0  0  0  0  0  0
   12.6811   24.2599   -1.3576 C   0  0  0  0  0  0  0  0  0  0  0  0
   13.3233   23.3618   -0.5268 N   0  0  0  0  0  0  0  0  0  0  0  0
   14.6154   23.0960   -0.5301 N   0  0  0  0  0  0  0  0  0  0  0  0
   14.8280   22.1234    0.4008 C   0  0  0  0  0  0  0  0  0  0  0  0
   13.6362   21.8203    0.9493 N   0  0  0  0  0  0  0  0  0  0  0  0
   12.6977   22.6017    0.3575 C   0  0  0  0  0  0  0  0  0  0  0  0
   11.3287   22.7119    0.4706 C   0  0  0  0  0  0  0  0  0  0  0  0
   13.4899   24.8539   -2.3963 C   0  0  0  0  0  0  0  0  0  0  0  0
   14.4979   24.1499   -2.9864 C   0  0  0  0  0  0  0  0  0  0  0  0
   15.0922   24.6466   -4.1241 C   0  0  0  0  0  0  0  0  0  0  0  0
   14.6985   25.8329   -4.6928 C   0  0  0  0  0  0  0  0  0  0  0  0
   13.6822   26.5524   -4.1023 C   0  0  0  0  0  0  0  0  0  0  0  0
   13.0852   26.0480   -2.9519 C   0  0  0  0  0  0  0  0  0  0  0  0
   15.2762   26.3323   -5.9297 C   0  0  0  0  0  0  0  0  0  0  0  0
   15.7248   26.7197   -6.9516 N   0  0  0  0  0  0  0  0  0  0  0  0
    9.2391   23.6035   -0.1543 N   0  0  0  0  0  0  0  0  0  0  0  0
    8.6810   24.1966   -0.8822 H   0  0  0  0  0  0  0  0  0  0  0  0
    8.4980   22.9321    0.8791 C   0  0  0  0  0  0  0  0  0  0  0  0
    9.3549   21.7680    3.1280 F   0  0  0  0  0  0  0  0  0  0  0  0
    9.0437   23.0886    3.2661 C   0  0  0  0  0  0  0  0  0  0  0  0
    9.1997   23.7188    4.4296 C   0  0  0  0  0  0  0  0  0  0  0  0
    8.8544   25.0371    4.5590 C   0  0  0  0  0  0  0  0  0  0  0  0
    8.3550   25.6853    3.4836 C   0  0  0  0  0  0  0  0  0  0  0  0
    8.1865   25.0253    2.2552 C   0  0  0  0  0  0  0  0  0  0  0  0
    8.5237   23.7322    2.1244 C   0  0  0  0  0  0  0  0  0  0  0  0
 21 22  1  0  0  0
 22 23  2  0  0  0
 23 24  1  0  0  0
 24 25  2  0  0  0
 25 26  1  0  0  0
 26 27  2  0  0  0
 27 20  1  0  0  0
 20 18  1  0  0  0
 18  1  1  0  0  0
  1  2  1  0  0  0
  2  3  2  0  0  0
  3 10  1  0  0  0
 10 11  2  0  0  0
 11 12  1  0  0  0
 12 13  2  0  0  0
 13 14  1  0  0  0
 14 15  2  0  0  0
 13 16  1  0  0  0
 16 17  3  0  0  0
  3  4  1  0  0  0
  4  5  1  0  0  0
  5  6  2  0  0  0
  6  7  1  0  0  0
  7  8  2  0  0  0
  8  9  1  0  0  0
 27 22  1  0  0  0
  9  1  2  0  0  0
 15 10  1  0  0  0
  8  4  1  0  0  0
 18 19  1  0  0  0
M  END
> <minimizedAffinity>
-9.45722

> <CNNscore>
0.6316553354

> <CNNaffinity>
7.1795096397

> <CNN_VS>
4.5349755287

> <CNNaffinity_variance>
0.2110014707

$$$$
[H]c1nc2c([H])c(N([H])C([H])([H])c3c([H])c([H])c([H])c([H])c3F)c([H])c(-c3c([H])c([H])c(C#N)c([H])c3[H])n2n1


 27 30  0  0  0  0  0  0  0  0999 V2000
   12.5512   26.8255   -3.5962 C   0  0  0  0  0  0  0  0  0  0  0  0
   12.1761   25.9066   -2.6500 C   0  0  0  0  0  0  0  0  0  0  0  0
   12.9941   24.8875   -2.2712 C   0  0  0  0  0  0  0  0  0  0  0  0
   14.2278   24.8005   -2.8874 N   0  0  0  0  0  0  0  0  0  0  0  0
   15.1627   23.9094   -2.6193 N   0  0  0  0  0  0  0  0  0  0  0  0
   16.2352   24.2024   -3.4077 C   0  0  0  0  0  0  0  0  0  0  0  0
   15.9144   25.2844   -4.1421 N   0  0  0  0  0  0  0  0  0  0  0  0
   14.6526   25.6536   -3.8055 C   0  0  0  0  0  0  0  0  0  0  0  0
   13.8205   26.6855   -4.1822 C   0  0  0  0  0  0  0  0  0  0  0  0
   12.7787   23.9984   -1.1536 C   0  0  0  0  0  0  0  0  0  0  0  0
   12.3808   24.4819    0.0580 C   0  0  0  0  0  0  0  0  0  0  0  0
   11.9564   23.6036    1.0290 C   0  0  0  0  0  0  0  0  0  0  0  0
   11.9145   22.2476    0.8163 C   0  0  0  0  0  0  0  0  0  0  0  0
   12.3167   21.7496   -0.4041 C   0  0  0  0  0  0  0  0  0  0  0  0
   12.7464   22.6401   -1.3822 C   0  0  0  0  0  0  0  0  0  0  0  0
   11.4068   21.3190    1.8130 C   0  0  0  0  0  0  0  0  0  0  0  0
   11.0242   20.5521    2.6260 N   0  0  0  0  0  0  0  0  0  0  0  0
   11.8222   27.9256   -4.0383 N   0  0  0  0  0  0  0  0  0  0  0  0
   11.6485   28.6881   -3.2758 H   0  0  0  0  0  0  0  0  0  0  0  0
   11.2745   28.1459   -5.3496 C   0  0  0  0  0  0  0  0  0  0  0  0
   10.7969   30.3936   -3.9834 F   0  0  0  0  0  0  0  0  0  0  0  0
    9.6909   29.8484   -4.5661 C   0  0  0  0  0  0  0  0  0  0  0  0
    8.4979   30.4335   -4.4699 C   0  0  0  0  0  0  0  0  0  0  0  0
    7.3923   29.8575   -5.0354 C   0  0  0  0  0  0  0  0  0  0  0  0
    7.5364   28.6863   -5.6939 C   0  0  0  0  0  0  0  0  0  0  0  0
    8.7914   28.0639   -5.7967 C   0  0  0  0  0  0  0  0  0  0  0  0
    9.8781   28.6257   -5.2430 C   0  0  0  0  0  0  0  0  0  0  0  0
 21 22  1  0  0  0
 22 23  2  0  0  0
 23 24  1  0  0  0
 24 25  2  0  0  0
 25 26  1  0  0  0
 26 27  2  0  0  0
 27 20  1  0  0  0
 20 18  1  0  0  0
 18  1  1  0  0  0
  1  2  1  0  0  0
  2  3  2  0  0  0
  3 10  1  0  0  0
 10 11  2  0  0  0
 11 12  1  0  0  0
 12 13  2  0  0  0
 13 14  1  0  0  0
 14 15  2  0  0  0
 13 16  1  0  0  0
 16 17  3  0  0  0
  3  4  1  0  0  0
  4  5  1  0  0  0
  5  6  2  0  0  0
  6  7  1  0  0  0
  7  8  2  0  0  0
  8  9  1  0  0  0
 27 22  1  0  0  0
  9  1  2  0  0  0
 15 10  1  0  0  0
  8  4  1  0  0  0
 18 19  1  0  0  0
M  END
> <minimizedAffinity>
6.92078

> <CNNscore>
0.5050572753

> <CNNaffinity>
6.7071213722

> <CNN_VS>
3.3874804974

> <CNNaffinity_variance>
0.5893375278

$$$$
[H]c1nc2c([H])c(N([H])C([H])([H])c3c([H])c([H])c([H])c([H])c3F)c([H])c(-c3c([H])c([H])c(C#N)c([H])c3[H])n2n1


 27 30  0  0  0  0  0  0  0  0999 V2000
   11.1244   21.9409    0.3998 C   0  0  0  0  0  0  0  0  0  0  0  0
   11.5598   22.9492   -0.4214 C   0  0  0  0  0  0  0  0  0  0  0  0
   12.8829   23.1867   -0.6314 C   0  0  0  0  0  0  0  0  0  0  0  0
   13.7865   22.3751    0.0275 N   0  0  0  0  0  0  0  0  0  0  0  0
   15.0994   22.4307   -0.0871 N   0  0  0  0  0  0  0  0  0  0  0  0
   15.6129   21.4317    0.6850 C   0  0  0  0  0  0  0  0  0  0  0  0
   14.5771   20.7859    1.2533 N   0  0  0  0  0  0  0  0  0  0  0  0
   13.4346   21.3846    0.8314 C   0  0  0  0  0  0  0  0  0  0  0  0
   12.0928   21.1472    1.0371 C   0  0  0  0  0  0  0  0  0  0  0  0
   13.4370   24.0803   -1.6216 C   0  0  0  0  0  0  0  0  0  0  0  0
   14.4425   23.6719   -2.4475 C   0  0  0  0  0  0  0  0  0  0  0  0
   14.7868   24.4512   -3.5285 C   0  0  0  0  0  0  0  0  0  0  0  0
   14.1442   25.6319   -3.8091 C   0  0  0  0  0  0  0  0  0  0  0  0
   13.1283   26.0538   -2.9789 C   0  0  0  0  0  0  0  0  0  0  0  0
   12.7843   25.2644   -1.8868 C   0  0  0  0  0  0  0  0  0  0  0  0
   14.4576   26.4280   -4.9843 C   0  0  0  0  0  0  0  0  0  0  0  0
   14.6887   27.0957   -5.9310 N   0  0  0  0  0  0  0  0  0  0  0  0
    9.8066   21.5788    0.6639 N   0  0  0  0  0  0  0  0  0  0  0  0
    9.6883   20.8812    1.4960 H   0  0  0  0  0  0  0  0  0  0  0  0
    8.6236   22.0005   -0.0363 C   0  0  0  0  0  0  0  0  0  0  0  0
    6.7028   20.9979    1.5296 F   0  0  0  0  0  0  0  0  0  0  0  0
    6.8240   20.3721    0.3240 C   0  0  0  0  0  0  0  0  0  0  0  0
    6.0134   19.3731   -0.0224 C   0  0  0  0  0  0  0  0  0  0  0  0
    6.1678   18.7359   -1.2240 C   0  0  0  0  0  0  0  0  0  0  0  0
    7.1563   19.1419   -2.0511 C   0  0  0  0  0  0  0  0  0  0  0  0
    8.0152   20.1932   -1.6903 C   0  0  0  0  0  0  0  0  0  0  0  0
    7.8671   20.8205   -0.5123 C   0  0  0  0  0  0  0  0  0  0  0  0
 21 22  1  0  0  0
 22 23  2  0  0  0
 23 24  1  0  0  0
 24 25  2  0  0  0
 25 26  1  0  0  0
 26 27  2  0  0  0
 27 20  1  0  0  0
 20 18  1  0  0  0
 18  1  1  0  0  0
  1  2  1  0  0  0
  2  3  2  0  0  0
  3 10  1  0  0  0
 10 11  2  0  0  0
 11 12  1  0  0  0
 12 13  2  0  0  0
 13 14  1  0  0  0
 14 15  2  0  0  0
 13 16  1  0  0  0
 16 17  3  0  0  0
  3  4  1  0  0  0
  4  5  1  0  0  0
  5  6  2  0  0  0
  6  7  1  0  0  0
  7  8  2  0  0  0
  8  9  1  0  0  0
 27 22  1  0  0  0
  9  1  2  0  0  0
 15 10  1  0  0  0
  8  4  1  0  0  0
 18 19  1  0  0  0
M  END
> <minimizedAffinity>
-7.88070

> <CNNscore>
0.4991060197

> <CNNaffinity>
7.0420904160

> <CNN_VS>
3.5147497654

> <CNNaffinity_variance>
0.3888397217

$$$$
[H]Oc1c([H])c(-c2c([H])c([H])c(C#N)c(F)c2[H])n2nc([H])nc2c1[H]


 20 22  0  0  0  0  0  0  0  0999 V2000
    9.6891   23.9953   -0.5214 O   0  0  0  0  0  0  0  0  0  0  0  0
   11.0843   24.0947   -0.6094 C   0  0  0  0  0  0  0  0  0  0  0  0
   11.6957   24.5657   -1.7554 C   0  0  0  0  0  0  0  0  0  0  0  0
   13.0651   24.6716   -1.8636 C   0  0  0  0  0  0  0  0  0  0  0  0
   13.7865   24.2908   -0.7891 N   0  0  0  0  0  0  0  0  0  0  0  0
   15.0885   24.2627   -0.5580 N   0  0  0  0  0  0  0  0  0  0  0  0
   15.3668   23.8074    0.6555 C   0  0  0  0  0  0  0  0  0  0  0  0
   14.1884   23.5265    1.2400 N   0  0  0  0  0  0  0  0  0  0  0  0
   13.2264   23.8265    0.3458 C   0  0  0  0  0  0  0  0  0  0  0  0
   11.8373   23.7092    0.4808 C   0  0  0  0  0  0  0  0  0  0  0  0
    9.1744   24.7963   -0.1690 H   0  0  0  0  0  0  0  0  0  0  0  0
   13.7129   25.1725   -3.0825 C   0  0  0  0  0  0  0  0  0  0  0  0
   13.3633   26.3691   -3.6641 C   0  0  0  0  0  0  0  0  0  0  0  0
   13.9809   26.8290   -4.8113 C   0  0  0  0  0  0  0  0  0  0  0  0
   14.9765   26.0399   -5.3678 C   0  0  0  0  0  0  0  0  0  0  0  0
   15.3334   24.8425   -4.7946 C   0  0  0  0  0  0  0  0  0  0  0  0
   16.3046   24.0800   -5.3437 F   0  0  0  0  0  0  0  0  0  0  0  0
   14.7069   24.3970   -3.6486 C   0  0  0  0  0  0  0  0  0  0  0  0
   15.6103   26.5376   -6.5670 C   0  0  0  0  0  0  0  0  0  0  0  0
   16.1239   26.9175   -7.5320 N   0  0  0  0  0  0  0  0  0  0  0  0
  1  2  1  0  0  0
  2  3  1  0  0  0
  3  4  2  0  0  0
  4 12  1  0  0  0
 12 13  2  0  0  0
 13 14  1  0  0  0
 14 15  2  0  0  0
 15 19  1  0  0  0
 19 20  3  0  0  0
 15 16  1  0  0  0
 16 17  1  0  0  0
 16 18  2  0  0  0
  4  5  1  0  0  0
  5  6  1  0  0  0
  6  7  2  0  0  0
  7  8  1  0  0  0
  8  9  2  0  0  0
  9 10  1  0  0  0
 10  2  2  0  0  0
 18 12  1  0  0  0
  9  5  1  0  0  0
  1 11  1  0  0  0
M  END
> <minimizedAffinity>
-8.16897

> <CNNscore>
0.7820688486

> <CNNaffinity>
6.6167349815

> <CNN_VS>
5.1747422218

> <CNNaffinity_variance>
0.1388579756

$$$$
[H]Oc1c([H])c(-c2c([H])c([H])c(C#N)c(F)c2[H])n2nc([H])nc2c1[H]


 20 22  0  0  0  0  0  0  0  0999 V2000
   15.8393   21.3733    1.6054 O   0  0  0  0  0  0  0  0  0  0  0  0
   14.8193   21.6527    0.6858 C   0  0  0  0  0  0  0  0  0  0  0  0
   15.0212   22.5346   -0.3584 C   0  0  0  0  0  0  0  0  0  0  0  0
   14.0327   22.8238   -1.2736 C   0  0  0  0  0  0  0  0  0  0  0  0
   12.8491   22.2001   -1.1005 N   0  0  0  0  0  0  0  0  0  0  0  0
   11.7136   22.2460   -1.7774 N   0  0  0  0  0  0  0  0  0  0  0  0
   10.7889   21.4574   -1.2480 C   0  0  0  0  0  0  0  0  0  0  0  0
   11.3515   20.8716   -0.1759 N   0  0  0  0  0  0  0  0  0  0  0  0
   12.6143   21.3338   -0.0948 C   0  0  0  0  0  0  0  0  0  0  0  0
   13.6021   21.0232    0.8483 C   0  0  0  0  0  0  0  0  0  0  0  0
   16.4676   20.6022    1.4023 H   0  0  0  0  0  0  0  0  0  0  0  0
   14.2495   23.7614   -2.3827 C   0  0  0  0  0  0  0  0  0  0  0  0
   15.1437   23.5088   -3.3970 C   0  0  0  0  0  0  0  0  0  0  0  0
   15.3381   24.3997   -4.4350 C   0  0  0  0  0  0  0  0  0  0  0  0
   14.5967   25.5717   -4.4258 C   0  0  0  0  0  0  0  0  0  0  0  0
   13.7004   25.8339   -3.4169 C   0  0  0  0  0  0  0  0  0  0  0  0
   12.9821   26.9786   -3.4159 F   0  0  0  0  0  0  0  0  0  0  0  0
   13.5176   24.9338   -2.3870 C   0  0  0  0  0  0  0  0  0  0  0  0
   14.8140   26.4905   -5.5193 C   0  0  0  0  0  0  0  0  0  0  0  0
   14.9998   27.2377   -6.3835 N   0  0  0  0  0  0  0  0  0  0  0  0
  1  2  1  0  0  0
  2  3  1  0  0  0
  3  4  2  0  0  0
  4 12  1  0  0  0
 12 13  2  0  0  0
 13 14  1  0  0  0
 14 15  2  0  0  0
 15 19  1  0  0  0
 19 20  3  0  0  0
 15 16  1  0  0  0
 16 17  1  0  0  0
 16 18  2  0  0  0
  4  5  1  0  0  0
  5  6  1  0  0  0
  6  7  2  0  0  0
  7  8  1  0  0  0
  8  9  2  0  0  0
  9 10  1  0  0  0
 10  2  2  0  0  0
 18 12  1  0  0  0
  9  5  1  0  0  0
  1 11  1  0  0  0
M  END
> <minimizedAffinity>
-9.02501

> <CNNscore>
0.7424974442

> <CNNaffinity>
6.6686887741

> <CNN_VS>
4.9514842033

> <CNNaffinity_variance>
0.1297742128

$$$$
[H]Oc1c([H])c(-c2c([H])c([H])c(C#N)c(F)c2[H])n2nc([H])nc2c1[H]


 20 22  0  0  0  0  0  0  0  0999 V2000
   10.0901   24.3668    1.5705 O   0  0  0  0  0  0  0  0  0  0  0  0
   11.2179   23.8148    0.9479 C   0  0  0  0  0  0  0  0  0  0  0  0
   11.7584   24.3870   -0.1875 C   0  0  0  0  0  0  0  0  0  0  0  0
   12.8663   23.8610   -0.8156 C   0  0  0  0  0  0  0  0  0  0  0  0
   13.4023   22.7522   -0.2651 N   0  0  0  0  0  0  0  0  0  0  0  0
   14.4417   22.0067   -0.6022 N   0  0  0  0  0  0  0  0  0  0  0  0
   14.6150   20.9916    0.2326 C   0  0  0  0  0  0  0  0  0  0  0  0
   13.6411   21.0829    1.1559 N   0  0  0  0  0  0  0  0  0  0  0  0
   12.9036   22.1656    0.8413 C   0  0  0  0  0  0  0  0  0  0  0  0
   11.7788   22.6804    1.4981 C   0  0  0  0  0  0  0  0  0  0  0  0
   10.2371   25.0650    2.2928 H   0  0  0  0  0  0  0  0  0  0  0  0
   13.4392   24.4708   -2.0224 C   0  0  0  0  0  0  0  0  0  0  0  0
   14.4996   23.9123   -2.6976 C   0  0  0  0  0  0  0  0  0  0  0  0
   15.0293   24.4963   -3.8322 C   0  0  0  0  0  0  0  0  0  0  0  0
   14.4546   25.6775   -4.2773 C   0  0  0  0  0  0  0  0  0  0  0  0
   13.3947   26.2440   -3.6098 C   0  0  0  0  0  0  0  0  0  0  0  0
   12.8408   27.3951   -4.0506 F   0  0  0  0  0  0  0  0  0  0  0  0
   12.8769   25.6482   -2.4779 C   0  0  0  0  0  0  0  0  0  0  0  0
   15.0223   26.2729   -5.4649 C   0  0  0  0  0  0  0  0  0  0  0  0
   15.4591   26.7490   -6.4252 N   0  0  0  0  0  0  0  0  0  0  0  0
  1  2  1  0  0  0
  2  3  1  0  0  0
  3  4  2  0  0  0
  4 12  1  0  0  0
 12 13  2  0  0  0
 13 14  1  0  0  0
 14 15  2  0  0  0
 15 19  1  0  0  0
 19 20  3  0  0  0
 15 16  1  0  0  0
 16 17  1  0  0  0
 16 18  2  0  0  0
  4  5  1  0  0  0
  5  6  1  0  0  0
  6  7  2  0  0  0
  7  8  1  0  0  0
  8  9  2  0  0  0
  9 10  1  0  0  0
 10  2  2  0  0  0
 18 12  1  0  0  0
  9  5  1  0  0  0
  1 11  1  0  0  0
M  END
> <minimizedAffinity>
-8.82841

> <CNNscore>
0.6659970284

> <CNNaffinity>
6.5761671066

> <CNN_VS>
4.3797078133

> <CNNaffinity_variance>
0.2497361600

$$$$
[H]Oc1c([H])c(-c2c([H])c([H])c(C#N)c(F)c2[H])n2nc([H])nc2c1[H]


 20 22  0  0  0  0  0  0  0  0999 V2000
   13.5248   26.3234   -4.9940 O   0  0  0  0  0  0  0  0  0  0  0  0
   13.3587   25.8142   -3.6989 C   0  0  0  0  0  0  0  0  0  0  0  0
   14.4431   25.6102   -2.8673 C   0  0  0  0  0  0  0  0  0  0  0  0
   14.3027   25.1107   -1.5909 C   0  0  0  0  0  0  0  0  0  0  0  0
   13.0465   24.8280   -1.1884 N   0  0  0  0  0  0  0  0  0  0  0  0
   12.5642   24.3474   -0.0545 N   0  0  0  0  0  0  0  0  0  0  0  0
   11.2448   24.2245   -0.0897 C   0  0  0  0  0  0  0  0  0  0  0  0
   10.8520   24.6458   -1.3052 N   0  0  0  0  0  0  0  0  0  0  0  0
   11.9644   25.0135   -1.9705 C   0  0  0  0  0  0  0  0  0  0  0  0
   12.0802   25.5196   -3.2712 C   0  0  0  0  0  0  0  0  0  0  0  0
   13.4953   27.3305   -5.1187 H   0  0  0  0  0  0  0  0  0  0  0  0
   15.4566   24.8947   -0.7088 C   0  0  0  0  0  0  0  0  0  0  0  0
   15.3219   24.7036    0.6468 C   0  0  0  0  0  0  0  0  0  0  0  0
   16.4161   24.5012    1.4658 C   0  0  0  0  0  0  0  0  0  0  0  0
   17.6711   24.4963    0.8753 C   0  0  0  0  0  0  0  0  0  0  0  0
   17.8166   24.6865   -0.4784 C   0  0  0  0  0  0  0  0  0  0  0  0
   19.0433   24.6802   -1.0455 F   0  0  0  0  0  0  0  0  0  0  0  0
   16.7136   24.8873   -1.2830 C   0  0  0  0  0  0  0  0  0  0  0  0
   18.8026   24.2834    1.7479 C   0  0  0  0  0  0  0  0  0  0  0  0
   19.7155   24.1314    2.4429 N   0  0  0  0  0  0  0  0  0  0  0  0
  1  2  1  0  0  0
  2  3  1  0  0  0
  3  4  2  0  0  0
  4 12  1  0  0  0
 12 13  2  0  0  0
 13 14  1  0  0  0
 14 15  2  0  0  0
 15 19  1  0  0  0
 19 20  3  0  0  0
 15 16  1  0  0  0
 16 17  1  0  0  0
 16 18  2  0  0  0
  4  5  1  0  0  0
  5  6  1  0  0  0
  6  7  2  0  0  0
  7  8  1  0  0  0
  8  9  2  0  0  0
  9 10  1  0  0  0
 10  2  2  0  0  0
 18 12  1  0  0  0
  9  5  1  0  0  0
  1 11  1  0  0  0
M  END
> <minimizedAffinity>
6.04595

> <CNNscore>
0.6510575414

> <CNNaffinity>
6.4216551781

> <CNN_VS>
4.1808671951

> <CNNaffinity_variance>
1.0602604151

$$$$
[H]Oc1c([H])c(-c2c([H])c([H])c(C#N)c(F)c2[H])n2nc([H])nc2c1[H]


 20 22  0  0  0  0  0  0  0  0999 V2000
   18.8513   28.5078   -3.4325 O   0  0  0  0  0  0  0  0  0  0  0  0
   17.6717   27.7904   -3.6738 C   0  0  0  0  0  0  0  0  0  0  0  0
   17.2492   26.7994   -2.8088 C   0  0  0  0  0  0  0  0  0  0  0  0
   16.0932   26.0820   -3.0265 C   0  0  0  0  0  0  0  0  0  0  0  0
   15.3880   26.3955   -4.1330 N   0  0  0  0  0  0  0  0  0  0  0  0
   14.2604   25.9174   -4.6327 N   0  0  0  0  0  0  0  0  0  0  0  0
   13.9203   26.5266   -5.7599 C   0  0  0  0  0  0  0  0  0  0  0  0
   14.8732   27.4442   -6.0033 N   0  0  0  0  0  0  0  0  0  0  0  0
   15.7678   27.3553   -4.9999 C   0  0  0  0  0  0  0  0  0  0  0  0
   16.9382   28.0985   -4.8013 C   0  0  0  0  0  0  0  0  0  0  0  0
   18.7889   29.3588   -2.8824 H   0  0  0  0  0  0  0  0  0  0  0  0
   15.6459   25.0291   -2.1059 C   0  0  0  0  0  0  0  0  0  0  0  0
   15.7454   25.1540   -0.7396 C   0  0  0  0  0  0  0  0  0  0  0  0
   15.3206   24.1556    0.1157 C   0  0  0  0  0  0  0  0  0  0  0  0
   14.7839   23.0082   -0.4491 C   0  0  0  0  0  0  0  0  0  0  0  0
   14.6800   22.8733   -1.8133 C   0  0  0  0  0  0  0  0  0  0  0  0
   14.1557   21.7518   -2.3551 F   0  0  0  0  0  0  0  0  0  0  0  0
   15.1089   23.8798   -2.6543 C   0  0  0  0  0  0  0  0  0  0  0  0
   14.3455   21.9757    0.4613 C   0  0  0  0  0  0  0  0  0  0  0  0
   13.9808   21.1425    1.1771 N   0  0  0  0  0  0  0  0  0  0  0  0
  1  2  1  0  0  0
  2  3  1  0  0  0
  3  4  2  0  0  0
  4 12  1  0  0  0
 12 13  2  0  0  0
 13 14  1  0  0  0
 14 15  2  0  0  0
 15 19  1  0  0  0
 19 20  3  0  0  0
 15 16  1  0  0  0
 16 17  1  0  0  0
 16 18  2  0  0  0
  4  5  1  0  0  0
  5  6  1  0  0  0
  6  7  2  0  0  0
  7  8  1  0  0  0
  8  9  2  0  0  0
  9 10  1  0  0  0
 10  2  2  0  0  0
 18 12  1  0  0  0
  9  5  1  0  0  0
  1 11  1  0  0  0
M  END
> <minimizedAffinity>
-6.84985

> <CNNscore>
0.5519599915

> <CNNaffinity>
6.5363817215

> <CNN_VS>
3.6078212261

> <CNNaffinity_variance>
0.3057904541

$$$$
[H]Oc1c([H])c(-c2c([H])c([H])c(C#N)c(F)c2[H])n2nc([H])nc2c1[H]


 20 22  0  0  0  0  0  0  0  0999 V2000
   11.4938   26.1339   -3.3852 O   0  0  0  0  0  0  0  0  0  0  0  0
   11.7753   25.3176   -2.2813 C   0  0  0  0  0  0  0  0  0  0  0  0
   13.0439   25.2659   -1.7365 C   0  0  0  0  0  0  0  0  0  0  0  0
   13.3426   24.4707   -0.6518 C   0  0  0  0  0  0  0  0  0  0  0  0
   12.3298   23.7392   -0.1428 N   0  0  0  0  0  0  0  0  0  0  0  0
   12.2685   22.8909    0.8702 N   0  0  0  0  0  0  0  0  0  0  0  0
   11.0515   22.3880    1.0225 C   0  0  0  0  0  0  0  0  0  0  0  0
   10.2862   22.9365    0.0620 N   0  0  0  0  0  0  0  0  0  0  0  0
   11.0797   23.7631   -0.6465 C   0  0  0  0  0  0  0  0  0  0  0  0
   10.7505   24.5627   -1.7482 C   0  0  0  0  0  0  0  0  0  0  0  0
   11.1884   27.0861   -3.2097 H   0  0  0  0  0  0  0  0  0  0  0  0
   14.6917   24.4172   -0.0743 C   0  0  0  0  0  0  0  0  0  0  0  0
   15.4968   25.5285    0.0212 C   0  0  0  0  0  0  0  0  0  0  0  0
   16.7645   25.4645    0.5669 C   0  0  0  0  0  0  0  0  0  0  0  0
   17.2088   24.2319    1.0218 C   0  0  0  0  0  0  0  0  0  0  0  0
   16.4123   23.1152    0.9311 C   0  0  0  0  0  0  0  0  0  0  0  0
   16.8533   21.9181    1.3768 F   0  0  0  0  0  0  0  0  0  0  0  0
   15.1482   23.1956    0.3833 C   0  0  0  0  0  0  0  0  0  0  0  0
   18.5368   24.1851    1.5889 C   0  0  0  0  0  0  0  0  0  0  0  0
   19.6003   24.1276    2.0418 N   0  0  0  0  0  0  0  0  0  0  0  0
  1  2  1  0  0  0
  2  3  1  0  0  0
  3  4  2  0  0  0
  4 12  1  0  0  0
 12 13  2  0  0  0
 13 14  1  0  0  0
 14 15  2  0  0  0
 15 19  1  0  0  0
 19 20  3  0  0  0
 15 16  1  0  0  0
 16 17  1  0  0  0
 16 18  2  0  0  0
  4  5  1  0  0  0
  5  6  1  0  0  0
  6  7  2  0  0  0
  7  8  1  0  0  0
  8  9  2  0  0  0
  9 10  1  0  0  0
 10  2  2  0  0  0
 18 12  1  0  0  0
  9  5  1  0  0  0
  1 11  1  0  0  0
M  END
> <minimizedAffinity>
3.35096

> <CNNscore>
0.5076421499

> <CNNaffinity>
6.1559228897

> <CNN_VS>
3.1250059605

> <CNNaffinity_variance>
1.0378413200

$$$$
[H]Oc1c([H])c(-c2c([H])c([H])c(C#N)c(F)c2[H])n2nc([H])nc2c1[H]


 20 22  0  0  0  0  0  0  0  0999 V2000
   14.0330   20.1651    1.4837 O   0  0  0  0  0  0  0  0  0  0  0  0
   13.3141   21.3307    1.1859 C   0  0  0  0  0  0  0  0  0  0  0  0
   13.7077   22.1703    0.1617 C   0  0  0  0  0  0  0  0  0  0  0  0
   13.0159   23.3209   -0.1482 C   0  0  0  0  0  0  0  0  0  0  0  0
   11.9275   23.5909    0.6018 N   0  0  0  0  0  0  0  0  0  0  0  0
   11.0561   24.5857    0.5767 N   0  0  0  0  0  0  0  0  0  0  0  0
   10.1250   24.4526    1.5108 C   0  0  0  0  0  0  0  0  0  0  0  0
   10.4058   23.3166    2.1740 N   0  0  0  0  0  0  0  0  0  0  0  0
   11.5125   22.7965    1.6087 C   0  0  0  0  0  0  0  0  0  0  0  0
   12.1980   21.6220    1.9434 C   0  0  0  0  0  0  0  0  0  0  0  0
   13.7680   19.3066    1.0111 H   0  0  0  0  0  0  0  0  0  0  0  0
   13.4359   24.2119   -1.2372 C   0  0  0  0  0  0  0  0  0  0  0  0
   12.5613   25.0639   -1.8709 C   0  0  0  0  0  0  0  0  0  0  0  0
   12.9696   25.8973   -2.8944 C   0  0  0  0  0  0  0  0  0  0  0  0
   14.3038   25.8504   -3.2704 C   0  0  0  0  0  0  0  0  0  0  0  0
   15.1860   25.0025   -2.6437 C   0  0  0  0  0  0  0  0  0  0  0  0
   16.4843   24.9633   -3.0166 F   0  0  0  0  0  0  0  0  0  0  0  0
   14.7626   24.1761   -1.6229 C   0  0  0  0  0  0  0  0  0  0  0  0
   14.7115   26.7290   -4.3423 C   0  0  0  0  0  0  0  0  0  0  0  0
   15.0332   27.4488   -5.1897 N   0  0  0  0  0  0  0  0  0  0  0  0
  1  2  1  0  0  0
  2  3  1  0  0  0
  3  4  2  0  0  0
  4 12  1  0  0  0
 12 13  2  0  0  0
 13 14  1  0  0  0
 14 15  2  0  0  0
 15 19  1  0  0  0
 19 20  3  0  0  0
 15 16  1  0  0  0
 16 17  1  0  0  0
 16 18  2  0  0  0
  4  5  1  0  0  0
  5  6  1  0  0  0
  6  7  2  0  0  0
  7  8  1  0  0  0
  8  9  2  0  0  0
  9 10  1  0  0  0
 10  2  2  0  0  0
 18 12  1  0  0  0
  9  5  1  0  0  0
  1 11  1  0  0  0
M  END
> <minimizedAffinity>
-7.72947

> <CNNscore>
0.4988540113

> <CNNaffinity>
6.3817148209

> <CNN_VS>
3.1835439205

> <CNNaffinity_variance>
0.2457087338

$$$$
[H]Oc1c([H])c(-c2c([H])c([H])c(C#N)c(F)c2[H])n2nc([H])nc2c1[H]


 20 22  0  0  0  0  0  0  0  0999 V2000
   13.9523   27.0467   -5.5335 O   0  0  0  0  0  0  0  0  0  0  0  0
   14.3159   26.3992   -4.3449 C   0  0  0  0  0  0  0  0  0  0  0  0
   13.3982   25.6572   -3.6265 C   0  0  0  0  0  0  0  0  0  0  0  0
   13.7340   25.0127   -2.4559 C   0  0  0  0  0  0  0  0  0  0  0  0
   15.0112   25.1414   -2.0413 N   0  0  0  0  0  0  0  0  0  0  0  0
   15.6552   24.6667   -0.9879 N   0  0  0  0  0  0  0  0  0  0  0  0
   16.9250   25.0470   -0.9705 C   0  0  0  0  0  0  0  0  0  0  0  0
   17.1140   25.8050   -2.0655 N   0  0  0  0  0  0  0  0  0  0  0  0
   15.9346   25.8563   -2.7146 C   0  0  0  0  0  0  0  0  0  0  0  0
   15.6187   26.5206   -3.9064 C   0  0  0  0  0  0  0  0  0  0  0  0
   14.0536   26.5367   -6.4055 H   0  0  0  0  0  0  0  0  0  0  0  0
   12.7570   24.2245   -1.6939 C   0  0  0  0  0  0  0  0  0  0  0  0
   11.6462   24.7908   -1.1127 C   0  0  0  0  0  0  0  0  0  0  0  0
   10.7345   24.0377   -0.3982 C   0  0  0  0  0  0  0  0  0  0  0  0
   10.9736   22.6765   -0.2815 C   0  0  0  0  0  0  0  0  0  0  0  0
   12.0806   22.1007   -0.8584 C   0  0  0  0  0  0  0  0  0  0  0  0
   12.3058   20.7735   -0.7397 F   0  0  0  0  0  0  0  0  0  0  0  0
   12.9820   22.8666   -1.5691 C   0  0  0  0  0  0  0  0  0  0  0  0
   10.0092   21.9061    0.4693 C   0  0  0  0  0  0  0  0  0  0  0  0
    9.2512   21.2759    1.0757 N   0  0  0  0  0  0  0  0  0  0  0  0
  1  2  1  0  0  0
  2  3  1  0  0  0
  3  4  2  0  0  0
  4 12  1  0  0  0
 12 13  2  0  0  0
 13 14  1  0  0  0
 14 15  2  0  0  0
 15 19  1  0  0  0
 19 20  3  0  0  0
 15 16  1  0  0  0
 16 17  1  0  0  0
 16 18  2  0  0  0
  4  5  1  0  0  0
  5  6  1  0  0  0
  6  7  2  0  0  0
  7  8  1  0  0  0
  8  9  2  0  0  0
  9 10  1  0  0  0
 10  2  2  0  0  0
 18 12  1  0  0  0
  9  5  1  0  0  0
  1 11  1  0  0  0
M  END
> <minimizedAffinity>
-7.60826

> <CNNscore>
0.4720709324

> <CNNaffinity>
6.3984069824

> <CNN_VS>
3.0205018520

> <CNNaffinity_variance>
0.3243137896

$$$$
[H]Oc1c([H])c(-c2c([H])c([H])c(C#N)c(F)c2[H])n2nc([H])nc2c1[H]


 20 22  0  0  0  0  0  0  0  0999 V2000
    8.7513   24.8865    3.1700 O   0  0  0  0  0  0  0  0  0  0  0  0
    9.7835   24.1233    2.6075 C   0  0  0  0  0  0  0  0  0  0  0  0
   10.5076   24.5882    1.5266 C   0  0  0  0  0  0  0  0  0  0  0  0
   11.5261   23.8548    0.9580 C   0  0  0  0  0  0  0  0  0  0  0  0
   11.7848   22.6519    1.5112 N   0  0  0  0  0  0  0  0  0  0  0  0
   12.6712   21.7136    1.2222 N   0  0  0  0  0  0  0  0  0  0  0  0
   12.5749   20.6729    2.0376 C   0  0  0  0  0  0  0  0  0  0  0  0
   11.5778   20.9493    2.8971 N   0  0  0  0  0  0  0  0  0  0  0  0
   11.1006   22.1647    2.5655 C   0  0  0  0  0  0  0  0  0  0  0  0
   10.0613   22.8903    3.1612 C   0  0  0  0  0  0  0  0  0  0  0  0
    8.9866   25.5293    3.9197 H   0  0  0  0  0  0  0  0  0  0  0  0
   12.2945   24.3508   -0.1908 C   0  0  0  0  0  0  0  0  0  0  0  0
   11.6950   24.9459   -1.2765 C   0  0  0  0  0  0  0  0  0  0  0  0
   12.4298   25.4085   -2.3512 C   0  0  0  0  0  0  0  0  0  0  0  0
   13.8073   25.2540   -2.3045 C   0  0  0  0  0  0  0  0  0  0  0  0
   14.4163   24.6606   -1.2243 C   0  0  0  0  0  0  0  0  0  0  0  0
   15.7592   24.5141   -1.1871 F   0  0  0  0  0  0  0  0  0  0  0  0
   13.6683   24.2037   -0.1584 C   0  0  0  0  0  0  0  0  0  0  0  0
   14.5582   25.7437   -3.4374 C   0  0  0  0  0  0  0  0  0  0  0  0
   15.1531   26.1205   -4.3559 N   0  0  0  0  0  0  0  0  0  0  0  0
  1  2  1  0  0  0
  2  3  1  0  0  0
  3  4  2  0  0  0
  4 12  1  0  0  0
 12 13  2  0  0  0
 13 14  1  0  0  0
 14 15  2  0  0  0
 15 19  1  0  0  0
 19 20  3  0  0  0
 15 16  1  0  0  0
 16 17  1  0  0  0
 16 18  2  0  0  0
  4  5  1  0  0  0
  5  6  1  0  0  0
  6  7  2  0  0  0
  7  8  1  0  0  0
  8  9  2  0  0  0
  9 10  1  0  0  0
 10  2  2  0  0  0
 18 12  1  0  0  0
  9  5  1  0  0  0
  1 11  1  0  0  0
M  END
> <minimizedAffinity>
-7.38188

> <CNNscore>
0.3869376779

> <CNNaffinity>
5.9700355530

> <CNN_VS>
2.3100316525

> <CNNaffinity_variance>
0.1288426816

$$$$
[H]c1nc(OC([H])([H])[H])c([H])c(N2C(=O)N(c3c([H])c([H])c(-c4c([H])c([H])c5c(c([H])nn5[H])c4[H])c([H])c3[H])C(=O)C23C([H])([H])C([H])([H])N(C([H])([H])c2nc([H])c([H])c([H])c2C([H])([H])[H])C([H])([H])C3([H])[H])n1


 44 50  0  0  0  0  0  0  0  0999 V2000
   14.3601   24.5924   -1.9931 N   0  0  0  0  0  0  0  0  0  0  0  0
   13.1866   23.8477   -2.4155 C   0  0  0  0  0  0  0  0  0  0  0  0
   12.7897   23.8563   -3.6236 O   0  0  0  0  0  0  0  0  0  0  0  0
   12.6232   23.1688   -1.3051 N   0  0  0  0  0  0  0  0  0  0  0  0
   13.4717   23.5087   -0.1894 C   0  0  0  0  0  0  0  0  0  0  0  0
   13.1336   23.4141    1.0271 O   0  0  0  0  0  0  0  0  0  0  0  0
   14.7548   23.9668   -0.7622 C   0  0  0  0  0  0  0  0  0  0  0  0
   15.5636   24.8433    0.1614 C   0  0  0  0  0  0  0  0  0  0  0  0
   17.0538   24.6187   -0.0918 C   0  0  0  0  0  0  0  0  0  0  0  0
   17.4683   23.2867    0.4079 N   0  0  0  0  0  0  0  0  0  0  0  0
   16.3199   22.3927    0.3039 C   0  0  0  0  0  0  0  0  0  0  0  0
   15.6105   22.7277   -1.0157 C   0  0  0  0  0  0  0  0  0  0  0  0
   15.2792   26.8668   -4.7584 C   0  0  0  0  0  0  0  0  0  0  0  0
   14.7259   25.7807   -4.0796 C   0  0  0  0  0  0  0  0  0  0  0  0
   14.9094   25.6753   -2.7226 C   0  0  0  0  0  0  0  0  0  0  0  0
   15.6127   26.6155   -2.0926 N   0  0  0  0  0  0  0  0  0  0  0  0
   16.1585   27.6737   -2.7200 C   0  0  0  0  0  0  0  0  0  0  0  0
   15.9771   27.7741   -4.0456 N   0  0  0  0  0  0  0  0  0  0  0  0
   14.4065   25.9924   -6.8833 C   0  0  0  0  0  0  0  0  0  0  0  0
   15.0807   26.9533   -6.1264 O   0  0  0  0  0  0  0  0  0  0  0  0
   11.4692   22.3313   -1.3043 C   0  0  0  0  0  0  0  0  0  0  0  0
   10.8036   22.0415   -2.4791 C   0  0  0  0  0  0  0  0  0  0  0  0
    9.6757   21.2208   -2.5165 C   0  0  0  0  0  0  0  0  0  0  0  0
    9.2299   20.6945   -1.3343 C   0  0  0  0  0  0  0  0  0  0  0  0
    9.8842   20.9731   -0.1376 C   0  0  0  0  0  0  0  0  0  0  0  0
   10.9842   21.7805   -0.1427 C   0  0  0  0  0  0  0  0  0  0  0  0
    8.0505   19.8211   -1.3294 C   0  0  0  0  0  0  0  0  0  0  0  0
    7.1434   19.8882   -2.3458 C   0  0  0  0  0  0  0  0  0  0  0  0
    6.0417   19.0672   -2.3203 C   0  0  0  0  0  0  0  0  0  0  0  0
    5.8466   18.1747   -1.2733 C   0  0  0  0  0  0  0  0  0  0  0  0
    4.8813   17.2743   -0.9968 N   0  0  0  0  0  0  0  0  0  0  0  0
    5.1546   16.6591    0.1410 N   0  0  0  0  0  0  0  0  0  0  0  0
    6.3070   17.1291    0.6565 C   0  0  0  0  0  0  0  0  0  0  0  0
    6.7488   18.0890   -0.2360 C   0  0  0  0  0  0  0  0  0  0  0  0
    7.8358   18.9284   -0.3019 C   0  0  0  0  0  0  0  0  0  0  0  0
    4.0584   17.1092   -1.6028 H   0  0  0  0  0  0  0  0  0  0  0  0
   17.8832   23.4306    1.7859 C   0  0  0  0  0  0  0  0  0  0  0  0
   19.0520   24.2786    1.9228 C   0  0  0  0  0  0  0  0  0  0  0  0
   19.2722   25.1704    2.8851 N   0  0  0  0  0  0  0  0  0  0  0  0
   20.3671   25.9374    3.0127 C   0  0  0  0  0  0  0  0  0  0  0  0
   21.3889   25.8280    2.0838 C   0  0  0  0  0  0  0  0  0  0  0  0
   21.2194   24.9176    1.0582 C   0  0  0  0  0  0  0  0  0  0  0  0
   20.0841   24.1627    0.9775 C   0  0  0  0  0  0  0  0  0  0  0  0
   19.9161   23.1938   -0.1174 C   0  0  0  0  0  0  0  0  0  0  0  0
 19 20  1  0  0  0
 20 13  1  0  0  0
 13 14  2  0  0  0
 14 15  1  0  0  0
 15 16  2  0  0  0
 16 17  1  0  0  0
 17 18  2  0  0  0
 15  1  1  0  0  0
  1  2  1  0  0  0
  2  3  2  0  0  0
  2  4  1  0  0  0
  4  5  1  0  0  0
  5  6  2  0  0  0
  5  7  1  0  0  0
  7  8  1  0  0  0
  8  9  1  0  0  0
  9 10  1  0  0  0
 10 37  1  0  0  0
 37 38  1  0  0  0
 38 39  2  0  0  0
 39 40  1  0  0  0
 40 41  2  0  0  0
 41 42  1  0  0  0
 42 43  2  0  0  0
 43 44  1  0  0  0
 10 11  1  0  0  0
 11 12  1  0  0  0
  4 21  1  0  0  0
 21 22  2  0  0  0
 22 23  1  0  0  0
 23 24  2  0  0  0
 24 25  1  0  0  0
 25 26  2  0  0  0
 24 27  1  0  0  0
 27 28  2  0  0  0
 28 29  1  0  0  0
 29 30  2  0  0  0
 30 31  1  0  0  0
 31 32  1  0  0  0
 32 33  2  0  0  0
 33 34  1  0  0  0
 34 35  2  0  0  0
 18 13  1  0  0  0
  7  1  1  0  0  0
 12  7  1  0  0  0
 26 21  1  0  0  0
 35 27  1  0  0  0
 43 38  1  0  0  0
 34 30  1  0  0  0
 31 36  1  0  0  0
M  END
> <minimizedAffinity>
30.56305

> <CNNscore>
0.5703606009

> <CNNaffinity>
7.8479905128

> <CNN_VS>
4.4761843681

> <CNNaffinity_variance>
0.4745577872

$$$$
[H]c1nc(OC([H])([H])[H])c([H])c(N2C(=O)N(c3c([H])c([H])c(-c4c([H])c([H])c5c(c([H])nn5[H])c4[H])c([H])c3[H])C(=O)C23C([H])([H])C([H])([H])N(C([H])([H])c2nc([H])c([H])c([H])c2C([H])([H])[H])C([H])([H])C3([H])[H])n1


 44 50  0  0  0  0  0  0  0  0999 V2000
   12.9679   25.3434   -2.3303 N   0  0  0  0  0  0  0  0  0  0  0  0
   11.8086   24.7236   -1.7120 C   0  0  0  0  0  0  0  0  0  0  0  0
   10.6956   24.6338   -2.3206 O   0  0  0  0  0  0  0  0  0  0  0  0
   12.1407   24.2782   -0.4073 N   0  0  0  0  0  0  0  0  0  0  0  0
   13.5272   24.6348   -0.2321 C   0  0  0  0  0  0  0  0  0  0  0  0
   14.1062   24.7449    0.8885 O   0  0  0  0  0  0  0  0  0  0  0  0
   14.0845   24.8307   -1.5869 C   0  0  0  0  0  0  0  0  0  0  0  0
   15.3201   25.6952   -1.6256 C   0  0  0  0  0  0  0  0  0  0  0  0
   16.2352   25.2325   -2.7585 C   0  0  0  0  0  0  0  0  0  0  0  0
   16.8569   23.9302   -2.4220 N   0  0  0  0  0  0  0  0  0  0  0  0
   15.9304   23.2009   -1.5625 C   0  0  0  0  0  0  0  0  0  0  0  0
   14.5181   23.4613   -2.1052 C   0  0  0  0  0  0  0  0  0  0  0  0
   13.6474   27.0304   -5.5484 C   0  0  0  0  0  0  0  0  0  0  0  0
   13.7617   26.1343   -4.4851 C   0  0  0  0  0  0  0  0  0  0  0  0
   12.8915   26.2360   -3.4274 C   0  0  0  0  0  0  0  0  0  0  0  0
   11.9616   27.1902   -3.4476 N   0  0  0  0  0  0  0  0  0  0  0  0
   11.8273   28.0687   -4.4583 C   0  0  0  0  0  0  0  0  0  0  0  0
   12.6785   27.9665   -5.4903 N   0  0  0  0  0  0  0  0  0  0  0  0
   15.5877   25.9917   -6.6428 C   0  0  0  0  0  0  0  0  0  0  0  0
   14.5350   26.9087   -6.6047 O   0  0  0  0  0  0  0  0  0  0  0  0
   11.2823   23.6187    0.5209 C   0  0  0  0  0  0  0  0  0  0  0  0
   10.0690   24.1720    0.8799 C   0  0  0  0  0  0  0  0  0  0  0  0
    9.2012   23.5516    1.7795 C   0  0  0  0  0  0  0  0  0  0  0  0
    9.5864   22.3517    2.3133 C   0  0  0  0  0  0  0  0  0  0  0  0
   10.8050   21.7749    1.9667 C   0  0  0  0  0  0  0  0  0  0  0  0
   11.6260   22.4131    1.0833 C   0  0  0  0  0  0  0  0  0  0  0  0
    8.7008   21.6620    3.2589 C   0  0  0  0  0  0  0  0  0  0  0  0
    9.0708   21.5164    4.5635 C   0  0  0  0  0  0  0  0  0  0  0  0
    8.2314   20.8617    5.4325 C   0  0  0  0  0  0  0  0  0  0  0  0
    7.0159   20.3503    4.9943 C   0  0  0  0  0  0  0  0  0  0  0  0
    6.0213   19.6800    5.6110 N   0  0  0  0  0  0  0  0  0  0  0  0
    5.0598   19.4081    4.7454 N   0  0  0  0  0  0  0  0  0  0  0  0
    5.3829   19.8874    3.5287 C   0  0  0  0  0  0  0  0  0  0  0  0
    6.6209   20.4850    3.6816 C   0  0  0  0  0  0  0  0  0  0  0  0
    7.4909   21.1465    2.8473 C   0  0  0  0  0  0  0  0  0  0  0  0
    6.0341   19.4279    6.6150 H   0  0  0  0  0  0  0  0  0  0  0  0
   18.1012   24.1889   -1.7317 C   0  0  0  0  0  0  0  0  0  0  0  0
   17.9876   23.9898   -0.2995 C   0  0  0  0  0  0  0  0  0  0  0  0
   16.9044   23.5848    0.3580 N   0  0  0  0  0  0  0  0  0  0  0  0
   16.8157   23.3857    1.6831 C   0  0  0  0  0  0  0  0  0  0  0  0
   17.9250   23.6082    2.4823 C   0  0  0  0  0  0  0  0  0  0  0  0
   19.0827   24.0310    1.8575 C   0  0  0  0  0  0  0  0  0  0  0  0
   19.1161   24.2173    0.5049 C   0  0  0  0  0  0  0  0  0  0  0  0
   20.3557   24.6647   -0.1500 C   0  0  0  0  0  0  0  0  0  0  0  0
 19 20  1  0  0  0
 20 13  1  0  0  0
 13 14  2  0  0  0
 14 15  1  0  0  0
 15 16  2  0  0  0
 16 17  1  0  0  0
 17 18  2  0  0  0
 15  1  1  0  0  0
  1  2  1  0  0  0
  2  3  2  0  0  0
  2  4  1  0  0  0
  4  5  1  0  0  0
  5  6  2  0  0  0
  5  7  1  0  0  0
  7  8  1  0  0  0
  8  9  1  0  0  0
  9 10  1  0  0  0
 10 37  1  0  0  0
 37 38  1  0  0  0
 38 39  2  0  0  0
 39 40  1  0  0  0
 40 41  2  0  0  0
 41 42  1  0  0  0
 42 43  2  0  0  0
 43 44  1  0  0  0
 10 11  1  0  0  0
 11 12  1  0  0  0
  4 21  1  0  0  0
 21 22  2  0  0  0
 22 23  1  0  0  0
 23 24  2  0  0  0
 24 25  1  0  0  0
 25 26  2  0  0  0
 24 27  1  0  0  0
 27 28  2  0  0  0
 28 29  1  0  0  0
 29 30  2  0  0  0
 30 31  1  0  0  0
 31 32  1  0  0  0
 32 33  2  0  0  0
 33 34  1  0  0  0
 34 35  2  0  0  0
 18 13  1  0  0  0
  7  1  1  0  0  0
 12  7  1  0  0  0
 26 21  1  0  0  0
 35 27  1  0  0  0
 43 38  1  0  0  0
 34 30  1  0  0  0
 31 36  1  0  0  0
M  END
> <minimizedAffinity>
18.21658

> <CNNscore>
0.5545771122

> <CNNaffinity>
7.9537811279

> <CNN_VS>
4.4109849930

> <CNNaffinity_variance>
0.6042947173

$$$$
[H]c1nc(OC([H])([H])[H])c([H])c(N2C(=O)N(c3c([H])c([H])c(-c4c([H])c([H])c5c(c([H])nn5[H])c4[H])c([H])c3[H])C(=O)C23C([H])([H])C([H])([H])N(C([H])([H])c2nc([H])c([H])c([H])c2C([H])([H])[H])C([H])([H])C3([H])[H])n1


 44 50  0  0  0  0  0  0  0  0999 V2000
   14.2050   23.4316   -0.6115 N   0  0  0  0  0  0  0  0  0  0  0  0
   14.8331   24.1104   -1.7317 C   0  0  0  0  0  0  0  0  0  0  0  0
   15.8073   23.5931   -2.3646 O   0  0  0  0  0  0  0  0  0  0  0  0
   14.1956   25.3570   -1.9566 N   0  0  0  0  0  0  0  0  0  0  0  0
   13.1618   25.4345   -0.9539 C   0  0  0  0  0  0  0  0  0  0  0  0
   12.6068   26.5071   -0.5736 O   0  0  0  0  0  0  0  0  0  0  0  0
   12.9140   24.0504   -0.4988 C   0  0  0  0  0  0  0  0  0  0  0  0
   12.2846   23.9551    0.8687 C   0  0  0  0  0  0  0  0  0  0  0  0
   11.3782   22.7264    0.9324 C   0  0  0  0  0  0  0  0  0  0  0  0
   10.1603   22.9393    0.1156 N   0  0  0  0  0  0  0  0  0  0  0  0
   10.5096   23.8327   -0.9838 C   0  0  0  0  0  0  0  0  0  0  0  0
   11.9095   23.4248   -1.4640 C   0  0  0  0  0  0  0  0  0  0  0  0
   14.9629   20.1244    0.8556 C   0  0  0  0  0  0  0  0  0  0  0  0
   14.3178   21.1177    0.1182 C   0  0  0  0  0  0  0  0  0  0  0  0
   14.8246   22.3942    0.1276 C   0  0  0  0  0  0  0  0  0  0  0  0
   15.9200   22.6473    0.8429 N   0  0  0  0  0  0  0  0  0  0  0  0
   16.5634   21.7105    1.5640 C   0  0  0  0  0  0  0  0  0  0  0  0
   16.0661   20.4645    1.5524 N   0  0  0  0  0  0  0  0  0  0  0  0
   13.2011   18.5157    0.2645 C   0  0  0  0  0  0  0  0  0  0  0  0
   14.4348   18.8442    0.8308 O   0  0  0  0  0  0  0  0  0  0  0  0
   14.5140   26.3169   -2.9619 C   0  0  0  0  0  0  0  0  0  0  0  0
   14.1885   27.6488   -2.7977 C   0  0  0  0  0  0  0  0  0  0  0  0
   14.4906   28.6162   -3.7570 C   0  0  0  0  0  0  0  0  0  0  0  0
   15.1331   28.2080   -4.8944 C   0  0  0  0  0  0  0  0  0  0  0  0
   15.4708   26.8706   -5.0823 C   0  0  0  0  0  0  0  0  0  0  0  0
   15.1579   25.9548   -4.1204 C   0  0  0  0  0  0  0  0  0  0  0  0
   15.4752   29.1939   -5.9264 C   0  0  0  0  0  0  0  0  0  0  0  0
   16.4260   28.9064   -6.8610 C   0  0  0  0  0  0  0  0  0  0  0  0
   16.7377   29.8448   -7.8153 C   0  0  0  0  0  0  0  0  0  0  0  0
   16.0949   31.0766   -7.8349 C   0  0  0  0  0  0  0  0  0  0  0  0
   16.1985   32.1582   -8.6338 N   0  0  0  0  0  0  0  0  0  0  0  0
   15.3559   33.0945   -8.2323 N   0  0  0  0  0  0  0  0  0  0  0  0
   14.6669   32.6672   -7.1567 C   0  0  0  0  0  0  0  0  0  0  0  0
   15.1316   31.3897   -6.9015 C   0  0  0  0  0  0  0  0  0  0  0  0
   14.8514   30.4220   -5.9657 C   0  0  0  0  0  0  0  0  0  0  0  0
   16.8498   32.2202   -9.4361 H   0  0  0  0  0  0  0  0  0  0  0  0
    9.1491   23.5360    0.9601 C   0  0  0  0  0  0  0  0  0  0  0  0
    8.4252   22.5462    1.7348 C   0  0  0  0  0  0  0  0  0  0  0  0
    8.3041   22.5143    3.0592 N   0  0  0  0  0  0  0  0  0  0  0  0
    7.6154   21.6031    3.7655 C   0  0  0  0  0  0  0  0  0  0  0  0
    6.9531   20.5836    3.1017 C   0  0  0  0  0  0  0  0  0  0  0  0
    7.0411   20.5620    1.7228 C   0  0  0  0  0  0  0  0  0  0  0  0
    7.7562   21.5152    1.0555 C   0  0  0  0  0  0  0  0  0  0  0  0
    7.8400   21.4840   -0.4134 C   0  0  0  0  0  0  0  0  0  0  0  0
 19 20  1  0  0  0
 20 13  1  0  0  0
 13 14  2  0  0  0
 14 15  1  0  0  0
 15 16  2  0  0  0
 16 17  1  0  0  0
 17 18  2  0  0  0
 15  1  1  0  0  0
  1  2  1  0  0  0
  2  3  2  0  0  0
  2  4  1  0  0  0
  4  5  1  0  0  0
  5  6  2  0  0  0
  5  7  1  0  0  0
  7  8  1  0  0  0
  8  9  1  0  0  0
  9 10  1  0  0  0
 10 37  1  0  0  0
 37 38  1  0  0  0
 38 39  2  0  0  0
 39 40  1  0  0  0
 40 41  2  0  0  0
 41 42  1  0  0  0
 42 43  2  0  0  0
 43 44  1  0  0  0
 10 11  1  0  0  0
 11 12  1  0  0  0
  4 21  1  0  0  0
 21 22  2  0  0  0
 22 23  1  0  0  0
 23 24  2  0  0  0
 24 25  1  0  0  0
 25 26  2  0  0  0
 24 27  1  0  0  0
 27 28  2  0  0  0
 28 29  1  0  0  0
 29 30  2  0  0  0
 30 31  1  0  0  0
 31 32  1  0  0  0
 32 33  2  0  0  0
 33 34  1  0  0  0
 34 35  2  0  0  0
 18 13  1  0  0  0
  7  1  1  0  0  0
 12  7  1  0  0  0
 26 21  1  0  0  0
 35 27  1  0  0  0
 43 38  1  0  0  0
 34 30  1  0  0  0
 31 36  1  0  0  0
M  END
> <minimizedAffinity>
47.80061

> <CNNscore>
0.5129833221

> <CNNaffinity>
7.6283655167

> <CNN_VS>
3.9132242203

> <CNNaffinity_variance>
0.4617684484

$$$$
[H]c1nc(OC([H])([H])[H])c([H])c(N2C(=O)N(c3c([H])c([H])c(-c4c([H])c([H])c5c(c([H])nn5[H])c4[H])c([H])c3[H])C(=O)C23C([H])([H])C([H])([H])N(C([H])([H])c2nc([H])c([H])c([H])c2C([H])([H])[H])C([H])([H])C3([H])[H])n1


 44 50  0  0  0  0  0  0  0  0999 V2000
   12.3697   22.7072    0.1832 N   0  0  0  0  0  0  0  0  0  0  0  0
   13.1189   23.0501   -1.0132 C   0  0  0  0  0  0  0  0  0  0  0  0
   13.7680   22.1744   -1.6682 O   0  0  0  0  0  0  0  0  0  0  0  0
   12.9907   24.4372   -1.2792 N   0  0  0  0  0  0  0  0  0  0  0  0
   12.1478   24.9438   -0.2241 C   0  0  0  0  0  0  0  0  0  0  0  0
   12.0769   26.1604    0.1191 O   0  0  0  0  0  0  0  0  0  0  0  0
   11.4266   23.7799    0.3322 C   0  0  0  0  0  0  0  0  0  0  0  0
   10.9187   23.9844    1.7378 C   0  0  0  0  0  0  0  0  0  0  0  0
    9.6196   23.2037    1.9331 C   0  0  0  0  0  0  0  0  0  0  0  0
    8.5152   23.8404    1.1777 N   0  0  0  0  0  0  0  0  0  0  0  0
    9.0913   24.4895    0.0049 C   0  0  0  0  0  0  0  0  0  0  0  0
   10.1863   23.5559   -0.5301 C   0  0  0  0  0  0  0  0  0  0  0  0
   13.9744   19.7047    1.6232 C   0  0  0  0  0  0  0  0  0  0  0  0
   13.7845   20.8476    0.8459 C   0  0  0  0  0  0  0  0  0  0  0  0
   12.6020   21.5386    0.9491 C   0  0  0  0  0  0  0  0  0  0  0  0
   11.6683   21.0957    1.7902 N   0  0  0  0  0  0  0  0  0  0  0  0
   11.8225   19.9970    2.5522 C   0  0  0  0  0  0  0  0  0  0  0  0
   12.9788   19.3244    2.4494 N   0  0  0  0  0  0  0  0  0  0  0  0
   16.1996   19.3898    0.6279 C   0  0  0  0  0  0  0  0  0  0  0  0
   15.1748   19.0242    1.5035 O   0  0  0  0  0  0  0  0  0  0  0  0
   13.5713   25.1628   -2.3607 C   0  0  0  0  0  0  0  0  0  0  0  0
   12.7784   25.7375   -3.3344 C   0  0  0  0  0  0  0  0  0  0  0  0
   13.3116   26.4598   -4.4027 C   0  0  0  0  0  0  0  0  0  0  0  0
   14.6724   26.5911   -4.4682 C   0  0  0  0  0  0  0  0  0  0  0  0
   15.4918   26.0201   -3.4985 C   0  0  0  0  0  0  0  0  0  0  0  0
   14.9318   25.3210   -2.4692 C   0  0  0  0  0  0  0  0  0  0  0  0
   15.2746   27.3483   -5.5719 C   0  0  0  0  0  0  0  0  0  0  0  0
   15.7218   26.6992   -6.6849 C   0  0  0  0  0  0  0  0  0  0  0  0
   16.2890   27.4244   -7.7051 C   0  0  0  0  0  0  0  0  0  0  0  0
   16.4092   28.8056   -7.6115 C   0  0  0  0  0  0  0  0  0  0  0  0
   16.9114   29.7457   -8.4378 N   0  0  0  0  0  0  0  0  0  0  0  0
   16.7929   30.9398   -7.8831 N   0  0  0  0  0  0  0  0  0  0  0  0
   16.2098   30.8329   -6.6736 C   0  0  0  0  0  0  0  0  0  0  0  0
   15.9649   29.4830   -6.4974 C   0  0  0  0  0  0  0  0  0  0  0  0
   15.4045   28.7183   -5.5015 C   0  0  0  0  0  0  0  0  0  0  0  0
   17.3234   29.5362   -9.3642 H   0  0  0  0  0  0  0  0  0  0  0  0
    7.8790   24.8112    2.0407 C   0  0  0  0  0  0  0  0  0  0  0  0
    7.2914   24.1997    3.2174 C   0  0  0  0  0  0  0  0  0  0  0  0
    6.6132   23.0560    3.2578 N   0  0  0  0  0  0  0  0  0  0  0  0
    6.0892   22.4893    4.3567 C   0  0  0  0  0  0  0  0  0  0  0  0
    6.2411   23.1126    5.5844 C   0  0  0  0  0  0  0  0  0  0  0  0
    6.9372   24.3061    5.6083 C   0  0  0  0  0  0  0  0  0  0  0  0
    7.4491   24.8370    4.4589 C   0  0  0  0  0  0  0  0  0  0  0  0
    8.1916   26.1071    4.4970 C   0  0  0  0  0  0  0  0  0  0  0  0
 19 20  1  0  0  0
 20 13  1  0  0  0
 13 14  2  0  0  0
 14 15  1  0  0  0
 15 16  2  0  0  0
 16 17  1  0  0  0
 17 18  2  0  0  0
 15  1  1  0  0  0
  1  2  1  0  0  0
  2  3  2  0  0  0
  2  4  1  0  0  0
  4  5  1  0  0  0
  5  6  2  0  0  0
  5  7  1  0  0  0
  7  8  1  0  0  0
  8  9  1  0  0  0
  9 10  1  0  0  0
 10 37  1  0  0  0
 37 38  1  0  0  0
 38 39  2  0  0  0
 39 40  1  0  0  0
 40 41  2  0  0  0
 41 42  1  0  0  0
 42 43  2  0  0  0
 43 44  1  0  0  0
 10 11  1  0  0  0
 11 12  1  0  0  0
  4 21  1  0  0  0
 21 22  2  0  0  0
 22 23  1  0  0  0
 23 24  2  0  0  0
 24 25  1  0  0  0
 25 26  2  0  0  0
 24 27  1  0  0  0
 27 28  2  0  0  0
 28 29  1  0  0  0
 29 30  2  0  0  0
 30 31  1  0  0  0
 31 32  1  0  0  0
 32 33  2  0  0  0
 33 34  1  0  0  0
 34 35  2  0  0  0
 18 13  1  0  0  0
  7  1  1  0  0  0
 12  7  1  0  0  0
 26 21  1  0  0  0
 35 27  1  0  0  0
 43 38  1  0  0  0
 34 30  1  0  0  0
 31 36  1  0  0  0
M  END
> <minimizedAffinity>
14.89455

> <CNNscore>
0.4706349671

> <CNNaffinity>
7.5157518387

> <CNN_VS>
3.5371756554

> <CNNaffinity_variance>
0.3430294991

$$$$
[H]c1nc(OC([H])([H])[H])c([H])c(N2C(=O)N(c3c([H])c([H])c(-c4c([H])c([H])c5c(c([H])nn5[H])c4[H])c([H])c3[H])C(=O)C23C([H])([H])C([H])([H])N(C([H])([H])c2nc([H])c([H])c([H])c2C([H])([H])[H])C([H])([H])C3([H])[H])n1


 44 50  0  0  0  0  0  0  0  0999 V2000
   10.8282   21.9289    0.1006 N   0  0  0  0  0  0  0  0  0  0  0  0
   11.4514   22.3340   -1.1475 C   0  0  0  0  0  0  0  0  0  0  0  0
   11.4565   21.5754   -2.1681 O   0  0  0  0  0  0  0  0  0  0  0  0
   12.0041   23.6327   -1.0091 N   0  0  0  0  0  0  0  0  0  0  0  0
   11.7098   24.0215    0.3482 C   0  0  0  0  0  0  0  0  0  0  0  0
   12.3193   24.9304    0.9849 O   0  0  0  0  0  0  0  0  0  0  0  0
   10.5949   23.1620    0.7986 C   0  0  0  0  0  0  0  0  0  0  0  0
   10.4862   23.0293    2.2973 C   0  0  0  0  0  0  0  0  0  0  0  0
    9.0194   22.8657    2.6932 C   0  0  0  0  0  0  0  0  0  0  0  0
    8.2879   24.1407    2.5058 N   0  0  0  0  0  0  0  0  0  0  0  0
    8.9231   24.8638    1.4093 C   0  0  0  0  0  0  0  0  0  0  0  0
    9.2956   23.8232    0.3439 C   0  0  0  0  0  0  0  0  0  0  0  0
   10.8075   18.6768    1.8576 C   0  0  0  0  0  0  0  0  0  0  0  0
   11.1110   20.0046    1.5552 C   0  0  0  0  0  0  0  0  0  0  0  0
   10.5522   20.5821    0.4414 C   0  0  0  0  0  0  0  0  0  0  0  0
    9.7351   19.8553   -0.3200 N   0  0  0  0  0  0  0  0  0  0  0  0
    9.4241   18.5731   -0.0541 C   0  0  0  0  0  0  0  0  0  0  0  0
    9.9712   18.0119    1.0348 N   0  0  0  0  0  0  0  0  0  0  0  0
   12.3963   18.7184    3.7326 C   0  0  0  0  0  0  0  0  0  0  0  0
   11.3816   18.1152    2.9861 O   0  0  0  0  0  0  0  0  0  0  0  0
   12.6960   24.3835   -2.0045 C   0  0  0  0  0  0  0  0  0  0  0  0
   12.2801   25.6543   -2.3495 C   0  0  0  0  0  0  0  0  0  0  0  0
   12.9368   26.4200   -3.3137 C   0  0  0  0  0  0  0  0  0  0  0  0
   14.0307   25.8721   -3.9272 C   0  0  0  0  0  0  0  0  0  0  0  0
   14.4682   24.5927   -3.5962 C   0  0  0  0  0  0  0  0  0  0  0  0
   13.7986   23.8755   -2.6479 C   0  0  0  0  0  0  0  0  0  0  0  0
   14.7547   26.6456   -4.9429 C   0  0  0  0  0  0  0  0  0  0  0  0
   15.1854   26.0411   -6.0871 C   0  0  0  0  0  0  0  0  0  0  0  0
   15.8676   26.7802   -7.0234 C   0  0  0  0  0  0  0  0  0  0  0  0
   16.1200   28.1305   -6.8143 C   0  0  0  0  0  0  0  0  0  0  0  0
   16.7501   29.0746   -7.5426 N   0  0  0  0  0  0  0  0  0  0  0  0
   16.7256   30.2286   -6.8983 N   0  0  0  0  0  0  0  0  0  0  0  0
   16.0804   30.0899   -5.7240 C   0  0  0  0  0  0  0  0  0  0  0  0
   15.6950   28.7627   -5.6666 C   0  0  0  0  0  0  0  0  0  0  0  0
   15.0167   27.9857   -4.7574 C   0  0  0  0  0  0  0  0  0  0  0  0
   17.1809   28.8954   -8.4668 H   0  0  0  0  0  0  0  0  0  0  0  0
    8.3742   24.8957    3.7363 C   0  0  0  0  0  0  0  0  0  0  0  0
    7.3769   25.9465    3.8082 C   0  0  0  0  0  0  0  0  0  0  0  0
    7.3449   27.0562    3.0753 N   0  0  0  0  0  0  0  0  0  0  0  0
    6.4059   28.0143    3.1371 C   0  0  0  0  0  0  0  0  0  0  0  0
    5.3540   27.8821    4.0286 C   0  0  0  0  0  0  0  0  0  0  0  0
    5.3309   26.7492    4.8195 C   0  0  0  0  0  0  0  0  0  0  0  0
    6.3132   25.8062    4.7143 C   0  0  0  0  0  0  0  0  0  0  0  0
    6.2764   24.6020    5.5594 C   0  0  0  0  0  0  0  0  0  0  0  0
 19 20  1  0  0  0
 20 13  1  0  0  0
 13 14  2  0  0  0
 14 15  1  0  0  0
 15 16  2  0  0  0
 16 17  1  0  0  0
 17 18  2  0  0  0
 15  1  1  0  0  0
  1  2  1  0  0  0
  2  3  2  0  0  0
  2  4  1  0  0  0
  4  5  1  0  0  0
  5  6  2  0  0  0
  5  7  1  0  0  0
  7  8  1  0  0  0
  8  9  1  0  0  0
  9 10  1  0  0  0
 10 37  1  0  0  0
 37 38  1  0  0  0
 38 39  2  0  0  0
 39 40  1  0  0  0
 40 41  2  0  0  0
 41 42  1  0  0  0
 42 43  2  0  0  0
 43 44  1  0  0  0
 10 11  1  0  0  0
 11 12  1  0  0  0
  4 21  1  0  0  0
 21 22  2  0  0  0
 22 23  1  0  0  0
 23 24  2  0  0  0
 24 25  1  0  0  0
 25 26  2  0  0  0
 24 27  1  0  0  0
 27 28  2  0  0  0
 28 29  1  0  0  0
 29 30  2  0  0  0
 30 31  1  0  0  0
 31 32  1  0  0  0
 32 33  2  0  0  0
 33 34  1  0  0  0
 34 35  2  0  0  0
 18 13  1  0  0  0
  7  1  1  0  0  0
 12  7  1  0  0  0
 26 21  1  0  0  0
 35 27  1  0  0  0
 43 38  1  0  0  0
 34 30  1  0  0  0
 31 36  1  0  0  0
M  END
> <minimizedAffinity>
9.66373

> <CNNscore>
0.4624834061

> <CNNaffinity>
7.2986783981

> <CNN_VS>
3.3755176067

> <CNNaffinity_variance>
0.1568917334

$$$$
[H]c1nc(OC([H])([H])[H])c([H])c(N2C(=O)N(c3c([H])c([H])c(-c4c([H])c([H])c5c(c([H])nn5[H])c4[H])c([H])c3[H])C(=O)C23C([H])([H])C([H])([H])N(C([H])([H])c2nc([H])c([H])c([H])c2C([H])([H])[H])C([H])([H])C3([H])[H])n1


 44 50  0  0  0  0  0  0  0  0999 V2000
    9.7093   24.6482    2.0912 N   0  0  0  0  0  0  0  0  0  0  0  0
   10.7872   25.2863    1.3556 C   0  0  0  0  0  0  0  0  0  0  0  0
   11.4750   26.2281    1.8625 O   0  0  0  0  0  0  0  0  0  0  0  0
   10.9063   24.6977    0.0710 N   0  0  0  0  0  0  0  0  0  0  0  0
    9.8814   23.6838    0.0278 C   0  0  0  0  0  0  0  0  0  0  0  0
    9.4116   23.1798   -1.0344 O   0  0  0  0  0  0  0  0  0  0  0  0
    9.5265   23.3859    1.4313 C   0  0  0  0  0  0  0  0  0  0  0  0
    8.1584   22.7745    1.6041 C   0  0  0  0  0  0  0  0  0  0  0  0
    8.1698   21.8190    2.7967 C   0  0  0  0  0  0  0  0  0  0  0  0
    8.9454   20.5984    2.4739 N   0  0  0  0  0  0  0  0  0  0  0  0
    9.9813   20.9672    1.5148 C   0  0  0  0  0  0  0  0  0  0  0  0
   10.5168   22.3413    1.9413 C   0  0  0  0  0  0  0  0  0  0  0  0
    7.2297   25.3971    4.7285 C   0  0  0  0  0  0  0  0  0  0  0  0
    7.8295   24.7943    3.6223 C   0  0  0  0  0  0  0  0  0  0  0  0
    9.0615   25.2357    3.2055 C   0  0  0  0  0  0  0  0  0  0  0  0
    9.6490   26.2293    3.8711 N   0  0  0  0  0  0  0  0  0  0  0  0
    9.0953   26.8301    4.9406 C   0  0  0  0  0  0  0  0  0  0  0  0
    7.8919   26.3965    5.3456 N   0  0  0  0  0  0  0  0  0  0  0  0
    5.7483   23.6460    5.6120 C   0  0  0  0  0  0  0  0  0  0  0  0
    5.9876   24.9354    5.1316 O   0  0  0  0  0  0  0  0  0  0  0  0
   11.8428   25.0399   -0.9484 C   0  0  0  0  0  0  0  0  0  0  0  0
   13.1452   24.5840   -0.8955 C   0  0  0  0  0  0  0  0  0  0  0  0
   14.0862   24.8933   -1.8784 C   0  0  0  0  0  0  0  0  0  0  0  0
   13.6821   25.6785   -2.9241 C   0  0  0  0  0  0  0  0  0  0  0  0
   12.3745   26.1502   -2.9984 C   0  0  0  0  0  0  0  0  0  0  0  0
   11.4838   25.8255   -2.0170 C   0  0  0  0  0  0  0  0  0  0  0  0
   14.6383   26.0228   -3.9830 C   0  0  0  0  0  0  0  0  0  0  0  0
   15.7169   26.8093   -3.7036 C   0  0  0  0  0  0  0  0  0  0  0  0
   16.5976   27.1267   -4.7097 C   0  0  0  0  0  0  0  0  0  0  0  0
   16.3984   26.6547   -6.0014 C   0  0  0  0  0  0  0  0  0  0  0  0
   17.0827   26.8047   -7.1537 N   0  0  0  0  0  0  0  0  0  0  0  0
   16.4738   26.1471   -8.1256 N   0  0  0  0  0  0  0  0  0  0  0  0
   15.3681   25.5404   -7.6524 C   0  0  0  0  0  0  0  0  0  0  0  0
   15.3164   25.8591   -6.3075 C   0  0  0  0  0  0  0  0  0  0  0  0
   14.4613   25.5667   -5.2712 C   0  0  0  0  0  0  0  0  0  0  0  0
   17.9533   27.3584   -7.2376 H   0  0  0  0  0  0  0  0  0  0  0  0
    8.0399   19.6262    1.9025 C   0  0  0  0  0  0  0  0  0  0  0  0
    7.1246   20.2215    0.9477 C   0  0  0  0  0  0  0  0  0  0  0  0
    7.4097   20.5810   -0.3010 N   0  0  0  0  0  0  0  0  0  0  0  0
    6.5490   21.1145   -1.1832 C   0  0  0  0  0  0  0  0  0  0  0  0
    5.2332   21.3300   -0.8077 C   0  0  0  0  0  0  0  0  0  0  0  0
    4.8745   20.9768    0.4791 C   0  0  0  0  0  0  0  0  0  0  0  0
    5.7921   20.4374    1.3349 C   0  0  0  0  0  0  0  0  0  0  0  0
    5.3977   20.0619    2.7020 C   0  0  0  0  0  0  0  0  0  0  0  0
 19 20  1  0  0  0
 20 13  1  0  0  0
 13 14  2  0  0  0
 14 15  1  0  0  0
 15 16  2  0  0  0
 16 17  1  0  0  0
 17 18  2  0  0  0
 15  1  1  0  0  0
  1  2  1  0  0  0
  2  3  2  0  0  0
  2  4  1  0  0  0
  4  5  1  0  0  0
  5  6  2  0  0  0
  5  7  1  0  0  0
  7  8  1  0  0  0
  8  9  1  0  0  0
  9 10  1  0  0  0
 10 37  1  0  0  0
 37 38  1  0  0  0
 38 39  2  0  0  0
 39 40  1  0  0  0
 40 41  2  0  0  0
 41 42  1  0  0  0
 42 43  2  0  0  0
 43 44  1  0  0  0
 10 11  1  0  0  0
 11 12  1  0  0  0
  4 21  1  0  0  0
 21 22  2  0  0  0
 22 23  1  0  0  0
 23 24  2  0  0  0
 24 25  1  0  0  0
 25 26  2  0  0  0
 24 27  1  0  0  0
 27 28  2  0  0  0
 28 29  1  0  0  0
 29 30  2  0  0  0
 30 31  1  0  0  0
 31 32  1  0  0  0
 32 33  2  0  0  0
 33 34  1  0  0  0
 34 35  2  0  0  0
 18 13  1  0  0  0
  7  1  1  0  0  0
 12  7  1  0  0  0
 26 21  1  0  0  0
 35 27  1  0  0  0
 43 38  1  0  0  0
 34 30  1  0  0  0
 31 36  1  0  0  0
M  END
> <minimizedAffinity>
0.75067

> <CNNscore>
0.4337208569

> <CNNaffinity>
7.1875634193

> <CNN_VS>
3.1173961163

> <CNNaffinity_variance>
0.3359192312

$$$$
[H]c1nc(OC([H])([H])[H])c([H])c(N2C(=O)N(c3c([H])c([H])c(-c4c([H])c([H])c5c(c([H])nn5[H])c4[H])c([H])c3[H])C(=O)C23C([H])([H])C([H])([H])N(C([H])([H])c2nc([H])c([H])c([H])c2C([H])([H])[H])C([H])([H])C3([H])[H])n1


 44 50  0  0  0  0  0  0  0  0999 V2000
   11.9784   26.6065   -3.3577 N   0  0  0  0  0  0  0  0  0  0  0  0
   11.3083   25.7795   -2.3692 C   0  0  0  0  0  0  0  0  0  0  0  0
   10.0400   25.7167   -2.3006 O   0  0  0  0  0  0  0  0  0  0  0  0
   12.2705   25.1148   -1.5672 N   0  0  0  0  0  0  0  0  0  0  0  0
   13.5474   25.5473   -2.0796 C   0  0  0  0  0  0  0  0  0  0  0  0
   14.6388   25.4826   -1.4410 O   0  0  0  0  0  0  0  0  0  0  0  0
   13.3013   26.0546   -3.4458 C   0  0  0  0  0  0  0  0  0  0  0  0
   14.3538   27.0124   -3.9461 C   0  0  0  0  0  0  0  0  0  0  0  0
   14.5060   26.8634   -5.4593 C   0  0  0  0  0  0  0  0  0  0  0  0
   15.1666   25.5786   -5.7886 N   0  0  0  0  0  0  0  0  0  0  0  0
   14.8181   24.6168   -4.7482 C   0  0  0  0  0  0  0  0  0  0  0  0
   13.3441   24.8573   -4.3927 C   0  0  0  0  0  0  0  0  0  0  0  0
   10.9693   30.0236   -4.3422 C   0  0  0  0  0  0  0  0  0  0  0  0
   11.5963   28.9872   -3.6498 C   0  0  0  0  0  0  0  0  0  0  0  0
   11.3583   27.6888   -4.0289 C   0  0  0  0  0  0  0  0  0  0  0  0
   10.5330   27.4563   -5.0489 N   0  0  0  0  0  0  0  0  0  0  0  0
    9.9138   28.4347   -5.7352 C   0  0  0  0  0  0  0  0  0  0  0  0
   10.1487   29.7020   -5.3628 N   0  0  0  0  0  0  0  0  0  0  0  0
   11.2186   32.4248   -4.8043 C   0  0  0  0  0  0  0  0  0  0  0  0
   11.2247   31.3252   -3.9433 O   0  0  0  0  0  0  0  0  0  0  0  0
   12.0186   24.2133   -0.4914 C   0  0  0  0  0  0  0  0  0  0  0  0
   11.0145   24.4646    0.4227 C   0  0  0  0  0  0  0  0  0  0  0  0
   10.7357   23.6016    1.4833 C   0  0  0  0  0  0  0  0  0  0  0  0
   11.4975   22.4709    1.6030 C   0  0  0  0  0  0  0  0  0  0  0  0
   12.5155   22.1968    0.6939 C   0  0  0  0  0  0  0  0  0  0  0  0
   12.7571   23.0659   -0.3299 C   0  0  0  0  0  0  0  0  0  0  0  0
   11.2338   21.5329    2.7006 C   0  0  0  0  0  0  0  0  0  0  0  0
   10.3400   21.8559    3.6788 C   0  0  0  0  0  0  0  0  0  0  0  0
   10.1115   20.9677    4.7022 C   0  0  0  0  0  0  0  0  0  0  0  0
   10.7800   19.7503    4.7470 C   0  0  0  0  0  0  0  0  0  0  0  0
   10.7530   18.7146    5.6103 N   0  0  0  0  0  0  0  0  0  0  0  0
   11.5882   17.7727    5.2069 N   0  0  0  0  0  0  0  0  0  0  0  0
   12.1958   18.1503    4.0656 C   0  0  0  0  0  0  0  0  0  0  0  0
   11.6870   19.4021    3.7705 C   0  0  0  0  0  0  0  0  0  0  0  0
   11.8848   20.3201    2.7661 C   0  0  0  0  0  0  0  0  0  0  0  0
   10.1572   18.6869    6.4565 H   0  0  0  0  0  0  0  0  0  0  0  0
   16.5952   25.8014   -5.8234 C   0  0  0  0  0  0  0  0  0  0  0  0
   17.0490   26.6347   -4.7264 C   0  0  0  0  0  0  0  0  0  0  0  0
   17.4188   27.9102   -4.8042 N   0  0  0  0  0  0  0  0  0  0  0  0
   17.8197   28.6781   -3.7780 C   0  0  0  0  0  0  0  0  0  0  0  0
   17.8702   28.1405   -2.5025 C   0  0  0  0  0  0  0  0  0  0  0  0
   17.4977   26.8178   -2.3561 C   0  0  0  0  0  0  0  0  0  0  0  0
   17.0978   26.0832   -3.4358 C   0  0  0  0  0  0  0  0  0  0  0  0
   16.7002   24.6764   -3.2673 C   0  0  0  0  0  0  0  0  0  0  0  0
 19 20  1  0  0  0
 20 13  1  0  0  0
 13 14  2  0  0  0
 14 15  1  0  0  0
 15 16  2  0  0  0
 16 17  1  0  0  0
 17 18  2  0  0  0
 15  1  1  0  0  0
  1  2  1  0  0  0
  2  3  2  0  0  0
  2  4  1  0  0  0
  4  5  1  0  0  0
  5  6  2  0  0  0
  5  7  1  0  0  0
  7  8  1  0  0  0
  8  9  1  0  0  0
  9 10  1  0  0  0
 10 37  1  0  0  0
 37 38  1  0  0  0
 38 39  2  0  0  0
 39 40  1  0  0  0
 40 41  2  0  0  0
 41 42  1  0  0  0
 42 43  2  0  0  0
 43 44  1  0  0  0
 10 11  1  0  0  0
 11 12  1  0  0  0
  4 21  1  0  0  0
 21 22  2  0  0  0
 22 23  1  0  0  0
 23 24  2  0  0  0
 24 25  1  0  0  0
 25 26  2  0  0  0
 24 27  1  0  0  0
 27 28  2  0  0  0
 28 29  1  0  0  0
 29 30  2  0  0  0
 30 31  1  0  0  0
 31 32  1  0  0  0
 32 33  2  0  0  0
 33 34  1  0  0  0
 34 35  2  0  0  0
 18 13  1  0  0  0
  7  1  1  0  0  0
 12  7  1  0  0  0
 26 21  1  0  0  0
 35 27  1  0  0  0
 43 38  1  0  0  0
 34 30  1  0  0  0
 31 36  1  0  0  0
M  END
> <minimizedAffinity>
29.51445

> <CNNscore>
0.4060458541

> <CNNaffinity>
7.3452100754

> <CNN_VS>
2.9824922085

> <CNNaffinity_variance>
0.7067731619

$$$$
[H]c1nc(OC([H])([H])[H])c([H])c(N2C(=O)N(c3c([H])c([H])c(-c4c([H])c([H])c5c(c([H])nn5[H])c4[H])c([H])c3[H])C(=O)C23C([H])([H])C([H])([H])N(C([H])([H])c2nc([H])c([H])c([H])c2C([H])([H])[H])C([H])([H])C3([H])[H])n1


 44 50  0  0  0  0  0  0  0  0999 V2000
   12.2934   22.7953   -0.3751 N   0  0  0  0  0  0  0  0  0  0  0  0
   12.9191   23.3665   -1.5551 C   0  0  0  0  0  0  0  0  0  0  0  0
   13.3378   22.6362   -2.5082 O   0  0  0  0  0  0  0  0  0  0  0  0
   12.9641   24.7791   -1.4388 N   0  0  0  0  0  0  0  0  0  0  0  0
   12.3540   25.0689   -0.1645 C   0  0  0  0  0  0  0  0  0  0  0  0
   12.5109   26.1473    0.4802 O   0  0  0  0  0  0  0  0  0  0  0  0
   11.5485   23.8829    0.1945 C   0  0  0  0  0  0  0  0  0  0  0  0
   11.2684   23.7525    1.6710 C   0  0  0  0  0  0  0  0  0  0  0  0
    9.9055   23.0934    1.8789 C   0  0  0  0  0  0  0  0  0  0  0  0
    8.8172   24.0265    1.5039 N   0  0  0  0  0  0  0  0  0  0  0  0
    9.3219   24.9029    0.4523 C   0  0  0  0  0  0  0  0  0  0  0  0
   10.1850   24.0365   -0.4759 C   0  0  0  0  0  0  0  0  0  0  0  0
   13.7888   19.6129    0.7653 C   0  0  0  0  0  0  0  0  0  0  0  0
   13.6808   20.9477    0.3738 C   0  0  0  0  0  0  0  0  0  0  0  0
   12.4495   21.4448    0.0226 C   0  0  0  0  0  0  0  0  0  0  0  0
   11.3918   20.6356    0.0657 N   0  0  0  0  0  0  0  0  0  0  0  0
   11.4649   19.3445    0.4386 C   0  0  0  0  0  0  0  0  0  0  0  0
   12.6689   18.8619    0.7814 N   0  0  0  0  0  0  0  0  0  0  0  0
   15.6552   18.0334    0.5140 C   0  0  0  0  0  0  0  0  0  0  0  0
   15.0400   19.1333    1.1159 O   0  0  0  0  0  0  0  0  0  0  0  0
   13.4968   25.7035   -2.3850 C   0  0  0  0  0  0  0  0  0  0  0  0
   14.8496   25.7341   -2.6607 C   0  0  0  0  0  0  0  0  0  0  0  0
   15.4044   26.6201   -3.5850 C   0  0  0  0  0  0  0  0  0  0  0  0
   14.5588   27.4813   -4.2303 C   0  0  0  0  0  0  0  0  0  0  0  0
   13.1917   27.4692   -3.9684 C   0  0  0  0  0  0  0  0  0  0  0  0
   12.6876   26.5874   -3.0572 C   0  0  0  0  0  0  0  0  0  0  0  0
   15.0998   28.4257   -5.2149 C   0  0  0  0  0  0  0  0  0  0  0  0
   16.2730   28.1523   -5.8545 C   0  0  0  0  0  0  0  0  0  0  0  0
   16.7674   29.0519   -6.7682 C   0  0  0  0  0  0  0  0  0  0  0  0
   16.0848   30.2305   -7.0436 C   0  0  0  0  0  0  0  0  0  0  0  0
   16.3305   31.2668   -7.8708 N   0  0  0  0  0  0  0  0  0  0  0  0
   15.3632   32.1620   -7.7678 N   0  0  0  0  0  0  0  0  0  0  0  0
   14.4456   31.7512   -6.8713 C   0  0  0  0  0  0  0  0  0  0  0  0
   14.8984   30.5283   -6.4102 C   0  0  0  0  0  0  0  0  0  0  0  0
   14.4408   29.6008   -5.5041 C   0  0  0  0  0  0  0  0  0  0  0  0
   17.1616   31.3276   -8.4851 H   0  0  0  0  0  0  0  0  0  0  0  0
    8.4530   24.7900    2.6770 C   0  0  0  0  0  0  0  0  0  0  0  0
    7.6405   25.9463    2.3505 C   0  0  0  0  0  0  0  0  0  0  0  0
    6.7855   26.0497    1.3366 N   0  0  0  0  0  0  0  0  0  0  0  0
    6.0239   27.1191    1.0543 C   0  0  0  0  0  0  0  0  0  0  0  0
    6.0984   28.2421    1.8619 C   0  0  0  0  0  0  0  0  0  0  0  0
    6.9700   28.1966    2.9332 C   0  0  0  0  0  0  0  0  0  0  0  0
    7.7210   27.0815    3.1733 C   0  0  0  0  0  0  0  0  0  0  0  0
    8.6434   27.0433    4.3194 C   0  0  0  0  0  0  0  0  0  0  0  0
 19 20  1  0  0  0
 20 13  1  0  0  0
 13 14  2  0  0  0
 14 15  1  0  0  0
 15 16  2  0  0  0
 16 17  1  0  0  0
 17 18  2  0  0  0
 15  1  1  0  0  0
  1  2  1  0  0  0
  2  3  2  0  0  0
  2  4  1  0  0  0
  4  5  1  0  0  0
  5  6  2  0  0  0
  5  7  1  0  0  0
  7  8  1  0  0  0
  8  9  1  0  0  0
  9 10  1  0  0  0
 10 37  1  0  0  0
 37 38  1  0  0  0
 38 39  2  0  0  0
 39 40  1  0  0  0
 40 41  2  0  0  0
 41 42  1  0  0  0
 42 43  2  0  0  0
 43 44  1  0  0  0
 10 11  1  0  0  0
 11 12  1  0  0  0
  4 21  1  0  0  0
 21 22  2  0  0  0
 22 23  1  0  0  0
 23 24  2  0  0  0
 24 25  1  0  0  0
 25 26  2  0  0  0
 24 27  1  0  0  0
 27 28  2  0  0  0
 28 29  1  0  0  0
 29 30  2  0  0  0
 30 31  1  0  0  0
 31 32  1  0  0  0
 32 33  2  0  0  0
 33 34  1  0  0  0
 34 35  2  0  0  0
 18 13  1  0  0  0
  7  1  1  0  0  0
 12  7  1  0  0  0
 26 21  1  0  0  0
 35 27  1  0  0  0
 43 38  1  0  0  0
 34 30  1  0  0  0
 31 36  1  0  0  0
M  END
> <minimizedAffinity>
38.01799

> <CNNscore>
0.3684900999

> <CNNaffinity>
7.0478868484

> <CNN_VS>
2.5970764160

> <CNNaffinity_variance>
0.1870190352

$$$$
[H]c1nc(OC([H])([H])[H])c([H])c(N2C(=O)N(c3c([H])c([H])c(-c4c([H])c([H])c5c(c([H])nn5[H])c4[H])c([H])c3[H])C(=O)C23C([H])([H])C([H])([H])N(C([H])([H])c2nc([H])c([H])c([H])c2C([H])([H])[H])C([H])([H])C3([H])[H])n1


 44 50  0  0  0  0  0  0  0  0999 V2000
    9.9311   22.4409    2.8499 N   0  0  0  0  0  0  0  0  0  0  0  0
   10.7796   22.5166    1.6732 C   0  0  0  0  0  0  0  0  0  0  0  0
   11.1801   21.4708    1.0707 O   0  0  0  0  0  0  0  0  0  0  0  0
   11.0470   23.8737    1.3604 N   0  0  0  0  0  0  0  0  0  0  0  0
   10.3471   24.6342    2.3664 C   0  0  0  0  0  0  0  0  0  0  0  0
   10.6051   25.8361    2.6694 O   0  0  0  0  0  0  0  0  0  0  0  0
    9.3170   23.7365    2.9298 C   0  0  0  0  0  0  0  0  0  0  0  0
    8.8454   24.1286    4.3080 C   0  0  0  0  0  0  0  0  0  0  0  0
    7.3763   23.7436    4.4769 C   0  0  0  0  0  0  0  0  0  0  0  0
    6.5125   24.6287    3.6607 N   0  0  0  0  0  0  0  0  0  0  0  0
    7.2787   25.0471    2.4916 C   0  0  0  0  0  0  0  0  0  0  0  0
    8.0882   23.8279    2.0277 C   0  0  0  0  0  0  0  0  0  0  0  0
   10.5070   19.0997    4.3227 C   0  0  0  0  0  0  0  0  0  0  0  0
   10.6578   20.2163    3.4998 C   0  0  0  0  0  0  0  0  0  0  0  0
    9.8098   21.2849    3.6594 C   0  0  0  0  0  0  0  0  0  0  0  0
    8.8654   21.2235    4.5974 N   0  0  0  0  0  0  0  0  0  0  0  0
    8.6955   20.1606    5.4053 C   0  0  0  0  0  0  0  0  0  0  0  0
    9.5256   19.1185    5.2472 N   0  0  0  0  0  0  0  0  0  0  0  0
   12.7611   18.1205    4.2811 C   0  0  0  0  0  0  0  0  0  0  0  0
   11.3738   18.0342    4.1446 O   0  0  0  0  0  0  0  0  0  0  0  0
   11.8360   24.3680    0.2804 C   0  0  0  0  0  0  0  0  0  0  0  0
   11.2486   24.7443   -0.9114 C   0  0  0  0  0  0  0  0  0  0  0  0
   11.9885   25.2383   -1.9865 C   0  0  0  0  0  0  0  0  0  0  0  0
   13.3442   25.3456   -1.8324 C   0  0  0  0  0  0  0  0  0  0  0  0
   13.9586   24.9720   -0.6404 C   0  0  0  0  0  0  0  0  0  0  0  0
   13.2001   24.4932    0.3878 C   0  0  0  0  0  0  0  0  0  0  0  0
   14.1596   25.8663   -2.9360 C   0  0  0  0  0  0  0  0  0  0  0  0
   13.7777   25.6574   -4.2286 C   0  0  0  0  0  0  0  0  0  0  0  0
   14.5577   26.1467   -5.2487 C   0  0  0  0  0  0  0  0  0  0  0  0
   15.7252   26.8485   -4.9745 C   0  0  0  0  0  0  0  0  0  0  0  0
   16.6593   27.4262   -5.7571 N   0  0  0  0  0  0  0  0  0  0  0  0
   17.5953   27.9789   -5.0047 N   0  0  0  0  0  0  0  0  0  0  0  0
   17.3148   27.7872   -3.7012 C   0  0  0  0  0  0  0  0  0  0  0  0
   16.1312   27.0719   -3.6773 C   0  0  0  0  0  0  0  0  0  0  0  0
   15.3213   26.5650   -2.6886 C   0  0  0  0  0  0  0  0  0  0  0  0
   16.6248   27.4226   -6.7918 H   0  0  0  0  0  0  0  0  0  0  0  0
    6.1448   25.7706    4.4686 C   0  0  0  0  0  0  0  0  0  0  0  0
    6.0516   26.9896    3.6881 C   0  0  0  0  0  0  0  0  0  0  0  0
    5.0161   27.3759    2.9477 N   0  0  0  0  0  0  0  0  0  0  0  0
    4.9331   28.5164    2.2435 C   0  0  0  0  0  0  0  0  0  0  0  0
    5.9956   29.4051    2.2563 C   0  0  0  0  0  0  0  0  0  0  0  0
    7.1025   29.0600    3.0081 C   0  0  0  0  0  0  0  0  0  0  0  0
    7.1325   27.8861    3.7054 C   0  0  0  0  0  0  0  0  0  0  0  0
    8.3155   27.5306    4.5054 C   0  0  0  0  0  0  0  0  0  0  0  0
 19 20  1  0  0  0
 20 13  1  0  0  0
 13 14  2  0  0  0
 14 15  1  0  0  0
 15 16  2  0  0  0
 16 17  1  0  0  0
 17 18  2  0  0  0
 15  1  1  0  0  0
  1  2  1  0  0  0
  2  3  2  0  0  0
  2  4  1  0  0  0
  4  5  1  0  0  0
  5  6  2  0  0  0
  5  7  1  0  0  0
  7  8  1  0  0  0
  8  9  1  0  0  0
  9 10  1  0  0  0
 10 37  1  0  0  0
 37 38  1  0  0  0
 38 39  2  0  0  0
 39 40  1  0  0  0
 40 41  2  0  0  0
 41 42  1  0  0  0
 42 43  2  0  0  0
 43 44  1  0  0  0
 10 11  1  0  0  0
 11 12  1  0  0  0
  4 21  1  0  0  0
 21 22  2  0  0  0
 22 23  1  0  0  0
 23 24  2  0  0  0
 24 25  1  0  0  0
 25 26  2  0  0  0
 24 27  1  0  0  0
 27 28  2  0  0  0
 28 29  1  0  0  0
 29 30  2  0  0  0
 30 31  1  0  0  0
 31 32  1  0  0  0
 32 33  2  0  0  0
 33 34  1  0  0  0
 34 35  2  0  0  0
 18 13  1  0  0  0
  7  1  1  0  0  0
 12  7  1  0  0  0
 26 21  1  0  0  0
 35 27  1  0  0  0
 43 38  1  0  0  0
 34 30  1  0  0  0
 31 36  1  0  0  0
M  END
> <minimizedAffinity>
-6.03096

> <CNNscore>
0.3672398627

> <CNNaffinity>
7.3575997353

> <CNN_VS>
2.7020039558

> <CNNaffinity_variance>
0.2413085699

$$$$
[H]c1nc2c([H])c(N([H])C(=O)OC(C([H])([H])[H])(C([H])([H])[H])C([H])([H])[H])c([H])c(-c3c([H])c([H])c(C#N)c(F)c3[H])n2n1


 27 29  0  0  0  0  0  0  0  0999 V2000
   15.2030   24.0645   -3.7649 C   0  0  0  0  0  0  0  0  0  0  0  0
   14.8842   24.7597   -2.6504 C   0  0  0  0  0  0  0  0  0  0  0  0
   14.4086   24.1887   -1.4619 C   0  0  0  0  0  0  0  0  0  0  0  0
   14.2669   22.8568   -1.4505 N   0  0  0  0  0  0  0  0  0  0  0  0
   13.8490   22.0480   -0.4972 N   0  0  0  0  0  0  0  0  0  0  0  0
   13.8808   20.7819   -0.9614 C   0  0  0  0  0  0  0  0  0  0  0  0
   14.3299   20.8286   -2.2288 N   0  0  0  0  0  0  0  0  0  0  0  0
   14.5740   22.1325   -2.5403 C   0  0  0  0  0  0  0  0  0  0  0  0
   15.0371   22.6708   -3.7025 C   0  0  0  0  0  0  0  0  0  0  0  0
   14.1081   25.0633   -0.3470 C   0  0  0  0  0  0  0  0  0  0  0  0
   15.1435   25.7644    0.2321 C   0  0  0  0  0  0  0  0  0  0  0  0
   14.8980   26.6139    1.3035 C   0  0  0  0  0  0  0  0  0  0  0  0
   13.5933   26.7428    1.7781 C   0  0  0  0  0  0  0  0  0  0  0  0
   12.5444   26.0507    1.2130 C   0  0  0  0  0  0  0  0  0  0  0  0
   11.2827   26.1808    1.6785 F   0  0  0  0  0  0  0  0  0  0  0  0
   12.8332   25.2144    0.1466 C   0  0  0  0  0  0  0  0  0  0  0  0
   13.3202   27.6168    2.8854 C   0  0  0  0  0  0  0  0  0  0  0  0
   13.1167   28.3197    3.7779 N   0  0  0  0  0  0  0  0  0  0  0  0
   15.4236   25.9791   -5.4035 C   0  0  0  0  0  0  0  0  0  0  0  0
   14.7268   26.8640   -4.8735 O   0  0  0  0  0  0  0  0  0  0  0  0
   15.6766   24.6733   -4.9361 N   0  0  0  0  0  0  0  0  0  0  0  0
   16.3182   24.0531   -5.5545 H   0  0  0  0  0  0  0  0  0  0  0  0
   15.9990   26.4179   -6.6250 O   0  0  0  0  0  0  0  0  0  0  0  0
   16.6622   24.3628   -7.7010 C   0  0  0  0  0  0  0  0  0  0  0  0
   15.9425   25.6914   -7.8036 C   0  0  0  0  0  0  0  0  0  0  0  0
   14.4830   25.4047   -8.0990 C   0  0  0  0  0  0  0  0  0  0  0  0
   16.4970   26.4133   -9.0059 C   0  0  0  0  0  0  0  0  0  0  0  0
 24 25  1  0  0  0
 25 26  1  0  0  0
 25 27  1  0  0  0
 25 23  1  0  0  0
 23 19  1  0  0  0
 19 20  2  0  0  0
 19 21  1  0  0  0
 21  1  1  0  0  0
  1  2  1  0  0  0
  2  3  2  0  0  0
  3 10  1  0  0  0
 10 11  2  0  0  0
 11 12  1  0  0  0
 12 13  2  0  0  0
 13 17  1  0  0  0
 17 18  3  0  0  0
 13 14  1  0  0  0
 14 15  1  0  0  0
 14 16  2  0  0  0
  3  4  1  0  0  0
  4  5  1  0  0  0
  5  6  2  0  0  0
  6  7  1  0  0  0
  7  8  2  0  0  0
  8  9  1  0  0  0
  9  1  2  0  0  0
 16 10  1  0  0  0
  8  4  1  0  0  0
 21 22  1  0  0  0
M  END
> <minimizedAffinity>
12.22310

> <CNNscore>
0.6204586029

> <CNNaffinity>
6.7611122131

> <CNN_VS>
4.1949901581

> <CNNaffinity_variance>
0.6894913316

$$$$
[H]c1nc2c([H])c(N([H])C(=O)OC(C([H])([H])[H])(C([H])([H])[H])C([H])([H])[H])c([H])c(-c3c([H])c([H])c(C#N)c(F)c3[H])n2n1


 27 29  0  0  0  0  0  0  0  0999 V2000
   10.9620   23.9902    0.9002 C   0  0  0  0  0  0  0  0  0  0  0  0
   11.5733   24.4946   -0.1948 C   0  0  0  0  0  0  0  0  0  0  0  0
   12.7297   23.9612   -0.7804 C   0  0  0  0  0  0  0  0  0  0  0  0
   13.2507   22.8734   -0.1977 N   0  0  0  0  0  0  0  0  0  0  0  0
   14.3132   22.1593   -0.5119 N   0  0  0  0  0  0  0  0  0  0  0  0
   14.4341   21.1522    0.3773 C   0  0  0  0  0  0  0  0  0  0  0  0
   13.4170   21.2621    1.2512 N   0  0  0  0  0  0  0  0  0  0  0  0
   12.6700   22.3440    0.8927 C   0  0  0  0  0  0  0  0  0  0  0  0
   11.5470   22.8491    1.4743 C   0  0  0  0  0  0  0  0  0  0  0  0
   13.2724   24.6120   -1.9552 C   0  0  0  0  0  0  0  0  0  0  0  0
   12.6685   25.7677   -2.4006 C   0  0  0  0  0  0  0  0  0  0  0  0
   13.1580   26.4229   -3.5236 C   0  0  0  0  0  0  0  0  0  0  0  0
   14.2640   25.8926   -4.1865 C   0  0  0  0  0  0  0  0  0  0  0  0
   14.8820   24.7384   -3.7571 C   0  0  0  0  0  0  0  0  0  0  0  0
   15.9535   24.2304   -4.4048 F   0  0  0  0  0  0  0  0  0  0  0  0
   14.3618   24.1168   -2.6332 C   0  0  0  0  0  0  0  0  0  0  0  0
   14.7843   26.5564   -5.3497 C   0  0  0  0  0  0  0  0  0  0  0  0
   15.2114   27.0767   -6.2873 N   0  0  0  0  0  0  0  0  0  0  0  0
    9.2686   24.3499    2.7449 C   0  0  0  0  0  0  0  0  0  0  0  0
    9.7115   23.6273    3.6566 O   0  0  0  0  0  0  0  0  0  0  0  0
    9.8045   24.5534    1.4569 N   0  0  0  0  0  0  0  0  0  0  0  0
    9.2591   25.2304    0.8065 H   0  0  0  0  0  0  0  0  0  0  0  0
    8.0752   25.0162    3.1288 O   0  0  0  0  0  0  0  0  0  0  0  0
    7.3128   27.3035    3.0384 C   0  0  0  0  0  0  0  0  0  0  0  0
    8.0560   26.2272    3.8019 C   0  0  0  0  0  0  0  0  0  0  0  0
    7.3338   26.0119    5.1178 C   0  0  0  0  0  0  0  0  0  0  0  0
    9.4210   26.7733    4.1379 C   0  0  0  0  0  0  0  0  0  0  0  0
 24 25  1  0  0  0
 25 26  1  0  0  0
 25 27  1  0  0  0
 25 23  1  0  0  0
 23 19  1  0  0  0
 19 20  2  0  0  0
 19 21  1  0  0  0
 21  1  1  0  0  0
  1  2  1  0  0  0
  2  3  2  0  0  0
  3 10  1  0  0  0
 10 11  2  0  0  0
 11 12  1  0  0  0
 12 13  2  0  0  0
 13 17  1  0  0  0
 17 18  3  0  0  0
 13 14  1  0  0  0
 14 15  1  0  0  0
 14 16  2  0  0  0
  3  4  1  0  0  0
  4  5  1  0  0  0
  5  6  2  0  0  0
  6  7  1  0  0  0
  7  8  2  0  0  0
  8  9  1  0  0  0
  9  1  2  0  0  0
 16 10  1  0  0  0
  8  4  1  0  0  0
 21 22  1  0  0  0
M  END
> <minimizedAffinity>
-9.33664

> <CNNscore>
0.6082783937

> <CNNaffinity>
6.9324674606

> <CNN_VS>
4.2168703079

> <CNNaffinity_variance>
0.2202620953

$$$$
[H]c1nc2c([H])c(N([H])C(=O)OC(C([H])([H])[H])(C([H])([H])[H])C([H])([H])[H])c([H])c(-c3c([H])c([H])c(C#N)c(F)c3[H])n2n1


 27 29  0  0  0  0  0  0  0  0999 V2000
   10.9491   23.9794    0.9553 C   0  0  0  0  0  0  0  0  0  0  0  0
   11.5921   24.4509   -0.1362 C   0  0  0  0  0  0  0  0  0  0  0  0
   12.7438   23.8786   -0.6936 C   0  0  0  0  0  0  0  0  0  0  0  0
   13.2259   22.7866   -0.0859 N   0  0  0  0  0  0  0  0  0  0  0  0
   14.2744   22.0403   -0.3709 N   0  0  0  0  0  0  0  0  0  0  0  0
   14.3535   21.0440    0.5350 C   0  0  0  0  0  0  0  0  0  0  0  0
   13.3250   21.1938    1.3894 N   0  0  0  0  0  0  0  0  0  0  0  0
   12.6130   22.2892    1.0019 C   0  0  0  0  0  0  0  0  0  0  0  0
   11.4939   22.8323    1.5564 C   0  0  0  0  0  0  0  0  0  0  0  0
   13.3234   24.4969   -1.8683 C   0  0  0  0  0  0  0  0  0  0  0  0
   14.4449   23.9211   -2.4248 C   0  0  0  0  0  0  0  0  0  0  0  0
   15.0317   24.4827   -3.5518 C   0  0  0  0  0  0  0  0  0  0  0  0
   14.4683   25.6318   -4.1051 C   0  0  0  0  0  0  0  0  0  0  0  0
   13.3474   26.2227   -3.5638 C   0  0  0  0  0  0  0  0  0  0  0  0
   12.8070   27.3363   -4.1057 F   0  0  0  0  0  0  0  0  0  0  0  0
   12.7939   25.6302   -2.4401 C   0  0  0  0  0  0  0  0  0  0  0  0
   15.0614   26.2268   -5.2708 C   0  0  0  0  0  0  0  0  0  0  0  0
   15.5512   26.7079   -6.1986 N   0  0  0  0  0  0  0  0  0  0  0  0
    9.2102   24.3784    2.7488 C   0  0  0  0  0  0  0  0  0  0  0  0
    9.5915   23.6224    3.6613 O   0  0  0  0  0  0  0  0  0  0  0  0
    9.7977   24.5812    1.4834 N   0  0  0  0  0  0  0  0  0  0  0  0
    9.3032   25.2914    0.8278 H   0  0  0  0  0  0  0  0  0  0  0  0
    8.0329   25.0876    3.1049 O   0  0  0  0  0  0  0  0  0  0  0  0
    7.3106   27.3896    3.1147 C   0  0  0  0  0  0  0  0  0  0  0  0
    8.0393   26.2697    3.8278 C   0  0  0  0  0  0  0  0  0  0  0  0
    7.3215   26.0124    5.1386 C   0  0  0  0  0  0  0  0  0  0  0  0
    9.4158   26.7774    4.1769 C   0  0  0  0  0  0  0  0  0  0  0  0
 24 25  1  0  0  0
 25 26  1  0  0  0
 25 27  1  0  0  0
 25 23  1  0  0  0
 23 19  1  0  0  0
 19 20  2  0  0  0
 19 21  1  0  0  0
 21  1  1  0  0  0
  1  2  1  0  0  0
  2  3  2  0  0  0
  3 10  1  0  0  0
 10 11  2  0  0  0
 11 12  1  0  0  0
 12 13  2  0  0  0
 13 17  1  0  0  0
 17 18  3  0  0  0
 13 14  1  0  0  0
 14 15  1  0  0  0
 14 16  2  0  0  0
  3  4  1  0  0  0
  4  5  1  0  0  0
  5  6  2  0  0  0
  6  7  1  0  0  0
  7  8  2  0  0  0
  8  9  1  0  0  0
  9  1  2  0  0  0
 16 10  1  0  0  0
  8  4  1  0  0  0
 21 22  1  0  0  0
M  END
> <minimizedAffinity>
-9.12392

> <CNNscore>
0.6048030853

> <CNNaffinity>
6.9100761414

> <CNN_VS>
4.1792354584

> <CNNaffinity_variance>
0.1544714272

$$$$
[H]c1nc2c([H])c(N([H])C(=O)OC(C([H])([H])[H])(C([H])([H])[H])C([H])([H])[H])c([H])c(-c3c([H])c([H])c(C#N)c(F)c3[H])n2n1


 27 29  0  0  0  0  0  0  0  0999 V2000
   12.1693   23.8266   -0.4749 C   0  0  0  0  0  0  0  0  0  0  0  0
   12.6815   24.1606   -1.6804 C   0  0  0  0  0  0  0  0  0  0  0  0
   14.0239   24.4893   -1.9141 C   0  0  0  0  0  0  0  0  0  0  0  0
   14.8415   24.4646   -0.8534 N   0  0  0  0  0  0  0  0  0  0  0  0
   16.1311   24.7210   -0.7598 N   0  0  0  0  0  0  0  0  0  0  0  0
   16.5102   24.5615    0.5249 C   0  0  0  0  0  0  0  0  0  0  0  0
   15.4197   24.1992    1.2247 N   0  0  0  0  0  0  0  0  0  0  0  0
   14.3676   24.1371    0.3609 C   0  0  0  0  0  0  0  0  0  0  0  0
   13.0671   23.8153    0.6057 C   0  0  0  0  0  0  0  0  0  0  0  0
   14.4277   24.8272   -3.2636 C   0  0  0  0  0  0  0  0  0  0  0  0
   15.2409   23.9464   -3.9431 C   0  0  0  0  0  0  0  0  0  0  0  0
   15.6507   24.2328   -5.2392 C   0  0  0  0  0  0  0  0  0  0  0  0
   15.2266   25.4199   -5.8350 C   0  0  0  0  0  0  0  0  0  0  0  0
   14.4135   26.3135   -5.1726 C   0  0  0  0  0  0  0  0  0  0  0  0
   14.0065   27.4620   -5.7566 F   0  0  0  0  0  0  0  0  0  0  0  0
   14.0280   25.9890   -3.8818 C   0  0  0  0  0  0  0  0  0  0  0  0
   15.6403   25.7330   -7.1749 C   0  0  0  0  0  0  0  0  0  0  0  0
   15.9832   25.9722   -8.2507 N   0  0  0  0  0  0  0  0  0  0  0  0
    9.9606   23.9262    0.7544 C   0  0  0  0  0  0  0  0  0  0  0  0
   10.2240   24.6746    1.7137 O   0  0  0  0  0  0  0  0  0  0  0  0
   10.8183   23.5036   -0.2815 N   0  0  0  0  0  0  0  0  0  0  0  0
   10.3874   22.8445   -1.0288 H   0  0  0  0  0  0  0  0  0  0  0  0
    8.6105   23.4876    0.7793 O   0  0  0  0  0  0  0  0  0  0  0  0
    7.3624   22.6641    2.6727 C   0  0  0  0  0  0  0  0  0  0  0  0
    8.1872   22.3472    1.4427 C   0  0  0  0  0  0  0  0  0  0  0  0
    7.3107   21.5580    0.4895 C   0  0  0  0  0  0  0  0  0  0  0  0
    9.3027   21.4276    1.8720 C   0  0  0  0  0  0  0  0  0  0  0  0
 24 25  1  0  0  0
 25 26  1  0  0  0
 25 27  1  0  0  0
 25 23  1  0  0  0
 23 19  1  0  0  0
 19 20  2  0  0  0
 19 21  1  0  0  0
 21  1  1  0  0  0
  1  2  1  0  0  0
  2  3  2  0  0  0
  3 10  1  0  0  0
 10 11  2  0  0  0
 11 12  1  0  0  0
 12 13  2  0  0  0
 13 17  1  0  0  0
 17 18  3  0  0  0
 13 14  1  0  0  0
 14 15  1  0  0  0
 14 16  2  0  0  0
  3  4  1  0  0  0
  4  5  1  0  0  0
  5  6  2  0  0  0
  6  7  1  0  0  0
  7  8  2  0  0  0
  8  9  1  0  0  0
  9  1  2  0  0  0
 16 10  1  0  0  0
  8  4  1  0  0  0
 21 22  1  0  0  0
M  END
> <minimizedAffinity>
-7.54426

> <CNNscore>
0.5954361558

> <CNNaffinity>
7.1118903160

> <CNN_VS>
4.2346768379

> <CNNaffinity_variance>
0.1097159609

$$$$
[H]c1nc2c([H])c(N([H])C(=O)OC(C([H])([H])[H])(C([H])([H])[H])C([H])([H])[H])c([H])c(-c3c([H])c([H])c(C#N)c(F)c3[H])n2n1


 27 29  0  0  0  0  0  0  0  0999 V2000
   13.8875   24.4647   -1.9198 C   0  0  0  0  0  0  0  0  0  0  0  0
   14.5181   24.5407   -3.1129 C   0  0  0  0  0  0  0  0  0  0  0  0
   14.2891   25.5339   -4.0751 C   0  0  0  0  0  0  0  0  0  0  0  0
   13.3759   26.4654   -3.7708 N   0  0  0  0  0  0  0  0  0  0  0  0
   12.9512   27.5059   -4.4597 N   0  0  0  0  0  0  0  0  0  0  0  0
   12.0178   28.1530   -3.7320 C   0  0  0  0  0  0  0  0  0  0  0  0
   11.8759   27.4845   -2.5730 N   0  0  0  0  0  0  0  0  0  0  0  0
   12.7288   26.4219   -2.5936 C   0  0  0  0  0  0  0  0  0  0  0  0
   12.9388   25.4646   -1.6479 C   0  0  0  0  0  0  0  0  0  0  0  0
   15.0428   25.4855   -5.3111 C   0  0  0  0  0  0  0  0  0  0  0  0
   15.4270   24.2538   -5.7953 C   0  0  0  0  0  0  0  0  0  0  0  0
   16.1510   24.1634   -6.9774 C   0  0  0  0  0  0  0  0  0  0  0  0
   16.4791   25.3342   -7.6597 C   0  0  0  0  0  0  0  0  0  0  0  0
   16.1045   26.5751   -7.1924 C   0  0  0  0  0  0  0  0  0  0  0  0
   16.4262   27.7054   -7.8592 F   0  0  0  0  0  0  0  0  0  0  0  0
   15.3835   26.6201   -6.0099 C   0  0  0  0  0  0  0  0  0  0  0  0
   17.2275   25.2604   -8.8841 C   0  0  0  0  0  0  0  0  0  0  0  0
   17.8315   25.1854   -9.8647 N   0  0  0  0  0  0  0  0  0  0  0  0
   15.0871   23.4564    0.0662 C   0  0  0  0  0  0  0  0  0  0  0  0
   15.8874   24.3574    0.3785 O   0  0  0  0  0  0  0  0  0  0  0  0
   14.1448   23.4538   -0.9824 N   0  0  0  0  0  0  0  0  0  0  0  0
   13.5367   22.5602   -1.0851 H   0  0  0  0  0  0  0  0  0  0  0  0
   15.2006   22.3272    0.9193 O   0  0  0  0  0  0  0  0  0  0  0  0
   13.4590   20.6968    1.2788 C   0  0  0  0  0  0  0  0  0  0  0  0
   14.7517   21.0613    0.5790 C   0  0  0  0  0  0  0  0  0  0  0  0
   14.4874   21.0517   -0.9142 C   0  0  0  0  0  0  0  0  0  0  0  0
   15.7407   19.9564    0.8538 C   0  0  0  0  0  0  0  0  0  0  0  0
 24 25  1  0  0  0
 25 26  1  0  0  0
 25 27  1  0  0  0
 25 23  1  0  0  0
 23 19  1  0  0  0
 19 20  2  0  0  0
 19 21  1  0  0  0
 21  1  1  0  0  0
  1  2  1  0  0  0
  2  3  2  0  0  0
  3 10  1  0  0  0
 10 11  2  0  0  0
 11 12  1  0  0  0
 12 13  2  0  0  0
 13 17  1  0  0  0
 17 18  3  0  0  0
 13 14  1  0  0  0
 14 15  1  0  0  0
 14 16  2  0  0  0
  3  4  1  0  0  0
  4  5  1  0  0  0
  5  6  2  0  0  0
  6  7  1  0  0  0
  7  8  2  0  0  0
  8  9  1  0  0  0
  9  1  2  0  0  0
 16 10  1  0  0  0
  8  4  1  0  0  0
 21 22  1  0  0  0
M  END
> <minimizedAffinity>
7.87109

> <CNNscore>
0.5583384633

> <CNNaffinity>
6.8329300880

> <CNN_VS>
3.8150877953

> <CNNaffinity_variance>
0.8119786978

$$$$
[H]c1nc2c([H])c(N([H])C(=O)OC(C([H])([H])[H])(C([H])([H])[H])C([H])([H])[H])c([H])c(-c3c([H])c([H])c(C#N)c(F)c3[H])n2n1


 27 29  0  0  0  0  0  0  0  0999 V2000
   12.1592   23.8919   -0.3874 C   0  0  0  0  0  0  0  0  0  0  0  0
   12.6738   24.2662   -1.5800 C   0  0  0  0  0  0  0  0  0  0  0  0
   14.0215   24.5790   -1.8051 C   0  0  0  0  0  0  0  0  0  0  0  0
   14.8418   24.4948   -0.7495 N   0  0  0  0  0  0  0  0  0  0  0  0
   16.1363   24.7227   -0.6503 N   0  0  0  0  0  0  0  0  0  0  0  0
   16.5164   24.5027    0.6251 C   0  0  0  0  0  0  0  0  0  0  0  0
   15.4213   24.1322    1.3135 N   0  0  0  0  0  0  0  0  0  0  0  0
   14.3655   24.1259    0.4520 C   0  0  0  0  0  0  0  0  0  0  0  0
   13.0600   23.8187    0.6882 C   0  0  0  0  0  0  0  0  0  0  0  0
   14.4274   24.9652   -3.1409 C   0  0  0  0  0  0  0  0  0  0  0  0
   14.0248   26.1939   -3.6174 C   0  0  0  0  0  0  0  0  0  0  0  0
   14.3927   26.6025   -4.8931 C   0  0  0  0  0  0  0  0  0  0  0  0
   15.1714   25.7517   -5.6765 C   0  0  0  0  0  0  0  0  0  0  0  0
   15.5842   24.5194   -5.2186 C   0  0  0  0  0  0  0  0  0  0  0  0
   16.3387   23.7004   -5.9837 F   0  0  0  0  0  0  0  0  0  0  0  0
   15.1952   24.1512   -3.9406 C   0  0  0  0  0  0  0  0  0  0  0  0
   15.5616   26.1573   -6.9986 C   0  0  0  0  0  0  0  0  0  0  0  0
   15.8900   26.4775   -8.0577 N   0  0  0  0  0  0  0  0  0  0  0  0
    9.9557   23.9848    0.8517 C   0  0  0  0  0  0  0  0  0  0  0  0
   10.2353   24.6907    1.8382 O   0  0  0  0  0  0  0  0  0  0  0  0
   10.8030   23.5867   -0.2023 N   0  0  0  0  0  0  0  0  0  0  0  0
   10.3581   22.9648   -0.9731 H   0  0  0  0  0  0  0  0  0  0  0  0
    8.5978   23.5705    0.8640 O   0  0  0  0  0  0  0  0  0  0  0  0
    9.3134   21.5062    1.8875 C   0  0  0  0  0  0  0  0  0  0  0  0
    8.1661   22.3749    1.4155 C   0  0  0  0  0  0  0  0  0  0  0  0
    7.3106   22.7065    2.6229 C   0  0  0  0  0  0  0  0  0  0  0  0
    7.3148   21.5372    0.4948 C   0  0  0  0  0  0  0  0  0  0  0  0
 24 25  1  0  0  0
 25 26  1  0  0  0
 25 27  1  0  0  0
 25 23  1  0  0  0
 23 19  1  0  0  0
 19 20  2  0  0  0
 19 21  1  0  0  0
 21  1  1  0  0  0
  1  2  1  0  0  0
  2  3  2  0  0  0
  3 10  1  0  0  0
 10 11  2  0  0  0
 11 12  1  0  0  0
 12 13  2  0  0  0
 13 17  1  0  0  0
 17 18  3  0  0  0
 13 14  1  0  0  0
 14 15  1  0  0  0
 14 16  2  0  0  0
  3  4  1  0  0  0
  4  5  1  0  0  0
  5  6  2  0  0  0
  6  7  1  0  0  0
  7  8  2  0  0  0
  8  9  1  0  0  0
  9  1  2  0  0  0
 16 10  1  0  0  0
  8  4  1  0  0  0
 21 22  1  0  0  0
M  END
> <minimizedAffinity>
-6.81188

> <CNNscore>
0.5530049801

> <CNNaffinity>
7.0522947311

> <CNN_VS>
3.8999540806

> <CNNaffinity_variance>
0.2065804005

$$$$
[H]c1nc2c([H])c(N([H])C(=O)OC(C([H])([H])[H])(C([H])([H])[H])C([H])([H])[H])c([H])c(-c3c([H])c([H])c(C#N)c(F)c3[H])n2n1


 27 29  0  0  0  0  0  0  0  0999 V2000
   16.0097   24.9582   -3.5463 C   0  0  0  0  0  0  0  0  0  0  0  0
   14.9597   24.2001   -3.1590 C   0  0  0  0  0  0  0  0  0  0  0  0
   14.7824   23.6811   -1.8691 C   0  0  0  0  0  0  0  0  0  0  0  0
   15.7332   23.9685   -0.9704 N   0  0  0  0  0  0  0  0  0  0  0  0
   15.8429   23.6294    0.2986 N   0  0  0  0  0  0  0  0  0  0  0  0
   16.9815   24.1604    0.7899 C   0  0  0  0  0  0  0  0  0  0  0  0
   17.5743   24.8378   -0.2101 N   0  0  0  0  0  0  0  0  0  0  0  0
   16.7918   24.7195   -1.3194 C   0  0  0  0  0  0  0  0  0  0  0  0
   16.9796   25.2315   -2.5674 C   0  0  0  0  0  0  0  0  0  0  0  0
   13.6035   22.8833   -1.6013 C   0  0  0  0  0  0  0  0  0  0  0  0
   13.6465   21.5359   -1.8872 C   0  0  0  0  0  0  0  0  0  0  0  0
   12.5373   20.7353   -1.6452 C   0  0  0  0  0  0  0  0  0  0  0  0
   11.3881   21.3168   -1.1114 C   0  0  0  0  0  0  0  0  0  0  0  0
   11.3249   22.6617   -0.8186 C   0  0  0  0  0  0  0  0  0  0  0  0
   10.2075   23.2181   -0.3014 F   0  0  0  0  0  0  0  0  0  0  0  0
   12.4533   23.4238   -1.0753 C   0  0  0  0  0  0  0  0  0  0  0  0
   10.2311   20.5044   -0.8544 C   0  0  0  0  0  0  0  0  0  0  0  0
    9.2969   19.8625   -0.6366 N   0  0  0  0  0  0  0  0  0  0  0  0
   16.6446   26.7179   -5.2492 C   0  0  0  0  0  0  0  0  0  0  0  0
   17.0574   27.6465   -4.5302 O   0  0  0  0  0  0  0  0  0  0  0  0
   16.1513   25.4595   -4.8483 N   0  0  0  0  0  0  0  0  0  0  0  0
   15.8391   24.7866   -5.6410 H   0  0  0  0  0  0  0  0  0  0  0  0
   16.7117   27.0456   -6.6290 O   0  0  0  0  0  0  0  0  0  0  0  0
   14.7052   25.8591   -7.2513 C   0  0  0  0  0  0  0  0  0  0  0  0
   16.1062   26.2964   -7.6250 C   0  0  0  0  0  0  0  0  0  0  0  0
   16.0035   27.1695   -8.8606 C   0  0  0  0  0  0  0  0  0  0  0  0
   16.8726   25.0612   -8.0265 C   0  0  0  0  0  0  0  0  0  0  0  0
 24 25  1  0  0  0
 25 26  1  0  0  0
 25 27  1  0  0  0
 25 23  1  0  0  0
 23 19  1  0  0  0
 19 20  2  0  0  0
 19 21  1  0  0  0
 21  1  1  0  0  0
  1  2  1  0  0  0
  2  3  2  0  0  0
  3 10  1  0  0  0
 10 11  2  0  0  0
 11 12  1  0  0  0
 12 13  2  0  0  0
 13 17  1  0  0  0
 17 18  3  0  0  0
 13 14  1  0  0  0
 14 15  1  0  0  0
 14 16  2  0  0  0
  3  4  1  0  0  0
  4  5  1  0  0  0
  5  6  2  0  0  0
  6  7  1  0  0  0
  7  8  2  0  0  0
  8  9  1  0  0  0
  9  1  2  0  0  0
 16 10  1  0  0  0
  8  4  1  0  0  0
 21 22  1  0  0  0
M  END
> <minimizedAffinity>
3.61484

> <CNNscore>
0.5285974145

> <CNNaffinity>
7.0119843483

> <CNN_VS>
3.7065167427

> <CNNaffinity_variance>
0.5725575686

$$$$
[H]c1nc2c([H])c(N([H])C(=O)OC(C([H])([H])[H])(C([H])([H])[H])C([H])([H])[H])c([H])c(-c3c([H])c([H])c(C#N)c(F)c3[H])n2n1


 27 29  0  0  0  0  0  0  0  0999 V2000
   16.0156   24.9635   -2.4513 C   0  0  0  0  0  0  0  0  0  0  0  0
   15.1229   24.0566   -1.9955 C   0  0  0  0  0  0  0  0  0  0  0  0
   15.2164   23.3936   -0.7641 C   0  0  0  0  0  0  0  0  0  0  0  0
   16.2738   23.6945    0.0010 N   0  0  0  0  0  0  0  0  0  0  0  0
   16.6283   23.2439    1.1880 N   0  0  0  0  0  0  0  0  0  0  0  0
   17.7780   23.8478    1.5528 C   0  0  0  0  0  0  0  0  0  0  0  0
   18.1261   24.6851    0.5588 N   0  0  0  0  0  0  0  0  0  0  0  0
   17.1821   24.5916   -0.4194 C   0  0  0  0  0  0  0  0  0  0  0  0
   17.1068   25.2446   -1.6122 C   0  0  0  0  0  0  0  0  0  0  0  0
   14.1808   22.4447   -0.4098 C   0  0  0  0  0  0  0  0  0  0  0  0
   13.3078   22.0318   -1.3928 C   0  0  0  0  0  0  0  0  0  0  0  0
   12.3004   21.1228   -1.0948 C   0  0  0  0  0  0  0  0  0  0  0  0
   12.1904   20.6398    0.2085 C   0  0  0  0  0  0  0  0  0  0  0  0
   13.0532   21.0401    1.2055 C   0  0  0  0  0  0  0  0  0  0  0  0
   12.9402   20.5676    2.4663 F   0  0  0  0  0  0  0  0  0  0  0  0
   14.0434   21.9478    0.8653 C   0  0  0  0  0  0  0  0  0  0  0  0
   11.1547   19.6990    0.5355 C   0  0  0  0  0  0  0  0  0  0  0  0
   10.3253   18.9463    0.8139 N   0  0  0  0  0  0  0  0  0  0  0  0
   16.3509   25.1733   -4.9499 C   0  0  0  0  0  0  0  0  0  0  0  0
   16.9721   24.1298   -5.2231 O   0  0  0  0  0  0  0  0  0  0  0  0
   15.8868   25.6062   -3.6911 N   0  0  0  0  0  0  0  0  0  0  0  0
   15.3619   26.5563   -3.6687 H   0  0  0  0  0  0  0  0  0  0  0  0
   16.1215   25.9709   -6.1019 O   0  0  0  0  0  0  0  0  0  0  0  0
   17.8426   27.4987   -5.3777 C   0  0  0  0  0  0  0  0  0  0  0  0
   16.6474   27.2415   -6.2717 C   0  0  0  0  0  0  0  0  0  0  0  0
   17.1126   27.3595   -7.7102 C   0  0  0  0  0  0  0  0  0  0  0  0
   15.6613   28.3586   -6.0393 C   0  0  0  0  0  0  0  0  0  0  0  0
 24 25  1  0  0  0
 25 26  1  0  0  0
 25 27  1  0  0  0
 25 23  1  0  0  0
 23 19  1  0  0  0
 19 20  2  0  0  0
 19 21  1  0  0  0
 21  1  1  0  0  0
  1  2  1  0  0  0
  2  3  2  0  0  0
  3 10  1  0  0  0
 10 11  2  0  0  0
 11 12  1  0  0  0
 12 13  2  0  0  0
 13 17  1  0  0  0
 17 18  3  0  0  0
 13 14  1  0  0  0
 14 15  1  0  0  0
 14 16  2  0  0  0
  3  4  1  0  0  0
  4  5  1  0  0  0
  5  6  2  0  0  0
  6  7  1  0  0  0
  7  8  2  0  0  0
  8  9  1  0  0  0
  9  1  2  0  0  0
 16 10  1  0  0  0
  8  4  1  0  0  0
 21 22  1  0  0  0
M  END
> <minimizedAffinity>
8.92055

> <CNNscore>
0.5075606108

> <CNNaffinity>
6.8765358925

> <CNN_VS>
3.4902586937

> <CNNaffinity_variance>
0.8119891882

$$$$
[H]c1nc2c([H])c(N([H])C(=O)OC(C([H])([H])[H])(C([H])([H])[H])C([H])([H])[H])c([H])c(-c3c([H])c([H])c(C#N)c(F)c3[H])n2n1


 27 29  0  0  0  0  0  0  0  0999 V2000
   12.9052   23.5358   -0.7612 C   0  0  0  0  0  0  0  0  0  0  0  0
   13.4748   23.7631   -1.9658 C   0  0  0  0  0  0  0  0  0  0  0  0
   13.6572   25.0304   -2.5363 C   0  0  0  0  0  0  0  0  0  0  0  0
   13.2295   26.0784   -1.8201 N   0  0  0  0  0  0  0  0  0  0  0  0
   13.2621   27.3688   -2.0869 N   0  0  0  0  0  0  0  0  0  0  0  0
   12.7087   28.0368   -1.0539 C   0  0  0  0  0  0  0  0  0  0  0  0
   12.3321   27.1244   -0.1396 N   0  0  0  0  0  0  0  0  0  0  0  0
   12.6581   25.8908   -0.6180 C   0  0  0  0  0  0  0  0  0  0  0  0
   12.4732   24.6673   -0.0492 C   0  0  0  0  0  0  0  0  0  0  0  0
   14.2849   25.1180   -3.8388 C   0  0  0  0  0  0  0  0  0  0  0  0
   14.0490   26.2390   -4.6047 C   0  0  0  0  0  0  0  0  0  0  0  0
   14.6319   26.3623   -5.8596 C   0  0  0  0  0  0  0  0  0  0  0  0
   15.4543   25.3375   -6.3260 C   0  0  0  0  0  0  0  0  0  0  0  0
   15.7027   24.2088   -5.5757 C   0  0  0  0  0  0  0  0  0  0  0  0
   16.5009   23.2198   -6.0344 F   0  0  0  0  0  0  0  0  0  0  0  0
   15.1016   24.1263   -4.3299 C   0  0  0  0  0  0  0  0  0  0  0  0
   16.0659   25.4474   -7.6215 C   0  0  0  0  0  0  0  0  0  0  0  0
   16.5425   25.5360   -8.6690 N   0  0  0  0  0  0  0  0  0  0  0  0
   13.3885   21.6825    0.8914 C   0  0  0  0  0  0  0  0  0  0  0  0
   14.2426   22.2033    1.6323 O   0  0  0  0  0  0  0  0  0  0  0  0
   12.7404   22.2508   -0.2241 N   0  0  0  0  0  0  0  0  0  0  0  0
   12.0208   21.6217   -0.7389 H   0  0  0  0  0  0  0  0  0  0  0  0
   13.0850   20.3527    1.2853 O   0  0  0  0  0  0  0  0  0  0  0  0
   11.4480   21.2062    2.8387 C   0  0  0  0  0  0  0  0  0  0  0  0
   12.0011   20.0173    2.0807 C   0  0  0  0  0  0  0  0  0  0  0  0
   10.9044   19.4986    1.1709 C   0  0  0  0  0  0  0  0  0  0  0  0
   12.2820   18.9309    3.0882 C   0  0  0  0  0  0  0  0  0  0  0  0
 24 25  1  0  0  0
 25 26  1  0  0  0
 25 27  1  0  0  0
 25 23  1  0  0  0
 23 19  1  0  0  0
 19 20  2  0  0  0
 19 21  1  0  0  0
 21  1  1  0  0  0
  1  2  1  0  0  0
  2  3  2  0  0  0
  3 10  1  0  0  0
 10 11  2  0  0  0
 11 12  1  0  0  0
 12 13  2  0  0  0
 13 17  1  0  0  0
 17 18  3  0  0  0
 13 14  1  0  0  0
 14 15  1  0  0  0
 14 16  2  0  0  0
  3  4  1  0  0  0
  4  5  1  0  0  0
  5  6  2  0  0  0
  6  7  1  0  0  0
  7  8  2  0  0  0
  8  9  1  0  0  0
  9  1  2  0  0  0
 16 10  1  0  0  0
  8  4  1  0  0  0
 21 22  1  0  0  0
M  END
> <minimizedAffinity>
10.85386

> <CNNscore>
0.5060377717

> <CNNaffinity>
6.6944246292

> <CNN_VS>
3.3876316547

> <CNNaffinity_variance>
1.2859089375

$$$$
[H]c1nc2c([H])c(N([H])C([H])([H])C3([H])C([H])([H])OC([H])([H])C3([H])[H])c([H])c(-c3c([H])c([H])c(C#N)c([H])c3[H])n2n1


 25 28  0  0  0  0  0  0  0  0999 V2000
   13.5845   24.7096   -1.9299 C   0  0  0  0  0  0  0  0  0  0  0  0
   12.2171   24.4873   -1.7776 C   0  0  0  0  0  0  0  0  0  0  0  0
   11.6684   24.1401   -0.5714 C   0  0  0  0  0  0  0  0  0  0  0  0
   12.5197   24.0166    0.4972 C   0  0  0  0  0  0  0  0  0  0  0  0
   13.8872   24.2312    0.3808 C   0  0  0  0  0  0  0  0  0  0  0  0
   14.8784   24.1738    1.2779 N   0  0  0  0  0  0  0  0  0  0  0  0
   15.9831   24.4880    0.5842 C   0  0  0  0  0  0  0  0  0  0  0  0
   15.6839   24.7290   -0.6899 N   0  0  0  0  0  0  0  0  0  0  0  0
   14.3601   24.5719   -0.8431 N   0  0  0  0  0  0  0  0  0  0  0  0
   15.1613   25.7390   -5.7748 C   0  0  0  0  0  0  0  0  0  0  0  0
   14.2421   26.5770   -5.1646 C   0  0  0  0  0  0  0  0  0  0  0  0
   13.7442   26.2368   -3.9137 C   0  0  0  0  0  0  0  0  0  0  0  0
   14.1123   25.1060   -3.2376 C   0  0  0  0  0  0  0  0  0  0  0  0
   15.0385   24.2757   -3.8684 C   0  0  0  0  0  0  0  0  0  0  0  0
   15.5467   24.5944   -5.1113 C   0  0  0  0  0  0  0  0  0  0  0  0
   16.0571   26.3794   -8.1017 N   0  0  0  0  0  0  0  0  0  0  0  0
   15.6678   26.1008   -7.0655 C   0  0  0  0  0  0  0  0  0  0  0  0
   10.2556   23.9122   -0.4218 N   0  0  0  0  0  0  0  0  0  0  0  0
    9.6078   24.7057   -0.6217 H   0  0  0  0  0  0  0  0  0  0  0  0
    9.7306   22.6433   -0.0122 C   0  0  0  0  0  0  0  0  0  0  0  0
    9.0133   22.7737    1.2946 C   0  0  0  0  0  0  0  0  0  0  0  0
    9.9348   22.4725    2.4552 C   0  0  0  0  0  0  0  0  0  0  0  0
    9.6817   23.6548    3.3919 C   0  0  0  0  0  0  0  0  0  0  0  0
    9.3786   24.6972    2.5277 O   0  0  0  0  0  0  0  0  0  0  0  0
    8.5311   24.1546    1.5852 C   0  0  0  0  0  0  0  0  0  0  0  0
 16 17  3  0  0  0
 17 10  1  0  0  0
 10 11  2  0  0  0
 11 12  1  0  0  0
 12 13  2  0  0  0
 13 14  1  0  0  0
 14 15  2  0  0  0
 13  1  1  0  0  0
  1  2  2  0  0  0
  2  3  1  0  0  0
  3 18  1  0  0  0
 18 20  1  0  0  0
 20 21  1  0  0  0
 21 22  1  0  0  0
 22 23  1  0  0  0
 23 24  1  0  0  0
 24 25  1  0  0  0
  3  4  2  0  0  0
  4  5  1  0  0  0
  5  6  2  0  0  0
  6  7  1  0  0  0
  7  8  2  0  0  0
  8  9  1  0  0  0
 15 10  1  0  0  0
  9  1  1  0  0  0
 25 21  1  0  0  0
  9  5  1  0  0  0
 18 19  1  0  0  0
M  END
> <minimizedAffinity>
-8.38651

> <CNNscore>
0.7950171232

> <CNNaffinity>
7.0506210327

> <CNN_VS>
5.6053643227

> <CNNaffinity_variance>
0.1414885074

$$$$
[H]c1nc2c([H])c(N([H])C([H])([H])C3([H])C([H])([H])OC([H])([H])C3([H])[H])c([H])c(-c3c([H])c([H])c(C#N)c([H])c3[H])n2n1


 25 28  0  0  0  0  0  0  0  0999 V2000
   13.5052   24.6972   -1.9935 C   0  0  0  0  0  0  0  0  0  0  0  0
   12.1390   24.4447   -1.8842 C   0  0  0  0  0  0  0  0  0  0  0  0
   11.5618   24.0773   -0.6974 C   0  0  0  0  0  0  0  0  0  0  0  0
   12.3829   23.9644    0.3956 C   0  0  0  0  0  0  0  0  0  0  0  0
   13.7483   24.2089    0.3222 C   0  0  0  0  0  0  0  0  0  0  0  0
   14.7130   24.1663    1.2485 N   0  0  0  0  0  0  0  0  0  0  0  0
   15.8312   24.5089    0.5906 C   0  0  0  0  0  0  0  0  0  0  0  0
   15.5654   24.7526   -0.6903 N   0  0  0  0  0  0  0  0  0  0  0  0
   14.2505   24.5683   -0.8846 N   0  0  0  0  0  0  0  0  0  0  0  0
   15.1718   25.7869   -5.7835 C   0  0  0  0  0  0  0  0  0  0  0  0
   14.2386   26.6155   -5.1818 C   0  0  0  0  0  0  0  0  0  0  0  0
   13.7115   26.2557   -3.9485 C   0  0  0  0  0  0  0  0  0  0  0  0
   14.0636   25.1141   -3.2820 C   0  0  0  0  0  0  0  0  0  0  0  0
   15.0042   24.2935   -3.9040 C   0  0  0  0  0  0  0  0  0  0  0  0
   15.5414   24.6317   -5.1294 C   0  0  0  0  0  0  0  0  0  0  0  0
   16.1367   26.4551   -8.0747 N   0  0  0  0  0  0  0  0  0  0  0  0
   15.7084   26.1690   -7.0561 C   0  0  0  0  0  0  0  0  0  0  0  0
   10.1503   23.8181   -0.5922 N   0  0  0  0  0  0  0  0  0  0  0  0
    9.5716   23.9011   -1.4567 H   0  0  0  0  0  0  0  0  0  0  0  0
    9.5356   23.4559    0.6505 C   0  0  0  0  0  0  0  0  0  0  0  0
    9.3470   21.9734    0.7257 C   0  0  0  0  0  0  0  0  0  0  0  0
    9.6019   21.3222   -0.6152 C   0  0  0  0  0  0  0  0  0  0  0  0
   10.5380   20.1697   -0.2489 C   0  0  0  0  0  0  0  0  0  0  0  0
   11.2472   20.6580    0.8393 O   0  0  0  0  0  0  0  0  0  0  0  0
   10.3106   21.2859    1.6327 C   0  0  0  0  0  0  0  0  0  0  0  0
 16 17  3  0  0  0
 17 10  1  0  0  0
 10 11  2  0  0  0
 11 12  1  0  0  0
 12 13  2  0  0  0
 13 14  1  0  0  0
 14 15  2  0  0  0
 13  1  1  0  0  0
  1  2  2  0  0  0
  2  3  1  0  0  0
  3 18  1  0  0  0
 18 20  1  0  0  0
 20 21  1  0  0  0
 21 22  1  0  0  0
 22 23  1  0  0  0
 23 24  1  0  0  0
 24 25  1  0  0  0
  3  4  2  0  0  0
  4  5  1  0  0  0
  5  6  2  0  0  0
  6  7  1  0  0  0
  7  8  2  0  0  0
  8  9  1  0  0  0
 15 10  1  0  0  0
  9  1  1  0  0  0
 25 21  1  0  0  0
  9  5  1  0  0  0
 18 19  1  0  0  0
M  END
> <minimizedAffinity>
-8.56018

> <CNNscore>
0.7735531330

> <CNNaffinity>
7.2754034996

> <CNN_VS>
5.6279110909

> <CNNaffinity_variance>
0.2021806985

$$$$
[H]c1nc2c([H])c(N([H])C([H])([H])C3([H])C([H])([H])OC([H])([H])C3([H])[H])c([H])c(-c3c([H])c([H])c(C#N)c([H])c3[H])n2n1


 25 28  0  0  0  0  0  0  0  0999 V2000
   12.5826   23.3849   -1.1088 C   0  0  0  0  0  0  0  0  0  0  0  0
   11.1985   23.4150   -0.9479 C   0  0  0  0  0  0  0  0  0  0  0  0
   10.5567   22.6192   -0.0361 C   0  0  0  0  0  0  0  0  0  0  0  0
   11.3305   21.7799    0.7244 C   0  0  0  0  0  0  0  0  0  0  0  0
   12.7120   21.7247    0.5902 C   0  0  0  0  0  0  0  0  0  0  0  0
   13.6412   20.9991    1.2232 N   0  0  0  0  0  0  0  0  0  0  0  0
   14.8039   21.3823    0.6739 C   0  0  0  0  0  0  0  0  0  0  0  0
   14.5987   22.3072   -0.2605 N   0  0  0  0  0  0  0  0  0  0  0  0
   13.2792   22.5405   -0.3320 N   0  0  0  0  0  0  0  0  0  0  0  0
   14.3769   26.1016   -3.8890 C   0  0  0  0  0  0  0  0  0  0  0  0
   14.9579   24.8632   -3.6692 C   0  0  0  0  0  0  0  0  0  0  0  0
   14.3620   23.9873   -2.7715 C   0  0  0  0  0  0  0  0  0  0  0  0
   13.2181   24.2786   -2.0801 C   0  0  0  0  0  0  0  0  0  0  0  0
   12.6486   25.5298   -2.3152 C   0  0  0  0  0  0  0  0  0  0  0  0
   13.2236   26.4159   -3.2033 C   0  0  0  0  0  0  0  0  0  0  0  0
   15.4912   27.7244   -5.5479 N   0  0  0  0  0  0  0  0  0  0  0  0
   15.0012   26.9967   -4.8177 C   0  0  0  0  0  0  0  0  0  0  0  0
    9.1272   22.6559    0.1244 N   0  0  0  0  0  0  0  0  0  0  0  0
    8.5705   21.8631   -0.2639 H   0  0  0  0  0  0  0  0  0  0  0  0
    8.4660   23.7371    0.7932 C   0  0  0  0  0  0  0  0  0  0  0  0
    8.7791   23.7139    2.2562 C   0  0  0  0  0  0  0  0  0  0  0  0
    9.5539   24.9455    2.6680 C   0  0  0  0  0  0  0  0  0  0  0  0
    8.7887   25.4176    3.9052 C   0  0  0  0  0  0  0  0  0  0  0  0
    7.4814   25.0298    3.6485 O   0  0  0  0  0  0  0  0  0  0  0  0
    7.5739   23.7541    3.1337 C   0  0  0  0  0  0  0  0  0  0  0  0
 16 17  3  0  0  0
 17 10  1  0  0  0
 10 11  2  0  0  0
 11 12  1  0  0  0
 12 13  2  0  0  0
 13 14  1  0  0  0
 14 15  2  0  0  0
 13  1  1  0  0  0
  1  2  2  0  0  0
  2  3  1  0  0  0
  3 18  1  0  0  0
 18 20  1  0  0  0
 20 21  1  0  0  0
 21 22  1  0  0  0
 22 23  1  0  0  0
 23 24  1  0  0  0
 24 25  1  0  0  0
  3  4  2  0  0  0
  4  5  1  0  0  0
  5  6  2  0  0  0
  6  7  1  0  0  0
  7  8  2  0  0  0
  8  9  1  0  0  0
 15 10  1  0  0  0
  9  1  1  0  0  0
 25 21  1  0  0  0
  9  5  1  0  0  0
 18 19  1  0  0  0
M  END
> <minimizedAffinity>
-8.60080

> <CNNscore>
0.6973489523

> <CNNaffinity>
7.0243592262

> <CNN_VS>
4.8984293938

> <CNNaffinity_variance>
0.2745887637

$$$$
[H]c1nc2c([H])c(N([H])C([H])([H])C3([H])C([H])([H])OC([H])([H])C3([H])[H])c([H])c(-c3c([H])c([H])c(C#N)c([H])c3[H])n2n1


 25 28  0  0  0  0  0  0  0  0999 V2000
   12.8751   23.9287   -0.8736 C   0  0  0  0  0  0  0  0  0  0  0  0
   11.7980   24.4998   -0.1981 C   0  0  0  0  0  0  0  0  0  0  0  0
   11.2832   23.9474    0.9448 C   0  0  0  0  0  0  0  0  0  0  0  0
   11.8698   22.7981    1.4102 C   0  0  0  0  0  0  0  0  0  0  0  0
   12.9446   22.2027    0.7622 C   0  0  0  0  0  0  0  0  0  0  0  0
   13.6587   21.1063    1.0424 N   0  0  0  0  0  0  0  0  0  0  0  0
   14.5745   21.0380    0.0640 C   0  0  0  0  0  0  0  0  0  0  0  0
   14.4297   22.0523   -0.7852 N   0  0  0  0  0  0  0  0  0  0  0  0
   13.4017   22.8045   -0.3633 N   0  0  0  0  0  0  0  0  0  0  0  0
   14.3604   25.9441   -4.3465 C   0  0  0  0  0  0  0  0  0  0  0  0
   14.9554   24.7632   -3.9328 C   0  0  0  0  0  0  0  0  0  0  0  0
   14.4593   24.1142   -2.8098 C   0  0  0  0  0  0  0  0  0  0  0  0
   13.4023   24.5784   -2.0760 C   0  0  0  0  0  0  0  0  0  0  0  0
   12.8171   25.7681   -2.5086 C   0  0  0  0  0  0  0  0  0  0  0  0
   13.2935   26.4297   -3.6221 C   0  0  0  0  0  0  0  0  0  0  0  0
   15.2980   27.1137   -6.4394 N   0  0  0  0  0  0  0  0  0  0  0  0
   14.8812   26.6045   -5.5067 C   0  0  0  0  0  0  0  0  0  0  0  0
   10.1709   24.5428    1.6368 N   0  0  0  0  0  0  0  0  0  0  0  0
   10.2988   25.4971    2.0394 H   0  0  0  0  0  0  0  0  0  0  0  0
    8.9164   23.8655    1.7814 C   0  0  0  0  0  0  0  0  0  0  0  0
    8.1896   24.3674    2.9893 C   0  0  0  0  0  0  0  0  0  0  0  0
    9.1063   24.4309    4.1904 C   0  0  0  0  0  0  0  0  0  0  0  0
    8.8367   25.8339    4.7364 C   0  0  0  0  0  0  0  0  0  0  0  0
    8.5298   26.5724    3.6026 O   0  0  0  0  0  0  0  0  0  0  0  0
    7.6933   25.7676    2.8586 C   0  0  0  0  0  0  0  0  0  0  0  0
 16 17  3  0  0  0
 17 10  1  0  0  0
 10 11  2  0  0  0
 11 12  1  0  0  0
 12 13  2  0  0  0
 13 14  1  0  0  0
 14 15  2  0  0  0
 13  1  1  0  0  0
  1  2  2  0  0  0
  2  3  1  0  0  0
  3 18  1  0  0  0
 18 20  1  0  0  0
 20 21  1  0  0  0
 21 22  1  0  0  0
 22 23  1  0  0  0
 23 24  1  0  0  0
 24 25  1  0  0  0
  3  4  2  0  0  0
  4  5  1  0  0  0
  5  6  2  0  0  0
  6  7  1  0  0  0
  7  8  2  0  0  0
  8  9  1  0  0  0
 15 10  1  0  0  0
  9  1  1  0  0  0
 25 21  1  0  0  0
  9  5  1  0  0  0
 18 19  1  0  0  0
M  END
> <minimizedAffinity>
-8.95427

> <CNNscore>
0.6231173873

> <CNNaffinity>
6.6635828018

> <CNN_VS>
4.1521945000

> <CNNaffinity_variance>
0.1500317156

$$$$
[H]c1nc2c([H])c(N([H])C([H])([H])C3([H])C([H])([H])OC([H])([H])C3([H])[H])c([H])c(-c3c([H])c([H])c(C#N)c([H])c3[H])n2n1


 25 28  0  0  0  0  0  0  0  0999 V2000
   13.6450   24.3263   -1.4721 C   0  0  0  0  0  0  0  0  0  0  0  0
   14.2511   25.2458   -2.3262 C   0  0  0  0  0  0  0  0  0  0  0  0
   13.5205   26.0777   -3.1329 C   0  0  0  0  0  0  0  0  0  0  0  0
   12.1539   25.9755   -3.0724 C   0  0  0  0  0  0  0  0  0  0  0  0
   11.5172   25.0706   -2.2325 C   0  0  0  0  0  0  0  0  0  0  0  0
   10.2219   24.8155   -2.0144 N   0  0  0  0  0  0  0  0  0  0  0  0
   10.2181   23.8448   -1.0880 C   0  0  0  0  0  0  0  0  0  0  0  0
   11.4621   23.5151   -0.7493 N   0  0  0  0  0  0  0  0  0  0  0  0
   12.3036   24.2791   -1.4626 N   0  0  0  0  0  0  0  0  0  0  0  0
   16.1128   21.9670    1.1112 C   0  0  0  0  0  0  0  0  0  0  0  0
   15.0659   21.3683    0.4292 C   0  0  0  0  0  0  0  0  0  0  0  0
   14.2777   22.1422   -0.4124 C   0  0  0  0  0  0  0  0  0  0  0  0
   14.4758   23.4810   -0.6111 C   0  0  0  0  0  0  0  0  0  0  0  0
   15.5345   24.0650    0.0841 C   0  0  0  0  0  0  0  0  0  0  0  0
   16.3309   23.3149    0.9254 C   0  0  0  0  0  0  0  0  0  0  0  0
   17.5585   20.4989    2.6544 N   0  0  0  0  0  0  0  0  0  0  0  0
   16.9190   21.1580    1.9766 C   0  0  0  0  0  0  0  0  0  0  0  0
   14.1533   27.0247   -4.0122 N   0  0  0  0  0  0  0  0  0  0  0  0
   13.5504   27.5457   -4.6861 H   0  0  0  0  0  0  0  0  0  0  0  0
   15.5662   27.2620   -3.9818 C   0  0  0  0  0  0  0  0  0  0  0  0
   16.2004   26.7941   -5.2538 C   0  0  0  0  0  0  0  0  0  0  0  0
   15.8388   25.3552   -5.5467 C   0  0  0  0  0  0  0  0  0  0  0  0
   15.4046   25.4166   -7.0119 C   0  0  0  0  0  0  0  0  0  0  0  0
   14.8636   26.6879   -7.1394 O   0  0  0  0  0  0  0  0  0  0  0  0
   15.7314   27.5225   -6.4676 C   0  0  0  0  0  0  0  0  0  0  0  0
 16 17  3  0  0  0
 17 10  1  0  0  0
 10 11  2  0  0  0
 11 12  1  0  0  0
 12 13  2  0  0  0
 13 14  1  0  0  0
 14 15  2  0  0  0
 13  1  1  0  0  0
  1  2  2  0  0  0
  2  3  1  0  0  0
  3 18  1  0  0  0
 18 20  1  0  0  0
 20 21  1  0  0  0
 21 22  1  0  0  0
 22 23  1  0  0  0
 23 24  1  0  0  0
 24 25  1  0  0  0
  3  4  2  0  0  0
  4  5  1  0  0  0
  5  6  2  0  0  0
  6  7  1  0  0  0
  7  8  2  0  0  0
  8  9  1  0  0  0
 15 10  1  0  0  0
  9  1  1  0  0  0
 25 21  1  0  0  0
  9  5  1  0  0  0
 18 19  1  0  0  0
M  END
> <minimizedAffinity>
4.16417

> <CNNscore>
0.5879607797

> <CNNaffinity>
6.9325494766

> <CNN_VS>
4.0760669708

> <CNNaffinity_variance>
0.7580590844

$$$$
[H]c1nc2c([H])c(N([H])C([H])([H])C3([H])C([H])([H])OC([H])([H])C3([H])[H])c([H])c(-c3c([H])c([H])c(C#N)c([H])c3[H])n2n1


 25 28  0  0  0  0  0  0  0  0999 V2000
   14.1109   23.2083   -1.3918 C   0  0  0  0  0  0  0  0  0  0  0  0
   13.0043   22.3612   -1.3998 C   0  0  0  0  0  0  0  0  0  0  0  0
   12.7680   21.4667   -0.3896 C   0  0  0  0  0  0  0  0  0  0  0  0
   13.6679   21.4308    0.6451 C   0  0  0  0  0  0  0  0  0  0  0  0
   14.7810   22.2609    0.6850 C   0  0  0  0  0  0  0  0  0  0  0  0
   15.7622   22.3941    1.5851 N   0  0  0  0  0  0  0  0  0  0  0  0
   16.5501   23.3599    1.0882 C   0  0  0  0  0  0  0  0  0  0  0  0
   16.0730   23.8036   -0.0721 N   0  0  0  0  0  0  0  0  0  0  0  0
   14.9513   23.1210   -0.3488 N   0  0  0  0  0  0  0  0  0  0  0  0
   14.7055   25.9028   -4.6652 C   0  0  0  0  0  0  0  0  0  0  0  0
   13.8230   26.2402   -3.6518 C   0  0  0  0  0  0  0  0  0  0  0  0
   13.6449   25.3619   -2.5911 C   0  0  0  0  0  0  0  0  0  0  0  0
   14.2985   24.1648   -2.4853 C   0  0  0  0  0  0  0  0  0  0  0  0
   15.1825   23.8436   -3.5151 C   0  0  0  0  0  0  0  0  0  0  0  0
   15.3752   24.7016   -4.5787 C   0  0  0  0  0  0  0  0  0  0  0  0
   15.0027   27.5419   -6.6279 N   0  0  0  0  0  0  0  0  0  0  0  0
   14.8808   26.8173   -5.7545 C   0  0  0  0  0  0  0  0  0  0  0  0
   11.6230   20.5952   -0.4048 N   0  0  0  0  0  0  0  0  0  0  0  0
   11.2467   20.2975   -1.3316 H   0  0  0  0  0  0  0  0  0  0  0  0
   11.0017   20.1372    0.8025 C   0  0  0  0  0  0  0  0  0  0  0  0
    9.8968   21.0633    1.2034 C   0  0  0  0  0  0  0  0  0  0  0  0
   10.4010   22.1440    2.1334 C   0  0  0  0  0  0  0  0  0  0  0  0
    9.8259   23.4140    1.5047 C   0  0  0  0  0  0  0  0  0  0  0  0
    9.7900   23.1203    0.1491 O   0  0  0  0  0  0  0  0  0  0  0  0
    9.3086   21.8309    0.0681 C   0  0  0  0  0  0  0  0  0  0  0  0
 16 17  3  0  0  0
 17 10  1  0  0  0
 10 11  2  0  0  0
 11 12  1  0  0  0
 12 13  2  0  0  0
 13 14  1  0  0  0
 14 15  2  0  0  0
 13  1  1  0  0  0
  1  2  2  0  0  0
  2  3  1  0  0  0
  3 18  1  0  0  0
 18 20  1  0  0  0
 20 21  1  0  0  0
 21 22  1  0  0  0
 22 23  1  0  0  0
 23 24  1  0  0  0
 24 25  1  0  0  0
  3  4  2  0  0  0
  4  5  1  0  0  0
  5  6  2  0  0  0
  6  7  1  0  0  0
  7  8  2  0  0  0
  8  9  1  0  0  0
 15 10  1  0  0  0
  9  1  1  0  0  0
 25 21  1  0  0  0
  9  5  1  0  0  0
 18 19  1  0  0  0
M  END
> <minimizedAffinity>
-6.11288

> <CNNscore>
0.5746583939

> <CNNaffinity>
7.0934128761

> <CNN_VS>
4.0762891769

> <CNNaffinity_variance>
0.2895894945

$$$$
[H]c1nc2c([H])c(N([H])C([H])([H])C3([H])C([H])([H])OC([H])([H])C3([H])[H])c([H])c(-c3c([H])c([H])c(C#N)c([H])c3[H])n2n1


 25 28  0  0  0  0  0  0  0  0999 V2000
   12.7350   23.5423   -1.2264 C   0  0  0  0  0  0  0  0  0  0  0  0
   11.3462   23.4531   -1.1514 C   0  0  0  0  0  0  0  0  0  0  0  0
   10.7195   22.6276   -0.2557 C   0  0  0  0  0  0  0  0  0  0  0  0
   11.5136   21.8809    0.5771 C   0  0  0  0  0  0  0  0  0  0  0  0
   12.9004   21.9455    0.5294 C   0  0  0  0  0  0  0  0  0  0  0  0
   13.8471   21.3225    1.2408 N   0  0  0  0  0  0  0  0  0  0  0  0
   15.0046   21.7933    0.7517 C   0  0  0  0  0  0  0  0  0  0  0  0
   14.7793   22.6713   -0.2226 N   0  0  0  0  0  0  0  0  0  0  0  0
   13.4517   22.7841   -0.3820 N   0  0  0  0  0  0  0  0  0  0  0  0
   14.5993   26.1287   -4.0837 C   0  0  0  0  0  0  0  0  0  0  0  0
   13.4370   26.5346   -3.4482 C   0  0  0  0  0  0  0  0  0  0  0  0
   12.8462   25.6906   -2.5171 C   0  0  0  0  0  0  0  0  0  0  0  0
   13.3507   24.4632   -2.1849 C   0  0  0  0  0  0  0  0  0  0  0  0
   14.5210   24.0730   -2.8354 C   0  0  0  0  0  0  0  0  0  0  0  0
   15.1253   24.8959   -3.7639 C   0  0  0  0  0  0  0  0  0  0  0  0
   15.6630   27.7210   -5.8042 N   0  0  0  0  0  0  0  0  0  0  0  0
   15.1995   27.0084   -5.0425 C   0  0  0  0  0  0  0  0  0  0  0  0
    9.2850   22.5409   -0.1841 N   0  0  0  0  0  0  0  0  0  0  0  0
    8.7256   23.2939   -0.6415 H   0  0  0  0  0  0  0  0  0  0  0  0
    8.6224   21.4633    0.4891 C   0  0  0  0  0  0  0  0  0  0  0  0
    8.6900   20.2152   -0.3335 C   0  0  0  0  0  0  0  0  0  0  0  0
    7.3109   19.6402   -0.5672 C   0  0  0  0  0  0  0  0  0  0  0  0
    7.3120   19.3845   -2.0750 C   0  0  0  0  0  0  0  0  0  0  0  0
    8.1390   20.3804   -2.5747 O   0  0  0  0  0  0  0  0  0  0  0  0
    9.2145   20.4274   -1.7133 C   0  0  0  0  0  0  0  0  0  0  0  0
 16 17  3  0  0  0
 17 10  1  0  0  0
 10 11  2  0  0  0
 11 12  1  0  0  0
 12 13  2  0  0  0
 13 14  1  0  0  0
 14 15  2  0  0  0
 13  1  1  0  0  0
  1  2  2  0  0  0
  2  3  1  0  0  0
  3 18  1  0  0  0
 18 20  1  0  0  0
 20 21  1  0  0  0
 21 22  1  0  0  0
 22 23  1  0  0  0
 23 24  1  0  0  0
 24 25  1  0  0  0
  3  4  2  0  0  0
  4  5  1  0  0  0
  5  6  2  0  0  0
  6  7  1  0  0  0
  7  8  2  0  0  0
  8  9  1  0  0  0
 15 10  1  0  0  0
  9  1  1  0  0  0
 25 21  1  0  0  0
  9  5  1  0  0  0
 18 19  1  0  0  0
M  END
> <minimizedAffinity>
-7.94362

> <CNNscore>
0.5594770908

> <CNNaffinity>
7.1127114296

> <CNN_VS>
3.9793992043

> <CNNaffinity_variance>
0.5768116713

$$$$
[H]c1nc2c([H])c(N([H])C([H])([H])C3([H])C([H])([H])OC([H])([H])C3([H])[H])c([H])c(-c3c([H])c([H])c(C#N)c([H])c3[H])n2n1


 25 28  0  0  0  0  0  0  0  0999 V2000
   12.9161   23.9135   -0.8968 C   0  0  0  0  0  0  0  0  0  0  0  0
   11.8539   24.4853   -0.1987 C   0  0  0  0  0  0  0  0  0  0  0  0
   11.3513   23.9236    0.9451 C   0  0  0  0  0  0  0  0  0  0  0  0
   11.9351   22.7640    1.3882 C   0  0  0  0  0  0  0  0  0  0  0  0
   12.9951   22.1676    0.7173 C   0  0  0  0  0  0  0  0  0  0  0  0
   13.7040   21.0620    0.9739 N   0  0  0  0  0  0  0  0  0  0  0  0
   14.6047   20.9979   -0.0187 C   0  0  0  0  0  0  0  0  0  0  0  0
   14.4559   22.0234   -0.8537 N   0  0  0  0  0  0  0  0  0  0  0  0
   13.4406   22.7789   -0.4077 N   0  0  0  0  0  0  0  0  0  0  0  0
   14.3637   25.9569   -4.3693 C   0  0  0  0  0  0  0  0  0  0  0  0
   14.9774   24.7846   -3.9587 C   0  0  0  0  0  0  0  0  0  0  0  0
   14.4935   24.1263   -2.8358 C   0  0  0  0  0  0  0  0  0  0  0  0
   13.4310   24.5731   -2.0992 C   0  0  0  0  0  0  0  0  0  0  0  0
   12.8268   25.7545   -2.5287 C   0  0  0  0  0  0  0  0  0  0  0  0
   13.2909   26.4251   -3.6420 C   0  0  0  0  0  0  0  0  0  0  0  0
   15.2755   27.1448   -6.4632 N   0  0  0  0  0  0  0  0  0  0  0  0
   14.8721   26.6271   -5.5294 C   0  0  0  0  0  0  0  0  0  0  0  0
   10.2544   24.5198    1.6605 N   0  0  0  0  0  0  0  0  0  0  0  0
    9.8219   25.3825    1.2631 H   0  0  0  0  0  0  0  0  0  0  0  0
    9.7539   23.9642    2.8829 C   0  0  0  0  0  0  0  0  0  0  0  0
    8.4980   23.1917    2.6281 C   0  0  0  0  0  0  0  0  0  0  0  0
    8.0816   23.2900    1.1776 C   0  0  0  0  0  0  0  0  0  0  0  0
    7.8122   21.8294    0.8126 C   0  0  0  0  0  0  0  0  0  0  0  0
    8.7023   21.1240    1.6099 O   0  0  0  0  0  0  0  0  0  0  0  0
    8.6351   21.7233    2.8497 C   0  0  0  0  0  0  0  0  0  0  0  0
 16 17  3  0  0  0
 17 10  1  0  0  0
 10 11  2  0  0  0
 11 12  1  0  0  0
 12 13  2  0  0  0
 13 14  1  0  0  0
 14 15  2  0  0  0
 13  1  1  0  0  0
  1  2  2  0  0  0
  2  3  1  0  0  0
  3 18  1  0  0  0
 18 20  1  0  0  0
 20 21  1  0  0  0
 21 22  1  0  0  0
 22 23  1  0  0  0
 23 24  1  0  0  0
 24 25  1  0  0  0
  3  4  2  0  0  0
  4  5  1  0  0  0
  5  6  2  0  0  0
  6  7  1  0  0  0
  7  8  2  0  0  0
  8  9  1  0  0  0
 15 10  1  0  0  0
  9  1  1  0  0  0
 25 21  1  0  0  0
  9  5  1  0  0  0
 18 19  1  0  0  0
M  END
> <minimizedAffinity>
-8.93796

> <CNNscore>
0.5093510151

> <CNNaffinity>
6.7617540359

> <CNN_VS>
3.4441063404

> <CNNaffinity_variance>
0.3390706480

$$$$
[H]c1nc2c([H])c(N([H])C([H])([H])C3([H])C([H])([H])OC([H])([H])C3([H])[H])c([H])c(-c3c([H])c([H])c(C#N)c([H])c3[H])n2n1


 25 28  0  0  0  0  0  0  0  0999 V2000
   12.9002   23.8376   -0.9287 C   0  0  0  0  0  0  0  0  0  0  0  0
   11.8654   24.4106   -0.1915 C   0  0  0  0  0  0  0  0  0  0  0  0
   11.3623   23.8166    0.9357 C   0  0  0  0  0  0  0  0  0  0  0  0
   11.9173   22.6229    1.3214 C   0  0  0  0  0  0  0  0  0  0  0  0
   12.9496   22.0242    0.6104 C   0  0  0  0  0  0  0  0  0  0  0  0
   13.6287   20.8887    0.8103 N   0  0  0  0  0  0  0  0  0  0  0  0
   14.5130   20.8398   -0.1977 C   0  0  0  0  0  0  0  0  0  0  0  0
   14.3833   21.9031   -0.9872 N   0  0  0  0  0  0  0  0  0  0  0  0
   13.3973   22.6688   -0.4949 N   0  0  0  0  0  0  0  0  0  0  0  0
   14.3543   25.9799   -4.3383 C   0  0  0  0  0  0  0  0  0  0  0  0
   14.9738   24.8016   -3.9542 C   0  0  0  0  0  0  0  0  0  0  0  0
   14.4878   24.1112   -2.8517 C   0  0  0  0  0  0  0  0  0  0  0  0
   13.4177   24.5316   -2.1104 C   0  0  0  0  0  0  0  0  0  0  0  0
   12.8078   25.7195   -2.5131 C   0  0  0  0  0  0  0  0  0  0  0  0
   13.2739   26.4217   -3.6059 C   0  0  0  0  0  0  0  0  0  0  0  0
   15.2722   27.2272   -6.3947 N   0  0  0  0  0  0  0  0  0  0  0  0
   14.8650   26.6832   -5.4776 C   0  0  0  0  0  0  0  0  0  0  0  0
   10.2938   24.4142    1.6917 N   0  0  0  0  0  0  0  0  0  0  0  0
   10.5395   25.1530    2.3867 H   0  0  0  0  0  0  0  0  0  0  0  0
    8.9268   24.0233    1.5133 C   0  0  0  0  0  0  0  0  0  0  0  0
    8.4036   23.3760    2.7568 C   0  0  0  0  0  0  0  0  0  0  0  0
    8.4798   21.8687    2.6609 C   0  0  0  0  0  0  0  0  0  0  0  0
    9.1318   21.4867    3.9906 C   0  0  0  0  0  0  0  0  0  0  0  0
    9.9520   22.5692    4.2752 O   0  0  0  0  0  0  0  0  0  0  0  0
    9.1981   23.6853    3.9804 C   0  0  0  0  0  0  0  0  0  0  0  0
 16 17  3  0  0  0
 17 10  1  0  0  0
 10 11  2  0  0  0
 11 12  1  0  0  0
 12 13  2  0  0  0
 13 14  1  0  0  0
 14 15  2  0  0  0
 13  1  1  0  0  0
  1  2  2  0  0  0
  2  3  1  0  0  0
  3 18  1  0  0  0
 18 20  1  0  0  0
 20 21  1  0  0  0
 21 22  1  0  0  0
 22 23  1  0  0  0
 23 24  1  0  0  0
 24 25  1  0  0  0
  3  4  2  0  0  0
  4  5  1  0  0  0
  5  6  2  0  0  0
  6  7  1  0  0  0
  7  8  2  0  0  0
  8  9  1  0  0  0
 15 10  1  0  0  0
  9  1  1  0  0  0
 25 21  1  0  0  0
  9  5  1  0  0  0
 18 19  1  0  0  0
M  END
> <minimizedAffinity>
-8.61487

> <CNNscore>
0.4036102891

> <CNNaffinity>
6.5679383278

> <CNN_VS>
2.6508874893

> <CNNaffinity_variance>
0.2508535683

$$$$
[H]Oc1c([H])c(-c2c(C([H])([H])[H])nc(C#N)c([H])c2[H])n2nc([H])nc2c1[H]


 20 22  0  0  0  0  0  0  0  0999 V2000
   13.3497   24.7391   -1.9297 C   0  0  0  0  0  0  0  0  0  0  0  0
   12.0122   24.5142   -1.8871 C   0  0  0  0  0  0  0  0  0  0  0  0
   11.4266   24.1278   -0.6941 C   0  0  0  0  0  0  0  0  0  0  0  0
   10.0578   23.8962   -0.6445 O   0  0  0  0  0  0  0  0  0  0  0  0
   12.2458   23.9915    0.3978 C   0  0  0  0  0  0  0  0  0  0  0  0
   13.6206   24.2347    0.3050 C   0  0  0  0  0  0  0  0  0  0  0  0
   14.6206   24.1749    1.2027 N   0  0  0  0  0  0  0  0  0  0  0  0
   15.7708   24.5035    0.6150 C   0  0  0  0  0  0  0  0  0  0  0  0
   15.4626   24.7677   -0.6641 N   0  0  0  0  0  0  0  0  0  0  0  0
   14.1647   24.6067   -0.8565 N   0  0  0  0  0  0  0  0  0  0  0  0
    9.6195   23.0192   -0.8157 H   0  0  0  0  0  0  0  0  0  0  0  0
   15.0569   22.9410   -3.3089 C   0  0  0  0  0  0  0  0  0  0  0  0
   14.7870   24.3048   -3.8813 C   0  0  0  0  0  0  0  0  0  0  0  0
   15.3347   24.7012   -5.0368 N   0  0  0  0  0  0  0  0  0  0  0  0
   15.1028   25.9179   -5.5616 C   0  0  0  0  0  0  0  0  0  0  0  0
   14.2684   26.7672   -4.8660 C   0  0  0  0  0  0  0  0  0  0  0  0
   13.6812   26.4073   -3.6749 C   0  0  0  0  0  0  0  0  0  0  0  0
   13.9586   25.1456   -3.1890 C   0  0  0  0  0  0  0  0  0  0  0  0
   15.7090   26.3254   -6.8173 C   0  0  0  0  0  0  0  0  0  0  0  0
   16.2041   26.6429   -7.8153 N   0  0  0  0  0  0  0  0  0  0  0  0
 12 13  1  0  0  0
 13 14  2  0  0  0
 14 15  1  0  0  0
 15 16  2  0  0  0
 16 17  1  0  0  0
 17 18  2  0  0  0
 18  1  1  0  0  0
  1  2  2  0  0  0
  2  3  1  0  0  0
  3  4  1  0  0  0
  3  5  2  0  0  0
  5  6  1  0  0  0
  6  7  2  0  0  0
  7  8  1  0  0  0
  8  9  2  0  0  0
  9 10  1  0  0  0
 15 19  1  0  0  0
 19 20  3  0  0  0
 18 13  1  0  0  0
 10  1  1  0  0  0
 10  6  1  0  0  0
  4 11  1  0  0  0
M  END
> <minimizedAffinity>
-8.34729

> <CNNscore>
0.8115485907

> <CNNaffinity>
6.7684578896

> <CNN_VS>
5.4929323196

> <CNNaffinity_variance>
0.1273852885

$$$$
[H]Oc1c([H])c(-c2c(C([H])([H])[H])nc(C#N)c([H])c2[H])n2nc([H])nc2c1[H]


 20 22  0  0  0  0  0  0  0  0999 V2000
   13.9868   22.7485   -1.1250 C   0  0  0  0  0  0  0  0  0  0  0  0
   15.0001   22.5426   -0.2462 C   0  0  0  0  0  0  0  0  0  0  0  0
   14.8340   21.6274    0.7787 C   0  0  0  0  0  0  0  0  0  0  0  0
   15.8678   21.4124    1.6813 O   0  0  0  0  0  0  0  0  0  0  0  0
   13.6331   20.9682    0.8498 C   0  0  0  0  0  0  0  0  0  0  0  0
   12.6171   21.2144   -0.0802 C   0  0  0  0  0  0  0  0  0  0  0  0
   11.3769   20.7154   -0.2305 N   0  0  0  0  0  0  0  0  0  0  0  0
   10.7917   21.2796   -1.2867 C   0  0  0  0  0  0  0  0  0  0  0  0
   11.6943   22.1376   -1.7868 N   0  0  0  0  0  0  0  0  0  0  0  0
   12.7989   22.1019   -1.0614 N   0  0  0  0  0  0  0  0  0  0  0  0
   15.9983   21.9132    2.5314 H   0  0  0  0  0  0  0  0  0  0  0  0
   12.6197   25.2329   -1.0304 C   0  0  0  0  0  0  0  0  0  0  0  0
   13.5262   24.9210   -2.1886 C   0  0  0  0  0  0  0  0  0  0  0  0
   13.7100   25.7913   -3.1892 N   0  0  0  0  0  0  0  0  0  0  0  0
   14.5176   25.5268   -4.2320 C   0  0  0  0  0  0  0  0  0  0  0  0
   15.1669   24.3104   -4.2470 C   0  0  0  0  0  0  0  0  0  0  0  0
   15.0115   23.3824   -3.2432 C   0  0  0  0  0  0  0  0  0  0  0  0
   14.1693   23.7133   -2.2011 C   0  0  0  0  0  0  0  0  0  0  0  0
   14.7011   26.4874   -5.3062 C   0  0  0  0  0  0  0  0  0  0  0  0
   14.8616   27.2515   -6.1620 N   0  0  0  0  0  0  0  0  0  0  0  0
 12 13  1  0  0  0
 13 14  2  0  0  0
 14 15  1  0  0  0
 15 16  2  0  0  0
 16 17  1  0  0  0
 17 18  2  0  0  0
 18  1  1  0  0  0
  1  2  2  0  0  0
  2  3  1  0  0  0
  3  4  1  0  0  0
  3  5  2  0  0  0
  5  6  1  0  0  0
  6  7  2  0  0  0
  7  8  1  0  0  0
  8  9  2  0  0  0
  9 10  1  0  0  0
 15 19  1  0  0  0
 19 20  3  0  0  0
 18 13  1  0  0  0
 10  1  1  0  0  0
 10  6  1  0  0  0
  4 11  1  0  0  0
M  END
> <minimizedAffinity>
-8.34545

> <CNNscore>
0.7190697193

> <CNNaffinity>
6.7489175797

> <CNN_VS>
4.8529424667

> <CNNaffinity_variance>
0.1881327927

$$$$
[H]Oc1c([H])c(-c2c(C([H])([H])[H])nc(C#N)c([H])c2[H])n2nc([H])nc2c1[H]


 20 22  0  0  0  0  0  0  0  0999 V2000
   13.0750   22.7404   -1.3572 C   0  0  0  0  0  0  0  0  0  0  0  0
   11.8104   22.3034   -1.5836 C   0  0  0  0  0  0  0  0  0  0  0  0
   11.2979   21.2774   -0.8087 C   0  0  0  0  0  0  0  0  0  0  0  0
   10.0041   20.8259   -1.0359 O   0  0  0  0  0  0  0  0  0  0  0  0
   12.1117   20.7505    0.1618 C   0  0  0  0  0  0  0  0  0  0  0  0
   13.4098   21.2345    0.3580 C   0  0  0  0  0  0  0  0  0  0  0  0
   14.3880   20.9006    1.2189 N   0  0  0  0  0  0  0  0  0  0  0  0
   15.4561   21.6681    1.0035 C   0  0  0  0  0  0  0  0  0  0  0  0
   15.1195   22.4835   -0.0079 N   0  0  0  0  0  0  0  0  0  0  0  0
   13.8840   22.2255   -0.4014 N   0  0  0  0  0  0  0  0  0  0  0  0
    9.7553   20.0948   -1.6636 H   0  0  0  0  0  0  0  0  0  0  0  0
   12.0365   25.3649   -1.0680 C   0  0  0  0  0  0  0  0  0  0  0  0
   13.1305   25.0983   -2.0644 C   0  0  0  0  0  0  0  0  0  0  0  0
   13.6358   26.0744   -2.8288 N   0  0  0  0  0  0  0  0  0  0  0  0
   14.6144   25.8517   -3.7244 C   0  0  0  0  0  0  0  0  0  0  0  0
   15.0965   24.5650   -3.8397 C   0  0  0  0  0  0  0  0  0  0  0  0
   14.6109   23.5275   -3.0775 C   0  0  0  0  0  0  0  0  0  0  0  0
   13.6071   23.8206   -2.1768 C   0  0  0  0  0  0  0  0  0  0  0  0
   15.1466   26.9275   -4.5429 C   0  0  0  0  0  0  0  0  0  0  0  0
   15.5577   27.7898   -5.1981 N   0  0  0  0  0  0  0  0  0  0  0  0
 12 13  1  0  0  0
 13 14  2  0  0  0
 14 15  1  0  0  0
 15 16  2  0  0  0
 16 17  1  0  0  0
 17 18  2  0  0  0
 18  1  1  0  0  0
  1  2  2  0  0  0
  2  3  1  0  0  0
  3  4  1  0  0  0
  3  5  2  0  0  0
  5  6  1  0  0  0
  6  7  2  0  0  0
  7  8  1  0  0  0
  8  9  2  0  0  0
  9 10  1  0  0  0
 15 19  1  0  0  0
 19 20  3  0  0  0
 18 13  1  0  0  0
 10  1  1  0  0  0
 10  6  1  0  0  0
  4 11  1  0  0  0
M  END
> <minimizedAffinity>
-7.01834

> <CNNscore>
0.6541392207

> <CNNaffinity>
6.8196954727

> <CNN_VS>
4.4610304832

> <CNNaffinity_variance>
0.3920091987

$$$$
[H]Oc1c([H])c(-c2c(C([H])([H])[H])nc(C#N)c([H])c2[H])n2nc([H])nc2c1[H]


 20 22  0  0  0  0  0  0  0  0999 V2000
   15.5013   25.6475   -2.4848 C   0  0  0  0  0  0  0  0  0  0  0  0
   16.7951   26.0500   -2.4122 C   0  0  0  0  0  0  0  0  0  0  0  0
   17.2332   27.0775   -3.2295 C   0  0  0  0  0  0  0  0  0  0  0  0
   18.5566   27.4938   -3.1596 O   0  0  0  0  0  0  0  0  0  0  0  0
   16.3184   27.6414   -4.0822 C   0  0  0  0  0  0  0  0  0  0  0  0
   14.9939   27.1921   -4.1214 C   0  0  0  0  0  0  0  0  0  0  0  0
   13.9248   27.5650   -4.8478 N   0  0  0  0  0  0  0  0  0  0  0  0
   12.8724   26.8194   -4.5117 C   0  0  0  0  0  0  0  0  0  0  0  0
   13.3115   25.9778   -3.5631 N   0  0  0  0  0  0  0  0  0  0  0  0
   14.5927   26.1990   -3.3237 N   0  0  0  0  0  0  0  0  0  0  0  0
   19.3023   27.1232   -3.7045 H   0  0  0  0  0  0  0  0  0  0  0  0
   15.1587   23.0437   -3.5585 C   0  0  0  0  0  0  0  0  0  0  0  0
   14.8716   23.2976   -2.1047 C   0  0  0  0  0  0  0  0  0  0  0  0
   14.4540   22.3197   -1.2912 N   0  0  0  0  0  0  0  0  0  0  0  0
   14.1932   22.5312    0.0114 C   0  0  0  0  0  0  0  0  0  0  0  0
   14.3700   23.8080    0.5010 C   0  0  0  0  0  0  0  0  0  0  0  0
   14.7971   24.8469   -0.2936 C   0  0  0  0  0  0  0  0  0  0  0  0
   15.0479   24.5656   -1.6213 C   0  0  0  0  0  0  0  0  0  0  0  0
   13.7409   21.4537    0.8744 C   0  0  0  0  0  0  0  0  0  0  0  0
   13.3790   20.6038    1.5734 N   0  0  0  0  0  0  0  0  0  0  0  0
 12 13  1  0  0  0
 13 14  2  0  0  0
 14 15  1  0  0  0
 15 16  2  0  0  0
 16 17  1  0  0  0
 17 18  2  0  0  0
 18  1  1  0  0  0
  1  2  2  0  0  0
  2  3  1  0  0  0
  3  4  1  0  0  0
  3  5  2  0  0  0
  5  6  1  0  0  0
  6  7  2  0  0  0
  7  8  1  0  0  0
  8  9  2  0  0  0
  9 10  1  0  0  0
 15 19  1  0  0  0
 19 20  3  0  0  0
 18 13  1  0  0  0
 10  1  1  0  0  0
 10  6  1  0  0  0
  4 11  1  0  0  0
M  END
> <minimizedAffinity>
-5.65822

> <CNNscore>
0.6350349188

> <CNNaffinity>
6.6810975075

> <CNN_VS>
4.2427301407

> <CNNaffinity_variance>
0.3730635047

$$$$
[H]Oc1c([H])c(-c2c(C([H])([H])[H])nc(C#N)c([H])c2[H])n2nc([H])nc2c1[H]


 20 22  0  0  0  0  0  0  0  0999 V2000
   14.3147   25.6076   -3.5546 C   0  0  0  0  0  0  0  0  0  0  0  0
   13.3721   26.5679   -3.3797 C   0  0  0  0  0  0  0  0  0  0  0  0
   13.0346   27.3890   -4.4416 C   0  0  0  0  0  0  0  0  0  0  0  0
   12.0704   28.3738   -4.2685 O   0  0  0  0  0  0  0  0  0  0  0  0
   13.6835   27.1822   -5.6324 C   0  0  0  0  0  0  0  0  0  0  0  0
   14.6493   26.1784   -5.7646 C   0  0  0  0  0  0  0  0  0  0  0  0
   15.4136   25.7775   -6.7964 N   0  0  0  0  0  0  0  0  0  0  0  0
   16.1889   24.7636   -6.4125 C   0  0  0  0  0  0  0  0  0  0  0  0
   15.8892   24.5452   -5.1228 N   0  0  0  0  0  0  0  0  0  0  0  0
   14.9594   25.3973   -4.7266 N   0  0  0  0  0  0  0  0  0  0  0  0
   12.2521   29.3067   -3.9733 H   0  0  0  0  0  0  0  0  0  0  0  0
   16.6687   26.1351   -2.0610 C   0  0  0  0  0  0  0  0  0  0  0  0
   15.7917   24.9717   -1.6899 C   0  0  0  0  0  0  0  0  0  0  0  0
   16.0919   24.1670   -0.6628 N   0  0  0  0  0  0  0  0  0  0  0  0
   15.3175   23.1224   -0.3186 C   0  0  0  0  0  0  0  0  0  0  0  0
   14.1808   22.8941   -1.0651 C   0  0  0  0  0  0  0  0  0  0  0  0
   13.8286   23.6916   -2.1295 C   0  0  0  0  0  0  0  0  0  0  0  0
   14.6644   24.7473   -2.4323 C   0  0  0  0  0  0  0  0  0  0  0  0
   15.6642   22.2631    0.8003 C   0  0  0  0  0  0  0  0  0  0  0  0
   15.9443   21.5895    1.7002 N   0  0  0  0  0  0  0  0  0  0  0  0
 12 13  1  0  0  0
 13 14  2  0  0  0
 14 15  1  0  0  0
 15 16  2  0  0  0
 16 17  1  0  0  0
 17 18  2  0  0  0
 18  1  1  0  0  0
  1  2  2  0  0  0
  2  3  1  0  0  0
  3  4  1  0  0  0
  3  5  2  0  0  0
  5  6  1  0  0  0
  6  7  2  0  0  0
  7  8  1  0  0  0
  8  9  2  0  0  0
  9 10  1  0  0  0
 15 19  1  0  0  0
 19 20  3  0  0  0
 18 13  1  0  0  0
 10  1  1  0  0  0
 10  6  1  0  0  0
  4 11  1  0  0  0
M  END
> <minimizedAffinity>
-1.36552

> <CNNscore>
0.5515092015

> <CNNaffinity>
6.2602415085

> <CNN_VS>
3.4525806904

> <CNNaffinity_variance>
0.2130643129

$$$$
[H]Oc1c([H])c(-c2c(C([H])([H])[H])nc(C#N)c([H])c2[H])n2nc([H])nc2c1[H]


 20 22  0  0  0  0  0  0  0  0999 V2000
   13.8950   25.1296    0.5610 C   0  0  0  0  0  0  0  0  0  0  0  0
   13.6525   25.8161    1.7061 C   0  0  0  0  0  0  0  0  0  0  0  0
   14.5524   26.7822    2.1217 C   0  0  0  0  0  0  0  0  0  0  0  0
   14.3094   27.4882    3.2930 O   0  0  0  0  0  0  0  0  0  0  0  0
   15.6585   26.9951    1.3387 C   0  0  0  0  0  0  0  0  0  0  0  0
   15.8657   26.2616    0.1653 C   0  0  0  0  0  0  0  0  0  0  0  0
   16.8433   26.2749   -0.7587 N   0  0  0  0  0  0  0  0  0  0  0  0
   16.5796   25.3723   -1.7032 C   0  0  0  0  0  0  0  0  0  0  0  0
   15.4197   24.8001   -1.3452 N   0  0  0  0  0  0  0  0  0  0  0  0
   14.9842   25.3340   -0.2170 N   0  0  0  0  0  0  0  0  0  0  0  0
   14.6178   27.2161    4.1993 H   0  0  0  0  0  0  0  0  0  0  0  0
   11.1842   25.3090    1.3792 C   0  0  0  0  0  0  0  0  0  0  0  0
   11.6285   24.1690    0.5054 C   0  0  0  0  0  0  0  0  0  0  0  0
   10.7726   23.2241    0.0965 N   0  0  0  0  0  0  0  0  0  0  0  0
   11.1548   22.1984   -0.6853 C   0  0  0  0  0  0  0  0  0  0  0  0
   12.4792   22.1411   -1.0648 C   0  0  0  0  0  0  0  0  0  0  0  0
   13.3977   23.0870   -0.6714 C   0  0  0  0  0  0  0  0  0  0  0  0
   12.9432   24.1145    0.1302 C   0  0  0  0  0  0  0  0  0  0  0  0
   10.2074   21.1849   -1.1161 C   0  0  0  0  0  0  0  0  0  0  0  0
    9.4626   20.3673   -1.4608 N   0  0  0  0  0  0  0  0  0  0  0  0
 12 13  1  0  0  0
 13 14  2  0  0  0
 14 15  1  0  0  0
 15 16  2  0  0  0
 16 17  1  0  0  0
 17 18  2  0  0  0
 18  1  1  0  0  0
  1  2  2  0  0  0
  2  3  1  0  0  0
  3  4  1  0  0  0
  3  5  2  0  0  0
  5  6  1  0  0  0
  6  7  2  0  0  0
  7  8  1  0  0  0
  8  9  2  0  0  0
  9 10  1  0  0  0
 15 19  1  0  0  0
 19 20  3  0  0  0
 18 13  1  0  0  0
 10  1  1  0  0  0
 10  6  1  0  0  0
  4 11  1  0  0  0
M  END
> <minimizedAffinity>
8.55473

> <CNNscore>
0.5462655425

> <CNNaffinity>
5.9442367554

> <CNN_VS>
3.2471318245

> <CNNaffinity_variance>
0.8799680471

$$$$
[H]Oc1c([H])c(-c2c(C([H])([H])[H])nc(C#N)c([H])c2[H])n2nc([H])nc2c1[H]


 20 22  0  0  0  0  0  0  0  0999 V2000
   13.9438   25.1648   -2.6450 C   0  0  0  0  0  0  0  0  0  0  0  0
   13.5543   25.7166   -3.8219 C   0  0  0  0  0  0  0  0  0  0  0  0
   14.4677   26.4429   -4.5662 C   0  0  0  0  0  0  0  0  0  0  0  0
   14.0747   27.0101   -5.7717 O   0  0  0  0  0  0  0  0  0  0  0  0
   15.7380   26.5663   -4.0633 C   0  0  0  0  0  0  0  0  0  0  0  0
   16.0931   25.9788   -2.8440 C   0  0  0  0  0  0  0  0  0  0  0  0
   17.2422   25.9499   -2.1452 N   0  0  0  0  0  0  0  0  0  0  0  0
   17.0685   25.2479   -1.0257 C   0  0  0  0  0  0  0  0  0  0  0  0
   15.7891   24.8431   -1.0456 N   0  0  0  0  0  0  0  0  0  0  0  0
   15.1955   25.2821   -2.1422 N   0  0  0  0  0  0  0  0  0  0  0  0
   13.6919   27.9228   -5.8767 H   0  0  0  0  0  0  0  0  0  0  0  0
   14.2845   22.3648   -2.3382 C   0  0  0  0  0  0  0  0  0  0  0  0
   13.1092   23.0504   -1.6985 C   0  0  0  0  0  0  0  0  0  0  0  0
   12.2073   22.3709   -0.9794 N   0  0  0  0  0  0  0  0  0  0  0  0
   11.1508   22.9699   -0.4010 C   0  0  0  0  0  0  0  0  0  0  0  0
   11.0150   24.3317   -0.5697 C   0  0  0  0  0  0  0  0  0  0  0  0
   11.9143   25.0749   -1.2992 C   0  0  0  0  0  0  0  0  0  0  0  0
   12.9768   24.4018   -1.8675 C   0  0  0  0  0  0  0  0  0  0  0  0
   10.1851   22.2111    0.3748 C   0  0  0  0  0  0  0  0  0  0  0  0
    9.4254   21.6025    1.0028 N   0  0  0  0  0  0  0  0  0  0  0  0
 12 13  1  0  0  0
 13 14  2  0  0  0
 14 15  1  0  0  0
 15 16  2  0  0  0
 16 17  1  0  0  0
 17 18  2  0  0  0
 18  1  1  0  0  0
  1  2  2  0  0  0
  2  3  1  0  0  0
  3  4  1  0  0  0
  3  5  2  0  0  0
  5  6  1  0  0  0
  6  7  2  0  0  0
  7  8  1  0  0  0
  8  9  2  0  0  0
  9 10  1  0  0  0
 15 19  1  0  0  0
 19 20  3  0  0  0
 18 13  1  0  0  0
 10  1  1  0  0  0
 10  6  1  0  0  0
  4 11  1  0  0  0
M  END
> <minimizedAffinity>
-7.44488

> <CNNscore>
0.5178514719

> <CNNaffinity>
6.5257177353

> <CNN_VS>
3.3793525696

> <CNNaffinity_variance>
0.3321067393

$$$$
[H]Oc1c([H])c(-c2c(C([H])([H])[H])nc(C#N)c([H])c2[H])n2nc([H])nc2c1[H]


 20 22  0  0  0  0  0  0  0  0999 V2000
   13.1069   24.6501   -2.1058 C   0  0  0  0  0  0  0  0  0  0  0  0
   12.6948   25.9075   -2.4069 C   0  0  0  0  0  0  0  0  0  0  0  0
   13.2580   26.5660   -3.4862 C   0  0  0  0  0  0  0  0  0  0  0  0
   12.8402   27.8532   -3.7993 O   0  0  0  0  0  0  0  0  0  0  0  0
   14.2183   25.8988   -4.2035 C   0  0  0  0  0  0  0  0  0  0  0  0
   14.6108   24.6019   -3.8544 C   0  0  0  0  0  0  0  0  0  0  0  0
   15.5074   23.7474   -4.3790 N   0  0  0  0  0  0  0  0  0  0  0  0
   15.5128   22.6154   -3.6754 C   0  0  0  0  0  0  0  0  0  0  0  0
   14.6017   22.7865   -2.7051 N   0  0  0  0  0  0  0  0  0  0  0  0
   14.0539   23.9852   -2.8089 N   0  0  0  0  0  0  0  0  0  0  0  0
   13.2446   28.6890   -3.4408 H   0  0  0  0  0  0  0  0  0  0  0  0
   14.4893   24.5696    0.3706 C   0  0  0  0  0  0  0  0  0  0  0  0
   13.1471   23.9047    0.2407 C   0  0  0  0  0  0  0  0  0  0  0  0
   12.5775   23.2678    1.2713 N   0  0  0  0  0  0  0  0  0  0  0  0
   11.3775   22.6683    1.1707 C   0  0  0  0  0  0  0  0  0  0  0  0
   10.7325   22.7262   -0.0467 C   0  0  0  0  0  0  0  0  0  0  0  0
   11.2754   23.3682   -1.1358 C   0  0  0  0  0  0  0  0  0  0  0  0
   12.5093   23.9636   -0.9685 C   0  0  0  0  0  0  0  0  0  0  0  0
   10.7796   21.9831    2.3036 C   0  0  0  0  0  0  0  0  0  0  0  0
   10.3155   21.4369    3.2136 N   0  0  0  0  0  0  0  0  0  0  0  0
 12 13  1  0  0  0
 13 14  2  0  0  0
 14 15  1  0  0  0
 15 16  2  0  0  0
 16 17  1  0  0  0
 17 18  2  0  0  0
 18  1  1  0  0  0
  1  2  2  0  0  0
  2  3  1  0  0  0
  3  4  1  0  0  0
  3  5  2  0  0  0
  5  6  1  0  0  0
  6  7  2  0  0  0
  7  8  1  0  0  0
  8  9  2  0  0  0
  9 10  1  0  0  0
 15 19  1  0  0  0
 19 20  3  0  0  0
 18 13  1  0  0  0
 10  1  1  0  0  0
 10  6  1  0  0  0
  4 11  1  0  0  0
M  END
> <minimizedAffinity>
-6.99569

> <CNNscore>
0.5165222287

> <CNNaffinity>
6.3358297348

> <CNN_VS>
3.2725968361

> <CNNaffinity_variance>
0.2451336086

$$$$
[H]Oc1c([H])c(-c2c(C([H])([H])[H])nc(C#N)c([H])c2[H])n2nc([H])nc2c1[H]


 20 22  0  0  0  0  0  0  0  0999 V2000
   13.6157   24.1944   -1.8594 C   0  0  0  0  0  0  0  0  0  0  0  0
   13.0645   25.0936   -1.0057 C   0  0  0  0  0  0  0  0  0  0  0  0
   12.5428   24.6545    0.1987 C   0  0  0  0  0  0  0  0  0  0  0  0
   11.9773   25.5705    1.0767 O   0  0  0  0  0  0  0  0  0  0  0  0
   12.6136   23.3110    0.4666 C   0  0  0  0  0  0  0  0  0  0  0  0
   13.1918   22.4215   -0.4456 C   0  0  0  0  0  0  0  0  0  0  0  0
   13.3821   21.0899   -0.4265 N   0  0  0  0  0  0  0  0  0  0  0  0
   13.9877   20.7074   -1.5505 C   0  0  0  0  0  0  0  0  0  0  0  0
   14.1683   21.8287   -2.2654 N   0  0  0  0  0  0  0  0  0  0  0  0
   13.6892   22.8670   -1.6022 N   0  0  0  0  0  0  0  0  0  0  0  0
   11.0190   25.8390    1.0843 H   0  0  0  0  0  0  0  0  0  0  0  0
   12.5873   26.5597   -3.0419 C   0  0  0  0  0  0  0  0  0  0  0  0
   13.6913   25.8006   -3.7242 C   0  0  0  0  0  0  0  0  0  0  0  0
   14.2102   26.2124   -4.8876 N   0  0  0  0  0  0  0  0  0  0  0  0
   15.1979   25.5443   -5.5102 C   0  0  0  0  0  0  0  0  0  0  0  0
   15.6748   24.3989   -4.9085 C   0  0  0  0  0  0  0  0  0  0  0  0
   15.1752   23.9342   -3.7137 C   0  0  0  0  0  0  0  0  0  0  0  0
   14.1626   24.6643   -3.1251 C   0  0  0  0  0  0  0  0  0  0  0  0
   15.7449   26.0110   -6.7724 C   0  0  0  0  0  0  0  0  0  0  0  0
   16.1720   26.3942   -7.7788 N   0  0  0  0  0  0  0  0  0  0  0  0
 12 13  1  0  0  0
 13 14  2  0  0  0
 14 15  1  0  0  0
 15 16  2  0  0  0
 16 17  1  0  0  0
 17 18  2  0  0  0
 18  1  1  0  0  0
  1  2  2  0  0  0
  2  3  1  0  0  0
  3  4  1  0  0  0
  3  5  2  0  0  0
  5  6  1  0  0  0
  6  7  2  0  0  0
  7  8  1  0  0  0
  8  9  2  0  0  0
  9 10  1  0  0  0
 15 19  1  0  0  0
 19 20  3  0  0  0
 18 13  1  0  0  0
 10  1  1  0  0  0
 10  6  1  0  0  0
  4 11  1  0  0  0
M  END
> <minimizedAffinity>
-7.75577

> <CNNscore>
0.5093142986

> <CNNaffinity>
6.3781194687

> <CNN_VS>
3.2484674454

> <CNNaffinity_variance>
0.0562915206

$$$$
[H]c1nc2c([H])c(N([H])C(=O)C([H])([H])N3C([H])([H])C([H])([H])C([H])([H])C([H])([H])C3([H])[H])c([H])c(-c3c([H])c([H])c(C#N)c(F)c3[H])n2n1


 29 32  0  0  0  0  0  0  0  0999 V2000
   13.6147   24.7377   -1.8116 C   0  0  0  0  0  0  0  0  0  0  0  0
   12.2681   24.5788   -1.5826 C   0  0  0  0  0  0  0  0  0  0  0  0
   11.7266   24.2342   -0.3297 C   0  0  0  0  0  0  0  0  0  0  0  0
   12.5693   24.0467    0.7161 C   0  0  0  0  0  0  0  0  0  0  0  0
   13.9401   24.2152    0.4548 C   0  0  0  0  0  0  0  0  0  0  0  0
   14.9562   24.0918    1.3263 N   0  0  0  0  0  0  0  0  0  0  0  0
   16.0750   24.3491    0.6431 C   0  0  0  0  0  0  0  0  0  0  0  0
   15.7264   24.6191   -0.6083 N   0  0  0  0  0  0  0  0  0  0  0  0
   14.4214   24.5445   -0.7552 N   0  0  0  0  0  0  0  0  0  0  0  0
   16.3585   23.8997   -5.7251 F   0  0  0  0  0  0  0  0  0  0  0  0
   15.4540   24.6854   -5.0597 C   0  0  0  0  0  0  0  0  0  0  0  0
   14.9976   24.3234   -3.8246 C   0  0  0  0  0  0  0  0  0  0  0  0
   14.0747   25.1303   -3.1527 C   0  0  0  0  0  0  0  0  0  0  0  0
   13.6655   26.2591   -3.7684 C   0  0  0  0  0  0  0  0  0  0  0  0
   14.1320   26.6361   -5.0396 C   0  0  0  0  0  0  0  0  0  0  0  0
   15.0405   25.8433   -5.7033 C   0  0  0  0  0  0  0  0  0  0  0  0
   15.5492   26.1805   -7.0026 C   0  0  0  0  0  0  0  0  0  0  0  0
   15.9736   26.4485   -8.0485 N   0  0  0  0  0  0  0  0  0  0  0  0
   10.3220   24.1223   -0.1908 N   0  0  0  0  0  0  0  0  0  0  0  0
    9.6168   23.0151    0.2980 C   0  0  0  0  0  0  0  0  0  0  0  0
   10.2247   21.9548    0.6821 O   0  0  0  0  0  0  0  0  0  0  0  0
    9.7571   24.9990   -0.4747 H   0  0  0  0  0  0  0  0  0  0  0  0
    8.1433   23.0371    0.3905 C   0  0  0  0  0  0  0  0  0  0  0  0
    7.7060   23.3758    1.7107 N   0  0  0  0  0  0  0  0  0  0  0  0
    8.6499   24.4500    2.1390 C   0  0  0  0  0  0  0  0  0  0  0  0
    8.7005   24.4884    3.6280 C   0  0  0  0  0  0  0  0  0  0  0  0
    7.4009   23.9714    4.2349 C   0  0  0  0  0  0  0  0  0  0  0  0
    7.3119   22.4763    3.9196 C   0  0  0  0  0  0  0  0  0  0  0  0
    8.0138   22.2309    2.6137 C   0  0  0  0  0  0  0  0  0  0  0  0
 10 11  1  0  0  0
 11 12  2  0  0  0
 12 13  1  0  0  0
 13 14  2  0  0  0
 14 15  1  0  0  0
 15 16  2  0  0  0
 16 17  1  0  0  0
 17 18  3  0  0  0
 13  1  1  0  0  0
  1  2  2  0  0  0
  2  3  1  0  0  0
  3 19  1  0  0  0
 19 20  1  0  0  0
 20 21  2  0  0  0
 20 23  1  0  0  0
 23 24  1  0  0  0
 24 25  1  0  0  0
 25 26  1  0  0  0
 26 27  1  0  0  0
 27 28  1  0  0  0
 28 29  1  0  0  0
  3  4  2  0  0  0
  4  5  1  0  0  0
  5  6  2  0  0  0
  6  7  1  0  0  0
  7  8  2  0  0  0
  8  9  1  0  0  0
 16 11  1  0  0  0
  9  1  1  0  0  0
 29 24  1  0  0  0
  9  5  1  0  0  0
 19 22  1  0  0  0
M  END
> <minimizedAffinity>
-8.17254

> <CNNscore>
0.7459377646

> <CNNaffinity>
7.5528082848

> <CNN_VS>
5.6339249611

> <CNNaffinity_variance>
0.2504332364

$$$$
[H]c1nc2c([H])c(N([H])C(=O)C([H])([H])N3C([H])([H])C([H])([H])C([H])([H])C([H])([H])C3([H])[H])c([H])c(-c3c([H])c([H])c(C#N)c(F)c3[H])n2n1


 29 32  0  0  0  0  0  0  0  0999 V2000
   14.2015   24.5079   -2.0025 C   0  0  0  0  0  0  0  0  0  0  0  0
   12.9009   24.1204   -1.7808 C   0  0  0  0  0  0  0  0  0  0  0  0
   12.3845   23.8196   -0.5063 C   0  0  0  0  0  0  0  0  0  0  0  0
   13.2051   23.9141    0.5692 C   0  0  0  0  0  0  0  0  0  0  0  0
   14.5290   24.3119    0.3147 C   0  0  0  0  0  0  0  0  0  0  0  0
   15.5147   24.4828    1.2127 N   0  0  0  0  0  0  0  0  0  0  0  0
   16.5914   24.8723    0.5244 C   0  0  0  0  0  0  0  0  0  0  0  0
   16.2483   24.9301   -0.7560 N   0  0  0  0  0  0  0  0  0  0  0  0
   14.9875   24.5911   -0.9165 N   0  0  0  0  0  0  0  0  0  0  0  0
   14.4265   27.6280   -5.7120 F   0  0  0  0  0  0  0  0  0  0  0  0
   14.7100   26.3961   -5.1824 C   0  0  0  0  0  0  0  0  0  0  0  0
   14.3391   26.0889   -3.9046 C   0  0  0  0  0  0  0  0  0  0  0  0
   14.6324   24.8301   -3.3718 C   0  0  0  0  0  0  0  0  0  0  0  0
   15.2845   23.9523   -4.1625 C   0  0  0  0  0  0  0  0  0  0  0  0
   15.6684   24.2638   -5.4783 C   0  0  0  0  0  0  0  0  0  0  0  0
   15.3810   25.5025   -6.0051 C   0  0  0  0  0  0  0  0  0  0  0  0
   15.7502   25.8730   -7.3419 C   0  0  0  0  0  0  0  0  0  0  0  0
   16.0357   26.1675   -8.4271 N   0  0  0  0  0  0  0  0  0  0  0  0
   11.0217   23.4568   -0.3804 N   0  0  0  0  0  0  0  0  0  0  0  0
   10.1582   23.8044    0.6663 C   0  0  0  0  0  0  0  0  0  0  0  0
   10.5582   24.5222    1.6492 O   0  0  0  0  0  0  0  0  0  0  0  0
   10.6208   22.8719   -1.1963 H   0  0  0  0  0  0  0  0  0  0  0  0
    8.7515   23.3557    0.6675 C   0  0  0  0  0  0  0  0  0  0  0  0
    8.5917   22.1299   -0.0541 N   0  0  0  0  0  0  0  0  0  0  0  0
    7.3126   21.5666    0.4704 C   0  0  0  0  0  0  0  0  0  0  0  0
    7.3113   20.0901    0.2672 C   0  0  0  0  0  0  0  0  0  0  0  0
    8.1886   19.6982   -0.9165 C   0  0  0  0  0  0  0  0  0  0  0  0
    9.6383   20.0040   -0.5324 C   0  0  0  0  0  0  0  0  0  0  0  0
    9.6356   21.1735    0.4112 C   0  0  0  0  0  0  0  0  0  0  0  0
 10 11  1  0  0  0
 11 12  2  0  0  0
 12 13  1  0  0  0
 13 14  2  0  0  0
 14 15  1  0  0  0
 15 16  2  0  0  0
 16 17  1  0  0  0
 17 18  3  0  0  0
 13  1  1  0  0  0
  1  2  2  0  0  0
  2  3  1  0  0  0
  3 19  1  0  0  0
 19 20  1  0  0  0
 20 21  2  0  0  0
 20 23  1  0  0  0
 23 24  1  0  0  0
 24 25  1  0  0  0
 25 26  1  0  0  0
 26 27  1  0  0  0
 27 28  1  0  0  0
 28 29  1  0  0  0
  3  4  2  0  0  0
  4  5  1  0  0  0
  5  6  2  0  0  0
  6  7  1  0  0  0
  7  8  2  0  0  0
  8  9  1  0  0  0
 16 11  1  0  0  0
  9  1  1  0  0  0
 29 24  1  0  0  0
  9  5  1  0  0  0
 19 22  1  0  0  0
M  END
> <minimizedAffinity>
-7.13063

> <CNNscore>
0.6326113939

> <CNNaffinity>
7.5563316345

> <CNN_VS>
4.7802214622

> <CNNaffinity_variance>
0.2279840410

$$$$
[H]c1nc2c([H])c(N([H])C(=O)C([H])([H])N3C([H])([H])C([H])([H])C([H])([H])C([H])([H])C3([H])[H])c([H])c(-c3c([H])c([H])c(C#N)c(F)c3[H])n2n1


 29 32  0  0  0  0  0  0  0  0999 V2000
   14.4318   25.0149   -3.9328 C   0  0  0  0  0  0  0  0  0  0  0  0
   14.5664   23.9295   -3.0993 C   0  0  0  0  0  0  0  0  0  0  0  0
   13.8763   23.7938   -1.8799 C   0  0  0  0  0  0  0  0  0  0  0  0
   13.0293   24.7809   -1.4961 C   0  0  0  0  0  0  0  0  0  0  0  0
   12.9104   25.8785   -2.3660 C   0  0  0  0  0  0  0  0  0  0  0  0
   12.1338   26.9640   -2.2057 N   0  0  0  0  0  0  0  0  0  0  0  0
   12.3343   27.7354   -3.2778 C   0  0  0  0  0  0  0  0  0  0  0  0
   13.2129   27.1174   -4.0566 N   0  0  0  0  0  0  0  0  0  0  0  0
   13.5857   25.9743   -3.5231 N   0  0  0  0  0  0  0  0  0  0  0  0
   16.1929   27.4922   -7.7154 F   0  0  0  0  0  0  0  0  0  0  0  0
   16.0171   26.3028   -7.0575 C   0  0  0  0  0  0  0  0  0  0  0  0
   15.3504   26.2612   -5.8665 C   0  0  0  0  0  0  0  0  0  0  0  0
   15.1758   25.0439   -5.2017 C   0  0  0  0  0  0  0  0  0  0  0  0
   15.6855   23.9363   -5.7798 C   0  0  0  0  0  0  0  0  0  0  0  0
   16.3727   23.9739   -7.0054 C   0  0  0  0  0  0  0  0  0  0  0  0
   16.5461   25.1711   -7.6619 C   0  0  0  0  0  0  0  0  0  0  0  0
   17.2397   25.2665   -8.9150 C   0  0  0  0  0  0  0  0  0  0  0  0
   17.8107   25.3347   -9.9226 N   0  0  0  0  0  0  0  0  0  0  0  0
   14.0631   22.6227   -1.1063 N   0  0  0  0  0  0  0  0  0  0  0  0
   14.6853   22.5394    0.1459 C   0  0  0  0  0  0  0  0  0  0  0  0
   15.1606   23.5792    0.7239 O   0  0  0  0  0  0  0  0  0  0  0  0
   13.6570   21.7162   -1.5328 H   0  0  0  0  0  0  0  0  0  0  0  0
   14.8097   21.2445    0.8444 C   0  0  0  0  0  0  0  0  0  0  0  0
   13.5357   20.7602    1.2814 N   0  0  0  0  0  0  0  0  0  0  0  0
   12.8321   20.4015    0.0146 C   0  0  0  0  0  0  0  0  0  0  0  0
   11.3605   20.4422    0.2466 C   0  0  0  0  0  0  0  0  0  0  0  0
   11.0278   20.1713    1.7096 C   0  0  0  0  0  0  0  0  0  0  0  0
   11.5502   21.3570    2.5246 C   0  0  0  0  0  0  0  0  0  0  0  0
   12.7585   21.9105    1.8234 C   0  0  0  0  0  0  0  0  0  0  0  0
 10 11  1  0  0  0
 11 12  2  0  0  0
 12 13  1  0  0  0
 13 14  2  0  0  0
 14 15  1  0  0  0
 15 16  2  0  0  0
 16 17  1  0  0  0
 17 18  3  0  0  0
 13  1  1  0  0  0
  1  2  2  0  0  0
  2  3  1  0  0  0
  3 19  1  0  0  0
 19 20  1  0  0  0
 20 21  2  0  0  0
 20 23  1  0  0  0
 23 24  1  0  0  0
 24 25  1  0  0  0
 25 26  1  0  0  0
 26 27  1  0  0  0
 27 28  1  0  0  0
 28 29  1  0  0  0
  3  4  2  0  0  0
  4  5  1  0  0  0
  5  6  2  0  0  0
  6  7  1  0  0  0
  7  8  2  0  0  0
  8  9  1  0  0  0
 16 11  1  0  0  0
  9  1  1  0  0  0
 29 24  1  0  0  0
  9  5  1  0  0  0
 19 22  1  0  0  0
M  END
> <minimizedAffinity>
6.22407

> <CNNscore>
0.5957763195

> <CNNaffinity>
7.4206061363

> <CNN_VS>
4.4210214615

> <CNNaffinity_variance>
0.8162520528

$$$$
[H]c1nc2c([H])c(N([H])C(=O)C([H])([H])N3C([H])([H])C([H])([H])C([H])([H])C([H])([H])C3([H])[H])c([H])c(-c3c([H])c([H])c(C#N)c(F)c3[H])n2n1


 29 32  0  0  0  0  0  0  0  0999 V2000
   13.1447   23.3205   -0.9287 C   0  0  0  0  0  0  0  0  0  0  0  0
   11.8990   23.6586   -0.4545 C   0  0  0  0  0  0  0  0  0  0  0  0
   11.2949   23.0411    0.6569 C   0  0  0  0  0  0  0  0  0  0  0  0
   11.9690   22.0581    1.3037 C   0  0  0  0  0  0  0  0  0  0  0  0
   13.2396   21.7322    0.7986 C   0  0  0  0  0  0  0  0  0  0  0  0
   14.0912   20.8064    1.2727 N   0  0  0  0  0  0  0  0  0  0  0  0
   15.1730   20.8503    0.4900 C   0  0  0  0  0  0  0  0  0  0  0  0
   14.9643   21.7840   -0.4291 N   0  0  0  0  0  0  0  0  0  0  0  0
   13.7850   22.3434   -0.2659 N   0  0  0  0  0  0  0  0  0  0  0  0
   13.1031   27.1769   -3.8737 F   0  0  0  0  0  0  0  0  0  0  0  0
   13.6354   25.9653   -3.5172 C   0  0  0  0  0  0  0  0  0  0  0  0
   13.1498   25.2857   -2.4369 C   0  0  0  0  0  0  0  0  0  0  0  0
   13.6986   24.0505   -2.0797 C   0  0  0  0  0  0  0  0  0  0  0  0
   14.7081   23.5719   -2.8363 C   0  0  0  0  0  0  0  0  0  0  0  0
   15.2116   24.2677   -3.9491 C   0  0  0  0  0  0  0  0  0  0  0  0
   14.6731   25.4840   -4.3027 C   0  0  0  0  0  0  0  0  0  0  0  0
   15.1492   26.2364   -5.4287 C   0  0  0  0  0  0  0  0  0  0  0  0
   15.5243   26.8376   -6.3473 N   0  0  0  0  0  0  0  0  0  0  0  0
   10.0188   23.4818    1.0838 N   0  0  0  0  0  0  0  0  0  0  0  0
    8.9695   22.6778    1.5470 C   0  0  0  0  0  0  0  0  0  0  0  0
    9.0909   21.4049    1.6267 O   0  0  0  0  0  0  0  0  0  0  0  0
    9.8678   24.5520    1.0641 H   0  0  0  0  0  0  0  0  0  0  0  0
    7.6854   23.2755    1.9640 C   0  0  0  0  0  0  0  0  0  0  0  0
    7.7861   23.8860    3.2547 N   0  0  0  0  0  0  0  0  0  0  0  0
    8.1165   25.3106    2.9553 C   0  0  0  0  0  0  0  0  0  0  0  0
    8.8038   25.9092    4.1345 C   0  0  0  0  0  0  0  0  0  0  0  0
    8.3933   25.2070    5.4240 C   0  0  0  0  0  0  0  0  0  0  0  0
    8.9544   23.7841    5.3686 C   0  0  0  0  0  0  0  0  0  0  0  0
    9.0055   23.3571    3.9287 C   0  0  0  0  0  0  0  0  0  0  0  0
 10 11  1  0  0  0
 11 12  2  0  0  0
 12 13  1  0  0  0
 13 14  2  0  0  0
 14 15  1  0  0  0
 15 16  2  0  0  0
 16 17  1  0  0  0
 17 18  3  0  0  0
 13  1  1  0  0  0
  1  2  2  0  0  0
  2  3  1  0  0  0
  3 19  1  0  0  0
 19 20  1  0  0  0
 20 21  2  0  0  0
 20 23  1  0  0  0
 23 24  1  0  0  0
 24 25  1  0  0  0
 25 26  1  0  0  0
 26 27  1  0  0  0
 27 28  1  0  0  0
 28 29  1  0  0  0
  3  4  2  0  0  0
  4  5  1  0  0  0
  5  6  2  0  0  0
  6  7  1  0  0  0
  7  8  2  0  0  0
  8  9  1  0  0  0
 16 11  1  0  0  0
  9  1  1  0  0  0
 29 24  1  0  0  0
  9  5  1  0  0  0
 19 22  1  0  0  0
M  END
> <minimizedAffinity>
-9.04675

> <CNNscore>
0.5908337831

> <CNNaffinity>
7.1834440231

> <CNN_VS>
4.2442212105

> <CNNaffinity_variance>
0.1406805962

$$$$
[H]c1nc2c([H])c(N([H])C(=O)C([H])([H])N3C([H])([H])C([H])([H])C([H])([H])C([H])([H])C3([H])[H])c([H])c(-c3c([H])c([H])c(C#N)c(F)c3[H])n2n1


 29 32  0  0  0  0  0  0  0  0999 V2000
   14.2439   24.3561   -1.5443 C   0  0  0  0  0  0  0  0  0  0  0  0
   12.9700   23.8419   -1.4817 C   0  0  0  0  0  0  0  0  0  0  0  0
   12.5390   22.9490   -0.4825 C   0  0  0  0  0  0  0  0  0  0  0  0
   13.4192   22.5683    0.4764 C   0  0  0  0  0  0  0  0  0  0  0  0
   14.7139   23.1084    0.3890 C   0  0  0  0  0  0  0  0  0  0  0  0
   15.7461   22.8874    1.2215 N   0  0  0  0  0  0  0  0  0  0  0  0
   16.7687   23.6116    0.7580 C   0  0  0  0  0  0  0  0  0  0  0  0
   16.3486   24.2480   -0.3277 N   0  0  0  0  0  0  0  0  0  0  0  0
   15.0904   23.9588   -0.5801 N   0  0  0  0  0  0  0  0  0  0  0  0
   17.4317   27.3474   -3.6505 F   0  0  0  0  0  0  0  0  0  0  0  0
   16.1832   26.7833   -3.6140 C   0  0  0  0  0  0  0  0  0  0  0  0
   15.8591   25.8792   -2.6433 C   0  0  0  0  0  0  0  0  0  0  0  0
   14.5834   25.3081   -2.6133 C   0  0  0  0  0  0  0  0  0  0  0  0
   13.7067   25.6844   -3.5676 C   0  0  0  0  0  0  0  0  0  0  0  0
   14.0356   26.6144   -4.5690 C   0  0  0  0  0  0  0  0  0  0  0  0
   15.2909   27.1779   -4.6007 C   0  0  0  0  0  0  0  0  0  0  0  0
   15.6794   28.1318   -5.6006 C   0  0  0  0  0  0  0  0  0  0  0  0
   15.9981   28.9117   -6.3981 N   0  0  0  0  0  0  0  0  0  0  0  0
   11.1967   22.4984   -0.4902 N   0  0  0  0  0  0  0  0  0  0  0  0
   10.7629   21.1665   -0.4954 C   0  0  0  0  0  0  0  0  0  0  0  0
   11.5972   20.1943   -0.4917 O   0  0  0  0  0  0  0  0  0  0  0  0
   10.4468   23.2765   -0.4663 H   0  0  0  0  0  0  0  0  0  0  0  0
    9.3230   20.8397   -0.5012 C   0  0  0  0  0  0  0  0  0  0  0  0
    8.7530   20.9602    0.8062 N   0  0  0  0  0  0  0  0  0  0  0  0
    7.8047   22.1064    0.6822 C   0  0  0  0  0  0  0  0  0  0  0  0
    7.5880   22.7068    2.0290 C   0  0  0  0  0  0  0  0  0  0  0  0
    7.8018   21.6751    3.1308 C   0  0  0  0  0  0  0  0  0  0  0  0
    9.2892   21.3138    3.1367 C   0  0  0  0  0  0  0  0  0  0  0  0
    9.8100   21.4530    1.7340 C   0  0  0  0  0  0  0  0  0  0  0  0
 10 11  1  0  0  0
 11 12  2  0  0  0
 12 13  1  0  0  0
 13 14  2  0  0  0
 14 15  1  0  0  0
 15 16  2  0  0  0
 16 17  1  0  0  0
 17 18  3  0  0  0
 13  1  1  0  0  0
  1  2  2  0  0  0
  2  3  1  0  0  0
  3 19  1  0  0  0
 19 20  1  0  0  0
 20 21  2  0  0  0
 20 23  1  0  0  0
 23 24  1  0  0  0
 24 25  1  0  0  0
 25 26  1  0  0  0
 26 27  1  0  0  0
 27 28  1  0  0  0
 28 29  1  0  0  0
  3  4  2  0  0  0
  4  5  1  0  0  0
  5  6  2  0  0  0
  6  7  1  0  0  0
  7  8  2  0  0  0
  8  9  1  0  0  0
 16 11  1  0  0  0
  9  1  1  0  0  0
 29 24  1  0  0  0
  9  5  1  0  0  0
 19 22  1  0  0  0
M  END
> <minimizedAffinity>
-6.87058

> <CNNscore>
0.5741411448

> <CNNaffinity>
7.4694418907

> <CNN_VS>
4.2885141373

> <CNNaffinity_variance>
0.4091916084

$$$$
[H]c1nc2c([H])c(N([H])C(=O)C([H])([H])N3C([H])([H])C([H])([H])C([H])([H])C([H])([H])C3([H])[H])c([H])c(-c3c([H])c([H])c(C#N)c(F)c3[H])n2n1


 29 32  0  0  0  0  0  0  0  0999 V2000
   15.1001   24.1104   -1.4138 C   0  0  0  0  0  0  0  0  0  0  0  0
   14.0020   23.2924   -1.5404 C   0  0  0  0  0  0  0  0  0  0  0  0
   13.6839   22.2693   -0.6273 C   0  0  0  0  0  0  0  0  0  0  0  0
   14.4971   22.0706    0.4395 C   0  0  0  0  0  0  0  0  0  0  0  0
   15.6119   22.9201    0.5449 C   0  0  0  0  0  0  0  0  0  0  0  0
   16.5470   22.9203    1.5107 N   0  0  0  0  0  0  0  0  0  0  0  0
   17.4039   23.8997    1.2086 C   0  0  0  0  0  0  0  0  0  0  0  0
   16.9832   24.4671    0.0855 N   0  0  0  0  0  0  0  0  0  0  0  0
   15.8846   23.8869   -0.3468 N   0  0  0  0  0  0  0  0  0  0  0  0
   13.5458   26.7211   -5.1973 F   0  0  0  0  0  0  0  0  0  0  0  0
   14.5236   26.4284   -4.2827 C   0  0  0  0  0  0  0  0  0  0  0  0
   14.3224   25.4636   -3.3375 C   0  0  0  0  0  0  0  0  0  0  0  0
   15.3248   25.1715   -2.4079 C   0  0  0  0  0  0  0  0  0  0  0  0
   16.4753   25.8720   -2.4872 C   0  0  0  0  0  0  0  0  0  0  0  0
   16.6873   26.8662   -3.4581 C   0  0  0  0  0  0  0  0  0  0  0  0
   15.7018   27.1558   -4.3743 C   0  0  0  0  0  0  0  0  0  0  0  0
   15.8653   28.1609   -5.3860 C   0  0  0  0  0  0  0  0  0  0  0  0
   16.0117   28.9739   -6.2006 N   0  0  0  0  0  0  0  0  0  0  0  0
   12.5133   21.4994   -0.8320 N   0  0  0  0  0  0  0  0  0  0  0  0
   11.8653   20.6969    0.1157 C   0  0  0  0  0  0  0  0  0  0  0  0
   12.3070   20.5925    1.3137 O   0  0  0  0  0  0  0  0  0  0  0  0
   12.0792   21.5701   -1.8194 H   0  0  0  0  0  0  0  0  0  0  0  0
   10.6440   19.9457   -0.2370 C   0  0  0  0  0  0  0  0  0  0  0  0
    9.4987   20.4520    0.4563 N   0  0  0  0  0  0  0  0  0  0  0  0
    8.8910   21.4168   -0.5072 C   0  0  0  0  0  0  0  0  0  0  0  0
    8.0805   22.4137    0.2480 C   0  0  0  0  0  0  0  0  0  0  0  0
    7.5731   21.8274    1.5607 C   0  0  0  0  0  0  0  0  0  0  0  0
    8.7899   21.6014    2.4613 C   0  0  0  0  0  0  0  0  0  0  0  0
    9.9727   21.3037    1.5836 C   0  0  0  0  0  0  0  0  0  0  0  0
 10 11  1  0  0  0
 11 12  2  0  0  0
 12 13  1  0  0  0
 13 14  2  0  0  0
 14 15  1  0  0  0
 15 16  2  0  0  0
 16 17  1  0  0  0
 17 18  3  0  0  0
 13  1  1  0  0  0
  1  2  2  0  0  0
  2  3  1  0  0  0
  3 19  1  0  0  0
 19 20  1  0  0  0
 20 21  2  0  0  0
 20 23  1  0  0  0
 23 24  1  0  0  0
 24 25  1  0  0  0
 25 26  1  0  0  0
 26 27  1  0  0  0
 27 28  1  0  0  0
 28 29  1  0  0  0
  3  4  2  0  0  0
  4  5  1  0  0  0
  5  6  2  0  0  0
  6  7  1  0  0  0
  7  8  2  0  0  0
  8  9  1  0  0  0
 16 11  1  0  0  0
  9  1  1  0  0  0
 29 24  1  0  0  0
  9  5  1  0  0  0
 19 22  1  0  0  0
M  END
> <minimizedAffinity>
-6.01583

> <CNNscore>
0.5728995800

> <CNNaffinity>
7.5914468765

> <CNN_VS>
4.3491368294

> <CNNaffinity_variance>
0.6460717916

$$$$
[H]c1nc2c([H])c(N([H])C(=O)C([H])([H])N3C([H])([H])C([H])([H])C([H])([H])C([H])([H])C3([H])[H])c([H])c(-c3c([H])c([H])c(C#N)c(F)c3[H])n2n1


 29 32  0  0  0  0  0  0  0  0999 V2000
   12.8804   23.6219   -0.8803 C   0  0  0  0  0  0  0  0  0  0  0  0
   11.6270   23.8594   -0.3672 C   0  0  0  0  0  0  0  0  0  0  0  0
   11.0944   23.1692    0.7380 C   0  0  0  0  0  0  0  0  0  0  0  0
   11.8498   22.2162    1.3380 C   0  0  0  0  0  0  0  0  0  0  0  0
   13.1265   21.9934    0.7938 C   0  0  0  0  0  0  0  0  0  0  0  0
   14.0508   21.1147    1.2190 N   0  0  0  0  0  0  0  0  0  0  0  0
   15.1071   21.2560    0.4134 C   0  0  0  0  0  0  0  0  0  0  0  0
   14.8123   22.1999   -0.4711 N   0  0  0  0  0  0  0  0  0  0  0  0
   13.6022   22.6719   -0.2633 N   0  0  0  0  0  0  0  0  0  0  0  0
   15.9249   24.2314   -4.6094 F   0  0  0  0  0  0  0  0  0  0  0  0
   14.8847   24.6892   -3.8434 C   0  0  0  0  0  0  0  0  0  0  0  0
   14.4161   23.9480   -2.7966 C   0  0  0  0  0  0  0  0  0  0  0  0
   13.3543   24.4220   -2.0204 C   0  0  0  0  0  0  0  0  0  0  0  0
   12.8264   25.6201   -2.3469 C   0  0  0  0  0  0  0  0  0  0  0  0
   13.3051   26.3866   -3.4235 C   0  0  0  0  0  0  0  0  0  0  0  0
   14.3502   25.9221   -4.1893 C   0  0  0  0  0  0  0  0  0  0  0  0
   14.8775   26.6636   -5.2996 C   0  0  0  0  0  0  0  0  0  0  0  0
   15.2957   27.2743   -6.1930 N   0  0  0  0  0  0  0  0  0  0  0  0
    9.8025   23.5084    1.2078 N   0  0  0  0  0  0  0  0  0  0  0  0
    8.8114   22.6186    1.6417 C   0  0  0  0  0  0  0  0  0  0  0  0
    9.0097   21.3529    1.6492 O   0  0  0  0  0  0  0  0  0  0  0  0
    9.5878   24.5669    1.2494 H   0  0  0  0  0  0  0  0  0  0  0  0
    7.5020   23.1143    2.1104 C   0  0  0  0  0  0  0  0  0  0  0  0
    7.6327   23.8901    3.3062 N   0  0  0  0  0  0  0  0  0  0  0  0
    8.0383   25.2410    2.8173 C   0  0  0  0  0  0  0  0  0  0  0  0
    8.7544   25.9592    3.9094 C   0  0  0  0  0  0  0  0  0  0  0  0
    8.3052   25.4630    5.2792 C   0  0  0  0  0  0  0  0  0  0  0  0
    8.7906   24.0187    5.4243 C   0  0  0  0  0  0  0  0  0  0  0  0
    8.8213   23.3959    4.0570 C   0  0  0  0  0  0  0  0  0  0  0  0
 10 11  1  0  0  0
 11 12  2  0  0  0
 12 13  1  0  0  0
 13 14  2  0  0  0
 14 15  1  0  0  0
 15 16  2  0  0  0
 16 17  1  0  0  0
 17 18  3  0  0  0
 13  1  1  0  0  0
  1  2  2  0  0  0
  2  3  1  0  0  0
  3 19  1  0  0  0
 19 20  1  0  0  0
 20 21  2  0  0  0
 20 23  1  0  0  0
 23 24  1  0  0  0
 24 25  1  0  0  0
 25 26  1  0  0  0
 26 27  1  0  0  0
 27 28  1  0  0  0
 28 29  1  0  0  0
  3  4  2  0  0  0
  4  5  1  0  0  0
  5  6  2  0  0  0
  6  7  1  0  0  0
  7  8  2  0  0  0
  8  9  1  0  0  0
 16 11  1  0  0  0
  9  1  1  0  0  0
 29 24  1  0  0  0
  9  5  1  0  0  0
 19 22  1  0  0  0
M  END
> <minimizedAffinity>
-9.19827

> <CNNscore>
0.5686431527

> <CNNaffinity>
7.1781525612

> <CNN_VS>
4.0818071365

> <CNNaffinity_variance>
0.1765425056

$$$$
[H]c1nc2c([H])c(N([H])C(=O)C([H])([H])N3C([H])([H])C([H])([H])C([H])([H])C([H])([H])C3([H])[H])c([H])c(-c3c([H])c([H])c(C#N)c(F)c3[H])n2n1


 29 32  0  0  0  0  0  0  0  0999 V2000
   13.2075   23.4814   -0.9417 C   0  0  0  0  0  0  0  0  0  0  0  0
   12.0731   23.9813   -0.3465 C   0  0  0  0  0  0  0  0  0  0  0  0
   11.4944   23.4302    0.8124 C   0  0  0  0  0  0  0  0  0  0  0  0
   12.0791   22.3473    1.3821 C   0  0  0  0  0  0  0  0  0  0  0  0
   13.2368   21.8567    0.7538 C   0  0  0  0  0  0  0  0  0  0  0  0
   13.9883   20.8093    1.1350 N   0  0  0  0  0  0  0  0  0  0  0  0
   14.9867   20.7176    0.2521 C   0  0  0  0  0  0  0  0  0  0  0  0
   14.8278   21.6922   -0.6341 N   0  0  0  0  0  0  0  0  0  0  0  0
   13.7612   22.4087   -0.3527 N   0  0  0  0  0  0  0  0  0  0  0  0
   13.1132   27.1668   -4.0969 F   0  0  0  0  0  0  0  0  0  0  0  0
   13.6598   25.9826   -3.6758 C   0  0  0  0  0  0  0  0  0  0  0  0
   13.1857   25.3593   -2.5571 C   0  0  0  0  0  0  0  0  0  0  0  0
   13.7490   24.1518   -2.1341 C   0  0  0  0  0  0  0  0  0  0  0  0
   14.7607   23.6423   -2.8673 C   0  0  0  0  0  0  0  0  0  0  0  0
   15.2524   24.2801   -4.0194 C   0  0  0  0  0  0  0  0  0  0  0  0
   14.6996   25.4691   -4.4379 C   0  0  0  0  0  0  0  0  0  0  0  0
   15.1632   26.1625   -5.6062 C   0  0  0  0  0  0  0  0  0  0  0  0
   15.5240   26.7260   -6.5539 N   0  0  0  0  0  0  0  0  0  0  0  0
   10.3404   24.0369    1.3644 N   0  0  0  0  0  0  0  0  0  0  0  0
    9.0355   23.5281    1.3378 C   0  0  0  0  0  0  0  0  0  0  0  0
    8.7695   22.4060    0.7799 O   0  0  0  0  0  0  0  0  0  0  0  0
   10.5089   24.9757    1.8731 H   0  0  0  0  0  0  0  0  0  0  0  0
    7.9208   24.2710    1.9589 C   0  0  0  0  0  0  0  0  0  0  0  0
    8.3884   25.1670    2.9725 N   0  0  0  0  0  0  0  0  0  0  0  0
    8.2463   24.3869    4.2373 C   0  0  0  0  0  0  0  0  0  0  0  0
    8.1336   25.3334    5.3830 C   0  0  0  0  0  0  0  0  0  0  0  0
    8.8265   26.6555    5.0729 C   0  0  0  0  0  0  0  0  0  0  0  0
    8.0263   27.3421    3.9633 C   0  0  0  0  0  0  0  0  0  0  0  0
    7.4018   26.2756    3.1085 C   0  0  0  0  0  0  0  0  0  0  0  0
 10 11  1  0  0  0
 11 12  2  0  0  0
 12 13  1  0  0  0
 13 14  2  0  0  0
 14 15  1  0  0  0
 15 16  2  0  0  0
 16 17  1  0  0  0
 17 18  3  0  0  0
 13  1  1  0  0  0
  1  2  2  0  0  0
  2  3  1  0  0  0
  3 19  1  0  0  0
 19 20  1  0  0  0
 20 21  2  0  0  0
 20 23  1  0  0  0
 23 24  1  0  0  0
 24 25  1  0  0  0
 25 26  1  0  0  0
 26 27  1  0  0  0
 27 28  1  0  0  0
 28 29  1  0  0  0
  3  4  2  0  0  0
  4  5  1  0  0  0
  5  6  2  0  0  0
  6  7  1  0  0  0
  7  8  2  0  0  0
  8  9  1  0  0  0
 16 11  1  0  0  0
  9  1  1  0  0  0
 29 24  1  0  0  0
  9  5  1  0  0  0
 19 22  1  0  0  0
M  END
> <minimizedAffinity>
-9.47294

> <CNNscore>
0.5120724440

> <CNNaffinity>
7.0228705406

> <CNN_VS>
3.5962185860

> <CNNaffinity_variance>
0.0977174789

$$$$
[H]c1nc2c([H])c(N([H])C(=O)C([H])([H])N3C([H])([H])C([H])([H])C([H])([H])C([H])([H])C3([H])[H])c([H])c(-c3c([H])c([H])c(C#N)c(F)c3[H])n2n1


 29 32  0  0  0  0  0  0  0  0999 V2000
   13.0718   23.4627   -0.7538 C   0  0  0  0  0  0  0  0  0  0  0  0
   11.9355   23.8666   -0.0931 C   0  0  0  0  0  0  0  0  0  0  0  0
   11.4400   23.2335    1.0623 C   0  0  0  0  0  0  0  0  0  0  0  0
   12.1120   22.1662    1.5607 C   0  0  0  0  0  0  0  0  0  0  0  0
   13.2696   21.7743    0.8665 C   0  0  0  0  0  0  0  0  0  0  0  0
   14.0979   20.7604    1.1717 N   0  0  0  0  0  0  0  0  0  0  0  0
   15.0621   20.7671    0.2470 C   0  0  0  0  0  0  0  0  0  0  0  0
   14.8080   21.7657   -0.5887 N   0  0  0  0  0  0  0  0  0  0  0  0
   13.7131   22.4029   -0.2346 N   0  0  0  0  0  0  0  0  0  0  0  0
   16.1529   24.0098   -4.4625 F   0  0  0  0  0  0  0  0  0  0  0  0
   15.0718   24.4532   -3.7463 C   0  0  0  0  0  0  0  0  0  0  0  0
   14.6255   23.7550   -2.6610 C   0  0  0  0  0  0  0  0  0  0  0  0
   13.5218   24.2139   -1.9361 C   0  0  0  0  0  0  0  0  0  0  0  0
   12.9315   25.3545   -2.3501 C   0  0  0  0  0  0  0  0  0  0  0  0
   13.3869   26.0768   -3.4667 C   0  0  0  0  0  0  0  0  0  0  0  0
   14.4732   25.6269   -4.1821 C   0  0  0  0  0  0  0  0  0  0  0  0
   14.9794   26.3249   -5.3299 C   0  0  0  0  0  0  0  0  0  0  0  0
   15.3786   26.8995   -6.2553 N   0  0  0  0  0  0  0  0  0  0  0  0
   10.2758   23.7446    1.6854 N   0  0  0  0  0  0  0  0  0  0  0  0
    8.9680   23.2671    1.5310 C   0  0  0  0  0  0  0  0  0  0  0  0
    8.7085   22.2699    0.7698 O   0  0  0  0  0  0  0  0  0  0  0  0
   10.4377   24.5719    2.3620 H   0  0  0  0  0  0  0  0  0  0  0  0
    7.8422   23.8988    2.2479 C   0  0  0  0  0  0  0  0  0  0  0  0
    8.3045   24.7985    3.2606 N   0  0  0  0  0  0  0  0  0  0  0  0
    7.5460   24.3901    4.4797 C   0  0  0  0  0  0  0  0  0  0  0  0
    7.4738   25.5458    5.4181 C   0  0  0  0  0  0  0  0  0  0  0  0
    8.6563   26.4877    5.2208 C   0  0  0  0  0  0  0  0  0  0  0  0
    8.4994   27.1365    3.8434 C   0  0  0  0  0  0  0  0  0  0  0  0
    7.7917   26.1617    2.9450 C   0  0  0  0  0  0  0  0  0  0  0  0
 10 11  1  0  0  0
 11 12  2  0  0  0
 12 13  1  0  0  0
 13 14  2  0  0  0
 14 15  1  0  0  0
 15 16  2  0  0  0
 16 17  1  0  0  0
 17 18  3  0  0  0
 13  1  1  0  0  0
  1  2  2  0  0  0
  2  3  1  0  0  0
  3 19  1  0  0  0
 19 20  1  0  0  0
 20 21  2  0  0  0
 20 23  1  0  0  0
 23 24  1  0  0  0
 24 25  1  0  0  0
 25 26  1  0  0  0
 26 27  1  0  0  0
 27 28  1  0  0  0
 28 29  1  0  0  0
  3  4  2  0  0  0
  4  5  1  0  0  0
  5  6  2  0  0  0
  6  7  1  0  0  0
  7  8  2  0  0  0
  8  9  1  0  0  0
 16 11  1  0  0  0
  9  1  1  0  0  0
 29 24  1  0  0  0
  9  5  1  0  0  0
 19 22  1  0  0  0
M  END
> <minimizedAffinity>
-9.09997

> <CNNscore>
0.4912667871

> <CNNaffinity>
7.0104637146

> <CNN_VS>
3.4440078735

> <CNNaffinity_variance>
0.1831089407

$$$$
[H]c1nc2c([H])c(N([H])C(=O)C([H])([H])[H])c([H])c(-c3c([H])c([H])c(C#N)c([H])c3C([H])([H])[H])n2n1


 23 25  0  0  0  0  0  0  0  0999 V2000
   11.6958   24.1861   -0.4714 C   0  0  0  0  0  0  0  0  0  0  0  0
   12.2962   24.4735   -1.7168 C   0  0  0  0  0  0  0  0  0  0  0  0
   13.6401   24.6683   -1.8824 C   0  0  0  0  0  0  0  0  0  0  0  0
   14.3982   24.5727   -0.7753 N   0  0  0  0  0  0  0  0  0  0  0  0
   15.7169   24.7199   -0.6812 N   0  0  0  0  0  0  0  0  0  0  0  0
   16.0144   24.5361    0.6088 C   0  0  0  0  0  0  0  0  0  0  0  0
   14.8832   24.2755    1.3134 N   0  0  0  0  0  0  0  0  0  0  0  0
   13.8737   24.3020    0.4279 C   0  0  0  0  0  0  0  0  0  0  0  0
   12.5153   24.1002    0.6247 C   0  0  0  0  0  0  0  0  0  0  0  0
   14.1945   24.9622   -3.1994 C   0  0  0  0  0  0  0  0  0  0  0  0
   13.9414   26.2411   -3.6983 C   0  0  0  0  0  0  0  0  0  0  0  0
   14.4096   26.6283   -4.9187 C   0  0  0  0  0  0  0  0  0  0  0  0
   15.1433   25.7352   -5.6636 C   0  0  0  0  0  0  0  0  0  0  0  0
   15.3947   24.4573   -5.1625 C   0  0  0  0  0  0  0  0  0  0  0  0
   14.9218   24.0641   -3.9281 C   0  0  0  0  0  0  0  0  0  0  0  0
   15.1822   22.7139   -3.3880 C   0  0  0  0  0  0  0  0  0  0  0  0
   15.6384   26.1436   -6.9535 C   0  0  0  0  0  0  0  0  0  0  0  0
   16.0354   26.4601   -7.9926 N   0  0  0  0  0  0  0  0  0  0  0  0
    8.0759   23.3155    0.4297 C   0  0  0  0  0  0  0  0  0  0  0  0
    9.5898   23.3649    0.5906 C   0  0  0  0  0  0  0  0  0  0  0  0
   10.0139   22.8025    1.6247 O   0  0  0  0  0  0  0  0  0  0  0  0
   10.3128   24.0110   -0.4005 N   0  0  0  0  0  0  0  0  0  0  0  0
    9.7391   24.4264   -1.2062 H   0  0  0  0  0  0  0  0  0  0  0  0
 19 20  1  0  0  0
 20 21  2  0  0  0
 20 22  1  0  0  0
 22  1  1  0  0  0
  1  2  1  0  0  0
  2  3  2  0  0  0
  3 10  1  0  0  0
 10 11  2  0  0  0
 11 12  1  0  0  0
 12 13  2  0  0  0
 13 14  1  0  0  0
 14 15  2  0  0  0
 15 16  1  0  0  0
 13 17  1  0  0  0
 17 18  3  0  0  0
  3  4  1  0  0  0
  4  5  1  0  0  0
  5  6  2  0  0  0
  6  7  1  0  0  0
  7  8  2  0  0  0
  8  9  1  0  0  0
  9  1  2  0  0  0
 15 10  1  0  0  0
  8  4  1  0  0  0
 22 23  1  0  0  0
M  END
> <minimizedAffinity>
-8.52034

> <CNNscore>
0.8138913512

> <CNNaffinity>
7.1091489792

> <CNN_VS>
5.7860746384

> <CNNaffinity_variance>
0.1128934249

$$$$
[H]c1nc2c([H])c(N([H])C(=O)C([H])([H])[H])c([H])c(-c3c([H])c([H])c(C#N)c([H])c3C([H])([H])[H])n2n1


 23 25  0  0  0  0  0  0  0  0999 V2000
   15.4504   24.7824   -3.5346 C   0  0  0  0  0  0  0  0  0  0  0  0
   14.3261   24.0296   -3.1304 C   0  0  0  0  0  0  0  0  0  0  0  0
   14.0716   23.6876   -1.8305 C   0  0  0  0  0  0  0  0  0  0  0  0
   14.9637   24.1096   -0.9163 N   0  0  0  0  0  0  0  0  0  0  0  0
   14.9352   23.9055    0.3978 N   0  0  0  0  0  0  0  0  0  0  0  0
   16.0233   24.5093    0.8855 C   0  0  0  0  0  0  0  0  0  0  0  0
   16.7252   25.0866   -0.1235 N   0  0  0  0  0  0  0  0  0  0  0  0
   16.0452   24.8262   -1.2521 C   0  0  0  0  0  0  0  0  0  0  0  0
   16.3279   25.1868   -2.5616 C   0  0  0  0  0  0  0  0  0  0  0  0
   12.8893   22.9070   -1.4824 C   0  0  0  0  0  0  0  0  0  0  0  0
   13.0703   21.5252   -1.4022 C   0  0  0  0  0  0  0  0  0  0  0  0
   12.0366   20.6951   -1.0848 C   0  0  0  0  0  0  0  0  0  0  0  0
   10.7973   21.2390   -0.8411 C   0  0  0  0  0  0  0  0  0  0  0  0
   10.6193   22.6206   -0.9220 C   0  0  0  0  0  0  0  0  0  0  0  0
   11.6640   23.4618   -1.2430 C   0  0  0  0  0  0  0  0  0  0  0  0
   11.4865   24.9259   -1.3313 C   0  0  0  0  0  0  0  0  0  0  0  0
    9.7044   20.3622   -0.5056 C   0  0  0  0  0  0  0  0  0  0  0  0
    8.8213   19.6619   -0.2462 N   0  0  0  0  0  0  0  0  0  0  0  0
   15.5295   26.2776   -7.0605 C   0  0  0  0  0  0  0  0  0  0  0  0
   15.1987   26.1996   -5.5756 C   0  0  0  0  0  0  0  0  0  0  0  0
   14.5609   27.1840   -5.1402 O   0  0  0  0  0  0  0  0  0  0  0  0
   15.6296   25.0756   -4.8875 N   0  0  0  0  0  0  0  0  0  0  0  0
   16.1657   24.3474   -5.4647 H   0  0  0  0  0  0  0  0  0  0  0  0
 19 20  1  0  0  0
 20 21  2  0  0  0
 20 22  1  0  0  0
 22  1  1  0  0  0
  1  2  1  0  0  0
  2  3  2  0  0  0
  3 10  1  0  0  0
 10 11  2  0  0  0
 11 12  1  0  0  0
 12 13  2  0  0  0
 13 14  1  0  0  0
 14 15  2  0  0  0
 15 16  1  0  0  0
 13 17  1  0  0  0
 17 18  3  0  0  0
  3  4  1  0  0  0
  4  5  1  0  0  0
  5  6  2  0  0  0
  6  7  1  0  0  0
  7  8  2  0  0  0
  8  9  1  0  0  0
  9  1  2  0  0  0
 15 10  1  0  0  0
  8  4  1  0  0  0
 22 23  1  0  0  0
M  END
> <minimizedAffinity>
-7.93185

> <CNNscore>
0.7952615023

> <CNNaffinity>
7.2098321915

> <CNN_VS>
5.7337021828

> <CNNaffinity_variance>
0.2160894573

$$$$
[H]c1nc2c([H])c(N([H])C(=O)C([H])([H])[H])c([H])c(-c3c([H])c([H])c(C#N)c([H])c3C([H])([H])[H])n2n1


 23 25  0  0  0  0  0  0  0  0999 V2000
   15.2526   24.7562   -3.4973 C   0  0  0  0  0  0  0  0  0  0  0  0
   14.1271   24.0428   -3.0301 C   0  0  0  0  0  0  0  0  0  0  0  0
   13.9259   23.7228   -1.7154 C   0  0  0  0  0  0  0  0  0  0  0  0
   14.8738   24.1269   -0.8506 N   0  0  0  0  0  0  0  0  0  0  0  0
   14.9032   23.9378    0.4658 N   0  0  0  0  0  0  0  0  0  0  0  0
   16.0315   24.5130    0.8929 C   0  0  0  0  0  0  0  0  0  0  0  0
   16.7006   25.0575   -0.1558 N   0  0  0  0  0  0  0  0  0  0  0  0
   15.9589   24.8061   -1.2470 C   0  0  0  0  0  0  0  0  0  0  0  0
   16.1883   25.1438   -2.5729 C   0  0  0  0  0  0  0  0  0  0  0  0
   12.7389   22.9827   -1.3010 C   0  0  0  0  0  0  0  0  0  0  0  0
   11.5772   23.7369   -1.1278 C   0  0  0  0  0  0  0  0  0  0  0  0
   10.4073   23.1529   -0.7422 C   0  0  0  0  0  0  0  0  0  0  0  0
   10.3820   21.7956   -0.5226 C   0  0  0  0  0  0  0  0  0  0  0  0
   11.5449   21.0441   -0.6964 C   0  0  0  0  0  0  0  0  0  0  0  0
   12.7292   21.6335   -1.0865 C   0  0  0  0  0  0  0  0  0  0  0  0
   13.9661   20.8474   -1.2736 C   0  0  0  0  0  0  0  0  0  0  0  0
    9.1460   21.1777   -0.1150 C   0  0  0  0  0  0  0  0  0  0  0  0
    8.1597   20.6716    0.2148 N   0  0  0  0  0  0  0  0  0  0  0  0
   15.3561   26.2664   -7.0162 C   0  0  0  0  0  0  0  0  0  0  0  0
   15.1462   26.2341   -5.5077 C   0  0  0  0  0  0  0  0  0  0  0  0
   14.7833   27.3264   -5.0174 O   0  0  0  0  0  0  0  0  0  0  0  0
   15.3745   25.0293   -4.8607 N   0  0  0  0  0  0  0  0  0  0  0  0
   15.6833   24.2121   -5.4835 H   0  0  0  0  0  0  0  0  0  0  0  0
 19 20  1  0  0  0
 20 21  2  0  0  0
 20 22  1  0  0  0
 22  1  1  0  0  0
  1  2  1  0  0  0
  2  3  2  0  0  0
  3 10  1  0  0  0
 10 11  2  0  0  0
 11 12  1  0  0  0
 12 13  2  0  0  0
 13 14  1  0  0  0
 14 15  2  0  0  0
 15 16  1  0  0  0
 13 17  1  0  0  0
 17 18  3  0  0  0
  3  4  1  0  0  0
  4  5  1  0  0  0
  5  6  2  0  0  0
  6  7  1  0  0  0
  7  8  2  0  0  0
  8  9  1  0  0  0
  9  1  2  0  0  0
 15 10  1  0  0  0
  8  4  1  0  0  0
 22 23  1  0  0  0
M  END
> <minimizedAffinity>
-7.99727

> <CNNscore>
0.7832692266

> <CNNaffinity>
7.2914643288

> <CNN_VS>
5.7111797333

> <CNNaffinity_variance>
0.1614959240

$$$$
[H]c1nc2c([H])c(N([H])C(=O)C([H])([H])[H])c([H])c(-c3c([H])c([H])c(C#N)c([H])c3C([H])([H])[H])n2n1


 23 25  0  0  0  0  0  0  0  0999 V2000
   11.4667   21.1968   -0.8192 C   0  0  0  0  0  0  0  0  0  0  0  0
   11.9615   22.2666   -1.5968 C   0  0  0  0  0  0  0  0  0  0  0  0
   13.1945   22.8297   -1.4122 C   0  0  0  0  0  0  0  0  0  0  0  0
   13.9475   22.3087   -0.4267 N   0  0  0  0  0  0  0  0  0  0  0  0
   15.1696   22.6820   -0.0572 N   0  0  0  0  0  0  0  0  0  0  0  0
   15.5060   21.8800    0.9577 C   0  0  0  0  0  0  0  0  0  0  0  0
   14.4951   21.0112    1.2173 N   0  0  0  0  0  0  0  0  0  0  0  0
   13.5206   21.2938    0.3373 C   0  0  0  0  0  0  0  0  0  0  0  0
   12.2757   20.7041    0.1723 C   0  0  0  0  0  0  0  0  0  0  0  0
   13.6435   23.9342   -2.2529 C   0  0  0  0  0  0  0  0  0  0  0  0
   14.6644   23.6386   -3.1579 C   0  0  0  0  0  0  0  0  0  0  0  0
   15.1641   24.5919   -3.9945 C   0  0  0  0  0  0  0  0  0  0  0  0
   14.6462   25.8645   -3.9378 C   0  0  0  0  0  0  0  0  0  0  0  0
   13.6258   26.1572   -3.0320 C   0  0  0  0  0  0  0  0  0  0  0  0
   13.1192   25.1940   -2.1850 C   0  0  0  0  0  0  0  0  0  0  0  0
   12.0390   25.4931   -1.2224 C   0  0  0  0  0  0  0  0  0  0  0  0
   15.1738   26.8725   -4.8216 C   0  0  0  0  0  0  0  0  0  0  0  0
   15.5904   27.6898   -5.5260 N   0  0  0  0  0  0  0  0  0  0  0  0
    7.8104   20.0563   -0.7540 C   0  0  0  0  0  0  0  0  0  0  0  0
    9.1016   20.6632   -0.2202 C   0  0  0  0  0  0  0  0  0  0  0  0
    9.0256   21.0737    0.9592 O   0  0  0  0  0  0  0  0  0  0  0  0
   10.1907   20.6933   -1.0777 N   0  0  0  0  0  0  0  0  0  0  0  0
   10.0309   20.2824   -2.0557 H   0  0  0  0  0  0  0  0  0  0  0  0
 19 20  1  0  0  0
 20 21  2  0  0  0
 20 22  1  0  0  0
 22  1  1  0  0  0
  1  2  1  0  0  0
  2  3  2  0  0  0
  3 10  1  0  0  0
 10 11  2  0  0  0
 11 12  1  0  0  0
 12 13  2  0  0  0
 13 14  1  0  0  0
 14 15  2  0  0  0
 15 16  1  0  0  0
 13 17  1  0  0  0
 17 18  3  0  0  0
  3  4  1  0  0  0
  4  5  1  0  0  0
  5  6  2  0  0  0
  6  7  1  0  0  0
  7  8  2  0  0  0
  8  9  1  0  0  0
  9  1  2  0  0  0
 15 10  1  0  0  0
  8  4  1  0  0  0
 22 23  1  0  0  0
M  END
> <minimizedAffinity>
-8.12920

> <CNNscore>
0.6634616256

> <CNNaffinity>
7.1931853294

> <CNN_VS>
4.7724022865

> <CNNaffinity_variance>
0.4985676706

$$$$
[H]c1nc2c([H])c(N([H])C(=O)C([H])([H])[H])c([H])c(-c3c([H])c([H])c(C#N)c([H])c3C([H])([H])[H])n2n1


 23 25  0  0  0  0  0  0  0  0999 V2000
   12.1867   23.1272   -0.5600 C   0  0  0  0  0  0  0  0  0  0  0  0
   12.6482   23.6460   -1.7896 C   0  0  0  0  0  0  0  0  0  0  0  0
   13.8770   24.2243   -1.9537 C   0  0  0  0  0  0  0  0  0  0  0  0
   14.6598   24.2837   -0.8614 N   0  0  0  0  0  0  0  0  0  0  0  0
   15.8847   24.7941   -0.7692 N   0  0  0  0  0  0  0  0  0  0  0  0
   16.2558   24.6273    0.5039 C   0  0  0  0  0  0  0  0  0  0  0  0
   15.2636   24.0148    1.2000 N   0  0  0  0  0  0  0  0  0  0  0  0
   14.2652   23.8050    0.3265 C   0  0  0  0  0  0  0  0  0  0  0  0
   13.0253   23.2139    0.5215 C   0  0  0  0  0  0  0  0  0  0  0  0
   14.2908   24.7405   -3.2540 C   0  0  0  0  0  0  0  0  0  0  0  0
   15.2346   23.9772   -3.9432 C   0  0  0  0  0  0  0  0  0  0  0  0
   15.6954   24.3613   -5.1674 C   0  0  0  0  0  0  0  0  0  0  0  0
   15.2153   25.5233   -5.7244 C   0  0  0  0  0  0  0  0  0  0  0  0
   14.2719   26.2844   -5.0331 C   0  0  0  0  0  0  0  0  0  0  0  0
   13.8047   25.8973   -3.7947 C   0  0  0  0  0  0  0  0  0  0  0  0
   12.8060   26.6955   -3.0543 C   0  0  0  0  0  0  0  0  0  0  0  0
   15.7019   25.9297   -7.0181 C   0  0  0  0  0  0  0  0  0  0  0  0
   16.0824   26.2520   -8.0617 N   0  0  0  0  0  0  0  0  0  0  0  0
    9.1045   20.8627   -0.3449 C   0  0  0  0  0  0  0  0  0  0  0  0
   10.5844   21.2168   -0.4176 C   0  0  0  0  0  0  0  0  0  0  0  0
   11.3494   20.2269   -0.4040 O   0  0  0  0  0  0  0  0  0  0  0  0
   10.9124   22.5621   -0.4887 N   0  0  0  0  0  0  0  0  0  0  0  0
   10.0876   23.2481   -0.4865 H   0  0  0  0  0  0  0  0  0  0  0  0
 19 20  1  0  0  0
 20 21  2  0  0  0
 20 22  1  0  0  0
 22  1  1  0  0  0
  1  2  1  0  0  0
  2  3  2  0  0  0
  3 10  1  0  0  0
 10 11  2  0  0  0
 11 12  1  0  0  0
 12 13  2  0  0  0
 13 14  1  0  0  0
 14 15  2  0  0  0
 15 16  1  0  0  0
 13 17  1  0  0  0
 17 18  3  0  0  0
  3  4  1  0  0  0
  4  5  1  0  0  0
  5  6  2  0  0  0
  6  7  1  0  0  0
  7  8  2  0  0  0
  8  9  1  0  0  0
  9  1  2  0  0  0
 15 10  1  0  0  0
  8  4  1  0  0  0
 22 23  1  0  0  0
M  END
> <minimizedAffinity>
-8.35343

> <CNNscore>
0.6596568823

> <CNNaffinity>
7.0132379532

> <CNN_VS>
4.6263308525

> <CNNaffinity_variance>
0.2130487412

$$$$
[H]c1nc2c([H])c(N([H])C(=O)C([H])([H])[H])c([H])c(-c3c([H])c([H])c(C#N)c([H])c3C([H])([H])[H])n2n1


 23 25  0  0  0  0  0  0  0  0999 V2000
   16.0989   27.0744   -4.0097 C   0  0  0  0  0  0  0  0  0  0  0  0
   16.0381   25.9535   -3.1529 C   0  0  0  0  0  0  0  0  0  0  0  0
   14.8672   25.3862   -2.7305 C   0  0  0  0  0  0  0  0  0  0  0  0
   13.7328   25.9551   -3.1768 N   0  0  0  0  0  0  0  0  0  0  0  0
   12.4826   25.5884   -2.9086 N   0  0  0  0  0  0  0  0  0  0  0  0
   11.6998   26.4451   -3.5716 C   0  0  0  0  0  0  0  0  0  0  0  0
   12.4624   27.3412   -4.2495 N   0  0  0  0  0  0  0  0  0  0  0  0
   13.7405   27.0196   -3.9909 C   0  0  0  0  0  0  0  0  0  0  0  0
   14.9124   27.6149   -4.4346 C   0  0  0  0  0  0  0  0  0  0  0  0
   14.8770   24.2275   -1.8441 C   0  0  0  0  0  0  0  0  0  0  0  0
   14.5915   22.9983   -2.4408 C   0  0  0  0  0  0  0  0  0  0  0  0
   14.5721   21.8469   -1.7111 C   0  0  0  0  0  0  0  0  0  0  0  0
   14.8399   21.9086   -0.3637 C   0  0  0  0  0  0  0  0  0  0  0  0
   15.1248   23.1388    0.2301 C   0  0  0  0  0  0  0  0  0  0  0  0
   15.1449   24.3045   -0.5066 C   0  0  0  0  0  0  0  0  0  0  0  0
   15.4454   25.6121    0.1120 C   0  0  0  0  0  0  0  0  0  0  0  0
   14.8195   20.6922    0.4080 C   0  0  0  0  0  0  0  0  0  0  0  0
   14.8003   19.7095    1.0177 N   0  0  0  0  0  0  0  0  0  0  0  0
   19.7206   28.2990   -4.2495 C   0  0  0  0  0  0  0  0  0  0  0  0
   18.4813   27.6999   -3.5970 C   0  0  0  0  0  0  0  0  0  0  0  0
   18.6405   27.3706   -2.4005 O   0  0  0  0  0  0  0  0  0  0  0  0
   17.3427   27.5882   -4.3803 N   0  0  0  0  0  0  0  0  0  0  0  0
   17.4310   27.9366   -5.3911 H   0  0  0  0  0  0  0  0  0  0  0  0
 19 20  1  0  0  0
 20 21  2  0  0  0
 20 22  1  0  0  0
 22  1  1  0  0  0
  1  2  1  0  0  0
  2  3  2  0  0  0
  3 10  1  0  0  0
 10 11  2  0  0  0
 11 12  1  0  0  0
 12 13  2  0  0  0
 13 14  1  0  0  0
 14 15  2  0  0  0
 15 16  1  0  0  0
 13 17  1  0  0  0
 17 18  3  0  0  0
  3  4  1  0  0  0
  4  5  1  0  0  0
  5  6  2  0  0  0
  6  7  1  0  0  0
  7  8  2  0  0  0
  8  9  1  0  0  0
  9  1  2  0  0  0
 15 10  1  0  0  0
  8  4  1  0  0  0
 22 23  1  0  0  0
M  END
> <minimizedAffinity>
1.23731

> <CNNscore>
0.6145793200

> <CNNaffinity>
6.6169853210

> <CNN_VS>
4.0666623116

> <CNNaffinity_variance>
0.4215974212

$$$$
[H]c1nc2c([H])c(N([H])C(=O)C([H])([H])[H])c([H])c(-c3c([H])c([H])c(C#N)c([H])c3C([H])([H])[H])n2n1


 23 25  0  0  0  0  0  0  0  0999 V2000
   15.3728   25.6003   -5.5085 C   0  0  0  0  0  0  0  0  0  0  0  0
   15.4157   24.6774   -4.4406 C   0  0  0  0  0  0  0  0  0  0  0  0
   14.5780   24.7301   -3.3604 C   0  0  0  0  0  0  0  0  0  0  0  0
   13.6780   25.7298   -3.3508 N   0  0  0  0  0  0  0  0  0  0  0  0
   12.7646   25.9888   -2.4191 N   0  0  0  0  0  0  0  0  0  0  0  0
   12.1069   27.0724   -2.8427 C   0  0  0  0  0  0  0  0  0  0  0  0
   12.6108   27.4848   -4.0344 N   0  0  0  0  0  0  0  0  0  0  0  0
   13.5996   26.6293   -4.3412 C   0  0  0  0  0  0  0  0  0  0  0  0
   14.4360   26.5998   -5.4477 C   0  0  0  0  0  0  0  0  0  0  0  0
   14.6769   23.7428   -2.2909 C   0  0  0  0  0  0  0  0  0  0  0  0
   14.0588   22.5148   -2.5326 C   0  0  0  0  0  0  0  0  0  0  0  0
   14.0860   21.5161   -1.6051 C   0  0  0  0  0  0  0  0  0  0  0  0
   14.7368   21.7326   -0.4132 C   0  0  0  0  0  0  0  0  0  0  0  0
   15.3538   22.9612   -0.1742 C   0  0  0  0  0  0  0  0  0  0  0  0
   15.3272   23.9725   -1.1115 C   0  0  0  0  0  0  0  0  0  0  0  0
   15.9772   25.2769   -0.8688 C   0  0  0  0  0  0  0  0  0  0  0  0
   14.7659   20.6775    0.5674 C   0  0  0  0  0  0  0  0  0  0  0  0
   14.7782   19.8273    1.3514 N   0  0  0  0  0  0  0  0  0  0  0  0
   17.1718   25.2940   -8.8765 C   0  0  0  0  0  0  0  0  0  0  0  0
   15.9938   25.4451   -7.9225 C   0  0  0  0  0  0  0  0  0  0  0  0
   14.8823   25.5317   -8.4904 O   0  0  0  0  0  0  0  0  0  0  0  0
   16.2755   25.4696   -6.5651 N   0  0  0  0  0  0  0  0  0  0  0  0
   17.3105   25.3792   -6.2978 H   0  0  0  0  0  0  0  0  0  0  0  0
 19 20  1  0  0  0
 20 21  2  0  0  0
 20 22  1  0  0  0
 22  1  1  0  0  0
  1  2  1  0  0  0
  2  3  2  0  0  0
  3 10  1  0  0  0
 10 11  2  0  0  0
 11 12  1  0  0  0
 12 13  2  0  0  0
 13 14  1  0  0  0
 14 15  2  0  0  0
 15 16  1  0  0  0
 13 17  1  0  0  0
 17 18  3  0  0  0
  3  4  1  0  0  0
  4  5  1  0  0  0
  5  6  2  0  0  0
  6  7  1  0  0  0
  7  8  2  0  0  0
  8  9  1  0  0  0
  9  1  2  0  0  0
 15 10  1  0  0  0
  8  4  1  0  0  0
 22 23  1  0  0  0
M  END
> <minimizedAffinity>
-0.43415

> <CNNscore>
0.5849518776

> <CNNaffinity>
6.5957078934

> <CNN_VS>
3.8581717014

> <CNNaffinity_variance>
0.3064243197

$$$$
[H]c1nc2c([H])c(N([H])C(=O)C([H])([H])[H])c([H])c(-c3c([H])c([H])c(C#N)c([H])c3C([H])([H])[H])n2n1


 23 25  0  0  0  0  0  0  0  0999 V2000
   16.5619   26.5763   -3.2509 C   0  0  0  0  0  0  0  0  0  0  0  0
   16.0987   25.5269   -2.4272 C   0  0  0  0  0  0  0  0  0  0  0  0
   14.7794   25.1864   -2.3050 C   0  0  0  0  0  0  0  0  0  0  0  0
   13.9058   25.9139   -3.0241 N   0  0  0  0  0  0  0  0  0  0  0  0
   12.5837   25.7763   -3.0726 N   0  0  0  0  0  0  0  0  0  0  0  0
   12.1486   26.7171   -3.9165 C   0  0  0  0  0  0  0  0  0  0  0  0
   13.1982   27.4367   -4.3904 N   0  0  0  0  0  0  0  0  0  0  0  0
   14.2980   26.9189   -3.8192 C   0  0  0  0  0  0  0  0  0  0  0  0
   15.6284   27.2857   -3.9620 C   0  0  0  0  0  0  0  0  0  0  0  0
   14.3697   24.0895   -1.4349 C   0  0  0  0  0  0  0  0  0  0  0  0
   13.9293   24.4510   -0.1606 C   0  0  0  0  0  0  0  0  0  0  0  0
   13.5217   23.5109    0.7386 C   0  0  0  0  0  0  0  0  0  0  0  0
   13.5488   22.1854    0.3736 C   0  0  0  0  0  0  0  0  0  0  0  0
   13.9897   21.8268   -0.9009 C   0  0  0  0  0  0  0  0  0  0  0  0
   14.4024   22.7766   -1.8116 C   0  0  0  0  0  0  0  0  0  0  0  0
   14.8708   22.4080   -3.1635 C   0  0  0  0  0  0  0  0  0  0  0  0
   13.1182   21.1913    1.3234 C   0  0  0  0  0  0  0  0  0  0  0  0
   12.7646   20.4012    2.0904 N   0  0  0  0  0  0  0  0  0  0  0  0
   20.0599   28.0910   -3.6294 C   0  0  0  0  0  0  0  0  0  0  0  0
   18.5374   28.0499   -3.6552 C   0  0  0  0  0  0  0  0  0  0  0  0
   18.0013   29.1269   -3.9986 O   0  0  0  0  0  0  0  0  0  0  0  0
   17.9287   26.8545   -3.3043 N   0  0  0  0  0  0  0  0  0  0  0  0
   18.5881   26.0503   -3.0411 H   0  0  0  0  0  0  0  0  0  0  0  0
 19 20  1  0  0  0
 20 21  2  0  0  0
 20 22  1  0  0  0
 22  1  1  0  0  0
  1  2  1  0  0  0
  2  3  2  0  0  0
  3 10  1  0  0  0
 10 11  2  0  0  0
 11 12  1  0  0  0
 12 13  2  0  0  0
 13 14  1  0  0  0
 14 15  2  0  0  0
 15 16  1  0  0  0
 13 17  1  0  0  0
 17 18  3  0  0  0
  3  4  1  0  0  0
  4  5  1  0  0  0
  5  6  2  0  0  0
  6  7  1  0  0  0
  7  8  2  0  0  0
  8  9  1  0  0  0
  9  1  2  0  0  0
 15 10  1  0  0  0
  8  4  1  0  0  0
 22 23  1  0  0  0
M  END
> <minimizedAffinity>
-3.05056

> <CNNscore>
0.5568955541

> <CNNaffinity>
6.7221364975

> <CNN_VS>
3.7435278893

> <CNNaffinity_variance>
0.5639392138

$$$$
[H]c1nc2c([H])c(N([H])C(=O)C([H])([H])[H])c([H])c(-c3c([H])c([H])c(C#N)c([H])c3C([H])([H])[H])n2n1


 23 25  0  0  0  0  0  0  0  0999 V2000
   14.8215   21.9259   -3.8979 C   0  0  0  0  0  0  0  0  0  0  0  0
   15.0095   23.2339   -4.3956 C   0  0  0  0  0  0  0  0  0  0  0  0
   15.1898   24.3294   -3.5964 C   0  0  0  0  0  0  0  0  0  0  0  0
   15.1812   24.1085   -2.2695 N   0  0  0  0  0  0  0  0  0  0  0  0
   15.3346   25.0042   -1.2981 N   0  0  0  0  0  0  0  0  0  0  0  0
   15.2526   24.3196   -0.1530 C   0  0  0  0  0  0  0  0  0  0  0  0
   15.0489   23.0025   -0.4133 N   0  0  0  0  0  0  0  0  0  0  0  0
   15.0062   22.8853   -1.7506 C   0  0  0  0  0  0  0  0  0  0  0  0
   14.8212   21.7575   -2.5370 C   0  0  0  0  0  0  0  0  0  0  0  0
   15.3789   25.6539   -4.1779 C   0  0  0  0  0  0  0  0  0  0  0  0
   15.7082   26.6736   -3.2833 C   0  0  0  0  0  0  0  0  0  0  0  0
   15.9087   27.9519   -3.7126 C   0  0  0  0  0  0  0  0  0  0  0  0
   15.7818   28.2312   -5.0531 C   0  0  0  0  0  0  0  0  0  0  0  0
   15.4523   27.2099   -5.9451 C   0  0  0  0  0  0  0  0  0  0  0  0
   15.2492   25.9162   -5.5125 C   0  0  0  0  0  0  0  0  0  0  0  0
   14.9002   24.8275   -6.4482 C   0  0  0  0  0  0  0  0  0  0  0  0
   15.9935   29.5819   -5.5074 C   0  0  0  0  0  0  0  0  0  0  0  0
   16.1587   30.6703   -5.8619 N   0  0  0  0  0  0  0  0  0  0  0  0
   13.5179   19.1285   -6.1671 C   0  0  0  0  0  0  0  0  0  0  0  0
   13.4434   20.2684   -5.1593 C   0  0  0  0  0  0  0  0  0  0  0  0
   12.2842   20.5339   -4.7707 O   0  0  0  0  0  0  0  0  0  0  0  0
   14.6373   20.8709   -4.7931 N   0  0  0  0  0  0  0  0  0  0  0  0
   15.5229   20.4795   -5.2552 H   0  0  0  0  0  0  0  0  0  0  0  0
 19 20  1  0  0  0
 20 21  2  0  0  0
 20 22  1  0  0  0
 22  1  1  0  0  0
  1  2  1  0  0  0
  2  3  2  0  0  0
  3 10  1  0  0  0
 10 11  2  0  0  0
 11 12  1  0  0  0
 12 13  2  0  0  0
 13 14  1  0  0  0
 14 15  2  0  0  0
 15 16  1  0  0  0
 13 17  1  0  0  0
 17 18  3  0  0  0
  3  4  1  0  0  0
  4  5  1  0  0  0
  5  6  2  0  0  0
  6  7  1  0  0  0
  7  8  2  0  0  0
  8  9  1  0  0  0
  9  1  2  0  0  0
 15 10  1  0  0  0
  8  4  1  0  0  0
 22 23  1  0  0  0
M  END
> <minimizedAffinity>
13.27179

> <CNNscore>
0.4958816171

> <CNNaffinity>
6.3713159561

> <CNN_VS>
3.1594183445

> <CNNaffinity_variance>
0.6782014966

$$$$
[H]c1nc2c([H])c(N([H])C([H])([H])C([H])([H])C(F)(F)F)c([H])c(-c3c([H])c([H])c(C#N)c(F)c3[H])n2n1


 26 28  0  0  0  0  0  0  0  0999 V2000
   13.4460   24.7287   -1.8015 C   0  0  0  0  0  0  0  0  0  0  0  0
   12.1104   24.5164   -1.5978 C   0  0  0  0  0  0  0  0  0  0  0  0
   11.6275   24.1583   -0.3685 C   0  0  0  0  0  0  0  0  0  0  0  0
   12.5154   24.0142    0.6682 C   0  0  0  0  0  0  0  0  0  0  0  0
   13.8770   24.2293    0.4662 C   0  0  0  0  0  0  0  0  0  0  0  0
   14.9345   24.1599    1.2807 N   0  0  0  0  0  0  0  0  0  0  0  0
   16.0139   24.4693    0.5501 C   0  0  0  0  0  0  0  0  0  0  0  0
   15.5951   24.7214   -0.6953 N   0  0  0  0  0  0  0  0  0  0  0  0
   14.2908   24.5735   -0.7406 N   0  0  0  0  0  0  0  0  0  0  0  0
   16.3104   23.8688   -5.6298 F   0  0  0  0  0  0  0  0  0  0  0  0
   15.4230   24.6856   -5.0142 C   0  0  0  0  0  0  0  0  0  0  0  0
   14.9063   24.3227   -3.7866 C   0  0  0  0  0  0  0  0  0  0  0  0
   13.9924   25.1110   -3.0979 C   0  0  0  0  0  0  0  0  0  0  0  0
   13.6088   26.2929   -3.6907 C   0  0  0  0  0  0  0  0  0  0  0  0
   14.0991   26.6953   -4.9156 C   0  0  0  0  0  0  0  0  0  0  0  0
   15.0047   25.8839   -5.5668 C   0  0  0  0  0  0  0  0  0  0  0  0
   15.5546   26.2400   -6.8420 C   0  0  0  0  0  0  0  0  0  0  0  0
   16.0155   26.5231   -7.8690 N   0  0  0  0  0  0  0  0  0  0  0  0
   10.2454   23.9277   -0.1131 N   0  0  0  0  0  0  0  0  0  0  0  0
    9.6472   24.6393    0.3713 H   0  0  0  0  0  0  0  0  0  0  0  0
    9.6325   22.6971   -0.5335 C   0  0  0  0  0  0  0  0  0  0  0  0
    9.8935   21.5090    0.3084 C   0  0  0  0  0  0  0  0  0  0  0  0
   11.0656   20.6639   -0.0517 C   0  0  0  0  0  0  0  0  0  0  0  0
   12.0533   20.5691    0.8821 F   0  0  0  0  0  0  0  0  0  0  0  0
   10.5654   19.3601   -0.2108 F   0  0  0  0  0  0  0  0  0  0  0  0
   11.5756   20.9912   -1.2975 F   0  0  0  0  0  0  0  0  0  0  0  0
 10 11  1  0  0  0
 11 12  2  0  0  0
 12 13  1  0  0  0
 13 14  2  0  0  0
 14 15  1  0  0  0
 15 16  2  0  0  0
 16 17  1  0  0  0
 17 18  3  0  0  0
 13  1  1  0  0  0
  1  2  2  0  0  0
  2  3  1  0  0  0
  3 19  1  0  0  0
 19 21  1  0  0  0
 21 22  1  0  0  0
 22 23  1  0  0  0
 23 24  1  0  0  0
 23 25  1  0  0  0
 23 26  1  0  0  0
  3  4  2  0  0  0
  4  5  1  0  0  0
  5  6  2  0  0  0
  6  7  1  0  0  0
  7  8  2  0  0  0
  8  9  1  0  0  0
 16 11  1  0  0  0
  9  1  1  0  0  0
  9  5  1  0  0  0
 19 20  1  0  0  0
M  END
> <minimizedAffinity>
-7.96520

> <CNNscore>
0.7294843793

> <CNNaffinity>
7.6032676697

> <CNN_VS>
5.5464649200

> <CNNaffinity_variance>
0.3605943620

$$$$
[H]c1nc2c([H])c(N([H])C([H])([H])C([H])([H])C(F)(F)F)c([H])c(-c3c([H])c([H])c(C#N)c(F)c3[H])n2n1


 26 28  0  0  0  0  0  0  0  0999 V2000
   13.3883   24.7045   -1.9391 C   0  0  0  0  0  0  0  0  0  0  0  0
   12.0353   24.6006   -1.7689 C   0  0  0  0  0  0  0  0  0  0  0  0
   11.4931   24.3191   -0.5444 C   0  0  0  0  0  0  0  0  0  0  0  0
   12.3388   24.1409    0.5220 C   0  0  0  0  0  0  0  0  0  0  0  0
   13.7179   24.2456    0.3540 C   0  0  0  0  0  0  0  0  0  0  0  0
   14.7444   24.1219    1.2011 N   0  0  0  0  0  0  0  0  0  0  0  0
   15.8639   24.3254    0.4939 C   0  0  0  0  0  0  0  0  0  0  0  0
   15.4996   24.5691   -0.7703 N   0  0  0  0  0  0  0  0  0  0  0  0
   14.1895   24.5192   -0.8497 N   0  0  0  0  0  0  0  0  0  0  0  0
   13.8395   27.5063   -5.8820 F   0  0  0  0  0  0  0  0  0  0  0  0
   14.2268   26.4007   -5.2028 C   0  0  0  0  0  0  0  0  0  0  0  0
   13.6492   26.1189   -3.9810 C   0  0  0  0  0  0  0  0  0  0  0  0
   13.9974   25.0031   -3.2295 C   0  0  0  0  0  0  0  0  0  0  0  0
   14.9585   24.1674   -3.7525 C   0  0  0  0  0  0  0  0  0  0  0  0
   15.5620   24.4098   -4.9690 C   0  0  0  0  0  0  0  0  0  0  0  0
   15.1881   25.5285   -5.6840 C   0  0  0  0  0  0  0  0  0  0  0  0
   15.7738   25.8415   -6.9545 C   0  0  0  0  0  0  0  0  0  0  0  0
   16.2404   26.1105   -7.9827 N   0  0  0  0  0  0  0  0  0  0  0  0
   10.0909   24.2022   -0.3232 N   0  0  0  0  0  0  0  0  0  0  0  0
    9.3996   24.8025   -0.8335 H   0  0  0  0  0  0  0  0  0  0  0  0
    9.5894   23.2326    0.6123 C   0  0  0  0  0  0  0  0  0  0  0  0
    8.6790   23.7389    1.6625 C   0  0  0  0  0  0  0  0  0  0  0  0
    9.3006   24.2287    2.9240 C   0  0  0  0  0  0  0  0  0  0  0  0
    8.5345   24.1473    4.0478 F   0  0  0  0  0  0  0  0  0  0  0  0
   10.4076   23.3947    3.1565 F   0  0  0  0  0  0  0  0  0  0  0  0
    9.8476   25.4927    2.7739 F   0  0  0  0  0  0  0  0  0  0  0  0
 10 11  1  0  0  0
 11 12  2  0  0  0
 12 13  1  0  0  0
 13 14  2  0  0  0
 14 15  1  0  0  0
 15 16  2  0  0  0
 16 17  1  0  0  0
 17 18  3  0  0  0
 13  1  1  0  0  0
  1  2  2  0  0  0
  2  3  1  0  0  0
  3 19  1  0  0  0
 19 21  1  0  0  0
 21 22  1  0  0  0
 22 23  1  0  0  0
 23 24  1  0  0  0
 23 25  1  0  0  0
 23 26  1  0  0  0
  3  4  2  0  0  0
  4  5  1  0  0  0
  5  6  2  0  0  0
  6  7  1  0  0  0
  7  8  2  0  0  0
  8  9  1  0  0  0
 16 11  1  0  0  0
  9  1  1  0  0  0
  9  5  1  0  0  0
 19 20  1  0  0  0
M  END
> <minimizedAffinity>
-7.98234

> <CNNscore>
0.7024880052

> <CNNaffinity>
7.3008255959

> <CNN_VS>
5.1287422180

> <CNNaffinity_variance>
0.2173610032

$$$$
[H]c1nc2c([H])c(N([H])C([H])([H])C([H])([H])C(F)(F)F)c([H])c(-c3c([H])c([H])c(C#N)c(F)c3[H])n2n1


 26 28  0  0  0  0  0  0  0  0999 V2000
   12.4550   23.6151   -1.1926 C   0  0  0  0  0  0  0  0  0  0  0  0
   11.0971   23.6159   -1.0304 C   0  0  0  0  0  0  0  0  0  0  0  0
   10.4927   22.8178   -0.0974 C   0  0  0  0  0  0  0  0  0  0  0  0
   11.2806   22.0076    0.6816 C   0  0  0  0  0  0  0  0  0  0  0  0
   12.6644   22.0028    0.5204 C   0  0  0  0  0  0  0  0  0  0  0  0
   13.6439   21.3280    1.1302 N   0  0  0  0  0  0  0  0  0  0  0  0
   14.7970   21.7184    0.5709 C   0  0  0  0  0  0  0  0  0  0  0  0
   14.4995   22.6232   -0.3688 N   0  0  0  0  0  0  0  0  0  0  0  0
   13.1973   22.7927   -0.3951 N   0  0  0  0  0  0  0  0  0  0  0  0
   15.9915   24.3521   -4.4408 F   0  0  0  0  0  0  0  0  0  0  0  0
   14.8958   24.8263   -3.8017 C   0  0  0  0  0  0  0  0  0  0  0  0
   14.2579   24.0321   -2.8700 C   0  0  0  0  0  0  0  0  0  0  0  0
   13.1296   24.4529   -2.1766 C   0  0  0  0  0  0  0  0  0  0  0  0
   12.6560   25.7157   -2.4533 C   0  0  0  0  0  0  0  0  0  0  0  0
   13.2613   26.5433   -3.3759 C   0  0  0  0  0  0  0  0  0  0  0  0
   14.3794   26.0877   -4.0430 C   0  0  0  0  0  0  0  0  0  0  0  0
   15.0584   26.8944   -5.0143 C   0  0  0  0  0  0  0  0  0  0  0  0
   15.6150   27.5568   -5.7880 N   0  0  0  0  0  0  0  0  0  0  0  0
    9.0831   22.7878    0.1042 N   0  0  0  0  0  0  0  0  0  0  0  0
    8.4661   23.5821   -0.1911 H   0  0  0  0  0  0  0  0  0  0  0  0
    8.4691   21.6413    0.7168 C   0  0  0  0  0  0  0  0  0  0  0  0
    7.6343   20.7924   -0.1613 C   0  0  0  0  0  0  0  0  0  0  0  0
    8.3431   19.9128   -1.1316 C   0  0  0  0  0  0  0  0  0  0  0  0
    8.7449   20.4958   -2.2957 F   0  0  0  0  0  0  0  0  0  0  0  0
    9.5211   19.4990   -0.4864 F   0  0  0  0  0  0  0  0  0  0  0  0
    7.6485   18.7374   -1.3668 F   0  0  0  0  0  0  0  0  0  0  0  0
 10 11  1  0  0  0
 11 12  2  0  0  0
 12 13  1  0  0  0
 13 14  2  0  0  0
 14 15  1  0  0  0
 15 16  2  0  0  0
 16 17  1  0  0  0
 17 18  3  0  0  0
 13  1  1  0  0  0
  1  2  2  0  0  0
  2  3  1  0  0  0
  3 19  1  0  0  0
 19 21  1  0  0  0
 21 22  1  0  0  0
 22 23  1  0  0  0
 23 24  1  0  0  0
 23 25  1  0  0  0
 23 26  1  0  0  0
  3  4  2  0  0  0
  4  5  1  0  0  0
  5  6  2  0  0  0
  6  7  1  0  0  0
  7  8  2  0  0  0
  8  9  1  0  0  0
 16 11  1  0  0  0
  9  1  1  0  0  0
  9  5  1  0  0  0
 19 20  1  0  0  0
M  END
> <minimizedAffinity>
-8.45071

> <CNNscore>
0.6527056694

> <CNNaffinity>
7.4313569069

> <CNN_VS>
4.8504886627

> <CNNaffinity_variance>
0.5592938662

$$$$
[H]c1nc2c([H])c(N([H])C([H])([H])C([H])([H])C(F)(F)F)c([H])c(-c3c([H])c([H])c(C#N)c(F)c3[H])n2n1


 26 28  0  0  0  0  0  0  0  0999 V2000
   12.5721   23.3510   -1.1866 C   0  0  0  0  0  0  0  0  0  0  0  0
   11.2122   23.2521   -1.0802 C   0  0  0  0  0  0  0  0  0  0  0  0
   10.6302   22.3994   -0.1820 C   0  0  0  0  0  0  0  0  0  0  0  0
   11.4428   21.6365    0.6192 C   0  0  0  0  0  0  0  0  0  0  0  0
   12.8286   21.7333    0.5148 C   0  0  0  0  0  0  0  0  0  0  0  0
   13.8291   21.1218    1.1564 N   0  0  0  0  0  0  0  0  0  0  0  0
   14.9724   21.6019    0.6493 C   0  0  0  0  0  0  0  0  0  0  0  0
   14.6482   22.4965   -0.2913 N   0  0  0  0  0  0  0  0  0  0  0  0
   13.3393   22.5725   -0.3690 N   0  0  0  0  0  0  0  0  0  0  0  0
   12.7718   27.5570   -3.6096 F   0  0  0  0  0  0  0  0  0  0  0  0
   13.3276   26.3505   -3.3462 C   0  0  0  0  0  0  0  0  0  0  0  0
   12.7101   25.5008   -2.4504 C   0  0  0  0  0  0  0  0  0  0  0  0
   13.2232   24.2491   -2.1325 C   0  0  0  0  0  0  0  0  0  0  0  0
   14.3935   23.8731   -2.7525 C   0  0  0  0  0  0  0  0  0  0  0  0
   15.0445   24.6895   -3.6539 C   0  0  0  0  0  0  0  0  0  0  0  0
   14.5022   25.9246   -3.9422 C   0  0  0  0  0  0  0  0  0  0  0  0
   15.1254   26.8236   -4.8688 C   0  0  0  0  0  0  0  0  0  0  0  0
   15.6305   27.5637   -5.6067 N   0  0  0  0  0  0  0  0  0  0  0  0
    9.2195   22.2654   -0.0386 N   0  0  0  0  0  0  0  0  0  0  0  0
    8.6197   21.8865   -0.8103 H   0  0  0  0  0  0  0  0  0  0  0  0
    8.5834   22.6432    1.1939 C   0  0  0  0  0  0  0  0  0  0  0  0
    8.5703   24.0876    1.5136 C   0  0  0  0  0  0  0  0  0  0  0  0
    9.6063   24.5845    2.4609 C   0  0  0  0  0  0  0  0  0  0  0  0
   10.1478   23.6617    3.3045 F   0  0  0  0  0  0  0  0  0  0  0  0
   10.6694   25.0415    1.6632 F   0  0  0  0  0  0  0  0  0  0  0  0
    9.1819   25.7109    3.1467 F   0  0  0  0  0  0  0  0  0  0  0  0
 10 11  1  0  0  0
 11 12  2  0  0  0
 12 13  1  0  0  0
 13 14  2  0  0  0
 14 15  1  0  0  0
 15 16  2  0  0  0
 16 17  1  0  0  0
 17 18  3  0  0  0
 13  1  1  0  0  0
  1  2  2  0  0  0
  2  3  1  0  0  0
  3 19  1  0  0  0
 19 21  1  0  0  0
 21 22  1  0  0  0
 22 23  1  0  0  0
 23 24  1  0  0  0
 23 25  1  0  0  0
 23 26  1  0  0  0
  3  4  2  0  0  0
  4  5  1  0  0  0
  5  6  2  0  0  0
  6  7  1  0  0  0
  7  8  2  0  0  0
  8  9  1  0  0  0
 16 11  1  0  0  0
  9  1  1  0  0  0
  9  5  1  0  0  0
 19 20  1  0  0  0
M  END
> <minimizedAffinity>
-8.64689

> <CNNscore>
0.6034282446

> <CNNaffinity>
7.3877439499

> <CNN_VS>
4.4579734802

> <CNNaffinity_variance>
0.4537034035

$$$$
[H]c1nc2c([H])c(N([H])C([H])([H])C([H])([H])C(F)(F)F)c([H])c(-c3c([H])c([H])c(C#N)c(F)c3[H])n2n1


 26 28  0  0  0  0  0  0  0  0999 V2000
   14.0871   23.8535   -1.2605 C   0  0  0  0  0  0  0  0  0  0  0  0
   12.8827   23.2057   -1.2655 C   0  0  0  0  0  0  0  0  0  0  0  0
   12.5958   22.2325   -0.3472 C   0  0  0  0  0  0  0  0  0  0  0  0
   13.5474   21.9137    0.5893 C   0  0  0  0  0  0  0  0  0  0  0  0
   14.7760   22.5706    0.5987 C   0  0  0  0  0  0  0  0  0  0  0  0
   15.8552   22.4595    1.3795 N   0  0  0  0  0  0  0  0  0  0  0  0
   16.7558   23.3451    0.9329 C   0  0  0  0  0  0  0  0  0  0  0  0
   16.2096   23.9792   -0.1111 N   0  0  0  0  0  0  0  0  0  0  0  0
   15.0019   23.5026   -0.3103 N   0  0  0  0  0  0  0  0  0  0  0  0
   12.7922   27.4248   -4.2887 F   0  0  0  0  0  0  0  0  0  0  0  0
   13.7814   26.6807   -3.7395 C   0  0  0  0  0  0  0  0  0  0  0  0
   13.4615   25.6954   -2.8271 C   0  0  0  0  0  0  0  0  0  0  0  0
   14.4237   24.8943   -2.2243 C   0  0  0  0  0  0  0  0  0  0  0  0
   15.7367   25.1183   -2.5726 C   0  0  0  0  0  0  0  0  0  0  0  0
   16.1022   26.0914   -3.4794 C   0  0  0  0  0  0  0  0  0  0  0  0
   15.1164   26.8653   -4.0554 C   0  0  0  0  0  0  0  0  0  0  0  0
   15.4246   27.8941   -5.0051 C   0  0  0  0  0  0  0  0  0  0  0  0
   15.6869   28.7326   -5.7637 N   0  0  0  0  0  0  0  0  0  0  0  0
   11.3552   21.5335   -0.3168 N   0  0  0  0  0  0  0  0  0  0  0  0
   11.2059   20.7005    0.3019 H   0  0  0  0  0  0  0  0  0  0  0  0
   10.2621   21.9735   -1.1402 C   0  0  0  0  0  0  0  0  0  0  0  0
    9.4739   20.9161   -1.8103 C   0  0  0  0  0  0  0  0  0  0  0  0
    8.5758   20.0914   -0.9553 C   0  0  0  0  0  0  0  0  0  0  0  0
    9.1299   18.9838   -0.3872 F   0  0  0  0  0  0  0  0  0  0  0  0
    8.1967   20.9194    0.1152 F   0  0  0  0  0  0  0  0  0  0  0  0
    7.3850   19.7905   -1.5962 F   0  0  0  0  0  0  0  0  0  0  0  0
 10 11  1  0  0  0
 11 12  2  0  0  0
 12 13  1  0  0  0
 13 14  2  0  0  0
 14 15  1  0  0  0
 15 16  2  0  0  0
 16 17  1  0  0  0
 17 18  3  0  0  0
 13  1  1  0  0  0
  1  2  2  0  0  0
  2  3  1  0  0  0
  3 19  1  0  0  0
 19 21  1  0  0  0
 21 22  1  0  0  0
 22 23  1  0  0  0
 23 24  1  0  0  0
 23 25  1  0  0  0
 23 26  1  0  0  0
  3  4  2  0  0  0
  4  5  1  0  0  0
  5  6  2  0  0  0
  6  7  1  0  0  0
  7  8  2  0  0  0
  8  9  1  0  0  0
 16 11  1  0  0  0
  9  1  1  0  0  0
  9  5  1  0  0  0
 19 20  1  0  0  0
M  END
> <minimizedAffinity>
-5.81180

> <CNNscore>
0.6010598540

> <CNNaffinity>
7.3922233582

> <CNN_VS>
4.4431686401

> <CNNaffinity_variance>
0.6148927808

$$$$
[H]c1nc2c([H])c(N([H])C([H])([H])C([H])([H])C(F)(F)F)c([H])c(-c3c([H])c([H])c(C#N)c(F)c3[H])n2n1


 26 28  0  0  0  0  0  0  0  0999 V2000
   12.4626   23.3686   -1.1022 C   0  0  0  0  0  0  0  0  0  0  0  0
   11.1040   23.3065   -0.9588 C   0  0  0  0  0  0  0  0  0  0  0  0
   10.5230   22.4555   -0.0583 C   0  0  0  0  0  0  0  0  0  0  0  0
   11.3353   21.6566    0.7072 C   0  0  0  0  0  0  0  0  0  0  0  0
   12.7200   21.7159    0.5650 C   0  0  0  0  0  0  0  0  0  0  0  0
   13.7199   21.0655    1.1680 N   0  0  0  0  0  0  0  0  0  0  0  0
   14.8620   21.5216    0.6365 C   0  0  0  0  0  0  0  0  0  0  0  0
   14.5376   22.4408   -0.2800 N   0  0  0  0  0  0  0  0  0  0  0  0
   13.2297   22.5551   -0.3193 N   0  0  0  0  0  0  0  0  0  0  0  0
   15.9604   24.3254   -4.3350 F   0  0  0  0  0  0  0  0  0  0  0  0
   14.8594   24.7470   -3.6688 C   0  0  0  0  0  0  0  0  0  0  0  0
   14.2448   23.8985   -2.7699 C   0  0  0  0  0  0  0  0  0  0  0  0
   13.1127   24.2638   -2.0516 C   0  0  0  0  0  0  0  0  0  0  0  0
   12.6108   25.5274   -2.2685 C   0  0  0  0  0  0  0  0  0  0  0  0
   13.1922   26.4081   -3.1567 C   0  0  0  0  0  0  0  0  0  0  0  0
   14.3150   26.0068   -3.8502 C   0  0  0  0  0  0  0  0  0  0  0  0
   14.9701   26.8703   -4.7883 C   0  0  0  0  0  0  0  0  0  0  0  0
   15.4880   27.5812   -5.5459 N   0  0  0  0  0  0  0  0  0  0  0  0
    9.1136   22.3592    0.1229 N   0  0  0  0  0  0  0  0  0  0  0  0
    8.4810   22.0172   -0.6398 H   0  0  0  0  0  0  0  0  0  0  0  0
    8.5243   22.7246    1.3822 C   0  0  0  0  0  0  0  0  0  0  0  0
    8.5125   24.1669    1.7110 C   0  0  0  0  0  0  0  0  0  0  0  0
    9.6385   24.6864    2.5357 C   0  0  0  0  0  0  0  0  0  0  0  0
    9.3110   25.5716    3.5183 F   0  0  0  0  0  0  0  0  0  0  0  0
   10.1802   23.5693    3.1943 F   0  0  0  0  0  0  0  0  0  0  0  0
   10.6774   25.1609    1.7516 F   0  0  0  0  0  0  0  0  0  0  0  0
 10 11  1  0  0  0
 11 12  2  0  0  0
 12 13  1  0  0  0
 13 14  2  0  0  0
 14 15  1  0  0  0
 15 16  2  0  0  0
 16 17  1  0  0  0
 17 18  3  0  0  0
 13  1  1  0  0  0
  1  2  2  0  0  0
  2  3  1  0  0  0
  3 19  1  0  0  0
 19 21  1  0  0  0
 21 22  1  0  0  0
 22 23  1  0  0  0
 23 24  1  0  0  0
 23 25  1  0  0  0
 23 26  1  0  0  0
  3  4  2  0  0  0
  4  5  1  0  0  0
  5  6  2  0  0  0
  6  7  1  0  0  0
  7  8  2  0  0  0
  8  9  1  0  0  0
 16 11  1  0  0  0
  9  1  1  0  0  0
  9  5  1  0  0  0
 19 20  1  0  0  0
M  END
> <minimizedAffinity>
-8.72552

> <CNNscore>
0.5271642208

> <CNNaffinity>
7.2873678207

> <CNN_VS>
3.8416395187

> <CNNaffinity_variance>
0.3794067502

$$$$
[H]c1nc2c([H])c(N([H])C([H])([H])C([H])([H])C(F)(F)F)c([H])c(-c3c([H])c([H])c(C#N)c(F)c3[H])n2n1


 26 28  0  0  0  0  0  0  0  0999 V2000
   13.9620   24.4698   -1.5489 C   0  0  0  0  0  0  0  0  0  0  0  0
   12.6818   23.9964   -1.4644 C   0  0  0  0  0  0  0  0  0  0  0  0
   12.3042   23.1445   -0.4622 C   0  0  0  0  0  0  0  0  0  0  0  0
   13.2420   22.7689    0.4671 C   0  0  0  0  0  0  0  0  0  0  0  0
   14.5476   23.2482    0.3856 C   0  0  0  0  0  0  0  0  0  0  0  0
   15.6333   23.0482    1.1390 N   0  0  0  0  0  0  0  0  0  0  0  0
   16.6263   23.7642    0.5949 C   0  0  0  0  0  0  0  0  0  0  0  0
   16.1281   24.3870   -0.4795 N   0  0  0  0  0  0  0  0  0  0  0  0
   14.8597   24.0685   -0.6021 N   0  0  0  0  0  0  0  0  0  0  0  0
   17.3772   27.1907   -3.6784 F   0  0  0  0  0  0  0  0  0  0  0  0
   16.1002   26.7399   -3.6718 C   0  0  0  0  0  0  0  0  0  0  0  0
   15.6902   25.8799   -2.6728 C   0  0  0  0  0  0  0  0  0  0  0  0
   14.3962   25.3781   -2.6033 C   0  0  0  0  0  0  0  0  0  0  0  0
   13.5146   25.7739   -3.5839 C   0  0  0  0  0  0  0  0  0  0  0  0
   13.8806   26.6313   -4.6006 C   0  0  0  0  0  0  0  0  0  0  0  0
   15.1749   27.1071   -4.6337 C   0  0  0  0  0  0  0  0  0  0  0  0
   15.6233   28.0008   -5.6609 C   0  0  0  0  0  0  0  0  0  0  0  0
   15.9707   28.7317   -6.4931 N   0  0  0  0  0  0  0  0  0  0  0  0
   10.9827   22.6283   -0.3372 N   0  0  0  0  0  0  0  0  0  0  0  0
   10.3670   22.4790   -1.1723 H   0  0  0  0  0  0  0  0  0  0  0  0
   10.4648   22.2853    0.9593 C   0  0  0  0  0  0  0  0  0  0  0  0
   10.6632   20.8872    1.4000 C   0  0  0  0  0  0  0  0  0  0  0  0
   11.5008   20.6677    2.6117 C   0  0  0  0  0  0  0  0  0  0  0  0
   12.7374   20.1347    2.4044 F   0  0  0  0  0  0  0  0  0  0  0  0
   11.7225   21.9418    3.1620 F   0  0  0  0  0  0  0  0  0  0  0  0
   10.8120   19.9817    3.5987 F   0  0  0  0  0  0  0  0  0  0  0  0
 10 11  1  0  0  0
 11 12  2  0  0  0
 12 13  1  0  0  0
 13 14  2  0  0  0
 14 15  1  0  0  0
 15 16  2  0  0  0
 16 17  1  0  0  0
 17 18  3  0  0  0
 13  1  1  0  0  0
  1  2  2  0  0  0
  2  3  1  0  0  0
  3 19  1  0  0  0
 19 21  1  0  0  0
 21 22  1  0  0  0
 22 23  1  0  0  0
 23 24  1  0  0  0
 23 25  1  0  0  0
 23 26  1  0  0  0
  3  4  2  0  0  0
  4  5  1  0  0  0
  5  6  2  0  0  0
  6  7  1  0  0  0
  7  8  2  0  0  0
  8  9  1  0  0  0
 16 11  1  0  0  0
  9  1  1  0  0  0
  9  5  1  0  0  0
 19 20  1  0  0  0
M  END
> <minimizedAffinity>
-6.37735

> <CNNscore>
0.5175738335

> <CNNaffinity>
7.2955284119

> <CNN_VS>
3.7759745121

> <CNNaffinity_variance>
0.5687099695

$$$$
[H]c1nc2c([H])c(N([H])C([H])([H])C([H])([H])C(F)(F)F)c([H])c(-c3c([H])c([H])c(C#N)c(F)c3[H])n2n1


 26 28  0  0  0  0  0  0  0  0999 V2000
   13.9861   25.1076   -1.5511 C   0  0  0  0  0  0  0  0  0  0  0  0
   12.6580   24.8934   -1.3052 C   0  0  0  0  0  0  0  0  0  0  0  0
   12.2293   24.3937   -0.1055 C   0  0  0  0  0  0  0  0  0  0  0  0
   13.1647   24.1078    0.8576 C   0  0  0  0  0  0  0  0  0  0  0  0
   14.5190   24.3241    0.6121 C   0  0  0  0  0  0  0  0  0  0  0  0
   15.6141   24.1371    1.3552 N   0  0  0  0  0  0  0  0  0  0  0  0
   16.6623   24.5170    0.6124 C   0  0  0  0  0  0  0  0  0  0  0  0
   16.1873   24.9283   -0.5689 N   0  0  0  0  0  0  0  0  0  0  0  0
   14.8793   24.8083   -0.5633 N   0  0  0  0  0  0  0  0  0  0  0  0
   17.4226   27.2862   -4.2053 F   0  0  0  0  0  0  0  0  0  0  0  0
   16.1903   26.7275   -4.1490 C   0  0  0  0  0  0  0  0  0  0  0  0
   15.7281   26.2250   -2.9491 C   0  0  0  0  0  0  0  0  0  0  0  0
   14.4753   25.6386   -2.8176 C   0  0  0  0  0  0  0  0  0  0  0  0
   13.6903   25.5722   -3.9467 C   0  0  0  0  0  0  0  0  0  0  0  0
   14.1112   26.0612   -5.1659 C   0  0  0  0  0  0  0  0  0  0  0  0
   15.3619   26.6360   -5.2542 C   0  0  0  0  0  0  0  0  0  0  0  0
   15.8630   27.1644   -6.4891 C   0  0  0  0  0  0  0  0  0  0  0  0
   16.2528   27.5970   -7.4932 N   0  0  0  0  0  0  0  0  0  0  0  0
   10.8569   24.1558    0.1920 N   0  0  0  0  0  0  0  0  0  0  0  0
   10.0867   24.6161   -0.3499 H   0  0  0  0  0  0  0  0  0  0  0  0
   10.4974   23.2542    1.2525 C   0  0  0  0  0  0  0  0  0  0  0  0
   11.1335   21.9188    1.2269 C   0  0  0  0  0  0  0  0  0  0  0  0
   10.6322   20.9453    0.2177 C   0  0  0  0  0  0  0  0  0  0  0  0
   10.2791   19.7155    0.6860 F   0  0  0  0  0  0  0  0  0  0  0  0
    9.4546   21.5060   -0.3059 F   0  0  0  0  0  0  0  0  0  0  0  0
   11.4813   20.8478   -0.8727 F   0  0  0  0  0  0  0  0  0  0  0  0
 10 11  1  0  0  0
 11 12  2  0  0  0
 12 13  1  0  0  0
 13 14  2  0  0  0
 14 15  1  0  0  0
 15 16  2  0  0  0
 16 17  1  0  0  0
 17 18  3  0  0  0
 13  1  1  0  0  0
  1  2  2  0  0  0
  2  3  1  0  0  0
  3 19  1  0  0  0
 19 21  1  0  0  0
 21 22  1  0  0  0
 22 23  1  0  0  0
 23 24  1  0  0  0
 23 25  1  0  0  0
 23 26  1  0  0  0
  3  4  2  0  0  0
  4  5  1  0  0  0
  5  6  2  0  0  0
  6  7  1  0  0  0
  7  8  2  0  0  0
  8  9  1  0  0  0
 16 11  1  0  0  0
  9  1  1  0  0  0
  9  5  1  0  0  0
 19 20  1  0  0  0
M  END
> <minimizedAffinity>
-5.02083

> <CNNscore>
0.5081744194

> <CNNaffinity>
7.0759100914

> <CNN_VS>
3.5957965851

> <CNNaffinity_variance>
0.3484731317

$$$$
[H]c1nc2c([H])c(N([H])C([H])([H])C([H])([H])C(F)(F)F)c([H])c(-c3c([H])c([H])c(C#N)c(F)c3[H])n2n1


 26 28  0  0  0  0  0  0  0  0999 V2000
   14.8065   26.0584   -4.2478 C   0  0  0  0  0  0  0  0  0  0  0  0
   14.7824   27.3666   -3.8501 C   0  0  0  0  0  0  0  0  0  0  0  0
   15.1850   28.3711   -4.6876 C   0  0  0  0  0  0  0  0  0  0  0  0
   15.6183   28.0404   -5.9474 C   0  0  0  0  0  0  0  0  0  0  0  0
   15.6448   26.7092   -6.3576 C   0  0  0  0  0  0  0  0  0  0  0  0
   16.0113   26.1222   -7.5011 N   0  0  0  0  0  0  0  0  0  0  0  0
   15.8293   24.8045   -7.3419 C   0  0  0  0  0  0  0  0  0  0  0  0
   15.3557   24.6126   -6.1054 N   0  0  0  0  0  0  0  0  0  0  0  0
   15.2452   25.7780   -5.5096 N   0  0  0  0  0  0  0  0  0  0  0  0
   15.2871   21.5176   -2.5891 F   0  0  0  0  0  0  0  0  0  0  0  0
   14.6206   22.6957   -2.5479 C   0  0  0  0  0  0  0  0  0  0  0  0
   15.0211   23.7301   -3.3696 C   0  0  0  0  0  0  0  0  0  0  0  0
   14.3845   24.9652   -3.3805 C   0  0  0  0  0  0  0  0  0  0  0  0
   13.3170   25.1301   -2.5268 C   0  0  0  0  0  0  0  0  0  0  0  0
   12.8824   24.1245   -1.6886 C   0  0  0  0  0  0  0  0  0  0  0  0
   13.5417   22.9130   -1.7083 C   0  0  0  0  0  0  0  0  0  0  0  0
   13.1439   21.8247   -0.8642 C   0  0  0  0  0  0  0  0  0  0  0  0
   12.8366   20.9354   -0.1845 N   0  0  0  0  0  0  0  0  0  0  0  0
   15.1760   29.7455   -4.3139 N   0  0  0  0  0  0  0  0  0  0  0  0
   15.8836   30.1417   -3.6498 H   0  0  0  0  0  0  0  0  0  0  0  0
   14.1853   30.6323   -4.8605 C   0  0  0  0  0  0  0  0  0  0  0  0
   13.4007   31.4243   -3.8881 C   0  0  0  0  0  0  0  0  0  0  0  0
   12.0196   30.9565   -3.5860 C   0  0  0  0  0  0  0  0  0  0  0  0
   11.5548   31.2120   -2.3309 F   0  0  0  0  0  0  0  0  0  0  0  0
   11.1743   31.6652   -4.4568 F   0  0  0  0  0  0  0  0  0  0  0  0
   11.8361   29.6280   -3.9337 F   0  0  0  0  0  0  0  0  0  0  0  0
 10 11  1  0  0  0
 11 12  2  0  0  0
 12 13  1  0  0  0
 13 14  2  0  0  0
 14 15  1  0  0  0
 15 16  2  0  0  0
 16 17  1  0  0  0
 17 18  3  0  0  0
 13  1  1  0  0  0
  1  2  2  0  0  0
  2  3  1  0  0  0
  3 19  1  0  0  0
 19 21  1  0  0  0
 21 22  1  0  0  0
 22 23  1  0  0  0
 23 24  1  0  0  0
 23 25  1  0  0  0
 23 26  1  0  0  0
  3  4  2  0  0  0
  4  5  1  0  0  0
  5  6  2  0  0  0
  6  7  1  0  0  0
  7  8  2  0  0  0
  8  9  1  0  0  0
 16 11  1  0  0  0
  9  1  1  0  0  0
  9  5  1  0  0  0
 19 20  1  0  0  0
M  END
> <minimizedAffinity>
5.36477

> <CNNscore>
0.4407467842

> <CNNaffinity>
6.4855718613

> <CNN_VS>
2.8584949970

> <CNNaffinity_variance>
0.9219092131

$$$$
[H]c1nc2c([H])c([H])c([H])c(-c3c([H])c([H])c(C#N)c(F)c3F)n2n1


 19 21  0  0  0  0  0  0  0  0999 V2000
   16.1175   23.8795   -5.6315 F   0  0  0  0  0  0  0  0  0  0  0  0
   15.2796   24.7623   -5.0154 C   0  0  0  0  0  0  0  0  0  0  0  0
   14.6956   24.4161   -3.8030 C   0  0  0  0  0  0  0  0  0  0  0  0
   14.9551   23.2121   -3.2357 F   0  0  0  0  0  0  0  0  0  0  0  0
   13.8458   25.3021   -3.1706 C   0  0  0  0  0  0  0  0  0  0  0  0
   13.5990   26.5332   -3.7802 C   0  0  0  0  0  0  0  0  0  0  0  0
   14.1898   26.8544   -4.9833 C   0  0  0  0  0  0  0  0  0  0  0  0
   15.0375   25.9793   -5.6211 C   0  0  0  0  0  0  0  0  0  0  0  0
   13.2181   24.9643   -1.8952 C   0  0  0  0  0  0  0  0  0  0  0  0
   11.8532   24.9276   -1.7123 C   0  0  0  0  0  0  0  0  0  0  0  0
   11.2712   24.6088   -0.5091 C   0  0  0  0  0  0  0  0  0  0  0  0
   12.0845   24.3119    0.5650 C   0  0  0  0  0  0  0  0  0  0  0  0
   13.4450   24.3543    0.3610 C   0  0  0  0  0  0  0  0  0  0  0  0
   14.4490   24.1156    1.2127 N   0  0  0  0  0  0  0  0  0  0  0  0
   15.6281   24.2735    0.5860 C   0  0  0  0  0  0  0  0  0  0  0  0
   15.3120   24.6166   -0.6764 N   0  0  0  0  0  0  0  0  0  0  0  0
   13.9970   24.6680   -0.8225 N   0  0  0  0  0  0  0  0  0  0  0  0
   15.6568   26.3259   -6.8901 C   0  0  0  0  0  0  0  0  0  0  0  0
   16.1607   26.5860   -7.9000 N   0  0  0  0  0  0  0  0  0  0  0  0
  1  2  1  0  0  0
  2  3  2  0  0  0
  3  4  1  0  0  0
  3  5  1  0  0  0
  5  6  2  0  0  0
  6  7  1  0  0  0
  7  8  2  0  0  0
  8 18  1  0  0  0
 18 19  3  0  0  0
  5  9  1  0  0  0
  9 10  2  0  0  0
 10 11  1  0  0  0
 11 12  2  0  0  0
 12 13  1  0  0  0
 13 14  2  0  0  0
 14 15  1  0  0  0
 15 16  2  0  0  0
 16 17  1  0  0  0
  8  2  1  0  0  0
 17  9  1  0  0  0
 17 13  1  0  0  0
M  END
> <minimizedAffinity>
-8.78569

> <CNNscore>
0.8104049563

> <CNNaffinity>
6.8728003502

> <CNN_VS>
5.5697512627

> <CNNaffinity_variance>
0.1404561698

$$$$
[H]c1nc2c([H])c([H])c([H])c(-c3c([H])c([H])c(C#N)c(F)c3F)n2n1


 19 21  0  0  0  0  0  0  0  0999 V2000
   13.1484   27.1696   -3.4335 F   0  0  0  0  0  0  0  0  0  0  0  0
   13.8024   25.9730   -3.4688 C   0  0  0  0  0  0  0  0  0  0  0  0
   13.5059   25.0050   -2.5171 C   0  0  0  0  0  0  0  0  0  0  0  0
   12.5749   25.2458   -1.5609 F   0  0  0  0  0  0  0  0  0  0  0  0
   14.1619   23.7902   -2.5434 C   0  0  0  0  0  0  0  0  0  0  0  0
   15.1147   23.5731   -3.5400 C   0  0  0  0  0  0  0  0  0  0  0  0
   15.3921   24.5485   -4.4736 C   0  0  0  0  0  0  0  0  0  0  0  0
   14.7444   25.7614   -4.4560 C   0  0  0  0  0  0  0  0  0  0  0  0
   13.8699   22.7544   -1.5551 C   0  0  0  0  0  0  0  0  0  0  0  0
   12.7949   21.8986   -1.6542 C   0  0  0  0  0  0  0  0  0  0  0  0
   12.5277   20.9272   -0.7199 C   0  0  0  0  0  0  0  0  0  0  0  0
   13.3691   20.7993    0.3658 C   0  0  0  0  0  0  0  0  0  0  0  0
   14.4370   21.6639    0.4457 C   0  0  0  0  0  0  0  0  0  0  0  0
   15.3952   21.7618    1.3744 N   0  0  0  0  0  0  0  0  0  0  0  0
   16.2443   22.7537    1.0533 C   0  0  0  0  0  0  0  0  0  0  0  0
   15.7737   23.2589   -0.1019 N   0  0  0  0  0  0  0  0  0  0  0  0
   14.6833   22.6082   -0.4771 N   0  0  0  0  0  0  0  0  0  0  0  0
   15.0429   26.7851   -5.4445 C   0  0  0  0  0  0  0  0  0  0  0  0
   15.2962   27.5906   -6.2374 N   0  0  0  0  0  0  0  0  0  0  0  0
  1  2  1  0  0  0
  2  3  2  0  0  0
  3  4  1  0  0  0
  3  5  1  0  0  0
  5  6  2  0  0  0
  6  7  1  0  0  0
  7  8  2  0  0  0
  8 18  1  0  0  0
 18 19  3  0  0  0
  5  9  1  0  0  0
  9 10  2  0  0  0
 10 11  1  0  0  0
 11 12  2  0  0  0
 12 13  1  0  0  0
 13 14  2  0  0  0
 14 15  1  0  0  0
 15 16  2  0  0  0
 16 17  1  0  0  0
  8  2  1  0  0  0
 17  9  1  0  0  0
 17 13  1  0  0  0
M  END
> <minimizedAffinity>
-7.01438

> <CNNscore>
0.7901110053

> <CNNaffinity>
7.1736779213

> <CNN_VS>
5.6680016518

> <CNNaffinity_variance>
0.3226096630

$$$$
[H]c1nc2c([H])c([H])c([H])c(-c3c([H])c([H])c(C#N)c(F)c3F)n2n1


 19 21  0  0  0  0  0  0  0  0999 V2000
   17.2573   26.7878   -2.6395 F   0  0  0  0  0  0  0  0  0  0  0  0
   16.0575   26.1700   -2.8381 C   0  0  0  0  0  0  0  0  0  0  0  0
   15.6572   25.1617   -1.9699 C   0  0  0  0  0  0  0  0  0  0  0  0
   16.4508   24.7938   -0.9336 F   0  0  0  0  0  0  0  0  0  0  0  0
   14.4446   24.5295   -2.1617 C   0  0  0  0  0  0  0  0  0  0  0  0
   13.6508   24.9311   -3.2372 C   0  0  0  0  0  0  0  0  0  0  0  0
   14.0690   25.9338   -4.0854 C   0  0  0  0  0  0  0  0  0  0  0  0
   15.2746   26.5696   -3.9031 C   0  0  0  0  0  0  0  0  0  0  0  0
   13.9987   23.4663   -1.2641 C   0  0  0  0  0  0  0  0  0  0  0  0
   14.5373   22.1983   -1.2703 C   0  0  0  0  0  0  0  0  0  0  0  0
   14.1118   21.2043   -0.4225 C   0  0  0  0  0  0  0  0  0  0  0  0
   13.1022   21.4830    0.4754 C   0  0  0  0  0  0  0  0  0  0  0  0
   12.5781   22.7556    0.4653 C   0  0  0  0  0  0  0  0  0  0  0  0
   11.6078   23.2909    1.2152 N   0  0  0  0  0  0  0  0  0  0  0  0
   11.4154   24.5750    0.8663 C   0  0  0  0  0  0  0  0  0  0  0  0
   12.2997   24.8072   -0.1213 N   0  0  0  0  0  0  0  0  0  0  0  0
   13.0062   23.7155   -0.3709 N   0  0  0  0  0  0  0  0  0  0  0  0
   15.7084   27.6265   -4.8025 C   0  0  0  0  0  0  0  0  0  0  0  0
   16.0356   28.4726   -5.5226 N   0  0  0  0  0  0  0  0  0  0  0  0
  1  2  1  0  0  0
  2  3  2  0  0  0
  3  4  1  0  0  0
  3  5  1  0  0  0
  5  6  2  0  0  0
  6  7  1  0  0  0
  7  8  2  0  0  0
  8 18  1  0  0  0
 18 19  3  0  0  0
  5  9  1  0  0  0
  9 10  2  0  0  0
 10 11  1  0  0  0
 11 12  2  0  0  0
 12 13  1  0  0  0
 13 14  2  0  0  0
 14 15  1  0  0  0
 15 16  2  0  0  0
 16 17  1  0  0  0
  8  2  1  0  0  0
 17  9  1  0  0  0
 17 13  1  0  0  0
M  END
> <minimizedAffinity>
-8.06222

> <CNNscore>
0.6562511325

> <CNNaffinity>
6.6699304581

> <CNN_VS>
4.3771495819

> <CNNaffinity_variance>
0.0810713619

$$$$
[H]c1nc2c([H])c([H])c([H])c(-c3c([H])c([H])c(C#N)c(F)c3F)n2n1


 19 21  0  0  0  0  0  0  0  0999 V2000
   15.9271   24.4043   -4.5909 F   0  0  0  0  0  0  0  0  0  0  0  0
   14.8829   24.6990   -3.7641 C   0  0  0  0  0  0  0  0  0  0  0  0
   14.3533   23.7034   -2.9524 C   0  0  0  0  0  0  0  0  0  0  0  0
   14.8685   22.4493   -2.9804 F   0  0  0  0  0  0  0  0  0  0  0  0
   13.2962   23.9906   -2.1116 C   0  0  0  0  0  0  0  0  0  0  0  0
   12.7884   25.2907   -2.1061 C   0  0  0  0  0  0  0  0  0  0  0  0
   13.3302   26.2619   -2.9204 C   0  0  0  0  0  0  0  0  0  0  0  0
   14.3829   25.9861   -3.7610 C   0  0  0  0  0  0  0  0  0  0  0  0
   12.7198   22.9632   -1.2474 C   0  0  0  0  0  0  0  0  0  0  0  0
   11.3960   22.5859   -1.3030 C   0  0  0  0  0  0  0  0  0  0  0  0
   10.8623   21.6184   -0.4863 C   0  0  0  0  0  0  0  0  0  0  0  0
   11.6833   20.9951    0.4306 C   0  0  0  0  0  0  0  0  0  0  0  0
   13.0023   21.3865    0.4698 C   0  0  0  0  0  0  0  0  0  0  0  0
   14.0029   20.9571    1.2473 N   0  0  0  0  0  0  0  0  0  0  0  0
   15.1336   21.6189    0.9453 C   0  0  0  0  0  0  0  0  0  0  0  0
   14.7915   22.4669   -0.0421 N   0  0  0  0  0  0  0  0  0  0  0  0
   13.5073   22.3345   -0.3365 N   0  0  0  0  0  0  0  0  0  0  0  0
   14.9488   27.0164   -4.6169 C   0  0  0  0  0  0  0  0  0  0  0  0
   15.4140   27.8253   -5.3030 N   0  0  0  0  0  0  0  0  0  0  0  0
  1  2  1  0  0  0
  2  3  2  0  0  0
  3  4  1  0  0  0
  3  5  1  0  0  0
  5  6  2  0  0  0
  6  7  1  0  0  0
  7  8  2  0  0  0
  8 18  1  0  0  0
 18 19  3  0  0  0
  5  9  1  0  0  0
  9 10  2  0  0  0
 10 11  1  0  0  0
 11 12  2  0  0  0
 12 13  1  0  0  0
 13 14  2  0  0  0
 14 15  1  0  0  0
 15 16  2  0  0  0
 16 17  1  0  0  0
  8  2  1  0  0  0
 17  9  1  0  0  0
 17 13  1  0  0  0
M  END
> <minimizedAffinity>
-8.04695

> <CNNscore>
0.6138857603

> <CNNaffinity>
6.8624153137

> <CNN_VS>
4.2127389908

> <CNNaffinity_variance>
0.3850954771

$$$$
[H]c1nc2c([H])c([H])c([H])c(-c3c([H])c([H])c(C#N)c(F)c3F)n2n1


 19 21  0  0  0  0  0  0  0  0999 V2000
   13.5223   27.2862   -5.2563 F   0  0  0  0  0  0  0  0  0  0  0  0
   14.0368   26.1829   -4.6408 C   0  0  0  0  0  0  0  0  0  0  0  0
   13.4820   25.7487   -3.4432 C   0  0  0  0  0  0  0  0  0  0  0  0
   12.4383   26.4145   -2.8896 F   0  0  0  0  0  0  0  0  0  0  0  0
   13.9949   24.6330   -2.8116 C   0  0  0  0  0  0  0  0  0  0  0  0
   15.0692   23.9698   -3.4068 C   0  0  0  0  0  0  0  0  0  0  0  0
   15.6031   24.4193   -4.5954 C   0  0  0  0  0  0  0  0  0  0  0  0
   15.0996   25.5292   -5.2323 C   0  0  0  0  0  0  0  0  0  0  0  0
   13.4310   24.1543   -1.5516 C   0  0  0  0  0  0  0  0  0  0  0  0
   12.9123   24.9934   -0.5899 C   0  0  0  0  0  0  0  0  0  0  0  0
   12.3838   24.5345    0.5925 C   0  0  0  0  0  0  0  0  0  0  0  0
   12.3697   23.1758    0.8316 C   0  0  0  0  0  0  0  0  0  0  0  0
   12.8925   22.3552   -0.1418 C   0  0  0  0  0  0  0  0  0  0  0  0
   13.0045   21.0222   -0.1722 N   0  0  0  0  0  0  0  0  0  0  0  0
   13.5806   20.6375   -1.3246 C   0  0  0  0  0  0  0  0  0  0  0  0
   13.8169   21.7788   -1.9975 N   0  0  0  0  0  0  0  0  0  0  0  0
   13.4053   22.8211   -1.2923 N   0  0  0  0  0  0  0  0  0  0  0  0
   15.6685   25.9968   -6.4860 C   0  0  0  0  0  0  0  0  0  0  0  0
   16.1104   26.3570   -7.4942 N   0  0  0  0  0  0  0  0  0  0  0  0
  1  2  1  0  0  0
  2  3  2  0  0  0
  3  4  1  0  0  0
  3  5  1  0  0  0
  5  6  2  0  0  0
  6  7  1  0  0  0
  7  8  2  0  0  0
  8 18  1  0  0  0
 18 19  3  0  0  0
  5  9  1  0  0  0
  9 10  2  0  0  0
 10 11  1  0  0  0
 11 12  2  0  0  0
 12 13  1  0  0  0
 13 14  2  0  0  0
 14 15  1  0  0  0
 15 16  2  0  0  0
 16 17  1  0  0  0
  8  2  1  0  0  0
 17  9  1  0  0  0
 17 13  1  0  0  0
M  END
> <minimizedAffinity>
-8.69811

> <CNNscore>
0.5062342882

> <CNNaffinity>
6.3884887695

> <CNN_VS>
3.2340719700

> <CNNaffinity_variance>
0.0333858207

$$$$
[H]c1nc2c([H])c([H])c([H])c(-c3c([H])c([H])c(C#N)c(F)c3F)n2n1


 19 21  0  0  0  0  0  0  0  0999 V2000
   14.9147   25.6025   -4.6131 F   0  0  0  0  0  0  0  0  0  0  0  0
   14.1522   25.2238   -3.5473 C   0  0  0  0  0  0  0  0  0  0  0  0
   14.4880   24.0746   -2.8421 C   0  0  0  0  0  0  0  0  0  0  0  0
   15.5639   23.3348   -3.2085 F   0  0  0  0  0  0  0  0  0  0  0  0
   13.7230   23.6819   -1.7616 C   0  0  0  0  0  0  0  0  0  0  0  0
   12.6222   24.4646   -1.4097 C   0  0  0  0  0  0  0  0  0  0  0  0
   12.3086   25.6006   -2.1244 C   0  0  0  0  0  0  0  0  0  0  0  0
   13.0639   26.0002   -3.2018 C   0  0  0  0  0  0  0  0  0  0  0  0
   14.0532   22.4781   -1.0022 C   0  0  0  0  0  0  0  0  0  0  0  0
   13.4333   21.2646   -1.2045 C   0  0  0  0  0  0  0  0  0  0  0  0
   13.7502   20.1373   -0.4856 C   0  0  0  0  0  0  0  0  0  0  0  0
   14.7306   20.2192    0.4816 C   0  0  0  0  0  0  0  0  0  0  0  0
   15.3373   21.4405    0.6678 C   0  0  0  0  0  0  0  0  0  0  0  0
   16.3026   21.7986    1.5223 N   0  0  0  0  0  0  0  0  0  0  0  0
   16.5960   23.1009    1.3617 C   0  0  0  0  0  0  0  0  0  0  0  0
   15.7786   23.5270    0.3812 N   0  0  0  0  0  0  0  0  0  0  0  0
   15.0149   22.5326   -0.0444 N   0  0  0  0  0  0  0  0  0  0  0  0
   12.7262   27.2001   -3.9505 C   0  0  0  0  0  0  0  0  0  0  0  0
   12.4423   28.1466   -4.5546 N   0  0  0  0  0  0  0  0  0  0  0  0
  1  2  1  0  0  0
  2  3  2  0  0  0
  3  4  1  0  0  0
  3  5  1  0  0  0
  5  6  2  0  0  0
  6  7  1  0  0  0
  7  8  2  0  0  0
  8 18  1  0  0  0
 18 19  3  0  0  0
  5  9  1  0  0  0
  9 10  2  0  0  0
 10 11  1  0  0  0
 11 12  2  0  0  0
 12 13  1  0  0  0
 13 14  2  0  0  0
 14 15  1  0  0  0
 15 16  2  0  0  0
 16 17  1  0  0  0
  8  2  1  0  0  0
 17  9  1  0  0  0
 17 13  1  0  0  0
M  END
> <minimizedAffinity>
-4.62810

> <CNNscore>
0.4634469450

> <CNNaffinity>
6.5864577293

> <CNN_VS>
3.0524737835

> <CNNaffinity_variance>
0.1490899771

$$$$
[H]c1nc2c([H])c([H])c([H])c(-c3c([H])c([H])c(C#N)c(F)c3F)n2n1


 19 21  0  0  0  0  0  0  0  0999 V2000
   14.0938   21.4409   -2.7030 F   0  0  0  0  0  0  0  0  0  0  0  0
   14.6937   22.3742   -3.4967 C   0  0  0  0  0  0  0  0  0  0  0  0
   15.1501   23.5587   -2.9316 C   0  0  0  0  0  0  0  0  0  0  0  0
   15.0015   23.7867   -1.6031 F   0  0  0  0  0  0  0  0  0  0  0  0
   15.7589   24.5103   -3.7257 C   0  0  0  0  0  0  0  0  0  0  0  0
   15.8968   24.2458   -5.0892 C   0  0  0  0  0  0  0  0  0  0  0  0
   15.4361   23.0634   -5.6273 C   0  0  0  0  0  0  0  0  0  0  0  0
   14.8286   22.1093   -4.8452 C   0  0  0  0  0  0  0  0  0  0  0  0
   16.2482   25.7646   -3.1580 C   0  0  0  0  0  0  0  0  0  0  0  0
   16.6516   26.8342   -3.9268 C   0  0  0  0  0  0  0  0  0  0  0  0
   17.1105   28.0103   -3.3845 C   0  0  0  0  0  0  0  0  0  0  0  0
   17.1719   28.1300   -2.0114 C   0  0  0  0  0  0  0  0  0  0  0  0
   16.7643   27.0501   -1.2619 C   0  0  0  0  0  0  0  0  0  0  0  0
   16.7191   26.8944    0.0663 N   0  0  0  0  0  0  0  0  0  0  0  0
   16.2511   25.6706    0.3680 C   0  0  0  0  0  0  0  0  0  0  0  0
   16.0118   25.0833   -0.8190 N   0  0  0  0  0  0  0  0  0  0  0  0
   16.3182   25.9075   -1.8090 N   0  0  0  0  0  0  0  0  0  0  0  0
   14.3454   20.8646   -5.4207 C   0  0  0  0  0  0  0  0  0  0  0  0
   13.9594   19.8655   -5.8615 N   0  0  0  0  0  0  0  0  0  0  0  0
  1  2  1  0  0  0
  2  3  2  0  0  0
  3  4  1  0  0  0
  3  5  1  0  0  0
  5  6  2  0  0  0
  6  7  1  0  0  0
  7  8  2  0  0  0
  8 18  1  0  0  0
 18 19  3  0  0  0
  5  9  1  0  0  0
  9 10  2  0  0  0
 10 11  1  0  0  0
 11 12  2  0  0  0
 12 13  1  0  0  0
 13 14  2  0  0  0
 14 15  1  0  0  0
 15 16  2  0  0  0
 16 17  1  0  0  0
  8  2  1  0  0  0
 17  9  1  0  0  0
 17 13  1  0  0  0
M  END
> <minimizedAffinity>
9.99363

> <CNNscore>
0.4547943175

> <CNNaffinity>
5.8835544586

> <CNN_VS>
2.6758072376

> <CNNaffinity_variance>
0.5848559141

$$$$
[H]c1nc2c([H])c([H])c([H])c(-c3c([H])c([H])c(C#N)c(F)c3F)n2n1


 19 21  0  0  0  0  0  0  0  0999 V2000
   15.8340   24.0581   -4.7563 F   0  0  0  0  0  0  0  0  0  0  0  0
   14.8890   24.4152   -3.8395 C   0  0  0  0  0  0  0  0  0  0  0  0
   14.5935   23.5512   -2.7922 C   0  0  0  0  0  0  0  0  0  0  0  0
   15.2378   22.3631   -2.6807 F   0  0  0  0  0  0  0  0  0  0  0  0
   13.6387   23.9026   -1.8586 C   0  0  0  0  0  0  0  0  0  0  0  0
   12.9935   25.1321   -2.0012 C   0  0  0  0  0  0  0  0  0  0  0  0
   13.3034   25.9727   -3.0486 C   0  0  0  0  0  0  0  0  0  0  0  0
   14.2526   25.6321   -3.9835 C   0  0  0  0  0  0  0  0  0  0  0  0
   13.3082   23.0135   -0.7473 C   0  0  0  0  0  0  0  0  0  0  0  0
   13.9732   21.8320   -0.5027 C   0  0  0  0  0  0  0  0  0  0  0  0
   13.6557   21.0017    0.5450 C   0  0  0  0  0  0  0  0  0  0  0  0
   12.6275   21.3622    1.3913 C   0  0  0  0  0  0  0  0  0  0  0  0
   11.9764   22.5462    1.1294 C   0  0  0  0  0  0  0  0  0  0  0  0
   10.9605   23.1290    1.7765 N   0  0  0  0  0  0  0  0  0  0  0  0
   10.6364   24.2856    1.1723 C   0  0  0  0  0  0  0  0  0  0  0  0
   11.4873   24.3907    0.1349 N   0  0  0  0  0  0  0  0  0  0  0  0
   12.3001   23.3460    0.1002 N   0  0  0  0  0  0  0  0  0  0  0  0
   14.5736   26.5247   -5.0855 C   0  0  0  0  0  0  0  0  0  0  0  0
   14.8444   27.2424   -5.9533 N   0  0  0  0  0  0  0  0  0  0  0  0
  1  2  1  0  0  0
  2  3  2  0  0  0
  3  4  1  0  0  0
  3  5  1  0  0  0
  5  6  2  0  0  0
  6  7  1  0  0  0
  7  8  2  0  0  0
  8 18  1  0  0  0
 18 19  3  0  0  0
  5  9  1  0  0  0
  9 10  2  0  0  0
 10 11  1  0  0  0
 11 12  2  0  0  0
 12 13  1  0  0  0
 13 14  2  0  0  0
 14 15  1  0  0  0
 15 16  2  0  0  0
 16 17  1  0  0  0
  8  2  1  0  0  0
 17  9  1  0  0  0
 17 13  1  0  0  0
M  END
> <minimizedAffinity>
-8.54145

> <CNNscore>
0.4441259503

> <CNNaffinity>
6.4414420128

> <CNN_VS>
2.8608114719

> <CNNaffinity_variance>
0.0947608426

$$$$
[H]c1nc2c([H])c([H])c([H])c(-c3c([H])c([H])c(C#N)c(F)c3F)n2n1


 19 21  0  0  0  0  0  0  0  0999 V2000
   12.5195   27.2732   -4.9494 F   0  0  0  0  0  0  0  0  0  0  0  0
   12.7275   26.8884   -3.6574 C   0  0  0  0  0  0  0  0  0  0  0  0
   13.0020   25.5552   -3.3783 C   0  0  0  0  0  0  0  0  0  0  0  0
   13.0631   24.6432   -4.3801 F   0  0  0  0  0  0  0  0  0  0  0  0
   13.2142   25.1545   -2.0739 C   0  0  0  0  0  0  0  0  0  0  0  0
   13.1445   26.1171   -1.0655 C   0  0  0  0  0  0  0  0  0  0  0  0
   12.8706   27.4339   -1.3666 C   0  0  0  0  0  0  0  0  0  0  0  0
   12.6578   27.8430   -2.6621 C   0  0  0  0  0  0  0  0  0  0  0  0
   13.5047   23.7593   -1.7519 C   0  0  0  0  0  0  0  0  0  0  0  0
   14.6717   23.1270   -2.1209 C   0  0  0  0  0  0  0  0  0  0  0  0
   14.9368   21.8142   -1.8137 C   0  0  0  0  0  0  0  0  0  0  0  0
   13.9970   21.0942   -1.1054 C   0  0  0  0  0  0  0  0  0  0  0  0
   12.8384   21.7445   -0.7465 C   0  0  0  0  0  0  0  0  0  0  0  0
   11.7762   21.2954   -0.0679 N   0  0  0  0  0  0  0  0  0  0  0  0
   10.8650   22.2761    0.0574 C   0  0  0  0  0  0  0  0  0  0  0  0
   11.4048   23.3393   -0.5667 N   0  0  0  0  0  0  0  0  0  0  0  0
   12.5957   23.0289   -1.0553 N   0  0  0  0  0  0  0  0  0  0  0  0
   12.3694   29.2342   -2.9713 C   0  0  0  0  0  0  0  0  0  0  0  0
   12.1582   30.3466   -3.2150 N   0  0  0  0  0  0  0  0  0  0  0  0
  1  2  1  0  0  0
  2  3  2  0  0  0
  3  4  1  0  0  0
  3  5  1  0  0  0
  5  6  2  0  0  0
  6  7  1  0  0  0
  7  8  2  0  0  0
  8 18  1  0  0  0
 18 19  3  0  0  0
  5  9  1  0  0  0
  9 10  2  0  0  0
 10 11  1  0  0  0
 11 12  2  0  0  0
 12 13  1  0  0  0
 13 14  2  0  0  0
 14 15  1  0  0  0
 15 16  2  0  0  0
 16 17  1  0  0  0
  8  2  1  0  0  0
 17  9  1  0  0  0
 17 13  1  0  0  0
M  END
> <minimizedAffinity>
12.86420

> <CNNscore>
0.4341588914

> <CNNaffinity>
5.9345879555

> <CNN_VS>
2.5765540600

> <CNNaffinity_variance>
0.8120137453

$$$$
[H]c1nc2c([H])c(N([H])C([H])([H])c3c([H])c([H])c([H])c(F)c3[H])c([H])c(-c3c([H])c([H])c(C#N)c([H])c3[H])n2n1


 27 30  0  0  0  0  0  0  0  0999 V2000
   11.6724   24.2112   -0.4572 C   0  0  0  0  0  0  0  0  0  0  0  0
   12.2207   24.5539   -1.6820 C   0  0  0  0  0  0  0  0  0  0  0  0
   13.5844   24.7206   -1.8462 C   0  0  0  0  0  0  0  0  0  0  0  0
   14.3946   24.5457   -0.7929 N   0  0  0  0  0  0  0  0  0  0  0  0
   15.7219   24.6505   -0.7114 N   0  0  0  0  0  0  0  0  0  0  0  0
   16.0973   24.3831    0.5595 C   0  0  0  0  0  0  0  0  0  0  0  0
   14.9677   24.1124    1.2527 N   0  0  0  0  0  0  0  0  0  0  0  0
   13.9150   24.2089    0.4338 C   0  0  0  0  0  0  0  0  0  0  0  0
   12.5500   24.0437    0.5915 C   0  0  0  0  0  0  0  0  0  0  0  0
   14.1008   25.0812   -3.1584 C   0  0  0  0  0  0  0  0  0  0  0  0
   15.0057   24.2913   -3.8444 C   0  0  0  0  0  0  0  0  0  0  0  0
   15.5009   24.6174   -5.0805 C   0  0  0  0  0  0  0  0  0  0  0  0
   15.0858   25.7922   -5.6873 C   0  0  0  0  0  0  0  0  0  0  0  0
   14.1820   26.5879   -5.0098 C   0  0  0  0  0  0  0  0  0  0  0  0
   13.6974   26.2472   -3.7760 C   0  0  0  0  0  0  0  0  0  0  0  0
   15.6052   26.1341   -6.9836 C   0  0  0  0  0  0  0  0  0  0  0  0
   16.0343   26.4000   -8.0299 N   0  0  0  0  0  0  0  0  0  0  0  0
   10.2738   24.0389   -0.2832 N   0  0  0  0  0  0  0  0  0  0  0  0
    9.5805   24.6851   -0.7253 H   0  0  0  0  0  0  0  0  0  0  0  0
    9.8105   22.9279    0.5356 C   0  0  0  0  0  0  0  0  0  0  0  0
    8.9316   26.4791    3.7278 F   0  0  0  0  0  0  0  0  0  0  0  0
    9.1435   25.1514    3.5146 C   0  0  0  0  0  0  0  0  0  0  0  0
    9.1488   24.2397    4.5476 C   0  0  0  0  0  0  0  0  0  0  0  0
    9.3648   22.8994    4.3148 C   0  0  0  0  0  0  0  0  0  0  0  0
    9.5755   22.5163    2.9966 C   0  0  0  0  0  0  0  0  0  0  0  0
    9.5759   23.4051    1.9431 C   0  0  0  0  0  0  0  0  0  0  0  0
    9.3577   24.7407    2.1994 C   0  0  0  0  0  0  0  0  0  0  0  0
 21 22  1  0  0  0
 22 23  2  0  0  0
 23 24  1  0  0  0
 24 25  2  0  0  0
 25 26  1  0  0  0
 26 20  1  0  0  0
 20 18  1  0  0  0
 18  1  1  0  0  0
  1  2  1  0  0  0
  2  3  2  0  0  0
  3 10  1  0  0  0
 10 11  2  0  0  0
 11 12  1  0  0  0
 12 13  2  0  0  0
 13 14  1  0  0  0
 14 15  2  0  0  0
 13 16  1  0  0  0
 16 17  3  0  0  0
  3  4  1  0  0  0
  4  5  1  0  0  0
  5  6  2  0  0  0
  6  7  1  0  0  0
  7  8  2  0  0  0
  8  9  1  0  0  0
 26 27  2  0  0  0
 27 22  1  0  0  0
  9  1  2  0  0  0
 15 10  1  0  0  0
  8  4  1  0  0  0
 18 19  1  0  0  0
M  END
> <minimizedAffinity>
-9.32055

> <CNNscore>
0.7871785760

> <CNNaffinity>
7.2645568848

> <CNN_VS>
5.7185034752

> <CNNaffinity_variance>
0.1476444453

$$$$
[H]c1nc2c([H])c(N([H])C([H])([H])c3c([H])c([H])c([H])c(F)c3[H])c([H])c(-c3c([H])c([H])c(C#N)c([H])c3[H])n2n1


 27 30  0  0  0  0  0  0  0  0999 V2000
   11.6413   24.1757   -0.4959 C   0  0  0  0  0  0  0  0  0  0  0  0
   12.1992   24.5235   -1.7150 C   0  0  0  0  0  0  0  0  0  0  0  0
   13.5619   24.7123   -1.8626 C   0  0  0  0  0  0  0  0  0  0  0  0
   14.3616   24.5546   -0.7986 N   0  0  0  0  0  0  0  0  0  0  0  0
   15.6859   24.6818   -0.7008 N   0  0  0  0  0  0  0  0  0  0  0  0
   16.0496   24.4251    0.5756 C   0  0  0  0  0  0  0  0  0  0  0  0
   14.9161   24.1379    1.2556 N   0  0  0  0  0  0  0  0  0  0  0  0
   13.8723   24.2139    0.4231 C   0  0  0  0  0  0  0  0  0  0  0  0
   12.5083   24.0264    0.5643 C   0  0  0  0  0  0  0  0  0  0  0  0
   14.0888   25.0771   -3.1695 C   0  0  0  0  0  0  0  0  0  0  0  0
   15.0058   24.2938   -3.8469 C   0  0  0  0  0  0  0  0  0  0  0  0
   15.5110   24.6240   -5.0779 C   0  0  0  0  0  0  0  0  0  0  0  0
   15.0936   25.7961   -5.6883 C   0  0  0  0  0  0  0  0  0  0  0  0
   14.1777   26.5851   -5.0195 C   0  0  0  0  0  0  0  0  0  0  0  0
   13.6833   26.2406   -3.7907 C   0  0  0  0  0  0  0  0  0  0  0  0
   15.6235   26.1422   -6.9793 C   0  0  0  0  0  0  0  0  0  0  0  0
   16.0610   26.4115   -8.0212 N   0  0  0  0  0  0  0  0  0  0  0  0
   10.2437   23.9806   -0.3389 N   0  0  0  0  0  0  0  0  0  0  0  0
    9.5668   24.2109   -1.1019 H   0  0  0  0  0  0  0  0  0  0  0  0
    9.7580   23.4450    0.9247 C   0  0  0  0  0  0  0  0  0  0  0  0
    8.4297   19.3536   -1.3270 F   0  0  0  0  0  0  0  0  0  0  0  0
    8.1010   20.3426   -0.4512 C   0  0  0  0  0  0  0  0  0  0  0  0
    6.8824   20.3713    0.1910 C   0  0  0  0  0  0  0  0  0  0  0  0
    6.5654   21.3793    1.0745 C   0  0  0  0  0  0  0  0  0  0  0  0
    7.5285   22.3578    1.2837 C   0  0  0  0  0  0  0  0  0  0  0  0
    8.7557   22.3555    0.6560 C   0  0  0  0  0  0  0  0  0  0  0  0
    9.0511   21.3375   -0.2236 C   0  0  0  0  0  0  0  0  0  0  0  0
 21 22  1  0  0  0
 22 23  2  0  0  0
 23 24  1  0  0  0
 24 25  2  0  0  0
 25 26  1  0  0  0
 26 20  1  0  0  0
 20 18  1  0  0  0
 18  1  1  0  0  0
  1  2  1  0  0  0
  2  3  2  0  0  0
  3 10  1  0  0  0
 10 11  2  0  0  0
 11 12  1  0  0  0
 12 13  2  0  0  0
 13 14  1  0  0  0
 14 15  2  0  0  0
 13 16  1  0  0  0
 16 17  3  0  0  0
  3  4  1  0  0  0
  4  5  1  0  0  0
  5  6  2  0  0  0
  6  7  1  0  0  0
  7  8  2  0  0  0
  8  9  1  0  0  0
 26 27  2  0  0  0
 27 22  1  0  0  0
  9  1  2  0  0  0
 15 10  1  0  0  0
  8  4  1  0  0  0
 18 19  1  0  0  0
M  END
> <minimizedAffinity>
-8.72601

> <CNNscore>
0.7409016490

> <CNNaffinity>
7.3219389915

> <CNN_VS>
5.4248366356

> <CNNaffinity_variance>
0.2721315324

$$$$
[H]c1nc2c([H])c(N([H])C([H])([H])c3c([H])c([H])c([H])c(F)c3[H])c([H])c(-c3c([H])c([H])c(C#N)c([H])c3[H])n2n1


 27 30  0  0  0  0  0  0  0  0999 V2000
   11.6223   24.2320   -0.5057 C   0  0  0  0  0  0  0  0  0  0  0  0
   12.1827   24.5634   -1.7281 C   0  0  0  0  0  0  0  0  0  0  0  0
   13.5466   24.7423   -1.8772 C   0  0  0  0  0  0  0  0  0  0  0  0
   14.3449   24.5909   -0.8112 N   0  0  0  0  0  0  0  0  0  0  0  0
   15.6699   24.7110   -0.7143 N   0  0  0  0  0  0  0  0  0  0  0  0
   16.0316   24.4655    0.5649 C   0  0  0  0  0  0  0  0  0  0  0  0
   14.8961   24.1925    1.2475 N   0  0  0  0  0  0  0  0  0  0  0  0
   13.8531   24.2662    0.4138 C   0  0  0  0  0  0  0  0  0  0  0  0
   12.4880   24.0885    0.5564 C   0  0  0  0  0  0  0  0  0  0  0  0
   14.0761   25.0900   -3.1876 C   0  0  0  0  0  0  0  0  0  0  0  0
   14.9921   24.2964   -3.8542 C   0  0  0  0  0  0  0  0  0  0  0  0
   15.4997   24.6104   -5.0885 C   0  0  0  0  0  0  0  0  0  0  0  0
   15.0862   25.7761   -5.7134 C   0  0  0  0  0  0  0  0  0  0  0  0
   14.1714   26.5755   -5.0554 C   0  0  0  0  0  0  0  0  0  0  0  0
   13.6745   26.2470   -3.8232 C   0  0  0  0  0  0  0  0  0  0  0  0
   15.6186   26.1054   -7.0078 C   0  0  0  0  0  0  0  0  0  0  0  0
   16.0604   26.3641   -8.0506 N   0  0  0  0  0  0  0  0  0  0  0  0
   10.2234   24.0472   -0.3471 N   0  0  0  0  0  0  0  0  0  0  0  0
    9.5376   24.7956   -0.5980 H   0  0  0  0  0  0  0  0  0  0  0  0
    9.7493   22.7757    0.1801 C   0  0  0  0  0  0  0  0  0  0  0  0
   10.3609   20.9586    4.6409 F   0  0  0  0  0  0  0  0  0  0  0  0
    9.9024   21.9823    3.8694 C   0  0  0  0  0  0  0  0  0  0  0  0
    9.3112   23.0994    4.4178 C   0  0  0  0  0  0  0  0  0  0  0  0
    8.8526   24.1266    3.6229 C   0  0  0  0  0  0  0  0  0  0  0  0
    9.0149   23.9806    2.2514 C   0  0  0  0  0  0  0  0  0  0  0  0
    9.6021   22.8752    1.6742 C   0  0  0  0  0  0  0  0  0  0  0  0
   10.0535   21.8602    2.4885 C   0  0  0  0  0  0  0  0  0  0  0  0
 21 22  1  0  0  0
 22 23  2  0  0  0
 23 24  1  0  0  0
 24 25  2  0  0  0
 25 26  1  0  0  0
 26 20  1  0  0  0
 20 18  1  0  0  0
 18  1  1  0  0  0
  1  2  1  0  0  0
  2  3  2  0  0  0
  3 10  1  0  0  0
 10 11  2  0  0  0
 11 12  1  0  0  0
 12 13  2  0  0  0
 13 14  1  0  0  0
 14 15  2  0  0  0
 13 16  1  0  0  0
 16 17  3  0  0  0
  3  4  1  0  0  0
  4  5  1  0  0  0
  5  6  2  0  0  0
  6  7  1  0  0  0
  7  8  2  0  0  0
  8  9  1  0  0  0
 26 27  2  0  0  0
 27 22  1  0  0  0
  9  1  2  0  0  0
 15 10  1  0  0  0
  8  4  1  0  0  0
 18 19  1  0  0  0
M  END
> <minimizedAffinity>
-8.95826

> <CNNscore>
0.6848719120

> <CNNaffinity>
7.2191824913

> <CNN_VS>
4.9442152977

> <CNNaffinity_variance>
0.0671527684

$$$$
[H]c1nc2c([H])c(N([H])C([H])([H])c3c([H])c([H])c([H])c(F)c3[H])c([H])c(-c3c([H])c([H])c(C#N)c([H])c3[H])n2n1


 27 30  0  0  0  0  0  0  0  0999 V2000
   12.1877   23.1798   -0.5619 C   0  0  0  0  0  0  0  0  0  0  0  0
   12.6582   23.6757   -1.7664 C   0  0  0  0  0  0  0  0  0  0  0  0
   13.9244   24.2214   -1.8823 C   0  0  0  0  0  0  0  0  0  0  0  0
   14.7150   24.2710   -0.8011 N   0  0  0  0  0  0  0  0  0  0  0  0
   15.9555   24.7446   -0.6727 N   0  0  0  0  0  0  0  0  0  0  0  0
   16.3478   24.5807    0.6105 C   0  0  0  0  0  0  0  0  0  0  0  0
   15.3176   23.9957    1.2634 N   0  0  0  0  0  0  0  0  0  0  0  0
   14.3087   23.8001    0.4077 C   0  0  0  0  0  0  0  0  0  0  0  0
   13.0410   23.2555    0.5171 C   0  0  0  0  0  0  0  0  0  0  0  0
   14.3623   24.7263   -3.1753 C   0  0  0  0  0  0  0  0  0  0  0  0
   13.8607   25.8910   -3.7277 C   0  0  0  0  0  0  0  0  0  0  0  0
   14.2631   26.3791   -4.9440 C   0  0  0  0  0  0  0  0  0  0  0  0
   15.2182   25.6846   -5.6693 C   0  0  0  0  0  0  0  0  0  0  0  0
   15.7252   24.5200   -5.1258 C   0  0  0  0  0  0  0  0  0  0  0  0
   15.3124   24.0467   -3.9098 C   0  0  0  0  0  0  0  0  0  0  0  0
   15.6401   26.1965   -6.9449 C   0  0  0  0  0  0  0  0  0  0  0  0
   15.9796   26.5973   -7.9811 N   0  0  0  0  0  0  0  0  0  0  0  0
   10.8894   22.6188   -0.4374 N   0  0  0  0  0  0  0  0  0  0  0  0
   10.1343   23.0944    0.1077 H   0  0  0  0  0  0  0  0  0  0  0  0
   10.6199   21.3470   -1.0926 C   0  0  0  0  0  0  0  0  0  0  0  0
    6.5688   21.3256    1.5835 F   0  0  0  0  0  0  0  0  0  0  0  0
    7.1820   20.9639    0.4232 C   0  0  0  0  0  0  0  0  0  0  0  0
    6.5189   20.2707   -0.5657 C   0  0  0  0  0  0  0  0  0  0  0  0
    7.1541   19.9122   -1.7341 C   0  0  0  0  0  0  0  0  0  0  0  0
    8.4865   20.2818   -1.8641 C   0  0  0  0  0  0  0  0  0  0  0  0
    9.1758   20.9751   -0.8925 C   0  0  0  0  0  0  0  0  0  0  0  0
    8.5204   21.3231    0.2679 C   0  0  0  0  0  0  0  0  0  0  0  0
 21 22  1  0  0  0
 22 23  2  0  0  0
 23 24  1  0  0  0
 24 25  2  0  0  0
 25 26  1  0  0  0
 26 20  1  0  0  0
 20 18  1  0  0  0
 18  1  1  0  0  0
  1  2  1  0  0  0
  2  3  2  0  0  0
  3 10  1  0  0  0
 10 11  2  0  0  0
 11 12  1  0  0  0
 12 13  2  0  0  0
 13 14  1  0  0  0
 14 15  2  0  0  0
 13 16  1  0  0  0
 16 17  3  0  0  0
  3  4  1  0  0  0
  4  5  1  0  0  0
  5  6  2  0  0  0
  6  7  1  0  0  0
  7  8  2  0  0  0
  8  9  1  0  0  0
 26 27  2  0  0  0
 27 22  1  0  0  0
  9  1  2  0  0  0
 15 10  1  0  0  0
  8  4  1  0  0  0
 18 19  1  0  0  0
M  END
> <minimizedAffinity>
-7.87859

> <CNNscore>
0.6218859553

> <CNNaffinity>
7.1887106895

> <CNN_VS>
4.4705581665

> <CNNaffinity_variance>
0.2920971215

$$$$
[H]c1nc2c([H])c(N([H])C([H])([H])c3c([H])c([H])c([H])c(F)c3[H])c([H])c(-c3c([H])c([H])c(C#N)c([H])c3[H])n2n1


 27 30  0  0  0  0  0  0  0  0999 V2000
   12.3338   28.3795   -3.0772 C   0  0  0  0  0  0  0  0  0  0  0  0
   13.1051   27.9824   -4.1569 C   0  0  0  0  0  0  0  0  0  0  0  0
   13.7494   26.7582   -4.1780 C   0  0  0  0  0  0  0  0  0  0  0  0
   13.6236   25.9363   -3.1267 N   0  0  0  0  0  0  0  0  0  0  0  0
   14.1441   24.7249   -2.9242 N   0  0  0  0  0  0  0  0  0  0  0  0
   13.7397   24.2799   -1.7135 C   0  0  0  0  0  0  0  0  0  0  0  0
   12.9596   25.2481   -1.1809 N   0  0  0  0  0  0  0  0  0  0  0  0
   12.8802   26.2709   -2.0388 C   0  0  0  0  0  0  0  0  0  0  0  0
   12.2382   27.4968   -2.0237 C   0  0  0  0  0  0  0  0  0  0  0  0
   14.5460   26.3972   -5.3415 C   0  0  0  0  0  0  0  0  0  0  0  0
   15.8529   25.9556   -5.2403 C   0  0  0  0  0  0  0  0  0  0  0  0
   16.6156   25.6120   -6.3265 C   0  0  0  0  0  0  0  0  0  0  0  0
   16.0666   25.7057   -7.5955 C   0  0  0  0  0  0  0  0  0  0  0  0
   14.7617   26.1459   -7.7069 C   0  0  0  0  0  0  0  0  0  0  0  0
   14.0141   26.4848   -6.6117 C   0  0  0  0  0  0  0  0  0  0  0  0
   16.8665   25.3454   -8.7346 C   0  0  0  0  0  0  0  0  0  0  0  0
   17.5092   25.0664   -9.6613 N   0  0  0  0  0  0  0  0  0  0  0  0
   11.6705   29.6346   -3.0503 N   0  0  0  0  0  0  0  0  0  0  0  0
   11.5288   30.1632   -2.1592 H   0  0  0  0  0  0  0  0  0  0  0  0
   11.1811   30.1851   -4.3061 C   0  0  0  0  0  0  0  0  0  0  0  0
    7.4533   28.1219   -6.6344 F   0  0  0  0  0  0  0  0  0  0  0  0
    7.8759   28.8813   -5.5866 C   0  0  0  0  0  0  0  0  0  0  0  0
    6.9979   29.3884   -4.6538 C   0  0  0  0  0  0  0  0  0  0  0  0
    7.4419   30.1552   -3.5992 C   0  0  0  0  0  0  0  0  0  0  0  0
    8.8087   30.3897   -3.5242 C   0  0  0  0  0  0  0  0  0  0  0  0
    9.7108   29.8959   -4.4420 C   0  0  0  0  0  0  0  0  0  0  0  0
    9.2442   29.1315   -5.4884 C   0  0  0  0  0  0  0  0  0  0  0  0
 21 22  1  0  0  0
 22 23  2  0  0  0
 23 24  1  0  0  0
 24 25  2  0  0  0
 25 26  1  0  0  0
 26 20  1  0  0  0
 20 18  1  0  0  0
 18  1  1  0  0  0
  1  2  1  0  0  0
  2  3  2  0  0  0
  3 10  1  0  0  0
 10 11  2  0  0  0
 11 12  1  0  0  0
 12 13  2  0  0  0
 13 14  1  0  0  0
 14 15  2  0  0  0
 13 16  1  0  0  0
 16 17  3  0  0  0
  3  4  1  0  0  0
  4  5  1  0  0  0
  5  6  2  0  0  0
  6  7  1  0  0  0
  7  8  2  0  0  0
  8  9  1  0  0  0
 26 27  2  0  0  0
 27 22  1  0  0  0
  9  1  2  0  0  0
 15 10  1  0  0  0
  8  4  1  0  0  0
 18 19  1  0  0  0
M  END
> <minimizedAffinity>
20.35260

> <CNNscore>
0.6162679791

> <CNNaffinity>
6.2634115219

> <CNN_VS>
3.8599400520

> <CNNaffinity_variance>
0.8880376816

$$$$
[H]c1nc2c([H])c(N([H])C([H])([H])c3c([H])c([H])c([H])c(F)c3[H])c([H])c(-c3c([H])c([H])c(C#N)c([H])c3[H])n2n1


 27 30  0  0  0  0  0  0  0  0999 V2000
   10.4582   23.3918    0.0107 C   0  0  0  0  0  0  0  0  0  0  0  0
   11.1478   24.0915   -0.9655 C   0  0  0  0  0  0  0  0  0  0  0  0
   12.4966   23.8828   -1.1928 C   0  0  0  0  0  0  0  0  0  0  0  0
   13.1516   22.9805   -0.4490 N   0  0  0  0  0  0  0  0  0  0  0  0
   14.4338   22.6141   -0.4859 N   0  0  0  0  0  0  0  0  0  0  0  0
   14.6377   21.6667    0.4565 C   0  0  0  0  0  0  0  0  0  0  0  0
   13.4497   21.4626    1.0703 N   0  0  0  0  0  0  0  0  0  0  0  0
   12.5287   22.2633    0.5235 C   0  0  0  0  0  0  0  0  0  0  0  0
   11.1794   22.4767    0.7459 C   0  0  0  0  0  0  0  0  0  0  0  0
   13.1663   24.6491   -2.2334 C   0  0  0  0  0  0  0  0  0  0  0  0
   14.2872   24.1826   -2.8960 C   0  0  0  0  0  0  0  0  0  0  0  0
   14.9287   24.8925   -3.8779 C   0  0  0  0  0  0  0  0  0  0  0  0
   14.4443   26.1402   -4.2369 C   0  0  0  0  0  0  0  0  0  0  0  0
   13.3250   26.6149   -3.5806 C   0  0  0  0  0  0  0  0  0  0  0  0
   12.6964   25.8929   -2.6024 C   0  0  0  0  0  0  0  0  0  0  0  0
   15.1171   26.8847   -5.2666 C   0  0  0  0  0  0  0  0  0  0  0  0
   15.6726   27.4792   -6.0958 N   0  0  0  0  0  0  0  0  0  0  0  0
    9.0742   23.6020    0.2480 N   0  0  0  0  0  0  0  0  0  0  0  0
    8.4878   24.1832   -0.3938 H   0  0  0  0  0  0  0  0  0  0  0  0
    8.4721   22.9844    1.4209 C   0  0  0  0  0  0  0  0  0  0  0  0
    8.0576   27.4453    3.2924 F   0  0  0  0  0  0  0  0  0  0  0  0
    8.3420   26.1312    3.5053 C   0  0  0  0  0  0  0  0  0  0  0  0
    8.6929   25.6542    4.7493 C   0  0  0  0  0  0  0  0  0  0  0  0
    8.9776   24.3212    4.9478 C   0  0  0  0  0  0  0  0  0  0  0  0
    8.8938   23.4887    3.8394 C   0  0  0  0  0  0  0  0  0  0  0  0
    8.5455   23.9369    2.5833 C   0  0  0  0  0  0  0  0  0  0  0  0
    8.2650   25.2740    2.4081 C   0  0  0  0  0  0  0  0  0  0  0  0
 21 22  1  0  0  0
 22 23  2  0  0  0
 23 24  1  0  0  0
 24 25  2  0  0  0
 25 26  1  0  0  0
 26 20  1  0  0  0
 20 18  1  0  0  0
 18  1  1  0  0  0
  1  2  1  0  0  0
  2  3  2  0  0  0
  3 10  1  0  0  0
 10 11  2  0  0  0
 11 12  1  0  0  0
 12 13  2  0  0  0
 13 14  1  0  0  0
 14 15  2  0  0  0
 13 16  1  0  0  0
 16 17  3  0  0  0
  3  4  1  0  0  0
  4  5  1  0  0  0
  5  6  2  0  0  0
  6  7  1  0  0  0
  7  8  2  0  0  0
  8  9  1  0  0  0
 26 27  2  0  0  0
 27 22  1  0  0  0
  9  1  2  0  0  0
 15 10  1  0  0  0
  8  4  1  0  0  0
 18 19  1  0  0  0
M  END
> <minimizedAffinity>
-9.28128

> <CNNscore>
0.6102575660

> <CNNaffinity>
7.0144109726

> <CNN_VS>
4.2805972099

> <CNNaffinity_variance>
0.1663245112

$$$$
[H]c1nc2c([H])c(N([H])C([H])([H])c3c([H])c([H])c([H])c(F)c3[H])c([H])c(-c3c([H])c([H])c(C#N)c([H])c3[H])n2n1


 27 30  0  0  0  0  0  0  0  0999 V2000
   16.9230   26.2951   -2.1616 C   0  0  0  0  0  0  0  0  0  0  0  0
   16.4697   25.1958   -2.8717 C   0  0  0  0  0  0  0  0  0  0  0  0
   15.6317   24.2559   -2.2982 C   0  0  0  0  0  0  0  0  0  0  0  0
   15.2495   24.4140   -1.0233 N   0  0  0  0  0  0  0  0  0  0  0  0
   14.4581   23.6494   -0.2693 N   0  0  0  0  0  0  0  0  0  0  0  0
   14.3597   24.2101    0.9569 C   0  0  0  0  0  0  0  0  0  0  0  0
   15.1097   25.3356    0.9342 N   0  0  0  0  0  0  0  0  0  0  0  0
   15.6616   25.4723   -0.2761 C   0  0  0  0  0  0  0  0  0  0  0  0
   16.4996   26.4090   -0.8555 C   0  0  0  0  0  0  0  0  0  0  0  0
   15.1888   23.1217   -3.0957 C   0  0  0  0  0  0  0  0  0  0  0  0
   14.4943   22.0561   -2.5522 C   0  0  0  0  0  0  0  0  0  0  0  0
   14.0707   20.9812   -3.2902 C   0  0  0  0  0  0  0  0  0  0  0  0
   14.3429   20.9436   -4.6485 C   0  0  0  0  0  0  0  0  0  0  0  0
   15.0362   22.0034   -5.2006 C   0  0  0  0  0  0  0  0  0  0  0  0
   15.4518   23.0692   -4.4492 C   0  0  0  0  0  0  0  0  0  0  0  0
   13.8987   19.8162   -5.4223 C   0  0  0  0  0  0  0  0  0  0  0  0
   13.5362   18.8986   -6.0358 N   0  0  0  0  0  0  0  0  0  0  0  0
   17.7829   27.2626   -2.7452 N   0  0  0  0  0  0  0  0  0  0  0  0
   18.8139   27.2592   -2.5705 H   0  0  0  0  0  0  0  0  0  0  0  0
   17.1965   28.2789   -3.6069 C   0  0  0  0  0  0  0  0  0  0  0  0
   16.0892   26.2470   -7.8753 F   0  0  0  0  0  0  0  0  0  0  0  0
   15.6633   26.6354   -6.6421 C   0  0  0  0  0  0  0  0  0  0  0  0
   14.3606   26.4556   -6.2314 C   0  0  0  0  0  0  0  0  0  0  0  0
   13.9457   26.8543   -4.9799 C   0  0  0  0  0  0  0  0  0  0  0  0
   14.8994   27.4423   -4.1593 C   0  0  0  0  0  0  0  0  0  0  0  0
   16.2094   27.6353   -4.5424 C   0  0  0  0  0  0  0  0  0  0  0  0
   16.6019   27.2287   -5.7985 C   0  0  0  0  0  0  0  0  0  0  0  0
 21 22  1  0  0  0
 22 23  2  0  0  0
 23 24  1  0  0  0
 24 25  2  0  0  0
 25 26  1  0  0  0
 26 20  1  0  0  0
 20 18  1  0  0  0
 18  1  1  0  0  0
  1  2  1  0  0  0
  2  3  2  0  0  0
  3 10  1  0  0  0
 10 11  2  0  0  0
 11 12  1  0  0  0
 12 13  2  0  0  0
 13 14  1  0  0  0
 14 15  2  0  0  0
 13 16  1  0  0  0
 16 17  3  0  0  0
  3  4  1  0  0  0
  4  5  1  0  0  0
  5  6  2  0  0  0
  6  7  1  0  0  0
  7  8  2  0  0  0
  8  9  1  0  0  0
 26 27  2  0  0  0
 27 22  1  0  0  0
  9  1  2  0  0  0
 15 10  1  0  0  0
  8  4  1  0  0  0
 18 19  1  0  0  0
M  END
> <minimizedAffinity>
3.27979

> <CNNscore>
0.5941433907

> <CNNaffinity>
7.0976204872

> <CNN_VS>
4.2170042992

> <CNNaffinity_variance>
0.3366147578

$$$$
[H]c1nc2c([H])c(N([H])C([H])([H])c3c([H])c([H])c([H])c(F)c3[H])c([H])c(-c3c([H])c([H])c(C#N)c([H])c3[H])n2n1


 27 30  0  0  0  0  0  0  0  0999 V2000
   12.0420   21.3959   -0.4663 C   0  0  0  0  0  0  0  0  0  0  0  0
   12.4188   22.3414   -1.4056 C   0  0  0  0  0  0  0  0  0  0  0  0
   13.6603   22.9509   -1.3650 C   0  0  0  0  0  0  0  0  0  0  0  0
   14.5194   22.6174   -0.3917 N   0  0  0  0  0  0  0  0  0  0  0  0
   15.7532   23.0647   -0.1532 N   0  0  0  0  0  0  0  0  0  0  0  0
   16.2338   22.4370    0.9433 C   0  0  0  0  0  0  0  0  0  0  0  0
   15.2644   21.5953    1.3693 N   0  0  0  0  0  0  0  0  0  0  0  0
   14.2062   21.6964    0.5580 C   0  0  0  0  0  0  0  0  0  0  0  0
   12.9628   21.0903    0.5118 C   0  0  0  0  0  0  0  0  0  0  0  0
   13.9985   23.9373   -2.3804 C   0  0  0  0  0  0  0  0  0  0  0  0
   13.2895   25.1143   -2.5393 C   0  0  0  0  0  0  0  0  0  0  0  0
   13.5959   26.0527   -3.4908 C   0  0  0  0  0  0  0  0  0  0  0  0
   14.6647   25.8275   -4.3436 C   0  0  0  0  0  0  0  0  0  0  0  0
   15.3790   24.6546   -4.1927 C   0  0  0  0  0  0  0  0  0  0  0  0
   15.0597   23.7281   -3.2372 C   0  0  0  0  0  0  0  0  0  0  0  0
   14.9859   26.8116   -5.3414 C   0  0  0  0  0  0  0  0  0  0  0  0
   15.2347   27.6147   -6.1432 N   0  0  0  0  0  0  0  0  0  0  0  0
   10.7693   20.7674   -0.5034 N   0  0  0  0  0  0  0  0  0  0  0  0
   10.6666   19.7431   -0.6874 H   0  0  0  0  0  0  0  0  0  0  0  0
    9.5869   21.5861   -0.2771 C   0  0  0  0  0  0  0  0  0  0  0  0
    9.8092   25.5111    2.5723 F   0  0  0  0  0  0  0  0  0  0  0  0
    9.7792   24.1528    2.4867 C   0  0  0  0  0  0  0  0  0  0  0  0
    9.8227   23.3514    3.6066 C   0  0  0  0  0  0  0  0  0  0  0  0
    9.7915   21.9782    3.5027 C   0  0  0  0  0  0  0  0  0  0  0  0
    9.7147   21.4464    2.2220 C   0  0  0  0  0  0  0  0  0  0  0  0
    9.6699   22.2224    1.0838 C   0  0  0  0  0  0  0  0  0  0  0  0
    9.7022   23.5935    1.2117 C   0  0  0  0  0  0  0  0  0  0  0  0
 21 22  1  0  0  0
 22 23  2  0  0  0
 23 24  1  0  0  0
 24 25  2  0  0  0
 25 26  1  0  0  0
 26 20  1  0  0  0
 20 18  1  0  0  0
 18  1  1  0  0  0
  1  2  1  0  0  0
  2  3  2  0  0  0
  3 10  1  0  0  0
 10 11  2  0  0  0
 11 12  1  0  0  0
 12 13  2  0  0  0
 13 14  1  0  0  0
 14 15  2  0  0  0
 13 16  1  0  0  0
 16 17  3  0  0  0
  3  4  1  0  0  0
  4  5  1  0  0  0
  5  6  2  0  0  0
  6  7  1  0  0  0
  7  8  2  0  0  0
  8  9  1  0  0  0
 26 27  2  0  0  0
 27 22  1  0  0  0
  9  1  2  0  0  0
 15 10  1  0  0  0
  8  4  1  0  0  0
 18 19  1  0  0  0
M  END
> <minimizedAffinity>
-7.68607

> <CNNscore>
0.5060217381

> <CNNaffinity>
7.3455238342

> <CNN_VS>
3.7169947624

> <CNNaffinity_variance>
0.2714500427

$$$$
[H]c1nc2c([H])c(N([H])C([H])([H])c3c([H])c([H])c([H])c(F)c3[H])c([H])c(-c3c([H])c([H])c(C#N)c([H])c3[H])n2n1


 27 30  0  0  0  0  0  0  0  0999 V2000
   10.5830   22.4315   -0.1186 C   0  0  0  0  0  0  0  0  0  0  0  0
   11.2191   23.2844   -1.0053 C   0  0  0  0  0  0  0  0  0  0  0  0
   12.5985   23.3360   -1.1005 C   0  0  0  0  0  0  0  0  0  0  0  0
   13.3370   22.5401   -0.3145 N   0  0  0  0  0  0  0  0  0  0  0  0
   14.6626   22.4170   -0.2305 N   0  0  0  0  0  0  0  0  0  0  0  0
   14.9496   21.4861    0.7067 C   0  0  0  0  0  0  0  0  0  0  0  0
   13.7679   21.0432    1.1936 N   0  0  0  0  0  0  0  0  0  0  0  0
   12.7696   21.6825    0.5747 C   0  0  0  0  0  0  0  0  0  0  0  0
   11.3894   21.6357    0.6652 C   0  0  0  0  0  0  0  0  0  0  0  0
   13.2089   24.2532   -2.0517 C   0  0  0  0  0  0  0  0  0  0  0  0
   12.6836   25.5041   -2.3207 C   0  0  0  0  0  0  0  0  0  0  0  0
   13.2469   26.3788   -3.2135 C   0  0  0  0  0  0  0  0  0  0  0  0
   14.3990   26.0081   -3.8886 C   0  0  0  0  0  0  0  0  0  0  0  0
   14.9313   24.7604   -3.6266 C   0  0  0  0  0  0  0  0  0  0  0  0
   14.3561   23.8992   -2.7318 C   0  0  0  0  0  0  0  0  0  0  0  0
   14.9897   26.9255   -4.8250 C   0  0  0  0  0  0  0  0  0  0  0  0
   15.4544   27.6725   -5.5837 N   0  0  0  0  0  0  0  0  0  0  0  0
    9.1679   22.3746   -0.0169 N   0  0  0  0  0  0  0  0  0  0  0  0
    8.6308   21.5187   -0.2861 H   0  0  0  0  0  0  0  0  0  0  0  0
    8.4624   23.5482    0.4773 C   0  0  0  0  0  0  0  0  0  0  0  0
    8.0079   21.5945    4.8989 F   0  0  0  0  0  0  0  0  0  0  0  0
    8.3824   22.6671    4.1490 C   0  0  0  0  0  0  0  0  0  0  0  0
    8.8856   23.8153    4.7205 C   0  0  0  0  0  0  0  0  0  0  0  0
    9.2600   24.8920    3.9472 C   0  0  0  0  0  0  0  0  0  0  0  0
    9.1058   24.7628    2.5731 C   0  0  0  0  0  0  0  0  0  0  0  0
    8.6055   23.6272    1.9730 C   0  0  0  0  0  0  0  0  0  0  0  0
    8.2376   22.5628    2.7660 C   0  0  0  0  0  0  0  0  0  0  0  0
 21 22  1  0  0  0
 22 23  2  0  0  0
 23 24  1  0  0  0
 24 25  2  0  0  0
 25 26  1  0  0  0
 26 20  1  0  0  0
 20 18  1  0  0  0
 18  1  1  0  0  0
  1  2  1  0  0  0
  2  3  2  0  0  0
  3 10  1  0  0  0
 10 11  2  0  0  0
 11 12  1  0  0  0
 12 13  2  0  0  0
 13 14  1  0  0  0
 14 15  2  0  0  0
 13 16  1  0  0  0
 16 17  3  0  0  0
  3  4  1  0  0  0
  4  5  1  0  0  0
  5  6  2  0  0  0
  6  7  1  0  0  0
  7  8  2  0  0  0
  8  9  1  0  0  0
 26 27  2  0  0  0
 27 22  1  0  0  0
  9  1  2  0  0  0
 15 10  1  0  0  0
  8  4  1  0  0  0
 18 19  1  0  0  0
M  END
> <minimizedAffinity>
-8.88840

> <CNNscore>
0.4957431555

> <CNNaffinity>
7.0937333107

> <CNN_VS>
3.5166697502

> <CNNaffinity_variance>
0.2711583376

$$$$
[H]c1nc(C([H])([H])N2C([H])([H])C([H])([H])C3(C(=O)N(c4c([H])c([H])c(-c5noc(C([H])([H])OC([H])([H])[H])n5)c([H])c4[H])C(=O)N3c3nc([H])n([H])c(=O)c3[H])C([H])([H])C2([H])[H])c(C([H])([H])[H])c([H])c1[H]


 42 47  0  0  0  0  0  0  0  0999 V2000
   13.1964   24.9910   -1.7178 N   0  0  0  0  0  0  0  0  0  0  0  0
   14.4376   25.4132   -2.2835 C   0  0  0  0  0  0  0  0  0  0  0  0
   15.5342   24.8642   -2.0206 O   0  0  0  0  0  0  0  0  0  0  0  0
   14.2369   26.5394   -3.1812 N   0  0  0  0  0  0  0  0  0  0  0  0
   12.8452   26.8629   -3.1645 C   0  0  0  0  0  0  0  0  0  0  0  0
   12.3081   26.6281   -4.5751 C   0  0  0  0  0  0  0  0  0  0  0  0
   10.9644   27.2972   -4.7791 C   0  0  0  0  0  0  0  0  0  0  0  0
   11.0094   28.6784   -4.4825 N   0  0  0  0  0  0  0  0  0  0  0  0
   12.1742   29.1848   -3.8612 C   0  0  0  0  0  0  0  0  0  0  0  0
   12.5926   28.2526   -2.7264 C   0  0  0  0  0  0  0  0  0  0  0  0
   12.2235   25.8514   -2.2556 C   0  0  0  0  0  0  0  0  0  0  0  0
   10.9765   25.7808   -2.0056 O   0  0  0  0  0  0  0  0  0  0  0  0
   15.3597   27.0452   -3.8980 C   0  0  0  0  0  0  0  0  0  0  0  0
   16.5330   27.3508   -3.3183 C   0  0  0  0  0  0  0  0  0  0  0  0
   17.5992   27.8064   -4.1224 C   0  0  0  0  0  0  0  0  0  0  0  0
   18.6842   28.0871   -3.5625 O   0  0  0  0  0  0  0  0  0  0  0  0
   17.4123   27.9206   -5.4381 N   0  0  0  0  0  0  0  0  0  0  0  0
   16.2372   27.6166   -6.0239 C   0  0  0  0  0  0  0  0  0  0  0  0
   15.2434   27.1899   -5.2511 N   0  0  0  0  0  0  0  0  0  0  0  0
   18.2040   28.2589   -6.0469 H   0  0  0  0  0  0  0  0  0  0  0  0
   12.6580   21.7813    1.0254 C   0  0  0  0  0  0  0  0  0  0  0  0
   12.4716   23.1014    1.3949 C   0  0  0  0  0  0  0  0  0  0  0  0
   12.6654   24.1219    0.4968 C   0  0  0  0  0  0  0  0  0  0  0  0
   13.0544   23.8788   -0.8106 C   0  0  0  0  0  0  0  0  0  0  0  0
   13.2453   22.5726   -1.1866 C   0  0  0  0  0  0  0  0  0  0  0  0
   13.0482   21.5227   -0.2722 C   0  0  0  0  0  0  0  0  0  0  0  0
   11.7015   19.4059    3.5804 C   0  0  0  0  0  0  0  0  0  0  0  0
   11.4966   20.5685    2.9366 N   0  0  0  0  0  0  0  0  0  0  0  0
   12.4184   20.7240    1.9872 C   0  0  0  0  0  0  0  0  0  0  0  0
   13.1916   19.6107    2.0781 N   0  0  0  0  0  0  0  0  0  0  0  0
   12.7481   18.8513    3.0234 O   0  0  0  0  0  0  0  0  0  0  0  0
   10.9052   18.8297    4.7224 C   0  0  0  0  0  0  0  0  0  0  0  0
    9.1020   20.0355    5.5663 C   0  0  0  0  0  0  0  0  0  0  0  0
   10.4519   19.8463    5.5106 O   0  0  0  0  0  0  0  0  0  0  0  0
   10.1227   29.5363   -5.1372 C   0  0  0  0  0  0  0  0  0  0  0  0
    8.6926   29.1239   -5.2081 C   0  0  0  0  0  0  0  0  0  0  0  0
    8.2246   28.3285   -6.1733 N   0  0  0  0  0  0  0  0  0  0  0  0
    6.9141   28.0200   -6.1940 C   0  0  0  0  0  0  0  0  0  0  0  0
    6.0066   28.4786   -5.2694 C   0  0  0  0  0  0  0  0  0  0  0  0
    6.5023   29.3067   -4.2665 C   0  0  0  0  0  0  0  0  0  0  0  0
    7.8389   29.6129   -4.2559 C   0  0  0  0  0  0  0  0  0  0  0  0
    8.3284   30.4906   -3.1526 C   0  0  0  0  0  0  0  0  0  0  0  0
 33 34  1  0  0  0
 34 32  1  0  0  0
 32 27  1  0  0  0
 27 28  2  0  0  0
 28 29  1  0  0  0
 29 30  2  0  0  0
 30 31  1  0  0  0
 29 21  1  0  0  0
 21 22  2  0  0  0
 22 23  1  0  0  0
 23 24  2  0  0  0
 24 25  1  0  0  0
 25 26  2  0  0  0
 24  1  1  0  0  0
  1  2  1  0  0  0
  2  3  2  0  0  0
  2  4  1  0  0  0
  4 13  1  0  0  0
 13 14  2  0  0  0
 14 15  1  0  0  0
 15 16  2  0  0  0
 15 17  1  0  0  0
 17 18  1  0  0  0
 18 19  2  0  0  0
  4  5  1  0  0  0
  5  6  1  0  0  0
  6  7  1  0  0  0
  7  8  1  0  0  0
  8 35  1  0  0  0
 35 36  1  0  0  0
 36 37  2  0  0  0
 37 38  1  0  0  0
 38 39  2  0  0  0
 39 40  1  0  0  0
 40 41  2  0  0  0
 41 42  1  0  0  0
  8  9  1  0  0  0
  9 10  1  0  0  0
  5 11  1  0  0  0
 11 12  2  0  0  0
 31 27  1  0  0  0
 26 21  1  0  0  0
 11  1  1  0  0  0
 19 13  1  0  0  0
 10  5  1  0  0  0
 41 36  1  0  0  0
 17 20  1  0  0  0
M  END
> <minimizedAffinity>
15.02209

> <CNNscore>
0.5622000098

> <CNNaffinity>
7.2984924316

> <CNN_VS>
4.1032123566

> <CNNaffinity_variance>
0.4797202051

$$$$
[H]c1nc(C([H])([H])N2C([H])([H])C([H])([H])C3(C(=O)N(c4c([H])c([H])c(-c5noc(C([H])([H])OC([H])([H])[H])n5)c([H])c4[H])C(=O)N3c3nc([H])n([H])c(=O)c3[H])C([H])([H])C2([H])[H])c(C([H])([H])[H])c([H])c1[H]


 42 47  0  0  0  0  0  0  0  0999 V2000
   12.6824   24.1824   -1.4347 N   0  0  0  0  0  0  0  0  0  0  0  0
   13.3348   23.0977   -0.7740 C   0  0  0  0  0  0  0  0  0  0  0  0
   14.5626   22.8656   -0.8833 O   0  0  0  0  0  0  0  0  0  0  0  0
   12.3856   22.3323    0.0182 N   0  0  0  0  0  0  0  0  0  0  0  0
   11.0963   22.9205   -0.1649 C   0  0  0  0  0  0  0  0  0  0  0  0
   10.6398   23.4447    1.1953 C   0  0  0  0  0  0  0  0  0  0  0  0
    9.1524   23.7310    1.2124 C   0  0  0  0  0  0  0  0  0  0  0  0
    8.3910   22.6041    0.8274 N   0  0  0  0  0  0  0  0  0  0  0  0
    9.0800   21.4893    0.2966 C   0  0  0  0  0  0  0  0  0  0  0  0
   10.1131   21.9664   -0.7217 C   0  0  0  0  0  0  0  0  0  0  0  0
   11.3300   24.0942   -1.0613 C   0  0  0  0  0  0  0  0  0  0  0  0
   10.4215   24.9057   -1.4335 O   0  0  0  0  0  0  0  0  0  0  0  0
   12.8756   21.2543    0.8108 C   0  0  0  0  0  0  0  0  0  0  0  0
   14.1097   20.7385    0.6792 C   0  0  0  0  0  0  0  0  0  0  0  0
   14.5155   19.6980    1.5416 C   0  0  0  0  0  0  0  0  0  0  0  0
   15.6691   19.2301    1.4017 O   0  0  0  0  0  0  0  0  0  0  0  0
   13.6613   19.2551    2.4653 N   0  0  0  0  0  0  0  0  0  0  0  0
   12.4224   19.7683    2.6002 C   0  0  0  0  0  0  0  0  0  0  0  0
   12.0565   20.7472    1.7788 N   0  0  0  0  0  0  0  0  0  0  0  0
   13.9566   18.4788    3.1149 H   0  0  0  0  0  0  0  0  0  0  0  0
   14.7718   26.9153   -3.9411 C   0  0  0  0  0  0  0  0  0  0  0  0
   15.4329   25.9944   -3.1482 C   0  0  0  0  0  0  0  0  0  0  0  0
   14.7385   25.1320   -2.3360 C   0  0  0  0  0  0  0  0  0  0  0  0
   13.3545   25.1447   -2.2727 C   0  0  0  0  0  0  0  0  0  0  0  0
   12.6889   26.0569   -3.0530 C   0  0  0  0  0  0  0  0  0  0  0  0
   13.3936   26.9426   -3.8874 C   0  0  0  0  0  0  0  0  0  0  0  0
   16.2672   29.1557   -6.3558 C   0  0  0  0  0  0  0  0  0  0  0  0
   15.1934   28.4917   -5.8931 N   0  0  0  0  0  0  0  0  0  0  0  0
   15.5303   27.7933   -4.8096 C   0  0  0  0  0  0  0  0  0  0  0  0
   16.8507   28.0587   -4.6308 N   0  0  0  0  0  0  0  0  0  0  0  0
   17.2596   28.8631   -5.5541 O   0  0  0  0  0  0  0  0  0  0  0  0
   16.3461   30.0609   -7.5577 C   0  0  0  0  0  0  0  0  0  0  0  0
   17.6575   29.5653   -9.4157 C   0  0  0  0  0  0  0  0  0  0  0  0
   16.5410   29.3051   -8.6760 O   0  0  0  0  0  0  0  0  0  0  0  0
    7.0936   22.4665    1.3259 C   0  0  0  0  0  0  0  0  0  0  0  0
    6.8516   22.8795    2.7370 C   0  0  0  0  0  0  0  0  0  0  0  0
    6.9617   24.1479    3.1399 N   0  0  0  0  0  0  0  0  0  0  0  0
    6.7584   24.4462    4.4371 C   0  0  0  0  0  0  0  0  0  0  0  0
    6.4389   23.5134    5.3945 C   0  0  0  0  0  0  0  0  0  0  0  0
    6.3257   22.1939    4.9665 C   0  0  0  0  0  0  0  0  0  0  0  0
    6.5343   21.9030    3.6428 C   0  0  0  0  0  0  0  0  0  0  0  0
    6.3860   20.4776    3.2266 C   0  0  0  0  0  0  0  0  0  0  0  0
 33 34  1  0  0  0
 34 32  1  0  0  0
 32 27  1  0  0  0
 27 28  2  0  0  0
 28 29  1  0  0  0
 29 30  2  0  0  0
 30 31  1  0  0  0
 29 21  1  0  0  0
 21 22  2  0  0  0
 22 23  1  0  0  0
 23 24  2  0  0  0
 24 25  1  0  0  0
 25 26  2  0  0  0
 24  1  1  0  0  0
  1  2  1  0  0  0
  2  3  2  0  0  0
  2  4  1  0  0  0
  4 13  1  0  0  0
 13 14  2  0  0  0
 14 15  1  0  0  0
 15 16  2  0  0  0
 15 17  1  0  0  0
 17 18  1  0  0  0
 18 19  2  0  0  0
  4  5  1  0  0  0
  5  6  1  0  0  0
  6  7  1  0  0  0
  7  8  1  0  0  0
  8 35  1  0  0  0
 35 36  1  0  0  0
 36 37  2  0  0  0
 37 38  1  0  0  0
 38 39  2  0  0  0
 39 40  1  0  0  0
 40 41  2  0  0  0
 41 42  1  0  0  0
  8  9  1  0  0  0
  9 10  1  0  0  0
  5 11  1  0  0  0
 11 12  2  0  0  0
 31 27  1  0  0  0
 26 21  1  0  0  0
 11  1  1  0  0  0
 19 13  1  0  0  0
 10  5  1  0  0  0
 41 36  1  0  0  0
 17 20  1  0  0  0
M  END
> <minimizedAffinity>
10.25134

> <CNNscore>
0.4249130785

> <CNNaffinity>
7.4332642555

> <CNN_VS>
3.1584911346

> <CNNaffinity_variance>
0.5024862885

$$$$
[H]c1nc(C([H])([H])N2C([H])([H])C([H])([H])C3(C(=O)N(c4c([H])c([H])c(-c5noc(C([H])([H])OC([H])([H])[H])n5)c([H])c4[H])C(=O)N3c3nc([H])n([H])c(=O)c3[H])C([H])([H])C2([H])[H])c(C([H])([H])[H])c([H])c1[H]


 42 47  0  0  0  0  0  0  0  0999 V2000
   11.4577   23.9577   -0.8512 N   0  0  0  0  0  0  0  0  0  0  0  0
   11.2435   24.5082    0.4487 C   0  0  0  0  0  0  0  0  0  0  0  0
   11.7879   25.5666    0.8444 O   0  0  0  0  0  0  0  0  0  0  0  0
   10.3267   23.6786    1.2139 N   0  0  0  0  0  0  0  0  0  0  0  0
    9.9729   22.5598    0.3985 C   0  0  0  0  0  0  0  0  0  0  0  0
    8.4699   22.6445    0.1397 C   0  0  0  0  0  0  0  0  0  0  0  0
    7.9167   21.3303   -0.3716 C   0  0  0  0  0  0  0  0  0  0  0  0
    8.2170   20.2553    0.4957 N   0  0  0  0  0  0  0  0  0  0  0  0
    9.1267   20.4909    1.5521 C   0  0  0  0  0  0  0  0  0  0  0  0
   10.3304   21.2683    1.0240 C   0  0  0  0  0  0  0  0  0  0  0  0
   10.6818   22.7864   -0.8984 C   0  0  0  0  0  0  0  0  0  0  0  0
   10.5907   22.0183   -1.9104 O   0  0  0  0  0  0  0  0  0  0  0  0
    9.9355   24.1174    2.5119 C   0  0  0  0  0  0  0  0  0  0  0  0
    9.6507   25.3971    2.8073 C   0  0  0  0  0  0  0  0  0  0  0  0
    9.2315   25.7242    4.1143 C   0  0  0  0  0  0  0  0  0  0  0  0
    8.9721   26.9229    4.3696 O   0  0  0  0  0  0  0  0  0  0  0  0
    9.1290   24.7518    5.0216 N   0  0  0  0  0  0  0  0  0  0  0  0
    9.4146   23.4672    4.7304 C   0  0  0  0  0  0  0  0  0  0  0  0
    9.8090   23.1774    3.4946 N   0  0  0  0  0  0  0  0  0  0  0  0
    8.8151   24.9869    6.0004 H   0  0  0  0  0  0  0  0  0  0  0  0
   13.9311   25.6007   -3.9007 C   0  0  0  0  0  0  0  0  0  0  0  0
   14.1290   24.3250   -3.4034 C   0  0  0  0  0  0  0  0  0  0  0  0
   13.3277   23.8208   -2.4088 C   0  0  0  0  0  0  0  0  0  0  0  0
   12.2925   24.5609   -1.8608 C   0  0  0  0  0  0  0  0  0  0  0  0
   12.0896   25.8292   -2.3448 C   0  0  0  0  0  0  0  0  0  0  0  0
   12.9062   26.3516   -3.3635 C   0  0  0  0  0  0  0  0  0  0  0  0
   15.9831   27.2599   -6.3751 C   0  0  0  0  0  0  0  0  0  0  0  0
   15.2352   27.3117   -5.2588 N   0  0  0  0  0  0  0  0  0  0  0  0
   14.7749   26.0951   -4.9703 C   0  0  0  0  0  0  0  0  0  0  0  0
   15.2722   25.3011   -5.9541 N   0  0  0  0  0  0  0  0  0  0  0  0
   15.9799   26.0112   -6.7676 O   0  0  0  0  0  0  0  0  0  0  0  0
   16.6934   28.3958   -7.0645 C   0  0  0  0  0  0  0  0  0  0  0  0
   15.5489   29.7165   -5.5271 C   0  0  0  0  0  0  0  0  0  0  0  0
   16.0446   29.5633   -6.7890 O   0  0  0  0  0  0  0  0  0  0  0  0
    7.3513   19.1599    0.5341 C   0  0  0  0  0  0  0  0  0  0  0  0
    6.3018   19.0753   -0.5204 C   0  0  0  0  0  0  0  0  0  0  0  0
    5.3364   19.9896   -0.6435 N   0  0  0  0  0  0  0  0  0  0  0  0
    4.4019   19.8350   -1.6005 C   0  0  0  0  0  0  0  0  0  0  0  0
    4.3740   18.7769   -2.4772 C   0  0  0  0  0  0  0  0  0  0  0  0
    5.3838   17.8286   -2.3425 C   0  0  0  0  0  0  0  0  0  0  0  0
    6.3301   17.9977   -1.3646 C   0  0  0  0  0  0  0  0  0  0  0  0
    7.4028   16.9648   -1.2681 C   0  0  0  0  0  0  0  0  0  0  0  0
 33 34  1  0  0  0
 34 32  1  0  0  0
 32 27  1  0  0  0
 27 28  2  0  0  0
 28 29  1  0  0  0
 29 30  2  0  0  0
 30 31  1  0  0  0
 29 21  1  0  0  0
 21 22  2  0  0  0
 22 23  1  0  0  0
 23 24  2  0  0  0
 24 25  1  0  0  0
 25 26  2  0  0  0
 24  1  1  0  0  0
  1  2  1  0  0  0
  2  3  2  0  0  0
  2  4  1  0  0  0
  4 13  1  0  0  0
 13 14  2  0  0  0
 14 15  1  0  0  0
 15 16  2  0  0  0
 15 17  1  0  0  0
 17 18  1  0  0  0
 18 19  2  0  0  0
  4  5  1  0  0  0
  5  6  1  0  0  0
  6  7  1  0  0  0
  7  8  1  0  0  0
  8 35  1  0  0  0
 35 36  1  0  0  0
 36 37  2  0  0  0
 37 38  1  0  0  0
 38 39  2  0  0  0
 39 40  1  0  0  0
 40 41  2  0  0  0
 41 42  1  0  0  0
  8  9  1  0  0  0
  9 10  1  0  0  0
  5 11  1  0  0  0
 11 12  2  0  0  0
 31 27  1  0  0  0
 26 21  1  0  0  0
 11  1  1  0  0  0
 19 13  1  0  0  0
 10  5  1  0  0  0
 41 36  1  0  0  0
 17 20  1  0  0  0
M  END
> <minimizedAffinity>
-1.68662

> <CNNscore>
0.3255846798

> <CNNaffinity>
7.1930947304

> <CNN_VS>
2.3419613838

> <CNNaffinity_variance>
0.2320508063

$$$$
[H]c1nc(C([H])([H])N2C([H])([H])C([H])([H])C3(C(=O)N(c4c([H])c([H])c(-c5noc(C([H])([H])OC([H])([H])[H])n5)c([H])c4[H])C(=O)N3c3nc([H])n([H])c(=O)c3[H])C([H])([H])C2([H])[H])c(C([H])([H])[H])c([H])c1[H]


 42 47  0  0  0  0  0  0  0  0999 V2000
   15.1565   25.8783   -3.5344 N   0  0  0  0  0  0  0  0  0  0  0  0
   15.4786   26.4366   -2.2603 C   0  0  0  0  0  0  0  0  0  0  0  0
   16.0950   27.5200   -2.1212 O   0  0  0  0  0  0  0  0  0  0  0  0
   14.9956   25.5820   -1.1874 N   0  0  0  0  0  0  0  0  0  0  0  0
   14.3809   24.4403   -1.7876 C   0  0  0  0  0  0  0  0  0  0  0  0
   12.9037   24.4640   -1.3994 C   0  0  0  0  0  0  0  0  0  0  0  0
   12.2415   23.1232   -1.6411 C   0  0  0  0  0  0  0  0  0  0  0  0
   12.9173   22.0716   -0.9812 N   0  0  0  0  0  0  0  0  0  0  0  0
   14.1728   22.3552   -0.3962 C   0  0  0  0  0  0  0  0  0  0  0  0
   15.0170   23.1715   -1.3725 C   0  0  0  0  0  0  0  0  0  0  0  0
   14.4786   24.6776   -3.2607 C   0  0  0  0  0  0  0  0  0  0  0  0
   14.0070   23.8939   -4.1473 O   0  0  0  0  0  0  0  0  0  0  0  0
   15.1604   26.0218    0.1578 C   0  0  0  0  0  0  0  0  0  0  0  0
   14.2555   26.7728    0.8085 C   0  0  0  0  0  0  0  0  0  0  0  0
   14.4925   27.1222    2.1549 C   0  0  0  0  0  0  0  0  0  0  0  0
   13.6373   27.8238    2.7431 O   0  0  0  0  0  0  0  0  0  0  0  0
   15.6101   26.6961    2.7453 N   0  0  0  0  0  0  0  0  0  0  0  0
   16.5211   25.9439    2.0966 C   0  0  0  0  0  0  0  0  0  0  0  0
   16.2821   25.6250    0.8285 N   0  0  0  0  0  0  0  0  0  0  0  0
   15.7946   26.9513    3.7515 H   0  0  0  0  0  0  0  0  0  0  0  0
   16.1869   27.8083   -7.1854 C   0  0  0  0  0  0  0  0  0  0  0  0
   16.0735   28.5033   -5.9946 C   0  0  0  0  0  0  0  0  0  0  0  0
   15.7254   27.8623   -4.8313 C   0  0  0  0  0  0  0  0  0  0  0  0
   15.4726   26.5004   -4.7966 C   0  0  0  0  0  0  0  0  0  0  0  0
   15.5792   25.8019   -5.9733 C   0  0  0  0  0  0  0  0  0  0  0  0
   15.9357   26.4521   -7.1681 C   0  0  0  0  0  0  0  0  0  0  0  0
   16.8197   29.3293  -10.4060 C   0  0  0  0  0  0  0  0  0  0  0  0
   16.0851   28.5159   -9.6271 N   0  0  0  0  0  0  0  0  0  0  0  0
   16.5838   28.5070   -8.3915 C   0  0  0  0  0  0  0  0  0  0  0  0
   17.6500   29.3470   -8.4490 N   0  0  0  0  0  0  0  0  0  0  0  0
   17.7666   29.8176   -9.6456 O   0  0  0  0  0  0  0  0  0  0  0  0
   16.6211   29.6357  -11.8678 C   0  0  0  0  0  0  0  0  0  0  0  0
   18.9350   29.8868  -11.8504 C   0  0  0  0  0  0  0  0  0  0  0  0
   17.8111   29.4999  -12.5200 O   0  0  0  0  0  0  0  0  0  0  0  0
   12.1902   20.9443   -0.5922 C   0  0  0  0  0  0  0  0  0  0  0  0
   10.8481   20.7450   -1.2084 C   0  0  0  0  0  0  0  0  0  0  0  0
   10.5092   21.2943   -2.3775 N   0  0  0  0  0  0  0  0  0  0  0  0
    9.2683   21.0975   -2.8618 C   0  0  0  0  0  0  0  0  0  0  0  0
    8.3068   20.3542   -2.2201 C   0  0  0  0  0  0  0  0  0  0  0  0
    8.6680   19.7849   -1.0025 C   0  0  0  0  0  0  0  0  0  0  0  0
    9.9349   19.9919   -0.5203 C   0  0  0  0  0  0  0  0  0  0  0  0
   10.2827   19.3487    0.7806 C   0  0  0  0  0  0  0  0  0  0  0  0
 33 34  1  0  0  0
 34 32  1  0  0  0
 32 27  1  0  0  0
 27 28  2  0  0  0
 28 29  1  0  0  0
 29 30  2  0  0  0
 30 31  1  0  0  0
 29 21  1  0  0  0
 21 22  2  0  0  0
 22 23  1  0  0  0
 23 24  2  0  0  0
 24 25  1  0  0  0
 25 26  2  0  0  0
 24  1  1  0  0  0
  1  2  1  0  0  0
  2  3  2  0  0  0
  2  4  1  0  0  0
  4 13  1  0  0  0
 13 14  2  0  0  0
 14 15  1  0  0  0
 15 16  2  0  0  0
 15 17  1  0  0  0
 17 18  1  0  0  0
 18 19  2  0  0  0
  4  5  1  0  0  0
  5  6  1  0  0  0
  6  7  1  0  0  0
  7  8  1  0  0  0
  8 35  1  0  0  0
 35 36  1  0  0  0
 36 37  2  0  0  0
 37 38  1  0  0  0
 38 39  2  0  0  0
 39 40  1  0  0  0
 40 41  2  0  0  0
 41 42  1  0  0  0
  8  9  1  0  0  0
  9 10  1  0  0  0
  5 11  1  0  0  0
 11 12  2  0  0  0
 31 27  1  0  0  0
 26 21  1  0  0  0
 11  1  1  0  0  0
 19 13  1  0  0  0
 10  5  1  0  0  0
 41 36  1  0  0  0
 17 20  1  0  0  0
M  END
> <minimizedAffinity>
50.51399

> <CNNscore>
0.2930999398

> <CNNaffinity>
6.9950380325

> <CNN_VS>
2.0502452850

> <CNNaffinity_variance>
0.2519432306

$$$$
[H]c1nc(C([H])([H])N2C([H])([H])C([H])([H])C3(C(=O)N(c4c([H])c([H])c(-c5noc(C([H])([H])OC([H])([H])[H])n5)c([H])c4[H])C(=O)N3c3nc([H])n([H])c(=O)c3[H])C([H])([H])C2([H])[H])c(C([H])([H])[H])c([H])c1[H]


 42 47  0  0  0  0  0  0  0  0999 V2000
   11.3345   23.2902   -0.0381 N   0  0  0  0  0  0  0  0  0  0  0  0
   12.6510   23.1158    0.4864 C   0  0  0  0  0  0  0  0  0  0  0  0
   12.9190   22.3210    1.4189 O   0  0  0  0  0  0  0  0  0  0  0  0
   13.5987   23.9736   -0.2069 N   0  0  0  0  0  0  0  0  0  0  0  0
   12.8683   24.7336   -1.1716 C   0  0  0  0  0  0  0  0  0  0  0  0
   13.3897   24.3361   -2.5513 C   0  0  0  0  0  0  0  0  0  0  0  0
   12.9804   25.3370   -3.6121 C   0  0  0  0  0  0  0  0  0  0  0  0
   13.3816   26.6519   -3.2835 N   0  0  0  0  0  0  0  0  0  0  0  0
   13.8884   26.8845   -1.9841 C   0  0  0  0  0  0  0  0  0  0  0  0
   12.9954   26.1913   -0.9575 C   0  0  0  0  0  0  0  0  0  0  0  0
   11.4564   24.2559   -1.0524 C   0  0  0  0  0  0  0  0  0  0  0  0
   10.4944   24.6701   -1.7773 O   0  0  0  0  0  0  0  0  0  0  0  0
   14.9789   23.8755    0.1333 C   0  0  0  0  0  0  0  0  0  0  0  0
   15.4960   22.8619    0.8484 C   0  0  0  0  0  0  0  0  0  0  0  0
   16.8845   22.8344    1.0975 C   0  0  0  0  0  0  0  0  0  0  0  0
   17.3464   21.8816    1.7671 O   0  0  0  0  0  0  0  0  0  0  0  0
   17.6465   23.8169    0.6147 N   0  0  0  0  0  0  0  0  0  0  0  0
   17.1324   24.8361   -0.1019 C   0  0  0  0  0  0  0  0  0  0  0  0
   15.8223   24.8465   -0.3261 N   0  0  0  0  0  0  0  0  0  0  0  0
   18.6854   23.8036    0.7948 H   0  0  0  0  0  0  0  0  0  0  0  0
    7.8344   21.2035    1.1912 C   0  0  0  0  0  0  0  0  0  0  0  0
    7.7847   22.4989    0.7081 C   0  0  0  0  0  0  0  0  0  0  0  0
    8.9287   23.1581    0.3311 C   0  0  0  0  0  0  0  0  0  0  0  0
   10.1762   22.5614    0.4171 C   0  0  0  0  0  0  0  0  0  0  0  0
   10.2370   21.2773    0.8982 C   0  0  0  0  0  0  0  0  0  0  0  0
    9.0694   20.5963    1.2856 C   0  0  0  0  0  0  0  0  0  0  0  0
    5.0411   19.1284    2.1800 C   0  0  0  0  0  0  0  0  0  0  0  0
    6.3621   19.2862    1.9842 N   0  0  0  0  0  0  0  0  0  0  0  0
    6.6073   20.5233    1.5546 C   0  0  0  0  0  0  0  0  0  0  0  0
    5.3843   21.1122    1.4972 N   0  0  0  0  0  0  0  0  0  0  0  0
    4.4801   20.2697    1.8706 O   0  0  0  0  0  0  0  0  0  0  0  0
    4.3189   17.8948    2.6562 C   0  0  0  0  0  0  0  0  0  0  0  0
    5.0806   17.2349    0.5582 C   0  0  0  0  0  0  0  0  0  0  0  0
    4.4634   16.9050    1.7293 O   0  0  0  0  0  0  0  0  0  0  0  0
   13.6339   27.5565   -4.3173 C   0  0  0  0  0  0  0  0  0  0  0  0
   14.5113   27.1000   -5.4319 C   0  0  0  0  0  0  0  0  0  0  0  0
   14.0302   26.4841   -6.5147 N   0  0  0  0  0  0  0  0  0  0  0  0
   14.8839   26.0710   -7.4705 C   0  0  0  0  0  0  0  0  0  0  0  0
   16.2458   26.2437   -7.4049 C   0  0  0  0  0  0  0  0  0  0  0  0
   16.7392   26.8867   -6.2734 C   0  0  0  0  0  0  0  0  0  0  0  0
   15.8596   27.3034   -5.3076 C   0  0  0  0  0  0  0  0  0  0  0  0
   16.4323   28.0027   -4.1200 C   0  0  0  0  0  0  0  0  0  0  0  0
 33 34  1  0  0  0
 34 32  1  0  0  0
 32 27  1  0  0  0
 27 28  2  0  0  0
 28 29  1  0  0  0
 29 30  2  0  0  0
 30 31  1  0  0  0
 29 21  1  0  0  0
 21 22  2  0  0  0
 22 23  1  0  0  0
 23 24  2  0  0  0
 24 25  1  0  0  0
 25 26  2  0  0  0
 24  1  1  0  0  0
  1  2  1  0  0  0
  2  3  2  0  0  0
  2  4  1  0  0  0
  4 13  1  0  0  0
 13 14  2  0  0  0
 14 15  1  0  0  0
 15 16  2  0  0  0
 15 17  1  0  0  0
 17 18  1  0  0  0
 18 19  2  0  0  0
  4  5  1  0  0  0
  5  6  1  0  0  0
  6  7  1  0  0  0
  7  8  1  0  0  0
  8 35  1  0  0  0
 35 36  1  0  0  0
 36 37  2  0  0  0
 37 38  1  0  0  0
 38 39  2  0  0  0
 39 40  1  0  0  0
 40 41  2  0  0  0
 41 42  1  0  0  0
  8  9  1  0  0  0
  9 10  1  0  0  0
  5 11  1  0  0  0
 11 12  2  0  0  0
 31 27  1  0  0  0
 26 21  1  0  0  0
 11  1  1  0  0  0
 19 13  1  0  0  0
 10  5  1  0  0  0
 41 36  1  0  0  0
 17 20  1  0  0  0
M  END
> <minimizedAffinity>
1.03590

> <CNNscore>
0.2789881229

> <CNNaffinity>
7.5455942154

> <CNN_VS>
2.1051311493

> <CNNaffinity_variance>
0.4986159801

$$$$
[H]c1nc(C([H])([H])N2C([H])([H])C([H])([H])C3(C(=O)N(c4c([H])c([H])c(-c5noc(C([H])([H])OC([H])([H])[H])n5)c([H])c4[H])C(=O)N3c3nc([H])n([H])c(=O)c3[H])C([H])([H])C2([H])[H])c(C([H])([H])[H])c([H])c1[H]


 42 47  0  0  0  0  0  0  0  0999 V2000
   11.5841   23.5176   -0.0829 N   0  0  0  0  0  0  0  0  0  0  0  0
   11.9669   22.4336    0.7639 C   0  0  0  0  0  0  0  0  0  0  0  0
   13.0437   21.8046    0.6298 O   0  0  0  0  0  0  0  0  0  0  0  0
   10.9483   22.1833    1.7710 N   0  0  0  0  0  0  0  0  0  0  0  0
    9.8800   23.1045    1.5437 C   0  0  0  0  0  0  0  0  0  0  0  0
    9.7870   24.0038    2.7750 C   0  0  0  0  0  0  0  0  0  0  0  0
    8.4685   24.7480    2.8242 C   0  0  0  0  0  0  0  0  0  0  0  0
    7.3619   23.8710    2.7583 N   0  0  0  0  0  0  0  0  0  0  0  0
    7.6103   22.5131    2.4524 C   0  0  0  0  0  0  0  0  0  0  0  0
    8.5921   22.4250    1.2861 C   0  0  0  0  0  0  0  0  0  0  0  0
   10.3297   23.9416    0.3891 C   0  0  0  0  0  0  0  0  0  0  0  0
    9.6623   24.9109   -0.0982 O   0  0  0  0  0  0  0  0  0  0  0  0
   11.1973   21.1833    2.7551 C   0  0  0  0  0  0  0  0  0  0  0  0
   10.5627   21.1337    3.9388 C   0  0  0  0  0  0  0  0  0  0  0  0
   10.8504   20.0778    4.8294 C   0  0  0  0  0  0  0  0  0  0  0  0
   10.2490   20.0505    5.9281 O   0  0  0  0  0  0  0  0  0  0  0  0
   11.7455   19.1564    4.4705 N   0  0  0  0  0  0  0  0  0  0  0  0
   12.3854   19.2026    3.2852 C   0  0  0  0  0  0  0  0  0  0  0  0
   12.1028   20.2048    2.4590 N   0  0  0  0  0  0  0  0  0  0  0  0
   11.9656   18.3630    5.1293 H   0  0  0  0  0  0  0  0  0  0  0  0
   13.9694   25.1685   -3.1976 C   0  0  0  0  0  0  0  0  0  0  0  0
   12.9506   25.8850   -2.5955 C   0  0  0  0  0  0  0  0  0  0  0  0
   12.1840   25.3268   -1.6024 C   0  0  0  0  0  0  0  0  0  0  0  0
   12.3931   24.0301   -1.1614 C   0  0  0  0  0  0  0  0  0  0  0  0
   13.3994   23.3094   -1.7545 C   0  0  0  0  0  0  0  0  0  0  0  0
   14.1885   23.8749   -2.7718 C   0  0  0  0  0  0  0  0  0  0  0  0
   15.9373   27.1290   -5.5150 C   0  0  0  0  0  0  0  0  0  0  0  0
   15.2151   27.0430   -4.3840 N   0  0  0  0  0  0  0  0  0  0  0  0
   14.7802   25.7939   -4.2233 C   0  0  0  0  0  0  0  0  0  0  0  0
   15.2663   25.1232   -5.3002 N   0  0  0  0  0  0  0  0  0  0  0  0
   15.9438   25.9320   -6.0444 O   0  0  0  0  0  0  0  0  0  0  0  0
   16.6139   28.3470   -6.0884 C   0  0  0  0  0  0  0  0  0  0  0  0
   16.0622   30.5579   -6.5632 C   0  0  0  0  0  0  0  0  0  0  0  0
   15.8782   29.4540   -5.7829 O   0  0  0  0  0  0  0  0  0  0  0  0
    6.1615   24.2562    3.3595 C   0  0  0  0  0  0  0  0  0  0  0  0
    6.0697   25.6488    3.8818 C   0  0  0  0  0  0  0  0  0  0  0  0
    5.4109   26.6134    3.2347 N   0  0  0  0  0  0  0  0  0  0  0  0
    5.3938   27.8576    3.7492 C   0  0  0  0  0  0  0  0  0  0  0  0
    6.0224   28.2090    4.9197 C   0  0  0  0  0  0  0  0  0  0  0  0
    6.7065   27.1980    5.5882 C   0  0  0  0  0  0  0  0  0  0  0  0
    6.7159   25.9349    5.0546 C   0  0  0  0  0  0  0  0  0  0  0  0
    7.4481   24.8794    5.8142 C   0  0  0  0  0  0  0  0  0  0  0  0
 33 34  1  0  0  0
 34 32  1  0  0  0
 32 27  1  0  0  0
 27 28  2  0  0  0
 28 29  1  0  0  0
 29 30  2  0  0  0
 30 31  1  0  0  0
 29 21  1  0  0  0
 21 22  2  0  0  0
 22 23  1  0  0  0
 23 24  2  0  0  0
 24 25  1  0  0  0
 25 26  2  0  0  0
 24  1  1  0  0  0
  1  2  1  0  0  0
  2  3  2  0  0  0
  2  4  1  0  0  0
  4 13  1  0  0  0
 13 14  2  0  0  0
 14 15  1  0  0  0
 15 16  2  0  0  0
 15 17  1  0  0  0
 17 18  1  0  0  0
 18 19  2  0  0  0
  4  5  1  0  0  0
  5  6  1  0  0  0
  6  7  1  0  0  0
  7  8  1  0  0  0
  8 35  1  0  0  0
 35 36  1  0  0  0
 36 37  2  0  0  0
 37 38  1  0  0  0
 38 39  2  0  0  0
 39 40  1  0  0  0
 40 41  2  0  0  0
 41 42  1  0  0  0
  8  9  1  0  0  0
  9 10  1  0  0  0
  5 11  1  0  0  0
 11 12  2  0  0  0
 31 27  1  0  0  0
 26 21  1  0  0  0
 11  1  1  0  0  0
 19 13  1  0  0  0
 10  5  1  0  0  0
 41 36  1  0  0  0
 17 20  1  0  0  0
M  END
> <minimizedAffinity>
-2.49420

> <CNNscore>
0.2248778343

> <CNNaffinity>
6.8700857162

> <CNN_VS>
1.5449299812

> <CNNaffinity_variance>
0.2586316466

$$$$
[H]c1nc(C([H])([H])N2C([H])([H])C([H])([H])C3(C(=O)N(c4c([H])c([H])c(-c5noc(C([H])([H])OC([H])([H])[H])n5)c([H])c4[H])C(=O)N3c3nc([H])n([H])c(=O)c3[H])C([H])([H])C2([H])[H])c(C([H])([H])[H])c([H])c1[H]


 42 47  0  0  0  0  0  0  0  0999 V2000
   12.1869   22.6303   -0.5529 N   0  0  0  0  0  0  0  0  0  0  0  0
   12.4707   22.1459    0.7599 C   0  0  0  0  0  0  0  0  0  0  0  0
   13.4791   22.4966    1.4181 O   0  0  0  0  0  0  0  0  0  0  0  0
   11.4425   21.2158    1.1984 N   0  0  0  0  0  0  0  0  0  0  0  0
   10.5003   21.0793    0.1329 C   0  0  0  0  0  0  0  0  0  0  0  0
    9.1604   21.6074    0.6420 C   0  0  0  0  0  0  0  0  0  0  0  0
    8.0131   21.1622   -0.2414 C   0  0  0  0  0  0  0  0  0  0  0  0
    7.9744   19.7574   -0.3924 N   0  0  0  0  0  0  0  0  0  0  0  0
    9.0725   19.0088    0.0903 C   0  0  0  0  0  0  0  0  0  0  0  0
   10.3750   19.6824   -0.3361 C   0  0  0  0  0  0  0  0  0  0  0  0
   10.9886   22.0033   -0.9365 C   0  0  0  0  0  0  0  0  0  0  0  0
   10.3936   22.1956   -2.0462 O   0  0  0  0  0  0  0  0  0  0  0  0
   11.5214   20.6896    2.5202 C   0  0  0  0  0  0  0  0  0  0  0  0
   11.1249   21.3653    3.6121 C   0  0  0  0  0  0  0  0  0  0  0  0
   11.2050   20.7400    4.8745 C   0  0  0  0  0  0  0  0  0  0  0  0
   10.8315   21.3874    5.8798 O   0  0  0  0  0  0  0  0  0  0  0  0
   11.6726   19.4930    4.9486 N   0  0  0  0  0  0  0  0  0  0  0  0
   12.0727   18.8118    3.8566 C   0  0  0  0  0  0  0  0  0  0  0  0
   11.9912   19.4166    2.6758 N   0  0  0  0  0  0  0  0  0  0  0  0
   11.7347   19.0175    5.8876 H   0  0  0  0  0  0  0  0  0  0  0  0
   14.6331   25.3505   -2.7284 C   0  0  0  0  0  0  0  0  0  0  0  0
   15.0162   24.0410   -2.4996 C   0  0  0  0  0  0  0  0  0  0  0  0
   14.2174   23.1850   -1.7821 C   0  0  0  0  0  0  0  0  0  0  0  0
   13.0006   23.5901   -1.2576 C   0  0  0  0  0  0  0  0  0  0  0  0
   12.6126   24.8884   -1.4762 C   0  0  0  0  0  0  0  0  0  0  0  0
   13.4256   25.7702   -2.2103 C   0  0  0  0  0  0  0  0  0  0  0  0
   16.9350   27.6722   -4.2767 C   0  0  0  0  0  0  0  0  0  0  0  0
   16.4342   27.0918   -3.1720 N   0  0  0  0  0  0  0  0  0  0  0  0
   15.4839   26.2225   -3.5134 C   0  0  0  0  0  0  0  0  0  0  0  0
   15.4264   26.2963   -4.8687 N   0  0  0  0  0  0  0  0  0  0  0  0
   16.2908   27.1565   -5.2927 O   0  0  0  0  0  0  0  0  0  0  0  0
   18.0193   28.7149   -4.3615 C   0  0  0  0  0  0  0  0  0  0  0  0
   20.1537   27.8461   -4.0344 C   0  0  0  0  0  0  0  0  0  0  0  0
   19.0230   28.3891   -3.4977 O   0  0  0  0  0  0  0  0  0  0  0  0
    6.7450   19.1404   -0.6345 C   0  0  0  0  0  0  0  0  0  0  0  0
    5.8919   19.7078   -1.7165 C   0  0  0  0  0  0  0  0  0  0  0  0
    5.8972   19.2221   -2.9604 N   0  0  0  0  0  0  0  0  0  0  0  0
    5.1232   19.8028   -3.8968 C   0  0  0  0  0  0  0  0  0  0  0  0
    4.3115   20.8848   -3.6534 C   0  0  0  0  0  0  0  0  0  0  0  0
    4.3115   21.3848   -2.3546 C   0  0  0  0  0  0  0  0  0  0  0  0
    5.1033   20.7843   -1.4098 C   0  0  0  0  0  0  0  0  0  0  0  0
    5.0585   21.3440   -0.0271 C   0  0  0  0  0  0  0  0  0  0  0  0
 33 34  1  0  0  0
 34 32  1  0  0  0
 32 27  1  0  0  0
 27 28  2  0  0  0
 28 29  1  0  0  0
 29 30  2  0  0  0
 30 31  1  0  0  0
 29 21  1  0  0  0
 21 22  2  0  0  0
 22 23  1  0  0  0
 23 24  2  0  0  0
 24 25  1  0  0  0
 25 26  2  0  0  0
 24  1  1  0  0  0
  1  2  1  0  0  0
  2  3  2  0  0  0
  2  4  1  0  0  0
  4 13  1  0  0  0
 13 14  2  0  0  0
 14 15  1  0  0  0
 15 16  2  0  0  0
 15 17  1  0  0  0
 17 18  1  0  0  0
 18 19  2  0  0  0
  4  5  1  0  0  0
  5  6  1  0  0  0
  6  7  1  0  0  0
  7  8  1  0  0  0
  8 35  1  0  0  0
 35 36  1  0  0  0
 36 37  2  0  0  0
 37 38  1  0  0  0
 38 39  2  0  0  0
 39 40  1  0  0  0
 40 41  2  0  0  0
 41 42  1  0  0  0
  8  9  1  0  0  0
  9 10  1  0  0  0
  5 11  1  0  0  0
 11 12  2  0  0  0
 31 27  1  0  0  0
 26 21  1  0  0  0
 11  1  1  0  0  0
 19 13  1  0  0  0
 10  5  1  0  0  0
 41 36  1  0  0  0
 17 20  1  0  0  0
M  END
> <minimizedAffinity>
-6.06261

> <CNNscore>
0.1864097267

> <CNNaffinity>
7.1808867455

> <CNN_VS>
1.3385871649

> <CNNaffinity_variance>
0.1814130843

$$$$
[H]c1nc(C([H])([H])N2C([H])([H])C([H])([H])C3(C(=O)N(c4c([H])c([H])c(-c5noc(C([H])([H])OC([H])([H])[H])n5)c([H])c4[H])C(=O)N3c3nc([H])n([H])c(=O)c3[H])C([H])([H])C2([H])[H])c(C([H])([H])[H])c([H])c1[H]


 42 47  0  0  0  0  0  0  0  0999 V2000
   11.3794   25.4986   -0.6388 N   0  0  0  0  0  0  0  0  0  0  0  0
   10.8484   25.6622    0.6765 C   0  0  0  0  0  0  0  0  0  0  0  0
   10.7660   26.7744    1.2504 O   0  0  0  0  0  0  0  0  0  0  0  0
   10.4322   24.3819    1.2260 N   0  0  0  0  0  0  0  0  0  0  0  0
   10.7319   23.3769    0.2555 C   0  0  0  0  0  0  0  0  0  0  0  0
    9.4057   22.7553   -0.1781 C   0  0  0  0  0  0  0  0  0  0  0  0
    9.6150   21.4374   -0.8950 C   0  0  0  0  0  0  0  0  0  0  0  0
   10.3671   20.5257   -0.1197 N   0  0  0  0  0  0  0  0  0  0  0  0
   10.9776   21.0069    1.0614 C   0  0  0  0  0  0  0  0  0  0  0  0
   11.6550   22.3453    0.7758 C   0  0  0  0  0  0  0  0  0  0  0  0
   11.2998   24.1216   -0.9102 C   0  0  0  0  0  0  0  0  0  0  0  0
   11.6609   23.5769   -2.0036 O   0  0  0  0  0  0  0  0  0  0  0  0
    9.8046   24.3633    2.5051 C   0  0  0  0  0  0  0  0  0  0  0  0
    9.3550   25.4670    3.1265 C   0  0  0  0  0  0  0  0  0  0  0  0
    8.7093   25.3386    4.3745 C   0  0  0  0  0  0  0  0  0  0  0  0
    8.2987   26.3795    4.9377 O   0  0  0  0  0  0  0  0  0  0  0  0
    8.5626   24.1229    4.9033 N   0  0  0  0  0  0  0  0  0  0  0  0
    9.0129   23.0134    4.2847 C   0  0  0  0  0  0  0  0  0  0  0  0
    9.6196   23.1530    3.1102 N   0  0  0  0  0  0  0  0  0  0  0  0
    8.0801   24.0174    5.8349 H   0  0  0  0  0  0  0  0  0  0  0  0
   12.6285   28.7540   -3.0798 C   0  0  0  0  0  0  0  0  0  0  0  0
   11.4062   28.1308   -3.2571 C   0  0  0  0  0  0  0  0  0  0  0  0
   11.0302   27.0725   -2.4671 C   0  0  0  0  0  0  0  0  0  0  0  0
   11.8514   26.5829   -1.4643 C   0  0  0  0  0  0  0  0  0  0  0  0
   13.0679   27.1921   -1.2822 C   0  0  0  0  0  0  0  0  0  0  0  0
   13.4591   28.2766   -2.0873 C   0  0  0  0  0  0  0  0  0  0  0  0
   13.2973   31.8465   -4.8335 C   0  0  0  0  0  0  0  0  0  0  0  0
   12.7695   31.1953   -3.7821 N   0  0  0  0  0  0  0  0  0  0  0  0
   12.9859   29.8868   -3.9102 C   0  0  0  0  0  0  0  0  0  0  0  0
   13.6663   29.7674   -5.0801 N   0  0  0  0  0  0  0  0  0  0  0  0
   13.8366   30.9355   -5.6031 O   0  0  0  0  0  0  0  0  0  0  0  0
   13.2838   33.3288   -5.1033 C   0  0  0  0  0  0  0  0  0  0  0  0
   11.7992   32.9985   -6.8653 C   0  0  0  0  0  0  0  0  0  0  0  0
   12.1114   33.6623   -5.7150 O   0  0  0  0  0  0  0  0  0  0  0  0
   10.1675   19.1565   -0.3097 C   0  0  0  0  0  0  0  0  0  0  0  0
   10.7887   18.2275    0.6761 C   0  0  0  0  0  0  0  0  0  0  0  0
   10.5590   16.9121    0.6624 N   0  0  0  0  0  0  0  0  0  0  0  0
   11.1297   16.1348    1.6021 C   0  0  0  0  0  0  0  0  0  0  0  0
   11.9495   16.6143    2.5956 C   0  0  0  0  0  0  0  0  0  0  0  0
   12.1840   17.9862    2.6027 C   0  0  0  0  0  0  0  0  0  0  0  0
   11.5978   18.7670    1.6399 C   0  0  0  0  0  0  0  0  0  0  0  0
   11.8908   20.2298    1.6770 C   0  0  0  0  0  0  0  0  0  0  0  0
 33 34  1  0  0  0
 34 32  1  0  0  0
 32 27  1  0  0  0
 27 28  2  0  0  0
 28 29  1  0  0  0
 29 30  2  0  0  0
 30 31  1  0  0  0
 29 21  1  0  0  0
 21 22  2  0  0  0
 22 23  1  0  0  0
 23 24  2  0  0  0
 24 25  1  0  0  0
 25 26  2  0  0  0
 24  1  1  0  0  0
  1  2  1  0  0  0
  2  3  2  0  0  0
  2  4  1  0  0  0
  4 13  1  0  0  0
 13 14  2  0  0  0
 14 15  1  0  0  0
 15 16  2  0  0  0
 15 17  1  0  0  0
 17 18  1  0  0  0
 18 19  2  0  0  0
  4  5  1  0  0  0
  5  6  1  0  0  0
  6  7  1  0  0  0
  7  8  1  0  0  0
  8 35  1  0  0  0
 35 36  1  0  0  0
 36 37  2  0  0  0
 37 38  1  0  0  0
 38 39  2  0  0  0
 39 40  1  0  0  0
 40 41  2  0  0  0
 41 42  1  0  0  0
  8  9  1  0  0  0
  9 10  1  0  0  0
  5 11  1  0  0  0
 11 12  2  0  0  0
 31 27  1  0  0  0
 26 21  1  0  0  0
 11  1  1  0  0  0
 19 13  1  0  0  0
 10  5  1  0  0  0
 41 36  1  0  0  0
 17 20  1  0  0  0
M  END
> <minimizedAffinity>
103.84135

> <CNNscore>
0.1797273308

> <CNNaffinity>
5.4755768776

> <CNN_VS>
0.9841108322

> <CNNaffinity_variance>
0.7519115210

$$$$
[H]c1nc(C([H])([H])N2C([H])([H])C([H])([H])C3(C(=O)N(c4c([H])c([H])c(-c5noc(C([H])([H])OC([H])([H])[H])n5)c([H])c4[H])C(=O)N3c3nc([H])n([H])c(=O)c3[H])C([H])([H])C2([H])[H])c(C([H])([H])[H])c([H])c1[H]


 42 47  0  0  0  0  0  0  0  0999 V2000
   11.9525   22.5859   -0.8331 N   0  0  0  0  0  0  0  0  0  0  0  0
   12.1809   22.2537    0.5366 C   0  0  0  0  0  0  0  0  0  0  0  0
   13.1325   22.7208    1.2071 O   0  0  0  0  0  0  0  0  0  0  0  0
   11.1718   21.3224    1.0151 N   0  0  0  0  0  0  0  0  0  0  0  0
   10.3004   21.0296   -0.0788 C   0  0  0  0  0  0  0  0  0  0  0  0
    8.9107   21.5384    0.2998 C   0  0  0  0  0  0  0  0  0  0  0  0
    7.8381   20.9473   -0.5916 C   0  0  0  0  0  0  0  0  0  0  0  0
    7.8715   19.5342   -0.5959 N   0  0  0  0  0  0  0  0  0  0  0  0
    8.9722   18.8959    0.0207 C   0  0  0  0  0  0  0  0  0  0  0  0
   10.2656   19.5875   -0.4042 C   0  0  0  0  0  0  0  0  0  0  0  0
   10.8081   21.8628   -1.2119 C   0  0  0  0  0  0  0  0  0  0  0  0
   10.2707   21.9098   -2.3658 O   0  0  0  0  0  0  0  0  0  0  0  0
   11.1972   20.9392    2.3872 C   0  0  0  0  0  0  0  0  0  0  0  0
   10.6692   21.6826    3.3746 C   0  0  0  0  0  0  0  0  0  0  0  0
   10.7081   21.1953    4.6982 C   0  0  0  0  0  0  0  0  0  0  0  0
   10.2116   21.9040    5.6041 O   0  0  0  0  0  0  0  0  0  0  0  0
   11.2686   20.0079    4.9327 N   0  0  0  0  0  0  0  0  0  0  0  0
   11.8006   19.2594    3.9461 C   0  0  0  0  0  0  0  0  0  0  0  0
   11.7560   19.7343    2.7055 N   0  0  0  0  0  0  0  0  0  0  0  0
   11.3008   19.6353    5.9186 H   0  0  0  0  0  0  0  0  0  0  0  0
   14.2929   25.4227   -2.9760 C   0  0  0  0  0  0  0  0  0  0  0  0
   13.0427   25.7339   -2.4721 C   0  0  0  0  0  0  0  0  0  0  0  0
   12.2988   24.7981   -1.7965 C   0  0  0  0  0  0  0  0  0  0  0  0
   12.7619   23.5086   -1.5905 C   0  0  0  0  0  0  0  0  0  0  0  0
   13.9999   23.1884   -2.0893 C   0  0  0  0  0  0  0  0  0  0  0  0
   14.7672   24.1420   -2.7817 C   0  0  0  0  0  0  0  0  0  0  0  0
   16.5542   27.8866   -4.3551 C   0  0  0  0  0  0  0  0  0  0  0  0
   16.2788   26.9452   -3.4352 N   0  0  0  0  0  0  0  0  0  0  0  0
   15.0668   26.4395   -3.6599 C   0  0  0  0  0  0  0  0  0  0  0  0
   14.6158   27.1093   -4.7525 N   0  0  0  0  0  0  0  0  0  0  0  0
   15.5103   27.9549   -5.1418 O   0  0  0  0  0  0  0  0  0  0  0  0
   17.8045   28.7181   -4.4800 C   0  0  0  0  0  0  0  0  0  0  0  0
   19.9141   27.9696   -3.8420 C   0  0  0  0  0  0  0  0  0  0  0  0
   18.6666   28.3845   -3.4773 O   0  0  0  0  0  0  0  0  0  0  0  0
    6.6872   18.8340   -0.8368 C   0  0  0  0  0  0  0  0  0  0  0  0
    6.0963   18.0709    0.2985 C   0  0  0  0  0  0  0  0  0  0  0  0
    5.5573   18.6731    1.3615 N   0  0  0  0  0  0  0  0  0  0  0  0
    5.0682   17.9214    2.3659 C   0  0  0  0  0  0  0  0  0  0  0  0
    5.0873   16.5472    2.3709 C   0  0  0  0  0  0  0  0  0  0  0  0
    5.6505   15.9272    1.2593 C   0  0  0  0  0  0  0  0  0  0  0  0
    6.1443   16.7037    0.2427 C   0  0  0  0  0  0  0  0  0  0  0  0
    6.7237   15.9954   -0.9362 C   0  0  0  0  0  0  0  0  0  0  0  0
 33 34  1  0  0  0
 34 32  1  0  0  0
 32 27  1  0  0  0
 27 28  2  0  0  0
 28 29  1  0  0  0
 29 30  2  0  0  0
 30 31  1  0  0  0
 29 21  1  0  0  0
 21 22  2  0  0  0
 22 23  1  0  0  0
 23 24  2  0  0  0
 24 25  1  0  0  0
 25 26  2  0  0  0
 24  1  1  0  0  0
  1  2  1  0  0  0
  2  3  2  0  0  0
  2  4  1  0  0  0
  4 13  1  0  0  0
 13 14  2  0  0  0
 14 15  1  0  0  0
 15 16  2  0  0  0
 15 17  1  0  0  0
 17 18  1  0  0  0
 18 19  2  0  0  0
  4  5  1  0  0  0
  5  6  1  0  0  0
  6  7  1  0  0  0
  7  8  1  0  0  0
  8 35  1  0  0  0
 35 36  1  0  0  0
 36 37  2  0  0  0
 37 38  1  0  0  0
 38 39  2  0  0  0
 39 40  1  0  0  0
 40 41  2  0  0  0
 41 42  1  0  0  0
  8  9  1  0  0  0
  9 10  1  0  0  0
  5 11  1  0  0  0
 11 12  2  0  0  0
 31 27  1  0  0  0
 26 21  1  0  0  0
 11  1  1  0  0  0
 19 13  1  0  0  0
 10  5  1  0  0  0
 41 36  1  0  0  0
 17 20  1  0  0  0
M  END
> <minimizedAffinity>
-8.05988

> <CNNscore>
0.1659004092

> <CNNaffinity>
7.0650534630

> <CNN_VS>
1.1720952988

> <CNNaffinity_variance>
0.1582841426

$$$$
[H]c1nc(OC([H])([H])[H])c([H])c(N2C(=O)N(c3c([H])c([H])c(-c4c([H])c([H])c(-c5c([H])c(=O)n([H])n5[H])c([H])c4[H])c([H])c3[H])C(=O)C23C([H])([H])C([H])([H])N(C([H])([H])c2nc([H])c([H])c([H])c2C([H])([H])[H])C([H])([H])C3([H])[H])n1


 48 54  0  0  0  0  0  0  0  0999 V2000
   12.8535   25.3377   -2.2675 N   0  0  0  0  0  0  0  0  0  0  0  0
   11.6077   24.7816   -1.7848 C   0  0  0  0  0  0  0  0  0  0  0  0
   10.4982   24.7806   -2.3777 O   0  0  0  0  0  0  0  0  0  0  0  0
   11.8087   24.2065   -0.4857 N   0  0  0  0  0  0  0  0  0  0  0  0
   13.1732   24.4204   -0.1996 C   0  0  0  0  0  0  0  0  0  0  0  0
   13.7124   24.3511    0.9589 O   0  0  0  0  0  0  0  0  0  0  0  0
   13.8946   24.7444   -1.4792 C   0  0  0  0  0  0  0  0  0  0  0  0
   14.9741   25.7220   -1.0713 C   0  0  0  0  0  0  0  0  0  0  0  0
   16.1377   25.6983   -1.9889 C   0  0  0  0  0  0  0  0  0  0  0  0
   16.7536   24.4223   -2.1358 N   0  0  0  0  0  0  0  0  0  0  0  0
   15.8597   23.3299   -2.3065 C   0  0  0  0  0  0  0  0  0  0  0  0
   14.4219   23.4870   -2.0474 C   0  0  0  0  0  0  0  0  0  0  0  0
   13.8468   27.0300   -5.3923 C   0  0  0  0  0  0  0  0  0  0  0  0
   13.7934   26.1685   -4.3214 C   0  0  0  0  0  0  0  0  0  0  0  0
   12.8511   26.2742   -3.3239 C   0  0  0  0  0  0  0  0  0  0  0  0
   11.9668   27.2756   -3.4409 N   0  0  0  0  0  0  0  0  0  0  0  0
   12.0219   28.1318   -4.5071 C   0  0  0  0  0  0  0  0  0  0  0  0
   12.9441   28.0142   -5.4676 N   0  0  0  0  0  0  0  0  0  0  0  0
   15.4603   25.6490   -6.5747 C   0  0  0  0  0  0  0  0  0  0  0  0
   14.8079   26.8952   -6.3804 O   0  0  0  0  0  0  0  0  0  0  0  0
   10.8261   23.5781    0.3259 C   0  0  0  0  0  0  0  0  0  0  0  0
   10.0696   24.2500    1.2523 C   0  0  0  0  0  0  0  0  0  0  0  0
    9.1610   23.5583    2.0155 C   0  0  0  0  0  0  0  0  0  0  0  0
    9.0110   22.1962    1.8511 C   0  0  0  0  0  0  0  0  0  0  0  0
    9.7544   21.4976    0.9298 C   0  0  0  0  0  0  0  0  0  0  0  0
   10.6618   22.1964    0.1685 C   0  0  0  0  0  0  0  0  0  0  0  0
    8.0812   21.4267    2.6668 C   0  0  0  0  0  0  0  0  0  0  0  0
    6.8471   21.1319    2.0778 C   0  0  0  0  0  0  0  0  0  0  0  0
    5.9259   20.4301    2.8251 C   0  0  0  0  0  0  0  0  0  0  0  0
    6.2224   20.0356    4.1129 C   0  0  0  0  0  0  0  0  0  0  0  0
    7.4494   20.3472    4.6506 C   0  0  0  0  0  0  0  0  0  0  0  0
    8.4164   21.0534    3.9392 C   0  0  0  0  0  0  0  0  0  0  0  0
    5.2326   19.3064    4.9040 C   0  0  0  0  0  0  0  0  0  0  0  0
    5.0339   17.9448    4.9118 C   0  0  0  0  0  0  0  0  0  0  0  0
    4.0042   17.6890    5.7883 C   0  0  0  0  0  0  0  0  0  0  0  0
    3.5647   16.5430    6.0357 O   0  0  0  0  0  0  0  0  0  0  0  0
    3.5893   18.8357    6.2952 N   0  0  0  0  0  0  0  0  0  0  0  0
    4.3339   19.8146    5.7591 N   0  0  0  0  0  0  0  0  0  0  0  0
    2.8297   19.0452    6.9871 H   0  0  0  0  0  0  0  0  0  0  0  0
    4.2322   20.8289    5.9699 H   0  0  0  0  0  0  0  0  0  0  0  0
   17.7536   24.1699   -1.1133 C   0  0  0  0  0  0  0  0  0  0  0  0
   17.2619   23.3590    0.0103 C   0  0  0  0  0  0  0  0  0  0  0  0
   16.3047   22.4369   -0.1501 N   0  0  0  0  0  0  0  0  0  0  0  0
   15.8690   21.6492    0.8683 C   0  0  0  0  0  0  0  0  0  0  0  0
   16.3816   21.7444    2.1402 C   0  0  0  0  0  0  0  0  0  0  0  0
   17.3802   22.6932    2.3489 C   0  0  0  0  0  0  0  0  0  0  0  0
   17.7875   23.4656    1.2880 C   0  0  0  0  0  0  0  0  0  0  0  0
   18.8463   24.4820    1.5268 C   0  0  0  0  0  0  0  0  0  0  0  0
 19 20  1  0  0  0
 20 13  1  0  0  0
 13 14  2  0  0  0
 14 15  1  0  0  0
 15 16  2  0  0  0
 16 17  1  0  0  0
 17 18  2  0  0  0
 15  1  1  0  0  0
  1  2  1  0  0  0
  2  3  2  0  0  0
  2  4  1  0  0  0
  4  5  1  0  0  0
  5  6  2  0  0  0
  5  7  1  0  0  0
  7  8  1  0  0  0
  8  9  1  0  0  0
  9 10  1  0  0  0
 10 41  1  0  0  0
 41 42  1  0  0  0
 42 43  2  0  0  0
 43 44  1  0  0  0
 44 45  2  0  0  0
 45 46  1  0  0  0
 46 47  2  0  0  0
 47 48  1  0  0  0
 10 11  1  0  0  0
 11 12  1  0  0  0
  4 21  1  0  0  0
 21 22  2  0  0  0
 22 23  1  0  0  0
 23 24  2  0  0  0
 24 25  1  0  0  0
 25 26  2  0  0  0
 24 27  1  0  0  0
 27 28  2  0  0  0
 28 29  1  0  0  0
 29 30  2  0  0  0
 30 31  1  0  0  0
 31 32  2  0  0  0
 30 33  1  0  0  0
 33 34  2  0  0  0
 34 35  1  0  0  0
 35 36  2  0  0  0
 35 37  1  0  0  0
 37 38  1  0  0  0
 18 13  1  0  0  0
  7  1  1  0  0  0
 12  7  1  0  0  0
 26 21  1  0  0  0
 32 27  1  0  0  0
 38 33  1  0  0  0
 47 42  1  0  0  0
 37 39  1  0  0  0
 38 40  1  0  0  0
M  END
> <minimizedAffinity>
11.15315

> <CNNscore>
0.5511207581

> <CNNaffinity>
7.7786407471

> <CNN_VS>
4.2869706154

> <CNNaffinity_variance>
0.6972517967

$$$$
[H]c1nc(OC([H])([H])[H])c([H])c(N2C(=O)N(c3c([H])c([H])c(-c4c([H])c([H])c(-c5c([H])c(=O)n([H])n5[H])c([H])c4[H])c([H])c3[H])C(=O)C23C([H])([H])C([H])([H])N(C([H])([H])c2nc([H])c([H])c([H])c2C([H])([H])[H])C([H])([H])C3([H])[H])n1


 48 54  0  0  0  0  0  0  0  0999 V2000
   12.8011   25.3312   -2.3159 N   0  0  0  0  0  0  0  0  0  0  0  0
   11.5326   24.8167   -1.8465 C   0  0  0  0  0  0  0  0  0  0  0  0
   10.4289   24.8572   -2.4486 O   0  0  0  0  0  0  0  0  0  0  0  0
   11.7024   24.2289   -0.5485 N   0  0  0  0  0  0  0  0  0  0  0  0
   13.0710   24.3938   -0.2500 C   0  0  0  0  0  0  0  0  0  0  0  0
   13.5976   24.3004    0.9126 O   0  0  0  0  0  0  0  0  0  0  0  0
   13.8141   24.6983   -1.5220 C   0  0  0  0  0  0  0  0  0  0  0  0
   14.9236   25.6357   -1.1003 C   0  0  0  0  0  0  0  0  0  0  0  0
   16.0934   25.5756   -2.0082 C   0  0  0  0  0  0  0  0  0  0  0  0
   16.6657   24.2796   -2.1562 N   0  0  0  0  0  0  0  0  0  0  0  0
   15.7356   23.2199   -2.3397 C   0  0  0  0  0  0  0  0  0  0  0  0
   14.3021   23.4259   -2.0919 C   0  0  0  0  0  0  0  0  0  0  0  0
   12.0194   28.3511   -4.2869 C   0  0  0  0  0  0  0  0  0  0  0  0
   12.0272   27.3811   -3.3118 C   0  0  0  0  0  0  0  0  0  0  0  0
   12.8404   26.2721   -3.3678 C   0  0  0  0  0  0  0  0  0  0  0  0
   13.6430   26.1730   -4.4375 N   0  0  0  0  0  0  0  0  0  0  0  0
   13.6334   27.1391   -5.4067 C   0  0  0  0  0  0  0  0  0  0  0  0
   12.8371   28.2105   -5.3361 N   0  0  0  0  0  0  0  0  0  0  0  0
   11.6725   30.6683   -3.6398 C   0  0  0  0  0  0  0  0  0  0  0  0
   11.1891   29.4561   -4.1996 O   0  0  0  0  0  0  0  0  0  0  0  0
   10.6915   23.6315    0.2518 C   0  0  0  0  0  0  0  0  0  0  0  0
   10.1521   24.2332    1.3603 C   0  0  0  0  0  0  0  0  0  0  0  0
    9.1980   23.5712    2.0939 C   0  0  0  0  0  0  0  0  0  0  0  0
    8.7857   22.3090    1.7177 C   0  0  0  0  0  0  0  0  0  0  0  0
    9.3078   21.6827    0.6111 C   0  0  0  0  0  0  0  0  0  0  0  0
   10.2622   22.3513   -0.1193 C   0  0  0  0  0  0  0  0  0  0  0  0
    7.8008   21.5654    2.4917 C   0  0  0  0  0  0  0  0  0  0  0  0
    8.1431   21.2931    3.8205 C   0  0  0  0  0  0  0  0  0  0  0  0
    7.2523   20.5667    4.5810 C   0  0  0  0  0  0  0  0  0  0  0  0
    6.0630   20.1270    4.0385 C   0  0  0  0  0  0  0  0  0  0  0  0
    5.7683   20.4194    2.7272 C   0  0  0  0  0  0  0  0  0  0  0  0
    6.6322   21.1500    1.9150 C   0  0  0  0  0  0  0  0  0  0  0  0
    5.1320   19.3426    4.8479 C   0  0  0  0  0  0  0  0  0  0  0  0
    4.9455   17.9805    4.7905 C   0  0  0  0  0  0  0  0  0  0  0  0
    3.9762   17.6633    5.7147 C   0  0  0  0  0  0  0  0  0  0  0  0
    3.5629   16.5000    5.9236 O   0  0  0  0  0  0  0  0  0  0  0  0
    3.5852   18.7746    6.3115 N   0  0  0  0  0  0  0  0  0  0  0  0
    4.2858   19.7910    5.7860 N   0  0  0  0  0  0  0  0  0  0  0  0
    2.8698   18.9356    7.0611 H   0  0  0  0  0  0  0  0  0  0  0  0
    4.1894   20.7904    6.0604 H   0  0  0  0  0  0  0  0  0  0  0  0
   17.6475   23.9878   -1.1267 C   0  0  0  0  0  0  0  0  0  0  0  0
   17.1242   23.1702   -0.0223 C   0  0  0  0  0  0  0  0  0  0  0  0
   16.1633   22.2578   -0.2130 N   0  0  0  0  0  0  0  0  0  0  0  0
   15.6985   21.4641    0.7878 C   0  0  0  0  0  0  0  0  0  0  0  0
   16.1833   21.5427    2.0716 C   0  0  0  0  0  0  0  0  0  0  0  0
   17.1848   22.4811    2.3117 C   0  0  0  0  0  0  0  0  0  0  0  0
   17.6220   23.2601    1.2677 C   0  0  0  0  0  0  0  0  0  0  0  0
   18.6835   24.2652    1.5400 C   0  0  0  0  0  0  0  0  0  0  0  0
 19 20  1  0  0  0
 20 13  1  0  0  0
 13 14  2  0  0  0
 14 15  1  0  0  0
 15 16  2  0  0  0
 16 17  1  0  0  0
 17 18  2  0  0  0
 15  1  1  0  0  0
  1  2  1  0  0  0
  2  3  2  0  0  0
  2  4  1  0  0  0
  4  5  1  0  0  0
  5  6  2  0  0  0
  5  7  1  0  0  0
  7  8  1  0  0  0
  8  9  1  0  0  0
  9 10  1  0  0  0
 10 41  1  0  0  0
 41 42  1  0  0  0
 42 43  2  0  0  0
 43 44  1  0  0  0
 44 45  2  0  0  0
 45 46  1  0  0  0
 46 47  2  0  0  0
 47 48  1  0  0  0
 10 11  1  0  0  0
 11 12  1  0  0  0
  4 21  1  0  0  0
 21 22  2  0  0  0
 22 23  1  0  0  0
 23 24  2  0  0  0
 24 25  1  0  0  0
 25 26  2  0  0  0
 24 27  1  0  0  0
 27 28  2  0  0  0
 28 29  1  0  0  0
 29 30  2  0  0  0
 30 31  1  0  0  0
 31 32  2  0  0  0
 30 33  1  0  0  0
 33 34  2  0  0  0
 34 35  1  0  0  0
 35 36  2  0  0  0
 35 37  1  0  0  0
 37 38  1  0  0  0
 18 13  1  0  0  0
  7  1  1  0  0  0
 12  7  1  0  0  0
 26 21  1  0  0  0
 32 27  1  0  0  0
 38 33  1  0  0  0
 47 42  1  0  0  0
 37 39  1  0  0  0
 38 40  1  0  0  0
M  END
> <minimizedAffinity>
14.67647

> <CNNscore>
0.5069177747

> <CNNaffinity>
7.6038093567

> <CNN_VS>
3.8545060158

> <CNNaffinity_variance>
0.6217268705

$$$$
[H]c1nc(OC([H])([H])[H])c([H])c(N2C(=O)N(c3c([H])c([H])c(-c4c([H])c([H])c(-c5c([H])c(=O)n([H])n5[H])c([H])c4[H])c([H])c3[H])C(=O)C23C([H])([H])C([H])([H])N(C([H])([H])c2nc([H])c([H])c([H])c2C([H])([H])[H])C([H])([H])C3([H])[H])n1


 48 54  0  0  0  0  0  0  0  0999 V2000
   14.5218   25.9449   -3.0170 N   0  0  0  0  0  0  0  0  0  0  0  0
   13.4287   26.3097   -2.1415 C   0  0  0  0  0  0  0  0  0  0  0  0
   12.8551   27.4269   -2.0708 O   0  0  0  0  0  0  0  0  0  0  0  0
   13.0675   25.1841   -1.3281 N   0  0  0  0  0  0  0  0  0  0  0  0
   13.9451   24.1527   -1.7226 C   0  0  0  0  0  0  0  0  0  0  0  0
   14.1870   23.0850   -1.0602 O   0  0  0  0  0  0  0  0  0  0  0  0
   14.5526   24.5113   -3.0512 C   0  0  0  0  0  0  0  0  0  0  0  0
   15.9507   23.9365   -2.9986 C   0  0  0  0  0  0  0  0  0  0  0  0
   16.4895   23.6298   -4.3448 C   0  0  0  0  0  0  0  0  0  0  0  0
   15.6915   22.7364   -5.1155 N   0  0  0  0  0  0  0  0  0  0  0  0
   14.2938   22.9968   -5.0972 C   0  0  0  0  0  0  0  0  0  0  0  0
   13.7150   23.9278   -4.1187 C   0  0  0  0  0  0  0  0  0  0  0  0
   17.4726   27.9729   -3.9089 C   0  0  0  0  0  0  0  0  0  0  0  0
   16.6425   27.0371   -3.3371 C   0  0  0  0  0  0  0  0  0  0  0  0
   15.3018   26.9466   -3.6345 C   0  0  0  0  0  0  0  0  0  0  0  0
   14.8263   27.8295   -4.5250 N   0  0  0  0  0  0  0  0  0  0  0  0
   15.6539   28.7600   -5.0925 C   0  0  0  0  0  0  0  0  0  0  0  0
   16.9544   28.8334   -4.7922 N   0  0  0  0  0  0  0  0  0  0  0  0
   19.6471   29.0236   -4.1843 C   0  0  0  0  0  0  0  0  0  0  0  0
   18.8184   28.0364   -3.5884 O   0  0  0  0  0  0  0  0  0  0  0  0
   12.0530   25.1459   -0.3339 C   0  0  0  0  0  0  0  0  0  0  0  0
   12.1677   25.7626    0.8861 C   0  0  0  0  0  0  0  0  0  0  0  0
   11.1488   25.6506    1.8005 C   0  0  0  0  0  0  0  0  0  0  0  0
   10.0178   24.9219    1.4931 C   0  0  0  0  0  0  0  0  0  0  0  0
    9.8752   24.2949    0.2782 C   0  0  0  0  0  0  0  0  0  0  0  0
   10.8988   24.4115   -0.6328 C   0  0  0  0  0  0  0  0  0  0  0  0
    8.9336   24.7548    2.4515 C   0  0  0  0  0  0  0  0  0  0  0  0
    8.8106   23.4842    3.0236 C   0  0  0  0  0  0  0  0  0  0  0  0
    7.7801   23.2740    3.9145 C   0  0  0  0  0  0  0  0  0  0  0  0
    6.9033   24.2921    4.2250 C   0  0  0  0  0  0  0  0  0  0  0  0
    7.0636   25.5258    3.6384 C   0  0  0  0  0  0  0  0  0  0  0  0
    8.0875   25.7921    2.7327 C   0  0  0  0  0  0  0  0  0  0  0  0
    5.8030   24.0549    5.1581 C   0  0  0  0  0  0  0  0  0  0  0  0
    5.2749   22.8329    5.5060 C   0  0  0  0  0  0  0  0  0  0  0  0
    4.2570   23.0697    6.4016 C   0  0  0  0  0  0  0  0  0  0  0  0
    3.5605   22.1693    6.9230 O   0  0  0  0  0  0  0  0  0  0  0  0
    4.1629   24.3727    6.5955 N   0  0  0  0  0  0  0  0  0  0  0  0
    5.0997   24.9684    5.8420 N   0  0  0  0  0  0  0  0  0  0  0  0
    3.5126   24.9312    7.1994 H   0  0  0  0  0  0  0  0  0  0  0  0
    5.2618   25.9952    5.7882 H   0  0  0  0  0  0  0  0  0  0  0  0
   16.0028   21.3439   -4.8456 C   0  0  0  0  0  0  0  0  0  0  0  0
   15.2007   20.7555   -3.7628 C   0  0  0  0  0  0  0  0  0  0  0  0
   15.5215   20.9252   -2.4742 N   0  0  0  0  0  0  0  0  0  0  0  0
   14.7676   20.4246   -1.4601 C   0  0  0  0  0  0  0  0  0  0  0  0
   13.6183   19.7053   -1.6865 C   0  0  0  0  0  0  0  0  0  0  0  0
   13.2499   19.5060   -3.0152 C   0  0  0  0  0  0  0  0  0  0  0  0
   14.0442   20.0319   -4.0054 C   0  0  0  0  0  0  0  0  0  0  0  0
   13.6455   19.8025   -5.4194 C   0  0  0  0  0  0  0  0  0  0  0  0
 19 20  1  0  0  0
 20 13  1  0  0  0
 13 14  2  0  0  0
 14 15  1  0  0  0
 15 16  2  0  0  0
 16 17  1  0  0  0
 17 18  2  0  0  0
 15  1  1  0  0  0
  1  2  1  0  0  0
  2  3  2  0  0  0
  2  4  1  0  0  0
  4  5  1  0  0  0
  5  6  2  0  0  0
  5  7  1  0  0  0
  7  8  1  0  0  0
  8  9  1  0  0  0
  9 10  1  0  0  0
 10 41  1  0  0  0
 41 42  1  0  0  0
 42 43  2  0  0  0
 43 44  1  0  0  0
 44 45  2  0  0  0
 45 46  1  0  0  0
 46 47  2  0  0  0
 47 48  1  0  0  0
 10 11  1  0  0  0
 11 12  1  0  0  0
  4 21  1  0  0  0
 21 22  2  0  0  0
 22 23  1  0  0  0
 23 24  2  0  0  0
 24 25  1  0  0  0
 25 26  2  0  0  0
 24 27  1  0  0  0
 27 28  2  0  0  0
 28 29  1  0  0  0
 29 30  2  0  0  0
 30 31  1  0  0  0
 31 32  2  0  0  0
 30 33  1  0  0  0
 33 34  2  0  0  0
 34 35  1  0  0  0
 35 36  2  0  0  0
 35 37  1  0  0  0
 37 38  1  0  0  0
 18 13  1  0  0  0
  7  1  1  0  0  0
 12  7  1  0  0  0
 26 21  1  0  0  0
 32 27  1  0  0  0
 38 33  1  0  0  0
 47 42  1  0  0  0
 37 39  1  0  0  0
 38 40  1  0  0  0
M  END
> <minimizedAffinity>
23.68964

> <CNNscore>
0.4813168049

> <CNNaffinity>
7.7314019203

> <CNN_VS>
3.7212536335

> <CNNaffinity_variance>
1.0773773193

$$$$
[H]c1nc(OC([H])([H])[H])c([H])c(N2C(=O)N(c3c([H])c([H])c(-c4c([H])c([H])c(-c5c([H])c(=O)n([H])n5[H])c([H])c4[H])c([H])c3[H])C(=O)C23C([H])([H])C([H])([H])N(C([H])([H])c2nc([H])c([H])c([H])c2C([H])([H])[H])C([H])([H])C3([H])[H])n1


 48 54  0  0  0  0  0  0  0  0999 V2000
   14.8493   25.9342   -3.1834 N   0  0  0  0  0  0  0  0  0  0  0  0
   13.7319   26.2123   -2.3068 C   0  0  0  0  0  0  0  0  0  0  0  0
   13.1777   27.3253   -2.1155 O   0  0  0  0  0  0  0  0  0  0  0  0
   13.3194   25.0027   -1.6544 N   0  0  0  0  0  0  0  0  0  0  0  0
   14.1908   24.0083   -2.1455 C   0  0  0  0  0  0  0  0  0  0  0  0
   14.3875   22.8605   -1.6150 O   0  0  0  0  0  0  0  0  0  0  0  0
   14.8537   24.5158   -3.3968 C   0  0  0  0  0  0  0  0  0  0  0  0
   16.2375   23.9059   -3.3694 C   0  0  0  0  0  0  0  0  0  0  0  0
   16.8195   23.7575   -4.7243 C   0  0  0  0  0  0  0  0  0  0  0  0
   16.0334   22.9868   -5.6282 N   0  0  0  0  0  0  0  0  0  0  0  0
   14.6413   23.2760   -5.6249 C   0  0  0  0  0  0  0  0  0  0  0  0
   14.0449   24.0906   -4.5573 C   0  0  0  0  0  0  0  0  0  0  0  0
   17.8266   28.0769   -3.5826 C   0  0  0  0  0  0  0  0  0  0  0  0
   16.9593   27.0917   -3.1714 C   0  0  0  0  0  0  0  0  0  0  0  0
   15.6706   26.9865   -3.6429 C   0  0  0  0  0  0  0  0  0  0  0  0
   15.2855   27.9059   -4.5400 N   0  0  0  0  0  0  0  0  0  0  0  0
   16.1499   28.8855   -4.9475 C   0  0  0  0  0  0  0  0  0  0  0  0
   17.3989   28.9726   -4.4793 N   0  0  0  0  0  0  0  0  0  0  0  0
   20.2256   28.0745   -3.9746 C   0  0  0  0  0  0  0  0  0  0  0  0
   19.1183   28.1541   -3.0890 O   0  0  0  0  0  0  0  0  0  0  0  0
   12.2683   24.8645   -0.7082 C   0  0  0  0  0  0  0  0  0  0  0  0
   11.0633   24.2766   -0.9985 C   0  0  0  0  0  0  0  0  0  0  0  0
   10.0910   24.2103   -0.0306 C   0  0  0  0  0  0  0  0  0  0  0  0
   10.3254   24.7324    1.2252 C   0  0  0  0  0  0  0  0  0  0  0  0
   11.5235   25.3257    1.5444 C   0  0  0  0  0  0  0  0  0  0  0  0
   12.4929   25.3882    0.5709 C   0  0  0  0  0  0  0  0  0  0  0  0
    9.3047   24.7090    2.2643 C   0  0  0  0  0  0  0  0  0  0  0  0
    8.2285   25.5849    2.0872 C   0  0  0  0  0  0  0  0  0  0  0  0
    7.2540   25.6161    3.0613 C   0  0  0  0  0  0  0  0  0  0  0  0
    7.3472   24.8043    4.1723 C   0  0  0  0  0  0  0  0  0  0  0  0
    8.4234   23.9580    4.3037 C   0  0  0  0  0  0  0  0  0  0  0  0
    9.4352   23.8864    3.3492 C   0  0  0  0  0  0  0  0  0  0  0  0
    6.3174   24.8566    5.2087 C   0  0  0  0  0  0  0  0  0  0  0  0
    5.3037   23.9463    5.4011 C   0  0  0  0  0  0  0  0  0  0  0  0
    4.5644   24.3821    6.4770 C   0  0  0  0  0  0  0  0  0  0  0  0
    3.5608   23.7823    6.9250 O   0  0  0  0  0  0  0  0  0  0  0  0
    5.0961   25.5049    6.9249 N   0  0  0  0  0  0  0  0  0  0  0  0
    6.1578   25.7914    6.1562 N   0  0  0  0  0  0  0  0  0  0  0  0
    4.8144   26.1283    7.7197 H   0  0  0  0  0  0  0  0  0  0  0  0
    6.7741   26.6224    6.2710 H   0  0  0  0  0  0  0  0  0  0  0  0
   16.3076   21.5644   -5.5254 C   0  0  0  0  0  0  0  0  0  0  0  0
   15.1212   20.7519   -5.2186 C   0  0  0  0  0  0  0  0  0  0  0  0
   14.4311   20.1203   -6.1763 N   0  0  0  0  0  0  0  0  0  0  0  0
   13.3581   19.3310   -5.9058 C   0  0  0  0  0  0  0  0  0  0  0  0
   12.9032   19.1250   -4.6251 C   0  0  0  0  0  0  0  0  0  0  0  0
   13.5945   19.7657   -3.5991 C   0  0  0  0  0  0  0  0  0  0  0  0
   14.6732   20.5530   -3.9225 C   0  0  0  0  0  0  0  0  0  0  0  0
   15.3954   21.2398   -2.8190 C   0  0  0  0  0  0  0  0  0  0  0  0
 19 20  1  0  0  0
 20 13  1  0  0  0
 13 14  2  0  0  0
 14 15  1  0  0  0
 15 16  2  0  0  0
 16 17  1  0  0  0
 17 18  2  0  0  0
 15  1  1  0  0  0
  1  2  1  0  0  0
  2  3  2  0  0  0
  2  4  1  0  0  0
  4  5  1  0  0  0
  5  6  2  0  0  0
  5  7  1  0  0  0
  7  8  1  0  0  0
  8  9  1  0  0  0
  9 10  1  0  0  0
 10 41  1  0  0  0
 41 42  1  0  0  0
 42 43  2  0  0  0
 43 44  1  0  0  0
 44 45  2  0  0  0
 45 46  1  0  0  0
 46 47  2  0  0  0
 47 48  1  0  0  0
 10 11  1  0  0  0
 11 12  1  0  0  0
  4 21  1  0  0  0
 21 22  2  0  0  0
 22 23  1  0  0  0
 23 24  2  0  0  0
 24 25  1  0  0  0
 25 26  2  0  0  0
 24 27  1  0  0  0
 27 28  2  0  0  0
 28 29  1  0  0  0
 29 30  2  0  0  0
 30 31  1  0  0  0
 31 32  2  0  0  0
 30 33  1  0  0  0
 33 34  2  0  0  0
 34 35  1  0  0  0
 35 36  2  0  0  0
 35 37  1  0  0  0
 37 38  1  0  0  0
 18 13  1  0  0  0
  7  1  1  0  0  0
 12  7  1  0  0  0
 26 21  1  0  0  0
 32 27  1  0  0  0
 38 33  1  0  0  0
 47 42  1  0  0  0
 37 39  1  0  0  0
 38 40  1  0  0  0
M  END
> <minimizedAffinity>
24.42329

> <CNNscore>
0.4746160209

> <CNNaffinity>
7.6436548233

> <CNN_VS>
3.6278009415

> <CNNaffinity_variance>
0.7927769423

$$$$
[H]c1nc(OC([H])([H])[H])c([H])c(N2C(=O)N(c3c([H])c([H])c(-c4c([H])c([H])c(-c5c([H])c(=O)n([H])n5[H])c([H])c4[H])c([H])c3[H])C(=O)C23C([H])([H])C([H])([H])N(C([H])([H])c2nc([H])c([H])c([H])c2C([H])([H])[H])C([H])([H])C3([H])[H])n1


 48 54  0  0  0  0  0  0  0  0999 V2000
   16.1501   24.7671   -1.1379 N   0  0  0  0  0  0  0  0  0  0  0  0
   15.1312   24.2075   -0.2759 C   0  0  0  0  0  0  0  0  0  0  0  0
   15.2938   23.7221    0.8732 O   0  0  0  0  0  0  0  0  0  0  0  0
   13.8555   24.2799   -0.9288 N   0  0  0  0  0  0  0  0  0  0  0  0
   14.1183   24.8834   -2.1763 C   0  0  0  0  0  0  0  0  0  0  0  0
   13.3416   24.8634   -3.1931 O   0  0  0  0  0  0  0  0  0  0  0  0
   15.4626   25.5560   -2.1188 C   0  0  0  0  0  0  0  0  0  0  0  0
   16.0239   25.4060   -3.5152 C   0  0  0  0  0  0  0  0  0  0  0  0
   16.9977   26.4710   -3.8531 C   0  0  0  0  0  0  0  0  0  0  0  0
   16.4917   27.7977   -3.7389 N   0  0  0  0  0  0  0  0  0  0  0  0
   15.7296   28.0608   -2.5678 C   0  0  0  0  0  0  0  0  0  0  0  0
   15.2626   26.9618   -1.7116 C   0  0  0  0  0  0  0  0  0  0  0  0
   19.8197   24.8766   -1.5076 C   0  0  0  0  0  0  0  0  0  0  0  0
   18.4721   25.0884   -1.6831 C   0  0  0  0  0  0  0  0  0  0  0  0
   17.5129   24.4818   -0.9046 C   0  0  0  0  0  0  0  0  0  0  0  0
   17.9561   23.6554    0.0540 N   0  0  0  0  0  0  0  0  0  0  0  0
   19.2974   23.4457    0.2267 C   0  0  0  0  0  0  0  0  0  0  0  0
   20.2158   24.0438   -0.5386 N   0  0  0  0  0  0  0  0  0  0  0  0
   20.5693   26.8535   -2.7070 C   0  0  0  0  0  0  0  0  0  0  0  0
   20.7597   25.5040   -2.3081 O   0  0  0  0  0  0  0  0  0  0  0  0
   12.6124   23.8201   -0.4166 C   0  0  0  0  0  0  0  0  0  0  0  0
   11.4776   24.5901   -0.3846 C   0  0  0  0  0  0  0  0  0  0  0  0
   10.3242   24.0752    0.1549 C   0  0  0  0  0  0  0  0  0  0  0  0
   10.3081   22.7916    0.6617 C   0  0  0  0  0  0  0  0  0  0  0  0
   11.4296   21.9972    0.6415 C   0  0  0  0  0  0  0  0  0  0  0  0
   12.5809   22.5187    0.0994 C   0  0  0  0  0  0  0  0  0  0  0  0
    9.1117   22.2265    1.2711 C   0  0  0  0  0  0  0  0  0  0  0  0
    9.3069   21.5096    2.4563 C   0  0  0  0  0  0  0  0  0  0  0  0
    8.2054   20.9334    3.0515 C   0  0  0  0  0  0  0  0  0  0  0  0
    6.9540   21.0660    2.4872 C   0  0  0  0  0  0  0  0  0  0  0  0
    6.8098   21.7809    1.3212 C   0  0  0  0  0  0  0  0  0  0  0  0
    7.8888   22.3837    0.6791 C   0  0  0  0  0  0  0  0  0  0  0  0
    5.7941   20.4368    3.1166 C   0  0  0  0  0  0  0  0  0  0  0  0
    5.3345   20.6616    4.3940 C   0  0  0  0  0  0  0  0  0  0  0  0
    4.2299   19.8608    4.5756 C   0  0  0  0  0  0  0  0  0  0  0  0
    3.5630   19.8188    5.6344 O   0  0  0  0  0  0  0  0  0  0  0  0
    4.0197   19.1770    3.4655 N   0  0  0  0  0  0  0  0  0  0  0  0
    4.9675   19.5266    2.5825 N   0  0  0  0  0  0  0  0  0  0  0  0
    3.2832   18.4709    3.2237 H   0  0  0  0  0  0  0  0  0  0  0  0
    5.0570   19.1467    1.6175 H   0  0  0  0  0  0  0  0  0  0  0  0
   15.8242   28.2411   -4.9500 C   0  0  0  0  0  0  0  0  0  0  0  0
   15.7278   27.2043   -5.9881 C   0  0  0  0  0  0  0  0  0  0  0  0
   16.7320   26.9625   -6.8399 N   0  0  0  0  0  0  0  0  0  0  0  0
   16.6763   25.9797   -7.7772 C   0  0  0  0  0  0  0  0  0  0  0  0
   15.5805   25.1618   -7.9181 C   0  0  0  0  0  0  0  0  0  0  0  0
   14.5130   25.3815   -7.0503 C   0  0  0  0  0  0  0  0  0  0  0  0
   14.6167   26.3868   -6.1193 C   0  0  0  0  0  0  0  0  0  0  0  0
   13.4659   26.6179   -5.2065 C   0  0  0  0  0  0  0  0  0  0  0  0
 19 20  1  0  0  0
 20 13  1  0  0  0
 13 14  2  0  0  0
 14 15  1  0  0  0
 15 16  2  0  0  0
 16 17  1  0  0  0
 17 18  2  0  0  0
 15  1  1  0  0  0
  1  2  1  0  0  0
  2  3  2  0  0  0
  2  4  1  0  0  0
  4  5  1  0  0  0
  5  6  2  0  0  0
  5  7  1  0  0  0
  7  8  1  0  0  0
  8  9  1  0  0  0
  9 10  1  0  0  0
 10 41  1  0  0  0
 41 42  1  0  0  0
 42 43  2  0  0  0
 43 44  1  0  0  0
 44 45  2  0  0  0
 45 46  1  0  0  0
 46 47  2  0  0  0
 47 48  1  0  0  0
 10 11  1  0  0  0
 11 12  1  0  0  0
  4 21  1  0  0  0
 21 22  2  0  0  0
 22 23  1  0  0  0
 23 24  2  0  0  0
 24 25  1  0  0  0
 25 26  2  0  0  0
 24 27  1  0  0  0
 27 28  2  0  0  0
 28 29  1  0  0  0
 29 30  2  0  0  0
 30 31  1  0  0  0
 31 32  2  0  0  0
 30 33  1  0  0  0
 33 34  2  0  0  0
 34 35  1  0  0  0
 35 36  2  0  0  0
 35 37  1  0  0  0
 37 38  1  0  0  0
 18 13  1  0  0  0
  7  1  1  0  0  0
 12  7  1  0  0  0
 26 21  1  0  0  0
 32 27  1  0  0  0
 38 33  1  0  0  0
 47 42  1  0  0  0
 37 39  1  0  0  0
 38 40  1  0  0  0
M  END
> <minimizedAffinity>
24.39058

> <CNNscore>
0.4182834625

> <CNNaffinity>
7.6765198708

> <CNN_VS>
3.2109613419

> <CNNaffinity_variance>
0.7111486793

$$$$
[H]c1nc(OC([H])([H])[H])c([H])c(N2C(=O)N(c3c([H])c([H])c(-c4c([H])c([H])c(-c5c([H])c(=O)n([H])n5[H])c([H])c4[H])c([H])c3[H])C(=O)C23C([H])([H])C([H])([H])N(C([H])([H])c2nc([H])c([H])c([H])c2C([H])([H])[H])C([H])([H])C3([H])[H])n1


 48 54  0  0  0  0  0  0  0  0999 V2000
   10.6236   21.2113    1.1669 N   0  0  0  0  0  0  0  0  0  0  0  0
   11.6318   21.9139    0.4025 C   0  0  0  0  0  0  0  0  0  0  0  0
   12.8717   21.7019    0.4084 O   0  0  0  0  0  0  0  0  0  0  0  0
   11.0085   22.9287   -0.3979 N   0  0  0  0  0  0  0  0  0  0  0  0
    9.6317   22.8262   -0.1091 C   0  0  0  0  0  0  0  0  0  0  0  0
    8.7494   23.7200   -0.3543 O   0  0  0  0  0  0  0  0  0  0  0  0
    9.3669   21.4932    0.5357 C   0  0  0  0  0  0  0  0  0  0  0  0
    8.2460   21.7597    1.5156 C   0  0  0  0  0  0  0  0  0  0  0  0
    7.4355   20.5504    1.7937 C   0  0  0  0  0  0  0  0  0  0  0  0
    6.8574   19.9439    0.6418 N   0  0  0  0  0  0  0  0  0  0  0  0
    7.7231   19.8152   -0.4788 C   0  0  0  0  0  0  0  0  0  0  0  0
    9.0076   20.5274   -0.5226 C   0  0  0  0  0  0  0  0  0  0  0  0
   12.6766   19.1002    3.3904 C   0  0  0  0  0  0  0  0  0  0  0  0
   12.2357   19.8505    2.3252 C   0  0  0  0  0  0  0  0  0  0  0  0
   10.9931   20.4412    2.2909 C   0  0  0  0  0  0  0  0  0  0  0  0
   10.2107   20.2501    3.3632 N   0  0  0  0  0  0  0  0  0  0  0  0
   10.6512   19.5029    4.4218 C   0  0  0  0  0  0  0  0  0  0  0  0
   11.8619   18.9365    4.4386 N   0  0  0  0  0  0  0  0  0  0  0  0
   14.9035   18.9141    2.4339 C   0  0  0  0  0  0  0  0  0  0  0  0
   13.9340   18.5199    3.3938 O   0  0  0  0  0  0  0  0  0  0  0  0
   11.6602   23.8400   -1.2720 C   0  0  0  0  0  0  0  0  0  0  0  0
   11.1392   25.0622   -1.6138 C   0  0  0  0  0  0  0  0  0  0  0  0
   11.8235   25.8697   -2.4891 C   0  0  0  0  0  0  0  0  0  0  0  0
   13.0269   25.4533   -3.0211 C   0  0  0  0  0  0  0  0  0  0  0  0
   13.5732   24.2347   -2.6953 C   0  0  0  0  0  0  0  0  0  0  0  0
   12.8832   23.4314   -1.8179 C   0  0  0  0  0  0  0  0  0  0  0  0
   13.7620   26.2698   -3.9776 C   0  0  0  0  0  0  0  0  0  0  0  0
   14.6632   27.1909   -3.4333 C   0  0  0  0  0  0  0  0  0  0  0  0
   15.3590   28.0042   -4.3017 C   0  0  0  0  0  0  0  0  0  0  0  0
   15.1649   27.9043   -5.6634 C   0  0  0  0  0  0  0  0  0  0  0  0
   14.2687   26.9832   -6.1535 C   0  0  0  0  0  0  0  0  0  0  0  0
   13.5405   26.1370   -5.3208 C   0  0  0  0  0  0  0  0  0  0  0  0
   15.8949   28.7829   -6.5758 C   0  0  0  0  0  0  0  0  0  0  0  0
   16.7351   28.3902   -7.5923 C   0  0  0  0  0  0  0  0  0  0  0  0
   17.2116   29.5341   -8.1911 C   0  0  0  0  0  0  0  0  0  0  0  0
   18.0059   29.5381   -9.1590 O   0  0  0  0  0  0  0  0  0  0  0  0
   16.6909   30.5793   -7.5742 N   0  0  0  0  0  0  0  0  0  0  0  0
   15.8935   30.1233   -6.5962 N   0  0  0  0  0  0  0  0  0  0  0  0
   16.8169   31.6070   -7.7402 H   0  0  0  0  0  0  0  0  0  0  0  0
   15.3495   30.7200   -5.9394 H   0  0  0  0  0  0  0  0  0  0  0  0
    5.5760   20.5309    0.2919 C   0  0  0  0  0  0  0  0  0  0  0  0
    5.0889   20.1419   -1.0398 C   0  0  0  0  0  0  0  0  0  0  0  0
    4.8825   18.8610   -1.3697 N   0  0  0  0  0  0  0  0  0  0  0  0
    4.3921   18.4870   -2.5810 C   0  0  0  0  0  0  0  0  0  0  0  0
    4.0728   19.4007   -3.5570 C   0  0  0  0  0  0  0  0  0  0  0  0
    4.2738   20.7454   -3.2528 C   0  0  0  0  0  0  0  0  0  0  0  0
    4.7712   21.0738   -2.0148 C   0  0  0  0  0  0  0  0  0  0  0  0
    4.9913   22.5119   -1.7070 C   0  0  0  0  0  0  0  0  0  0  0  0
 19 20  1  0  0  0
 20 13  1  0  0  0
 13 14  2  0  0  0
 14 15  1  0  0  0
 15 16  2  0  0  0
 16 17  1  0  0  0
 17 18  2  0  0  0
 15  1  1  0  0  0
  1  2  1  0  0  0
  2  3  2  0  0  0
  2  4  1  0  0  0
  4  5  1  0  0  0
  5  6  2  0  0  0
  5  7  1  0  0  0
  7  8  1  0  0  0
  8  9  1  0  0  0
  9 10  1  0  0  0
 10 41  1  0  0  0
 41 42  1  0  0  0
 42 43  2  0  0  0
 43 44  1  0  0  0
 44 45  2  0  0  0
 45 46  1  0  0  0
 46 47  2  0  0  0
 47 48  1  0  0  0
 10 11  1  0  0  0
 11 12  1  0  0  0
  4 21  1  0  0  0
 21 22  2  0  0  0
 22 23  1  0  0  0
 23 24  2  0  0  0
 24 25  1  0  0  0
 25 26  2  0  0  0
 24 27  1  0  0  0
 27 28  2  0  0  0
 28 29  1  0  0  0
 29 30  2  0  0  0
 30 31  1  0  0  0
 31 32  2  0  0  0
 30 33  1  0  0  0
 33 34  2  0  0  0
 34 35  1  0  0  0
 35 36  2  0  0  0
 35 37  1  0  0  0
 37 38  1  0  0  0
 18 13  1  0  0  0
  7  1  1  0  0  0
 12  7  1  0  0  0
 26 21  1  0  0  0
 32 27  1  0  0  0
 38 33  1  0  0  0
 47 42  1  0  0  0
 37 39  1  0  0  0
 38 40  1  0  0  0
M  END
> <minimizedAffinity>
20.12120

> <CNNscore>
0.4044803083

> <CNNaffinity>
7.2761964798

> <CNN_VS>
2.9430782795

> <CNNaffinity_variance>
0.5750317574

$$$$
[H]c1nc(OC([H])([H])[H])c([H])c(N2C(=O)N(c3c([H])c([H])c(-c4c([H])c([H])c(-c5c([H])c(=O)n([H])n5[H])c([H])c4[H])c([H])c3[H])C(=O)C23C([H])([H])C([H])([H])N(C([H])([H])c2nc([H])c([H])c([H])c2C([H])([H])[H])C([H])([H])C3([H])[H])n1


 48 54  0  0  0  0  0  0  0  0999 V2000
   11.3115   21.8904    1.2314 N   0  0  0  0  0  0  0  0  0  0  0  0
   12.1212   22.4026    0.1468 C   0  0  0  0  0  0  0  0  0  0  0  0
   13.0280   21.7921   -0.4755 O   0  0  0  0  0  0  0  0  0  0  0  0
   11.7408   23.7561   -0.1400 N   0  0  0  0  0  0  0  0  0  0  0  0
   10.7052   24.0449    0.7730 C   0  0  0  0  0  0  0  0  0  0  0  0
   10.2874   25.2144    1.0817 O   0  0  0  0  0  0  0  0  0  0  0  0
   10.1697   22.7531    1.3272 C   0  0  0  0  0  0  0  0  0  0  0  0
    9.7796   23.0817    2.7511 C   0  0  0  0  0  0  0  0  0  0  0  0
    8.7115   22.1930    3.2667 C   0  0  0  0  0  0  0  0  0  0  0  0
    7.5174   22.1855    2.4902 N   0  0  0  0  0  0  0  0  0  0  0  0
    7.7058   22.1077    1.0830 C   0  0  0  0  0  0  0  0  0  0  0  0
    9.0323   22.3229    0.4887 C   0  0  0  0  0  0  0  0  0  0  0  0
   13.4767   19.1499    2.4217 C   0  0  0  0  0  0  0  0  0  0  0  0
   12.9933   20.2489    1.7507 C   0  0  0  0  0  0  0  0  0  0  0  0
   11.7251   20.7460    1.9474 C   0  0  0  0  0  0  0  0  0  0  0  0
   10.9615   20.0995    2.8403 N   0  0  0  0  0  0  0  0  0  0  0  0
   11.4444   19.0060    3.5066 C   0  0  0  0  0  0  0  0  0  0  0  0
   12.6795   18.5366    3.3035 N   0  0  0  0  0  0  0  0  0  0  0  0
   15.6368   18.4585    3.2961 C   0  0  0  0  0  0  0  0  0  0  0  0
   14.7591   18.6755    2.2011 O   0  0  0  0  0  0  0  0  0  0  0  0
   12.3108   24.6077   -1.1244 C   0  0  0  0  0  0  0  0  0  0  0  0
   11.5828   25.5163   -1.8499 C   0  0  0  0  0  0  0  0  0  0  0  0
   12.2101   26.2808   -2.8032 C   0  0  0  0  0  0  0  0  0  0  0  0
   13.5637   26.1347   -3.0293 C   0  0  0  0  0  0  0  0  0  0  0  0
   14.3180   25.2334   -2.3166 C   0  0  0  0  0  0  0  0  0  0  0  0
   13.6839   24.4716   -1.3632 C   0  0  0  0  0  0  0  0  0  0  0  0
   14.2536   26.9050   -4.0553 C   0  0  0  0  0  0  0  0  0  0  0  0
   14.0562   26.4848   -5.3749 C   0  0  0  0  0  0  0  0  0  0  0  0
   14.7133   27.1679   -6.3754 C   0  0  0  0  0  0  0  0  0  0  0  0
   15.5378   28.2315   -6.0734 C   0  0  0  0  0  0  0  0  0  0  0  0
   15.7012   28.6098   -4.7612 C   0  0  0  0  0  0  0  0  0  0  0  0
   15.0606   27.9548   -3.7123 C   0  0  0  0  0  0  0  0  0  0  0  0
   16.2441   28.9393   -7.1400 C   0  0  0  0  0  0  0  0  0  0  0  0
   16.5924   28.4285   -8.3693 C   0  0  0  0  0  0  0  0  0  0  0  0
   17.2450   29.4277   -9.0548 C   0  0  0  0  0  0  0  0  0  0  0  0
   17.6990   29.2989  -10.2146 O   0  0  0  0  0  0  0  0  0  0  0  0
   17.2963   30.5003   -8.2861 N   0  0  0  0  0  0  0  0  0  0  0  0
   16.6897   30.2035   -7.1267 N   0  0  0  0  0  0  0  0  0  0  0  0
   17.7116   31.4478   -8.4571 H   0  0  0  0  0  0  0  0  0  0  0  0
   16.5794   30.8566   -6.3237 H   0  0  0  0  0  0  0  0  0  0  0  0
    6.6025   23.2465    2.8724 C   0  0  0  0  0  0  0  0  0  0  0  0
    6.8387   23.7756    4.2238 C   0  0  0  0  0  0  0  0  0  0  0  0
    6.6655   23.0227    5.3171 N   0  0  0  0  0  0  0  0  0  0  0  0
    6.9203   23.4827    6.5705 C   0  0  0  0  0  0  0  0  0  0  0  0
    7.3750   24.7584    6.8054 C   0  0  0  0  0  0  0  0  0  0  0  0
    7.5679   25.5746    5.6929 C   0  0  0  0  0  0  0  0  0  0  0  0
    7.2967   25.0643    4.4462 C   0  0  0  0  0  0  0  0  0  0  0  0
    7.4964   25.9495    3.2682 C   0  0  0  0  0  0  0  0  0  0  0  0
 19 20  1  0  0  0
 20 13  1  0  0  0
 13 14  2  0  0  0
 14 15  1  0  0  0
 15 16  2  0  0  0
 16 17  1  0  0  0
 17 18  2  0  0  0
 15  1  1  0  0  0
  1  2  1  0  0  0
  2  3  2  0  0  0
  2  4  1  0  0  0
  4  5  1  0  0  0
  5  6  2  0  0  0
  5  7  1  0  0  0
  7  8  1  0  0  0
  8  9  1  0  0  0
  9 10  1  0  0  0
 10 41  1  0  0  0
 41 42  1  0  0  0
 42 43  2  0  0  0
 43 44  1  0  0  0
 44 45  2  0  0  0
 45 46  1  0  0  0
 46 47  2  0  0  0
 47 48  1  0  0  0
 10 11  1  0  0  0
 11 12  1  0  0  0
  4 21  1  0  0  0
 21 22  2  0  0  0
 22 23  1  0  0  0
 23 24  2  0  0  0
 24 25  1  0  0  0
 25 26  2  0  0  0
 24 27  1  0  0  0
 27 28  2  0  0  0
 28 29  1  0  0  0
 29 30  2  0  0  0
 30 31  1  0  0  0
 31 32  2  0  0  0
 30 33  1  0  0  0
 33 34  2  0  0  0
 34 35  1  0  0  0
 35 36  2  0  0  0
 35 37  1  0  0  0
 37 38  1  0  0  0
 18 13  1  0  0  0
  7  1  1  0  0  0
 12  7  1  0  0  0
 26 21  1  0  0  0
 32 27  1  0  0  0
 38 33  1  0  0  0
 47 42  1  0  0  0
 37 39  1  0  0  0
 38 40  1  0  0  0
M  END
> <minimizedAffinity>
30.43658

> <CNNscore>
0.3710939288

> <CNNaffinity>
7.1864776611

> <CNN_VS>
2.6668581963

> <CNNaffinity_variance>
0.2696732581

$$$$
[H]c1nc(OC([H])([H])[H])c([H])c(N2C(=O)N(c3c([H])c([H])c(-c4c([H])c([H])c(-c5c([H])c(=O)n([H])n5[H])c([H])c4[H])c([H])c3[H])C(=O)C23C([H])([H])C([H])([H])N(C([H])([H])c2nc([H])c([H])c([H])c2C([H])([H])[H])C([H])([H])C3([H])[H])n1


 48 54  0  0  0  0  0  0  0  0999 V2000
   12.0875   26.9375   -3.3697 N   0  0  0  0  0  0  0  0  0  0  0  0
   11.0307   25.9910   -3.0840 C   0  0  0  0  0  0  0  0  0  0  0  0
    9.8184   26.0892   -3.4050 O   0  0  0  0  0  0  0  0  0  0  0  0
   11.5664   24.8773   -2.3550 N   0  0  0  0  0  0  0  0  0  0  0  0
   12.9401   25.1631   -2.2103 C   0  0  0  0  0  0  0  0  0  0  0  0
   13.7336   24.6078   -1.3739 O   0  0  0  0  0  0  0  0  0  0  0  0
   13.3230   26.2290   -3.2002 C   0  0  0  0  0  0  0  0  0  0  0  0
   14.3904   27.0371   -2.4965 C   0  0  0  0  0  0  0  0  0  0  0  0
   15.3116   27.7081   -3.4439 C   0  0  0  0  0  0  0  0  0  0  0  0
   15.9720   26.8322   -4.3526 N   0  0  0  0  0  0  0  0  0  0  0  0
   15.1477   25.8403   -4.9513 C   0  0  0  0  0  0  0  0  0  0  0  0
   13.7997   25.5696   -4.4330 C   0  0  0  0  0  0  0  0  0  0  0  0
   10.1695   29.8024   -4.6847 C   0  0  0  0  0  0  0  0  0  0  0  0
   10.5574   28.5345   -4.3188 C   0  0  0  0  0  0  0  0  0  0  0  0
   11.7729   28.2652   -3.7322 C   0  0  0  0  0  0  0  0  0  0  0  0
   12.5834   29.3140   -3.5279 N   0  0  0  0  0  0  0  0  0  0  0  0
   12.1956   30.5747   -3.8930 C   0  0  0  0  0  0  0  0  0  0  0  0
   11.0106   30.8183   -4.4616 N   0  0  0  0  0  0  0  0  0  0  0  0
    8.2209   28.9745   -5.8787 C   0  0  0  0  0  0  0  0  0  0  0  0
    8.9381   30.0396   -5.2723 O   0  0  0  0  0  0  0  0  0  0  0  0
   10.8457   23.7497   -1.8771 C   0  0  0  0  0  0  0  0  0  0  0  0
   10.9616   22.4946   -2.4184 C   0  0  0  0  0  0  0  0  0  0  0  0
   10.2051   21.4658   -1.9124 C   0  0  0  0  0  0  0  0  0  0  0  0
    9.3341   21.6945   -0.8665 C   0  0  0  0  0  0  0  0  0  0  0  0
    9.1986   22.9412   -0.3039 C   0  0  0  0  0  0  0  0  0  0  0  0
    9.9594   23.9666   -0.8149 C   0  0  0  0  0  0  0  0  0  0  0  0
    8.4927   20.6341   -0.3282 C   0  0  0  0  0  0  0  0  0  0  0  0
    8.3323   19.5062   -1.1400 C   0  0  0  0  0  0  0  0  0  0  0  0
    7.5209   18.4908   -0.6817 C   0  0  0  0  0  0  0  0  0  0  0  0
    6.8913   18.5942    0.5410 C   0  0  0  0  0  0  0  0  0  0  0  0
    7.0791   19.7219    1.3056 C   0  0  0  0  0  0  0  0  0  0  0  0
    7.8886   20.7765    0.8906 C   0  0  0  0  0  0  0  0  0  0  0  0
    6.0189   17.5194    1.0111 C   0  0  0  0  0  0  0  0  0  0  0  0
    5.0626   17.6140    1.9961 C   0  0  0  0  0  0  0  0  0  0  0  0
    4.4841   16.3716    2.1220 C   0  0  0  0  0  0  0  0  0  0  0  0
    3.5693   16.1051    2.9343 O   0  0  0  0  0  0  0  0  0  0  0  0
    5.0555   15.5526    1.2578 N   0  0  0  0  0  0  0  0  0  0  0  0
    5.9848   16.2487    0.5855 N   0  0  0  0  0  0  0  0  0  0  0  0
    4.8875   14.5363    1.0613 H   0  0  0  0  0  0  0  0  0  0  0  0
    6.5991   15.8628   -0.1609 H   0  0  0  0  0  0  0  0  0  0  0  0
   17.1955   26.2801   -3.7981 C   0  0  0  0  0  0  0  0  0  0  0  0
   16.9913   25.5035   -2.5664 C   0  0  0  0  0  0  0  0  0  0  0  0
   17.2346   26.0219   -1.3564 N   0  0  0  0  0  0  0  0  0  0  0  0
   17.0107   25.3329   -0.2063 C   0  0  0  0  0  0  0  0  0  0  0  0
   16.5174   24.0499   -0.2041 C   0  0  0  0  0  0  0  0  0  0  0  0
   16.2514   23.4738   -1.4444 C   0  0  0  0  0  0  0  0  0  0  0  0
   16.4937   24.2103   -2.5787 C   0  0  0  0  0  0  0  0  0  0  0  0
   16.2158   23.5796   -3.8964 C   0  0  0  0  0  0  0  0  0  0  0  0
 19 20  1  0  0  0
 20 13  1  0  0  0
 13 14  2  0  0  0
 14 15  1  0  0  0
 15 16  2  0  0  0
 16 17  1  0  0  0
 17 18  2  0  0  0
 15  1  1  0  0  0
  1  2  1  0  0  0
  2  3  2  0  0  0
  2  4  1  0  0  0
  4  5  1  0  0  0
  5  6  2  0  0  0
  5  7  1  0  0  0
  7  8  1  0  0  0
  8  9  1  0  0  0
  9 10  1  0  0  0
 10 41  1  0  0  0
 41 42  1  0  0  0
 42 43  2  0  0  0
 43 44  1  0  0  0
 44 45  2  0  0  0
 45 46  1  0  0  0
 46 47  2  0  0  0
 47 48  1  0  0  0
 10 11  1  0  0  0
 11 12  1  0  0  0
  4 21  1  0  0  0
 21 22  2  0  0  0
 22 23  1  0  0  0
 23 24  2  0  0  0
 24 25  1  0  0  0
 25 26  2  0  0  0
 24 27  1  0  0  0
 27 28  2  0  0  0
 28 29  1  0  0  0
 29 30  2  0  0  0
 30 31  1  0  0  0
 31 32  2  0  0  0
 30 33  1  0  0  0
 33 34  2  0  0  0
 34 35  1  0  0  0
 35 36  2  0  0  0
 35 37  1  0  0  0
 37 38  1  0  0  0
 18 13  1  0  0  0
  7  1  1  0  0  0
 12  7  1  0  0  0
 26 21  1  0  0  0
 32 27  1  0  0  0
 38 33  1  0  0  0
 47 42  1  0  0  0
 37 39  1  0  0  0
 38 40  1  0  0  0
M  END
> <minimizedAffinity>
27.38490

> <CNNscore>
0.3681498170

> <CNNaffinity>
7.0953760147

> <CNN_VS>
2.6121613979

> <CNNaffinity_variance>
0.5555438995

$$$$
[H]c1nc(OC([H])([H])[H])c([H])c(N2C(=O)N(c3c([H])c([H])c(-c4c([H])c([H])c(-c5c([H])c(=O)n([H])n5[H])c([H])c4[H])c([H])c3[H])C(=O)C23C([H])([H])C([H])([H])N(C([H])([H])c2nc([H])c([H])c([H])c2C([H])([H])[H])C([H])([H])C3([H])[H])n1


 48 54  0  0  0  0  0  0  0  0999 V2000
   10.1965   21.4869    3.1130 N   0  0  0  0  0  0  0  0  0  0  0  0
   10.9576   21.7028    1.9012 C   0  0  0  0  0  0  0  0  0  0  0  0
   11.6223   20.8477    1.2614 O   0  0  0  0  0  0  0  0  0  0  0  0
   10.8527   23.0782    1.5057 N   0  0  0  0  0  0  0  0  0  0  0  0
   10.0287   23.6763    2.4818 C   0  0  0  0  0  0  0  0  0  0  0  0
    9.9214   24.9327    2.6994 O   0  0  0  0  0  0  0  0  0  0  0  0
    9.2945   22.5961    3.2282 C   0  0  0  0  0  0  0  0  0  0  0  0
    9.1674   23.1264    4.6389 C   0  0  0  0  0  0  0  0  0  0  0  0
    8.0023   22.5572    5.3566 C   0  0  0  0  0  0  0  0  0  0  0  0
    6.7487   22.7610    4.7117 N   0  0  0  0  0  0  0  0  0  0  0  0
    6.7382   22.5221    3.3101 C   0  0  0  0  0  0  0  0  0  0  0  0
    7.9947   22.3720    2.5633 C   0  0  0  0  0  0  0  0  0  0  0  0
   11.8929   18.4955    4.4505 C   0  0  0  0  0  0  0  0  0  0  0  0
   11.5816   19.6109    3.7083 C   0  0  0  0  0  0  0  0  0  0  0  0
   10.4332   20.3431    3.9060 C   0  0  0  0  0  0  0  0  0  0  0  0
    9.6100   19.9140    4.8738 N   0  0  0  0  0  0  0  0  0  0  0  0
    9.9215   18.8038    5.6109 C   0  0  0  0  0  0  0  0  0  0  0  0
   11.0420   18.1044    5.4056 N   0  0  0  0  0  0  0  0  0  0  0  0
   13.8263   17.3089    5.3237 C   0  0  0  0  0  0  0  0  0  0  0  0
   13.0582   17.7812    4.2267 O   0  0  0  0  0  0  0  0  0  0  0  0
   11.4694   23.6871    0.3796 C   0  0  0  0  0  0  0  0  0  0  0  0
   11.0019   24.8349   -0.2085 C   0  0  0  0  0  0  0  0  0  0  0  0
   11.6435   25.3402   -1.3129 C   0  0  0  0  0  0  0  0  0  0  0  0
   12.7508   24.6965   -1.8270 C   0  0  0  0  0  0  0  0  0  0  0  0
   13.2418   23.5459   -1.2574 C   0  0  0  0  0  0  0  0  0  0  0  0
   12.5951   23.0458   -0.1516 C   0  0  0  0  0  0  0  0  0  0  0  0
   13.4346   25.1863   -3.0164 C   0  0  0  0  0  0  0  0  0  0  0  0
   14.3787   24.3221   -3.5810 C   0  0  0  0  0  0  0  0  0  0  0  0
   15.0701   24.7572   -4.6911 C   0  0  0  0  0  0  0  0  0  0  0  0
   14.8304   26.0079   -5.2205 C   0  0  0  0  0  0  0  0  0  0  0  0
   13.8919   26.8233   -4.6322 C   0  0  0  0  0  0  0  0  0  0  0  0
   13.1650   26.4330   -3.5101 C   0  0  0  0  0  0  0  0  0  0  0  0
   15.5808   26.4674   -6.3880 C   0  0  0  0  0  0  0  0  0  0  0  0
   15.9460   27.7645   -6.6668 C   0  0  0  0  0  0  0  0  0  0  0  0
   16.6296   27.7467   -7.8613 C   0  0  0  0  0  0  0  0  0  0  0  0
   17.1064   28.7665   -8.4094 O   0  0  0  0  0  0  0  0  0  0  0  0
   16.6827   26.5010   -8.2964 N   0  0  0  0  0  0  0  0  0  0  0  0
   16.0474   25.7270   -7.4034 N   0  0  0  0  0  0  0  0  0  0  0  0
   17.1127   26.0943   -9.1620 H   0  0  0  0  0  0  0  0  0  0  0  0
   15.9266   24.6961   -7.4823 H   0  0  0  0  0  0  0  0  0  0  0  0
    6.1457   24.0341    5.0648 C   0  0  0  0  0  0  0  0  0  0  0  0
    7.1219   25.0766    5.4141 C   0  0  0  0  0  0  0  0  0  0  0  0
    7.7462   25.0911    6.5982 N   0  0  0  0  0  0  0  0  0  0  0  0
    8.6824   26.0222    6.9209 C   0  0  0  0  0  0  0  0  0  0  0  0
    9.0554   27.0192    6.0512 C   0  0  0  0  0  0  0  0  0  0  0  0
    8.4281   27.0393    4.8074 C   0  0  0  0  0  0  0  0  0  0  0  0
    7.4885   26.0766    4.5276 C   0  0  0  0  0  0  0  0  0  0  0  0
    6.8186   26.1159    3.2006 C   0  0  0  0  0  0  0  0  0  0  0  0
 19 20  1  0  0  0
 20 13  1  0  0  0
 13 14  2  0  0  0
 14 15  1  0  0  0
 15 16  2  0  0  0
 16 17  1  0  0  0
 17 18  2  0  0  0
 15  1  1  0  0  0
  1  2  1  0  0  0
  2  3  2  0  0  0
  2  4  1  0  0  0
  4  5  1  0  0  0
  5  6  2  0  0  0
  5  7  1  0  0  0
  7  8  1  0  0  0
  8  9  1  0  0  0
  9 10  1  0  0  0
 10 41  1  0  0  0
 41 42  1  0  0  0
 42 43  2  0  0  0
 43 44  1  0  0  0
 44 45  2  0  0  0
 45 46  1  0  0  0
 46 47  2  0  0  0
 47 48  1  0  0  0
 10 11  1  0  0  0
 11 12  1  0  0  0
  4 21  1  0  0  0
 21 22  2  0  0  0
 22 23  1  0  0  0
 23 24  2  0  0  0
 24 25  1  0  0  0
 25 26  2  0  0  0
 24 27  1  0  0  0
 27 28  2  0  0  0
 28 29  1  0  0  0
 29 30  2  0  0  0
 30 31  1  0  0  0
 31 32  2  0  0  0
 30 33  1  0  0  0
 33 34  2  0  0  0
 34 35  1  0  0  0
 35 36  2  0  0  0
 35 37  1  0  0  0
 37 38  1  0  0  0
 18 13  1  0  0  0
  7  1  1  0  0  0
 12  7  1  0  0  0
 26 21  1  0  0  0
 32 27  1  0  0  0
 38 33  1  0  0  0
 47 42  1  0  0  0
 37 39  1  0  0  0
 38 40  1  0  0  0
M  END
> <minimizedAffinity>
2.83294

> <CNNscore>
0.3640924096

> <CNNaffinity>
7.0621733665

> <CNN_VS>
2.5712838173

> <CNNaffinity_variance>
0.2741361260

$$$$
[H]Oc1c([H])c([H])nc(N2C(=O)N(c3c([H])c([H])c(-c4c([H])c([H])c([H])c([H])c4[H])c([H])c3[H])C(=O)C23C([H])([H])C([H])([H])N(C([H])([H])c2nc([H])c([H])c([H])c2C([H])([H])[H])C([H])([H])C3([H])[H])c1[H]


 40 45  0  0  0  0  0  0  0  0999 V2000
   11.0803   22.7897   -0.8286 N   0  0  0  0  0  0  0  0  0  0  0  0
   12.3934   22.1439   -0.6479 C   0  0  0  0  0  0  0  0  0  0  0  0
   13.5313   22.8927   -1.2413 C   0  0  0  0  0  0  0  0  0  0  0  0
   13.4857   24.3655   -1.0776 C   0  0  0  0  0  0  0  0  0  0  0  0
   12.0786   24.9254   -1.0850 C   0  0  0  0  0  0  0  0  0  0  0  0
   11.1764   24.0692   -0.2142 C   0  0  0  0  0  0  0  0  0  0  0  0
   14.2829   25.0092   -2.0773 N   0  0  0  0  0  0  0  0  0  0  0  0
   15.6563   24.8610   -1.6178 C   0  0  0  0  0  0  0  0  0  0  0  0
   16.6576   24.8550   -2.3869 O   0  0  0  0  0  0  0  0  0  0  0  0
   15.6097   24.7324   -0.2051 N   0  0  0  0  0  0  0  0  0  0  0  0
   14.2149   24.7967    0.1680 C   0  0  0  0  0  0  0  0  0  0  0  0
   13.7681   25.1356    1.2734 O   0  0  0  0  0  0  0  0  0  0  0  0
   13.9363   25.7001   -3.2696 C   0  0  0  0  0  0  0  0  0  0  0  0
   14.5532   25.4358   -4.4645 C   0  0  0  0  0  0  0  0  0  0  0  0
   14.2029   26.1205   -5.6337 C   0  0  0  0  0  0  0  0  0  0  0  0
   14.8486   25.8345   -6.8512 O   0  0  0  0  0  0  0  0  0  0  0  0
   13.2227   27.0738   -5.5769 C   0  0  0  0  0  0  0  0  0  0  0  0
   12.6163   27.3215   -4.3637 C   0  0  0  0  0  0  0  0  0  0  0  0
   12.9670   26.6585   -3.2724 N   0  0  0  0  0  0  0  0  0  0  0  0
   14.3964   25.0977   -7.4108 H   0  0  0  0  0  0  0  0  0  0  0  0
   16.6982   24.6048    0.7089 C   0  0  0  0  0  0  0  0  0  0  0  0
   17.4301   25.7165    1.1356 C   0  0  0  0  0  0  0  0  0  0  0  0
   18.5039   25.6279    1.9886 C   0  0  0  0  0  0  0  0  0  0  0  0
   18.8515   24.3482    2.4313 C   0  0  0  0  0  0  0  0  0  0  0  0
   18.1600   23.2306    2.0380 C   0  0  0  0  0  0  0  0  0  0  0  0
   17.0815   23.3783    1.1728 C   0  0  0  0  0  0  0  0  0  0  0  0
   19.9912   24.2075    3.3197 C   0  0  0  0  0  0  0  0  0  0  0  0
   21.2131   24.6808    2.9063 C   0  0  0  0  0  0  0  0  0  0  0  0
   22.3074   24.5286    3.7609 C   0  0  0  0  0  0  0  0  0  0  0  0
   22.1211   23.9091    4.9856 C   0  0  0  0  0  0  0  0  0  0  0  0
   20.8934   23.4329    5.4020 C   0  0  0  0  0  0  0  0  0  0  0  0
   19.8051   23.5922    4.5370 C   0  0  0  0  0  0  0  0  0  0  0  0
   10.1363   21.8792   -0.2773 C   0  0  0  0  0  0  0  0  0  0  0  0
   11.2672   21.2644   -2.7479 C   0  0  0  0  0  0  0  0  0  0  0  0
    9.8489   20.8490   -2.4461 C   0  0  0  0  0  0  0  0  0  0  0  0
    9.1731   20.1795   -3.4097 C   0  0  0  0  0  0  0  0  0  0  0  0
    7.8636   19.7901   -3.1509 C   0  0  0  0  0  0  0  0  0  0  0  0
    7.3127   20.1036   -1.9257 C   0  0  0  0  0  0  0  0  0  0  0  0
    8.0162   20.7626   -1.0126 N   0  0  0  0  0  0  0  0  0  0  0  0
    9.2727   21.1580   -1.2060 C   0  0  0  0  0  0  0  0  0  0  0  0
 34 35  1  0  0  0
 35 36  2  0  0  0
 36 37  1  0  0  0
 37 38  2  0  0  0
 38 39  1  0  0  0
 39 40  2  0  0  0
 40 33  1  0  0  0
 33  1  1  0  0  0
  1  2  1  0  0  0
  2  3  1  0  0  0
  3  4  1  0  0  0
  4  5  1  0  0  0
  5  6  1  0  0  0
  4  7  1  0  0  0
  7  8  1  0  0  0
  8  9  2  0  0  0
  8 10  1  0  0  0
 10 11  1  0  0  0
 11 12  2  0  0  0
 10 21  1  0  0  0
 21 22  2  0  0  0
 22 23  1  0  0  0
 23 24  2  0  0  0
 24 25  1  0  0  0
 25 26  2  0  0  0
 24 27  1  0  0  0
 27 28  2  0  0  0
 28 29  1  0  0  0
 29 30  2  0  0  0
 30 31  1  0  0  0
 31 32  2  0  0  0
  7 13  1  0  0  0
 13 14  2  0  0  0
 14 15  1  0  0  0
 15 16  1  0  0  0
 15 17  2  0  0  0
 17 18  1  0  0  0
 18 19  2  0  0  0
 40 35  1  0  0  0
  6  1  1  0  0  0
 26 21  1  0  0  0
 32 27  1  0  0  0
 19 13  1  0  0  0
 11  4  1  0  0  0
 16 20  1  0  0  0
M  END
> <minimizedAffinity>
38.61130

> <CNNscore>
0.6086036563

> <CNNaffinity>
7.9062852859

> <CNN_VS>
4.8117942810

> <CNNaffinity_variance>
0.9536666870

$$$$
[H]Oc1c([H])c([H])nc(N2C(=O)N(c3c([H])c([H])c(-c4c([H])c([H])c([H])c([H])c4[H])c([H])c3[H])C(=O)C23C([H])([H])C([H])([H])N(C([H])([H])c2nc([H])c([H])c([H])c2C([H])([H])[H])C([H])([H])C3([H])[H])c1[H]


 40 45  0  0  0  0  0  0  0  0999 V2000
   14.5059   24.9760   -3.7040 N   0  0  0  0  0  0  0  0  0  0  0  0
   14.2261   23.5820   -3.3132 C   0  0  0  0  0  0  0  0  0  0  0  0
   13.8378   23.4111   -1.8892 C   0  0  0  0  0  0  0  0  0  0  0  0
   12.9336   24.4503   -1.3411 C   0  0  0  0  0  0  0  0  0  0  0  0
   13.1651   25.8218   -1.9403 C   0  0  0  0  0  0  0  0  0  0  0  0
   13.3145   25.7096   -3.4471 C   0  0  0  0  0  0  0  0  0  0  0  0
   13.0359   24.5067    0.0856 N   0  0  0  0  0  0  0  0  0  0  0  0
   12.2542   23.3759    0.5649 C   0  0  0  0  0  0  0  0  0  0  0  0
   12.4586   22.7981    1.6687 O   0  0  0  0  0  0  0  0  0  0  0  0
   11.2800   23.0942   -0.4281 N   0  0  0  0  0  0  0  0  0  0  0  0
   11.4896   24.0491   -1.4925 C   0  0  0  0  0  0  0  0  0  0  0  0
   10.6434   24.4221   -2.3180 O   0  0  0  0  0  0  0  0  0  0  0  0
   13.6877   25.4211    0.9563 C   0  0  0  0  0  0  0  0  0  0  0  0
   13.0058   26.4242    1.5943 C   0  0  0  0  0  0  0  0  0  0  0  0
   13.6569   27.3184    2.4517 C   0  0  0  0  0  0  0  0  0  0  0  0
   12.9386   28.3422    3.0974 O   0  0  0  0  0  0  0  0  0  0  0  0
   15.0038   27.1839    2.6536 C   0  0  0  0  0  0  0  0  0  0  0  0
   15.6678   26.1669    2.0011 C   0  0  0  0  0  0  0  0  0  0  0  0
   15.0269   25.3341    1.1952 N   0  0  0  0  0  0  0  0  0  0  0  0
   12.5586   28.0808    4.0182 H   0  0  0  0  0  0  0  0  0  0  0  0
   10.2528   22.1039   -0.4052 C   0  0  0  0  0  0  0  0  0  0  0  0
    8.9209   22.4364   -0.1424 C   0  0  0  0  0  0  0  0  0  0  0  0
    7.9115   21.5059   -0.0800 C   0  0  0  0  0  0  0  0  0  0  0  0
    8.2712   20.1724   -0.2961 C   0  0  0  0  0  0  0  0  0  0  0  0
    9.5660   19.8024   -0.5578 C   0  0  0  0  0  0  0  0  0  0  0  0
   10.5480   20.7856   -0.6087 C   0  0  0  0  0  0  0  0  0  0  0  0
    7.2384   19.1547   -0.2214 C   0  0  0  0  0  0  0  0  0  0  0  0
    6.2438   19.2908    0.7167 C   0  0  0  0  0  0  0  0  0  0  0  0
    5.2621   18.3000    0.7917 C   0  0  0  0  0  0  0  0  0  0  0  0
    5.3281   17.2232   -0.0771 C   0  0  0  0  0  0  0  0  0  0  0  0
    6.3275   17.0854   -1.0203 C   0  0  0  0  0  0  0  0  0  0  0  0
    7.3044   18.0850   -1.0856 C   0  0  0  0  0  0  0  0  0  0  0  0
   14.9403   24.9054   -5.0569 C   0  0  0  0  0  0  0  0  0  0  0  0
   15.3347   24.8202   -7.8133 C   0  0  0  0  0  0  0  0  0  0  0  0
   15.6750   26.0720   -7.0436 C   0  0  0  0  0  0  0  0  0  0  0  0
   16.1666   27.1230   -7.7414 C   0  0  0  0  0  0  0  0  0  0  0  0
   16.4883   28.2851   -7.0489 C   0  0  0  0  0  0  0  0  0  0  0  0
   16.2927   28.3143   -5.6837 C   0  0  0  0  0  0  0  0  0  0  0  0
   15.8080   27.2568   -5.0436 N   0  0  0  0  0  0  0  0  0  0  0  0
   15.4819   26.1205   -5.6559 C   0  0  0  0  0  0  0  0  0  0  0  0
 34 35  1  0  0  0
 35 36  2  0  0  0
 36 37  1  0  0  0
 37 38  2  0  0  0
 38 39  1  0  0  0
 39 40  2  0  0  0
 40 33  1  0  0  0
 33  1  1  0  0  0
  1  2  1  0  0  0
  2  3  1  0  0  0
  3  4  1  0  0  0
  4  5  1  0  0  0
  5  6  1  0  0  0
  4  7  1  0  0  0
  7  8  1  0  0  0
  8  9  2  0  0  0
  8 10  1  0  0  0
 10 11  1  0  0  0
 11 12  2  0  0  0
 10 21  1  0  0  0
 21 22  2  0  0  0
 22 23  1  0  0  0
 23 24  2  0  0  0
 24 25  1  0  0  0
 25 26  2  0  0  0
 24 27  1  0  0  0
 27 28  2  0  0  0
 28 29  1  0  0  0
 29 30  2  0  0  0
 30 31  1  0  0  0
 31 32  2  0  0  0
  7 13  1  0  0  0
 13 14  2  0  0  0
 14 15  1  0  0  0
 15 16  1  0  0  0
 15 17  2  0  0  0
 17 18  1  0  0  0
 18 19  2  0  0  0
 40 35  1  0  0  0
  6  1  1  0  0  0
 26 21  1  0  0  0
 32 27  1  0  0  0
 19 13  1  0  0  0
 11  4  1  0  0  0
 16 20  1  0  0  0
M  END
> <minimizedAffinity>
6.95314

> <CNNscore>
0.5955426693

> <CNNaffinity>
7.7504377365

> <CNN_VS>
4.6157164574

> <CNNaffinity_variance>
0.7413074970

$$$$
[H]Oc1c([H])c([H])nc(N2C(=O)N(c3c([H])c([H])c(-c4c([H])c([H])c([H])c([H])c4[H])c([H])c3[H])C(=O)C23C([H])([H])C([H])([H])N(C([H])([H])c2nc([H])c([H])c([H])c2C([H])([H])[H])C([H])([H])C3([H])[H])c1[H]


 40 45  0  0  0  0  0  0  0  0999 V2000
   14.2216   25.7098   -2.8708 N   0  0  0  0  0  0  0  0  0  0  0  0
   12.7541   25.7240   -2.7284 C   0  0  0  0  0  0  0  0  0  0  0  0
   12.2151   24.6673   -1.8337 C   0  0  0  0  0  0  0  0  0  0  0  0
   13.0006   24.4051   -0.6040 C   0  0  0  0  0  0  0  0  0  0  0  0
   14.4906   24.5998   -0.7925 C   0  0  0  0  0  0  0  0  0  0  0  0
   14.7516   25.8825   -1.5620 C   0  0  0  0  0  0  0  0  0  0  0  0
   12.7297   23.0920   -0.1025 N   0  0  0  0  0  0  0  0  0  0  0  0
   11.4457   23.2042    0.5744 C   0  0  0  0  0  0  0  0  0  0  0  0
   10.6478   22.2384    0.7316 O   0  0  0  0  0  0  0  0  0  0  0  0
   11.3097   24.5559    0.9851 N   0  0  0  0  0  0  0  0  0  0  0  0
   12.5042   25.2412    0.5466 C   0  0  0  0  0  0  0  0  0  0  0  0
   12.9746   26.2780    1.0367 O   0  0  0  0  0  0  0  0  0  0  0  0
   13.4740   21.8827   -0.1542 C   0  0  0  0  0  0  0  0  0  0  0  0
   13.1298   20.8565   -0.9947 C   0  0  0  0  0  0  0  0  0  0  0  0
   13.8710   19.6702   -1.0395 C   0  0  0  0  0  0  0  0  0  0  0  0
   13.5009   18.6277   -1.9098 O   0  0  0  0  0  0  0  0  0  0  0  0
   14.9619   19.5372   -0.2240 C   0  0  0  0  0  0  0  0  0  0  0  0
   15.2885   20.5834    0.6125 C   0  0  0  0  0  0  0  0  0  0  0  0
   14.5699   21.6955    0.6345 N   0  0  0  0  0  0  0  0  0  0  0  0
   13.9368   18.6753   -2.8415 H   0  0  0  0  0  0  0  0  0  0  0  0
   10.2443   25.1547    1.7219 C   0  0  0  0  0  0  0  0  0  0  0  0
   10.4838   26.1320    2.6921 C   0  0  0  0  0  0  0  0  0  0  0  0
    9.4867   26.7065    3.4432 C   0  0  0  0  0  0  0  0  0  0  0  0
    8.1821   26.2685    3.1970 C   0  0  0  0  0  0  0  0  0  0  0  0
    7.9026   25.3123    2.2540 C   0  0  0  0  0  0  0  0  0  0  0  0
    8.9505   24.7640    1.5227 C   0  0  0  0  0  0  0  0  0  0  0  0
    7.1003   26.8366    3.9812 C   0  0  0  0  0  0  0  0  0  0  0  0
    6.2616   25.9874    4.6620 C   0  0  0  0  0  0  0  0  0  0  0  0
    5.2146   26.5412    5.4023 C   0  0  0  0  0  0  0  0  0  0  0  0
    5.0615   27.9177    5.4217 C   0  0  0  0  0  0  0  0  0  0  0  0
    5.9038   28.7721    4.7376 C   0  0  0  0  0  0  0  0  0  0  0  0
    6.9490   28.2048    4.0004 C   0  0  0  0  0  0  0  0  0  0  0  0
   14.5149   26.7244   -3.8240 C   0  0  0  0  0  0  0  0  0  0  0  0
   15.4595   27.3928   -6.3581 C   0  0  0  0  0  0  0  0  0  0  0  0
   16.3523   27.5626   -5.1542 C   0  0  0  0  0  0  0  0  0  0  0  0
   17.6004   28.0445   -5.3622 C   0  0  0  0  0  0  0  0  0  0  0  0
   18.4389   28.2059   -4.2648 C   0  0  0  0  0  0  0  0  0  0  0  0
   17.9619   27.8678   -3.0154 C   0  0  0  0  0  0  0  0  0  0  0  0
   16.7293   27.3984   -2.8625 N   0  0  0  0  0  0  0  0  0  0  0  0
   15.8842   27.2252   -3.8766 C   0  0  0  0  0  0  0  0  0  0  0  0
 34 35  1  0  0  0
 35 36  2  0  0  0
 36 37  1  0  0  0
 37 38  2  0  0  0
 38 39  1  0  0  0
 39 40  2  0  0  0
 40 33  1  0  0  0
 33  1  1  0  0  0
  1  2  1  0  0  0
  2  3  1  0  0  0
  3  4  1  0  0  0
  4  5  1  0  0  0
  5  6  1  0  0  0
  4  7  1  0  0  0
  7  8  1  0  0  0
  8  9  2  0  0  0
  8 10  1  0  0  0
 10 11  1  0  0  0
 11 12  2  0  0  0
 10 21  1  0  0  0
 21 22  2  0  0  0
 22 23  1  0  0  0
 23 24  2  0  0  0
 24 25  1  0  0  0
 25 26  2  0  0  0
 24 27  1  0  0  0
 27 28  2  0  0  0
 28 29  1  0  0  0
 29 30  2  0  0  0
 30 31  1  0  0  0
 31 32  2  0  0  0
  7 13  1  0  0  0
 13 14  2  0  0  0
 14 15  1  0  0  0
 15 16  1  0  0  0
 15 17  2  0  0  0
 17 18  1  0  0  0
 18 19  2  0  0  0
 40 35  1  0  0  0
  6  1  1  0  0  0
 26 21  1  0  0  0
 32 27  1  0  0  0
 19 13  1  0  0  0
 11  4  1  0  0  0
 16 20  1  0  0  0
M  END
> <minimizedAffinity>
1.26266

> <CNNscore>
0.5784152746

> <CNNaffinity>
7.7053174973

> <CNN_VS>
4.4568734169

> <CNNaffinity_variance>
0.8191993833

$$$$
[H]Oc1c([H])c([H])nc(N2C(=O)N(c3c([H])c([H])c(-c4c([H])c([H])c([H])c([H])c4[H])c([H])c3[H])C(=O)C23C([H])([H])C([H])([H])N(C([H])([H])c2nc([H])c([H])c([H])c2C([H])([H])[H])C([H])([H])C3([H])[H])c1[H]


 40 45  0  0  0  0  0  0  0  0999 V2000
   14.3257   24.6528   -3.2303 N   0  0  0  0  0  0  0  0  0  0  0  0
   12.9132   24.3361   -2.9501 C   0  0  0  0  0  0  0  0  0  0  0  0
   12.7003   23.5090   -1.7342 C   0  0  0  0  0  0  0  0  0  0  0  0
   13.5498   23.8511   -0.5682 C   0  0  0  0  0  0  0  0  0  0  0  0
   14.9259   24.3505   -0.9561 C   0  0  0  0  0  0  0  0  0  0  0  0
   14.8118   25.3526   -2.0911 C   0  0  0  0  0  0  0  0  0  0  0  0
   13.6578   22.7354    0.3220 N   0  0  0  0  0  0  0  0  0  0  0  0
   12.4046   22.7211    1.0628 C   0  0  0  0  0  0  0  0  0  0  0  0
   11.9045   21.6823    1.5774 O   0  0  0  0  0  0  0  0  0  0  0  0
   11.9112   24.0519    1.0694 N   0  0  0  0  0  0  0  0  0  0  0  0
   12.8644   24.8476    0.3298 C   0  0  0  0  0  0  0  0  0  0  0  0
   13.0417   26.0692    0.4428 O   0  0  0  0  0  0  0  0  0  0  0  0
   14.7037   21.8016    0.5530 C   0  0  0  0  0  0  0  0  0  0  0  0
   14.6785   20.5400    0.0183 C   0  0  0  0  0  0  0  0  0  0  0  0
   15.7149   19.6285    0.2501 C   0  0  0  0  0  0  0  0  0  0  0  0
   15.6703   18.3372   -0.3081 O   0  0  0  0  0  0  0  0  0  0  0  0
   16.7737   20.0103    1.0285 C   0  0  0  0  0  0  0  0  0  0  0  0
   16.7767   21.2846    1.5548 C   0  0  0  0  0  0  0  0  0  0  0  0
   15.7829   22.1276    1.3192 N   0  0  0  0  0  0  0  0  0  0  0  0
   16.1070   18.2592   -1.2374 H   0  0  0  0  0  0  0  0  0  0  0  0
   10.7361   24.5576    1.7018 C   0  0  0  0  0  0  0  0  0  0  0  0
   10.7238   25.8040    2.3344 C   0  0  0  0  0  0  0  0  0  0  0  0
    9.6211   26.3083    2.9811 C   0  0  0  0  0  0  0  0  0  0  0  0
    8.4741   25.5090    2.9852 C   0  0  0  0  0  0  0  0  0  0  0  0
    8.4427   24.2802    2.3762 C   0  0  0  0  0  0  0  0  0  0  0  0
    9.5878   23.8185    1.7366 C   0  0  0  0  0  0  0  0  0  0  0  0
    7.2918   25.9962    3.6730 C   0  0  0  0  0  0  0  0  0  0  0  0
    6.6934   25.1891    4.6101 C   0  0  0  0  0  0  0  0  0  0  0  0
    5.5481   25.6593    5.2567 C   0  0  0  0  0  0  0  0  0  0  0  0
    5.0609   26.9141    4.9304 C   0  0  0  0  0  0  0  0  0  0  0  0
    5.6616   27.7261    3.9884 C   0  0  0  0  0  0  0  0  0  0  0  0
    6.8086   27.2437    3.3484 C   0  0  0  0  0  0  0  0  0  0  0  0
   14.3128   25.3605   -4.4644 C   0  0  0  0  0  0  0  0  0  0  0  0
   14.7801   26.2353   -7.0677 C   0  0  0  0  0  0  0  0  0  0  0  0
   15.4376   26.9412   -5.9081 C   0  0  0  0  0  0  0  0  0  0  0  0
   16.2424   27.9931   -6.1891 C   0  0  0  0  0  0  0  0  0  0  0  0
   16.8593   28.6553   -5.1334 C   0  0  0  0  0  0  0  0  0  0  0  0
   16.6238   28.2107   -3.8489 C   0  0  0  0  0  0  0  0  0  0  0  0
   15.8259   27.1735   -3.6241 N   0  0  0  0  0  0  0  0  0  0  0  0
   15.2091   26.5042   -4.5958 C   0  0  0  0  0  0  0  0  0  0  0  0
 34 35  1  0  0  0
 35 36  2  0  0  0
 36 37  1  0  0  0
 37 38  2  0  0  0
 38 39  1  0  0  0
 39 40  2  0  0  0
 40 33  1  0  0  0
 33  1  1  0  0  0
  1  2  1  0  0  0
  2  3  1  0  0  0
  3  4  1  0  0  0
  4  5  1  0  0  0
  5  6  1  0  0  0
  4  7  1  0  0  0
  7  8  1  0  0  0
  8  9  2  0  0  0
  8 10  1  0  0  0
 10 11  1  0  0  0
 11 12  2  0  0  0
 10 21  1  0  0  0
 21 22  2  0  0  0
 22 23  1  0  0  0
 23 24  2  0  0  0
 24 25  1  0  0  0
 25 26  2  0  0  0
 24 27  1  0  0  0
 27 28  2  0  0  0
 28 29  1  0  0  0
 29 30  2  0  0  0
 30 31  1  0  0  0
 31 32  2  0  0  0
  7 13  1  0  0  0
 13 14  2  0  0  0
 14 15  1  0  0  0
 15 16  1  0  0  0
 15 17  2  0  0  0
 17 18  1  0  0  0
 18 19  2  0  0  0
 40 35  1  0  0  0
  6  1  1  0  0  0
 26 21  1  0  0  0
 32 27  1  0  0  0
 19 13  1  0  0  0
 11  4  1  0  0  0
 16 20  1  0  0  0
M  END
> <minimizedAffinity>
3.38407

> <CNNscore>
0.5657222867

> <CNNaffinity>
7.7454195023

> <CNN_VS>
4.3817563057

> <CNNaffinity_variance>
0.8424096107

$$$$
[H]Oc1c([H])c([H])nc(N2C(=O)N(c3c([H])c([H])c(-c4c([H])c([H])c([H])c([H])c4[H])c([H])c3[H])C(=O)C23C([H])([H])C([H])([H])N(C([H])([H])c2nc([H])c([H])c([H])c2C([H])([H])[H])C([H])([H])C3([H])[H])c1[H]


 40 45  0  0  0  0  0  0  0  0999 V2000
   10.8904   29.2739   -4.6144 N   0  0  0  0  0  0  0  0  0  0  0  0
   10.4102   27.9002   -4.3771 C   0  0  0  0  0  0  0  0  0  0  0  0
   11.4744   26.8639   -4.4157 C   0  0  0  0  0  0  0  0  0  0  0  0
   12.7594   27.2393   -3.7786 C   0  0  0  0  0  0  0  0  0  0  0  0
   13.0834   28.7131   -3.9072 C   0  0  0  0  0  0  0  0  0  0  0  0
   11.8497   29.5428   -3.5990 C   0  0  0  0  0  0  0  0  0  0  0  0
   13.8314   26.4467   -4.2998 N   0  0  0  0  0  0  0  0  0  0  0  0
   13.7127   25.1616   -3.6260 C   0  0  0  0  0  0  0  0  0  0  0  0
   14.1304   24.0731   -4.1105 O   0  0  0  0  0  0  0  0  0  0  0  0
   13.0627   25.4011   -2.3872 N   0  0  0  0  0  0  0  0  0  0  0  0
   12.7919   26.8197   -2.3323 C   0  0  0  0  0  0  0  0  0  0  0  0
   12.6306   27.4945   -1.3051 O   0  0  0  0  0  0  0  0  0  0  0  0
   14.8617   26.7380   -5.2340 C   0  0  0  0  0  0  0  0  0  0  0  0
   14.9814   26.0546   -6.4159 C   0  0  0  0  0  0  0  0  0  0  0  0
   15.9986   26.3509   -7.3303 C   0  0  0  0  0  0  0  0  0  0  0  0
   16.1046   25.6372   -8.5388 O   0  0  0  0  0  0  0  0  0  0  0  0
   16.8905   27.3453   -7.0327 C   0  0  0  0  0  0  0  0  0  0  0  0
   16.7493   28.0189   -5.8380 C   0  0  0  0  0  0  0  0  0  0  0  0
   15.7770   27.7184   -4.9907 N   0  0  0  0  0  0  0  0  0  0  0  0
   15.5815   26.0492   -9.3244 H   0  0  0  0  0  0  0  0  0  0  0  0
   12.7548   24.4667   -1.3535 C   0  0  0  0  0  0  0  0  0  0  0  0
   11.4343   24.1600   -1.0133 C   0  0  0  0  0  0  0  0  0  0  0  0
   11.1004   23.2908   -0.0026 C   0  0  0  0  0  0  0  0  0  0  0  0
   12.1586   22.7030    0.6967 C   0  0  0  0  0  0  0  0  0  0  0  0
   13.4689   22.9754    0.3952 C   0  0  0  0  0  0  0  0  0  0  0  0
   13.7496   23.8635   -0.6373 C   0  0  0  0  0  0  0  0  0  0  0  0
   11.8501   21.7920    1.7843 C   0  0  0  0  0  0  0  0  0  0  0  0
   10.9062   22.1651    2.7106 C   0  0  0  0  0  0  0  0  0  0  0  0
   10.6257   21.2893    3.7619 C   0  0  0  0  0  0  0  0  0  0  0  0
   11.3061   20.0848    3.8313 C   0  0  0  0  0  0  0  0  0  0  0  0
   12.2551   19.7090    2.9009 C   0  0  0  0  0  0  0  0  0  0  0  0
   12.5264   20.5949    1.8524 C   0  0  0  0  0  0  0  0  0  0  0  0
    9.7201   30.0828   -4.6260 C   0  0  0  0  0  0  0  0  0  0  0  0
    7.6763   30.3777   -2.7560 C   0  0  0  0  0  0  0  0  0  0  0  0
    7.4313   29.5911   -4.0196 C   0  0  0  0  0  0  0  0  0  0  0  0
    6.2015   29.0524   -4.1943 C   0  0  0  0  0  0  0  0  0  0  0  0
    5.9572   28.3219   -5.3519 C   0  0  0  0  0  0  0  0  0  0  0  0
    6.9779   28.1790   -6.2688 C   0  0  0  0  0  0  0  0  0  0  0  0
    8.1680   28.7264   -6.0521 N   0  0  0  0  0  0  0  0  0  0  0  0
    8.4564   29.4363   -4.9633 C   0  0  0  0  0  0  0  0  0  0  0  0
 34 35  1  0  0  0
 35 36  2  0  0  0
 36 37  1  0  0  0
 37 38  2  0  0  0
 38 39  1  0  0  0
 39 40  2  0  0  0
 40 33  1  0  0  0
 33  1  1  0  0  0
  1  2  1  0  0  0
  2  3  1  0  0  0
  3  4  1  0  0  0
  4  5  1  0  0  0
  5  6  1  0  0  0
  4  7  1  0  0  0
  7  8  1  0  0  0
  8  9  2  0  0  0
  8 10  1  0  0  0
 10 11  1  0  0  0
 11 12  2  0  0  0
 10 21  1  0  0  0
 21 22  2  0  0  0
 22 23  1  0  0  0
 23 24  2  0  0  0
 24 25  1  0  0  0
 25 26  2  0  0  0
 24 27  1  0  0  0
 27 28  2  0  0  0
 28 29  1  0  0  0
 29 30  2  0  0  0
 30 31  1  0  0  0
 31 32  2  0  0  0
  7 13  1  0  0  0
 13 14  2  0  0  0
 14 15  1  0  0  0
 15 16  1  0  0  0
 15 17  2  0  0  0
 17 18  1  0  0  0
 18 19  2  0  0  0
 40 35  1  0  0  0
  6  1  1  0  0  0
 26 21  1  0  0  0
 32 27  1  0  0  0
 19 13  1  0  0  0
 11  4  1  0  0  0
 16 20  1  0  0  0
M  END
> <minimizedAffinity>
15.67302

> <CNNscore>
0.5409957170

> <CNNaffinity>
7.4021492004

> <CNN_VS>
4.0045309067

> <CNNaffinity_variance>
0.6966382265

$$$$
[H]Oc1c([H])c([H])nc(N2C(=O)N(c3c([H])c([H])c(-c4c([H])c([H])c([H])c([H])c4[H])c([H])c3[H])C(=O)C23C([H])([H])C([H])([H])N(C([H])([H])c2nc([H])c([H])c([H])c2C([H])([H])[H])C([H])([H])C3([H])[H])c1[H]


 40 45  0  0  0  0  0  0  0  0999 V2000
   10.3853   23.8940    0.9439 N   0  0  0  0  0  0  0  0  0  0  0  0
   11.2136   25.1000    0.7614 C   0  0  0  0  0  0  0  0  0  0  0  0
   12.6296   24.8229    0.4063 C   0  0  0  0  0  0  0  0  0  0  0  0
   12.8453   23.7155   -0.5555 C   0  0  0  0  0  0  0  0  0  0  0  0
   11.8287   22.6008   -0.4228 C   0  0  0  0  0  0  0  0  0  0  0  0
   10.4340   23.1857   -0.2889 C   0  0  0  0  0  0  0  0  0  0  0  0
   14.1733   23.1948   -0.4359 N   0  0  0  0  0  0  0  0  0  0  0  0
   15.0183   24.1523   -1.1350 C   0  0  0  0  0  0  0  0  0  0  0  0
   16.2415   24.3293   -0.8770 O   0  0  0  0  0  0  0  0  0  0  0  0
   14.2038   24.7950   -2.1034 N   0  0  0  0  0  0  0  0  0  0  0  0
   12.8819   24.2256   -1.9724 C   0  0  0  0  0  0  0  0  0  0  0  0
   12.0106   24.1885   -2.8532 O   0  0  0  0  0  0  0  0  0  0  0  0
   14.6798   22.0123    0.1677 C   0  0  0  0  0  0  0  0  0  0  0  0
   15.6619   22.0509    1.1227 C   0  0  0  0  0  0  0  0  0  0  0  0
   16.1523   20.8804    1.7127 C   0  0  0  0  0  0  0  0  0  0  0  0
   17.1616   20.9412    2.6918 O   0  0  0  0  0  0  0  0  0  0  0  0
   15.6367   19.6739    1.3237 C   0  0  0  0  0  0  0  0  0  0  0  0
   14.6491   19.6608    0.3617 C   0  0  0  0  0  0  0  0  0  0  0  0
   14.2028   20.7837   -0.1802 N   0  0  0  0  0  0  0  0  0  0  0  0
   16.8140   21.0192    3.6580 H   0  0  0  0  0  0  0  0  0  0  0  0
   14.5804   25.7815   -3.0634 C   0  0  0  0  0  0  0  0  0  0  0  0
   13.6275   26.5646   -3.7209 C   0  0  0  0  0  0  0  0  0  0  0  0
   13.9508   27.5003   -4.6740 C   0  0  0  0  0  0  0  0  0  0  0  0
   15.3081   27.6495   -4.9739 C   0  0  0  0  0  0  0  0  0  0  0  0
   16.2759   26.9022   -4.3521 C   0  0  0  0  0  0  0  0  0  0  0  0
   15.8923   25.9690   -3.3953 C   0  0  0  0  0  0  0  0  0  0  0  0
   15.6922   28.6148   -5.9882 C   0  0  0  0  0  0  0  0  0  0  0  0
   16.2817   28.1600   -7.1430 C   0  0  0  0  0  0  0  0  0  0  0  0
   16.6614   29.0962   -8.1075 C   0  0  0  0  0  0  0  0  0  0  0  0
   16.4314   30.4404   -7.8648 C   0  0  0  0  0  0  0  0  0  0  0  0
   15.8390   30.8985   -6.7043 C   0  0  0  0  0  0  0  0  0  0  0  0
   15.4627   29.9505   -5.7465 C   0  0  0  0  0  0  0  0  0  0  0  0
    9.1128   24.3736    1.3619 C   0  0  0  0  0  0  0  0  0  0  0  0
    8.3299   26.0953    3.4072 C   0  0  0  0  0  0  0  0  0  0  0  0
    8.1060   24.6103    3.5478 C   0  0  0  0  0  0  0  0  0  0  0  0
    7.5202   24.1695    4.6861 C   0  0  0  0  0  0  0  0  0  0  0  0
    7.3076   22.8034    4.8350 C   0  0  0  0  0  0  0  0  0  0  0  0
    7.7030   21.9601    3.8175 C   0  0  0  0  0  0  0  0  0  0  0  0
    8.2743   22.4407    2.7195 N   0  0  0  0  0  0  0  0  0  0  0  0
    8.5005   23.7380    2.5236 C   0  0  0  0  0  0  0  0  0  0  0  0
 34 35  1  0  0  0
 35 36  2  0  0  0
 36 37  1  0  0  0
 37 38  2  0  0  0
 38 39  1  0  0  0
 39 40  2  0  0  0
 40 33  1  0  0  0
 33  1  1  0  0  0
  1  2  1  0  0  0
  2  3  1  0  0  0
  3  4  1  0  0  0
  4  5  1  0  0  0
  5  6  1  0  0  0
  4  7  1  0  0  0
  7  8  1  0  0  0
  8  9  2  0  0  0
  8 10  1  0  0  0
 10 11  1  0  0  0
 11 12  2  0  0  0
 10 21  1  0  0  0
 21 22  2  0  0  0
 22 23  1  0  0  0
 23 24  2  0  0  0
 24 25  1  0  0  0
 25 26  2  0  0  0
 24 27  1  0  0  0
 27 28  2  0  0  0
 28 29  1  0  0  0
 29 30  2  0  0  0
 30 31  1  0  0  0
 31 32  2  0  0  0
  7 13  1  0  0  0
 13 14  2  0  0  0
 14 15  1  0  0  0
 15 16  1  0  0  0
 15 17  2  0  0  0
 17 18  1  0  0  0
 18 19  2  0  0  0
 40 35  1  0  0  0
  6  1  1  0  0  0
 26 21  1  0  0  0
 32 27  1  0  0  0
 19 13  1  0  0  0
 11  4  1  0  0  0
 16 20  1  0  0  0
M  END
> <minimizedAffinity>
14.63037

> <CNNscore>
0.5408447981

> <CNNaffinity>
7.6202344894

> <CNN_VS>
4.1213641167

> <CNNaffinity_variance>
0.3634161353

$$$$
[H]Oc1c([H])c([H])nc(N2C(=O)N(c3c([H])c([H])c(-c4c([H])c([H])c([H])c([H])c4[H])c([H])c3[H])C(=O)C23C([H])([H])C([H])([H])N(C([H])([H])c2nc([H])c([H])c([H])c2C([H])([H])[H])C([H])([H])C3([H])[H])c1[H]


 40 45  0  0  0  0  0  0  0  0999 V2000
    9.8902   20.4330    2.5869 N   0  0  0  0  0  0  0  0  0  0  0  0
    9.8860   20.6724    1.1321 C   0  0  0  0  0  0  0  0  0  0  0  0
    9.5873   22.0749    0.7427 C   0  0  0  0  0  0  0  0  0  0  0  0
   10.2093   23.1221    1.5879 C   0  0  0  0  0  0  0  0  0  0  0  0
   10.3484   22.7152    3.0400 C   0  0  0  0  0  0  0  0  0  0  0  0
   10.8813   21.2963    3.1310 C   0  0  0  0  0  0  0  0  0  0  0  0
    9.4844   24.3519    1.4828 N   0  0  0  0  0  0  0  0  0  0  0  0
    9.9039   24.9300    0.2143 C   0  0  0  0  0  0  0  0  0  0  0  0
    9.1957   25.7256   -0.4636 O   0  0  0  0  0  0  0  0  0  0  0  0
   11.2011   24.4252   -0.0630 N   0  0  0  0  0  0  0  0  0  0  0  0
   11.5436   23.5471    1.0326 C   0  0  0  0  0  0  0  0  0  0  0  0
   12.6890   23.2424    1.3955 O   0  0  0  0  0  0  0  0  0  0  0  0
    8.5658   24.9914    2.3583 C   0  0  0  0  0  0  0  0  0  0  0  0
    8.7579   26.2758    2.7962 C   0  0  0  0  0  0  0  0  0  0  0  0
    7.8459   26.8973    3.6568 C   0  0  0  0  0  0  0  0  0  0  0  0
    8.0614   28.2173    4.0954 O   0  0  0  0  0  0  0  0  0  0  0  0
    6.7403   26.2029    4.0669 C   0  0  0  0  0  0  0  0  0  0  0  0
    6.5686   24.9126    3.6126 C   0  0  0  0  0  0  0  0  0  0  0  0
    7.4472   24.3484    2.7982 N   0  0  0  0  0  0  0  0  0  0  0  0
    7.6460   28.9404    3.4912 H   0  0  0  0  0  0  0  0  0  0  0  0
   12.0516   24.7279   -1.1682 C   0  0  0  0  0  0  0  0  0  0  0  0
   12.0154   25.9741   -1.8002 C   0  0  0  0  0  0  0  0  0  0  0  0
   12.7957   26.2895   -2.8865 C   0  0  0  0  0  0  0  0  0  0  0  0
   13.6558   25.2916   -3.3541 C   0  0  0  0  0  0  0  0  0  0  0  0
   13.7235   24.0553   -2.7633 C   0  0  0  0  0  0  0  0  0  0  0  0
   12.9107   23.7899   -1.6667 C   0  0  0  0  0  0  0  0  0  0  0  0
   14.4850   25.5769   -4.5113 C   0  0  0  0  0  0  0  0  0  0  0  0
   14.2819   26.7508   -5.1959 C   0  0  0  0  0  0  0  0  0  0  0  0
   15.0740   27.0110   -6.3165 C   0  0  0  0  0  0  0  0  0  0  0  0
   16.0286   26.0811   -6.6939 C   0  0  0  0  0  0  0  0  0  0  0  0
   16.2334   24.9008   -6.0065 C   0  0  0  0  0  0  0  0  0  0  0  0
   15.4339   24.6524   -4.8853 C   0  0  0  0  0  0  0  0  0  0  0  0
   10.1021   19.0340    2.7354 C   0  0  0  0  0  0  0  0  0  0  0  0
    9.9239   18.3179    5.4217 C   0  0  0  0  0  0  0  0  0  0  0  0
   11.2515   18.2410    4.7097 C   0  0  0  0  0  0  0  0  0  0  0  0
   12.3215   17.8165    5.4225 C   0  0  0  0  0  0  0  0  0  0  0  0
   13.5545   17.7411    4.7839 C   0  0  0  0  0  0  0  0  0  0  0  0
   13.6315   18.1021    3.4548 C   0  0  0  0  0  0  0  0  0  0  0  0
   12.5529   18.5128    2.7983 N   0  0  0  0  0  0  0  0  0  0  0  0
   11.3487   18.6028    3.3588 C   0  0  0  0  0  0  0  0  0  0  0  0
 34 35  1  0  0  0
 35 36  2  0  0  0
 36 37  1  0  0  0
 37 38  2  0  0  0
 38 39  1  0  0  0
 39 40  2  0  0  0
 40 33  1  0  0  0
 33  1  1  0  0  0
  1  2  1  0  0  0
  2  3  1  0  0  0
  3  4  1  0  0  0
  4  5  1  0  0  0
  5  6  1  0  0  0
  4  7  1  0  0  0
  7  8  1  0  0  0
  8  9  2  0  0  0
  8 10  1  0  0  0
 10 11  1  0  0  0
 11 12  2  0  0  0
 10 21  1  0  0  0
 21 22  2  0  0  0
 22 23  1  0  0  0
 23 24  2  0  0  0
 24 25  1  0  0  0
 25 26  2  0  0  0
 24 27  1  0  0  0
 27 28  2  0  0  0
 28 29  1  0  0  0
 29 30  2  0  0  0
 30 31  1  0  0  0
 31 32  2  0  0  0
  7 13  1  0  0  0
 13 14  2  0  0  0
 14 15  1  0  0  0
 15 16  1  0  0  0
 15 17  2  0  0  0
 17 18  1  0  0  0
 18 19  2  0  0  0
 40 35  1  0  0  0
  6  1  1  0  0  0
 26 21  1  0  0  0
 32 27  1  0  0  0
 19 13  1  0  0  0
 11  4  1  0  0  0
 16 20  1  0  0  0
M  END
> <minimizedAffinity>
22.30032

> <CNNscore>
0.5375178456

> <CNNaffinity>
6.8325996399

> <CNN_VS>
3.6726441383

> <CNNaffinity_variance>
0.6215693951

$$$$
[H]Oc1c([H])c([H])nc(N2C(=O)N(c3c([H])c([H])c(-c4c([H])c([H])c([H])c([H])c4[H])c([H])c3[H])C(=O)C23C([H])([H])C([H])([H])N(C([H])([H])c2nc([H])c([H])c([H])c2C([H])([H])[H])C([H])([H])C3([H])[H])c1[H]


 40 45  0  0  0  0  0  0  0  0999 V2000
   10.8347   21.6869    0.7228 N   0  0  0  0  0  0  0  0  0  0  0  0
   11.3002   23.0850    0.6698 C   0  0  0  0  0  0  0  0  0  0  0  0
   12.7707   23.2358    0.5195 C   0  0  0  0  0  0  0  0  0  0  0  0
   13.4224   22.2816   -0.4093 C   0  0  0  0  0  0  0  0  0  0  0  0
   12.7589   20.9204   -0.4320 C   0  0  0  0  0  0  0  0  0  0  0  0
   11.2504   21.0810   -0.4953 C   0  0  0  0  0  0  0  0  0  0  0  0
   14.8149   22.1516   -0.1042 N   0  0  0  0  0  0  0  0  0  0  0  0
   15.4372   23.3409   -0.6679 C   0  0  0  0  0  0  0  0  0  0  0  0
   16.5120   23.8432   -0.2359 O   0  0  0  0  0  0  0  0  0  0  0  0
   14.6119   23.7733   -1.7385 N   0  0  0  0  0  0  0  0  0  0  0  0
   13.5031   22.8485   -1.8026 C   0  0  0  0  0  0  0  0  0  0  0  0
   12.8065   22.6094   -2.7996 O   0  0  0  0  0  0  0  0  0  0  0  0
   15.5518   21.1325    0.5573 C   0  0  0  0  0  0  0  0  0  0  0  0
   15.7729   19.9091   -0.0193 C   0  0  0  0  0  0  0  0  0  0  0  0
   16.5020   18.9128    0.6399 C   0  0  0  0  0  0  0  0  0  0  0  0
   16.7181   17.6626    0.0306 O   0  0  0  0  0  0  0  0  0  0  0  0
   17.0024   19.1711    1.8872 C   0  0  0  0  0  0  0  0  0  0  0  0
   16.7672   20.4093    2.4462 C   0  0  0  0  0  0  0  0  0  0  0  0
   16.0742   21.3344    1.8001 N   0  0  0  0  0  0  0  0  0  0  0  0
   17.5766   17.6069   -0.5354 H   0  0  0  0  0  0  0  0  0  0  0  0
   14.8170   24.8708   -2.6274 C   0  0  0  0  0  0  0  0  0  0  0  0
   13.8755   25.2079   -3.6040 C   0  0  0  0  0  0  0  0  0  0  0  0
   14.0541   26.2365   -4.4975 C   0  0  0  0  0  0  0  0  0  0  0  0
   15.2462   26.9594   -4.3944 C   0  0  0  0  0  0  0  0  0  0  0  0
   16.1964   26.6627   -3.4507 C   0  0  0  0  0  0  0  0  0  0  0  0
   15.9641   25.6106   -2.5717 C   0  0  0  0  0  0  0  0  0  0  0  0
   15.4831   28.0434   -5.3309 C   0  0  0  0  0  0  0  0  0  0  0  0
   16.0862   27.7583   -6.5322 C   0  0  0  0  0  0  0  0  0  0  0  0
   16.3237   28.8089   -7.4214 C   0  0  0  0  0  0  0  0  0  0  0  0
   15.9451   30.0915   -7.0607 C   0  0  0  0  0  0  0  0  0  0  0  0
   15.3390   30.3792   -5.8535 C   0  0  0  0  0  0  0  0  0  0  0  0
   15.1061   29.3178   -4.9720 C   0  0  0  0  0  0  0  0  0  0  0  0
    9.4338   21.7676    0.9574 C   0  0  0  0  0  0  0  0  0  0  0  0
    7.6647   23.9123    0.7814 C   0  0  0  0  0  0  0  0  0  0  0  0
    8.1015   23.4073    2.1339 C   0  0  0  0  0  0  0  0  0  0  0  0
    7.6026   24.0310    3.2272 C   0  0  0  0  0  0  0  0  0  0  0  0
    7.9955   23.5811    4.4829 C   0  0  0  0  0  0  0  0  0  0  0  0
    8.8750   22.5211    4.5578 C   0  0  0  0  0  0  0  0  0  0  0  0
    9.3372   21.9421    3.4559 N   0  0  0  0  0  0  0  0  0  0  0  0
    8.9940   22.3304    2.2295 C   0  0  0  0  0  0  0  0  0  0  0  0
 34 35  1  0  0  0
 35 36  2  0  0  0
 36 37  1  0  0  0
 37 38  2  0  0  0
 38 39  1  0  0  0
 39 40  2  0  0  0
 40 33  1  0  0  0
 33  1  1  0  0  0
  1  2  1  0  0  0
  2  3  1  0  0  0
  3  4  1  0  0  0
  4  5  1  0  0  0
  5  6  1  0  0  0
  4  7  1  0  0  0
  7  8  1  0  0  0
  8  9  2  0  0  0
  8 10  1  0  0  0
 10 11  1  0  0  0
 11 12  2  0  0  0
 10 21  1  0  0  0
 21 22  2  0  0  0
 22 23  1  0  0  0
 23 24  2  0  0  0
 24 25  1  0  0  0
 25 26  2  0  0  0
 24 27  1  0  0  0
 27 28  2  0  0  0
 28 29  1  0  0  0
 29 30  2  0  0  0
 30 31  1  0  0  0
 31 32  2  0  0  0
  7 13  1  0  0  0
 13 14  2  0  0  0
 14 15  1  0  0  0
 15 16  1  0  0  0
 15 17  2  0  0  0
 17 18  1  0  0  0
 18 19  2  0  0  0
 40 35  1  0  0  0
  6  1  1  0  0  0
 26 21  1  0  0  0
 32 27  1  0  0  0
 19 13  1  0  0  0
 11  4  1  0  0  0
 16 20  1  0  0  0
M  END
> <minimizedAffinity>
25.52605

> <CNNscore>
0.5230436921

> <CNNaffinity>
7.7728834152

> <CNN_VS>
4.0655574799

> <CNNaffinity_variance>
0.7826436758

$$$$
[H]Oc1c([H])c([H])nc(N2C(=O)N(c3c([H])c([H])c(-c4c([H])c([H])c([H])c([H])c4[H])c([H])c3[H])C(=O)C23C([H])([H])C([H])([H])N(C([H])([H])c2nc([H])c([H])c([H])c2C([H])([H])[H])C([H])([H])C3([H])[H])c1[H]


 40 45  0  0  0  0  0  0  0  0999 V2000
   10.5938   29.3452   -4.9647 N   0  0  0  0  0  0  0  0  0  0  0  0
   10.1455   27.9767   -4.6480 C   0  0  0  0  0  0  0  0  0  0  0  0
   11.2420   26.9779   -4.5593 C   0  0  0  0  0  0  0  0  0  0  0  0
   12.4819   27.4431   -3.8929 C   0  0  0  0  0  0  0  0  0  0  0  0
   12.7657   28.9140   -4.1160 C   0  0  0  0  0  0  0  0  0  0  0  0
   11.4932   29.7207   -3.9285 C   0  0  0  0  0  0  0  0  0  0  0  0
   13.6024   26.6522   -4.3028 N   0  0  0  0  0  0  0  0  0  0  0  0
   13.4907   25.4165   -3.5411 C   0  0  0  0  0  0  0  0  0  0  0  0
   13.9655   24.3107   -3.9229 O   0  0  0  0  0  0  0  0  0  0  0  0
   12.7737   25.7233   -2.3553 N   0  0  0  0  0  0  0  0  0  0  0  0
   12.4564   27.1319   -2.4192 C   0  0  0  0  0  0  0  0  0  0  0  0
   12.2239   27.8740   -1.4540 O   0  0  0  0  0  0  0  0  0  0  0  0
   14.6677   26.9100   -5.2070 C   0  0  0  0  0  0  0  0  0  0  0  0
   14.8189   26.1989   -6.3688 C   0  0  0  0  0  0  0  0  0  0  0  0
   15.8706   26.4623   -7.2538 C   0  0  0  0  0  0  0  0  0  0  0  0
   16.0086   25.7205   -8.4420 O   0  0  0  0  0  0  0  0  0  0  0  0
   16.7646   27.4521   -6.9475 C   0  0  0  0  0  0  0  0  0  0  0  0
   16.5913   28.1539   -5.7735 C   0  0  0  0  0  0  0  0  0  0  0  0
   15.5868   27.8843   -4.9538 N   0  0  0  0  0  0  0  0  0  0  0  0
   15.5181   26.1210   -9.2540 H   0  0  0  0  0  0  0  0  0  0  0  0
   12.4446   24.8569   -1.2701 C   0  0  0  0  0  0  0  0  0  0  0  0
   12.7894   23.5024   -1.2842 C   0  0  0  0  0  0  0  0  0  0  0  0
   12.4606   22.6321   -0.2728 C   0  0  0  0  0  0  0  0  0  0  0  0
   11.7478   23.1625    0.8065 C   0  0  0  0  0  0  0  0  0  0  0  0
   11.3899   24.4857    0.8609 C   0  0  0  0  0  0  0  0  0  0  0  0
   11.7482   25.3219   -0.1908 C   0  0  0  0  0  0  0  0  0  0  0  0
   11.3646   22.2735    1.8886 C   0  0  0  0  0  0  0  0  0  0  0  0
   12.0340   21.0823    2.0331 C   0  0  0  0  0  0  0  0  0  0  0  0
   11.6495   20.2263    3.0677 C   0  0  0  0  0  0  0  0  0  0  0  0
   10.6133   20.6078    3.9039 C   0  0  0  0  0  0  0  0  0  0  0  0
    9.9397   21.8048    3.7594 C   0  0  0  0  0  0  0  0  0  0  0  0
   10.3349   22.6536    2.7196 C   0  0  0  0  0  0  0  0  0  0  0  0
    9.4008   30.1099   -5.0913 C   0  0  0  0  0  0  0  0  0  0  0  0
    7.2931   28.6189   -6.1377 C   0  0  0  0  0  0  0  0  0  0  0  0
    7.2554   29.0657   -4.6975 C   0  0  0  0  0  0  0  0  0  0  0  0
    6.1761   28.7135   -3.9597 C   0  0  0  0  0  0  0  0  0  0  0  0
    6.1223   29.1182   -2.6305 C   0  0  0  0  0  0  0  0  0  0  0  0
    7.1697   29.8595   -2.1243 C   0  0  0  0  0  0  0  0  0  0  0  0
    8.2071   30.1805   -2.8884 N   0  0  0  0  0  0  0  0  0  0  0  0
    8.3114   29.8189   -4.1655 C   0  0  0  0  0  0  0  0  0  0  0  0
 34 35  1  0  0  0
 35 36  2  0  0  0
 36 37  1  0  0  0
 37 38  2  0  0  0
 38 39  1  0  0  0
 39 40  2  0  0  0
 40 33  1  0  0  0
 33  1  1  0  0  0
  1  2  1  0  0  0
  2  3  1  0  0  0
  3  4  1  0  0  0
  4  5  1  0  0  0
  5  6  1  0  0  0
  4  7  1  0  0  0
  7  8  1  0  0  0
  8  9  2  0  0  0
  8 10  1  0  0  0
 10 11  1  0  0  0
 11 12  2  0  0  0
 10 21  1  0  0  0
 21 22  2  0  0  0
 22 23  1  0  0  0
 23 24  2  0  0  0
 24 25  1  0  0  0
 25 26  2  0  0  0
 24 27  1  0  0  0
 27 28  2  0  0  0
 28 29  1  0  0  0
 29 30  2  0  0  0
 30 31  1  0  0  0
 31 32  2  0  0  0
  7 13  1  0  0  0
 13 14  2  0  0  0
 14 15  1  0  0  0
 15 16  1  0  0  0
 15 17  2  0  0  0
 17 18  1  0  0  0
 18 19  2  0  0  0
 40 35  1  0  0  0
  6  1  1  0  0  0
 26 21  1  0  0  0
 32 27  1  0  0  0
 19 13  1  0  0  0
 11  4  1  0  0  0
 16 20  1  0  0  0
M  END
> <minimizedAffinity>
18.99781

> <CNNscore>
0.5158814788

> <CNNaffinity>
7.3120203018

> <CNN_VS>
3.7721357346

> <CNNaffinity_variance>
0.8328854442

$$$$
[H]c1nc2c([H])c(N([H])C(=O)C([H])([H])[H])c([H])c(-c3c([H])c([H])c(C#N)c([H])c3[H])n2n1


 22 24  0  0  0  0  0  0  0  0999 V2000
   11.6336   24.1938   -0.4282 C   0  0  0  0  0  0  0  0  0  0  0  0
   12.1709   24.5918   -1.6743 C   0  0  0  0  0  0  0  0  0  0  0  0
   13.5068   24.7975   -1.9113 C   0  0  0  0  0  0  0  0  0  0  0  0
   14.3229   24.5920   -0.8481 N   0  0  0  0  0  0  0  0  0  0  0  0
   15.6225   24.6801   -0.6979 N   0  0  0  0  0  0  0  0  0  0  0  0
   16.0159   24.3763    0.5445 C   0  0  0  0  0  0  0  0  0  0  0  0
   14.8892   24.0800    1.2106 N   0  0  0  0  0  0  0  0  0  0  0  0
   13.8570   24.2173    0.3399 C   0  0  0  0  0  0  0  0  0  0  0  0
   12.4969   24.0048    0.5913 C   0  0  0  0  0  0  0  0  0  0  0  0
   14.0048   25.1789   -3.2246 C   0  0  0  0  0  0  0  0  0  0  0  0
   13.6499   26.3133   -3.8934 C   0  0  0  0  0  0  0  0  0  0  0  0
   14.1944   26.6251   -5.1458 C   0  0  0  0  0  0  0  0  0  0  0  0
   15.1094   25.7920   -5.7453 C   0  0  0  0  0  0  0  0  0  0  0  0
   15.4766   24.6558   -5.0958 C   0  0  0  0  0  0  0  0  0  0  0  0
   14.9304   24.3653   -3.8632 C   0  0  0  0  0  0  0  0  0  0  0  0
   15.6594   26.1216   -7.0271 C   0  0  0  0  0  0  0  0  0  0  0  0
   16.1121   26.3742   -8.0694 N   0  0  0  0  0  0  0  0  0  0  0  0
    8.0679   23.2718    0.6995 C   0  0  0  0  0  0  0  0  0  0  0  0
    9.5887   23.4245    0.7437 C   0  0  0  0  0  0  0  0  0  0  0  0
   10.1446   23.0028    1.7880 O   0  0  0  0  0  0  0  0  0  0  0  0
   10.2614   23.9997   -0.3294 N   0  0  0  0  0  0  0  0  0  0  0  0
    9.6426   24.3138   -1.1485 H   0  0  0  0  0  0  0  0  0  0  0  0
 18 19  1  0  0  0
 19 20  2  0  0  0
 19 21  1  0  0  0
 21  1  1  0  0  0
  1  2  1  0  0  0
  2  3  2  0  0  0
  3 10  1  0  0  0
 10 11  2  0  0  0
 11 12  1  0  0  0
 12 13  2  0  0  0
 13 14  1  0  0  0
 14 15  2  0  0  0
 13 16  1  0  0  0
 16 17  3  0  0  0
  3  4  1  0  0  0
  4  5  1  0  0  0
  5  6  2  0  0  0
  6  7  1  0  0  0
  7  8  2  0  0  0
  8  9  1  0  0  0
  9  1  2  0  0  0
 15 10  1  0  0  0
  8  4  1  0  0  0
 21 22  1  0  0  0
M  END
> <minimizedAffinity>
-8.80755

> <CNNscore>
0.8327720165

> <CNNaffinity>
6.8865280151

> <CNN_VS>
5.7349076271

> <CNNaffinity_variance>
0.1099334955

$$$$
[H]c1nc2c([H])c(N([H])C(=O)C([H])([H])[H])c([H])c(-c3c([H])c([H])c(C#N)c([H])c3[H])n2n1


 22 24  0  0  0  0  0  0  0  0999 V2000
   10.8842   21.9728   -0.4301 C   0  0  0  0  0  0  0  0  0  0  0  0
   11.5201   22.9127   -1.2738 C   0  0  0  0  0  0  0  0  0  0  0  0
   12.8686   23.1670   -1.2717 C   0  0  0  0  0  0  0  0  0  0  0  0
   13.5941   22.4431   -0.3841 N   0  0  0  0  0  0  0  0  0  0  0  0
   14.8751   22.4067   -0.1063 N   0  0  0  0  0  0  0  0  0  0  0  0
   15.1655   21.5223    0.8550 C   0  0  0  0  0  0  0  0  0  0  0  0
   13.9902   20.9726    1.1978 N   0  0  0  0  0  0  0  0  0  0  0  0
   13.0339   21.5497    0.4264 C   0  0  0  0  0  0  0  0  0  0  0  0
   11.6601   21.2830    0.4316 C   0  0  0  0  0  0  0  0  0  0  0  0
   13.4713   24.1266   -2.1851 C   0  0  0  0  0  0  0  0  0  0  0  0
   14.6001   23.9030   -2.9172 C   0  0  0  0  0  0  0  0  0  0  0  0
   15.1050   24.8688   -3.7972 C   0  0  0  0  0  0  0  0  0  0  0  0
   14.4753   26.0813   -3.9518 C   0  0  0  0  0  0  0  0  0  0  0  0
   13.3488   26.3248   -3.2312 C   0  0  0  0  0  0  0  0  0  0  0  0
   12.8660   25.3619   -2.3699 C   0  0  0  0  0  0  0  0  0  0  0  0
   15.0015   27.0617   -4.8552 C   0  0  0  0  0  0  0  0  0  0  0  0
   15.4435   27.8562   -5.5822 N   0  0  0  0  0  0  0  0  0  0  0  0
    7.3107   20.5538   -0.6607 C   0  0  0  0  0  0  0  0  0  0  0  0
    8.8315   20.5842   -0.5048 C   0  0  0  0  0  0  0  0  0  0  0  0
    9.3811   19.4668   -0.3409 O   0  0  0  0  0  0  0  0  0  0  0  0
    9.5111   21.7971   -0.5494 N   0  0  0  0  0  0  0  0  0  0  0  0
    8.8973   22.6662   -0.6926 H   0  0  0  0  0  0  0  0  0  0  0  0
 18 19  1  0  0  0
 19 20  2  0  0  0
 19 21  1  0  0  0
 21  1  1  0  0  0
  1  2  1  0  0  0
  2  3  2  0  0  0
  3 10  1  0  0  0
 10 11  2  0  0  0
 11 12  1  0  0  0
 12 13  2  0  0  0
 13 14  1  0  0  0
 14 15  2  0  0  0
 13 16  1  0  0  0
 16 17  3  0  0  0
  3  4  1  0  0  0
  4  5  1  0  0  0
  5  6  2  0  0  0
  6  7  1  0  0  0
  7  8  2  0  0  0
  8  9  1  0  0  0
  9  1  2  0  0  0
 15 10  1  0  0  0
  8  4  1  0  0  0
 21 22  1  0  0  0
M  END
> <minimizedAffinity>
-8.56954

> <CNNscore>
0.7105585933

> <CNNaffinity>
6.9477005005

> <CNN_VS>
4.9367485046

> <CNNaffinity_variance>
0.3904685974

$$$$
[H]c1nc2c([H])c(N([H])C(=O)C([H])([H])[H])c([H])c(-c3c([H])c([H])c(C#N)c([H])c3[H])n2n1


 22 24  0  0  0  0  0  0  0  0999 V2000
   15.1158   24.9269   -3.4082 C   0  0  0  0  0  0  0  0  0  0  0  0
   13.8749   24.5526   -2.8425 C   0  0  0  0  0  0  0  0  0  0  0  0
   13.6802   24.2864   -1.5104 C   0  0  0  0  0  0  0  0  0  0  0  0
   14.7814   24.4045   -0.7282 N   0  0  0  0  0  0  0  0  0  0  0  0
   14.9769   24.2417    0.5581 N   0  0  0  0  0  0  0  0  0  0  0  0
   16.2452   24.4728    0.9164 C   0  0  0  0  0  0  0  0  0  0  0  0
   16.8803   24.8007   -0.2194 N   0  0  0  0  0  0  0  0  0  0  0  0
   15.9659   24.7542   -1.2216 C   0  0  0  0  0  0  0  0  0  0  0  0
   16.1745   25.0279   -2.5780 C   0  0  0  0  0  0  0  0  0  0  0  0
   12.3714   23.9335   -0.9804 C   0  0  0  0  0  0  0  0  0  0  0  0
   11.6473   22.8404   -1.3559 C   0  0  0  0  0  0  0  0  0  0  0  0
   10.4038   22.5528   -0.7789 C   0  0  0  0  0  0  0  0  0  0  0  0
    9.8694   23.3687    0.1904 C   0  0  0  0  0  0  0  0  0  0  0  0
   10.5746   24.4637    0.5790 C   0  0  0  0  0  0  0  0  0  0  0  0
   11.7976   24.7308    0.0001 C   0  0  0  0  0  0  0  0  0  0  0  0
    8.5960   23.0642    0.7734 C   0  0  0  0  0  0  0  0  0  0  0  0
    7.5549   22.8176    1.2322 N   0  0  0  0  0  0  0  0  0  0  0  0
   15.1779   26.5691   -6.8919 C   0  0  0  0  0  0  0  0  0  0  0  0
   15.1131   26.4439   -5.3693 C   0  0  0  0  0  0  0  0  0  0  0  0
   15.0084   27.5266   -4.7413 O   0  0  0  0  0  0  0  0  0  0  0  0
   15.1707   25.1892   -4.7715 N   0  0  0  0  0  0  0  0  0  0  0  0
   15.2641   24.3593   -5.4462 H   0  0  0  0  0  0  0  0  0  0  0  0
 18 19  1  0  0  0
 19 20  2  0  0  0
 19 21  1  0  0  0
 21  1  1  0  0  0
  1  2  1  0  0  0
  2  3  2  0  0  0
  3 10  1  0  0  0
 10 11  2  0  0  0
 11 12  1  0  0  0
 12 13  2  0  0  0
 13 14  1  0  0  0
 14 15  2  0  0  0
 13 16  1  0  0  0
 16 17  3  0  0  0
  3  4  1  0  0  0
  4  5  1  0  0  0
  5  6  2  0  0  0
  6  7  1  0  0  0
  7  8  2  0  0  0
  8  9  1  0  0  0
  9  1  2  0  0  0
 15 10  1  0  0  0
  8  4  1  0  0  0
 21 22  1  0  0  0
M  END
> <minimizedAffinity>
-7.29558

> <CNNscore>
0.6420171857

> <CNNaffinity>
6.7190866470

> <CNN_VS>
4.3137688637

> <CNNaffinity_variance>
0.0897518843

$$$$
[H]c1nc2c([H])c(N([H])C(=O)C([H])([H])[H])c([H])c(-c3c([H])c([H])c(C#N)c([H])c3[H])n2n1


 22 24  0  0  0  0  0  0  0  0999 V2000
   10.8598   22.0677   -0.1419 C   0  0  0  0  0  0  0  0  0  0  0  0
   11.4117   23.0132   -1.0371 C   0  0  0  0  0  0  0  0  0  0  0  0
   12.7509   23.2959   -1.1359 C   0  0  0  0  0  0  0  0  0  0  0  0
   13.5550   22.5955   -0.2984 N   0  0  0  0  0  0  0  0  0  0  0  0
   14.8533   22.5886   -0.1151 N   0  0  0  0  0  0  0  0  0  0  0  0
   15.2325   21.7193    0.8289 C   0  0  0  0  0  0  0  0  0  0  0  0
   14.0977   21.1481    1.2611 N   0  0  0  0  0  0  0  0  0  0  0  0
   13.0751   21.6978    0.5576 C   0  0  0  0  0  0  0  0  0  0  0  0
   11.7116   21.4023    0.6657 C   0  0  0  0  0  0  0  0  0  0  0  0
   13.2642   24.2596   -2.0982 C   0  0  0  0  0  0  0  0  0  0  0  0
   12.7180   25.4857   -2.3404 C   0  0  0  0  0  0  0  0  0  0  0  0
   13.2869   26.3705   -3.2654 C   0  0  0  0  0  0  0  0  0  0  0  0
   14.4210   26.0290   -3.9639 C   0  0  0  0  0  0  0  0  0  0  0  0
   14.9812   24.8114   -3.7378 C   0  0  0  0  0  0  0  0  0  0  0  0
   14.4075   23.9535   -2.8230 C   0  0  0  0  0  0  0  0  0  0  0  0
   14.9938   26.9427   -4.9079 C   0  0  0  0  0  0  0  0  0  0  0  0
   15.4634   27.6946   -5.6625 N   0  0  0  0  0  0  0  0  0  0  0  0
    7.3121   20.5840   -0.3625 C   0  0  0  0  0  0  0  0  0  0  0  0
    8.8398   20.6473   -0.3642 C   0  0  0  0  0  0  0  0  0  0  0  0
    9.4265   19.5539   -0.5587 O   0  0  0  0  0  0  0  0  0  0  0  0
    9.4858   21.8620   -0.1588 N   0  0  0  0  0  0  0  0  0  0  0  0
    8.8426   22.7074   -0.0030 H   0  0  0  0  0  0  0  0  0  0  0  0
 18 19  1  0  0  0
 19 20  2  0  0  0
 19 21  1  0  0  0
 21  1  1  0  0  0
  1  2  1  0  0  0
  2  3  2  0  0  0
  3 10  1  0  0  0
 10 11  2  0  0  0
 11 12  1  0  0  0
 12 13  2  0  0  0
 13 14  1  0  0  0
 14 15  2  0  0  0
 13 16  1  0  0  0
 16 17  3  0  0  0
  3  4  1  0  0  0
  4  5  1  0  0  0
  5  6  2  0  0  0
  6  7  1  0  0  0
  7  8  2  0  0  0
  8  9  1  0  0  0
  9  1  2  0  0  0
 15 10  1  0  0  0
  8  4  1  0  0  0
 21 22  1  0  0  0
M  END
> <minimizedAffinity>
-8.43599

> <CNNscore>
0.6398808956

> <CNNaffinity>
6.8502893448

> <CNN_VS>
4.3833694458

> <CNNaffinity_variance>
0.4559707642

$$$$
[H]c1nc2c([H])c(N([H])C(=O)C([H])([H])[H])c([H])c(-c3c([H])c([H])c(C#N)c([H])c3[H])n2n1


 22 24  0  0  0  0  0  0  0  0999 V2000
   15.2599   24.5250   -3.5985 C   0  0  0  0  0  0  0  0  0  0  0  0
   14.1247   23.7971   -3.1725 C   0  0  0  0  0  0  0  0  0  0  0  0
   13.8097   23.5529   -1.8594 C   0  0  0  0  0  0  0  0  0  0  0  0
   14.6756   24.0647   -0.9502 N   0  0  0  0  0  0  0  0  0  0  0  0
   14.7006   24.0428    0.3606 N   0  0  0  0  0  0  0  0  0  0  0  0
   15.7563   24.6934    0.8634 C   0  0  0  0  0  0  0  0  0  0  0  0
   16.4320   25.1498   -0.2024 N   0  0  0  0  0  0  0  0  0  0  0  0
   15.7540   24.7549   -1.3102 C   0  0  0  0  0  0  0  0  0  0  0  0
   16.0837   25.0094   -2.6461 C   0  0  0  0  0  0  0  0  0  0  0  0
   12.6101   22.8212   -1.4800 C   0  0  0  0  0  0  0  0  0  0  0  0
   11.3933   23.3892   -1.2418 C   0  0  0  0  0  0  0  0  0  0  0  0
   10.2765   22.6132   -0.9062 C   0  0  0  0  0  0  0  0  0  0  0  0
   10.3717   21.2453   -0.8047 C   0  0  0  0  0  0  0  0  0  0  0  0
   11.5756   20.6589   -1.0378 C   0  0  0  0  0  0  0  0  0  0  0  0
   12.6642   21.4389   -1.3675 C   0  0  0  0  0  0  0  0  0  0  0  0
    9.2220   20.4618   -0.4604 C   0  0  0  0  0  0  0  0  0  0  0  0
    8.2804   19.8314   -0.1937 N   0  0  0  0  0  0  0  0  0  0  0  0
   15.4657   25.9485   -7.1718 C   0  0  0  0  0  0  0  0  0  0  0  0
   15.2142   25.8951   -5.6645 C   0  0  0  0  0  0  0  0  0  0  0  0
   14.7952   26.9605   -5.1478 O   0  0  0  0  0  0  0  0  0  0  0  0
   15.4505   24.7184   -4.9612 N   0  0  0  0  0  0  0  0  0  0  0  0
   15.8116   23.8942   -5.5467 H   0  0  0  0  0  0  0  0  0  0  0  0
 18 19  1  0  0  0
 19 20  2  0  0  0
 19 21  1  0  0  0
 21  1  1  0  0  0
  1  2  1  0  0  0
  2  3  2  0  0  0
  3 10  1  0  0  0
 10 11  2  0  0  0
 11 12  1  0  0  0
 12 13  2  0  0  0
 13 14  1  0  0  0
 14 15  2  0  0  0
 13 16  1  0  0  0
 16 17  3  0  0  0
  3  4  1  0  0  0
  4  5  1  0  0  0
  5  6  2  0  0  0
  6  7  1  0  0  0
  7  8  2  0  0  0
  8  9  1  0  0  0
  9  1  2  0  0  0
 15 10  1  0  0  0
  8  4  1  0  0  0
 21 22  1  0  0  0
M  END
> <minimizedAffinity>
-6.82295

> <CNNscore>
0.6275868416

> <CNNaffinity>
6.8492460251

> <CNN_VS>
4.2984967232

> <CNNaffinity_variance>
0.1573251039

$$$$
[H]c1nc2c([H])c(N([H])C(=O)C([H])([H])[H])c([H])c(-c3c([H])c([H])c(C#N)c([H])c3[H])n2n1


 22 24  0  0  0  0  0  0  0  0999 V2000
   12.5531   27.3134   -4.0943 C   0  0  0  0  0  0  0  0  0  0  0  0
   12.3185   26.4376   -3.0090 C   0  0  0  0  0  0  0  0  0  0  0  0
   13.1077   25.3582   -2.7006 C   0  0  0  0  0  0  0  0  0  0  0  0
   14.1692   25.1624   -3.5212 N   0  0  0  0  0  0  0  0  0  0  0  0
   15.1242   24.2639   -3.5366 N   0  0  0  0  0  0  0  0  0  0  0  0
   15.9888   24.4530   -4.5402 C   0  0  0  0  0  0  0  0  0  0  0  0
   15.5439   25.5389   -5.1914 N   0  0  0  0  0  0  0  0  0  0  0  0
   14.4242   25.9632   -4.5520 C   0  0  0  0  0  0  0  0  0  0  0  0
   13.6259   27.0663   -4.8743 C   0  0  0  0  0  0  0  0  0  0  0  0
   12.8327   24.5080   -1.5517 C   0  0  0  0  0  0  0  0  0  0  0  0
   11.6174   23.9626   -1.2588 C   0  0  0  0  0  0  0  0  0  0  0  0
   11.4376   23.1306   -0.1464 C   0  0  0  0  0  0  0  0  0  0  0  0
   12.4870   22.8355    0.6917 C   0  0  0  0  0  0  0  0  0  0  0  0
   13.7068   23.3692    0.4181 C   0  0  0  0  0  0  0  0  0  0  0  0
   13.8651   24.1859   -0.6818 C   0  0  0  0  0  0  0  0  0  0  0  0
   12.2907   21.9830    1.8270 C   0  0  0  0  0  0  0  0  0  0  0  0
   12.1335   21.2776    2.7396 N   0  0  0  0  0  0  0  0  0  0  0  0
   10.8196   30.7530   -4.1051 C   0  0  0  0  0  0  0  0  0  0  0  0
   11.8743   29.6825   -3.8229 C   0  0  0  0  0  0  0  0  0  0  0  0
   12.8756   30.0682   -3.1701 O   0  0  0  0  0  0  0  0  0  0  0  0
   11.6865   28.3830   -4.2824 N   0  0  0  0  0  0  0  0  0  0  0  0
   10.7787   28.2125   -4.8295 H   0  0  0  0  0  0  0  0  0  0  0  0
 18 19  1  0  0  0
 19 20  2  0  0  0
 19 21  1  0  0  0
 21  1  1  0  0  0
  1  2  1  0  0  0
  2  3  2  0  0  0
  3 10  1  0  0  0
 10 11  2  0  0  0
 11 12  1  0  0  0
 12 13  2  0  0  0
 13 14  1  0  0  0
 14 15  2  0  0  0
 13 16  1  0  0  0
 16 17  3  0  0  0
  3  4  1  0  0  0
  4  5  1  0  0  0
  5  6  2  0  0  0
  6  7  1  0  0  0
  7  8  2  0  0  0
  8  9  1  0  0  0
  9  1  2  0  0  0
 15 10  1  0  0  0
  8  4  1  0  0  0
 21 22  1  0  0  0
M  END
> <minimizedAffinity>
3.12885

> <CNNscore>
0.5956133008

> <CNNaffinity>
6.3720803261

> <CNN_VS>
3.7952957153

> <CNNaffinity_variance>
0.7732540369

$$$$
[H]c1nc2c([H])c(N([H])C(=O)C([H])([H])[H])c([H])c(-c3c([H])c([H])c(C#N)c([H])c3[H])n2n1


 22 24  0  0  0  0  0  0  0  0999 V2000
   16.3902   26.1373   -1.5462 C   0  0  0  0  0  0  0  0  0  0  0  0
   15.9747   25.0780   -2.3860 C   0  0  0  0  0  0  0  0  0  0  0  0
   15.5276   23.8618   -1.9343 C   0  0  0  0  0  0  0  0  0  0  0  0
   15.5018   23.7173   -0.5864 N   0  0  0  0  0  0  0  0  0  0  0  0
   15.1386   22.7269    0.1925 N   0  0  0  0  0  0  0  0  0  0  0  0
   15.2718   23.0214    1.4909 C   0  0  0  0  0  0  0  0  0  0  0  0
   15.7483   24.2756    1.5229 N   0  0  0  0  0  0  0  0  0  0  0  0
   15.8840   24.6893    0.2371 C   0  0  0  0  0  0  0  0  0  0  0  0
   16.3410   25.9327   -0.2135 C   0  0  0  0  0  0  0  0  0  0  0  0
   15.0849   22.8182   -2.8471 C   0  0  0  0  0  0  0  0  0  0  0  0
   14.2363   21.8027   -2.5172 C   0  0  0  0  0  0  0  0  0  0  0  0
   13.8344   20.8490   -3.4612 C   0  0  0  0  0  0  0  0  0  0  0  0
   14.2857   20.9059   -4.7588 C   0  0  0  0  0  0  0  0  0  0  0  0
   15.1326   21.9100   -5.1086 C   0  0  0  0  0  0  0  0  0  0  0  0
   15.5172   22.8403   -4.1658 C   0  0  0  0  0  0  0  0  0  0  0  0
   13.8676   19.9243   -5.7158 C   0  0  0  0  0  0  0  0  0  0  0  0
   13.5435   19.1226   -6.4951 N   0  0  0  0  0  0  0  0  0  0  0  0
   17.5928   28.8828   -3.9654 C   0  0  0  0  0  0  0  0  0  0  0  0
   17.1503   27.5060   -3.4687 C   0  0  0  0  0  0  0  0  0  0  0  0
   17.1326   26.5979   -4.3362 O   0  0  0  0  0  0  0  0  0  0  0  0
   16.8014   27.3272   -2.1341 N   0  0  0  0  0  0  0  0  0  0  0  0
   16.8654   28.2040   -1.5178 H   0  0  0  0  0  0  0  0  0  0  0  0
 18 19  1  0  0  0
 19 20  2  0  0  0
 19 21  1  0  0  0
 21  1  1  0  0  0
  1  2  1  0  0  0
  2  3  2  0  0  0
  3 10  1  0  0  0
 10 11  2  0  0  0
 11 12  1  0  0  0
 12 13  2  0  0  0
 13 14  1  0  0  0
 14 15  2  0  0  0
 13 16  1  0  0  0
 16 17  3  0  0  0
  3  4  1  0  0  0
  4  5  1  0  0  0
  5  6  2  0  0  0
  6  7  1  0  0  0
  7  8  2  0  0  0
  8  9  1  0  0  0
  9  1  2  0  0  0
 15 10  1  0  0  0
  8  4  1  0  0  0
 21 22  1  0  0  0
M  END
> <minimizedAffinity>
10.76662

> <CNNscore>
0.5078952909

> <CNNaffinity>
6.2533740997

> <CNN_VS>
3.1760592461

> <CNNaffinity_variance>
0.7071657181

$$$$
[H]c1nc2c([H])c(N([H])C(=O)C([H])([H])[H])c([H])c(-c3c([H])c([H])c(C#N)c([H])c3[H])n2n1


 22 24  0  0  0  0  0  0  0  0999 V2000
   14.2503   22.7062   -2.0283 C   0  0  0  0  0  0  0  0  0  0  0  0
   14.7728   23.5165   -3.0628 C   0  0  0  0  0  0  0  0  0  0  0  0
   14.2546   24.7330   -3.4301 C   0  0  0  0  0  0  0  0  0  0  0  0
   13.1709   25.1390   -2.7236 N   0  0  0  0  0  0  0  0  0  0  0  0
   12.4285   26.2183   -2.7811 N   0  0  0  0  0  0  0  0  0  0  0  0
   11.4447   26.2118   -1.8741 C   0  0  0  0  0  0  0  0  0  0  0  0
   11.5833   25.0544   -1.2091 N   0  0  0  0  0  0  0  0  0  0  0  0
   12.6497   24.4064   -1.7436 C   0  0  0  0  0  0  0  0  0  0  0  0
   13.1709   23.1652   -1.3615 C   0  0  0  0  0  0  0  0  0  0  0  0
   14.8538   25.5369   -4.4851 C   0  0  0  0  0  0  0  0  0  0  0  0
   15.7064   26.5815   -4.2801 C   0  0  0  0  0  0  0  0  0  0  0  0
   16.2643   27.2917   -5.3508 C   0  0  0  0  0  0  0  0  0  0  0  0
   15.9680   26.9570   -6.6511 C   0  0  0  0  0  0  0  0  0  0  0  0
   15.1200   25.9192   -6.8776 C   0  0  0  0  0  0  0  0  0  0  0  0
   14.5806   25.2311   -5.8111 C   0  0  0  0  0  0  0  0  0  0  0  0
   16.5449   27.6913   -7.7384 C   0  0  0  0  0  0  0  0  0  0  0  0
   17.0023   28.2814   -8.6315 N   0  0  0  0  0  0  0  0  0  0  0  0
   15.4294   19.3885   -0.4666 C   0  0  0  0  0  0  0  0  0  0  0  0
   14.6380   20.6844   -0.6466 C   0  0  0  0  0  0  0  0  0  0  0  0
   13.7869   20.9269    0.2447 O   0  0  0  0  0  0  0  0  0  0  0  0
   14.8849   21.5035   -1.7435 N   0  0  0  0  0  0  0  0  0  0  0  0
   15.6427   21.1552   -2.4195 H   0  0  0  0  0  0  0  0  0  0  0  0
 18 19  1  0  0  0
 19 20  2  0  0  0
 19 21  1  0  0  0
 21  1  1  0  0  0
  1  2  1  0  0  0
  2  3  2  0  0  0
  3 10  1  0  0  0
 10 11  2  0  0  0
 11 12  1  0  0  0
 12 13  2  0  0  0
 13 14  1  0  0  0
 14 15  2  0  0  0
 13 16  1  0  0  0
 16 17  3  0  0  0
  3  4  1  0  0  0
  4  5  1  0  0  0
  5  6  2  0  0  0
  6  7  1  0  0  0
  7  8  2  0  0  0
  8  9  1  0  0  0
  9  1  2  0  0  0
 15 10  1  0  0  0
  8  4  1  0  0  0
 21 22  1  0  0  0
M  END
> <minimizedAffinity>
5.82359

> <CNNscore>
0.4889967442

> <CNNaffinity>
6.0017714500

> <CNN_VS>
2.9348466396

> <CNNaffinity_variance>
0.5079737902

$$$$
[H]c1nc2c([H])c(N([H])C(=O)C([H])([H])[H])c([H])c(-c3c([H])c([H])c(C#N)c([H])c3[H])n2n1


 22 24  0  0  0  0  0  0  0  0999 V2000
   14.5571   22.3300   -3.5292 C   0  0  0  0  0  0  0  0  0  0  0  0
   15.2014   23.5511   -3.8354 C   0  0  0  0  0  0  0  0  0  0  0  0
   15.8409   24.3413   -2.9136 C   0  0  0  0  0  0  0  0  0  0  0  0
   15.8253   23.8760   -1.6402 N   0  0  0  0  0  0  0  0  0  0  0  0
   16.3246   24.3405   -0.5202 N   0  0  0  0  0  0  0  0  0  0  0  0
   16.0749   23.5399    0.5225 C   0  0  0  0  0  0  0  0  0  0  0  0
   15.3753   22.5109    0.0198 N   0  0  0  0  0  0  0  0  0  0  0  0
   15.2306   22.7327   -1.3116 C   0  0  0  0  0  0  0  0  0  0  0  0
   14.5763   21.9198   -2.2440 C   0  0  0  0  0  0  0  0  0  0  0  0
   16.5127   25.5754   -3.2933 C   0  0  0  0  0  0  0  0  0  0  0  0
   15.9352   26.5938   -3.9928 C   0  0  0  0  0  0  0  0  0  0  0  0
   16.6410   27.7646   -4.2978 C   0  0  0  0  0  0  0  0  0  0  0  0
   17.9473   27.9256   -3.9000 C   0  0  0  0  0  0  0  0  0  0  0  0
   18.5421   26.9224   -3.2020 C   0  0  0  0  0  0  0  0  0  0  0  0
   17.8314   25.7769   -2.9103 C   0  0  0  0  0  0  0  0  0  0  0  0
   18.6594   29.1281   -4.2182 C   0  0  0  0  0  0  0  0  0  0  0  0
   19.2314   30.1118   -4.4635 N   0  0  0  0  0  0  0  0  0  0  0  0
   13.7287   20.5818   -6.8600 C   0  0  0  0  0  0  0  0  0  0  0  0
   14.5123   21.3842   -5.8207 C   0  0  0  0  0  0  0  0  0  0  0  0
   15.6403   21.7938   -6.1913 O   0  0  0  0  0  0  0  0  0  0  0  0
   13.9645   21.6156   -4.5631 N   0  0  0  0  0  0  0  0  0  0  0  0
   12.9904   21.1954   -4.3985 H   0  0  0  0  0  0  0  0  0  0  0  0
 18 19  1  0  0  0
 19 20  2  0  0  0
 19 21  1  0  0  0
 21  1  1  0  0  0
  1  2  1  0  0  0
  2  3  2  0  0  0
  3 10  1  0  0  0
 10 11  2  0  0  0
 11 12  1  0  0  0
 12 13  2  0  0  0
 13 14  1  0  0  0
 14 15  2  0  0  0
 13 16  1  0  0  0
 16 17  3  0  0  0
  3  4  1  0  0  0
  4  5  1  0  0  0
  5  6  2  0  0  0
  6  7  1  0  0  0
  7  8  2  0  0  0
  8  9  1  0  0  0
  9  1  2  0  0  0
 15 10  1  0  0  0
  8  4  1  0  0  0
 21 22  1  0  0  0
M  END
> <minimizedAffinity>
19.90803

> <CNNscore>
0.4404745102

> <CNNaffinity>
5.9512758255

> <CNN_VS>
2.6213853359

> <CNNaffinity_variance>
0.6548647285

$$$$
[H]c1nc2c([H])c(N([H])C(=O)C([H])([H])[H])c([H])c(-c3c([H])c([H])c(C#N)c(F)c3C([H])([H])[H])n2n1


 24 26  0  0  0  0  0  0  0  0999 V2000
   11.6188   24.2161   -0.3724 C   0  0  0  0  0  0  0  0  0  0  0  0
   12.1525   24.6080   -1.6126 C   0  0  0  0  0  0  0  0  0  0  0  0
   13.4905   24.8215   -1.8196 C   0  0  0  0  0  0  0  0  0  0  0  0
   14.3049   24.6388   -0.7651 N   0  0  0  0  0  0  0  0  0  0  0  0
   15.6137   24.7715   -0.6794 N   0  0  0  0  0  0  0  0  0  0  0  0
   16.0265   24.4913    0.5632 C   0  0  0  0  0  0  0  0  0  0  0  0
   14.9395   24.1765    1.2640 N   0  0  0  0  0  0  0  0  0  0  0  0
   13.8749   24.2687    0.4393 C   0  0  0  0  0  0  0  0  0  0  0  0
   12.5003   24.0471    0.6596 C   0  0  0  0  0  0  0  0  0  0  0  0
   14.0121   25.2276   -3.1187 C   0  0  0  0  0  0  0  0  0  0  0  0
   13.7392   26.4685   -3.6548 C   0  0  0  0  0  0  0  0  0  0  0  0
   14.2550   26.8297   -4.9054 C   0  0  0  0  0  0  0  0  0  0  0  0
   15.0361   25.9426   -5.6001 C   0  0  0  0  0  0  0  0  0  0  0  0
   15.3223   24.6949   -5.0827 C   0  0  0  0  0  0  0  0  0  0  0  0
   16.0922   23.7958   -5.7466 F   0  0  0  0  0  0  0  0  0  0  0  0
   14.7990   24.3498   -3.8316 C   0  0  0  0  0  0  0  0  0  0  0  0
   15.0773   23.0269   -3.2369 C   0  0  0  0  0  0  0  0  0  0  0  0
   15.5942   26.2581   -6.8901 C   0  0  0  0  0  0  0  0  0  0  0  0
   16.0546   26.5074   -7.9110 N   0  0  0  0  0  0  0  0  0  0  0  0
    8.0194   23.0106    0.4222 C   0  0  0  0  0  0  0  0  0  0  0  0
    9.5358   23.0245    0.4422 C   0  0  0  0  0  0  0  0  0  0  0  0
   10.0989   22.1251    1.0970 O   0  0  0  0  0  0  0  0  0  0  0  0
   10.2323   24.0107   -0.2499 N   0  0  0  0  0  0  0  0  0  0  0  0
    9.5917   24.7171   -0.7687 H   0  0  0  0  0  0  0  0  0  0  0  0
 20 21  1  0  0  0
 21 22  2  0  0  0
 21 23  1  0  0  0
 23  1  1  0  0  0
  1  2  1  0  0  0
  2  3  2  0  0  0
  3 10  1  0  0  0
 10 11  2  0  0  0
 11 12  1  0  0  0
 12 13  2  0  0  0
 13 18  1  0  0  0
 18 19  3  0  0  0
 13 14  1  0  0  0
 14 15  1  0  0  0
 14 16  2  0  0  0
 16 17  1  0  0  0
  3  4  1  0  0  0
  4  5  1  0  0  0
  5  6  2  0  0  0
  6  7  1  0  0  0
  7  8  2  0  0  0
  8  9  1  0  0  0
  9  1  2  0  0  0
 16 10  1  0  0  0
  8  4  1  0  0  0
 23 24  1  0  0  0
M  END
> <minimizedAffinity>
-8.69469

> <CNNscore>
0.8184382319

> <CNNaffinity>
7.3110551834

> <CNN_VS>
5.9836468697

> <CNNaffinity_variance>
0.1338623464

$$$$
[H]c1nc2c([H])c(N([H])C(=O)C([H])([H])[H])c([H])c(-c3c([H])c([H])c(C#N)c(F)c3C([H])([H])[H])n2n1


 24 26  0  0  0  0  0  0  0  0999 V2000
   15.2312   24.7914   -3.5289 C   0  0  0  0  0  0  0  0  0  0  0  0
   14.0476   24.1941   -3.0612 C   0  0  0  0  0  0  0  0  0  0  0  0
   13.8234   23.9076   -1.7397 C   0  0  0  0  0  0  0  0  0  0  0  0
   14.8029   24.2259   -0.8747 N   0  0  0  0  0  0  0  0  0  0  0  0
   14.8559   24.0658    0.4327 N   0  0  0  0  0  0  0  0  0  0  0  0
   16.0216   24.5226    0.9076 C   0  0  0  0  0  0  0  0  0  0  0  0
   16.7072   24.9778   -0.1387 N   0  0  0  0  0  0  0  0  0  0  0  0
   15.9503   24.7928   -1.2410 C   0  0  0  0  0  0  0  0  0  0  0  0
   16.1878   25.0905   -2.5983 C   0  0  0  0  0  0  0  0  0  0  0  0
   12.5845   23.2874   -1.2871 C   0  0  0  0  0  0  0  0  0  0  0  0
   11.4560   24.0326   -1.0171 C   0  0  0  0  0  0  0  0  0  0  0  0
   10.2804   23.4075   -0.5837 C   0  0  0  0  0  0  0  0  0  0  0  0
   10.2529   22.0457   -0.4273 C   0  0  0  0  0  0  0  0  0  0  0  0
   11.3708   21.2798   -0.6918 C   0  0  0  0  0  0  0  0  0  0  0  0
   11.3740   19.9305   -0.5462 F   0  0  0  0  0  0  0  0  0  0  0  0
   12.5375   21.9201   -1.1241 C   0  0  0  0  0  0  0  0  0  0  0  0
   13.7585   21.1435   -1.4195 C   0  0  0  0  0  0  0  0  0  0  0  0
    9.0730   21.3477    0.0154 C   0  0  0  0  0  0  0  0  0  0  0  0
    8.1430   20.7778    0.3713 N   0  0  0  0  0  0  0  0  0  0  0  0
   15.3917   26.2798   -7.1064 C   0  0  0  0  0  0  0  0  0  0  0  0
   15.1701   26.2411   -5.6066 C   0  0  0  0  0  0  0  0  0  0  0  0
   14.8045   27.3023   -5.0635 O   0  0  0  0  0  0  0  0  0  0  0  0
   15.3753   25.0583   -4.9028 N   0  0  0  0  0  0  0  0  0  0  0  0
   15.6917   24.2272   -5.5256 H   0  0  0  0  0  0  0  0  0  0  0  0
 20 21  1  0  0  0
 21 22  2  0  0  0
 21 23  1  0  0  0
 23  1  1  0  0  0
  1  2  1  0  0  0
  2  3  2  0  0  0
  3 10  1  0  0  0
 10 11  2  0  0  0
 11 12  1  0  0  0
 12 13  2  0  0  0
 13 18  1  0  0  0
 18 19  3  0  0  0
 13 14  1  0  0  0
 14 15  1  0  0  0
 14 16  2  0  0  0
 16 17  1  0  0  0
  3  4  1  0  0  0
  4  5  1  0  0  0
  5  6  2  0  0  0
  6  7  1  0  0  0
  7  8  2  0  0  0
  8  9  1  0  0  0
  9  1  2  0  0  0
 16 10  1  0  0  0
  8  4  1  0  0  0
 23 24  1  0  0  0
M  END
> <minimizedAffinity>
-8.24145

> <CNNscore>
0.8107370734

> <CNNaffinity>
7.5592947006

> <CNN_VS>
6.1286005974

> <CNNaffinity_variance>
0.1868507415

$$$$
[H]c1nc2c([H])c(N([H])C(=O)C([H])([H])[H])c([H])c(-c3c([H])c([H])c(C#N)c(F)c3C([H])([H])[H])n2n1


 24 26  0  0  0  0  0  0  0  0999 V2000
   11.2879   21.2796   -0.7640 C   0  0  0  0  0  0  0  0  0  0  0  0
   11.8508   22.2696   -1.5883 C   0  0  0  0  0  0  0  0  0  0  0  0
   13.1295   22.7376   -1.4323 C   0  0  0  0  0  0  0  0  0  0  0  0
   13.8541   22.2034   -0.4332 N   0  0  0  0  0  0  0  0  0  0  0  0
   15.0918   22.4614   -0.0599 N   0  0  0  0  0  0  0  0  0  0  0  0
   15.4269   21.6993    0.9889 C   0  0  0  0  0  0  0  0  0  0  0  0
   14.3637   20.9493    1.2700 N   0  0  0  0  0  0  0  0  0  0  0  0
   13.3913   21.2634    0.3881 C   0  0  0  0  0  0  0  0  0  0  0  0
   12.0772   20.7770    0.2336 C   0  0  0  0  0  0  0  0  0  0  0  0
   13.6835   23.7657   -2.3046 C   0  0  0  0  0  0  0  0  0  0  0  0
   14.7778   23.5236   -3.1080 C   0  0  0  0  0  0  0  0  0  0  0  0
   15.2870   24.5318   -3.9354 C   0  0  0  0  0  0  0  0  0  0  0  0
   14.6925   25.7673   -3.9455 C   0  0  0  0  0  0  0  0  0  0  0  0
   13.5960   26.0321   -3.1495 C   0  0  0  0  0  0  0  0  0  0  0  0
   12.9866   27.2446   -3.1379 F   0  0  0  0  0  0  0  0  0  0  0  0
   13.0997   25.0134   -2.3284 C   0  0  0  0  0  0  0  0  0  0  0  0
   11.9290   25.2486   -1.4593 C   0  0  0  0  0  0  0  0  0  0  0  0
   15.1718   26.8428   -4.7755 C   0  0  0  0  0  0  0  0  0  0  0  0
   15.5376   27.7011   -5.4433 N   0  0  0  0  0  0  0  0  0  0  0  0
    7.5422   20.2844   -0.6264 C   0  0  0  0  0  0  0  0  0  0  0  0
    8.8822   20.7941   -0.1320 C   0  0  0  0  0  0  0  0  0  0  0  0
    8.9450   21.1471    1.0622 O   0  0  0  0  0  0  0  0  0  0  0  0
    9.9688   20.8509   -0.9997 N   0  0  0  0  0  0  0  0  0  0  0  0
    9.7453   20.5061   -2.0046 H   0  0  0  0  0  0  0  0  0  0  0  0
 20 21  1  0  0  0
 21 22  2  0  0  0
 21 23  1  0  0  0
 23  1  1  0  0  0
  1  2  1  0  0  0
  2  3  2  0  0  0
  3 10  1  0  0  0
 10 11  2  0  0  0
 11 12  1  0  0  0
 12 13  2  0  0  0
 13 18  1  0  0  0
 18 19  3  0  0  0
 13 14  1  0  0  0
 14 15  1  0  0  0
 14 16  2  0  0  0
 16 17  1  0  0  0
  3  4  1  0  0  0
  4  5  1  0  0  0
  5  6  2  0  0  0
  6  7  1  0  0  0
  7  8  2  0  0  0
  8  9  1  0  0  0
  9  1  2  0  0  0
 16 10  1  0  0  0
  8  4  1  0  0  0
 23 24  1  0  0  0
M  END
> <minimizedAffinity>
-8.64775

> <CNNscore>
0.7357553840

> <CNNaffinity>
7.4304261208

> <CNN_VS>
5.4669761658

> <CNNaffinity_variance>
0.4545702338

$$$$
[H]c1nc2c([H])c(N([H])C(=O)C([H])([H])[H])c([H])c(-c3c([H])c([H])c(C#N)c(F)c3C([H])([H])[H])n2n1


 24 26  0  0  0  0  0  0  0  0999 V2000
   10.8612   21.9792   -0.4548 C   0  0  0  0  0  0  0  0  0  0  0  0
   11.4291   22.9260   -1.3253 C   0  0  0  0  0  0  0  0  0  0  0  0
   12.7514   23.2845   -1.2842 C   0  0  0  0  0  0  0  0  0  0  0  0
   13.5150   22.6831   -0.3548 N   0  0  0  0  0  0  0  0  0  0  0  0
   14.7984   22.8338   -0.0939 N   0  0  0  0  0  0  0  0  0  0  0  0
   15.1609   22.0374    0.9197 C   0  0  0  0  0  0  0  0  0  0  0  0
   14.0680   21.3762    1.2943 N   0  0  0  0  0  0  0  0  0  0  0  0
   13.0504   21.7778    0.5037 C   0  0  0  0  0  0  0  0  0  0  0  0
   11.6917   21.4041    0.4672 C   0  0  0  0  0  0  0  0  0  0  0  0
   13.3093   24.2703   -2.2015 C   0  0  0  0  0  0  0  0  0  0  0  0
   12.8421   25.5670   -2.2457 C   0  0  0  0  0  0  0  0  0  0  0  0
   13.3987   26.4913   -3.1382 C   0  0  0  0  0  0  0  0  0  0  0  0
   14.4147   26.1028   -3.9727 C   0  0  0  0  0  0  0  0  0  0  0  0
   14.8983   24.8099   -3.9457 C   0  0  0  0  0  0  0  0  0  0  0  0
   15.9026   24.3961   -4.7593 F   0  0  0  0  0  0  0  0  0  0  0  0
   14.3309   23.8987   -3.0479 C   0  0  0  0  0  0  0  0  0  0  0  0
   14.8144   22.5047   -2.9822 C   0  0  0  0  0  0  0  0  0  0  0  0
   15.0260   27.0090   -4.9111 C   0  0  0  0  0  0  0  0  0  0  0  0
   15.5185   27.7404   -5.6451 N   0  0  0  0  0  0  0  0  0  0  0  0
    7.3552   20.3401   -0.7006 C   0  0  0  0  0  0  0  0  0  0  0  0
    8.8619   20.4249   -0.5509 C   0  0  0  0  0  0  0  0  0  0  0  0
    9.4759   19.3485   -0.4126 O   0  0  0  0  0  0  0  0  0  0  0  0
    9.4950   21.6640   -0.5716 N   0  0  0  0  0  0  0  0  0  0  0  0
    8.8156   22.5010   -0.7005 H   0  0  0  0  0  0  0  0  0  0  0  0
 20 21  1  0  0  0
 21 22  2  0  0  0
 21 23  1  0  0  0
 23  1  1  0  0  0
  1  2  1  0  0  0
  2  3  2  0  0  0
  3 10  1  0  0  0
 10 11  2  0  0  0
 11 12  1  0  0  0
 12 13  2  0  0  0
 13 18  1  0  0  0
 18 19  3  0  0  0
 13 14  1  0  0  0
 14 15  1  0  0  0
 14 16  2  0  0  0
 16 17  1  0  0  0
  3  4  1  0  0  0
  4  5  1  0  0  0
  5  6  2  0  0  0
  6  7  1  0  0  0
  7  8  2  0  0  0
  8  9  1  0  0  0
  9  1  2  0  0  0
 16 10  1  0  0  0
  8  4  1  0  0  0
 23 24  1  0  0  0
M  END
> <minimizedAffinity>
-8.85070

> <CNNscore>
0.7298386097

> <CNNaffinity>
7.4746599197

> <CNN_VS>
5.4552955627

> <CNNaffinity_variance>
0.5233075619

$$$$
[H]c1nc2c([H])c(N([H])C(=O)C([H])([H])[H])c([H])c(-c3c([H])c([H])c(C#N)c(F)c3C([H])([H])[H])n2n1


 24 26  0  0  0  0  0  0  0  0999 V2000
   12.1085   23.2067   -0.5234 C   0  0  0  0  0  0  0  0  0  0  0  0
   12.6149   23.6079   -1.7721 C   0  0  0  0  0  0  0  0  0  0  0  0
   13.8616   24.1533   -1.9358 C   0  0  0  0  0  0  0  0  0  0  0  0
   14.6113   24.2980   -0.8286 N   0  0  0  0  0  0  0  0  0  0  0  0
   15.8286   24.7859   -0.6943 N   0  0  0  0  0  0  0  0  0  0  0  0
   16.2031   24.7469    0.5907 C   0  0  0  0  0  0  0  0  0  0  0  0
   15.1861   24.2192    1.2682 N   0  0  0  0  0  0  0  0  0  0  0  0
   14.2018   23.9422    0.3871 C   0  0  0  0  0  0  0  0  0  0  0  0
   12.9209   23.3805    0.5631 C   0  0  0  0  0  0  0  0  0  0  0  0
   14.3571   24.5593   -3.2450 C   0  0  0  0  0  0  0  0  0  0  0  0
   15.2827   23.8064   -3.9364 C   0  0  0  0  0  0  0  0  0  0  0  0
   15.7396   24.2229   -5.1927 C   0  0  0  0  0  0  0  0  0  0  0  0
   15.2626   25.3872   -5.7374 C   0  0  0  0  0  0  0  0  0  0  0  0
   14.3356   26.1568   -5.0632 C   0  0  0  0  0  0  0  0  0  0  0  0
   13.8453   27.3135   -5.5765 F   0  0  0  0  0  0  0  0  0  0  0  0
   13.8894   25.7262   -3.8087 C   0  0  0  0  0  0  0  0  0  0  0  0
   12.8987   26.5155   -3.0493 C   0  0  0  0  0  0  0  0  0  0  0  0
   15.6956   25.8658   -7.0253 C   0  0  0  0  0  0  0  0  0  0  0  0
   16.0444   26.2306   -8.0557 N   0  0  0  0  0  0  0  0  0  0  0  0
    8.9583   20.9567   -0.2923 C   0  0  0  0  0  0  0  0  0  0  0  0
   10.4304   21.3146   -0.3621 C   0  0  0  0  0  0  0  0  0  0  0  0
   11.2419   20.3683   -0.3396 O   0  0  0  0  0  0  0  0  0  0  0  0
   10.8195   22.6480   -0.4468 N   0  0  0  0  0  0  0  0  0  0  0  0
    9.9889   23.3470   -0.4560 H   0  0  0  0  0  0  0  0  0  0  0  0
 20 21  1  0  0  0
 21 22  2  0  0  0
 21 23  1  0  0  0
 23  1  1  0  0  0
  1  2  1  0  0  0
  2  3  2  0  0  0
  3 10  1  0  0  0
 10 11  2  0  0  0
 11 12  1  0  0  0
 12 13  2  0  0  0
 13 18  1  0  0  0
 18 19  3  0  0  0
 13 14  1  0  0  0
 14 15  1  0  0  0
 14 16  2  0  0  0
 16 17  1  0  0  0
  3  4  1  0  0  0
  4  5  1  0  0  0
  5  6  2  0  0  0
  6  7  1  0  0  0
  7  8  2  0  0  0
  8  9  1  0  0  0
  9  1  2  0  0  0
 16 10  1  0  0  0
  8  4  1  0  0  0
 23 24  1  0  0  0
M  END
> <minimizedAffinity>
-8.09502

> <CNNscore>
0.6505097747

> <CNNaffinity>
7.2812767029

> <CNN_VS>
4.7365417480

> <CNNaffinity_variance>
0.3542400897

$$$$
[H]c1nc2c([H])c(N([H])C(=O)C([H])([H])[H])c([H])c(-c3c([H])c([H])c(C#N)c(F)c3C([H])([H])[H])n2n1


 24 26  0  0  0  0  0  0  0  0999 V2000
   13.3643   26.0649   -3.3689 C   0  0  0  0  0  0  0  0  0  0  0  0
   14.1609   25.2936   -2.5047 C   0  0  0  0  0  0  0  0  0  0  0  0
   13.6409   24.4578   -1.5510 C   0  0  0  0  0  0  0  0  0  0  0  0
   12.3002   24.3957   -1.4637 N   0  0  0  0  0  0  0  0  0  0  0  0
   11.5416   23.6872   -0.6511 N   0  0  0  0  0  0  0  0  0  0  0  0
   10.2478   23.9236   -0.9028 C   0  0  0  0  0  0  0  0  0  0  0  0
   10.2083   24.8040   -1.9003 N   0  0  0  0  0  0  0  0  0  0  0  0
   11.4804   25.0947   -2.2458 C   0  0  0  0  0  0  0  0  0  0  0  0
   12.0081   25.9562   -3.2289 C   0  0  0  0  0  0  0  0  0  0  0  0
   14.4950   23.6712   -0.6699 C   0  0  0  0  0  0  0  0  0  0  0  0
   15.3937   24.2657    0.1906 C   0  0  0  0  0  0  0  0  0  0  0  0
   16.2007   23.4827    1.0250 C   0  0  0  0  0  0  0  0  0  0  0  0
   16.0954   22.1163    0.9848 C   0  0  0  0  0  0  0  0  0  0  0  0
   15.2026   21.4996    0.1312 C   0  0  0  0  0  0  0  0  0  0  0  0
   15.0759   20.1498    0.0690 F   0  0  0  0  0  0  0  0  0  0  0  0
   14.4035   22.2967   -0.6961 C   0  0  0  0  0  0  0  0  0  0  0  0
   13.4338   21.6832   -1.6258 C   0  0  0  0  0  0  0  0  0  0  0  0
   16.8989   21.2598    1.8191 C   0  0  0  0  0  0  0  0  0  0  0  0
   17.5277   20.5802    2.4967 N   0  0  0  0  0  0  0  0  0  0  0  0
   15.7347   27.9138   -5.8189 C   0  0  0  0  0  0  0  0  0  0  0  0
   15.3020   26.9132   -4.7646 C   0  0  0  0  0  0  0  0  0  0  0  0
   16.1768   26.1375   -4.3313 O   0  0  0  0  0  0  0  0  0  0  0  0
   13.9816   26.8914   -4.3256 N   0  0  0  0  0  0  0  0  0  0  0  0
   13.3488   27.6328   -4.8037 H   0  0  0  0  0  0  0  0  0  0  0  0
 20 21  1  0  0  0
 21 22  2  0  0  0
 21 23  1  0  0  0
 23  1  1  0  0  0
  1  2  1  0  0  0
  2  3  2  0  0  0
  3 10  1  0  0  0
 10 11  2  0  0  0
 11 12  1  0  0  0
 12 13  2  0  0  0
 13 18  1  0  0  0
 18 19  3  0  0  0
 13 14  1  0  0  0
 14 15  1  0  0  0
 14 16  2  0  0  0
 16 17  1  0  0  0
  3  4  1  0  0  0
  4  5  1  0  0  0
  5  6  2  0  0  0
  6  7  1  0  0  0
  7  8  2  0  0  0
  8  9  1  0  0  0
  9  1  2  0  0  0
 16 10  1  0  0  0
  8  4  1  0  0  0
 23 24  1  0  0  0
M  END
> <minimizedAffinity>
3.71319

> <CNNscore>
0.5913317800

> <CNNaffinity>
7.0633826256

> <CNN_VS>
4.1768026352

> <CNNaffinity_variance>
0.8200723529

$$$$
[H]c1nc2c([H])c(N([H])C(=O)C([H])([H])[H])c([H])c(-c3c([H])c([H])c(C#N)c(F)c3C([H])([H])[H])n2n1


 24 26  0  0  0  0  0  0  0  0999 V2000
   11.8641   25.1088   -1.9467 C   0  0  0  0  0  0  0  0  0  0  0  0
   13.1544   25.0958   -1.3888 C   0  0  0  0  0  0  0  0  0  0  0  0
   13.4923   24.3380   -0.2978 C   0  0  0  0  0  0  0  0  0  0  0  0
   12.5194   23.5819    0.2412 N   0  0  0  0  0  0  0  0  0  0  0  0
   12.5623   22.7688    1.2779 N   0  0  0  0  0  0  0  0  0  0  0  0
   11.3623   22.2086    1.4762 C   0  0  0  0  0  0  0  0  0  0  0  0
   10.5561   22.6910    0.5332 N   0  0  0  0  0  0  0  0  0  0  0  0
   11.2750   23.5411   -0.2301 C   0  0  0  0  0  0  0  0  0  0  0  0
   10.9203   24.3176   -1.3519 C   0  0  0  0  0  0  0  0  0  0  0  0
   14.8402   24.3471    0.2567 C   0  0  0  0  0  0  0  0  0  0  0  0
   15.4851   25.5229    0.5779 C   0  0  0  0  0  0  0  0  0  0  0  0
   16.7804   25.4990    1.1093 C   0  0  0  0  0  0  0  0  0  0  0  0
   17.4100   24.2979    1.3108 C   0  0  0  0  0  0  0  0  0  0  0  0
   16.7835   23.1084    0.9965 C   0  0  0  0  0  0  0  0  0  0  0  0
   17.3810   21.9045    1.1847 F   0  0  0  0  0  0  0  0  0  0  0  0
   15.4891   23.1500    0.4664 C   0  0  0  0  0  0  0  0  0  0  0  0
   14.7781   21.9042    0.1147 C   0  0  0  0  0  0  0  0  0  0  0  0
   18.7414   24.2109    1.8540 C   0  0  0  0  0  0  0  0  0  0  0  0
   19.7952   24.1432    2.3027 N   0  0  0  0  0  0  0  0  0  0  0  0
   11.9384   27.5261   -4.9785 C   0  0  0  0  0  0  0  0  0  0  0  0
   12.4581   26.7521   -3.7823 C   0  0  0  0  0  0  0  0  0  0  0  0
   13.6583   26.9130   -3.4854 O   0  0  0  0  0  0  0  0  0  0  0  0
   11.6057   25.9109   -3.0734 N   0  0  0  0  0  0  0  0  0  0  0  0
   10.5925   25.8851   -3.4625 H   0  0  0  0  0  0  0  0  0  0  0  0
 20 21  1  0  0  0
 21 22  2  0  0  0
 21 23  1  0  0  0
 23  1  1  0  0  0
  1  2  1  0  0  0
  2  3  2  0  0  0
  3 10  1  0  0  0
 10 11  2  0  0  0
 11 12  1  0  0  0
 12 13  2  0  0  0
 13 18  1  0  0  0
 18 19  3  0  0  0
 13 14  1  0  0  0
 14 15  1  0  0  0
 14 16  2  0  0  0
 16 17  1  0  0  0
  3  4  1  0  0  0
  4  5  1  0  0  0
  5  6  2  0  0  0
  6  7  1  0  0  0
  7  8  2  0  0  0
  8  9  1  0  0  0
  9  1  2  0  0  0
 16 10  1  0  0  0
  8  4  1  0  0  0
 23 24  1  0  0  0
M  END
> <minimizedAffinity>
6.51477

> <CNNscore>
0.5903591514

> <CNNaffinity>
6.8729872704

> <CNN_VS>
4.0575308800

> <CNNaffinity_variance>
1.1272842884

$$$$
[H]c1nc2c([H])c(N([H])C(=O)C([H])([H])[H])c([H])c(-c3c([H])c([H])c(C#N)c(F)c3C([H])([H])[H])n2n1


 24 26  0  0  0  0  0  0  0  0999 V2000
   15.4121   24.7328   -3.6791 C   0  0  0  0  0  0  0  0  0  0  0  0
   14.2988   24.0135   -3.2104 C   0  0  0  0  0  0  0  0  0  0  0  0
   14.0927   23.7299   -1.8853 C   0  0  0  0  0  0  0  0  0  0  0  0
   15.0187   24.1755   -1.0178 N   0  0  0  0  0  0  0  0  0  0  0  0
   15.0737   24.0489    0.2933 N   0  0  0  0  0  0  0  0  0  0  0  0
   16.1738   24.6456    0.7697 C   0  0  0  0  0  0  0  0  0  0  0  0
   16.8156   25.1550   -0.2793 N   0  0  0  0  0  0  0  0  0  0  0  0
   16.0983   24.8626   -1.3848 C   0  0  0  0  0  0  0  0  0  0  0  0
   16.3168   25.1581   -2.7457 C   0  0  0  0  0  0  0  0  0  0  0  0
   12.9273   22.9812   -1.4318 C   0  0  0  0  0  0  0  0  0  0  0  0
   12.9496   21.6079   -1.3085 C   0  0  0  0  0  0  0  0  0  0  0  0
   11.8136   20.9167   -0.8700 C   0  0  0  0  0  0  0  0  0  0  0  0
   10.6725   21.6114   -0.5617 C   0  0  0  0  0  0  0  0  0  0  0  0
   10.6274   22.9864   -0.6777 C   0  0  0  0  0  0  0  0  0  0  0  0
    9.5128   23.7012   -0.3800 F   0  0  0  0  0  0  0  0  0  0  0  0
   11.7714   23.6618   -1.1173 C   0  0  0  0  0  0  0  0  0  0  0  0
   11.7718   25.1321   -1.2573 C   0  0  0  0  0  0  0  0  0  0  0  0
    9.4739   20.9550   -0.1060 C   0  0  0  0  0  0  0  0  0  0  0  0
    8.5138   20.4310    0.2405 N   0  0  0  0  0  0  0  0  0  0  0  0
   15.4667   26.1658   -7.2824 C   0  0  0  0  0  0  0  0  0  0  0  0
   15.2395   26.1347   -5.7832 C   0  0  0  0  0  0  0  0  0  0  0  0
   14.7801   27.1697   -5.2614 O   0  0  0  0  0  0  0  0  0  0  0  0
   15.5415   24.9867   -5.0569 N   0  0  0  0  0  0  0  0  0  0  0  0
   15.9325   24.1752   -5.6629 H   0  0  0  0  0  0  0  0  0  0  0  0
 20 21  1  0  0  0
 21 22  2  0  0  0
 21 23  1  0  0  0
 23  1  1  0  0  0
  1  2  1  0  0  0
  2  3  2  0  0  0
  3 10  1  0  0  0
 10 11  2  0  0  0
 11 12  1  0  0  0
 12 13  2  0  0  0
 13 18  1  0  0  0
 18 19  3  0  0  0
 13 14  1  0  0  0
 14 15  1  0  0  0
 14 16  2  0  0  0
 16 17  1  0  0  0
  3  4  1  0  0  0
  4  5  1  0  0  0
  5  6  2  0  0  0
  6  7  1  0  0  0
  7  8  2  0  0  0
  8  9  1  0  0  0
  9  1  2  0  0  0
 16 10  1  0  0  0
  8  4  1  0  0  0
 23 24  1  0  0  0
M  END
> <minimizedAffinity>
-8.16605

> <CNNscore>
0.5880478024

> <CNNaffinity>
7.1798582077

> <CNN_VS>
4.2220997810

> <CNNaffinity_variance>
0.2504461110

$$$$
[H]c1nc2c([H])c(N([H])C(=O)C([H])([H])[H])c([H])c(-c3c([H])c([H])c(C#N)c(F)c3C([H])([H])[H])n2n1


 24 26  0  0  0  0  0  0  0  0999 V2000
   14.0746   24.6350   -3.5214 C   0  0  0  0  0  0  0  0  0  0  0  0
   15.0794   24.6964   -2.5400 C   0  0  0  0  0  0  0  0  0  0  0  0
   14.9231   24.1949   -1.2741 C   0  0  0  0  0  0  0  0  0  0  0  0
   13.7396   23.6231   -0.9892 N   0  0  0  0  0  0  0  0  0  0  0  0
   13.3211   23.0676    0.1306 N   0  0  0  0  0  0  0  0  0  0  0  0
   12.0684   22.6178   -0.0163 C   0  0  0  0  0  0  0  0  0  0  0  0
   11.7044   22.9048   -1.2641 N   0  0  0  0  0  0  0  0  0  0  0  0
   12.7409   23.5272   -1.8643 C   0  0  0  0  0  0  0  0  0  0  0  0
   12.8945   24.0405   -3.1682 C   0  0  0  0  0  0  0  0  0  0  0  0
   15.9853   24.2747   -0.2791 C   0  0  0  0  0  0  0  0  0  0  0  0
   16.8037   25.3800   -0.1780 C   0  0  0  0  0  0  0  0  0  0  0  0
   17.8157   25.4270    0.7885 C   0  0  0  0  0  0  0  0  0  0  0  0
   17.9927   24.3662    1.6390 C   0  0  0  0  0  0  0  0  0  0  0  0
   17.1852   23.2495    1.5558 C   0  0  0  0  0  0  0  0  0  0  0  0
   17.3363   22.1844    2.3833 F   0  0  0  0  0  0  0  0  0  0  0  0
   16.1785   23.2186    0.5843 C   0  0  0  0  0  0  0  0  0  0  0  0
   15.2897   22.0461    0.4566 C   0  0  0  0  0  0  0  0  0  0  0  0
   19.0164   24.3577    2.6524 C   0  0  0  0  0  0  0  0  0  0  0  0
   19.8195   24.3497    3.4718 N   0  0  0  0  0  0  0  0  0  0  0  0
   15.1625   26.6808   -6.6312 C   0  0  0  0  0  0  0  0  0  0  0  0
   15.0352   26.3054   -5.1674 C   0  0  0  0  0  0  0  0  0  0  0  0
   15.5920   27.0567   -4.3426 O   0  0  0  0  0  0  0  0  0  0  0  0
   14.3225   25.1681   -4.7996 N   0  0  0  0  0  0  0  0  0  0  0  0
   13.9001   24.6253   -5.6396 H   0  0  0  0  0  0  0  0  0  0  0  0
 20 21  1  0  0  0
 21 22  2  0  0  0
 21 23  1  0  0  0
 23  1  1  0  0  0
  1  2  1  0  0  0
  2  3  2  0  0  0
  3 10  1  0  0  0
 10 11  2  0  0  0
 11 12  1  0  0  0
 12 13  2  0  0  0
 13 18  1  0  0  0
 18 19  3  0  0  0
 13 14  1  0  0  0
 14 15  1  0  0  0
 14 16  2  0  0  0
 16 17  1  0  0  0
  3  4  1  0  0  0
  4  5  1  0  0  0
  5  6  2  0  0  0
  6  7  1  0  0  0
  7  8  2  0  0  0
  8  9  1  0  0  0
  9  1  2  0  0  0
 16 10  1  0  0  0
  8  4  1  0  0  0
 23 24  1  0  0  0
M  END
> <minimizedAffinity>
10.24375

> <CNNscore>
0.5578522682

> <CNNaffinity>
7.0387659073

> <CNN_VS>
3.9265916348

> <CNNaffinity_variance>
1.1058577299

$$$$
[H]OC(=O)c1c([H])c([H])c(-c2c([H])c([H])c(N3C(=O)N(c4nc([H])nc(OC([H])([H])[H])c4[H])C4(C3=O)C([H])([H])C([H])([H])N(C([H])([H])c3nc([H])c([H])c([H])c3C([H])([H])[H])C([H])([H])C4([H])[H])c([H])c2[H])c(F)c1[H]


 45 50  0  0  0  0  0  0  0  0999 V2000
   13.6511   24.7493   -1.9029 N   0  0  0  0  0  0  0  0  0  0  0  0
   12.3675   24.1629   -1.5172 C   0  0  0  0  0  0  0  0  0  0  0  0
   11.4874   23.7876   -2.3296 O   0  0  0  0  0  0  0  0  0  0  0  0
   12.3124   24.1015   -0.0859 N   0  0  0  0  0  0  0  0  0  0  0  0
   13.5607   24.6515    0.3441 C   0  0  0  0  0  0  0  0  0  0  0  0
   13.7545   25.2053    1.4474 O   0  0  0  0  0  0  0  0  0  0  0  0
   14.4891   24.3964   -0.8063 C   0  0  0  0  0  0  0  0  0  0  0  0
   14.6761   22.8863   -0.8715 C   0  0  0  0  0  0  0  0  0  0  0  0
   16.0002   22.4755   -0.3251 C   0  0  0  0  0  0  0  0  0  0  0  0
   16.3439   23.2007    0.8999 N   0  0  0  0  0  0  0  0  0  0  0  0
   16.4875   24.6113    0.6290 C   0  0  0  0  0  0  0  0  0  0  0  0
   15.7936   25.0595   -0.6454 C   0  0  0  0  0  0  0  0  0  0  0  0
   14.7216   25.9200   -5.3167 C   0  0  0  0  0  0  0  0  0  0  0  0
   14.6691   25.1752   -4.1296 C   0  0  0  0  0  0  0  0  0  0  0  0
   13.7807   25.4400   -3.1209 C   0  0  0  0  0  0  0  0  0  0  0  0
   12.9456   26.4942   -3.3648 N   0  0  0  0  0  0  0  0  0  0  0  0
   12.9877   27.2158   -4.4991 C   0  0  0  0  0  0  0  0  0  0  0  0
   13.8607   26.9501   -5.4827 N   0  0  0  0  0  0  0  0  0  0  0  0
   15.2709   25.6959   -7.6891 C   0  0  0  0  0  0  0  0  0  0  0  0
   15.6418   25.6065   -6.3061 O   0  0  0  0  0  0  0  0  0  0  0  0
   11.2470   23.6039    0.6957 C   0  0  0  0  0  0  0  0  0  0  0  0
   11.0570   22.2525    0.8190 C   0  0  0  0  0  0  0  0  0  0  0  0
   10.0124   21.7301    1.5885 C   0  0  0  0  0  0  0  0  0  0  0  0
    9.1967   22.6514    2.2068 C   0  0  0  0  0  0  0  0  0  0  0  0
    9.3788   24.0126    2.0895 C   0  0  0  0  0  0  0  0  0  0  0  0
   10.4121   24.4807    1.3276 C   0  0  0  0  0  0  0  0  0  0  0  0
    8.0902   22.1546    3.0257 C   0  0  0  0  0  0  0  0  0  0  0  0
    7.0577   21.4479    2.4083 C   0  0  0  0  0  0  0  0  0  0  0  0
    6.0010   20.9745    3.1531 C   0  0  0  0  0  0  0  0  0  0  0  0
    5.9594   21.2006    4.5289 C   0  0  0  0  0  0  0  0  0  0  0  0
    6.9736   21.8973    5.1517 C   0  0  0  0  0  0  0  0  0  0  0  0
    8.0187   22.3591    4.3821 C   0  0  0  0  0  0  0  0  0  0  0  0
    9.0407   23.0509    4.9807 F   0  0  0  0  0  0  0  0  0  0  0  0
    4.8285   20.6931    5.3035 C   0  0  0  0  0  0  0  0  0  0  0  0
    4.3367   19.4359    5.0864 O   0  0  0  0  0  0  0  0  0  0  0  0
    4.3119   21.4251    6.1719 O   0  0  0  0  0  0  0  0  0  0  0  0
    4.1772   19.0880    4.1351 H   0  0  0  0  0  0  0  0  0  0  0  0
   17.6110   22.6313    1.3173 C   0  0  0  0  0  0  0  0  0  0  0  0
   18.6929   23.5840    1.5313 C   0  0  0  0  0  0  0  0  0  0  0  0
   18.9210   24.1238    2.7272 N   0  0  0  0  0  0  0  0  0  0  0  0
   19.9364   25.0089    2.9430 C   0  0  0  0  0  0  0  0  0  0  0  0
   20.7696   25.3758    1.9140 C   0  0  0  0  0  0  0  0  0  0  0  0
   20.5466   24.8257    0.6704 C   0  0  0  0  0  0  0  0  0  0  0  0
   19.5090   23.9308    0.4794 C   0  0  0  0  0  0  0  0  0  0  0  0
   19.2718   23.3346   -0.8779 C   0  0  0  0  0  0  0  0  0  0  0  0
 19 20  1  0  0  0
 20 13  1  0  0  0
 13 14  2  0  0  0
 14 15  1  0  0  0
 15 16  2  0  0  0
 16 17  1  0  0  0
 17 18  2  0  0  0
 15  1  1  0  0  0
  1  2  1  0  0  0
  2  3  2  0  0  0
  2  4  1  0  0  0
  4  5  1  0  0  0
  5  6  2  0  0  0
  5  7  1  0  0  0
  7  8  1  0  0  0
  8  9  1  0  0  0
  9 10  1  0  0  0
 10 38  1  0  0  0
 38 39  1  0  0  0
 39 40  2  0  0  0
 40 41  1  0  0  0
 41 42  2  0  0  0
 42 43  1  0  0  0
 43 44  2  0  0  0
 44 45  1  0  0  0
 10 11  1  0  0  0
 11 12  1  0  0  0
  4 21  1  0  0  0
 21 22  2  0  0  0
 22 23  1  0  0  0
 23 24  2  0  0  0
 24 25  1  0  0  0
 25 26  2  0  0  0
 24 27  1  0  0  0
 27 28  2  0  0  0
 28 29  1  0  0  0
 29 30  2  0  0  0
 30 31  1  0  0  0
 31 32  2  0  0  0
 32 33  1  0  0  0
 30 34  1  0  0  0
 34 35  1  0  0  0
 34 36  2  0  0  0
 18 13  1  0  0  0
  7  1  1  0  0  0
 12  7  1  0  0  0
 26 21  1  0  0  0
 32 27  1  0  0  0
 44 39  1  0  0  0
 35 37  1  0  0  0
M  END
> <minimizedAffinity>
16.17103

> <CNNscore>
0.6110595465

> <CNNaffinity>
8.1286907196

> <CNN_VS>
4.9671139717

> <CNNaffinity_variance>
0.2989538908

$$$$
[H]OC(=O)c1c([H])c([H])c(-c2c([H])c([H])c(N3C(=O)N(c4nc([H])nc(OC([H])([H])[H])c4[H])C4(C3=O)C([H])([H])C([H])([H])N(C([H])([H])c3nc([H])c([H])c([H])c3C([H])([H])[H])C([H])([H])C4([H])[H])c([H])c2[H])c(F)c1[H]


 45 50  0  0  0  0  0  0  0  0999 V2000
   15.6726   24.0967   -0.4458 N   0  0  0  0  0  0  0  0  0  0  0  0
   14.5682   23.7907    0.4634 C   0  0  0  0  0  0  0  0  0  0  0  0
   14.5720   24.0430    1.6929 O   0  0  0  0  0  0  0  0  0  0  0  0
   13.5200   23.1713   -0.2936 N   0  0  0  0  0  0  0  0  0  0  0  0
   14.0249   23.1235   -1.6310 C   0  0  0  0  0  0  0  0  0  0  0  0
   13.6775   22.2911   -2.4959 O   0  0  0  0  0  0  0  0  0  0  0  0
   15.0044   24.2581   -1.6935 C   0  0  0  0  0  0  0  0  0  0  0  0
   14.1806   25.5342   -1.5827 C   0  0  0  0  0  0  0  0  0  0  0  0
   14.0362   26.2079   -2.9039 C   0  0  0  0  0  0  0  0  0  0  0  0
   13.7664   25.2573   -3.9848 N   0  0  0  0  0  0  0  0  0  0  0  0
   14.8829   24.3589   -4.1583 C   0  0  0  0  0  0  0  0  0  0  0  0
   15.7864   24.2694   -2.9408 C   0  0  0  0  0  0  0  0  0  0  0  0
   18.7347   24.5138    1.7037 C   0  0  0  0  0  0  0  0  0  0  0  0
   17.3887   24.4682    1.3130 C   0  0  0  0  0  0  0  0  0  0  0  0
   16.9917   24.1703    0.0361 C   0  0  0  0  0  0  0  0  0  0  0  0
   18.0178   23.9205   -0.8316 N   0  0  0  0  0  0  0  0  0  0  0  0
   19.3121   23.9623   -0.4680 C   0  0  0  0  0  0  0  0  0  0  0  0
   19.6930   24.2548    0.7848 N   0  0  0  0  0  0  0  0  0  0  0  0
   20.3571   24.4247    3.5312 C   0  0  0  0  0  0  0  0  0  0  0  0
   19.0796   24.8201    3.0118 O   0  0  0  0  0  0  0  0  0  0  0  0
   12.2775   22.7189    0.2012 C   0  0  0  0  0  0  0  0  0  0  0  0
   12.1612   21.4542    0.7155 C   0  0  0  0  0  0  0  0  0  0  0  0
   10.9443   20.9793    1.2154 C   0  0  0  0  0  0  0  0  0  0  0  0
    9.8830   21.8549    1.1576 C   0  0  0  0  0  0  0  0  0  0  0  0
    9.9889   23.1289    0.6423 C   0  0  0  0  0  0  0  0  0  0  0  0
   11.1967   23.5531    0.1641 C   0  0  0  0  0  0  0  0  0  0  0  0
    8.5882   21.4057    1.6707 C   0  0  0  0  0  0  0  0  0  0  0  0
    8.3567   21.4446    3.0461 C   0  0  0  0  0  0  0  0  0  0  0  0
    7.1502   21.0223    3.5572 C   0  0  0  0  0  0  0  0  0  0  0  0
    6.1544   20.5531    2.7004 C   0  0  0  0  0  0  0  0  0  0  0  0
    6.3701   20.5097    1.3390 C   0  0  0  0  0  0  0  0  0  0  0  0
    7.5864   20.9388    0.8551 C   0  0  0  0  0  0  0  0  0  0  0  0
    7.8217   20.9086   -0.4959 F   0  0  0  0  0  0  0  0  0  0  0  0
    4.8806   20.1061    3.2607 C   0  0  0  0  0  0  0  0  0  0  0  0
    4.3132   20.7567    4.3211 O   0  0  0  0  0  0  0  0  0  0  0  0
    4.3117   19.1163    2.7576 O   0  0  0  0  0  0  0  0  0  0  0  0
    4.8740   21.0293    5.1351 H   0  0  0  0  0  0  0  0  0  0  0  0
   13.5916   26.0850   -5.1631 C   0  0  0  0  0  0  0  0  0  0  0  0
   14.7235   26.9334   -5.5139 C   0  0  0  0  0  0  0  0  0  0  0  0
   15.1080   27.9417   -4.7335 N   0  0  0  0  0  0  0  0  0  0  0  0
   16.1718   28.7369   -5.0453 C   0  0  0  0  0  0  0  0  0  0  0  0
   16.8916   28.5163   -6.1946 C   0  0  0  0  0  0  0  0  0  0  0  0
   16.5061   27.4765   -7.0127 C   0  0  0  0  0  0  0  0  0  0  0  0
   15.4229   26.6861   -6.6725 C   0  0  0  0  0  0  0  0  0  0  0  0
   15.0086   25.5544   -7.5678 C   0  0  0  0  0  0  0  0  0  0  0  0
 19 20  1  0  0  0
 20 13  1  0  0  0
 13 14  2  0  0  0
 14 15  1  0  0  0
 15 16  2  0  0  0
 16 17  1  0  0  0
 17 18  2  0  0  0
 15  1  1  0  0  0
  1  2  1  0  0  0
  2  3  2  0  0  0
  2  4  1  0  0  0
  4  5  1  0  0  0
  5  6  2  0  0  0
  5  7  1  0  0  0
  7  8  1  0  0  0
  8  9  1  0  0  0
  9 10  1  0  0  0
 10 38  1  0  0  0
 38 39  1  0  0  0
 39 40  2  0  0  0
 40 41  1  0  0  0
 41 42  2  0  0  0
 42 43  1  0  0  0
 43 44  2  0  0  0
 44 45  1  0  0  0
 10 11  1  0  0  0
 11 12  1  0  0  0
  4 21  1  0  0  0
 21 22  2  0  0  0
 22 23  1  0  0  0
 23 24  2  0  0  0
 24 25  1  0  0  0
 25 26  2  0  0  0
 24 27  1  0  0  0
 27 28  2  0  0  0
 28 29  1  0  0  0
 29 30  2  0  0  0
 30 31  1  0  0  0
 31 32  2  0  0  0
 32 33  1  0  0  0
 30 34  1  0  0  0
 34 35  1  0  0  0
 34 36  2  0  0  0
 18 13  1  0  0  0
  7  1  1  0  0  0
 12  7  1  0  0  0
 26 21  1  0  0  0
 32 27  1  0  0  0
 44 39  1  0  0  0
 35 37  1  0  0  0
M  END
> <minimizedAffinity>
9.24065

> <CNNscore>
0.5508941412

> <CNNaffinity>
8.0114564896

> <CNN_VS>
4.4134645462

> <CNNaffinity_variance>
0.5049929619

$$$$
[H]OC(=O)c1c([H])c([H])c(-c2c([H])c([H])c(N3C(=O)N(c4nc([H])nc(OC([H])([H])[H])c4[H])C4(C3=O)C([H])([H])C([H])([H])N(C([H])([H])c3nc([H])c([H])c([H])c3C([H])([H])[H])C([H])([H])C4([H])[H])c([H])c2[H])c(F)c1[H]


 45 50  0  0  0  0  0  0  0  0999 V2000
   13.6789   24.5741   -1.8164 N   0  0  0  0  0  0  0  0  0  0  0  0
   12.4303   23.8838   -1.4931 C   0  0  0  0  0  0  0  0  0  0  0  0
   11.6762   23.3487   -2.3420 O   0  0  0  0  0  0  0  0  0  0  0  0
   12.2427   23.9339   -0.0727 N   0  0  0  0  0  0  0  0  0  0  0  0
   13.3807   24.6512    0.4133 C   0  0  0  0  0  0  0  0  0  0  0  0
   13.4089   25.3114    1.4740 O   0  0  0  0  0  0  0  0  0  0  0  0
   14.4378   24.4064   -0.6226 C   0  0  0  0  0  0  0  0  0  0  0  0
   14.7831   22.9258   -0.5323 C   0  0  0  0  0  0  0  0  0  0  0  0
   16.0827   22.7092    0.1639 C   0  0  0  0  0  0  0  0  0  0  0  0
   16.2299   23.5655    1.3427 N   0  0  0  0  0  0  0  0  0  0  0  0
   16.2548   24.9565    0.9572 C   0  0  0  0  0  0  0  0  0  0  0  0
   15.6461   25.2199   -0.4090 C   0  0  0  0  0  0  0  0  0  0  0  0
   13.3699   26.7292   -4.8873 C   0  0  0  0  0  0  0  0  0  0  0  0
   13.1152   26.1906   -3.6179 C   0  0  0  0  0  0  0  0  0  0  0  0
   13.8554   25.1729   -3.0765 C   0  0  0  0  0  0  0  0  0  0  0  0
   14.8670   24.7212   -3.8772 N   0  0  0  0  0  0  0  0  0  0  0  0
   15.1197   25.2297   -5.0965 C   0  0  0  0  0  0  0  0  0  0  0  0
   14.3902   26.2268   -5.6197 N   0  0  0  0  0  0  0  0  0  0  0  0
   11.6208   28.4033   -4.5433 C   0  0  0  0  0  0  0  0  0  0  0  0
   12.5883   27.7610   -5.3858 O   0  0  0  0  0  0  0  0  0  0  0  0
   11.1626   23.3879    0.6545 C   0  0  0  0  0  0  0  0  0  0  0  0
   10.0048   24.1045    0.8084 C   0  0  0  0  0  0  0  0  0  0  0  0
    8.9173   23.5887    1.5208 C   0  0  0  0  0  0  0  0  0  0  0  0
    9.0837   22.3289    2.0514 C   0  0  0  0  0  0  0  0  0  0  0  0
   10.2439   21.5995    1.9026 C   0  0  0  0  0  0  0  0  0  0  0  0
   11.2825   22.1411    1.1989 C   0  0  0  0  0  0  0  0  0  0  0  0
    7.9731   21.7440    2.8038 C   0  0  0  0  0  0  0  0  0  0  0  0
    7.9014   21.9616    4.1801 C   0  0  0  0  0  0  0  0  0  0  0  0
    6.8712   21.4181    4.9140 C   0  0  0  0  0  0  0  0  0  0  0  0
    5.8950   20.6469    4.2830 C   0  0  0  0  0  0  0  0  0  0  0  0
    5.9540   20.4244    2.9233 C   0  0  0  0  0  0  0  0  0  0  0  0
    6.9956   20.9806    2.2137 C   0  0  0  0  0  0  0  0  0  0  0  0
    7.0721   20.7760    0.8596 F   0  0  0  0  0  0  0  0  0  0  0  0
    4.8100   20.0754    5.0783 C   0  0  0  0  0  0  0  0  0  0  0  0
    4.3141   20.7370    6.1673 O   0  0  0  0  0  0  0  0  0  0  0  0
    4.3372   18.9682    4.7508 O   0  0  0  0  0  0  0  0  0  0  0  0
    4.9414   21.1676    6.8547 H   0  0  0  0  0  0  0  0  0  0  0  0
   17.5017   23.1749    1.9206 C   0  0  0  0  0  0  0  0  0  0  0  0
   18.6863   23.7216    1.2710 C   0  0  0  0  0  0  0  0  0  0  0  0
   18.8460   23.6661   -0.0499 N   0  0  0  0  0  0  0  0  0  0  0  0
   19.9452   24.1830   -0.6712 C   0  0  0  0  0  0  0  0  0  0  0  0
   20.9378   24.7879    0.0612 C   0  0  0  0  0  0  0  0  0  0  0  0
   20.7871   24.8533    1.4295 C   0  0  0  0  0  0  0  0  0  0  0  0
   19.6623   24.3204    2.0335 C   0  0  0  0  0  0  0  0  0  0  0  0
   19.5040   24.3957    3.5246 C   0  0  0  0  0  0  0  0  0  0  0  0
 19 20  1  0  0  0
 20 13  1  0  0  0
 13 14  2  0  0  0
 14 15  1  0  0  0
 15 16  2  0  0  0
 16 17  1  0  0  0
 17 18  2  0  0  0
 15  1  1  0  0  0
  1  2  1  0  0  0
  2  3  2  0  0  0
  2  4  1  0  0  0
  4  5  1  0  0  0
  5  6  2  0  0  0
  5  7  1  0  0  0
  7  8  1  0  0  0
  8  9  1  0  0  0
  9 10  1  0  0  0
 10 38  1  0  0  0
 38 39  1  0  0  0
 39 40  2  0  0  0
 40 41  1  0  0  0
 41 42  2  0  0  0
 42 43  1  0  0  0
 43 44  2  0  0  0
 44 45  1  0  0  0
 10 11  1  0  0  0
 11 12  1  0  0  0
  4 21  1  0  0  0
 21 22  2  0  0  0
 22 23  1  0  0  0
 23 24  2  0  0  0
 24 25  1  0  0  0
 25 26  2  0  0  0
 24 27  1  0  0  0
 27 28  2  0  0  0
 28 29  1  0  0  0
 29 30  2  0  0  0
 30 31  1  0  0  0
 31 32  2  0  0  0
 32 33  1  0  0  0
 30 34  1  0  0  0
 34 35  1  0  0  0
 34 36  2  0  0  0
 18 13  1  0  0  0
  7  1  1  0  0  0
 12  7  1  0  0  0
 26 21  1  0  0  0
 32 27  1  0  0  0
 44 39  1  0  0  0
 35 37  1  0  0  0
M  END
> <minimizedAffinity>
20.93797

> <CNNscore>
0.5450751185

> <CNNaffinity>
7.7385206223

> <CNN_VS>
4.2180752754

> <CNNaffinity_variance>
0.3023220897

$$$$
[H]OC(=O)c1c([H])c([H])c(-c2c([H])c([H])c(N3C(=O)N(c4nc([H])nc(OC([H])([H])[H])c4[H])C4(C3=O)C([H])([H])C([H])([H])N(C([H])([H])c3nc([H])c([H])c([H])c3C([H])([H])[H])C([H])([H])C4([H])[H])c([H])c2[H])c(F)c1[H]


 45 50  0  0  0  0  0  0  0  0999 V2000
   13.9387   27.0006   -3.9683 N   0  0  0  0  0  0  0  0  0  0  0  0
   13.9387   26.3309   -2.6678 C   0  0  0  0  0  0  0  0  0  0  0  0
   14.9502   26.2062   -1.9350 O   0  0  0  0  0  0  0  0  0  0  0  0
   12.6098   25.8634   -2.4019 N   0  0  0  0  0  0  0  0  0  0  0  0
   11.8535   26.2647   -3.5476 C   0  0  0  0  0  0  0  0  0  0  0  0
   10.8175   25.6962   -3.9541 O   0  0  0  0  0  0  0  0  0  0  0  0
   12.5937   27.4578   -4.0757 C   0  0  0  0  0  0  0  0  0  0  0  0
   12.4242   28.5555   -3.0336 C   0  0  0  0  0  0  0  0  0  0  0  0
   11.4266   29.5731   -3.4692 C   0  0  0  0  0  0  0  0  0  0  0  0
   10.2459   28.9641   -4.0855 N   0  0  0  0  0  0  0  0  0  0  0  0
   10.6093   28.2727   -5.2996 C   0  0  0  0  0  0  0  0  0  0  0  0
   12.0835   27.9160   -5.3783 C   0  0  0  0  0  0  0  0  0  0  0  0
   16.4892   26.7363   -6.7243 C   0  0  0  0  0  0  0  0  0  0  0  0
   15.2742   26.6334   -6.0318 C   0  0  0  0  0  0  0  0  0  0  0  0
   15.1133   27.0581   -4.7393 C   0  0  0  0  0  0  0  0  0  0  0  0
   16.2380   27.5923   -4.1753 N   0  0  0  0  0  0  0  0  0  0  0  0
   17.4085   27.6951   -4.8298 C   0  0  0  0  0  0  0  0  0  0  0  0
   17.5581   27.2769   -6.0958 N   0  0  0  0  0  0  0  0  0  0  0  0
   15.5986   25.4140   -8.5786 C   0  0  0  0  0  0  0  0  0  0  0  0
   16.5949   26.2906   -8.0336 O   0  0  0  0  0  0  0  0  0  0  0  0
   12.1763   25.1638   -1.2545 C   0  0  0  0  0  0  0  0  0  0  0  0
   11.4387   24.0166   -1.3862 C   0  0  0  0  0  0  0  0  0  0  0  0
   10.9979   23.3008   -0.2684 C   0  0  0  0  0  0  0  0  0  0  0  0
   11.3489   23.8179    0.9586 C   0  0  0  0  0  0  0  0  0  0  0  0
   12.0904   24.9709    1.1025 C   0  0  0  0  0  0  0  0  0  0  0  0
   12.5010   25.6397   -0.0162 C   0  0  0  0  0  0  0  0  0  0  0  0
   10.9134   23.1037    2.1595 C   0  0  0  0  0  0  0  0  0  0  0  0
   11.5771   21.9325    2.5264 C   0  0  0  0  0  0  0  0  0  0  0  0
   11.1846   21.2368    3.6475 C   0  0  0  0  0  0  0  0  0  0  0  0
   10.1205   21.7009    4.4208 C   0  0  0  0  0  0  0  0  0  0  0  0
    9.4561   22.8573    4.0695 C   0  0  0  0  0  0  0  0  0  0  0  0
    9.8703   23.5334    2.9430 C   0  0  0  0  0  0  0  0  0  0  0  0
    9.2270   24.6882    2.5768 F   0  0  0  0  0  0  0  0  0  0  0  0
    9.7155   20.9480    5.6063 C   0  0  0  0  0  0  0  0  0  0  0  0
   10.4990   19.9424    6.1008 O   0  0  0  0  0  0  0  0  0  0  0  0
    8.6384   21.2343    6.1670 O   0  0  0  0  0  0  0  0  0  0  0  0
   10.9156   19.2424    5.4779 H   0  0  0  0  0  0  0  0  0  0  0  0
    9.3703   30.0825   -4.3797 C   0  0  0  0  0  0  0  0  0  0  0  0
    8.0218   29.9905   -3.8348 C   0  0  0  0  0  0  0  0  0  0  0  0
    7.7074   30.5252   -2.6563 N   0  0  0  0  0  0  0  0  0  0  0  0
    6.4468   30.4549   -2.1397 C   0  0  0  0  0  0  0  0  0  0  0  0
    5.4455   29.8192   -2.8332 C   0  0  0  0  0  0  0  0  0  0  0  0
    5.7550   29.2609   -4.0545 C   0  0  0  0  0  0  0  0  0  0  0  0
    7.0420   29.3464   -4.5545 C   0  0  0  0  0  0  0  0  0  0  0  0
    7.3724   28.7365   -5.8859 C   0  0  0  0  0  0  0  0  0  0  0  0
 19 20  1  0  0  0
 20 13  1  0  0  0
 13 14  2  0  0  0
 14 15  1  0  0  0
 15 16  2  0  0  0
 16 17  1  0  0  0
 17 18  2  0  0  0
 15  1  1  0  0  0
  1  2  1  0  0  0
  2  3  2  0  0  0
  2  4  1  0  0  0
  4  5  1  0  0  0
  5  6  2  0  0  0
  5  7  1  0  0  0
  7  8  1  0  0  0
  8  9  1  0  0  0
  9 10  1  0  0  0
 10 38  1  0  0  0
 38 39  1  0  0  0
 39 40  2  0  0  0
 40 41  1  0  0  0
 41 42  2  0  0  0
 42 43  1  0  0  0
 43 44  2  0  0  0
 44 45  1  0  0  0
 10 11  1  0  0  0
 11 12  1  0  0  0
  4 21  1  0  0  0
 21 22  2  0  0  0
 22 23  1  0  0  0
 23 24  2  0  0  0
 24 25  1  0  0  0
 25 26  2  0  0  0
 24 27  1  0  0  0
 27 28  2  0  0  0
 28 29  1  0  0  0
 29 30  2  0  0  0
 30 31  1  0  0  0
 31 32  2  0  0  0
 32 33  1  0  0  0
 30 34  1  0  0  0
 34 35  1  0  0  0
 34 36  2  0  0  0
 18 13  1  0  0  0
  7  1  1  0  0  0
 12  7  1  0  0  0
 26 21  1  0  0  0
 32 27  1  0  0  0
 44 39  1  0  0  0
 35 37  1  0  0  0
M  END
> <minimizedAffinity>
21.58343

> <CNNscore>
0.5330955386

> <CNNaffinity>
7.3665237427

> <CNN_VS>
3.9270608425

> <CNNaffinity_variance>
0.5181759596

$$$$
[H]OC(=O)c1c([H])c([H])c(-c2c([H])c([H])c(N3C(=O)N(c4nc([H])nc(OC([H])([H])[H])c4[H])C4(C3=O)C([H])([H])C([H])([H])N(C([H])([H])c3nc([H])c([H])c([H])c3C([H])([H])[H])C([H])([H])C4([H])[H])c([H])c2[H])c(F)c1[H]


 45 50  0  0  0  0  0  0  0  0999 V2000
   11.7481   20.5238    1.1966 N   0  0  0  0  0  0  0  0  0  0  0  0
   12.7161   21.1009    0.2639 C   0  0  0  0  0  0  0  0  0  0  0  0
   13.8331   20.5937   -0.0018 O   0  0  0  0  0  0  0  0  0  0  0  0
   12.1624   22.3115   -0.2683 N   0  0  0  0  0  0  0  0  0  0  0  0
   10.8821   22.4252    0.3591 C   0  0  0  0  0  0  0  0  0  0  0  0
   10.2751   23.5002    0.5528 O   0  0  0  0  0  0  0  0  0  0  0  0
   10.5089   21.0103    0.6893 C   0  0  0  0  0  0  0  0  0  0  0  0
   10.2815   20.3110   -0.6444 C   0  0  0  0  0  0  0  0  0  0  0  0
    8.8295   20.1296   -0.9257 C   0  0  0  0  0  0  0  0  0  0  0  0
    8.0453   21.3178   -0.5823 N   0  0  0  0  0  0  0  0  0  0  0  0
    8.1085   21.5723    0.8373 C   0  0  0  0  0  0  0  0  0  0  0  0
    9.2970   20.9182    1.5200 C   0  0  0  0  0  0  0  0  0  0  0  0
   12.0377   18.6330    4.4387 C   0  0  0  0  0  0  0  0  0  0  0  0
   11.5279   19.4721    3.4375 C   0  0  0  0  0  0  0  0  0  0  0  0
   12.1804   19.7062    2.2559 C   0  0  0  0  0  0  0  0  0  0  0  0
   13.3749   19.0537    2.1304 N   0  0  0  0  0  0  0  0  0  0  0  0
   13.8737   18.2473    3.0844 C   0  0  0  0  0  0  0  0  0  0  0  0
   13.2284   18.0230    4.2391 N   0  0  0  0  0  0  0  0  0  0  0  0
   10.4222   19.4324    6.0914 C   0  0  0  0  0  0  0  0  0  0  0  0
   11.3330   18.4310    5.6163 O   0  0  0  0  0  0  0  0  0  0  0  0
   12.7718   23.1776   -1.2021 C   0  0  0  0  0  0  0  0  0  0  0  0
   12.0040   23.8668   -2.1038 C   0  0  0  0  0  0  0  0  0  0  0  0
   12.5790   24.7339   -3.0386 C   0  0  0  0  0  0  0  0  0  0  0  0
   13.9505   24.8484   -2.9946 C   0  0  0  0  0  0  0  0  0  0  0  0
   14.7323   24.1599   -2.0920 C   0  0  0  0  0  0  0  0  0  0  0  0
   14.1298   23.3227   -1.1956 C   0  0  0  0  0  0  0  0  0  0  0  0
   14.5998   25.7457   -3.9512 C   0  0  0  0  0  0  0  0  0  0  0  0
   14.1930   27.0791   -4.0095 C   0  0  0  0  0  0  0  0  0  0  0  0
   14.7819   27.9439   -4.9041 C   0  0  0  0  0  0  0  0  0  0  0  0
   15.7880   27.4891   -5.7565 C   0  0  0  0  0  0  0  0  0  0  0  0
   16.1997   26.1737   -5.7091 C   0  0  0  0  0  0  0  0  0  0  0  0
   15.5934   25.3305   -4.8039 C   0  0  0  0  0  0  0  0  0  0  0  0
   15.9897   24.0191   -4.7361 F   0  0  0  0  0  0  0  0  0  0  0  0
   16.4002   28.4206   -6.7020 C   0  0  0  0  0  0  0  0  0  0  0  0
   16.2508   29.7715   -6.5530 O   0  0  0  0  0  0  0  0  0  0  0  0
   17.0657   27.9667   -7.6547 O   0  0  0  0  0  0  0  0  0  0  0  0
   15.3354   30.1815   -6.3398 H   0  0  0  0  0  0  0  0  0  0  0  0
    6.6900   20.9877   -0.9801 C   0  0  0  0  0  0  0  0  0  0  0  0
    6.3572   19.5688   -0.9757 C   0  0  0  0  0  0  0  0  0  0  0  0
    6.9917   18.7057   -0.1845 N   0  0  0  0  0  0  0  0  0  0  0  0
    6.6830   17.3770   -0.1636 C   0  0  0  0  0  0  0  0  0  0  0  0
    5.6894   16.8811   -0.9725 C   0  0  0  0  0  0  0  0  0  0  0  0
    5.0233   17.7618   -1.7970 C   0  0  0  0  0  0  0  0  0  0  0  0
    5.3572   19.1043   -1.7985 C   0  0  0  0  0  0  0  0  0  0  0  0
    4.6272   20.0586   -2.6987 C   0  0  0  0  0  0  0  0  0  0  0  0
 19 20  1  0  0  0
 20 13  1  0  0  0
 13 14  2  0  0  0
 14 15  1  0  0  0
 15 16  2  0  0  0
 16 17  1  0  0  0
 17 18  2  0  0  0
 15  1  1  0  0  0
  1  2  1  0  0  0
  2  3  2  0  0  0
  2  4  1  0  0  0
  4  5  1  0  0  0
  5  6  2  0  0  0
  5  7  1  0  0  0
  7  8  1  0  0  0
  8  9  1  0  0  0
  9 10  1  0  0  0
 10 38  1  0  0  0
 38 39  1  0  0  0
 39 40  2  0  0  0
 40 41  1  0  0  0
 41 42  2  0  0  0
 42 43  1  0  0  0
 43 44  2  0  0  0
 44 45  1  0  0  0
 10 11  1  0  0  0
 11 12  1  0  0  0
  4 21  1  0  0  0
 21 22  2  0  0  0
 22 23  1  0  0  0
 23 24  2  0  0  0
 24 25  1  0  0  0
 25 26  2  0  0  0
 24 27  1  0  0  0
 27 28  2  0  0  0
 28 29  1  0  0  0
 29 30  2  0  0  0
 30 31  1  0  0  0
 31 32  2  0  0  0
 32 33  1  0  0  0
 30 34  1  0  0  0
 34 35  1  0  0  0
 34 36  2  0  0  0
 18 13  1  0  0  0
  7  1  1  0  0  0
 12  7  1  0  0  0
 26 21  1  0  0  0
 32 27  1  0  0  0
 44 39  1  0  0  0
 35 37  1  0  0  0
M  END
> <minimizedAffinity>
7.44949

> <CNNscore>
0.5307210684

> <CNNaffinity>
7.6003403664

> <CNN_VS>
4.0336608887

> <CNNaffinity_variance>
0.3641054630

$$$$
[H]OC(=O)c1c([H])c([H])c(-c2c([H])c([H])c(N3C(=O)N(c4nc([H])nc(OC([H])([H])[H])c4[H])C4(C3=O)C([H])([H])C([H])([H])N(C([H])([H])c3nc([H])c([H])c([H])c3C([H])([H])[H])C([H])([H])C4([H])[H])c([H])c2[H])c(F)c1[H]


 45 50  0  0  0  0  0  0  0  0999 V2000
   15.6649   24.2457   -0.5299 N   0  0  0  0  0  0  0  0  0  0  0  0
   14.5577   23.8951    0.3596 C   0  0  0  0  0  0  0  0  0  0  0  0
   14.5670   24.0648    1.6033 O   0  0  0  0  0  0  0  0  0  0  0  0
   13.4998   23.3423   -0.4344 N   0  0  0  0  0  0  0  0  0  0  0  0
   14.0019   23.3768   -1.7732 C   0  0  0  0  0  0  0  0  0  0  0  0
   13.6415   22.6088   -2.6908 O   0  0  0  0  0  0  0  0  0  0  0  0
   14.9971   24.4992   -1.7624 C   0  0  0  0  0  0  0  0  0  0  0  0
   14.1915   25.7764   -1.5646 C   0  0  0  0  0  0  0  0  0  0  0  0
   14.0546   26.5387   -2.8377 C   0  0  0  0  0  0  0  0  0  0  0  0
   13.7697   25.6662   -3.9788 N   0  0  0  0  0  0  0  0  0  0  0  0
   14.8732   24.7658   -4.2146 C   0  0  0  0  0  0  0  0  0  0  0  0
   15.7773   24.5828   -3.0080 C   0  0  0  0  0  0  0  0  0  0  0  0
   18.7339   24.4194    1.6431 C   0  0  0  0  0  0  0  0  0  0  0  0
   17.3865   24.4132    1.2546 C   0  0  0  0  0  0  0  0  0  0  0  0
   16.9856   24.2686   -0.0474 C   0  0  0  0  0  0  0  0  0  0  0  0
   18.0094   24.1310   -0.9425 N   0  0  0  0  0  0  0  0  0  0  0  0
   19.3050   24.1364   -0.5813 C   0  0  0  0  0  0  0  0  0  0  0  0
   19.6897   24.2784    0.6962 N   0  0  0  0  0  0  0  0  0  0  0  0
   20.4634   24.5494    3.3671 C   0  0  0  0  0  0  0  0  0  0  0  0
   19.0828   24.5683    2.9773 O   0  0  0  0  0  0  0  0  0  0  0  0
   12.2517   22.8752    0.0322 C   0  0  0  0  0  0  0  0  0  0  0  0
   11.1693   23.7149    0.0589 C   0  0  0  0  0  0  0  0  0  0  0  0
    9.9199   23.2799    0.5130 C   0  0  0  0  0  0  0  0  0  0  0  0
    9.8493   21.9684    0.9269 C   0  0  0  0  0  0  0  0  0  0  0  0
   10.9317   21.1153    0.9043 C   0  0  0  0  0  0  0  0  0  0  0  0
   12.1344   21.5811    0.4530 C   0  0  0  0  0  0  0  0  0  0  0  0
    8.5626   21.4645    1.4088 C   0  0  0  0  0  0  0  0  0  0  0  0
    8.2941   21.4985    2.7776 C   0  0  0  0  0  0  0  0  0  0  0  0
    7.0946   21.0252    3.2595 C   0  0  0  0  0  0  0  0  0  0  0  0
    6.1429   20.5093    2.3798 C   0  0  0  0  0  0  0  0  0  0  0  0
    6.3954   20.4702    1.0246 C   0  0  0  0  0  0  0  0  0  0  0  0
    7.6038   20.9508    0.5700 C   0  0  0  0  0  0  0  0  0  0  0  0
    7.8751   20.9258   -0.7743 F   0  0  0  0  0  0  0  0  0  0  0  0
    4.8759   20.0086    2.9094 C   0  0  0  0  0  0  0  0  0  0  0  0
    4.3109   20.5665    4.0226 O   0  0  0  0  0  0  0  0  0  0  0  0
    4.3106   19.0588    2.3307 O   0  0  0  0  0  0  0  0  0  0  0  0
    4.8751   20.7761    4.8528 H   0  0  0  0  0  0  0  0  0  0  0  0
   13.6048   26.5730   -5.0989 C   0  0  0  0  0  0  0  0  0  0  0  0
   14.6026   26.4617   -6.1553 C   0  0  0  0  0  0  0  0  0  0  0  0
   14.4852   25.5668   -7.1345 N   0  0  0  0  0  0  0  0  0  0  0  0
   15.4068   25.4591   -8.1346 C   0  0  0  0  0  0  0  0  0  0  0  0
   16.5033   26.2866   -8.1619 C   0  0  0  0  0  0  0  0  0  0  0  0
   16.6389   27.2182   -7.1555 C   0  0  0  0  0  0  0  0  0  0  0  0
   15.6894   27.3052   -6.1531 C   0  0  0  0  0  0  0  0  0  0  0  0
   15.8428   28.3228   -5.0600 C   0  0  0  0  0  0  0  0  0  0  0  0
 19 20  1  0  0  0
 20 13  1  0  0  0
 13 14  2  0  0  0
 14 15  1  0  0  0
 15 16  2  0  0  0
 16 17  1  0  0  0
 17 18  2  0  0  0
 15  1  1  0  0  0
  1  2  1  0  0  0
  2  3  2  0  0  0
  2  4  1  0  0  0
  4  5  1  0  0  0
  5  6  2  0  0  0
  5  7  1  0  0  0
  7  8  1  0  0  0
  8  9  1  0  0  0
  9 10  1  0  0  0
 10 38  1  0  0  0
 38 39  1  0  0  0
 39 40  2  0  0  0
 40 41  1  0  0  0
 41 42  2  0  0  0
 42 43  1  0  0  0
 43 44  2  0  0  0
 44 45  1  0  0  0
 10 11  1  0  0  0
 11 12  1  0  0  0
  4 21  1  0  0  0
 21 22  2  0  0  0
 22 23  1  0  0  0
 23 24  2  0  0  0
 24 25  1  0  0  0
 25 26  2  0  0  0
 24 27  1  0  0  0
 27 28  2  0  0  0
 28 29  1  0  0  0
 29 30  2  0  0  0
 30 31  1  0  0  0
 31 32  2  0  0  0
 32 33  1  0  0  0
 30 34  1  0  0  0
 34 35  1  0  0  0
 34 36  2  0  0  0
 18 13  1  0  0  0
  7  1  1  0  0  0
 12  7  1  0  0  0
 26 21  1  0  0  0
 32 27  1  0  0  0
 44 39  1  0  0  0
 35 37  1  0  0  0
M  END
> <minimizedAffinity>
7.89828

> <CNNscore>
0.5067924857

> <CNNaffinity>
7.9758138657

> <CNN_VS>
4.0420823097

> <CNNaffinity_variance>
0.5629822016

$$$$
[H]OC(=O)c1c([H])c([H])c(-c2c([H])c([H])c(N3C(=O)N(c4nc([H])nc(OC([H])([H])[H])c4[H])C4(C3=O)C([H])([H])C([H])([H])N(C([H])([H])c3nc([H])c([H])c([H])c3C([H])([H])[H])C([H])([H])C4([H])[H])c([H])c2[H])c(F)c1[H]


 45 50  0  0  0  0  0  0  0  0999 V2000
   14.5330   24.5148   -0.4854 N   0  0  0  0  0  0  0  0  0  0  0  0
   13.3256   23.8622    0.0211 C   0  0  0  0  0  0  0  0  0  0  0  0
   12.8514   24.0425    1.1692 O   0  0  0  0  0  0  0  0  0  0  0  0
   12.8081   23.0103   -1.0093 N   0  0  0  0  0  0  0  0  0  0  0  0
   13.7177   23.1757   -2.1006 C   0  0  0  0  0  0  0  0  0  0  0  0
   13.9271   22.3240   -2.9907 O   0  0  0  0  0  0  0  0  0  0  0  0
   14.2976   24.5431   -1.8901 C   0  0  0  0  0  0  0  0  0  0  0  0
   13.1568   25.5258   -2.1191 C   0  0  0  0  0  0  0  0  0  0  0  0
   13.2716   26.1971   -3.4445 C   0  0  0  0  0  0  0  0  0  0  0  0
   13.6557   25.2652   -4.5069 N   0  0  0  0  0  0  0  0  0  0  0  0
   14.9734   24.7304   -4.2582 C   0  0  0  0  0  0  0  0  0  0  0  0
   15.4100   24.8392   -2.8077 C   0  0  0  0  0  0  0  0  0  0  0  0
   17.7275   24.8736    1.4733 C   0  0  0  0  0  0  0  0  0  0  0  0
   16.7827   24.3804    0.5620 C   0  0  0  0  0  0  0  0  0  0  0  0
   15.5403   24.9349    0.4014 C   0  0  0  0  0  0  0  0  0  0  0  0
   15.2935   26.0125    1.2052 N   0  0  0  0  0  0  0  0  0  0  0  0
   16.1919   26.4933    2.0832 C   0  0  0  0  0  0  0  0  0  0  0  0
   17.4069   25.9448    2.2346 N   0  0  0  0  0  0  0  0  0  0  0  0
   19.7185   24.4004    2.8121 C   0  0  0  0  0  0  0  0  0  0  0  0
   18.9720   24.2730    1.5936 O   0  0  0  0  0  0  0  0  0  0  0  0
   11.6548   22.1994   -0.9320 C   0  0  0  0  0  0  0  0  0  0  0  0
   10.4246   22.7228   -1.2326 C   0  0  0  0  0  0  0  0  0  0  0  0
    9.2650   21.9434   -1.1678 C   0  0  0  0  0  0  0  0  0  0  0  0
    9.4379   20.6315   -0.7867 C   0  0  0  0  0  0  0  0  0  0  0  0
   10.6705   20.0949   -0.4822 C   0  0  0  0  0  0  0  0  0  0  0  0
   11.7781   20.8916   -0.5583 C   0  0  0  0  0  0  0  0  0  0  0  0
    8.2547   19.7739   -0.7061 C   0  0  0  0  0  0  0  0  0  0  0  0
    7.7018   19.5024    0.5458 C   0  0  0  0  0  0  0  0  0  0  0  0
    6.5927   18.6937    0.6519 C   0  0  0  0  0  0  0  0  0  0  0  0
    6.0180   18.1424   -0.4933 C   0  0  0  0  0  0  0  0  0  0  0  0
    6.5544   18.4030   -1.7367 C   0  0  0  0  0  0  0  0  0  0  0  0
    7.6641   19.2157   -1.8135 C   0  0  0  0  0  0  0  0  0  0  0  0
    8.2122   19.4921   -3.0401 F   0  0  0  0  0  0  0  0  0  0  0  0
    4.8424   17.2838   -0.3616 C   0  0  0  0  0  0  0  0  0  0  0  0
    4.3210   16.6363   -1.4472 O   0  0  0  0  0  0  0  0  0  0  0  0
    4.3149   17.1470    0.7607 O   0  0  0  0  0  0  0  0  0  0  0  0
    4.1885   17.1236   -2.3396 H   0  0  0  0  0  0  0  0  0  0  0  0
   13.6523   26.0681   -5.7149 C   0  0  0  0  0  0  0  0  0  0  0  0
   14.7969   26.9530   -5.8898 C   0  0  0  0  0  0  0  0  0  0  0  0
   15.0218   27.9742   -5.0650 N   0  0  0  0  0  0  0  0  0  0  0  0
   16.0949   28.8037   -5.2117 C   0  0  0  0  0  0  0  0  0  0  0  0
   16.9923   28.6060   -6.2331 C   0  0  0  0  0  0  0  0  0  0  0  0
   16.7733   27.5533   -7.0950 C   0  0  0  0  0  0  0  0  0  0  0  0
   15.6765   26.7279   -6.9234 C   0  0  0  0  0  0  0  0  0  0  0  0
   15.4442   25.5823   -7.8656 C   0  0  0  0  0  0  0  0  0  0  0  0
 19 20  1  0  0  0
 20 13  1  0  0  0
 13 14  2  0  0  0
 14 15  1  0  0  0
 15 16  2  0  0  0
 16 17  1  0  0  0
 17 18  2  0  0  0
 15  1  1  0  0  0
  1  2  1  0  0  0
  2  3  2  0  0  0
  2  4  1  0  0  0
  4  5  1  0  0  0
  5  6  2  0  0  0
  5  7  1  0  0  0
  7  8  1  0  0  0
  8  9  1  0  0  0
  9 10  1  0  0  0
 10 38  1  0  0  0
 38 39  1  0  0  0
 39 40  2  0  0  0
 40 41  1  0  0  0
 41 42  2  0  0  0
 42 43  1  0  0  0
 43 44  2  0  0  0
 44 45  1  0  0  0
 10 11  1  0  0  0
 11 12  1  0  0  0
  4 21  1  0  0  0
 21 22  2  0  0  0
 22 23  1  0  0  0
 23 24  2  0  0  0
 24 25  1  0  0  0
 25 26  2  0  0  0
 24 27  1  0  0  0
 27 28  2  0  0  0
 28 29  1  0  0  0
 29 30  2  0  0  0
 30 31  1  0  0  0
 31 32  2  0  0  0
 32 33  1  0  0  0
 30 34  1  0  0  0
 34 35  1  0  0  0
 34 36  2  0  0  0
 18 13  1  0  0  0
  7  1  1  0  0  0
 12  7  1  0  0  0
 26 21  1  0  0  0
 32 27  1  0  0  0
 44 39  1  0  0  0
 35 37  1  0  0  0
M  END
> <minimizedAffinity>
11.30522

> <CNNscore>
0.5038000941

> <CNNaffinity>
7.8592004776

> <CNN_VS>
3.9594659805

> <CNNaffinity_variance>
0.4248642027

$$$$
[H]OC(=O)c1c([H])c([H])c(-c2c([H])c([H])c(N3C(=O)N(c4nc([H])nc(OC([H])([H])[H])c4[H])C4(C3=O)C([H])([H])C([H])([H])N(C([H])([H])c3nc([H])c([H])c([H])c3C([H])([H])[H])C([H])([H])C4([H])[H])c([H])c2[H])c(F)c1[H]


 45 50  0  0  0  0  0  0  0  0999 V2000
   14.3571   25.3111   -3.1761 N   0  0  0  0  0  0  0  0  0  0  0  0
   13.2009   24.6860   -2.5338 C   0  0  0  0  0  0  0  0  0  0  0  0
   12.2341   24.1793   -3.1535 O   0  0  0  0  0  0  0  0  0  0  0  0
   13.3799   24.7605   -1.1133 N   0  0  0  0  0  0  0  0  0  0  0  0
   14.6344   25.4265   -0.9453 C   0  0  0  0  0  0  0  0  0  0  0  0
   14.9585   26.0959    0.0589 O   0  0  0  0  0  0  0  0  0  0  0  0
   15.3842   25.1193   -2.2078 C   0  0  0  0  0  0  0  0  0  0  0  0
   15.6748   23.6247   -2.1737 C   0  0  0  0  0  0  0  0  0  0  0  0
   17.0969   23.3524   -1.8217 C   0  0  0  0  0  0  0  0  0  0  0  0
   17.5746   24.2131   -0.7374 N   0  0  0  0  0  0  0  0  0  0  0  0
   17.5634   25.5970   -1.1482 C   0  0  0  0  0  0  0  0  0  0  0  0
   16.6423   25.8751   -2.3232 C   0  0  0  0  0  0  0  0  0  0  0  0
   14.6352   26.0897   -6.8486 C   0  0  0  0  0  0  0  0  0  0  0  0
   14.8176   25.4494   -5.6143 C   0  0  0  0  0  0  0  0  0  0  0  0
   14.2367   25.8870   -4.4534 C   0  0  0  0  0  0  0  0  0  0  0  0
   13.4616   27.0039   -4.5946 N   0  0  0  0  0  0  0  0  0  0  0  0
   13.2804   27.6265   -5.7731 C   0  0  0  0  0  0  0  0  0  0  0  0
   13.8528   27.1916   -6.9060 N   0  0  0  0  0  0  0  0  0  0  0  0
   16.5819   26.0100   -8.3265 C   0  0  0  0  0  0  0  0  0  0  0  0
   15.2474   25.6018   -7.9936 O   0  0  0  0  0  0  0  0  0  0  0  0
   12.4948   24.2756   -0.1259 C   0  0  0  0  0  0  0  0  0  0  0  0
   12.6924   23.0375    0.4268 C   0  0  0  0  0  0  0  0  0  0  0  0
   11.8342   22.5318    1.4087 C   0  0  0  0  0  0  0  0  0  0  0  0
   10.7899   23.3493    1.7793 C   0  0  0  0  0  0  0  0  0  0  0  0
   10.5819   24.5963    1.2299 C   0  0  0  0  0  0  0  0  0  0  0  0
   11.4445   25.0521    0.2731 C   0  0  0  0  0  0  0  0  0  0  0  0
    9.8650   22.8662    2.8054 C   0  0  0  0  0  0  0  0  0  0  0  0
    9.6162   21.4965    2.8991 C   0  0  0  0  0  0  0  0  0  0  0  0
    8.7458   21.0146    3.8506 C   0  0  0  0  0  0  0  0  0  0  0  0
    8.1089   21.8955    4.7248 C   0  0  0  0  0  0  0  0  0  0  0  0
    8.3460   23.2516    4.6431 C   0  0  0  0  0  0  0  0  0  0  0  0
    9.2219   23.7060    3.6817 C   0  0  0  0  0  0  0  0  0  0  0  0
    9.4763   25.0503    3.5848 F   0  0  0  0  0  0  0  0  0  0  0  0
    7.1857   21.3666    5.7270 C   0  0  0  0  0  0  0  0  0  0  0  0
    6.1318   22.1140    6.1743 O   0  0  0  0  0  0  0  0  0  0  0  0
    7.3710   20.2167    6.1742 O   0  0  0  0  0  0  0  0  0  0  0  0
    6.2532   23.1003    6.4274 H   0  0  0  0  0  0  0  0  0  0  0  0
   18.9323   23.7672   -0.4891 C   0  0  0  0  0  0  0  0  0  0  0  0
   19.4689   24.0775    0.8299 C   0  0  0  0  0  0  0  0  0  0  0  0
   20.7667   24.3097    1.0183 N   0  0  0  0  0  0  0  0  0  0  0  0
   21.2801   24.6111    2.2458 C   0  0  0  0  0  0  0  0  0  0  0  0
   20.4580   24.6859    3.3441 C   0  0  0  0  0  0  0  0  0  0  0  0
   19.1124   24.4483    3.1654 C   0  0  0  0  0  0  0  0  0  0  0  0
   18.6186   24.1442    1.9094 C   0  0  0  0  0  0  0  0  0  0  0  0
   17.1515   23.8870    1.7214 C   0  0  0  0  0  0  0  0  0  0  0  0
 19 20  1  0  0  0
 20 13  1  0  0  0
 13 14  2  0  0  0
 14 15  1  0  0  0
 15 16  2  0  0  0
 16 17  1  0  0  0
 17 18  2  0  0  0
 15  1  1  0  0  0
  1  2  1  0  0  0
  2  3  2  0  0  0
  2  4  1  0  0  0
  4  5  1  0  0  0
  5  6  2  0  0  0
  5  7  1  0  0  0
  7  8  1  0  0  0
  8  9  1  0  0  0
  9 10  1  0  0  0
 10 38  1  0  0  0
 38 39  1  0  0  0
 39 40  2  0  0  0
 40 41  1  0  0  0
 41 42  2  0  0  0
 42 43  1  0  0  0
 43 44  2  0  0  0
 44 45  1  0  0  0
 10 11  1  0  0  0
 11 12  1  0  0  0
  4 21  1  0  0  0
 21 22  2  0  0  0
 22 23  1  0  0  0
 23 24  2  0  0  0
 24 25  1  0  0  0
 25 26  2  0  0  0
 24 27  1  0  0  0
 27 28  2  0  0  0
 28 29  1  0  0  0
 29 30  2  0  0  0
 30 31  1  0  0  0
 31 32  2  0  0  0
 32 33  1  0  0  0
 30 34  1  0  0  0
 34 35  1  0  0  0
 34 36  2  0  0  0
 18 13  1  0  0  0
  7  1  1  0  0  0
 12  7  1  0  0  0
 26 21  1  0  0  0
 32 27  1  0  0  0
 44 39  1  0  0  0
 35 37  1  0  0  0
M  END
> <minimizedAffinity>
25.19753

> <CNNscore>
0.4959803224

> <CNNaffinity>
7.5312132835

> <CNN_VS>
3.7353336811

> <CNNaffinity_variance>
0.3636135459

$$$$
[H]OC(=O)c1c([H])c([H])c(-c2c([H])c([H])c(N3C(=O)N(c4nc([H])nc(OC([H])([H])[H])c4[H])C4(C3=O)C([H])([H])C([H])([H])N(C([H])([H])c3nc([H])c([H])c([H])c3C([H])([H])[H])C([H])([H])C4([H])[H])c([H])c2[H])c(F)c1[H]


 45 50  0  0  0  0  0  0  0  0999 V2000
   15.9255   24.0075   -0.0821 N   0  0  0  0  0  0  0  0  0  0  0  0
   14.8465   23.9710    0.9049 C   0  0  0  0  0  0  0  0  0  0  0  0
   14.9290   24.4482    2.0629 O   0  0  0  0  0  0  0  0  0  0  0  0
   13.7189   23.3106    0.3153 N   0  0  0  0  0  0  0  0  0  0  0  0
   14.1532   22.9707   -1.0044 C   0  0  0  0  0  0  0  0  0  0  0  0
   13.7022   22.0230   -1.6825 O   0  0  0  0  0  0  0  0  0  0  0  0
   15.2118   23.9874   -1.3148 C   0  0  0  0  0  0  0  0  0  0  0  0
   14.4935   25.3261   -1.4222 C   0  0  0  0  0  0  0  0  0  0  0  0
   14.3368   25.7497   -2.8422 C   0  0  0  0  0  0  0  0  0  0  0  0
   13.9435   24.6393   -3.7122 N   0  0  0  0  0  0  0  0  0  0  0  0
   14.9789   23.6340   -3.7481 C   0  0  0  0  0  0  0  0  0  0  0  0
   15.9310   23.6992   -2.5666 C   0  0  0  0  0  0  0  0  0  0  0  0
   19.6673   23.6716    0.1571 C   0  0  0  0  0  0  0  0  0  0  0  0
   18.3585   23.5687   -0.3359 C   0  0  0  0  0  0  0  0  0  0  0  0
   17.2682   24.0595    0.3328 C   0  0  0  0  0  0  0  0  0  0  0  0
   17.5593   24.6601    1.5256 N   0  0  0  0  0  0  0  0  0  0  0  0
   18.8105   24.7637    2.0083 C   0  0  0  0  0  0  0  0  0  0  0  0
   19.8733   24.2804    1.3473 N   0  0  0  0  0  0  0  0  0  0  0  0
   20.5272   22.6297   -1.8814 C   0  0  0  0  0  0  0  0  0  0  0  0
   20.7350   23.1571   -0.5635 O   0  0  0  0  0  0  0  0  0  0  0  0
   12.4710   23.0645    0.9283 C   0  0  0  0  0  0  0  0  0  0  0  0
   12.1654   21.8100    1.3868 C   0  0  0  0  0  0  0  0  0  0  0  0
   10.9387   21.5368    2.0008 C   0  0  0  0  0  0  0  0  0  0  0  0
   10.0682   22.5980    2.1130 C   0  0  0  0  0  0  0  0  0  0  0  0
   10.3655   23.8637    1.6552 C   0  0  0  0  0  0  0  0  0  0  0  0
   11.5757   24.0873    1.0613 C   0  0  0  0  0  0  0  0  0  0  0  0
    8.7719   22.3637    2.7505 C   0  0  0  0  0  0  0  0  0  0  0  0
    8.3982   23.1606    3.8331 C   0  0  0  0  0  0  0  0  0  0  0  0
    7.1873   22.9582    4.4560 C   0  0  0  0  0  0  0  0  0  0  0  0
    6.3296   21.9543    4.0065 C   0  0  0  0  0  0  0  0  0  0  0  0
    6.6867   21.1597    2.9374 C   0  0  0  0  0  0  0  0  0  0  0  0
    7.9039   21.3845    2.3327 C   0  0  0  0  0  0  0  0  0  0  0  0
    8.2782   20.6092    1.2649 F   0  0  0  0  0  0  0  0  0  0  0  0
    5.0491   21.7517    4.6816 C   0  0  0  0  0  0  0  0  0  0  0  0
    4.6570   22.5712    5.7036 O   0  0  0  0  0  0  0  0  0  0  0  0
    4.3115   20.8154    4.3131 O   0  0  0  0  0  0  0  0  0  0  0  0
    5.3078   22.8300    6.4526 H   0  0  0  0  0  0  0  0  0  0  0  0
   13.7751   25.2430   -5.0204 C   0  0  0  0  0  0  0  0  0  0  0  0
   14.6483   26.3725   -5.3131 C   0  0  0  0  0  0  0  0  0  0  0  0
   15.7219   26.2414   -6.0901 N   0  0  0  0  0  0  0  0  0  0  0  0
   16.5416   27.2927   -6.3800 C   0  0  0  0  0  0  0  0  0  0  0  0
   16.2785   28.5410   -5.8699 C   0  0  0  0  0  0  0  0  0  0  0  0
   15.1709   28.6928   -5.0641 C   0  0  0  0  0  0  0  0  0  0  0  0
   14.3569   27.6093   -4.7859 C   0  0  0  0  0  0  0  0  0  0  0  0
   13.1515   27.7817   -3.9078 C   0  0  0  0  0  0  0  0  0  0  0  0
 19 20  1  0  0  0
 20 13  1  0  0  0
 13 14  2  0  0  0
 14 15  1  0  0  0
 15 16  2  0  0  0
 16 17  1  0  0  0
 17 18  2  0  0  0
 15  1  1  0  0  0
  1  2  1  0  0  0
  2  3  2  0  0  0
  2  4  1  0  0  0
  4  5  1  0  0  0
  5  6  2  0  0  0
  5  7  1  0  0  0
  7  8  1  0  0  0
  8  9  1  0  0  0
  9 10  1  0  0  0
 10 38  1  0  0  0
 38 39  1  0  0  0
 39 40  2  0  0  0
 40 41  1  0  0  0
 41 42  2  0  0  0
 42 43  1  0  0  0
 43 44  2  0  0  0
 44 45  1  0  0  0
 10 11  1  0  0  0
 11 12  1  0  0  0
  4 21  1  0  0  0
 21 22  2  0  0  0
 22 23  1  0  0  0
 23 24  2  0  0  0
 24 25  1  0  0  0
 25 26  2  0  0  0
 24 27  1  0  0  0
 27 28  2  0  0  0
 28 29  1  0  0  0
 29 30  2  0  0  0
 30 31  1  0  0  0
 31 32  2  0  0  0
 32 33  1  0  0  0
 30 34  1  0  0  0
 34 35  1  0  0  0
 34 36  2  0  0  0
 18 13  1  0  0  0
  7  1  1  0  0  0
 12  7  1  0  0  0
 26 21  1  0  0  0
 32 27  1  0  0  0
 44 39  1  0  0  0
 35 37  1  0  0  0
M  END
> <minimizedAffinity>
18.90393

> <CNNscore>
0.4804183841

> <CNNaffinity>
7.8484091759

> <CNN_VS>
3.7705199718

> <CNNaffinity_variance>
0.7094739676

$$$$
[H]OC(=O)C([H])([H])N([H])C(=O)c1c(O[H])c2c([H])c(C([H])([H])N([H])C(=O)[C@@]([H])(N([H])C(=O)[C@@]([H])(N([H])C(=O)C([H])([H])C([H])([H])N3C([H])([H])C([H])([H])OC([H])([H])C3([H])[H])C([H])([H])c3c([H])c([H])c([H])c([H])c3[H])C([H])([H])c3c([H])c([H])c([H])c([H])c3[H])c([H])c([H])c2n(C([H])([H])[H])c1=O


 60 64  0  0  0  0  0  0  0  0999 V2000
   12.0008   22.5226    1.3286 C   0  0  0  0  0  0  0  0  0  0  0  0
   12.0020   24.0602   -0.7189 N   0  0  0  0  0  0  0  0  0  0  0  0
   11.5373   23.6192    0.5136 C   0  0  0  0  0  0  0  0  0  0  0  0
   10.5260   24.2871    1.0307 O   0  0  0  0  0  0  0  0  0  0  0  0
   12.7737   23.6461   -1.2294 H   0  0  0  0  0  0  0  0  0  0  0  0
   11.3825   25.2315   -1.3859 C   0  0  0  0  0  0  0  0  0  0  0  0
   14.5698   27.3588   -6.5850 C   0  0  0  0  0  0  0  0  0  0  0  0
   15.0098   27.1355   -5.2057 N   0  0  0  0  0  0  0  0  0  0  0  0
   14.1407   26.6641   -4.3023 C   0  0  0  0  0  0  0  0  0  0  0  0
   12.8198   26.3902   -4.6581 C   0  0  0  0  0  0  0  0  0  0  0  0
   11.9455   25.9176   -3.7036 C   0  0  0  0  0  0  0  0  0  0  0  0
   12.3371   25.7053   -2.3995 C   0  0  0  0  0  0  0  0  0  0  0  0
   13.6503   25.9789   -2.0572 C   0  0  0  0  0  0  0  0  0  0  0  0
   14.5340   26.4507   -2.9995 C   0  0  0  0  0  0  0  0  0  0  0  0
   15.8635   26.7399   -2.6521 C   0  0  0  0  0  0  0  0  0  0  0  0
   16.2821   26.5361   -1.3650 O   0  0  0  0  0  0  0  0  0  0  0  0
   16.7675   27.2227   -3.5601 C   0  0  0  0  0  0  0  0  0  0  0  0
   16.2655   27.4052   -4.8614 C   0  0  0  0  0  0  0  0  0  0  0  0
   17.0576   27.8451   -5.7245 O   0  0  0  0  0  0  0  0  0  0  0  0
   15.7918   26.2019   -0.5882 H   0  0  0  0  0  0  0  0  0  0  0  0
   18.1546   27.5472   -3.3091 C   0  0  0  0  0  0  0  0  0  0  0  0
   18.6737   27.1396   -2.1970 O   0  0  0  0  0  0  0  0  0  0  0  0
   18.9947   28.2730   -4.1756 N   0  0  0  0  0  0  0  0  0  0  0  0
   18.7400   28.6786   -5.0891 H   0  0  0  0  0  0  0  0  0  0  0  0
   20.3969   28.5157   -3.8006 C   0  0  0  0  0  0  0  0  0  0  0  0
   21.1387   27.2572   -3.9648 C   0  0  0  0  0  0  0  0  0  0  0  0
   21.1595   26.3206   -2.9517 O   0  0  0  0  0  0  0  0  0  0  0  0
   21.7596   27.0162   -5.0206 O   0  0  0  0  0  0  0  0  0  0  0  0
   20.8418   25.3779   -3.1821 H   0  0  0  0  0  0  0  0  0  0  0  0
   10.8252   21.5660    1.3936 N   0  0  0  0  0  0  0  0  0  0  0  0
   10.1583   21.1310    0.2510 C   0  0  0  0  0  0  0  0  0  0  0  0
   10.6648   21.6017   -0.8631 O   0  0  0  0  0  0  0  0  0  0  0  0
   10.5660   21.2328    2.3283 H   0  0  0  0  0  0  0  0  0  0  0  0
    9.0250   20.2604    0.0483 C   0  0  0  0  0  0  0  0  0  0  0  0
    7.7970   20.8549    0.5990 N   0  0  0  0  0  0  0  0  0  0  0  0
    7.6190   21.0306    1.9861 C   0  0  0  0  0  0  0  0  0  0  0  0
    8.5339   20.6647    2.7595 O   0  0  0  0  0  0  0  0  0  0  0  0
    7.0614   21.1361   -0.1074 H   0  0  0  0  0  0  0  0  0  0  0  0
    6.3919   21.6298    2.5460 C   0  0  0  0  0  0  0  0  0  0  0  0
    6.2192   21.2001    3.9597 C   0  0  0  0  0  0  0  0  0  0  0  0
    6.5751   22.1876    4.9314 N   0  0  0  0  0  0  0  0  0  0  0  0
    6.5753   23.5359    4.4847 C   0  0  0  0  0  0  0  0  0  0  0  0
    6.5295   24.4516    5.6947 C   0  0  0  0  0  0  0  0  0  0  0  0
    7.3303   24.0386    6.7343 O   0  0  0  0  0  0  0  0  0  0  0  0
    8.2488   23.0702    6.3839 C   0  0  0  0  0  0  0  0  0  0  0  0
    7.6062   21.8119    5.8354 C   0  0  0  0  0  0  0  0  0  0  0  0
    8.7334   19.5337   -1.1754 C   0  0  0  0  0  0  0  0  0  0  0  0
    7.3090   19.2746   -1.4525 C   0  0  0  0  0  0  0  0  0  0  0  0
    6.4705   19.9614   -2.2575 C   0  0  0  0  0  0  0  0  0  0  0  0
    5.1412   19.6793   -2.4991 C   0  0  0  0  0  0  0  0  0  0  0  0
    4.6186   18.5648   -1.8369 C   0  0  0  0  0  0  0  0  0  0  0  0
    5.4345   17.8327   -1.0052 C   0  0  0  0  0  0  0  0  0  0  0  0
    6.7502   18.1533   -0.7972 C   0  0  0  0  0  0  0  0  0  0  0  0
   13.1307   21.6836    1.0339 C   0  0  0  0  0  0  0  0  0  0  0  0
   14.5023   22.0566    0.9932 C   0  0  0  0  0  0  0  0  0  0  0  0
   15.5424   21.2078    1.2419 C   0  0  0  0  0  0  0  0  0  0  0  0
   16.8690   21.6085    1.1871 C   0  0  0  0  0  0  0  0  0  0  0  0
   17.1959   22.9121    0.8712 C   0  0  0  0  0  0  0  0  0  0  0  0
   16.1539   23.7942    0.6137 C   0  0  0  0  0  0  0  0  0  0  0  0
   14.8514   23.3697    0.6755 C   0  0  0  0  0  0  0  0  0  0  0  0
  7  8  1  0  0  0
  8  9  1  0  0  0
  9 10  2  0  0  0
 10 11  1  0  0  0
 11 12  2  0  0  0
 12  6  1  0  0  0
  6  2  1  0  0  0
  2  3  1  0  0  0
  3  4  2  0  0  0
  3  1  1  0  0  0
  1 54  1  0  0  0
 54 55  1  0  0  0
 55 56  2  0  0  0
 56 57  1  0  0  0
 57 58  2  0  0  0
 58 59  1  0  0  0
 59 60  2  0  0  0
  1 30  1  0  0  0
 30 31  1  0  0  0
 31 32  2  0  0  0
 31 34  1  0  0  0
 34 47  1  0  0  0
 47 48  1  0  0  0
 48 49  2  0  0  0
 49 50  1  0  0  0
 50 51  2  0  0  0
 51 52  1  0  0  0
 52 53  2  0  0  0
 34 35  1  0  0  0
 35 36  1  0  0  0
 36 37  2  0  0  0
 36 39  1  0  0  0
 39 40  1  0  0  0
 40 41  1  0  0  0
 41 42  1  0  0  0
 42 43  1  0  0  0
 43 44  1  0  0  0
 44 45  1  0  0  0
 45 46  1  0  0  0
 12 13  1  0  0  0
 13 14  2  0  0  0
 14 15  1  0  0  0
 15 16  1  0  0  0
 15 17  2  0  0  0
 17 21  1  0  0  0
 21 22  2  0  0  0
 21 23  1  0  0  0
 23 25  1  0  0  0
 25 26  1  0  0  0
 26 27  1  0  0  0
 26 28  2  0  0  0
 17 18  1  0  0  0
 18 19  2  0  0  0
 18  8  1  0  0  0
 14  9  1  0  0  0
 60 55  1  0  0  0
 53 48  1  0  0  0
 46 41  1  0  0  0
  2  5  1  0  0  0
 30 33  1  0  0  0
 35 38  1  0  0  0
 16 20  1  0  0  0
 23 24  1  0  0  0
 27 29  1  0  0  0
M  END
> <minimizedAffinity>
7.06089

> <CNNscore>
0.4747939110

> <CNNaffinity>
7.6654601097

> <CNN_VS>
3.6395137310

> <CNNaffinity_variance>
0.2325266600

$$$$
[H]OC(=O)C([H])([H])N([H])C(=O)c1c(O[H])c2c([H])c(C([H])([H])N([H])C(=O)[C@@]([H])(N([H])C(=O)[C@@]([H])(N([H])C(=O)C([H])([H])C([H])([H])N3C([H])([H])C([H])([H])OC([H])([H])C3([H])[H])C([H])([H])c3c([H])c([H])c([H])c([H])c3[H])C([H])([H])c3c([H])c([H])c([H])c([H])c3[H])c([H])c([H])c2n(C([H])([H])[H])c1=O


 60 64  0  0  0  0  0  0  0  0999 V2000
   12.6236   24.9235   -1.4231 C   0  0  0  0  0  0  0  0  0  0  0  0
   12.1173   24.9891    1.0860 N   0  0  0  0  0  0  0  0  0  0  0  0
   11.8295   25.2143   -0.2542 C   0  0  0  0  0  0  0  0  0  0  0  0
   10.6661   25.7742   -0.5167 O   0  0  0  0  0  0  0  0  0  0  0  0
   12.9693   24.5628    1.4323 H   0  0  0  0  0  0  0  0  0  0  0  0
   11.1416   25.3565    2.1413 C   0  0  0  0  0  0  0  0  0  0  0  0
    6.1394   21.5418    0.6784 C   0  0  0  0  0  0  0  0  0  0  0  0
    7.0257   21.5691    1.8444 N   0  0  0  0  0  0  0  0  0  0  0  0
    7.9968   22.4886    1.9156 C   0  0  0  0  0  0  0  0  0  0  0  0
    8.1783   23.4157    0.8890 C   0  0  0  0  0  0  0  0  0  0  0  0
    9.1940   24.3420    0.9849 C   0  0  0  0  0  0  0  0  0  0  0  0
   10.0422   24.3822    2.0703 C   0  0  0  0  0  0  0  0  0  0  0  0
    9.8526   23.4587    3.0841 C   0  0  0  0  0  0  0  0  0  0  0  0
    8.8429   22.5286    3.0020 C   0  0  0  0  0  0  0  0  0  0  0  0
    8.6558   21.5836    4.0235 C   0  0  0  0  0  0  0  0  0  0  0  0
    9.4810   21.6009    5.1154 O   0  0  0  0  0  0  0  0  0  0  0  0
    7.6695   20.6353    3.9700 C   0  0  0  0  0  0  0  0  0  0  0  0
    6.8614   20.6803    2.8196 C   0  0  0  0  0  0  0  0  0  0  0  0
    5.9465   19.8314    2.7287 O   0  0  0  0  0  0  0  0  0  0  0  0
   10.2289   22.1923    5.3309 H   0  0  0  0  0  0  0  0  0  0  0  0
    7.3891   19.6237    4.9652 C   0  0  0  0  0  0  0  0  0  0  0  0
    7.3689   19.9917    6.2048 O   0  0  0  0  0  0  0  0  0  0  0  0
    7.1342   18.2642    4.7005 N   0  0  0  0  0  0  0  0  0  0  0  0
    7.1243   17.8044    3.7773 H   0  0  0  0  0  0  0  0  0  0  0  0
    6.8439   17.3450    5.8126 C   0  0  0  0  0  0  0  0  0  0  0  0
    5.3854   17.2802    5.9836 C   0  0  0  0  0  0  0  0  0  0  0  0
    4.5841   18.3176    5.5528 O   0  0  0  0  0  0  0  0  0  0  0  0
    4.8498   16.2880    6.5195 O   0  0  0  0  0  0  0  0  0  0  0  0
    3.8391   18.0881    4.8932 H   0  0  0  0  0  0  0  0  0  0  0  0
   12.3128   23.4752   -1.7505 N   0  0  0  0  0  0  0  0  0  0  0  0
   12.5457   22.4432   -0.8449 C   0  0  0  0  0  0  0  0  0  0  0  0
   13.0219   22.8528    0.3060 O   0  0  0  0  0  0  0  0  0  0  0  0
   11.8922   23.3008   -2.6695 H   0  0  0  0  0  0  0  0  0  0  0  0
   12.3615   21.0134   -0.9184 C   0  0  0  0  0  0  0  0  0  0  0  0
   10.9325   20.6666   -0.9656 N   0  0  0  0  0  0  0  0  0  0  0  0
   10.3413   19.8362    0.0079 C   0  0  0  0  0  0  0  0  0  0  0  0
   11.0606   19.3855    0.9290 O   0  0  0  0  0  0  0  0  0  0  0  0
   10.3832   21.0745   -1.7725 H   0  0  0  0  0  0  0  0  0  0  0  0
    8.9078   19.4870   -0.0302 C   0  0  0  0  0  0  0  0  0  0  0  0
    8.3013   19.9788   -1.2964 C   0  0  0  0  0  0  0  0  0  0  0  0
    6.8960   19.7402   -1.4172 N   0  0  0  0  0  0  0  0  0  0  0  0
    6.4288   18.4875   -0.9378 C   0  0  0  0  0  0  0  0  0  0  0  0
    4.9276   18.5733   -0.7286 C   0  0  0  0  0  0  0  0  0  0  0  0
    4.2663   19.2539   -1.7246 O   0  0  0  0  0  0  0  0  0  0  0  0
    5.0203   19.4542   -2.8628 C   0  0  0  0  0  0  0  0  0  0  0  0
    6.2912   20.2382   -2.6036 C   0  0  0  0  0  0  0  0  0  0  0  0
   13.1317   20.1100   -1.7559 C   0  0  0  0  0  0  0  0  0  0  0  0
   13.9098   20.7353   -2.8405 C   0  0  0  0  0  0  0  0  0  0  0  0
   14.7852   21.7603   -2.7643 C   0  0  0  0  0  0  0  0  0  0  0  0
   15.5040   22.3118   -3.8055 C   0  0  0  0  0  0  0  0  0  0  0  0
   15.2971   21.7428   -5.0654 C   0  0  0  0  0  0  0  0  0  0  0  0
   14.4138   20.6955   -5.1936 C   0  0  0  0  0  0  0  0  0  0  0  0
   13.7224   20.1821   -4.1280 C   0  0  0  0  0  0  0  0  0  0  0  0
   12.5305   25.6051   -2.6857 C   0  0  0  0  0  0  0  0  0  0  0  0
   13.5975   26.0292   -3.5246 C   0  0  0  0  0  0  0  0  0  0  0  0
   13.9440   27.3328   -3.7360 C   0  0  0  0  0  0  0  0  0  0  0  0
   14.9961   27.7068   -4.5586 C   0  0  0  0  0  0  0  0  0  0  0  0
   15.7511   26.7522   -5.2103 C   0  0  0  0  0  0  0  0  0  0  0  0
   15.4173   25.4186   -5.0100 C   0  0  0  0  0  0  0  0  0  0  0  0
   14.3714   25.0783   -4.1909 C   0  0  0  0  0  0  0  0  0  0  0  0
  7  8  1  0  0  0
  8  9  1  0  0  0
  9 10  2  0  0  0
 10 11  1  0  0  0
 11 12  2  0  0  0
 12  6  1  0  0  0
  6  2  1  0  0  0
  2  3  1  0  0  0
  3  4  2  0  0  0
  3  1  1  0  0  0
  1 54  1  0  0  0
 54 55  1  0  0  0
 55 56  2  0  0  0
 56 57  1  0  0  0
 57 58  2  0  0  0
 58 59  1  0  0  0
 59 60  2  0  0  0
  1 30  1  0  0  0
 30 31  1  0  0  0
 31 32  2  0  0  0
 31 34  1  0  0  0
 34 47  1  0  0  0
 47 48  1  0  0  0
 48 49  2  0  0  0
 49 50  1  0  0  0
 50 51  2  0  0  0
 51 52  1  0  0  0
 52 53  2  0  0  0
 34 35  1  0  0  0
 35 36  1  0  0  0
 36 37  2  0  0  0
 36 39  1  0  0  0
 39 40  1  0  0  0
 40 41  1  0  0  0
 41 42  1  0  0  0
 42 43  1  0  0  0
 43 44  1  0  0  0
 44 45  1  0  0  0
 45 46  1  0  0  0
 12 13  1  0  0  0
 13 14  2  0  0  0
 14 15  1  0  0  0
 15 16  1  0  0  0
 15 17  2  0  0  0
 17 21  1  0  0  0
 21 22  2  0  0  0
 21 23  1  0  0  0
 23 25  1  0  0  0
 25 26  1  0  0  0
 26 27  1  0  0  0
 26 28  2  0  0  0
 17 18  1  0  0  0
 18 19  2  0  0  0
 18  8  1  0  0  0
 14  9  1  0  0  0
 60 55  1  0  0  0
 53 48  1  0  0  0
 46 41  1  0  0  0
  2  5  1  0  0  0
 30 33  1  0  0  0
 35 38  1  0  0  0
 16 20  1  0  0  0
 23 24  1  0  0  0
 27 29  1  0  0  0
M  END
> <minimizedAffinity>
1.93921

> <CNNscore>
0.4035189152

> <CNNaffinity>
7.3481626511

> <CNN_VS>
2.9651226997

> <CNNaffinity_variance>
0.3204289079

$$$$
[H]OC(=O)C([H])([H])N([H])C(=O)c1c(O[H])c2c([H])c(C([H])([H])N([H])C(=O)[C@@]([H])(N([H])C(=O)[C@@]([H])(N([H])C(=O)C([H])([H])C([H])([H])N3C([H])([H])C([H])([H])OC([H])([H])C3([H])[H])C([H])([H])c3c([H])c([H])c([H])c([H])c3[H])C([H])([H])c3c([H])c([H])c([H])c([H])c3[H])c([H])c([H])c2n(C([H])([H])[H])c1=O


 60 64  0  0  0  0  0  0  0  0999 V2000
   13.3474   20.7277   -1.9677 C   0  0  0  0  0  0  0  0  0  0  0  0
   10.7877   20.6905   -2.0205 N   0  0  0  0  0  0  0  0  0  0  0  0
   12.0525   20.5148   -2.5672 C   0  0  0  0  0  0  0  0  0  0  0  0
   12.0972   20.0923   -3.8145 O   0  0  0  0  0  0  0  0  0  0  0  0
   10.6037   21.0043   -1.0743 H   0  0  0  0  0  0  0  0  0  0  0  0
    9.5716   20.3963   -2.8174 C   0  0  0  0  0  0  0  0  0  0  0  0
    3.9112   20.0551    0.2742 C   0  0  0  0  0  0  0  0  0  0  0  0
    5.2678   20.3065    0.7664 N   0  0  0  0  0  0  0  0  0  0  0  0
    6.2892   20.3431   -0.0992 C   0  0  0  0  0  0  0  0  0  0  0  0
    6.0768   20.1376   -1.4626 C   0  0  0  0  0  0  0  0  0  0  0  0
    7.1493   20.1689   -2.3273 C   0  0  0  0  0  0  0  0  0  0  0  0
    8.4341   20.3987   -1.8851 C   0  0  0  0  0  0  0  0  0  0  0  0
    8.6338   20.6028   -0.5305 C   0  0  0  0  0  0  0  0  0  0  0  0
    7.5728   20.5745    0.3441 C   0  0  0  0  0  0  0  0  0  0  0  0
    7.7742   20.7699    1.7199 C   0  0  0  0  0  0  0  0  0  0  0  0
    9.0390   21.0032    2.1883 O   0  0  0  0  0  0  0  0  0  0  0  0
    6.7441   20.7361    2.6214 C   0  0  0  0  0  0  0  0  0  0  0  0
    5.4746   20.4928    2.0666 C   0  0  0  0  0  0  0  0  0  0  0  0
    4.5031   20.4534    2.8544 O   0  0  0  0  0  0  0  0  0  0  0  0
    9.8879   21.0641    1.7074 H   0  0  0  0  0  0  0  0  0  0  0  0
    6.8413   20.9283    4.0517 C   0  0  0  0  0  0  0  0  0  0  0  0
    6.4276   19.9698    4.8148 O   0  0  0  0  0  0  0  0  0  0  0  0
    7.3507   22.0756    4.6902 N   0  0  0  0  0  0  0  0  0  0  0  0
    7.7080   22.9299    4.2358 H   0  0  0  0  0  0  0  0  0  0  0  0
    7.4083   22.1294    6.1598 C   0  0  0  0  0  0  0  0  0  0  0  0
    7.8344   23.4805    6.5517 C   0  0  0  0  0  0  0  0  0  0  0  0
    9.1725   23.7688    6.7256 O   0  0  0  0  0  0  0  0  0  0  0  0
    6.9948   24.3864    6.7325 O   0  0  0  0  0  0  0  0  0  0  0  0
    9.5587   24.5380    6.1763 H   0  0  0  0  0  0  0  0  0  0  0  0
   13.6346   22.2017   -2.1825 N   0  0  0  0  0  0  0  0  0  0  0  0
   12.8529   23.2014   -1.6088 C   0  0  0  0  0  0  0  0  0  0  0  0
   11.8837   22.7416   -0.8549 O   0  0  0  0  0  0  0  0  0  0  0  0
   14.4581   22.4224   -2.7526 H   0  0  0  0  0  0  0  0  0  0  0  0
   12.9008   24.6426   -1.6736 C   0  0  0  0  0  0  0  0  0  0  0  0
   13.5176   25.0947   -2.9304 N   0  0  0  0  0  0  0  0  0  0  0  0
   13.0718   26.2540   -3.5968 C   0  0  0  0  0  0  0  0  0  0  0  0
   12.1244   26.9051   -3.0994 O   0  0  0  0  0  0  0  0  0  0  0  0
   14.3080   24.4966   -3.2999 H   0  0  0  0  0  0  0  0  0  0  0  0
   13.6880   26.7164   -4.8558 C   0  0  0  0  0  0  0  0  0  0  0  0
   15.1233   27.0348   -4.6289 C   0  0  0  0  0  0  0  0  0  0  0  0
   15.7578   26.2438   -3.6199 N   0  0  0  0  0  0  0  0  0  0  0  0
   16.8475   26.8505   -2.9401 C   0  0  0  0  0  0  0  0  0  0  0  0
   17.1030   26.0909   -1.6508 C   0  0  0  0  0  0  0  0  0  0  0  0
   17.0091   24.7248   -1.7832 O   0  0  0  0  0  0  0  0  0  0  0  0
   17.0149   24.2867   -3.0917 C   0  0  0  0  0  0  0  0  0  0  0  0
   15.8782   24.8583   -3.9151 C   0  0  0  0  0  0  0  0  0  0  0  0
   11.8229   25.5363   -1.2860 C   0  0  0  0  0  0  0  0  0  0  0  0
   10.9066   25.0349   -0.2460 C   0  0  0  0  0  0  0  0  0  0  0  0
    9.6980   24.4531   -0.3995 C   0  0  0  0  0  0  0  0  0  0  0  0
    8.8726   23.9862    0.6033 C   0  0  0  0  0  0  0  0  0  0  0  0
    9.3463   24.1358    1.9098 C   0  0  0  0  0  0  0  0  0  0  0  0
   10.5732   24.7235    2.1172 C   0  0  0  0  0  0  0  0  0  0  0  0
   11.3573   25.1719    1.0871 C   0  0  0  0  0  0  0  0  0  0  0  0
   13.6761   20.4951   -0.5874 C   0  0  0  0  0  0  0  0  0  0  0  0
   14.7066   21.1100    0.1756 C   0  0  0  0  0  0  0  0  0  0  0  0
   15.6964   20.4318    0.8270 C   0  0  0  0  0  0  0  0  0  0  0  0
   16.6883   21.0686    1.5578 C   0  0  0  0  0  0  0  0  0  0  0  0
   16.7131   22.4454    1.6565 C   0  0  0  0  0  0  0  0  0  0  0  0
   15.7158   23.1571    1.0014 C   0  0  0  0  0  0  0  0  0  0  0  0
   14.7475   22.5005    0.2861 C   0  0  0  0  0  0  0  0  0  0  0  0
  7  8  1  0  0  0
  8  9  1  0  0  0
  9 10  2  0  0  0
 10 11  1  0  0  0
 11 12  2  0  0  0
 12  6  1  0  0  0
  6  2  1  0  0  0
  2  3  1  0  0  0
  3  4  2  0  0  0
  3  1  1  0  0  0
  1 54  1  0  0  0
 54 55  1  0  0  0
 55 56  2  0  0  0
 56 57  1  0  0  0
 57 58  2  0  0  0
 58 59  1  0  0  0
 59 60  2  0  0  0
  1 30  1  0  0  0
 30 31  1  0  0  0
 31 32  2  0  0  0
 31 34  1  0  0  0
 34 47  1  0  0  0
 47 48  1  0  0  0
 48 49  2  0  0  0
 49 50  1  0  0  0
 50 51  2  0  0  0
 51 52  1  0  0  0
 52 53  2  0  0  0
 34 35  1  0  0  0
 35 36  1  0  0  0
 36 37  2  0  0  0
 36 39  1  0  0  0
 39 40  1  0  0  0
 40 41  1  0  0  0
 41 42  1  0  0  0
 42 43  1  0  0  0
 43 44  1  0  0  0
 44 45  1  0  0  0
 45 46  1  0  0  0
 12 13  1  0  0  0
 13 14  2  0  0  0
 14 15  1  0  0  0
 15 16  1  0  0  0
 15 17  2  0  0  0
 17 21  1  0  0  0
 21 22  2  0  0  0
 21 23  1  0  0  0
 23 25  1  0  0  0
 25 26  1  0  0  0
 26 27  1  0  0  0
 26 28  2  0  0  0
 17 18  1  0  0  0
 18 19  2  0  0  0
 18  8  1  0  0  0
 14  9  1  0  0  0
 60 55  1  0  0  0
 53 48  1  0  0  0
 46 41  1  0  0  0
  2  5  1  0  0  0
 30 33  1  0  0  0
 35 38  1  0  0  0
 16 20  1  0  0  0
 23 24  1  0  0  0
 27 29  1  0  0  0
M  END
> <minimizedAffinity>
2.55080

> <CNNscore>
0.3817602694

> <CNNaffinity>
7.5005559921

> <CNN_VS>
2.8634142876

> <CNNaffinity_variance>
0.1736918241

$$$$
[H]OC(=O)C([H])([H])N([H])C(=O)c1c(O[H])c2c([H])c(C([H])([H])N([H])C(=O)[C@@]([H])(N([H])C(=O)[C@@]([H])(N([H])C(=O)C([H])([H])C([H])([H])N3C([H])([H])C([H])([H])OC([H])([H])C3([H])[H])C([H])([H])c3c([H])c([H])c([H])c([H])c3[H])C([H])([H])c3c([H])c([H])c([H])c([H])c3[H])c([H])c([H])c2n(C([H])([H])[H])c1=O


 60 64  0  0  0  0  0  0  0  0999 V2000
   13.1631   23.8683    1.2158 C   0  0  0  0  0  0  0  0  0  0  0  0
   13.3453   21.3168    1.3299 N   0  0  0  0  0  0  0  0  0  0  0  0
   12.9851   22.5678    1.8146 C   0  0  0  0  0  0  0  0  0  0  0  0
   12.3931   22.5909    2.9915 O   0  0  0  0  0  0  0  0  0  0  0  0
   13.8011   21.1491    0.4402 H   0  0  0  0  0  0  0  0  0  0  0  0
   13.0532   20.0901    2.1112 C   0  0  0  0  0  0  0  0  0  0  0  0
    7.4780   20.8140    5.2906 C   0  0  0  0  0  0  0  0  0  0  0  0
    7.7598   20.6075    3.8679 N   0  0  0  0  0  0  0  0  0  0  0  0
    9.0272   20.4679    3.4582 C   0  0  0  0  0  0  0  0  0  0  0  0
   10.0821   20.5239    4.3695 C   0  0  0  0  0  0  0  0  0  0  0  0
   11.3764   20.3891    3.9163 C   0  0  0  0  0  0  0  0  0  0  0  0
   11.6641   20.1993    2.5820 C   0  0  0  0  0  0  0  0  0  0  0  0
   10.6101   20.1437    1.6862 C   0  0  0  0  0  0  0  0  0  0  0  0
    9.3132   20.2764    2.1244 C   0  0  0  0  0  0  0  0  0  0  0  0
    8.2431   20.2319    1.2163 C   0  0  0  0  0  0  0  0  0  0  0  0
    8.4979   20.0416   -0.1150 O   0  0  0  0  0  0  0  0  0  0  0  0
    6.9406   20.3729    1.6144 C   0  0  0  0  0  0  0  0  0  0  0  0
    6.7571   20.5637    2.9958 C   0  0  0  0  0  0  0  0  0  0  0  0
    5.5819   20.6972    3.4045 O   0  0  0  0  0  0  0  0  0  0  0  0
    9.3476   19.9214   -0.5832 H   0  0  0  0  0  0  0  0  0  0  0  0
    5.7696   20.3383    0.7659 C   0  0  0  0  0  0  0  0  0  0  0  0
    5.3574   19.1817    0.3601 O   0  0  0  0  0  0  0  0  0  0  0  0
    5.0342   21.4615    0.3405 N   0  0  0  0  0  0  0  0  0  0  0  0
    5.2311   22.4499    0.5600 H   0  0  0  0  0  0  0  0  0  0  0  0
    3.8470   21.2786   -0.5098 C   0  0  0  0  0  0  0  0  0  0  0  0
    4.2915   21.2227   -1.9099 C   0  0  0  0  0  0  0  0  0  0  0  0
    4.4974   22.3846   -2.6250 O   0  0  0  0  0  0  0  0  0  0  0  0
    4.4896   20.1261   -2.4726 O   0  0  0  0  0  0  0  0  0  0  0  0
    5.4193   22.5168   -3.0437 H   0  0  0  0  0  0  0  0  0  0  0  0
   14.2424   23.6669    0.1690 N   0  0  0  0  0  0  0  0  0  0  0  0
   15.3600   24.4936    0.0869 C   0  0  0  0  0  0  0  0  0  0  0  0
   15.3935   25.4236    1.0105 O   0  0  0  0  0  0  0  0  0  0  0  0
   14.1173   22.8661   -0.4595 H   0  0  0  0  0  0  0  0  0  0  0  0
   16.4919   24.5269   -0.8083 C   0  0  0  0  0  0  0  0  0  0  0  0
   16.1944   23.8181   -2.0627 N   0  0  0  0  0  0  0  0  0  0  0  0
   14.9217   23.8845   -2.6648 C   0  0  0  0  0  0  0  0  0  0  0  0
   14.0290   24.5637   -2.1074 O   0  0  0  0  0  0  0  0  0  0  0  0
   16.9898   23.2576   -2.4778 H   0  0  0  0  0  0  0  0  0  0  0  0
   14.6167   23.1797   -3.9252 C   0  0  0  0  0  0  0  0  0  0  0  0
   15.6355   23.5205   -4.9542 C   0  0  0  0  0  0  0  0  0  0  0  0
   15.2343   24.5364   -5.8779 N   0  0  0  0  0  0  0  0  0  0  0  0
   16.2657   25.1057   -6.6714 C   0  0  0  0  0  0  0  0  0  0  0  0
   15.6360   25.8058   -7.8622 C   0  0  0  0  0  0  0  0  0  0  0  0
   14.4953   26.5099   -7.5530 O   0  0  0  0  0  0  0  0  0  0  0  0
   14.3103   26.7117   -6.2005 C   0  0  0  0  0  0  0  0  0  0  0  0
   14.2218   25.4198   -5.4132 C   0  0  0  0  0  0  0  0  0  0  0  0
   17.3236   25.6898   -1.0665 C   0  0  0  0  0  0  0  0  0  0  0  0
   16.9155   26.5411   -2.1985 C   0  0  0  0  0  0  0  0  0  0  0  0
   15.6720   26.7738   -2.6700 C   0  0  0  0  0  0  0  0  0  0  0  0
   15.3296   27.5890   -3.7298 C   0  0  0  0  0  0  0  0  0  0  0  0
   16.3872   28.2362   -4.3750 C   0  0  0  0  0  0  0  0  0  0  0  0
   17.6732   28.0303   -3.9308 C   0  0  0  0  0  0  0  0  0  0  0  0
   17.9630   27.2100   -2.8725 C   0  0  0  0  0  0  0  0  0  0  0  0
   12.1425   24.6219    0.5392 C   0  0  0  0  0  0  0  0  0  0  0  0
   10.7395   24.3904    0.5518 C   0  0  0  0  0  0  0  0  0  0  0  0
    9.8932   24.8218    1.5324 C   0  0  0  0  0  0  0  0  0  0  0  0
    8.5277   24.5804    1.5065 C   0  0  0  0  0  0  0  0  0  0  0  0
    7.9589   23.8779    0.4630 C   0  0  0  0  0  0  0  0  0  0  0  0
    8.8006   23.4291   -0.5471 C   0  0  0  0  0  0  0  0  0  0  0  0
   10.1473   23.6825   -0.4948 C   0  0  0  0  0  0  0  0  0  0  0  0
  7  8  1  0  0  0
  8  9  1  0  0  0
  9 10  2  0  0  0
 10 11  1  0  0  0
 11 12  2  0  0  0
 12  6  1  0  0  0
  6  2  1  0  0  0
  2  3  1  0  0  0
  3  4  2  0  0  0
  3  1  1  0  0  0
  1 54  1  0  0  0
 54 55  1  0  0  0
 55 56  2  0  0  0
 56 57  1  0  0  0
 57 58  2  0  0  0
 58 59  1  0  0  0
 59 60  2  0  0  0
  1 30  1  0  0  0
 30 31  1  0  0  0
 31 32  2  0  0  0
 31 34  1  0  0  0
 34 47  1  0  0  0
 47 48  1  0  0  0
 48 49  2  0  0  0
 49 50  1  0  0  0
 50 51  2  0  0  0
 51 52  1  0  0  0
 52 53  2  0  0  0
 34 35  1  0  0  0
 35 36  1  0  0  0
 36 37  2  0  0  0
 36 39  1  0  0  0
 39 40  1  0  0  0
 40 41  1  0  0  0
 41 42  1  0  0  0
 42 43  1  0  0  0
 43 44  1  0  0  0
 44 45  1  0  0  0
 45 46  1  0  0  0
 12 13  1  0  0  0
 13 14  2  0  0  0
 14 15  1  0  0  0
 15 16  1  0  0  0
 15 17  2  0  0  0
 17 21  1  0  0  0
 21 22  2  0  0  0
 21 23  1  0  0  0
 23 25  1  0  0  0
 25 26  1  0  0  0
 26 27  1  0  0  0
 26 28  2  0  0  0
 17 18  1  0  0  0
 18 19  2  0  0  0
 18  8  1  0  0  0
 14  9  1  0  0  0
 60 55  1  0  0  0
 53 48  1  0  0  0
 46 41  1  0  0  0
  2  5  1  0  0  0
 30 33  1  0  0  0
 35 38  1  0  0  0
 16 20  1  0  0  0
 23 24  1  0  0  0
 27 29  1  0  0  0
M  END
> <minimizedAffinity>
2.87607

> <CNNscore>
0.3654499352

> <CNNaffinity>
7.5374994278

> <CNN_VS>
2.7545785904

> <CNNaffinity_variance>
0.3795472682

$$$$
[H]OC(=O)C([H])([H])N([H])C(=O)c1c(O[H])c2c([H])c(C([H])([H])N([H])C(=O)[C@@]([H])(N([H])C(=O)[C@@]([H])(N([H])C(=O)C([H])([H])C([H])([H])N3C([H])([H])C([H])([H])OC([H])([H])C3([H])[H])C([H])([H])c3c([H])c([H])c([H])c([H])c3[H])C([H])([H])c3c([H])c([H])c([H])c([H])c3[H])c([H])c([H])c2n(C([H])([H])[H])c1=O


 60 64  0  0  0  0  0  0  0  0999 V2000
   12.7214   23.9202    0.2149 C   0  0  0  0  0  0  0  0  0  0  0  0
   10.9331   24.9395    1.7378 N   0  0  0  0  0  0  0  0  0  0  0  0
   12.0216   24.9944    0.8765 C   0  0  0  0  0  0  0  0  0  0  0  0
   12.4989   26.1939    0.6128 O   0  0  0  0  0  0  0  0  0  0  0  0
   10.4623   24.0884    2.0235 H   0  0  0  0  0  0  0  0  0  0  0  0
   10.3522   26.1820    2.3030 C   0  0  0  0  0  0  0  0  0  0  0  0
    5.6919   25.6049    6.7374 C   0  0  0  0  0  0  0  0  0  0  0  0
    6.2324   24.6443    5.7724 N   0  0  0  0  0  0  0  0  0  0  0  0
    7.2289   25.0148    4.9578 C   0  0  0  0  0  0  0  0  0  0  0  0
    7.7530   26.3065    5.0130 C   0  0  0  0  0  0  0  0  0  0  0  0
    8.7698   26.6620    4.1536 C   0  0  0  0  0  0  0  0  0  0  0  0
    9.2893   25.7759    3.2349 C   0  0  0  0  0  0  0  0  0  0  0  0
    8.7632   24.4963    3.1893 C   0  0  0  0  0  0  0  0  0  0  0  0
    7.7484   24.1274    4.0411 C   0  0  0  0  0  0  0  0  0  0  0  0
    7.2053   22.8336    3.9890 C   0  0  0  0  0  0  0  0  0  0  0  0
    7.7031   21.9307    3.0886 O   0  0  0  0  0  0  0  0  0  0  0  0
    6.1864   22.4351    4.8123 C   0  0  0  0  0  0  0  0  0  0  0  0
    5.7280   23.4156    5.7106 C   0  0  0  0  0  0  0  0  0  0  0  0
    4.7970   23.0948    6.4827 O   0  0  0  0  0  0  0  0  0  0  0  0
    8.4182   22.0270    2.4292 H   0  0  0  0  0  0  0  0  0  0  0  0
    5.5609   21.1311    4.8436 C   0  0  0  0  0  0  0  0  0  0  0  0
    4.6322   20.8909    3.9764 O   0  0  0  0  0  0  0  0  0  0  0  0
    5.8771   20.0935    5.7418 N   0  0  0  0  0  0  0  0  0  0  0  0
    6.5779   20.1214    6.4981 H   0  0  0  0  0  0  0  0  0  0  0  0
    5.1712   18.8056    5.6483 C   0  0  0  0  0  0  0  0  0  0  0  0
    6.0694   17.8375    5.0026 C   0  0  0  0  0  0  0  0  0  0  0  0
    5.9616   17.5767    3.6520 O   0  0  0  0  0  0  0  0  0  0  0  0
    6.9419   17.2379    5.6641 O   0  0  0  0  0  0  0  0  0  0  0  0
    6.7987   17.7116    3.0831 H   0  0  0  0  0  0  0  0  0  0  0  0
   12.1964   22.6565    0.8695 N   0  0  0  0  0  0  0  0  0  0  0  0
   10.8361   22.3657    0.9370 C   0  0  0  0  0  0  0  0  0  0  0  0
   10.0780   23.2659    0.3589 O   0  0  0  0  0  0  0  0  0  0  0  0
   12.9041   22.0107    1.2355 H   0  0  0  0  0  0  0  0  0  0  0  0
   10.0949   21.2680    1.5107 C   0  0  0  0  0  0  0  0  0  0  0  0
    9.1209   20.7284    0.5491 N   0  0  0  0  0  0  0  0  0  0  0  0
    9.5016   20.3494   -0.7541 C   0  0  0  0  0  0  0  0  0  0  0  0
   10.7004   20.4831   -1.0917 O   0  0  0  0  0  0  0  0  0  0  0  0
    8.1245   20.6473    0.8951 H   0  0  0  0  0  0  0  0  0  0  0  0
    8.5313   19.8035   -1.7231 C   0  0  0  0  0  0  0  0  0  0  0  0
    7.5418   18.9449   -1.0184 C   0  0  0  0  0  0  0  0  0  0  0  0
    6.2488   19.5347   -0.8555 N   0  0  0  0  0  0  0  0  0  0  0  0
    5.8780   20.5098   -1.8195 C   0  0  0  0  0  0  0  0  0  0  0  0
    4.3718   20.6944   -1.7734 C   0  0  0  0  0  0  0  0  0  0  0  0
    3.8530   20.7094   -0.4994 O   0  0  0  0  0  0  0  0  0  0  0  0
    4.8011   20.8700    0.4902 C   0  0  0  0  0  0  0  0  0  0  0  0
    5.8534   19.7793    0.4881 C   0  0  0  0  0  0  0  0  0  0  0  0
   10.6650   20.1980    2.3113 C   0  0  0  0  0  0  0  0  0  0  0  0
   10.5548   20.3520    3.7731 C   0  0  0  0  0  0  0  0  0  0  0  0
   10.4866   21.4902    4.4960 C   0  0  0  0  0  0  0  0  0  0  0  0
   10.3731   21.5921    5.8677 C   0  0  0  0  0  0  0  0  0  0  0  0
   10.3242   20.3859    6.5723 C   0  0  0  0  0  0  0  0  0  0  0  0
   10.3906   19.1989    5.8794 C   0  0  0  0  0  0  0  0  0  0  0  0
   10.5032   19.1494    4.5148 C   0  0  0  0  0  0  0  0  0  0  0  0
   12.6777   23.6395   -1.1946 C   0  0  0  0  0  0  0  0  0  0  0  0
   13.3722   24.3136   -2.2364 C   0  0  0  0  0  0  0  0  0  0  0  0
   13.0355   25.5454   -2.7196 C   0  0  0  0  0  0  0  0  0  0  0  0
   13.7418   26.1733   -3.7346 C   0  0  0  0  0  0  0  0  0  0  0  0
   14.8386   25.5619   -4.3086 C   0  0  0  0  0  0  0  0  0  0  0  0
   15.2005   24.3078   -3.8328 C   0  0  0  0  0  0  0  0  0  0  0  0
   14.4831   23.7110   -2.8280 C   0  0  0  0  0  0  0  0  0  0  0  0
  7  8  1  0  0  0
  8  9  1  0  0  0
  9 10  2  0  0  0
 10 11  1  0  0  0
 11 12  2  0  0  0
 12  6  1  0  0  0
  6  2  1  0  0  0
  2  3  1  0  0  0
  3  4  2  0  0  0
  3  1  1  0  0  0
  1 54  1  0  0  0
 54 55  1  0  0  0
 55 56  2  0  0  0
 56 57  1  0  0  0
 57 58  2  0  0  0
 58 59  1  0  0  0
 59 60  2  0  0  0
  1 30  1  0  0  0
 30 31  1  0  0  0
 31 32  2  0  0  0
 31 34  1  0  0  0
 34 47  1  0  0  0
 47 48  1  0  0  0
 48 49  2  0  0  0
 49 50  1  0  0  0
 50 51  2  0  0  0
 51 52  1  0  0  0
 52 53  2  0  0  0
 34 35  1  0  0  0
 35 36  1  0  0  0
 36 37  2  0  0  0
 36 39  1  0  0  0
 39 40  1  0  0  0
 40 41  1  0  0  0
 41 42  1  0  0  0
 42 43  1  0  0  0
 43 44  1  0  0  0
 44 45  1  0  0  0
 45 46  1  0  0  0
 12 13  1  0  0  0
 13 14  2  0  0  0
 14 15  1  0  0  0
 15 16  1  0  0  0
 15 17  2  0  0  0
 17 21  1  0  0  0
 21 22  2  0  0  0
 21 23  1  0  0  0
 23 25  1  0  0  0
 25 26  1  0  0  0
 26 27  1  0  0  0
 26 28  2  0  0  0
 17 18  1  0  0  0
 18 19  2  0  0  0
 18  8  1  0  0  0
 14  9  1  0  0  0
 60 55  1  0  0  0
 53 48  1  0  0  0
 46 41  1  0  0  0
  2  5  1  0  0  0
 30 33  1  0  0  0
 35 38  1  0  0  0
 16 20  1  0  0  0
 23 24  1  0  0  0
 27 29  1  0  0  0
M  END
> <minimizedAffinity>
-5.54375

> <CNNscore>
0.2968740165

> <CNNaffinity>
7.0451002121

> <CNN_VS>
2.0915071964

> <CNNaffinity_variance>
0.2691056430

$$$$
[H]OC(=O)C([H])([H])N([H])C(=O)c1c(O[H])c2c([H])c(C([H])([H])N([H])C(=O)[C@@]([H])(N([H])C(=O)[C@@]([H])(N([H])C(=O)C([H])([H])C([H])([H])N3C([H])([H])C([H])([H])OC([H])([H])C3([H])[H])C([H])([H])c3c([H])c([H])c([H])c([H])c3[H])C([H])([H])c3c([H])c([H])c([H])c([H])c3[H])c([H])c([H])c2n(C([H])([H])[H])c1=O


 60 64  0  0  0  0  0  0  0  0999 V2000
   13.2712   23.7147    0.0680 C   0  0  0  0  0  0  0  0  0  0  0  0
   11.1853   24.6927    1.1856 N   0  0  0  0  0  0  0  0  0  0  0  0
   12.4780   24.7525    0.6808 C   0  0  0  0  0  0  0  0  0  0  0  0
   13.0854   25.9187    0.7645 O   0  0  0  0  0  0  0  0  0  0  0  0
   10.5996   23.8653    1.1829 H   0  0  0  0  0  0  0  0  0  0  0  0
   10.5443   25.8969    1.7682 C   0  0  0  0  0  0  0  0  0  0  0  0
    6.5245   24.9681    6.7375 C   0  0  0  0  0  0  0  0  0  0  0  0
    6.8217   24.1395    5.5665 N   0  0  0  0  0  0  0  0  0  0  0  0
    7.7254   24.5591    4.6716 C   0  0  0  0  0  0  0  0  0  0  0  0
    8.3815   25.7789    4.8382 C   0  0  0  0  0  0  0  0  0  0  0  0
    9.2974   26.1896    3.8941 C   0  0  0  0  0  0  0  0  0  0  0  0
    9.5881   25.4283    2.7828 C   0  0  0  0  0  0  0  0  0  0  0  0
    8.9326   24.2189    2.6277 C   0  0  0  0  0  0  0  0  0  0  0  0
    8.0163   23.7962    3.5621 C   0  0  0  0  0  0  0  0  0  0  0  0
    7.3416   22.5752    3.4012 C   0  0  0  0  0  0  0  0  0  0  0  0
    7.6118   21.7961    2.3088 O   0  0  0  0  0  0  0  0  0  0  0  0
    6.4141   22.1284    4.3040 C   0  0  0  0  0  0  0  0  0  0  0  0
    6.1905   22.9811    5.4001 C   0  0  0  0  0  0  0  0  0  0  0  0
    5.3502   22.6121    6.2508 O   0  0  0  0  0  0  0  0  0  0  0  0
    8.2324   21.9428    1.5679 H   0  0  0  0  0  0  0  0  0  0  0  0
    5.6692   20.8903    4.2359 C   0  0  0  0  0  0  0  0  0  0  0  0
    5.1197   20.5828    3.1064 O   0  0  0  0  0  0  0  0  0  0  0  0
    5.4889   19.9845    5.2991 N   0  0  0  0  0  0  0  0  0  0  0  0
    5.8459   20.0811    6.2620 H   0  0  0  0  0  0  0  0  0  0  0  0
    4.7199   18.7484    5.0837 C   0  0  0  0  0  0  0  0  0  0  0  0
    5.6658   17.6245    5.0310 C   0  0  0  0  0  0  0  0  0  0  0  0
    5.3343   16.4050    5.5848 O   0  0  0  0  0  0  0  0  0  0  0  0
    6.7810   17.7549    4.4853 O   0  0  0  0  0  0  0  0  0  0  0  0
    5.3753   15.5886    4.9728 H   0  0  0  0  0  0  0  0  0  0  0  0
   12.2581   22.7276   -0.4804 N   0  0  0  0  0  0  0  0  0  0  0  0
   11.3499   22.0634    0.3400 C   0  0  0  0  0  0  0  0  0  0  0  0
   11.4418   22.3994    1.6041 O   0  0  0  0  0  0  0  0  0  0  0  0
   12.2599   22.5980   -1.4978 H   0  0  0  0  0  0  0  0  0  0  0  0
   10.3234   21.0837    0.0755 C   0  0  0  0  0  0  0  0  0  0  0  0
   10.2090   20.1253    1.1860 N   0  0  0  0  0  0  0  0  0  0  0  0
   11.3374   19.7069    1.9198 C   0  0  0  0  0  0  0  0  0  0  0  0
   12.4601   20.1661    1.6077 O   0  0  0  0  0  0  0  0  0  0  0  0
    9.2341   19.7712    1.3937 H   0  0  0  0  0  0  0  0  0  0  0  0
   11.2303   18.7491    3.0377 C   0  0  0  0  0  0  0  0  0  0  0  0
   11.8675   19.3196    4.2548 C   0  0  0  0  0  0  0  0  0  0  0  0
   10.9692   20.0007    5.1353 N   0  0  0  0  0  0  0  0  0  0  0  0
    9.6060   19.6072    5.0682 C   0  0  0  0  0  0  0  0  0  0  0  0
    8.8989   20.0781    6.3264 C   0  0  0  0  0  0  0  0  0  0  0  0
    9.2632   21.3425    6.7278 O   0  0  0  0  0  0  0  0  0  0  0  0
    9.9461   22.0606    5.7675 C   0  0  0  0  0  0  0  0  0  0  0  0
   11.2276   21.3865    5.3203 C   0  0  0  0  0  0  0  0  0  0  0  0
    9.0142   21.3704   -0.4852 C   0  0  0  0  0  0  0  0  0  0  0  0
    8.1171   20.2144   -0.6630 C   0  0  0  0  0  0  0  0  0  0  0  0
    8.2613   19.1575   -1.4906 C   0  0  0  0  0  0  0  0  0  0  0  0
    7.4007   18.0863   -1.6202 C   0  0  0  0  0  0  0  0  0  0  0  0
    6.2650   18.1074   -0.8057 C   0  0  0  0  0  0  0  0  0  0  0  0
    6.0737   19.1642    0.0546 C   0  0  0  0  0  0  0  0  0  0  0  0
    6.9584   20.2063    0.1472 C   0  0  0  0  0  0  0  0  0  0  0  0
   14.2063   23.9047   -1.0075 C   0  0  0  0  0  0  0  0  0  0  0  0
   14.0475   24.7183   -2.1630 C   0  0  0  0  0  0  0  0  0  0  0  0
   13.0753   25.6648   -2.3149 C   0  0  0  0  0  0  0  0  0  0  0  0
   12.9561   26.4432   -3.4565 C   0  0  0  0  0  0  0  0  0  0  0  0
   13.8374   26.2869   -4.5077 C   0  0  0  0  0  0  0  0  0  0  0  0
   14.8357   25.3298   -4.3757 C   0  0  0  0  0  0  0  0  0  0  0  0
   14.9291   24.5743   -3.2350 C   0  0  0  0  0  0  0  0  0  0  0  0
  7  8  1  0  0  0
  8  9  1  0  0  0
  9 10  2  0  0  0
 10 11  1  0  0  0
 11 12  2  0  0  0
 12  6  1  0  0  0
  6  2  1  0  0  0
  2  3  1  0  0  0
  3  4  2  0  0  0
  3  1  1  0  0  0
  1 54  1  0  0  0
 54 55  1  0  0  0
 55 56  2  0  0  0
 56 57  1  0  0  0
 57 58  2  0  0  0
 58 59  1  0  0  0
 59 60  2  0  0  0
  1 30  1  0  0  0
 30 31  1  0  0  0
 31 32  2  0  0  0
 31 34  1  0  0  0
 34 47  1  0  0  0
 47 48  1  0  0  0
 48 49  2  0  0  0
 49 50  1  0  0  0
 50 51  2  0  0  0
 51 52  1  0  0  0
 52 53  2  0  0  0
 34 35  1  0  0  0
 35 36  1  0  0  0
 36 37  2  0  0  0
 36 39  1  0  0  0
 39 40  1  0  0  0
 40 41  1  0  0  0
 41 42  1  0  0  0
 42 43  1  0  0  0
 43 44  1  0  0  0
 44 45  1  0  0  0
 45 46  1  0  0  0
 12 13  1  0  0  0
 13 14  2  0  0  0
 14 15  1  0  0  0
 15 16  1  0  0  0
 15 17  2  0  0  0
 17 21  1  0  0  0
 21 22  2  0  0  0
 21 23  1  0  0  0
 23 25  1  0  0  0
 25 26  1  0  0  0
 26 27  1  0  0  0
 26 28  2  0  0  0
 17 18  1  0  0  0
 18 19  2  0  0  0
 18  8  1  0  0  0
 14  9  1  0  0  0
 60 55  1  0  0  0
 53 48  1  0  0  0
 46 41  1  0  0  0
  2  5  1  0  0  0
 30 33  1  0  0  0
 35 38  1  0  0  0
 16 20  1  0  0  0
 23 24  1  0  0  0
 27 29  1  0  0  0
M  END
> <minimizedAffinity>
-5.05702

> <CNNscore>
0.2721450031

> <CNNaffinity>
6.9611730576

> <CNN_VS>
1.8944485188

> <CNNaffinity_variance>
0.2416892946

$$$$
[H]OC(=O)C([H])([H])N([H])C(=O)c1c(O[H])c2c([H])c(C([H])([H])N([H])C(=O)[C@@]([H])(N([H])C(=O)[C@@]([H])(N([H])C(=O)C([H])([H])C([H])([H])N3C([H])([H])C([H])([H])OC([H])([H])C3([H])[H])C([H])([H])c3c([H])c([H])c([H])c([H])c3[H])C([H])([H])c3c([H])c([H])c([H])c([H])c3[H])c([H])c([H])c2n(C([H])([H])[H])c1=O


 60 64  0  0  0  0  0  0  0  0999 V2000
   10.8478   20.9549   -1.6647 C   0  0  0  0  0  0  0  0  0  0  0  0
    8.6436   19.7693   -1.1243 N   0  0  0  0  0  0  0  0  0  0  0  0
    9.4699   20.5877   -1.8839 C   0  0  0  0  0  0  0  0  0  0  0  0
    8.9356   21.1150   -2.9667 O   0  0  0  0  0  0  0  0  0  0  0  0
    8.9218   19.2950   -0.2726 H   0  0  0  0  0  0  0  0  0  0  0  0
    7.2442   19.5100   -1.5426 C   0  0  0  0  0  0  0  0  0  0  0  0
    3.9084   16.6141    3.1692 C   0  0  0  0  0  0  0  0  0  0  0  0
    4.5136   17.9459    3.0911 N   0  0  0  0  0  0  0  0  0  0  0  0
    5.1503   18.3184    1.9732 C   0  0  0  0  0  0  0  0  0  0  0  0
    5.2497   17.4504    0.8856 C   0  0  0  0  0  0  0  0  0  0  0  0
    5.9217   17.8576   -0.2464 C   0  0  0  0  0  0  0  0  0  0  0  0
    6.5026   19.1038   -0.3392 C   0  0  0  0  0  0  0  0  0  0  0  0
    6.3970   19.9579    0.7451 C   0  0  0  0  0  0  0  0  0  0  0  0
    5.7291   19.5651    1.8813 C   0  0  0  0  0  0  0  0  0  0  0  0
    5.6304   20.4253    2.9868 C   0  0  0  0  0  0  0  0  0  0  0  0
    6.1951   21.6706    2.9228 O   0  0  0  0  0  0  0  0  0  0  0  0
    4.9845   20.0638    4.1387 C   0  0  0  0  0  0  0  0  0  0  0  0
    4.4291   18.7715    4.1299 C   0  0  0  0  0  0  0  0  0  0  0  0
    3.8289   18.3989    5.1628 O   0  0  0  0  0  0  0  0  0  0  0  0
    6.6885   22.1024    2.1978 H   0  0  0  0  0  0  0  0  0  0  0  0
    4.8220   20.8713    5.3277 C   0  0  0  0  0  0  0  0  0  0  0  0
    4.8407   20.2661    6.4704 O   0  0  0  0  0  0  0  0  0  0  0  0
    4.6443   22.2682    5.3500 N   0  0  0  0  0  0  0  0  0  0  0  0
    4.5933   22.8989    4.5354 H   0  0  0  0  0  0  0  0  0  0  0  0
    4.5098   22.9674    6.6380 C   0  0  0  0  0  0  0  0  0  0  0  0
    4.8317   24.3857    6.4243 C   0  0  0  0  0  0  0  0  0  0  0  0
    3.8593   25.2669    5.9980 O   0  0  0  0  0  0  0  0  0  0  0  0
    5.9869   24.8144    6.6249 O   0  0  0  0  0  0  0  0  0  0  0  0
    3.6896   26.0899    6.5782 H   0  0  0  0  0  0  0  0  0  0  0  0
   10.8030   21.9647   -0.5335 N   0  0  0  0  0  0  0  0  0  0  0  0
   10.5912   21.5874    0.7902 C   0  0  0  0  0  0  0  0  0  0  0  0
   10.4692   20.2921    0.9532 O   0  0  0  0  0  0  0  0  0  0  0  0
   10.9675   22.9426   -0.7952 H   0  0  0  0  0  0  0  0  0  0  0  0
   10.4855   22.3372    2.0190 C   0  0  0  0  0  0  0  0  0  0  0  0
   10.9430   23.7231    1.8333 N   0  0  0  0  0  0  0  0  0  0  0  0
   10.2121   24.8165    2.3404 C   0  0  0  0  0  0  0  0  0  0  0  0
    9.1469   24.5908    2.9595 O   0  0  0  0  0  0  0  0  0  0  0  0
   11.8462   23.8447    1.2962 H   0  0  0  0  0  0  0  0  0  0  0  0
   10.6665   26.2093    2.1618 C   0  0  0  0  0  0  0  0  0  0  0  0
   12.0939   26.2257    1.7434 C   0  0  0  0  0  0  0  0  0  0  0  0
   12.4050   25.3586    0.6490 N   0  0  0  0  0  0  0  0  0  0  0  0
   13.7575   24.9365    0.5479 C   0  0  0  0  0  0  0  0  0  0  0  0
   13.8223   23.7159   -0.3524 C   0  0  0  0  0  0  0  0  0  0  0  0
   13.0105   23.7990   -1.4599 O   0  0  0  0  0  0  0  0  0  0  0  0
   12.5387   25.0704   -1.7150 C   0  0  0  0  0  0  0  0  0  0  0  0
   11.7306   25.6458   -0.5692 C   0  0  0  0  0  0  0  0  0  0  0  0
    9.3589   22.2923    2.9352 C   0  0  0  0  0  0  0  0  0  0  0  0
    9.5118   21.4143    4.1093 C   0  0  0  0  0  0  0  0  0  0  0  0
   10.2245   20.2728    4.2185 C   0  0  0  0  0  0  0  0  0  0  0  0
   10.3511   19.4824    5.3428 C   0  0  0  0  0  0  0  0  0  0  0  0
    9.6667   19.9176    6.4812 C   0  0  0  0  0  0  0  0  0  0  0  0
    8.9262   21.0758    6.4191 C   0  0  0  0  0  0  0  0  0  0  0  0
    8.8311   21.8274    5.2776 C   0  0  0  0  0  0  0  0  0  0  0  0
   11.9039   20.0508   -1.2976 C   0  0  0  0  0  0  0  0  0  0  0  0
   13.1858   20.3785   -0.7765 C   0  0  0  0  0  0  0  0  0  0  0  0
   14.2657   20.7214   -1.5382 C   0  0  0  0  0  0  0  0  0  0  0  0
   15.5000   21.0400   -0.9918 C   0  0  0  0  0  0  0  0  0  0  0  0
   15.6878   21.0221    0.3758 C   0  0  0  0  0  0  0  0  0  0  0  0
   14.6027   20.6764    1.1715 C   0  0  0  0  0  0  0  0  0  0  0  0
   13.3939   20.3659    0.6033 C   0  0  0  0  0  0  0  0  0  0  0  0
  7  8  1  0  0  0
  8  9  1  0  0  0
  9 10  2  0  0  0
 10 11  1  0  0  0
 11 12  2  0  0  0
 12  6  1  0  0  0
  6  2  1  0  0  0
  2  3  1  0  0  0
  3  4  2  0  0  0
  3  1  1  0  0  0
  1 54  1  0  0  0
 54 55  1  0  0  0
 55 56  2  0  0  0
 56 57  1  0  0  0
 57 58  2  0  0  0
 58 59  1  0  0  0
 59 60  2  0  0  0
  1 30  1  0  0  0
 30 31  1  0  0  0
 31 32  2  0  0  0
 31 34  1  0  0  0
 34 47  1  0  0  0
 47 48  1  0  0  0
 48 49  2  0  0  0
 49 50  1  0  0  0
 50 51  2  0  0  0
 51 52  1  0  0  0
 52 53  2  0  0  0
 34 35  1  0  0  0
 35 36  1  0  0  0
 36 37  2  0  0  0
 36 39  1  0  0  0
 39 40  1  0  0  0
 40 41  1  0  0  0
 41 42  1  0  0  0
 42 43  1  0  0  0
 43 44  1  0  0  0
 44 45  1  0  0  0
 45 46  1  0  0  0
 12 13  1  0  0  0
 13 14  2  0  0  0
 14 15  1  0  0  0
 15 16  1  0  0  0
 15 17  2  0  0  0
 17 21  1  0  0  0
 21 22  2  0  0  0
 21 23  1  0  0  0
 23 25  1  0  0  0
 25 26  1  0  0  0
 26 27  1  0  0  0
 26 28  2  0  0  0
 17 18  1  0  0  0
 18 19  2  0  0  0
 18  8  1  0  0  0
 14  9  1  0  0  0
 60 55  1  0  0  0
 53 48  1  0  0  0
 46 41  1  0  0  0
  2  5  1  0  0  0
 30 33  1  0  0  0
 35 38  1  0  0  0
 16 20  1  0  0  0
 23 24  1  0  0  0
 27 29  1  0  0  0
M  END
> <minimizedAffinity>
-0.31539

> <CNNscore>
0.2718440592

> <CNNaffinity>
7.1544585228

> <CNN_VS>
1.9448970556

> <CNNaffinity_variance>
0.1301396340

$$$$
[H]OC(=O)C([H])([H])N([H])C(=O)c1c(O[H])c2c([H])c(C([H])([H])N([H])C(=O)[C@@]([H])(N([H])C(=O)[C@@]([H])(N([H])C(=O)C([H])([H])C([H])([H])N3C([H])([H])C([H])([H])OC([H])([H])C3([H])[H])C([H])([H])c3c([H])c([H])c([H])c([H])c3[H])C([H])([H])c3c([H])c([H])c([H])c([H])c3[H])c([H])c([H])c2n(C([H])([H])[H])c1=O


 60 64  0  0  0  0  0  0  0  0999 V2000
    9.3134   20.6656    0.5900 C   0  0  0  0  0  0  0  0  0  0  0  0
   11.8447   20.8695    0.9172 N   0  0  0  0  0  0  0  0  0  0  0  0
   10.6810   20.8269    0.1598 C   0  0  0  0  0  0  0  0  0  0  0  0
   10.8267   20.9503   -1.1439 O   0  0  0  0  0  0  0  0  0  0  0  0
   11.8821   20.7929    1.9273 H   0  0  0  0  0  0  0  0  0  0  0  0
   13.1642   21.0592    0.2665 C   0  0  0  0  0  0  0  0  0  0  0  0
   12.5982   27.2727   -1.4030 C   0  0  0  0  0  0  0  0  0  0  0  0
   13.2064   26.1362   -2.0991 N   0  0  0  0  0  0  0  0  0  0  0  0
   13.1773   24.9222   -1.5343 C   0  0  0  0  0  0  0  0  0  0  0  0
   12.5809   24.7291   -0.2880 C   0  0  0  0  0  0  0  0  0  0  0  0
   12.5773   23.4706    0.2733 C   0  0  0  0  0  0  0  0  0  0  0  0
   13.1481   22.3889   -0.3617 C   0  0  0  0  0  0  0  0  0  0  0  0
   13.7360   22.5910   -1.5986 C   0  0  0  0  0  0  0  0  0  0  0  0
   13.7467   23.8415   -2.1711 C   0  0  0  0  0  0  0  0  0  0  0  0
   14.3525   24.0513   -3.4204 C   0  0  0  0  0  0  0  0  0  0  0  0
   14.9250   22.9952   -4.0763 O   0  0  0  0  0  0  0  0  0  0  0  0
   14.3934   25.2841   -4.0148 C   0  0  0  0  0  0  0  0  0  0  0  0
   13.7844   26.3192   -3.2825 C   0  0  0  0  0  0  0  0  0  0  0  0
   13.7983   27.4637   -3.7883 O   0  0  0  0  0  0  0  0  0  0  0  0
   14.9940   22.0550   -3.8176 H   0  0  0  0  0  0  0  0  0  0  0  0
   14.9852   25.6067   -5.2947 C   0  0  0  0  0  0  0  0  0  0  0  0
   14.7991   24.7754   -6.2676 O   0  0  0  0  0  0  0  0  0  0  0  0
   15.7512   26.7546   -5.5757 N   0  0  0  0  0  0  0  0  0  0  0  0
   16.0039   27.5069   -4.9169 H   0  0  0  0  0  0  0  0  0  0  0  0
   16.2790   26.9667   -6.9330 C   0  0  0  0  0  0  0  0  0  0  0  0
   16.1279   25.7119   -7.6838 C   0  0  0  0  0  0  0  0  0  0  0  0
   15.2346   25.6275   -8.7320 O   0  0  0  0  0  0  0  0  0  0  0  0
   16.8039   24.7056   -7.3862 O   0  0  0  0  0  0  0  0  0  0  0  0
   15.6053   25.3371   -9.6380 H   0  0  0  0  0  0  0  0  0  0  0  0
    9.3161   21.0807    2.0491 N   0  0  0  0  0  0  0  0  0  0  0  0
    9.3755   22.4158    2.4407 C   0  0  0  0  0  0  0  0  0  0  0  0
    9.3964   23.2570    1.4351 O   0  0  0  0  0  0  0  0  0  0  0  0
    9.2418   20.3211    2.7342 H   0  0  0  0  0  0  0  0  0  0  0  0
    9.4124   23.0584    3.7327 C   0  0  0  0  0  0  0  0  0  0  0  0
    8.1457   23.7518    4.0142 N   0  0  0  0  0  0  0  0  0  0  0  0
    8.0993   24.9071    4.8204 C   0  0  0  0  0  0  0  0  0  0  0  0
    9.1683   25.3428    5.3065 O   0  0  0  0  0  0  0  0  0  0  0  0
    7.2793   23.3287    3.5789 H   0  0  0  0  0  0  0  0  0  0  0  0
    6.8332   25.6107    5.1040 C   0  0  0  0  0  0  0  0  0  0  0  0
    6.1339   25.9263    3.8296 C   0  0  0  0  0  0  0  0  0  0  0  0
    6.0264   27.3225    3.5377 N   0  0  0  0  0  0  0  0  0  0  0  0
    4.9241   27.7118    2.7309 C   0  0  0  0  0  0  0  0  0  0  0  0
    4.7070   29.2061    2.8881 C   0  0  0  0  0  0  0  0  0  0  0  0
    5.8724   29.9367    2.9140 O   0  0  0  0  0  0  0  0  0  0  0  0
    6.9820   29.2377    2.4848 C   0  0  0  0  0  0  0  0  0  0  0  0
    7.2575   27.9957    3.3084 C   0  0  0  0  0  0  0  0  0  0  0  0
    9.9508   22.4705    4.9473 C   0  0  0  0  0  0  0  0  0  0  0  0
    9.3141   21.2209    5.4008 C   0  0  0  0  0  0  0  0  0  0  0  0
    8.0547   21.0336    5.8498 C   0  0  0  0  0  0  0  0  0  0  0  0
    7.4916   19.8411    6.2567 C   0  0  0  0  0  0  0  0  0  0  0  0
    8.3192   18.7165    6.1934 C   0  0  0  0  0  0  0  0  0  0  0  0
    9.6117   18.8570    5.7425 C   0  0  0  0  0  0  0  0  0  0  0  0
   10.1259   20.0644    5.3490 C   0  0  0  0  0  0  0  0  0  0  0  0
    8.1763   21.3415    0.0263 C   0  0  0  0  0  0  0  0  0  0  0  0
    6.8018   21.0196    0.1976 C   0  0  0  0  0  0  0  0  0  0  0  0
    5.7925   21.4930   -0.5907 C   0  0  0  0  0  0  0  0  0  0  0  0
    4.4627   21.1514   -0.3948 C   0  0  0  0  0  0  0  0  0  0  0  0
    4.1005   20.2991    0.6291 C   0  0  0  0  0  0  0  0  0  0  0  0
    5.1108   19.8043    1.4444 C   0  0  0  0  0  0  0  0  0  0  0  0
    6.4174   20.1596    1.2270 C   0  0  0  0  0  0  0  0  0  0  0  0
  7  8  1  0  0  0
  8  9  1  0  0  0
  9 10  2  0  0  0
 10 11  1  0  0  0
 11 12  2  0  0  0
 12  6  1  0  0  0
  6  2  1  0  0  0
  2  3  1  0  0  0
  3  4  2  0  0  0
  3  1  1  0  0  0
  1 54  1  0  0  0
 54 55  1  0  0  0
 55 56  2  0  0  0
 56 57  1  0  0  0
 57 58  2  0  0  0
 58 59  1  0  0  0
 59 60  2  0  0  0
  1 30  1  0  0  0
 30 31  1  0  0  0
 31 32  2  0  0  0
 31 34  1  0  0  0
 34 47  1  0  0  0
 47 48  1  0  0  0
 48 49  2  0  0  0
 49 50  1  0  0  0
 50 51  2  0  0  0
 51 52  1  0  0  0
 52 53  2  0  0  0
 34 35  1  0  0  0
 35 36  1  0  0  0
 36 37  2  0  0  0
 36 39  1  0  0  0
 39 40  1  0  0  0
 40 41  1  0  0  0
 41 42  1  0  0  0
 42 43  1  0  0  0
 43 44  1  0  0  0
 44 45  1  0  0  0
 45 46  1  0  0  0
 12 13  1  0  0  0
 13 14  2  0  0  0
 14 15  1  0  0  0
 15 16  1  0  0  0
 15 17  2  0  0  0
 17 21  1  0  0  0
 21 22  2  0  0  0
 21 23  1  0  0  0
 23 25  1  0  0  0
 25 26  1  0  0  0
 26 27  1  0  0  0
 26 28  2  0  0  0
 17 18  1  0  0  0
 18 19  2  0  0  0
 18  8  1  0  0  0
 14  9  1  0  0  0
 60 55  1  0  0  0
 53 48  1  0  0  0
 46 41  1  0  0  0
  2  5  1  0  0  0
 30 33  1  0  0  0
 35 38  1  0  0  0
 16 20  1  0  0  0
 23 24  1  0  0  0
 27 29  1  0  0  0
M  END
> <minimizedAffinity>
-3.11143

> <CNNscore>
0.2657737434

> <CNNaffinity>
7.0739798546

> <CNN_VS>
1.8800780773

> <CNNaffinity_variance>
0.1098432168

$$$$
[H]OC(=O)C([H])([H])N([H])C(=O)c1c(O[H])c2c([H])c(C([H])([H])N([H])C(=O)[C@@]([H])(N([H])C(=O)[C@@]([H])(N([H])C(=O)C([H])([H])C([H])([H])N3C([H])([H])C([H])([H])OC([H])([H])C3([H])[H])C([H])([H])c3c([H])c([H])c([H])c([H])c3[H])C([H])([H])c3c([H])c([H])c([H])c([H])c3[H])c([H])c([H])c2n(C([H])([H])[H])c1=O


 60 64  0  0  0  0  0  0  0  0999 V2000
    8.4581   24.0970    2.1842 C   0  0  0  0  0  0  0  0  0  0  0  0
    7.8273   22.3617    0.4101 N   0  0  0  0  0  0  0  0  0  0  0  0
    8.5412   22.8253    1.5078 C   0  0  0  0  0  0  0  0  0  0  0  0
    9.4287   21.9973    2.0206 O   0  0  0  0  0  0  0  0  0  0  0  0
    7.1124   22.8870   -0.0803 H   0  0  0  0  0  0  0  0  0  0  0  0
    8.0629   20.9981   -0.1245 C   0  0  0  0  0  0  0  0  0  0  0  0
   14.2530   19.2998   -0.8404 C   0  0  0  0  0  0  0  0  0  0  0  0
   13.5384   20.5254   -1.2053 N   0  0  0  0  0  0  0  0  0  0  0  0
   12.2329   20.6372   -0.9283 C   0  0  0  0  0  0  0  0  0  0  0  0
   11.5446   19.5975   -0.3027 C   0  0  0  0  0  0  0  0  0  0  0  0
   10.1988   19.7369   -0.0416 C   0  0  0  0  0  0  0  0  0  0  0  0
    9.5062   20.8790   -0.3810 C   0  0  0  0  0  0  0  0  0  0  0  0
   10.1989   21.9053   -1.0000 C   0  0  0  0  0  0  0  0  0  0  0  0
   11.5423   21.7801   -1.2666 C   0  0  0  0  0  0  0  0  0  0  0  0
   12.2446   22.8151   -1.9047 C   0  0  0  0  0  0  0  0  0  0  0  0
   11.5838   23.9627   -2.2511 O   0  0  0  0  0  0  0  0  0  0  0  0
   13.5789   22.7207   -2.1973 C   0  0  0  0  0  0  0  0  0  0  0  0
   14.1897   21.5140   -1.8107 C   0  0  0  0  0  0  0  0  0  0  0  0
   15.4094   21.3843   -2.0586 O   0  0  0  0  0  0  0  0  0  0  0  0
   10.6471   24.2127   -2.1264 H   0  0  0  0  0  0  0  0  0  0  0  0
   14.3944   23.7248   -2.8447 C   0  0  0  0  0  0  0  0  0  0  0  0
   15.0275   23.3814   -3.9187 O   0  0  0  0  0  0  0  0  0  0  0  0
   14.5600   25.0524   -2.4049 N   0  0  0  0  0  0  0  0  0  0  0  0
   14.1406   25.4840   -1.5673 H   0  0  0  0  0  0  0  0  0  0  0  0
   15.4084   25.9767   -3.1743 C   0  0  0  0  0  0  0  0  0  0  0  0
   16.7153   26.0609   -2.5068 C   0  0  0  0  0  0  0  0  0  0  0  0
   17.6093   27.0567   -2.8431 O   0  0  0  0  0  0  0  0  0  0  0  0
   17.0363   25.2354   -1.6270 O   0  0  0  0  0  0  0  0  0  0  0  0
   17.9414   27.6591   -2.0884 H   0  0  0  0  0  0  0  0  0  0  0  0
    8.1131   23.7488    3.6198 N   0  0  0  0  0  0  0  0  0  0  0  0
    7.0472   24.3419    4.2916 C   0  0  0  0  0  0  0  0  0  0  0  0
    6.3704   25.1905    3.5561 O   0  0  0  0  0  0  0  0  0  0  0  0
    8.6934   23.0273    4.0608 H   0  0  0  0  0  0  0  0  0  0  0  0
    6.5350   24.2040    5.6341 C   0  0  0  0  0  0  0  0  0  0  0  0
    5.4907   25.2040    5.9065 N   0  0  0  0  0  0  0  0  0  0  0  0
    5.7991   26.4608    6.4650 C   0  0  0  0  0  0  0  0  0  0  0  0
    6.9943   26.7203    6.7352 O   0  0  0  0  0  0  0  0  0  0  0  0
    4.5017   24.9194    5.6612 H   0  0  0  0  0  0  0  0  0  0  0  0
    4.7578   27.4707    6.7373 C   0  0  0  0  0  0  0  0  0  0  0  0
    5.0087   28.6884    5.9204 C   0  0  0  0  0  0  0  0  0  0  0  0
    5.2745   28.4353    4.5379 N   0  0  0  0  0  0  0  0  0  0  0  0
    6.2561   29.2600    3.9265 C   0  0  0  0  0  0  0  0  0  0  0  0
    6.7260   28.5931    2.6461 C   0  0  0  0  0  0  0  0  0  0  0  0
    5.7121   28.0194    1.9145 O   0  0  0  0  0  0  0  0  0  0  0  0
    4.4482   28.4167    2.3003 C   0  0  0  0  0  0  0  0  0  0  0  0
    4.1409   28.0966    3.7495 C   0  0  0  0  0  0  0  0  0  0  0  0
    6.2155   22.9452    6.2852 C   0  0  0  0  0  0  0  0  0  0  0  0
    7.2921   21.9388    6.3157 C   0  0  0  0  0  0  0  0  0  0  0  0
    8.5755   22.0919    6.7057 C   0  0  0  0  0  0  0  0  0  0  0  0
    9.5534   21.1183    6.7292 C   0  0  0  0  0  0  0  0  0  0  0  0
    9.1646   19.8451    6.3032 C   0  0  0  0  0  0  0  0  0  0  0  0
    7.8665   19.6395    5.8957 C   0  0  0  0  0  0  0  0  0  0  0  0
    6.9303   20.6399    5.8903 C   0  0  0  0  0  0  0  0  0  0  0  0
    9.5245   25.0552    2.2932 C   0  0  0  0  0  0  0  0  0  0  0  0
   10.8461   24.9461    1.7799 C   0  0  0  0  0  0  0  0  0  0  0  0
   11.5534   23.7806    1.7061 C   0  0  0  0  0  0  0  0  0  0  0  0
   12.8403   23.7137    1.1933 C   0  0  0  0  0  0  0  0  0  0  0  0
   13.4699   24.8503    0.7267 C   0  0  0  0  0  0  0  0  0  0  0  0
   12.7693   26.0483    0.7913 C   0  0  0  0  0  0  0  0  0  0  0  0
   11.4978   26.0843    1.3037 C   0  0  0  0  0  0  0  0  0  0  0  0
  7  8  1  0  0  0
  8  9  1  0  0  0
  9 10  2  0  0  0
 10 11  1  0  0  0
 11 12  2  0  0  0
 12  6  1  0  0  0
  6  2  1  0  0  0
  2  3  1  0  0  0
  3  4  2  0  0  0
  3  1  1  0  0  0
  1 54  1  0  0  0
 54 55  1  0  0  0
 55 56  2  0  0  0
 56 57  1  0  0  0
 57 58  2  0  0  0
 58 59  1  0  0  0
 59 60  2  0  0  0
  1 30  1  0  0  0
 30 31  1  0  0  0
 31 32  2  0  0  0
 31 34  1  0  0  0
 34 47  1  0  0  0
 47 48  1  0  0  0
 48 49  2  0  0  0
 49 50  1  0  0  0
 50 51  2  0  0  0
 51 52  1  0  0  0
 52 53  2  0  0  0
 34 35  1  0  0  0
 35 36  1  0  0  0
 36 37  2  0  0  0
 36 39  1  0  0  0
 39 40  1  0  0  0
 40 41  1  0  0  0
 41 42  1  0  0  0
 42 43  1  0  0  0
 43 44  1  0  0  0
 44 45  1  0  0  0
 45 46  1  0  0  0
 12 13  1  0  0  0
 13 14  2  0  0  0
 14 15  1  0  0  0
 15 16  1  0  0  0
 15 17  2  0  0  0
 17 21  1  0  0  0
 21 22  2  0  0  0
 21 23  1  0  0  0
 23 25  1  0  0  0
 25 26  1  0  0  0
 26 27  1  0  0  0
 26 28  2  0  0  0
 17 18  1  0  0  0
 18 19  2  0  0  0
 18  8  1  0  0  0
 14  9  1  0  0  0
 60 55  1  0  0  0
 53 48  1  0  0  0
 46 41  1  0  0  0
  2  5  1  0  0  0
 30 33  1  0  0  0
 35 38  1  0  0  0
 16 20  1  0  0  0
 23 24  1  0  0  0
 27 29  1  0  0  0
M  END
> <minimizedAffinity>
-2.54419

> <CNNscore>
0.2603724897

> <CNNaffinity>
6.7640089989

> <CNN_VS>
1.7611618042

> <CNNaffinity_variance>
0.0831539035

$$$$
[H]c1nc2c([H])c(N([H])C(=O)C([H])([H])[H])c([H])c(-c3c([H])c([H])c(C#N)c([H])c3Cl)n2n1


 23 25  0  0  0  0  0  0  0  0999 V2000
   11.6216   24.2254   -0.4506 C   0  0  0  0  0  0  0  0  0  0  0  0
   12.2039   24.5514   -1.6973 C   0  0  0  0  0  0  0  0  0  0  0  0
   13.5475   24.7320   -1.8547 C   0  0  0  0  0  0  0  0  0  0  0  0
   14.3564   24.5974   -0.7920 N   0  0  0  0  0  0  0  0  0  0  0  0
   15.6777   24.7056   -0.6147 N   0  0  0  0  0  0  0  0  0  0  0  0
   16.0120   24.4730    0.6660 C   0  0  0  0  0  0  0  0  0  0  0  0
   14.8585   24.2119    1.3033 N   0  0  0  0  0  0  0  0  0  0  0  0
   13.8451   24.2885    0.4092 C   0  0  0  0  0  0  0  0  0  0  0  0
   12.4757   24.0972    0.6027 C   0  0  0  0  0  0  0  0  0  0  0  0
   14.0897   25.0654   -3.1580 C   0  0  0  0  0  0  0  0  0  0  0  0
   13.8572   26.3125   -3.7072 C   0  0  0  0  0  0  0  0  0  0  0  0
   14.3534   26.6729   -4.9441 C   0  0  0  0  0  0  0  0  0  0  0  0
   15.1108   25.7619   -5.6668 C   0  0  0  0  0  0  0  0  0  0  0  0
   15.3467   24.5142   -5.1233 C   0  0  0  0  0  0  0  0  0  0  0  0
   14.8383   24.1754   -3.8805 C   0  0  0  0  0  0  0  0  0  0  0  0
   15.1727   22.5728   -3.2425 Cl  0  0  0  0  0  0  0  0  0  0  0  0
   15.6274   26.1483   -6.9631 C   0  0  0  0  0  0  0  0  0  0  0  0
   16.0544   26.4445   -8.0034 N   0  0  0  0  0  0  0  0  0  0  0  0
    8.0866   23.1673    0.5032 C   0  0  0  0  0  0  0  0  0  0  0  0
    9.6007   23.2601    0.6003 C   0  0  0  0  0  0  0  0  0  0  0  0
   10.1935   22.6649    1.5134 O   0  0  0  0  0  0  0  0  0  0  0  0
   10.2319   24.0303   -0.3729 N   0  0  0  0  0  0  0  0  0  0  0  0
    9.6627   24.5273   -1.1438 H   0  0  0  0  0  0  0  0  0  0  0  0
 19 20  1  0  0  0
 20 21  2  0  0  0
 20 22  1  0  0  0
 22  1  1  0  0  0
  1  2  1  0  0  0
  2  3  2  0  0  0
  3 10  1  0  0  0
 10 11  2  0  0  0
 11 12  1  0  0  0
 12 13  2  0  0  0
 13 14  1  0  0  0
 14 15  2  0  0  0
 15 16  1  0  0  0
 13 17  1  0  0  0
 17 18  3  0  0  0
  3  4  1  0  0  0
  4  5  1  0  0  0
  5  6  2  0  0  0
  6  7  1  0  0  0
  7  8  2  0  0  0
  8  9  1  0  0  0
  9  1  2  0  0  0
 15 10  1  0  0  0
  8  4  1  0  0  0
 22 23  1  0  0  0
M  END
> <minimizedAffinity>
-8.45978

> <CNNscore>
0.7949297428

> <CNNaffinity>
7.2150168419

> <CNN_VS>
5.7354316711

> <CNNaffinity_variance>
0.1168307513

$$$$
[H]c1nc2c([H])c(N([H])C(=O)C([H])([H])[H])c([H])c(-c3c([H])c([H])c(C#N)c([H])c3Cl)n2n1


 23 25  0  0  0  0  0  0  0  0999 V2000
   15.2234   24.7559   -3.4979 C   0  0  0  0  0  0  0  0  0  0  0  0
   14.0637   24.0957   -3.0302 C   0  0  0  0  0  0  0  0  0  0  0  0
   13.8702   23.7976   -1.7125 C   0  0  0  0  0  0  0  0  0  0  0  0
   14.8105   24.1395   -0.8177 N   0  0  0  0  0  0  0  0  0  0  0  0
   14.9235   23.9956    0.5073 N   0  0  0  0  0  0  0  0  0  0  0  0
   16.0803   24.5161    0.9509 C   0  0  0  0  0  0  0  0  0  0  0  0
   16.7047   24.9988   -0.1363 N   0  0  0  0  0  0  0  0  0  0  0  0
   15.9260   24.7675   -1.2189 C   0  0  0  0  0  0  0  0  0  0  0  0
   16.1532   25.0866   -2.5590 C   0  0  0  0  0  0  0  0  0  0  0  0
   12.6603   23.1187   -1.2894 C   0  0  0  0  0  0  0  0  0  0  0  0
   11.4924   23.8347   -1.1040 C   0  0  0  0  0  0  0  0  0  0  0  0
   10.3179   23.2303   -0.7021 C   0  0  0  0  0  0  0  0  0  0  0  0
   10.2987   21.8614   -0.4746 C   0  0  0  0  0  0  0  0  0  0  0  0
   11.4625   21.1406   -0.6582 C   0  0  0  0  0  0  0  0  0  0  0  0
   12.6286   21.7690   -1.0618 C   0  0  0  0  0  0  0  0  0  0  0  0
   14.0768   20.7979   -1.2783 Cl  0  0  0  0  0  0  0  0  0  0  0  0
    9.0627   21.2358   -0.0534 C   0  0  0  0  0  0  0  0  0  0  0  0
    8.0788   20.7169    0.2857 N   0  0  0  0  0  0  0  0  0  0  0  0
   15.2399   26.4060   -6.9334 C   0  0  0  0  0  0  0  0  0  0  0  0
   15.0610   26.2950   -5.4279 C   0  0  0  0  0  0  0  0  0  0  0  0
   14.6864   27.2852   -4.7810 O   0  0  0  0  0  0  0  0  0  0  0  0
   15.3392   25.0513   -4.8671 N   0  0  0  0  0  0  0  0  0  0  0  0
   15.6638   24.2249   -5.4810 H   0  0  0  0  0  0  0  0  0  0  0  0
 19 20  1  0  0  0
 20 21  2  0  0  0
 20 22  1  0  0  0
 22  1  1  0  0  0
  1  2  1  0  0  0
  2  3  2  0  0  0
  3 10  1  0  0  0
 10 11  2  0  0  0
 11 12  1  0  0  0
 12 13  2  0  0  0
 13 14  1  0  0  0
 14 15  2  0  0  0
 15 16  1  0  0  0
 13 17  1  0  0  0
 17 18  3  0  0  0
  3  4  1  0  0  0
  4  5  1  0  0  0
  5  6  2  0  0  0
  6  7  1  0  0  0
  7  8  2  0  0  0
  8  9  1  0  0  0
  9  1  2  0  0  0
 15 10  1  0  0  0
  8  4  1  0  0  0
 22 23  1  0  0  0
M  END
> <minimizedAffinity>
-7.72947

> <CNNscore>
0.7657701969

> <CNNaffinity>
7.4320106506

> <CNN_VS>
5.6912121773

> <CNNaffinity_variance>
0.2177759707

$$$$
[H]c1nc2c([H])c(N([H])C(=O)C([H])([H])[H])c([H])c(-c3c([H])c([H])c(C#N)c([H])c3Cl)n2n1


 23 25  0  0  0  0  0  0  0  0999 V2000
   15.4869   24.6842   -3.5699 C   0  0  0  0  0  0  0  0  0  0  0  0
   14.3746   23.9066   -3.1729 C   0  0  0  0  0  0  0  0  0  0  0  0
   14.1290   23.5897   -1.8683 C   0  0  0  0  0  0  0  0  0  0  0  0
   14.9692   24.0279   -0.9175 N   0  0  0  0  0  0  0  0  0  0  0  0
   15.0113   23.8964    0.4129 N   0  0  0  0  0  0  0  0  0  0  0  0
   16.0767   24.5348    0.9260 C   0  0  0  0  0  0  0  0  0  0  0  0
   16.7160   25.0801   -0.1223 N   0  0  0  0  0  0  0  0  0  0  0  0
   16.0367   24.7689   -1.2509 C   0  0  0  0  0  0  0  0  0  0  0  0
   16.3150   25.1101   -2.5758 C   0  0  0  0  0  0  0  0  0  0  0  0
   12.9718   22.7883   -1.5189 C   0  0  0  0  0  0  0  0  0  0  0  0
   13.0933   21.4181   -1.3817 C   0  0  0  0  0  0  0  0  0  0  0  0
   12.0192   20.6163   -1.0506 C   0  0  0  0  0  0  0  0  0  0  0  0
   10.7741   21.1944   -0.8467 C   0  0  0  0  0  0  0  0  0  0  0  0
   10.6464   22.5630   -0.9823 C   0  0  0  0  0  0  0  0  0  0  0  0
   11.7384   23.3467   -1.3152 C   0  0  0  0  0  0  0  0  0  0  0  0
   11.5125   25.0821   -1.4731 Cl  0  0  0  0  0  0  0  0  0  0  0  0
    9.6532   20.3461   -0.4997 C   0  0  0  0  0  0  0  0  0  0  0  0
    8.7435   19.6716   -0.2356 N   0  0  0  0  0  0  0  0  0  0  0  0
   15.4585   26.2811   -7.0304 C   0  0  0  0  0  0  0  0  0  0  0  0
   15.1735   26.1424   -5.5437 C   0  0  0  0  0  0  0  0  0  0  0  0
   14.5404   27.0328   -4.9557 O   0  0  0  0  0  0  0  0  0  0  0  0
   15.6590   24.9902   -4.9308 N   0  0  0  0  0  0  0  0  0  0  0  0
   16.2056   24.2493   -5.4942 H   0  0  0  0  0  0  0  0  0  0  0  0
 19 20  1  0  0  0
 20 21  2  0  0  0
 20 22  1  0  0  0
 22  1  1  0  0  0
  1  2  1  0  0  0
  2  3  2  0  0  0
  3 10  1  0  0  0
 10 11  2  0  0  0
 11 12  1  0  0  0
 12 13  2  0  0  0
 13 14  1  0  0  0
 14 15  2  0  0  0
 15 16  1  0  0  0
 13 17  1  0  0  0
 17 18  3  0  0  0
  3  4  1  0  0  0
  4  5  1  0  0  0
  5  6  2  0  0  0
  6  7  1  0  0  0
  7  8  2  0  0  0
  8  9  1  0  0  0
  9  1  2  0  0  0
 15 10  1  0  0  0
  8  4  1  0  0  0
 22 23  1  0  0  0
M  END
> <minimizedAffinity>
-7.69027

> <CNNscore>
0.7417877913

> <CNNaffinity>
7.3018431664

> <CNN_VS>
5.4164180756

> <CNNaffinity_variance>
0.1742137372

$$$$
[H]c1nc2c([H])c(N([H])C(=O)C([H])([H])[H])c([H])c(-c3c([H])c([H])c(C#N)c([H])c3Cl)n2n1


 23 25  0  0  0  0  0  0  0  0999 V2000
   12.8519   27.2677   -3.8245 C   0  0  0  0  0  0  0  0  0  0  0  0
   12.7413   26.3104   -2.7897 C   0  0  0  0  0  0  0  0  0  0  0  0
   13.4952   25.1732   -2.7586 C   0  0  0  0  0  0  0  0  0  0  0  0
   14.3786   24.9447   -3.7431 N   0  0  0  0  0  0  0  0  0  0  0  0
   15.2431   23.9570   -4.0005 N   0  0  0  0  0  0  0  0  0  0  0  0
   15.9205   24.1943   -5.1366 C   0  0  0  0  0  0  0  0  0  0  0  0
   15.4599   25.3688   -5.5983 N   0  0  0  0  0  0  0  0  0  0  0  0
   14.5155   25.8275   -4.7440 C   0  0  0  0  0  0  0  0  0  0  0  0
   13.7595   26.9997   -4.8041 C   0  0  0  0  0  0  0  0  0  0  0  0
   13.3395   24.2256   -1.6716 C   0  0  0  0  0  0  0  0  0  0  0  0
   12.1789   23.4830   -1.5602 C   0  0  0  0  0  0  0  0  0  0  0  0
   11.9875   22.5701   -0.5423 C   0  0  0  0  0  0  0  0  0  0  0  0
   12.9857   22.3846    0.4038 C   0  0  0  0  0  0  0  0  0  0  0  0
   14.1477   23.1237    0.2979 C   0  0  0  0  0  0  0  0  0  0  0  0
   14.3168   24.0337   -0.7321 C   0  0  0  0  0  0  0  0  0  0  0  0
   15.8175   24.9441   -0.8132 Cl  0  0  0  0  0  0  0  0  0  0  0  0
   12.7766   21.4251    1.4679 C   0  0  0  0  0  0  0  0  0  0  0  0
   12.5942   20.6647    2.3285 N   0  0  0  0  0  0  0  0  0  0  0  0
   11.5351   30.8435   -3.7511 C   0  0  0  0  0  0  0  0  0  0  0  0
   12.5607   29.7244   -3.8312 C   0  0  0  0  0  0  0  0  0  0  0  0
   13.7647   30.0036   -3.9408 O   0  0  0  0  0  0  0  0  0  0  0  0
   12.0588   28.4269   -3.7739 N   0  0  0  0  0  0  0  0  0  0  0  0
   10.9990   28.2447   -3.6796 H   0  0  0  0  0  0  0  0  0  0  0  0
 19 20  1  0  0  0
 20 21  2  0  0  0
 20 22  1  0  0  0
 22  1  1  0  0  0
  1  2  1  0  0  0
  2  3  2  0  0  0
  3 10  1  0  0  0
 10 11  2  0  0  0
 11 12  1  0  0  0
 12 13  2  0  0  0
 13 14  1  0  0  0
 14 15  2  0  0  0
 15 16  1  0  0  0
 13 17  1  0  0  0
 17 18  3  0  0  0
  3  4  1  0  0  0
  4  5  1  0  0  0
  5  6  2  0  0  0
  6  7  1  0  0  0
  7  8  2  0  0  0
  8  9  1  0  0  0
  9  1  2  0  0  0
 15 10  1  0  0  0
  8  4  1  0  0  0
 22 23  1  0  0  0
M  END
> <minimizedAffinity>
2.52148

> <CNNscore>
0.6653435826

> <CNNaffinity>
6.8667960167

> <CNN_VS>
4.5687785149

> <CNNaffinity_variance>
0.5898985863

$$$$
[H]c1nc2c([H])c(N([H])C(=O)C([H])([H])[H])c([H])c(-c3c([H])c([H])c(C#N)c([H])c3Cl)n2n1


 23 25  0  0  0  0  0  0  0  0999 V2000
   15.2067   23.7306   -4.1952 C   0  0  0  0  0  0  0  0  0  0  0  0
   14.9603   24.5491   -3.0688 C   0  0  0  0  0  0  0  0  0  0  0  0
   14.5213   24.0462   -1.8784 C   0  0  0  0  0  0  0  0  0  0  0  0
   14.3120   22.7255   -1.7615 N   0  0  0  0  0  0  0  0  0  0  0  0
   13.8957   21.9389   -0.7629 N   0  0  0  0  0  0  0  0  0  0  0  0
   13.8494   20.6531   -1.1506 C   0  0  0  0  0  0  0  0  0  0  0  0
   14.2507   20.6430   -2.4327 N   0  0  0  0  0  0  0  0  0  0  0  0
   14.5338   21.9130   -2.8057 C   0  0  0  0  0  0  0  0  0  0  0  0
   14.9831   22.3964   -4.0360 C   0  0  0  0  0  0  0  0  0  0  0  0
   14.2851   24.9335   -0.7557 C   0  0  0  0  0  0  0  0  0  0  0  0
   13.0334   25.4868   -0.5607 C   0  0  0  0  0  0  0  0  0  0  0  0
   12.7634   26.3361    0.4937 C   0  0  0  0  0  0  0  0  0  0  0  0
   13.7736   26.6506    1.3919 C   0  0  0  0  0  0  0  0  0  0  0  0
   15.0264   26.1009    1.2024 C   0  0  0  0  0  0  0  0  0  0  0  0
   15.2733   25.2513    0.1370 C   0  0  0  0  0  0  0  0  0  0  0  0
   16.8878   24.5837   -0.0507 Cl  0  0  0  0  0  0  0  0  0  0  0  0
   13.4816   27.5420    2.4948 C   0  0  0  0  0  0  0  0  0  0  0  0
   13.2579   28.2710    3.3728 N   0  0  0  0  0  0  0  0  0  0  0  0
   15.8829   26.0038   -7.1787 C   0  0  0  0  0  0  0  0  0  0  0  0
   15.2503   25.5471   -5.8741 C   0  0  0  0  0  0  0  0  0  0  0  0
   14.4023   26.2640   -5.3206 O   0  0  0  0  0  0  0  0  0  0  0  0
   15.6821   24.3191   -5.3798 N   0  0  0  0  0  0  0  0  0  0  0  0
   16.4253   23.7389   -5.9051 H   0  0  0  0  0  0  0  0  0  0  0  0
 19 20  1  0  0  0
 20 21  2  0  0  0
 20 22  1  0  0  0
 22  1  1  0  0  0
  1  2  1  0  0  0
  2  3  2  0  0  0
  3 10  1  0  0  0
 10 11  2  0  0  0
 11 12  1  0  0  0
 12 13  2  0  0  0
 13 14  1  0  0  0
 14 15  2  0  0  0
 15 16  1  0  0  0
 13 17  1  0  0  0
 17 18  3  0  0  0
  3  4  1  0  0  0
  4  5  1  0  0  0
  5  6  2  0  0  0
  6  7  1  0  0  0
  7  8  2  0  0  0
  8  9  1  0  0  0
  9  1  2  0  0  0
 15 10  1  0  0  0
  8  4  1  0  0  0
 22 23  1  0  0  0
M  END
> <minimizedAffinity>
4.08109

> <CNNscore>
0.6343241334

> <CNNaffinity>
6.9856734276

> <CNN_VS>
4.4311814308

> <CNNaffinity_variance>
0.7596570253

$$$$
[H]c1nc2c([H])c(N([H])C(=O)C([H])([H])[H])c([H])c(-c3c([H])c([H])c(C#N)c([H])c3Cl)n2n1


 23 25  0  0  0  0  0  0  0  0999 V2000
   12.8568   27.7279   -4.1235 C   0  0  0  0  0  0  0  0  0  0  0  0
   13.1255   26.7070   -3.1827 C   0  0  0  0  0  0  0  0  0  0  0  0
   13.9312   25.6423   -3.4653 C   0  0  0  0  0  0  0  0  0  0  0  0
   14.4953   25.5507   -4.6800 N   0  0  0  0  0  0  0  0  0  0  0  0
   15.3100   24.6611   -5.2577 N   0  0  0  0  0  0  0  0  0  0  0  0
   15.6006   25.0228   -6.5188 C   0  0  0  0  0  0  0  0  0  0  0  0
   14.9435   26.1756   -6.7292 N   0  0  0  0  0  0  0  0  0  0  0  0
   14.2668   26.4979   -5.6022 C   0  0  0  0  0  0  0  0  0  0  0  0
   13.4482   27.5989   -5.3438 C   0  0  0  0  0  0  0  0  0  0  0  0
   14.1717   24.6241   -2.4608 C   0  0  0  0  0  0  0  0  0  0  0  0
   13.1181   23.8840   -1.9577 C   0  0  0  0  0  0  0  0  0  0  0  0
   13.3004   22.9053   -1.0011 C   0  0  0  0  0  0  0  0  0  0  0  0
   14.5778   22.6487   -0.5231 C   0  0  0  0  0  0  0  0  0  0  0  0
   15.6346   23.3848   -1.0219 C   0  0  0  0  0  0  0  0  0  0  0  0
   15.4270   24.3616   -1.9813 C   0  0  0  0  0  0  0  0  0  0  0  0
   16.8117   25.2645   -2.5768 Cl  0  0  0  0  0  0  0  0  0  0  0  0
   14.7598   21.6205    0.4800 C   0  0  0  0  0  0  0  0  0  0  0  0
   14.9015   20.7818    1.2730 N   0  0  0  0  0  0  0  0  0  0  0  0
   10.1368   30.3850   -3.8646 C   0  0  0  0  0  0  0  0  0  0  0  0
   10.8781   29.1819   -4.4248 C   0  0  0  0  0  0  0  0  0  0  0  0
   10.4351   28.6022   -5.4283 O   0  0  0  0  0  0  0  0  0  0  0  0
   12.0366   28.8063   -3.7498 N   0  0  0  0  0  0  0  0  0  0  0  0
   12.3733   29.3487   -2.8795 H   0  0  0  0  0  0  0  0  0  0  0  0
 19 20  1  0  0  0
 20 21  2  0  0  0
 20 22  1  0  0  0
 22  1  1  0  0  0
  1  2  1  0  0  0
  2  3  2  0  0  0
  3 10  1  0  0  0
 10 11  2  0  0  0
 11 12  1  0  0  0
 12 13  2  0  0  0
 13 14  1  0  0  0
 14 15  2  0  0  0
 15 16  1  0  0  0
 13 17  1  0  0  0
 17 18  3  0  0  0
  3  4  1  0  0  0
  4  5  1  0  0  0
  5  6  2  0  0  0
  6  7  1  0  0  0
  7  8  2  0  0  0
  8  9  1  0  0  0
  9  1  2  0  0  0
 15 10  1  0  0  0
  8  4  1  0  0  0
 22 23  1  0  0  0
M  END
> <minimizedAffinity>
5.87537

> <CNNscore>
0.6060797572

> <CNNaffinity>
6.8025655746

> <CNN_VS>
4.1228971481

> <CNNaffinity_variance>
0.9421749115

$$$$
[H]c1nc2c([H])c(N([H])C(=O)C([H])([H])[H])c([H])c(-c3c([H])c([H])c(C#N)c([H])c3Cl)n2n1


 23 25  0  0  0  0  0  0  0  0999 V2000
   11.4093   21.1854   -0.7236 C   0  0  0  0  0  0  0  0  0  0  0  0
   11.9229   22.2289   -1.5278 C   0  0  0  0  0  0  0  0  0  0  0  0
   13.1855   22.7229   -1.3707 C   0  0  0  0  0  0  0  0  0  0  0  0
   13.9785   22.2056   -0.4191 N   0  0  0  0  0  0  0  0  0  0  0  0
   15.2294   22.4579   -0.0185 N   0  0  0  0  0  0  0  0  0  0  0  0
   15.5810   21.6518    0.9976 C   0  0  0  0  0  0  0  0  0  0  0  0
   14.5115   20.8740    1.2342 N   0  0  0  0  0  0  0  0  0  0  0  0
   13.5306   21.2141    0.3658 C   0  0  0  0  0  0  0  0  0  0  0  0
   12.2448   20.6872    0.2299 C   0  0  0  0  0  0  0  0  0  0  0  0
   13.6598   23.7947   -2.2250 C   0  0  0  0  0  0  0  0  0  0  0  0
   14.6859   23.5637   -3.1221 C   0  0  0  0  0  0  0  0  0  0  0  0
   15.1690   24.5537   -3.9542 C   0  0  0  0  0  0  0  0  0  0  0  0
   14.6137   25.8243   -3.8961 C   0  0  0  0  0  0  0  0  0  0  0  0
   13.5882   26.0613   -3.0018 C   0  0  0  0  0  0  0  0  0  0  0  0
   13.1203   25.0521   -2.1771 C   0  0  0  0  0  0  0  0  0  0  0  0
   11.8133   25.4155   -1.0603 Cl  0  0  0  0  0  0  0  0  0  0  0  0
   15.1264   26.8566   -4.7725 C   0  0  0  0  0  0  0  0  0  0  0  0
   15.5300   27.6986   -5.4656 N   0  0  0  0  0  0  0  0  0  0  0  0
    7.6887   20.3724   -0.5774 C   0  0  0  0  0  0  0  0  0  0  0  0
    9.0111   20.9876   -0.1493 C   0  0  0  0  0  0  0  0  0  0  0  0
    9.0585   21.6869    0.8745 O   0  0  0  0  0  0  0  0  0  0  0  0
   10.1074   20.7128   -0.9626 N   0  0  0  0  0  0  0  0  0  0  0  0
   10.0054   20.0976   -1.8436 H   0  0  0  0  0  0  0  0  0  0  0  0
 19 20  1  0  0  0
 20 21  2  0  0  0
 20 22  1  0  0  0
 22  1  1  0  0  0
  1  2  1  0  0  0
  2  3  2  0  0  0
  3 10  1  0  0  0
 10 11  2  0  0  0
 11 12  1  0  0  0
 12 13  2  0  0  0
 13 14  1  0  0  0
 14 15  2  0  0  0
 15 16  1  0  0  0
 13 17  1  0  0  0
 17 18  3  0  0  0
  3  4  1  0  0  0
  4  5  1  0  0  0
  5  6  2  0  0  0
  6  7  1  0  0  0
  7  8  2  0  0  0
  8  9  1  0  0  0
  9  1  2  0  0  0
 15 10  1  0  0  0
  8  4  1  0  0  0
 22 23  1  0  0  0
M  END
> <minimizedAffinity>
-7.78184

> <CNNscore>
0.6007699966

> <CNNaffinity>
7.2340078354

> <CNN_VS>
4.3459749222

> <CNNaffinity_variance>
0.4869506955

$$$$
[H]c1nc2c([H])c(N([H])C(=O)C([H])([H])[H])c([H])c(-c3c([H])c([H])c(C#N)c([H])c3Cl)n2n1


 23 25  0  0  0  0  0  0  0  0999 V2000
   11.4420   22.4484   -0.6454 C   0  0  0  0  0  0  0  0  0  0  0  0
   11.9989   23.2821   -1.6425 C   0  0  0  0  0  0  0  0  0  0  0  0
   13.2964   23.7037   -1.6058 C   0  0  0  0  0  0  0  0  0  0  0  0
   14.0828   23.3182   -0.5886 N   0  0  0  0  0  0  0  0  0  0  0  0
   15.3603   23.5496   -0.2668 N   0  0  0  0  0  0  0  0  0  0  0  0
   15.6891   22.9253    0.8768 C   0  0  0  0  0  0  0  0  0  0  0  0
   14.5776   22.2855    1.2768 N   0  0  0  0  0  0  0  0  0  0  0  0
   13.5944   22.5269    0.3784 C   0  0  0  0  0  0  0  0  0  0  0  0
   12.2722   22.0787    0.3692 C   0  0  0  0  0  0  0  0  0  0  0  0
   13.8144   24.5587   -2.6566 C   0  0  0  0  0  0  0  0  0  0  0  0
   13.3968   25.8732   -2.7498 C   0  0  0  0  0  0  0  0  0  0  0  0
   13.8630   26.7226   -3.7333 C   0  0  0  0  0  0  0  0  0  0  0  0
   14.7801   26.2518   -4.6624 C   0  0  0  0  0  0  0  0  0  0  0  0
   15.2012   24.9393   -4.5745 C   0  0  0  0  0  0  0  0  0  0  0  0
   14.7193   24.1060   -3.5790 C   0  0  0  0  0  0  0  0  0  0  0  0
   15.2930   22.4463   -3.5194 Cl  0  0  0  0  0  0  0  0  0  0  0  0
   15.2639   27.1495   -5.6903 C   0  0  0  0  0  0  0  0  0  0  0  0
   15.6572   27.8827   -6.5027 N   0  0  0  0  0  0  0  0  0  0  0  0
    8.1888   20.4731   -0.8478 C   0  0  0  0  0  0  0  0  0  0  0  0
    9.6807   20.7114   -0.6806 C   0  0  0  0  0  0  0  0  0  0  0  0
   10.4364   19.7476   -0.4815 O   0  0  0  0  0  0  0  0  0  0  0  0
   10.1040   22.0351   -0.7658 N   0  0  0  0  0  0  0  0  0  0  0  0
    9.3990   22.8339   -0.9394 H   0  0  0  0  0  0  0  0  0  0  0  0
 19 20  1  0  0  0
 20 21  2  0  0  0
 20 22  1  0  0  0
 22  1  1  0  0  0
  1  2  1  0  0  0
  2  3  2  0  0  0
  3 10  1  0  0  0
 10 11  2  0  0  0
 11 12  1  0  0  0
 12 13  2  0  0  0
 13 14  1  0  0  0
 14 15  2  0  0  0
 15 16  1  0  0  0
 13 17  1  0  0  0
 17 18  3  0  0  0
  3  4  1  0  0  0
  4  5  1  0  0  0
  5  6  2  0  0  0
  6  7  1  0  0  0
  7  8  2  0  0  0
  8  9  1  0  0  0
  9  1  2  0  0  0
 15 10  1  0  0  0
  8  4  1  0  0  0
 22 23  1  0  0  0
M  END
> <minimizedAffinity>
-7.02406

> <CNNscore>
0.5935077071

> <CNNaffinity>
7.1971602440

> <CNN_VS>
4.2715702057

> <CNNaffinity_variance>
0.4568672180

$$$$
[H]c1nc2c([H])c(N([H])C(=O)C([H])([H])[H])c([H])c(-c3c([H])c([H])c(C#N)c([H])c3Cl)n2n1


 23 25  0  0  0  0  0  0  0  0999 V2000
   16.5079   26.5573   -3.2508 C   0  0  0  0  0  0  0  0  0  0  0  0
   16.0354   25.5384   -2.3917 C   0  0  0  0  0  0  0  0  0  0  0  0
   14.7105   25.2321   -2.2760 C   0  0  0  0  0  0  0  0  0  0  0  0
   13.8129   25.9182   -3.0009 N   0  0  0  0  0  0  0  0  0  0  0  0
   12.4812   25.8670   -3.1149 N   0  0  0  0  0  0  0  0  0  0  0  0
   12.0377   26.7832   -3.9921 C   0  0  0  0  0  0  0  0  0  0  0  0
   13.1319   27.4236   -4.4365 N   0  0  0  0  0  0  0  0  0  0  0  0
   14.2186   26.8929   -3.8287 C   0  0  0  0  0  0  0  0  0  0  0  0
   15.5662   27.2297   -3.9695 C   0  0  0  0  0  0  0  0  0  0  0  0
   14.2827   24.1762   -1.3784 C   0  0  0  0  0  0  0  0  0  0  0  0
   13.7614   24.4903   -0.1372 C   0  0  0  0  0  0  0  0  0  0  0  0
   13.3420   23.5184    0.7491 C   0  0  0  0  0  0  0  0  0  0  0  0
   13.4425   22.1811    0.3923 C   0  0  0  0  0  0  0  0  0  0  0  0
   13.9625   21.8608   -0.8466 C   0  0  0  0  0  0  0  0  0  0  0  0
   14.3767   22.8534   -1.7189 C   0  0  0  0  0  0  0  0  0  0  0  0
   15.0297   22.3829   -3.2808 Cl  0  0  0  0  0  0  0  0  0  0  0  0
   13.0001   21.1684    1.3279 C   0  0  0  0  0  0  0  0  0  0  0  0
   12.6453   20.3424    2.0655 N   0  0  0  0  0  0  0  0  0  0  0  0
   19.9733   28.0768   -3.7063 C   0  0  0  0  0  0  0  0  0  0  0  0
   18.4548   28.0280   -3.6593 C   0  0  0  0  0  0  0  0  0  0  0  0
   17.8011   29.0538   -3.9042 O   0  0  0  0  0  0  0  0  0  0  0  0
   17.8902   26.7974   -3.3345 N   0  0  0  0  0  0  0  0  0  0  0  0
   18.5106   25.9382   -3.1294 H   0  0  0  0  0  0  0  0  0  0  0  0
 19 20  1  0  0  0
 20 21  2  0  0  0
 20 22  1  0  0  0
 22  1  1  0  0  0
  1  2  1  0  0  0
  2  3  2  0  0  0
  3 10  1  0  0  0
 10 11  2  0  0  0
 11 12  1  0  0  0
 12 13  2  0  0  0
 13 14  1  0  0  0
 14 15  2  0  0  0
 15 16  1  0  0  0
 13 17  1  0  0  0
 17 18  3  0  0  0
  3  4  1  0  0  0
  4  5  1  0  0  0
  5  6  2  0  0  0
  6  7  1  0  0  0
  7  8  2  0  0  0
  8  9  1  0  0  0
  9  1  2  0  0  0
 15 10  1  0  0  0
  8  4  1  0  0  0
 22 23  1  0  0  0
M  END
> <minimizedAffinity>
-2.91828

> <CNNscore>
0.5226300955

> <CNNaffinity>
6.7794456482

> <CNN_VS>
3.5431423187

> <CNNaffinity_variance>
0.4317745268

$$$$
[H]c1nc2c([H])c(N([H])[H])c([H])c(-c3c([H])c([H])c(C#N)c([H])c3C([H])([H])[H])n2n1


 21 23  0  0  0  0  0  0  0  0999 V2000
   13.3279   24.7187   -1.9444 C   0  0  0  0  0  0  0  0  0  0  0  0
   11.9818   24.4521   -1.8095 C   0  0  0  0  0  0  0  0  0  0  0  0
   11.4067   24.0633   -0.6207 C   0  0  0  0  0  0  0  0  0  0  0  0
   10.0168   23.7925   -0.5001 N   0  0  0  0  0  0  0  0  0  0  0  0
   12.2438   23.9433    0.4724 C   0  0  0  0  0  0  0  0  0  0  0  0
   13.5980   24.2124    0.3332 C   0  0  0  0  0  0  0  0  0  0  0  0
   14.6074   24.1698    1.2301 N   0  0  0  0  0  0  0  0  0  0  0  0
   15.7536   24.5240    0.5924 C   0  0  0  0  0  0  0  0  0  0  0  0
   15.4203   24.7725   -0.6692 N   0  0  0  0  0  0  0  0  0  0  0  0
   14.1164   24.5922   -0.8596 N   0  0  0  0  0  0  0  0  0  0  0  0
    9.6695   22.9755    0.0336 H   0  0  0  0  0  0  0  0  0  0  0  0
    9.3134   24.4144   -0.9490 H   0  0  0  0  0  0  0  0  0  0  0  0
   15.1054   22.9122   -3.3658 C   0  0  0  0  0  0  0  0  0  0  0  0
   14.7852   24.2678   -3.8649 C   0  0  0  0  0  0  0  0  0  0  0  0
   15.3638   24.6725   -5.0555 C   0  0  0  0  0  0  0  0  0  0  0  0
   15.0977   25.9416   -5.5749 C   0  0  0  0  0  0  0  0  0  0  0  0
   14.2615   26.8030   -4.9146 C   0  0  0  0  0  0  0  0  0  0  0  0
   13.7014   26.3801   -3.7393 C   0  0  0  0  0  0  0  0  0  0  0  0
   13.9437   25.1300   -3.1973 C   0  0  0  0  0  0  0  0  0  0  0  0
   15.7020   26.3533   -6.8104 C   0  0  0  0  0  0  0  0  0  0  0  0
   16.2071   26.6757   -7.8044 N   0  0  0  0  0  0  0  0  0  0  0  0
 13 14  1  0  0  0
 14 15  2  0  0  0
 15 16  1  0  0  0
 16 17  2  0  0  0
 17 18  1  0  0  0
 18 19  2  0  0  0
 19  1  1  0  0  0
  1  2  2  0  0  0
  2  3  1  0  0  0
  3  4  1  0  0  0
  3  5  2  0  0  0
  5  6  1  0  0  0
  6  7  2  0  0  0
  7  8  1  0  0  0
  8  9  2  0  0  0
  9 10  1  0  0  0
 16 20  1  0  0  0
 20 21  3  0  0  0
 19 14  1  0  0  0
 10  1  1  0  0  0
 10  6  1  0  0  0
  4 11  1  0  0  0
  4 12  1  0  0  0
M  END
> <minimizedAffinity>
-8.93036

> <CNNscore>
0.8017823100

> <CNNaffinity>
6.7182455063

> <CNN_VS>
5.3865704536

> <CNNaffinity_variance>
0.1862545162

$$$$
[H]c1nc2c([H])c(N([H])[H])c([H])c(-c3c([H])c([H])c(C#N)c([H])c3C([H])([H])[H])n2n1


 21 23  0  0  0  0  0  0  0  0999 V2000
   13.0942   22.7597   -1.4081 C   0  0  0  0  0  0  0  0  0  0  0  0
   11.8231   22.2430   -1.5448 C   0  0  0  0  0  0  0  0  0  0  0  0
   11.3301   21.2353   -0.7470 C   0  0  0  0  0  0  0  0  0  0  0  0
   10.0168   20.7148   -0.9023 N   0  0  0  0  0  0  0  0  0  0  0  0
   12.1727   20.7377    0.2289 C   0  0  0  0  0  0  0  0  0  0  0  0
   13.4512   21.2599    0.3638 C   0  0  0  0  0  0  0  0  0  0  0  0
   14.4487   20.9528    1.2218 N   0  0  0  0  0  0  0  0  0  0  0  0
   15.5078   21.7565    0.9425 C   0  0  0  0  0  0  0  0  0  0  0  0
   15.1357   22.5296   -0.0717 N   0  0  0  0  0  0  0  0  0  0  0  0
   13.8903   22.2525   -0.4471 N   0  0  0  0  0  0  0  0  0  0  0  0
    9.8302   19.6969   -0.8598 H   0  0  0  0  0  0  0  0  0  0  0  0
    9.2088   21.3508   -1.0632 H   0  0  0  0  0  0  0  0  0  0  0  0
   11.9833   25.4399   -1.2472 C   0  0  0  0  0  0  0  0  0  0  0  0
   13.0907   25.0926   -2.1650 C   0  0  0  0  0  0  0  0  0  0  0  0
   13.6036   26.0958   -2.9693 C   0  0  0  0  0  0  0  0  0  0  0  0
   14.6494   25.8260   -3.8550 C   0  0  0  0  0  0  0  0  0  0  0  0
   15.1821   24.5666   -3.9406 C   0  0  0  0  0  0  0  0  0  0  0  0
   14.6583   23.5914   -3.1353 C   0  0  0  0  0  0  0  0  0  0  0  0
   13.6229   23.8247   -2.2473 C   0  0  0  0  0  0  0  0  0  0  0  0
   15.1754   26.8723   -4.6855 C   0  0  0  0  0  0  0  0  0  0  0  0
   15.5822   27.7263   -5.3580 N   0  0  0  0  0  0  0  0  0  0  0  0
 13 14  1  0  0  0
 14 15  2  0  0  0
 15 16  1  0  0  0
 16 17  2  0  0  0
 17 18  1  0  0  0
 18 19  2  0  0  0
 19  1  1  0  0  0
  1  2  2  0  0  0
  2  3  1  0  0  0
  3  4  1  0  0  0
  3  5  2  0  0  0
  5  6  1  0  0  0
  6  7  2  0  0  0
  7  8  1  0  0  0
  8  9  2  0  0  0
  9 10  1  0  0  0
 16 20  1  0  0  0
 20 21  3  0  0  0
 19 14  1  0  0  0
 10  1  1  0  0  0
 10  6  1  0  0  0
  4 11  1  0  0  0
  4 12  1  0  0  0
M  END
> <minimizedAffinity>
-7.74193

> <CNNscore>
0.6349146366

> <CNNaffinity>
6.7856225967

> <CNN_VS>
4.3082909584

> <CNNaffinity_variance>
0.3587564826

$$$$
[H]c1nc2c([H])c(N([H])[H])c([H])c(-c3c([H])c([H])c(C#N)c([H])c3C([H])([H])[H])n2n1


 21 23  0  0  0  0  0  0  0  0999 V2000
   15.7071   25.7792   -2.6674 C   0  0  0  0  0  0  0  0  0  0  0  0
   16.9880   26.2887   -2.6396 C   0  0  0  0  0  0  0  0  0  0  0  0
   17.4093   27.3120   -3.4585 C   0  0  0  0  0  0  0  0  0  0  0  0
   18.7340   27.8246   -3.4162 N   0  0  0  0  0  0  0  0  0  0  0  0
   16.4815   27.8333   -4.3401 C   0  0  0  0  0  0  0  0  0  0  0  0
   15.1932   27.3184   -4.3654 C   0  0  0  0  0  0  0  0  0  0  0  0
   14.1213   27.6471   -5.1193 N   0  0  0  0  0  0  0  0  0  0  0  0
   13.0888   26.8409   -4.7589 C   0  0  0  0  0  0  0  0  0  0  0  0
   13.5504   26.0448   -3.8010 N   0  0  0  0  0  0  0  0  0  0  0  0
   14.8270   26.3096   -3.5383 N   0  0  0  0  0  0  0  0  0  0  0  0
   19.2581   28.0407   -4.2831 H   0  0  0  0  0  0  0  0  0  0  0  0
   19.2090   27.9951   -2.5059 H   0  0  0  0  0  0  0  0  0  0  0  0
   15.2534   23.1256   -3.7611 C   0  0  0  0  0  0  0  0  0  0  0  0
   15.0410   23.4427   -2.3316 C   0  0  0  0  0  0  0  0  0  0  0  0
   14.6100   22.4237   -1.4997 C   0  0  0  0  0  0  0  0  0  0  0  0
   14.3929   22.6649   -0.1411 C   0  0  0  0  0  0  0  0  0  0  0  0
   14.6030   23.9114    0.3872 C   0  0  0  0  0  0  0  0  0  0  0  0
   15.0292   24.9026   -0.4552 C   0  0  0  0  0  0  0  0  0  0  0  0
   15.2539   24.6978   -1.8053 C   0  0  0  0  0  0  0  0  0  0  0  0
   13.9458   21.6023    0.7146 C   0  0  0  0  0  0  0  0  0  0  0  0
   13.5794   20.7569    1.4204 N   0  0  0  0  0  0  0  0  0  0  0  0
 13 14  1  0  0  0
 14 15  2  0  0  0
 15 16  1  0  0  0
 16 17  2  0  0  0
 17 18  1  0  0  0
 18 19  2  0  0  0
 19  1  1  0  0  0
  1  2  2  0  0  0
  2  3  1  0  0  0
  3  4  1  0  0  0
  3  5  2  0  0  0
  5  6  1  0  0  0
  6  7  2  0  0  0
  7  8  1  0  0  0
  8  9  2  0  0  0
  9 10  1  0  0  0
 16 20  1  0  0  0
 20 21  3  0  0  0
 19 14  1  0  0  0
 10  1  1  0  0  0
 10  6  1  0  0  0
  4 11  1  0  0  0
  4 12  1  0  0  0
M  END
> <minimizedAffinity>
-5.99756

> <CNNscore>
0.5939018726

> <CNNaffinity>
6.6259064674

> <CNN_VS>
3.9351382256

> <CNNaffinity_variance>
0.3486496806

$$$$
[H]c1nc2c([H])c(N([H])[H])c([H])c(-c3c([H])c([H])c(C#N)c([H])c3C([H])([H])[H])n2n1


 21 23  0  0  0  0  0  0  0  0999 V2000
   14.0571   22.8547   -1.2858 C   0  0  0  0  0  0  0  0  0  0  0  0
   15.0552   22.5508   -0.3842 C   0  0  0  0  0  0  0  0  0  0  0  0
   14.8951   21.6440    0.6391 C   0  0  0  0  0  0  0  0  0  0  0  0
   15.9353   21.3432    1.5595 N   0  0  0  0  0  0  0  0  0  0  0  0
   13.6640   21.0245    0.7424 C   0  0  0  0  0  0  0  0  0  0  0  0
   12.6618   21.3325   -0.1666 C   0  0  0  0  0  0  0  0  0  0  0  0
   11.3957   20.8748   -0.2796 N   0  0  0  0  0  0  0  0  0  0  0  0
   10.8170   21.4926   -1.3422 C   0  0  0  0  0  0  0  0  0  0  0  0
   11.7357   22.3069   -1.8495 N   0  0  0  0  0  0  0  0  0  0  0  0
   12.8690   22.2332   -1.1573 N   0  0  0  0  0  0  0  0  0  0  0  0
   15.7494   21.2512    2.5743 H   0  0  0  0  0  0  0  0  0  0  0  0
   16.9134   21.2081    1.2304 H   0  0  0  0  0  0  0  0  0  0  0  0
   12.6076   25.3727   -1.2449 C   0  0  0  0  0  0  0  0  0  0  0  0
   13.5275   25.0033   -2.3433 C   0  0  0  0  0  0  0  0  0  0  0  0
   13.6906   25.9042   -3.3816 C   0  0  0  0  0  0  0  0  0  0  0  0
   14.5462   25.6089   -4.4454 C   0  0  0  0  0  0  0  0  0  0  0  0
   15.2355   24.4252   -4.4768 C   0  0  0  0  0  0  0  0  0  0  0  0
   15.0578   23.5506   -3.4388 C   0  0  0  0  0  0  0  0  0  0  0  0
   14.2183   23.8118   -2.3701 C   0  0  0  0  0  0  0  0  0  0  0  0
   14.7095   26.5490   -5.5181 C   0  0  0  0  0  0  0  0  0  0  0  0
   14.8601   27.3018   -6.3885 N   0  0  0  0  0  0  0  0  0  0  0  0
 13 14  1  0  0  0
 14 15  2  0  0  0
 15 16  1  0  0  0
 16 17  2  0  0  0
 17 18  1  0  0  0
 18 19  2  0  0  0
 19  1  1  0  0  0
  1  2  2  0  0  0
  2  3  1  0  0  0
  3  4  1  0  0  0
  3  5  2  0  0  0
  5  6  1  0  0  0
  6  7  2  0  0  0
  7  8  1  0  0  0
  8  9  2  0  0  0
  9 10  1  0  0  0
 16 20  1  0  0  0
 20 21  3  0  0  0
 19 14  1  0  0  0
 10  1  1  0  0  0
 10  6  1  0  0  0
  4 11  1  0  0  0
  4 12  1  0  0  0
M  END
> <minimizedAffinity>
-8.63758

> <CNNscore>
0.5607519150

> <CNNaffinity>
6.6542029381

> <CNN_VS>
3.7313570976

> <CNNaffinity_variance>
0.0772285238

$$$$
[H]c1nc2c([H])c(N([H])[H])c([H])c(-c3c([H])c([H])c(C#N)c([H])c3C([H])([H])[H])n2n1


 21 23  0  0  0  0  0  0  0  0999 V2000
   14.0359   23.8344   -1.6199 C   0  0  0  0  0  0  0  0  0  0  0  0
   14.4974   22.5367   -1.6848 C   0  0  0  0  0  0  0  0  0  0  0  0
   14.0781   21.5445   -0.8275 C   0  0  0  0  0  0  0  0  0  0  0  0
   14.5648   20.2119   -0.9092 N   0  0  0  0  0  0  0  0  0  0  0  0
   13.1495   21.8962    0.1338 C   0  0  0  0  0  0  0  0  0  0  0  0
   12.6870   23.2030    0.1964 C   0  0  0  0  0  0  0  0  0  0  0  0
   11.7969   23.7901    1.0261 N   0  0  0  0  0  0  0  0  0  0  0  0
   11.6889   25.0973    0.6722 C   0  0  0  0  0  0  0  0  0  0  0  0
   12.5091   25.2770   -0.3571 N   0  0  0  0  0  0  0  0  0  0  0  0
   13.1312   24.1442   -0.6712 N   0  0  0  0  0  0  0  0  0  0  0  0
   14.8205   19.6767   -0.0600 H   0  0  0  0  0  0  0  0  0  0  0  0
   14.6754   19.7421   -1.8313 H   0  0  0  0  0  0  0  0  0  0  0  0
   16.6641   25.0332   -1.3058 C   0  0  0  0  0  0  0  0  0  0  0  0
   15.7215   25.4521   -2.3665 C   0  0  0  0  0  0  0  0  0  0  0  0
   16.1248   26.4541   -3.2321 C   0  0  0  0  0  0  0  0  0  0  0  0
   15.2766   26.8901   -4.2526 C   0  0  0  0  0  0  0  0  0  0  0  0
   14.0349   26.3332   -4.4116 C   0  0  0  0  0  0  0  0  0  0  0  0
   13.6586   25.3440   -3.5434 C   0  0  0  0  0  0  0  0  0  0  0  0
   14.4740   24.8889   -2.5221 C   0  0  0  0  0  0  0  0  0  0  0  0
   15.7029   27.9300   -5.1460 C   0  0  0  0  0  0  0  0  0  0  0  0
   16.0287   28.7775   -5.8689 N   0  0  0  0  0  0  0  0  0  0  0  0
 13 14  1  0  0  0
 14 15  2  0  0  0
 15 16  1  0  0  0
 16 17  2  0  0  0
 17 18  1  0  0  0
 18 19  2  0  0  0
 19  1  1  0  0  0
  1  2  2  0  0  0
  2  3  1  0  0  0
  3  4  1  0  0  0
  3  5  2  0  0  0
  5  6  1  0  0  0
  6  7  2  0  0  0
  7  8  1  0  0  0
  8  9  2  0  0  0
  9 10  1  0  0  0
 16 20  1  0  0  0
 20 21  3  0  0  0
 19 14  1  0  0  0
 10  1  1  0  0  0
 10  6  1  0  0  0
  4 11  1  0  0  0
  4 12  1  0  0  0
M  END
> <minimizedAffinity>
-7.71421

> <CNNscore>
0.4805058837

> <CNNaffinity>
6.5380659103

> <CNN_VS>
3.1415791512

> <CNNaffinity_variance>
0.2092657983

$$$$
[H]c1nc2c([H])c(N([H])[H])c([H])c(-c3c([H])c([H])c(C#N)c([H])c3C([H])([H])[H])n2n1


 21 23  0  0  0  0  0  0  0  0999 V2000
   15.1203   24.8989   -1.8330 C   0  0  0  0  0  0  0  0  0  0  0  0
   16.1942   24.6862   -0.9947 C   0  0  0  0  0  0  0  0  0  0  0  0
   16.0618   24.4672    0.3579 C   0  0  0  0  0  0  0  0  0  0  0  0
   17.1805   24.2498    1.2070 N   0  0  0  0  0  0  0  0  0  0  0  0
   14.7788   24.4661    0.8714 C   0  0  0  0  0  0  0  0  0  0  0  0
   13.7002   24.6803    0.0250 C   0  0  0  0  0  0  0  0  0  0  0  0
   12.3730   24.7268    0.2740 N   0  0  0  0  0  0  0  0  0  0  0  0
   11.7319   24.9670   -0.8995 C   0  0  0  0  0  0  0  0  0  0  0  0
   12.6748   25.0611   -1.8305 N   0  0  0  0  0  0  0  0  0  0  0  0
   13.8828   24.8916   -1.3008 N   0  0  0  0  0  0  0  0  0  0  0  0
   17.2481   24.6991    2.1379 H   0  0  0  0  0  0  0  0  0  0  0  0
   17.9614   23.6297    0.9088 H   0  0  0  0  0  0  0  0  0  0  0  0
   15.1961   22.6572   -3.6803 C   0  0  0  0  0  0  0  0  0  0  0  0
   15.2869   24.0630   -4.1328 C   0  0  0  0  0  0  0  0  0  0  0  0
   15.4122   24.2990   -5.4910 C   0  0  0  0  0  0  0  0  0  0  0  0
   15.5020   25.6059   -5.9757 C   0  0  0  0  0  0  0  0  0  0  0  0
   15.4675   26.6717   -5.1154 C   0  0  0  0  0  0  0  0  0  0  0  0
   15.3430   26.4130   -3.7770 C   0  0  0  0  0  0  0  0  0  0  0  0
   15.2516   25.1311   -3.2636 C   0  0  0  0  0  0  0  0  0  0  0  0
   15.6318   25.8416   -7.3860 C   0  0  0  0  0  0  0  0  0  0  0  0
   15.7386   26.0124   -8.5290 N   0  0  0  0  0  0  0  0  0  0  0  0
 13 14  1  0  0  0
 14 15  2  0  0  0
 15 16  1  0  0  0
 16 17  2  0  0  0
 17 18  1  0  0  0
 18 19  2  0  0  0
 19  1  1  0  0  0
  1  2  2  0  0  0
  2  3  1  0  0  0
  3  4  1  0  0  0
  3  5  2  0  0  0
  5  6  1  0  0  0
  6  7  2  0  0  0
  7  8  1  0  0  0
  8  9  2  0  0  0
  9 10  1  0  0  0
 16 20  1  0  0  0
 20 21  3  0  0  0
 19 14  1  0  0  0
 10  1  1  0  0  0
 10  6  1  0  0  0
  4 11  1  0  0  0
  4 12  1  0  0  0
M  END
> <minimizedAffinity>
-6.77446

> <CNNscore>
0.3765082955

> <CNNaffinity>
6.4446172714

> <CNN_VS>
2.4264519215

> <CNNaffinity_variance>
0.1667114049

$$$$
[H]c1nc2c([H])c(N([H])[H])c([H])c(-c3c([H])c([H])c(C#N)c([H])c3C([H])([H])[H])n2n1


 21 23  0  0  0  0  0  0  0  0999 V2000
    9.9280   29.0385   -3.9837 C   0  0  0  0  0  0  0  0  0  0  0  0
    9.3876   29.6181   -2.8553 C   0  0  0  0  0  0  0  0  0  0  0  0
    8.1125   30.1354   -2.8116 C   0  0  0  0  0  0  0  0  0  0  0  0
    7.5718   30.7295   -1.6393 N   0  0  0  0  0  0  0  0  0  0  0  0
    7.3622   30.0554   -3.9694 C   0  0  0  0  0  0  0  0  0  0  0  0
    7.9090   29.4713   -5.1032 C   0  0  0  0  0  0  0  0  0  0  0  0
    7.3930   29.2745   -6.3362 N   0  0  0  0  0  0  0  0  0  0  0  0
    8.3358   28.6563   -7.0943 C   0  0  0  0  0  0  0  0  0  0  0  0
    9.3973   28.4912   -6.3131 N   0  0  0  0  0  0  0  0  0  0  0  0
    9.1702   28.9762   -5.0957 N   0  0  0  0  0  0  0  0  0  0  0  0
    7.0230   31.6070   -1.6817 H   0  0  0  0  0  0  0  0  0  0  0  0
    7.7172   30.2919   -0.7063 H   0  0  0  0  0  0  0  0  0  0  0  0
   12.2252   30.7369   -3.4531 C   0  0  0  0  0  0  0  0  0  0  0  0
   12.3584   29.3013   -3.7855 C   0  0  0  0  0  0  0  0  0  0  0  0
   13.6335   28.7654   -3.8409 C   0  0  0  0  0  0  0  0  0  0  0  0
   13.8200   27.4160   -4.1499 C   0  0  0  0  0  0  0  0  0  0  0  0
   12.7454   26.6044   -4.4022 C   0  0  0  0  0  0  0  0  0  0  0  0
   11.4946   27.1572   -4.3414 C   0  0  0  0  0  0  0  0  0  0  0  0
   11.2747   28.4894   -4.0383 C   0  0  0  0  0  0  0  0  0  0  0  0
   15.1460   26.8683   -4.2053 C   0  0  0  0  0  0  0  0  0  0  0  0
   16.2147   26.4164   -4.2325 N   0  0  0  0  0  0  0  0  0  0  0  0
 13 14  1  0  0  0
 14 15  2  0  0  0
 15 16  1  0  0  0
 16 17  2  0  0  0
 17 18  1  0  0  0
 18 19  2  0  0  0
 19  1  1  0  0  0
  1  2  2  0  0  0
  2  3  1  0  0  0
  3  4  1  0  0  0
  3  5  2  0  0  0
  5  6  1  0  0  0
  6  7  2  0  0  0
  7  8  1  0  0  0
  8  9  2  0  0  0
  9 10  1  0  0  0
 16 20  1  0  0  0
 20 21  3  0  0  0
 19 14  1  0  0  0
 10  1  1  0  0  0
 10  6  1  0  0  0
  4 11  1  0  0  0
  4 12  1  0  0  0
M  END
> <minimizedAffinity>
37.26807

> <CNNscore>
0.3623624146

> <CNNaffinity>
4.8937368393

> <CNN_VS>
1.7733062506

> <CNNaffinity_variance>
0.6642553210

$$$$
[H]c1nc2c([H])c(N([H])[H])c([H])c(-c3c([H])c([H])c(C#N)c([H])c3C([H])([H])[H])n2n1


 21 23  0  0  0  0  0  0  0  0999 V2000
   15.5566   25.8013   -3.8596 C   0  0  0  0  0  0  0  0  0  0  0  0
   16.2356   26.8005   -3.1949 C   0  0  0  0  0  0  0  0  0  0  0  0
   16.8601   27.8442   -3.8399 C   0  0  0  0  0  0  0  0  0  0  0  0
   17.5557   28.8657   -3.1383 N   0  0  0  0  0  0  0  0  0  0  0  0
   16.7855   27.8646   -5.2197 C   0  0  0  0  0  0  0  0  0  0  0  0
   16.1013   26.8576   -5.8855 C   0  0  0  0  0  0  0  0  0  0  0  0
   15.8870   26.6524   -7.2036 N   0  0  0  0  0  0  0  0  0  0  0  0
   15.1543   25.5165   -7.3401 C   0  0  0  0  0  0  0  0  0  0  0  0
   14.9398   25.0578   -6.1120 N   0  0  0  0  0  0  0  0  0  0  0  0
   15.5027   25.8506   -5.2046 N   0  0  0  0  0  0  0  0  0  0  0  0
   18.4731   29.2181   -3.4658 H   0  0  0  0  0  0  0  0  0  0  0  0
   17.1548   29.2844   -2.2739 H   0  0  0  0  0  0  0  0  0  0  0  0
   12.9430   26.1782   -2.6469 C   0  0  0  0  0  0  0  0  0  0  0  0
   13.6550   24.8816   -2.6130 C   0  0  0  0  0  0  0  0  0  0  0  0
   13.0367   23.8201   -1.9751 C   0  0  0  0  0  0  0  0  0  0  0  0
   13.6618   22.5725   -1.9119 C   0  0  0  0  0  0  0  0  0  0  0  0
   14.8941   22.3816   -2.4796 C   0  0  0  0  0  0  0  0  0  0  0  0
   15.4853   23.4462   -3.1048 C   0  0  0  0  0  0  0  0  0  0  0  0
   14.8940   24.6947   -3.1854 C   0  0  0  0  0  0  0  0  0  0  0  0
   13.0134   21.4769   -1.2483 C   0  0  0  0  0  0  0  0  0  0  0  0
   12.5064   20.5873   -0.7021 N   0  0  0  0  0  0  0  0  0  0  0  0
 13 14  1  0  0  0
 14 15  2  0  0  0
 15 16  1  0  0  0
 16 17  2  0  0  0
 17 18  1  0  0  0
 18 19  2  0  0  0
 19  1  1  0  0  0
  1  2  2  0  0  0
  2  3  1  0  0  0
  3  4  1  0  0  0
  3  5  2  0  0  0
  5  6  1  0  0  0
  6  7  2  0  0  0
  7  8  1  0  0  0
  8  9  2  0  0  0
  9 10  1  0  0  0
 16 20  1  0  0  0
 20 21  3  0  0  0
 19 14  1  0  0  0
 10  1  1  0  0  0
 10  6  1  0  0  0
  4 11  1  0  0  0
  4 12  1  0  0  0
M  END
> <minimizedAffinity>
-5.98911

> <CNNscore>
0.3041439056

> <CNNaffinity>
6.1164779663

> <CNN_VS>
1.8602894545

> <CNNaffinity_variance>
0.2505766749

$$$$
[H]c1nc2c([H])c(N([H])[H])c([H])c(-c3c([H])c([H])c(C#N)c([H])c3C([H])([H])[H])n2n1


 21 23  0  0  0  0  0  0  0  0999 V2000
   13.4717   24.1204   -1.7987 C   0  0  0  0  0  0  0  0  0  0  0  0
   12.7198   24.8713   -0.9199 C   0  0  0  0  0  0  0  0  0  0  0  0
   12.1852   24.3600    0.2411 C   0  0  0  0  0  0  0  0  0  0  0  0
   11.4124   25.1490    1.1354 N   0  0  0  0  0  0  0  0  0  0  0  0
   12.4309   23.0272    0.5120 C   0  0  0  0  0  0  0  0  0  0  0  0
   13.1879   22.2744   -0.3744 C   0  0  0  0  0  0  0  0  0  0  0  0
   13.5635   20.9771   -0.3403 N   0  0  0  0  0  0  0  0  0  0  0  0
   14.3023   20.7224   -1.4516 C   0  0  0  0  0  0  0  0  0  0  0  0
   14.3603   21.8610   -2.1334 N   0  0  0  0  0  0  0  0  0  0  0  0
   13.6926   22.8245   -1.5052 N   0  0  0  0  0  0  0  0  0  0  0  0
   10.5446   24.7837    1.5669 H   0  0  0  0  0  0  0  0  0  0  0  0
   11.7047   26.1182    1.3773 H   0  0  0  0  0  0  0  0  0  0  0  0
   12.4870   26.6203   -2.9053 C   0  0  0  0  0  0  0  0  0  0  0  0
   13.5678   25.8389   -3.5460 C   0  0  0  0  0  0  0  0  0  0  0  0
   14.1180   26.3336   -4.7159 C   0  0  0  0  0  0  0  0  0  0  0  0
   15.1413   25.6385   -5.3647 C   0  0  0  0  0  0  0  0  0  0  0  0
   15.6145   24.4587   -4.8534 C   0  0  0  0  0  0  0  0  0  0  0  0
   15.0547   23.9898   -3.6956 C   0  0  0  0  0  0  0  0  0  0  0  0
   14.0402   24.6532   -3.0279 C   0  0  0  0  0  0  0  0  0  0  0  0
   15.7063   26.1588   -6.5776 C   0  0  0  0  0  0  0  0  0  0  0  0
   16.1701   26.5610   -7.5625 N   0  0  0  0  0  0  0  0  0  0  0  0
 13 14  1  0  0  0
 14 15  2  0  0  0
 15 16  1  0  0  0
 16 17  2  0  0  0
 17 18  1  0  0  0
 18 19  2  0  0  0
 19  1  1  0  0  0
  1  2  2  0  0  0
  2  3  1  0  0  0
  3  4  1  0  0  0
  3  5  2  0  0  0
  5  6  1  0  0  0
  6  7  2  0  0  0
  7  8  1  0  0  0
  8  9  2  0  0  0
  9 10  1  0  0  0
 16 20  1  0  0  0
 20 21  3  0  0  0
 19 14  1  0  0  0
 10  1  1  0  0  0
 10  6  1  0  0  0
  4 11  1  0  0  0
  4 12  1  0  0  0
M  END
> <minimizedAffinity>
-8.31202

> <CNNscore>
0.2914806902

> <CNNaffinity>
6.0220217705

> <CNN_VS>
1.7553030252

> <CNNaffinity_variance>
0.0929809883

$$$$
[H]c1nc2c([H])c(N([H])C([H])([H])C([H])([H])C(F)(F)F)c([H])c(-c3c([H])c([H])c(C#N)c([H])c3[H])n2n1


 25 27  0  0  0  0  0  0  0  0999 V2000
   11.6226   24.1168   -0.4835 C   0  0  0  0  0  0  0  0  0  0  0  0
   12.1237   24.4943   -1.6949 C   0  0  0  0  0  0  0  0  0  0  0  0
   13.5012   24.7179   -1.8632 C   0  0  0  0  0  0  0  0  0  0  0  0
   14.3437   24.5564   -0.8069 N   0  0  0  0  0  0  0  0  0  0  0  0
   15.6305   24.7092   -0.7141 N   0  0  0  0  0  0  0  0  0  0  0  0
   16.0050   24.4410    0.5370 C   0  0  0  0  0  0  0  0  0  0  0  0
   14.9142   24.1119    1.2399 N   0  0  0  0  0  0  0  0  0  0  0  0
   13.8688   24.1841    0.3975 C   0  0  0  0  0  0  0  0  0  0  0  0
   12.5039   23.9659    0.5504 C   0  0  0  0  0  0  0  0  0  0  0  0
   14.0145   25.1460   -3.1534 C   0  0  0  0  0  0  0  0  0  0  0  0
   13.6597   26.2807   -3.8286 C   0  0  0  0  0  0  0  0  0  0  0  0
   14.1856   26.6076   -5.0820 C   0  0  0  0  0  0  0  0  0  0  0  0
   15.1004   25.7795   -5.6938 C   0  0  0  0  0  0  0  0  0  0  0  0
   15.4760   24.6326   -5.0385 C   0  0  0  0  0  0  0  0  0  0  0  0
   14.9469   24.3248   -3.8020 C   0  0  0  0  0  0  0  0  0  0  0  0
   15.6397   26.1273   -6.9931 C   0  0  0  0  0  0  0  0  0  0  0  0
   16.0807   26.3981   -8.0186 N   0  0  0  0  0  0  0  0  0  0  0  0
   10.2094   23.8924   -0.3301 N   0  0  0  0  0  0  0  0  0  0  0  0
    9.5738   24.6912   -0.4930 H   0  0  0  0  0  0  0  0  0  0  0  0
    9.6857   22.6151    0.0507 C   0  0  0  0  0  0  0  0  0  0  0  0
   10.0853   21.4507   -0.7722 C   0  0  0  0  0  0  0  0  0  0  0  0
   12.2555   20.4599   -0.8608 F   0  0  0  0  0  0  0  0  0  0  0  0
   11.0341   20.4842   -0.1678 C   0  0  0  0  0  0  0  0  0  0  0  0
   11.3549   20.8382    1.1131 F   0  0  0  0  0  0  0  0  0  0  0  0
   10.4910   19.2146   -0.2382 F   0  0  0  0  0  0  0  0  0  0  0  0
 22 23  1  0  0  0
 23 24  1  0  0  0
 23 25  1  0  0  0
 23 21  1  0  0  0
 21 20  1  0  0  0
 20 18  1  0  0  0
 18  1  1  0  0  0
  1  2  1  0  0  0
  2  3  2  0  0  0
  3 10  1  0  0  0
 10 11  2  0  0  0
 11 12  1  0  0  0
 12 13  2  0  0  0
 13 14  1  0  0  0
 14 15  2  0  0  0
 13 16  1  0  0  0
 16 17  3  0  0  0
  3  4  1  0  0  0
  4  5  1  0  0  0
  5  6  2  0  0  0
  6  7  1  0  0  0
  7  8  2  0  0  0
  8  9  1  0  0  0
  9  1  2  0  0  0
 15 10  1  0  0  0
  8  4  1  0  0  0
 18 19  1  0  0  0
M  END
> <minimizedAffinity>
-8.60643

> <CNNscore>
0.7823674083

> <CNNaffinity>
7.3962402344

> <CNN_VS>
5.7865772247

> <CNNaffinity_variance>
0.2191866636

$$$$
[H]c1nc2c([H])c(N([H])C([H])([H])C([H])([H])C(F)(F)F)c([H])c(-c3c([H])c([H])c(C#N)c([H])c3[H])n2n1


 25 27  0  0  0  0  0  0  0  0999 V2000
   11.5060   24.1546   -0.6112 C   0  0  0  0  0  0  0  0  0  0  0  0
   12.0404   24.5408   -1.8055 C   0  0  0  0  0  0  0  0  0  0  0  0
   13.4251   24.7415   -1.9403 C   0  0  0  0  0  0  0  0  0  0  0  0
   14.2410   24.5489   -0.8685 N   0  0  0  0  0  0  0  0  0  0  0  0
   15.5280   24.6767   -0.7454 N   0  0  0  0  0  0  0  0  0  0  0  0
   15.8700   24.3830    0.5093 C   0  0  0  0  0  0  0  0  0  0  0  0
   14.7582   24.0635    1.1832 N   0  0  0  0  0  0  0  0  0  0  0  0
   13.7331   24.1675    0.3194 C   0  0  0  0  0  0  0  0  0  0  0  0
   12.3614   23.9721    0.4393 C   0  0  0  0  0  0  0  0  0  0  0  0
   13.9744   25.1793   -3.2123 C   0  0  0  0  0  0  0  0  0  0  0  0
   13.6590   26.3328   -3.8752 C   0  0  0  0  0  0  0  0  0  0  0  0
   14.2178   26.6684   -5.1119 C   0  0  0  0  0  0  0  0  0  0  0  0
   15.1263   25.8301   -5.7190 C   0  0  0  0  0  0  0  0  0  0  0  0
   15.4626   24.6643   -5.0759 C   0  0  0  0  0  0  0  0  0  0  0  0
   14.9014   24.3481   -3.8558 C   0  0  0  0  0  0  0  0  0  0  0  0
   15.7000   26.1872   -7.0010 C   0  0  0  0  0  0  0  0  0  0  0  0
   16.1562   26.4556   -8.0205 N   0  0  0  0  0  0  0  0  0  0  0  0
   10.0859   23.9539   -0.4920 N   0  0  0  0  0  0  0  0  0  0  0  0
    9.4713   24.4484   -1.1600 H   0  0  0  0  0  0  0  0  0  0  0  0
    9.5258   23.1130    0.5228 C   0  0  0  0  0  0  0  0  0  0  0  0
    8.7120   23.7716    1.5700 C   0  0  0  0  0  0  0  0  0  0  0  0
    8.5333   24.4505    3.8518 F   0  0  0  0  0  0  0  0  0  0  0  0
    9.4208   24.2498    2.7818 C   0  0  0  0  0  0  0  0  0  0  0  0
   10.3196   23.3223    3.2298 F   0  0  0  0  0  0  0  0  0  0  0  0
   10.0189   25.4652    2.5046 F   0  0  0  0  0  0  0  0  0  0  0  0
 22 23  1  0  0  0
 23 24  1  0  0  0
 23 25  1  0  0  0
 23 21  1  0  0  0
 21 20  1  0  0  0
 20 18  1  0  0  0
 18  1  1  0  0  0
  1  2  1  0  0  0
  2  3  2  0  0  0
  3 10  1  0  0  0
 10 11  2  0  0  0
 11 12  1  0  0  0
 12 13  2  0  0  0
 13 14  1  0  0  0
 14 15  2  0  0  0
 13 16  1  0  0  0
 16 17  3  0  0  0
  3  4  1  0  0  0
  4  5  1  0  0  0
  5  6  2  0  0  0
  6  7  1  0  0  0
  7  8  2  0  0  0
  8  9  1  0  0  0
  9  1  2  0  0  0
 15 10  1  0  0  0
  8  4  1  0  0  0
 18 19  1  0  0  0
M  END
> <minimizedAffinity>
-8.63191

> <CNNscore>
0.7522685528

> <CNNaffinity>
7.1387701035

> <CNN_VS>
5.3702721596

> <CNNaffinity_variance>
0.2028652728

$$$$
[H]c1nc2c([H])c(N([H])C([H])([H])C([H])([H])C(F)(F)F)c([H])c(-c3c([H])c([H])c(C#N)c([H])c3[H])n2n1


 25 27  0  0  0  0  0  0  0  0999 V2000
   10.5637   22.6865   -0.0943 C   0  0  0  0  0  0  0  0  0  0  0  0
   11.2002   23.4608   -1.0198 C   0  0  0  0  0  0  0  0  0  0  0  0
   12.5991   23.4190   -1.1498 C   0  0  0  0  0  0  0  0  0  0  0  0
   13.3262   22.5981   -0.3443 N   0  0  0  0  0  0  0  0  0  0  0  0
   14.6073   22.3946   -0.2710 N   0  0  0  0  0  0  0  0  0  0  0  0
   14.8449   21.4973    0.6859 C   0  0  0  0  0  0  0  0  0  0  0  0
   13.6726   21.1347    1.2213 N   0  0  0  0  0  0  0  0  0  0  0  0
   12.7168   21.8256    0.5758 C   0  0  0  0  0  0  0  0  0  0  0  0
   11.3320   21.8762    0.6940 C   0  0  0  0  0  0  0  0  0  0  0  0
   13.2632   24.2706   -2.1220 C   0  0  0  0  0  0  0  0  0  0  0  0
   14.4135   23.9781   -2.8009 C   0  0  0  0  0  0  0  0  0  0  0  0
   15.0019   24.8673   -3.7051 C   0  0  0  0  0  0  0  0  0  0  0  0
   14.4302   26.0963   -3.9494 C   0  0  0  0  0  0  0  0  0  0  0  0
   13.2737   26.4171   -3.2820 C   0  0  0  0  0  0  0  0  0  0  0  0
   12.7063   25.5280   -2.3926 C   0  0  0  0  0  0  0  0  0  0  0  0
   15.0479   27.0108   -4.8886 C   0  0  0  0  0  0  0  0  0  0  0  0
   15.5389   27.7459   -5.6221 N   0  0  0  0  0  0  0  0  0  0  0  0
    9.1306   22.7425    0.0245 N   0  0  0  0  0  0  0  0  0  0  0  0
    8.6490   23.5822   -0.3384 H   0  0  0  0  0  0  0  0  0  0  0  0
    8.3828   21.6858    0.6367 C   0  0  0  0  0  0  0  0  0  0  0  0
    7.5758   20.8254   -0.2584 C   0  0  0  0  0  0  0  0  0  0  0  0
    9.5486   19.5038   -0.5054 F   0  0  0  0  0  0  0  0  0  0  0  0
    8.3017   19.8187   -1.0703 C   0  0  0  0  0  0  0  0  0  0  0  0
    7.6201   18.6347   -1.1187 F   0  0  0  0  0  0  0  0  0  0  0  0
    8.5356   20.3385   -2.3300 F   0  0  0  0  0  0  0  0  0  0  0  0
 22 23  1  0  0  0
 23 24  1  0  0  0
 23 25  1  0  0  0
 23 21  1  0  0  0
 21 20  1  0  0  0
 20 18  1  0  0  0
 18  1  1  0  0  0
  1  2  1  0  0  0
  2  3  2  0  0  0
  3 10  1  0  0  0
 10 11  2  0  0  0
 11 12  1  0  0  0
 12 13  2  0  0  0
 13 14  1  0  0  0
 14 15  2  0  0  0
 13 16  1  0  0  0
 16 17  3  0  0  0
  3  4  1  0  0  0
  4  5  1  0  0  0
  5  6  2  0  0  0
  6  7  1  0  0  0
  7  8  2  0  0  0
  8  9  1  0  0  0
  9  1  2  0  0  0
 15 10  1  0  0  0
  8  4  1  0  0  0
 18 19  1  0  0  0
M  END
> <minimizedAffinity>
-8.24542

> <CNNscore>
0.6352919936

> <CNNaffinity>
7.1819863319

> <CNN_VS>
4.5626583099

> <CNNaffinity_variance>
0.4771549702

$$$$
[H]c1nc2c([H])c(N([H])C([H])([H])C([H])([H])C(F)(F)F)c([H])c(-c3c([H])c([H])c(C#N)c([H])c3[H])n2n1


 25 27  0  0  0  0  0  0  0  0999 V2000
   12.5785   21.1642   -0.5288 C   0  0  0  0  0  0  0  0  0  0  0  0
   12.8541   22.0331   -1.5437 C   0  0  0  0  0  0  0  0  0  0  0  0
   14.0076   22.8356   -1.5075 C   0  0  0  0  0  0  0  0  0  0  0  0
   14.8581   22.7451   -0.4492 N   0  0  0  0  0  0  0  0  0  0  0  0
   15.9634   23.3766   -0.1898 N   0  0  0  0  0  0  0  0  0  0  0  0
   16.4373   22.9484    0.9805 C   0  0  0  0  0  0  0  0  0  0  0  0
   15.5974   22.0225    1.4597 N   0  0  0  0  0  0  0  0  0  0  0  0
   14.6039   21.8933    0.5630 C   0  0  0  0  0  0  0  0  0  0  0  0
   13.4593   21.1049    0.5148 C   0  0  0  0  0  0  0  0  0  0  0  0
   14.2718   23.7754   -2.5838 C   0  0  0  0  0  0  0  0  0  0  0  0
   15.1438   23.5927   -3.6209 C   0  0  0  0  0  0  0  0  0  0  0  0
   15.3576   24.5616   -4.6057 C   0  0  0  0  0  0  0  0  0  0  0  0
   14.6815   25.7609   -4.5648 C   0  0  0  0  0  0  0  0  0  0  0  0
   13.7984   25.9720   -3.5345 C   0  0  0  0  0  0  0  0  0  0  0  0
   13.5996   25.0052   -2.5705 C   0  0  0  0  0  0  0  0  0  0  0  0
   14.9100   26.7588   -5.5904 C   0  0  0  0  0  0  0  0  0  0  0  0
   15.1048   27.5440   -6.4059 N   0  0  0  0  0  0  0  0  0  0  0  0
   11.3926   20.3506   -0.5830 N   0  0  0  0  0  0  0  0  0  0  0  0
   11.5133   19.3252   -0.6342 H   0  0  0  0  0  0  0  0  0  0  0  0
   10.0818   20.9273   -0.5831 C   0  0  0  0  0  0  0  0  0  0  0  0
    8.9343   19.9917   -0.5599 C   0  0  0  0  0  0  0  0  0  0  0  0
    7.5437   18.6931   -2.0020 F   0  0  0  0  0  0  0  0  0  0  0  0
    8.0414   19.9810   -1.7441 C   0  0  0  0  0  0  0  0  0  0  0  0
    6.9361   20.7590   -1.5396 F   0  0  0  0  0  0  0  0  0  0  0  0
    8.7614   20.3785   -2.8556 F   0  0  0  0  0  0  0  0  0  0  0  0
 22 23  1  0  0  0
 23 24  1  0  0  0
 23 25  1  0  0  0
 23 21  1  0  0  0
 21 20  1  0  0  0
 20 18  1  0  0  0
 18  1  1  0  0  0
  1  2  1  0  0  0
  2  3  2  0  0  0
  3 10  1  0  0  0
 10 11  2  0  0  0
 11 12  1  0  0  0
 12 13  2  0  0  0
 13 14  1  0  0  0
 14 15  2  0  0  0
 13 16  1  0  0  0
 16 17  3  0  0  0
  3  4  1  0  0  0
  4  5  1  0  0  0
  5  6  2  0  0  0
  6  7  1  0  0  0
  7  8  2  0  0  0
  8  9  1  0  0  0
  9  1  2  0  0  0
 15 10  1  0  0  0
  8  4  1  0  0  0
 18 19  1  0  0  0
M  END
> <minimizedAffinity>
-6.49954

> <CNNscore>
0.5698786974

> <CNNaffinity>
7.0328702927

> <CNN_VS>
4.0078830719

> <CNNaffinity_variance>
0.4900911450

$$$$
[H]c1nc2c([H])c(N([H])C([H])([H])C([H])([H])C(F)(F)F)c([H])c(-c3c([H])c([H])c(C#N)c([H])c3[H])n2n1


 25 27  0  0  0  0  0  0  0  0999 V2000
   13.0230   21.4851   -0.8447 C   0  0  0  0  0  0  0  0  0  0  0  0
   13.3623   22.5010   -1.6896 C   0  0  0  0  0  0  0  0  0  0  0  0
   14.4917   23.2983   -1.4354 C   0  0  0  0  0  0  0  0  0  0  0  0
   15.2543   23.0547   -0.3352 N   0  0  0  0  0  0  0  0  0  0  0  0
   16.3210   23.6487    0.1089 N   0  0  0  0  0  0  0  0  0  0  0  0
   16.7065   23.0511    1.2367 C   0  0  0  0  0  0  0  0  0  0  0  0
   15.8500   22.0558    1.4978 N   0  0  0  0  0  0  0  0  0  0  0  0
   14.9363   22.0564    0.5115 C   0  0  0  0  0  0  0  0  0  0  0  0
   13.8165   21.2748    0.2484 C   0  0  0  0  0  0  0  0  0  0  0  0
   14.8231   24.3936   -2.3310 C   0  0  0  0  0  0  0  0  0  0  0  0
   16.0810   24.8017   -2.6783 C   0  0  0  0  0  0  0  0  0  0  0  0
   16.3135   25.8849   -3.5309 C   0  0  0  0  0  0  0  0  0  0  0  0
   15.2597   26.5942   -4.0632 C   0  0  0  0  0  0  0  0  0  0  0  0
   13.9846   26.2064   -3.7323 C   0  0  0  0  0  0  0  0  0  0  0  0
   13.7728   25.1352   -2.8889 C   0  0  0  0  0  0  0  0  0  0  0  0
   15.5113   27.7155   -4.9462 C   0  0  0  0  0  0  0  0  0  0  0  0
   15.6989   28.6114   -5.6402 N   0  0  0  0  0  0  0  0  0  0  0  0
   11.8632   20.6792   -1.1210 N   0  0  0  0  0  0  0  0  0  0  0  0
   12.0139   19.7398   -1.5253 H   0  0  0  0  0  0  0  0  0  0  0  0
   10.5366   21.1540   -0.8652 C   0  0  0  0  0  0  0  0  0  0  0  0
   10.2492   21.6465    0.5014 C   0  0  0  0  0  0  0  0  0  0  0  0
    9.8287   23.5979    1.8108 F   0  0  0  0  0  0  0  0  0  0  0  0
    9.5056   22.9240    0.6215 C   0  0  0  0  0  0  0  0  0  0  0  0
    9.8388   23.7890   -0.3833 F   0  0  0  0  0  0  0  0  0  0  0  0
    8.1495   22.6557    0.6513 F   0  0  0  0  0  0  0  0  0  0  0  0
 22 23  1  0  0  0
 23 24  1  0  0  0
 23 25  1  0  0  0
 23 21  1  0  0  0
 21 20  1  0  0  0
 20 18  1  0  0  0
 18  1  1  0  0  0
  1  2  1  0  0  0
  2  3  2  0  0  0
  3 10  1  0  0  0
 10 11  2  0  0  0
 11 12  1  0  0  0
 12 13  2  0  0  0
 13 14  1  0  0  0
 14 15  2  0  0  0
 13 16  1  0  0  0
 16 17  3  0  0  0
  3  4  1  0  0  0
  4  5  1  0  0  0
  5  6  2  0  0  0
  6  7  1  0  0  0
  7  8  2  0  0  0
  8  9  1  0  0  0
  9  1  2  0  0  0
 15 10  1  0  0  0
  8  4  1  0  0  0
 18 19  1  0  0  0
M  END
> <minimizedAffinity>
-5.82404

> <CNNscore>
0.5497937799

> <CNNaffinity>
7.1742143631

> <CNN_VS>
3.9443383217

> <CNNaffinity_variance>
0.3309227824

$$$$
[H]c1nc2c([H])c(N([H])C([H])([H])C([H])([H])C(F)(F)F)c([H])c(-c3c([H])c([H])c(C#N)c([H])c3[H])n2n1


 25 27  0  0  0  0  0  0  0  0999 V2000
   10.4871   22.9136   -0.0792 C   0  0  0  0  0  0  0  0  0  0  0  0
   11.1503   23.6571   -1.0111 C   0  0  0  0  0  0  0  0  0  0  0  0
   12.5412   23.5324   -1.1707 C   0  0  0  0  0  0  0  0  0  0  0  0
   13.2336   22.6613   -0.3875 N   0  0  0  0  0  0  0  0  0  0  0  0
   14.5012   22.3802   -0.3428 N   0  0  0  0  0  0  0  0  0  0  0  0
   14.7035   21.4609    0.6013 C   0  0  0  0  0  0  0  0  0  0  0  0
   13.5226   21.1645    1.1580 N   0  0  0  0  0  0  0  0  0  0  0  0
   12.5973   21.9179    0.5384 C   0  0  0  0  0  0  0  0  0  0  0  0
   11.2209   22.0508    0.6860 C   0  0  0  0  0  0  0  0  0  0  0  0
   13.2357   24.3518   -2.1493 C   0  0  0  0  0  0  0  0  0  0  0  0
   14.3913   24.0255   -2.8030 C   0  0  0  0  0  0  0  0  0  0  0  0
   15.0097   24.8852   -3.7156 C   0  0  0  0  0  0  0  0  0  0  0  0
   14.4637   26.1184   -3.9946 C   0  0  0  0  0  0  0  0  0  0  0  0
   13.3024   26.4730   -3.3531 C   0  0  0  0  0  0  0  0  0  0  0  0
   12.7053   25.6127   -2.4548 C   0  0  0  0  0  0  0  0  0  0  0  0
   15.1124   27.0023   -4.9422 C   0  0  0  0  0  0  0  0  0  0  0  0
   15.6133   27.7096   -5.6961 N   0  0  0  0  0  0  0  0  0  0  0  0
    9.0627   23.0547    0.0700 N   0  0  0  0  0  0  0  0  0  0  0  0
    8.4967   23.1669   -0.7877 H   0  0  0  0  0  0  0  0  0  0  0  0
    8.4360   23.0577    1.3577 C   0  0  0  0  0  0  0  0  0  0  0  0
    8.3143   24.3639    2.0446 C   0  0  0  0  0  0  0  0  0  0  0  0
   10.5258   25.2609    1.9806 F   0  0  0  0  0  0  0  0  0  0  0  0
    9.4857   24.8347    2.8229 C   0  0  0  0  0  0  0  0  0  0  0  0
    9.1702   25.9254    3.5842 F   0  0  0  0  0  0  0  0  0  0  0  0
    9.9710   23.7883    3.5854 F   0  0  0  0  0  0  0  0  0  0  0  0
 22 23  1  0  0  0
 23 24  1  0  0  0
 23 25  1  0  0  0
 23 21  1  0  0  0
 21 20  1  0  0  0
 20 18  1  0  0  0
 18  1  1  0  0  0
  1  2  1  0  0  0
  2  3  2  0  0  0
  3 10  1  0  0  0
 10 11  2  0  0  0
 11 12  1  0  0  0
 12 13  2  0  0  0
 13 14  1  0  0  0
 14 15  2  0  0  0
 13 16  1  0  0  0
 16 17  3  0  0  0
  3  4  1  0  0  0
  4  5  1  0  0  0
  5  6  2  0  0  0
  6  7  1  0  0  0
  7  8  2  0  0  0
  8  9  1  0  0  0
  9  1  2  0  0  0
 15 10  1  0  0  0
  8  4  1  0  0  0
 18 19  1  0  0  0
M  END
> <minimizedAffinity>
-8.67498

> <CNNscore>
0.5138012171

> <CNNaffinity>
6.9970679283

> <CNN_VS>
3.5951020718

> <CNNaffinity_variance>
0.3552927375

$$$$
[H]c1nc2c([H])c(N([H])C([H])([H])C([H])([H])C(F)(F)F)c([H])c(-c3c([H])c([H])c(C#N)c([H])c3[H])n2n1


 25 27  0  0  0  0  0  0  0  0999 V2000
   14.7772   27.1982   -4.6747 C   0  0  0  0  0  0  0  0  0  0  0  0
   14.8595   26.2637   -3.6843 C   0  0  0  0  0  0  0  0  0  0  0  0
   16.0466   26.0999   -2.9496 C   0  0  0  0  0  0  0  0  0  0  0  0
   17.1249   26.8813   -3.2291 N   0  0  0  0  0  0  0  0  0  0  0  0
   18.3127   26.9115   -2.7036 N   0  0  0  0  0  0  0  0  0  0  0  0
   19.0312   27.8494   -3.3213 C   0  0  0  0  0  0  0  0  0  0  0  0
   18.2624   28.4169   -4.2590 N   0  0  0  0  0  0  0  0  0  0  0  0
   17.0640   27.8098   -4.2032 C   0  0  0  0  0  0  0  0  0  0  0  0
   15.8835   27.9619   -4.9225 C   0  0  0  0  0  0  0  0  0  0  0  0
   16.1258   25.0812   -1.9165 C   0  0  0  0  0  0  0  0  0  0  0  0
   15.4177   23.9122   -1.8777 C   0  0  0  0  0  0  0  0  0  0  0  0
   15.5359   22.9937   -0.8304 C   0  0  0  0  0  0  0  0  0  0  0  0
   16.3893   23.2398    0.2222 C   0  0  0  0  0  0  0  0  0  0  0  0
   17.1140   24.4062    0.2098 C   0  0  0  0  0  0  0  0  0  0  0  0
   16.9852   25.3021   -0.8315 C   0  0  0  0  0  0  0  0  0  0  0  0
   16.5047   22.2813    1.3030 C   0  0  0  0  0  0  0  0  0  0  0  0
   16.5814   21.5185    2.1584 N   0  0  0  0  0  0  0  0  0  0  0  0
   13.5535   27.3516   -5.4165 N   0  0  0  0  0  0  0  0  0  0  0  0
   13.5860   27.1962   -6.4379 H   0  0  0  0  0  0  0  0  0  0  0  0
   12.3264   27.7225   -4.7783 C   0  0  0  0  0  0  0  0  0  0  0  0
   11.5911   26.6560   -4.0609 C   0  0  0  0  0  0  0  0  0  0  0  0
   13.0478   26.9342   -2.1900 F   0  0  0  0  0  0  0  0  0  0  0  0
   12.2758   26.0110   -2.9143 C   0  0  0  0  0  0  0  0  0  0  0  0
   11.3753   25.5120   -2.0149 F   0  0  0  0  0  0  0  0  0  0  0  0
   13.1328   25.0361   -3.3908 F   0  0  0  0  0  0  0  0  0  0  0  0
 22 23  1  0  0  0
 23 24  1  0  0  0
 23 25  1  0  0  0
 23 21  1  0  0  0
 21 20  1  0  0  0
 20 18  1  0  0  0
 18  1  1  0  0  0
  1  2  1  0  0  0
  2  3  2  0  0  0
  3 10  1  0  0  0
 10 11  2  0  0  0
 11 12  1  0  0  0
 12 13  2  0  0  0
 13 14  1  0  0  0
 14 15  2  0  0  0
 13 16  1  0  0  0
 16 17  3  0  0  0
  3  4  1  0  0  0
  4  5  1  0  0  0
  5  6  2  0  0  0
  6  7  1  0  0  0
  7  8  2  0  0  0
  8  9  1  0  0  0
  9  1  2  0  0  0
 15 10  1  0  0  0
  8  4  1  0  0  0
 18 19  1  0  0  0
M  END
> <minimizedAffinity>
5.33692

> <CNNscore>
0.5107445717

> <CNNaffinity>
6.6767091751

> <CNN_VS>
3.4100930691

> <CNNaffinity_variance>
0.7515801191

$$$$
[H]c1nc2c([H])c(N([H])C([H])([H])C([H])([H])C(F)(F)F)c([H])c(-c3c([H])c([H])c(C#N)c([H])c3[H])n2n1


 25 27  0  0  0  0  0  0  0  0999 V2000
   16.0108   24.4639   -1.3846 C   0  0  0  0  0  0  0  0  0  0  0  0
   14.9304   24.9524   -2.0593 C   0  0  0  0  0  0  0  0  0  0  0  0
   15.0577   26.0663   -2.9070 C   0  0  0  0  0  0  0  0  0  0  0  0
   16.2711   26.6639   -3.0563 N   0  0  0  0  0  0  0  0  0  0  0  0
   16.6316   27.6922   -3.7638 N   0  0  0  0  0  0  0  0  0  0  0  0
   17.9346   27.9045   -3.5785 C   0  0  0  0  0  0  0  0  0  0  0  0
   18.3940   26.9775   -2.7289 N   0  0  0  0  0  0  0  0  0  0  0  0
   17.3502   26.1968   -2.3990 C   0  0  0  0  0  0  0  0  0  0  0  0
   17.2106   25.0939   -1.5635 C   0  0  0  0  0  0  0  0  0  0  0  0
   13.8911   26.5903   -3.5968 C   0  0  0  0  0  0  0  0  0  0  0  0
   13.8520   27.0520   -4.8832 C   0  0  0  0  0  0  0  0  0  0  0  0
   12.6887   27.5643   -5.4652 C   0  0  0  0  0  0  0  0  0  0  0  0
   11.5150   27.6225   -4.7470 C   0  0  0  0  0  0  0  0  0  0  0  0
   11.5243   27.1650   -3.4522 C   0  0  0  0  0  0  0  0  0  0  0  0
   12.6813   26.6629   -2.8930 C   0  0  0  0  0  0  0  0  0  0  0  0
   10.3145   28.1552   -5.3594 C   0  0  0  0  0  0  0  0  0  0  0  0
    9.3547   28.5712   -5.8340 N   0  0  0  0  0  0  0  0  0  0  0  0
   15.8613   23.3225   -0.5209 N   0  0  0  0  0  0  0  0  0  0  0  0
   16.6110   22.6109   -0.5282 H   0  0  0  0  0  0  0  0  0  0  0  0
   14.7109   23.1551    0.3153 C   0  0  0  0  0  0  0  0  0  0  0  0
   13.5957   22.3461   -0.2274 C   0  0  0  0  0  0  0  0  0  0  0  0
   14.6266   20.5635    0.9804 F   0  0  0  0  0  0  0  0  0  0  0  0
   13.5582   20.9088    0.1364 C   0  0  0  0  0  0  0  0  0  0  0  0
   12.4288   20.6050    0.8441 F   0  0  0  0  0  0  0  0  0  0  0  0
   13.6746   20.1492   -1.0130 F   0  0  0  0  0  0  0  0  0  0  0  0
 22 23  1  0  0  0
 23 24  1  0  0  0
 23 25  1  0  0  0
 23 21  1  0  0  0
 21 20  1  0  0  0
 20 18  1  0  0  0
 18  1  1  0  0  0
  1  2  1  0  0  0
  2  3  2  0  0  0
  3 10  1  0  0  0
 10 11  2  0  0  0
 11 12  1  0  0  0
 12 13  2  0  0  0
 13 14  1  0  0  0
 14 15  2  0  0  0
 13 16  1  0  0  0
 16 17  3  0  0  0
  3  4  1  0  0  0
  4  5  1  0  0  0
  5  6  2  0  0  0
  6  7  1  0  0  0
  7  8  2  0  0  0
  8  9  1  0  0  0
  9  1  2  0  0  0
 15 10  1  0  0  0
  8  4  1  0  0  0
 18 19  1  0  0  0
M  END
> <minimizedAffinity>
8.16970

> <CNNscore>
0.4824980497

> <CNNaffinity>
6.4070672989

> <CNN_VS>
3.0913975239

> <CNNaffinity_variance>
0.7798568010

$$$$
[H]c1nc2c([H])c(N([H])C([H])([H])C([H])([H])C(F)(F)F)c([H])c(-c3c([H])c([H])c(C#N)c([H])c3[H])n2n1


 25 27  0  0  0  0  0  0  0  0999 V2000
   10.9950   23.8793   -0.1952 C   0  0  0  0  0  0  0  0  0  0  0  0
   12.2765   23.8929    0.2723 C   0  0  0  0  0  0  0  0  0  0  0  0
   13.2951   24.5427   -0.4461 C   0  0  0  0  0  0  0  0  0  0  0  0
   13.0001   25.1644   -1.6199 N   0  0  0  0  0  0  0  0  0  0  0  0
   13.7574   25.8132   -2.4526 N   0  0  0  0  0  0  0  0  0  0  0  0
   13.0094   26.2372   -3.4716 C   0  0  0  0  0  0  0  0  0  0  0  0
   11.7492   25.8372   -3.2615 N   0  0  0  0  0  0  0  0  0  0  0  0
   11.7410   25.1625   -2.0986 C   0  0  0  0  0  0  0  0  0  0  0  0
   10.7424   24.5161   -1.3780 C   0  0  0  0  0  0  0  0  0  0  0  0
   14.6599   24.5241    0.0525 C   0  0  0  0  0  0  0  0  0  0  0  0
   15.5029   25.5969    0.1414 C   0  0  0  0  0  0  0  0  0  0  0  0
   16.8147   25.4878    0.6122 C   0  0  0  0  0  0  0  0  0  0  0  0
   17.3146   24.2685    1.0125 C   0  0  0  0  0  0  0  0  0  0  0  0
   16.4900   23.1731    0.9348 C   0  0  0  0  0  0  0  0  0  0  0  0
   15.1979   23.2982    0.4674 C   0  0  0  0  0  0  0  0  0  0  0  0
   18.6757   24.1659    1.4991 C   0  0  0  0  0  0  0  0  0  0  0  0
   19.7505   24.0731    1.8937 N   0  0  0  0  0  0  0  0  0  0  0  0
    9.9651   23.2089    0.5539 N   0  0  0  0  0  0  0  0  0  0  0  0
    9.0988   23.7340    0.7592 H   0  0  0  0  0  0  0  0  0  0  0  0
   10.1259   21.8646    1.0204 C   0  0  0  0  0  0  0  0  0  0  0  0
    9.0497   20.9031    0.6885 C   0  0  0  0  0  0  0  0  0  0  0  0
   10.0572   19.0609   -0.4474 F   0  0  0  0  0  0  0  0  0  0  0  0
    9.1794   20.1491   -0.5820 C   0  0  0  0  0  0  0  0  0  0  0  0
    7.9846   19.6022   -0.9591 F   0  0  0  0  0  0  0  0  0  0  0  0
    9.7003   20.9855   -1.5520 F   0  0  0  0  0  0  0  0  0  0  0  0
 22 23  1  0  0  0
 23 24  1  0  0  0
 23 25  1  0  0  0
 23 21  1  0  0  0
 21 20  1  0  0  0
 20 18  1  0  0  0
 18  1  1  0  0  0
  1  2  1  0  0  0
  2  3  2  0  0  0
  3 10  1  0  0  0
 10 11  2  0  0  0
 11 12  1  0  0  0
 12 13  2  0  0  0
 13 14  1  0  0  0
 14 15  2  0  0  0
 13 16  1  0  0  0
 16 17  3  0  0  0
  3  4  1  0  0  0
  4  5  1  0  0  0
  5  6  2  0  0  0
  6  7  1  0  0  0
  7  8  2  0  0  0
  8  9  1  0  0  0
  9  1  2  0  0  0
 15 10  1  0  0  0
  8  4  1  0  0  0
 18 19  1  0  0  0
M  END
> <minimizedAffinity>
1.88261

> <CNNscore>
0.4705767930

> <CNNaffinity>
6.5386075974

> <CNN_VS>
3.0769169331

> <CNNaffinity_variance>
1.3500131369

$$$$
[H]OC(=O)c1c([H])c([H])c(-c2c([H])c([H])c(N3C(=O)N(c4nc([H])nc(C(F)(F)F)c4[H])C4(C3=O)C([H])([H])C([H])([H])N(C([H])([H])c3nc([H])c([H])c([H])c3C([H])([H])[H])C([H])([H])C4([H])[H])c([H])c2[H])c(C([H])([H])[H])c1[H]


 47 52  0  0  0  0  0  0  0  0999 V2000
   16.5068   23.9120   -0.6384 N   0  0  0  0  0  0  0  0  0  0  0  0
   15.7026   24.8693    0.0154 C   0  0  0  0  0  0  0  0  0  0  0  0
   14.2399   24.4901    0.0579 C   0  0  0  0  0  0  0  0  0  0  0  0
   13.6919   23.8583   -1.1582 C   0  0  0  0  0  0  0  0  0  0  0  0
   14.6686   23.3100   -2.1544 C   0  0  0  0  0  0  0  0  0  0  0  0
   16.0736   23.7030   -2.0081 C   0  0  0  0  0  0  0  0  0  0  0  0
   12.7145   24.7417   -1.8267 N   0  0  0  0  0  0  0  0  0  0  0  0
   11.4910   24.5503   -1.1271 C   0  0  0  0  0  0  0  0  0  0  0  0
   10.5322   25.3775   -1.1416 O   0  0  0  0  0  0  0  0  0  0  0  0
   11.5299   23.3199   -0.4300 N   0  0  0  0  0  0  0  0  0  0  0  0
   12.7921   22.7522   -0.7046 C   0  0  0  0  0  0  0  0  0  0  0  0
   13.0857   21.5288   -0.5811 O   0  0  0  0  0  0  0  0  0  0  0  0
   10.4925   22.7400    0.3898 C   0  0  0  0  0  0  0  0  0  0  0  0
   10.2073   23.2307    1.6383 C   0  0  0  0  0  0  0  0  0  0  0  0
    9.2421   22.6501    2.4161 C   0  0  0  0  0  0  0  0  0  0  0  0
    8.5312   21.5588    1.9644 C   0  0  0  0  0  0  0  0  0  0  0  0
    8.7946   21.0381    0.7008 C   0  0  0  0  0  0  0  0  0  0  0  0
    9.7775   21.6489   -0.0567 C   0  0  0  0  0  0  0  0  0  0  0  0
    7.4986   20.9420    2.7836 C   0  0  0  0  0  0  0  0  0  0  0  0
    7.8042   20.5738    4.0742 C   0  0  0  0  0  0  0  0  0  0  0  0
    6.8723   20.0007    4.9172 C   0  0  0  0  0  0  0  0  0  0  0  0
    5.5822   19.7777    4.4812 C   0  0  0  0  0  0  0  0  0  0  0  0
    5.2910   20.1479    3.1948 C   0  0  0  0  0  0  0  0  0  0  0  0
    6.2174   20.7238    2.3338 C   0  0  0  0  0  0  0  0  0  0  0  0
    5.7900   21.0682    0.9474 C   0  0  0  0  0  0  0  0  0  0  0  0
    4.5850   19.1671    5.3560 C   0  0  0  0  0  0  0  0  0  0  0  0
    4.1554   17.8799    5.0467 O   0  0  0  0  0  0  0  0  0  0  0  0
    4.1334   19.7982    6.3582 O   0  0  0  0  0  0  0  0  0  0  0  0
    4.7656   17.0700    5.0697 H   0  0  0  0  0  0  0  0  0  0  0  0
   12.9203   25.6044   -2.9312 C   0  0  0  0  0  0  0  0  0  0  0  0
   13.9632   25.4401   -3.8278 C   0  0  0  0  0  0  0  0  0  0  0  0
   14.1467   26.2934   -4.8983 C   0  0  0  0  0  0  0  0  0  0  0  0
   13.2494   27.2935   -5.0157 N   0  0  0  0  0  0  0  0  0  0  0  0
   12.2432   27.4615   -4.1640 C   0  0  0  0  0  0  0  0  0  0  0  0
   12.0725   26.6257   -3.1233 N   0  0  0  0  0  0  0  0  0  0  0  0
   15.2537   26.1338   -5.8728 C   0  0  0  0  0  0  0  0  0  0  0  0
   15.9608   24.9504   -5.6435 F   0  0  0  0  0  0  0  0  0  0  0  0
   16.1061   27.2069   -5.8217 F   0  0  0  0  0  0  0  0  0  0  0  0
   14.7139   26.0423   -7.1242 F   0  0  0  0  0  0  0  0  0  0  0  0
   17.8884   24.2894   -0.7047 C   0  0  0  0  0  0  0  0  0  0  0  0
   20.6095   23.7463   -0.6814 C   0  0  0  0  0  0  0  0  0  0  0  0
   19.9652   24.1436    0.5795 C   0  0  0  0  0  0  0  0  0  0  0  0
   20.7111   24.2366    1.7343 C   0  0  0  0  0  0  0  0  0  0  0  0
   20.0990   24.6106    2.9056 C   0  0  0  0  0  0  0  0  0  0  0  0
   18.7355   24.8822    2.8818 C   0  0  0  0  0  0  0  0  0  0  0  0
   18.0255   24.7837    1.7341 N   0  0  0  0  0  0  0  0  0  0  0  0
   18.5898   24.4244    0.5797 C   0  0  0  0  0  0  0  0  0  0  0  0
 41 42  1  0  0  0
 42 43  2  0  0  0
 43 44  1  0  0  0
 44 45  2  0  0  0
 45 46  1  0  0  0
 46 47  2  0  0  0
 47 40  1  0  0  0
 40  1  1  0  0  0
  1  2  1  0  0  0
  2  3  1  0  0  0
  3  4  1  0  0  0
  4  5  1  0  0  0
  5  6  1  0  0  0
  4  7  1  0  0  0
  7  8  1  0  0  0
  8  9  2  0  0  0
  8 10  1  0  0  0
 10 11  1  0  0  0
 11 12  2  0  0  0
 10 13  1  0  0  0
 13 14  2  0  0  0
 14 15  1  0  0  0
 15 16  2  0  0  0
 16 17  1  0  0  0
 17 18  2  0  0  0
 16 19  1  0  0  0
 19 20  2  0  0  0
 20 21  1  0  0  0
 21 22  2  0  0  0
 22 23  1  0  0  0
 23 24  2  0  0  0
 24 25  1  0  0  0
 22 26  1  0  0  0
 26 27  1  0  0  0
 26 28  2  0  0  0
  7 30  1  0  0  0
 30 31  2  0  0  0
 31 32  1  0  0  0
 32 33  2  0  0  0
 33 34  1  0  0  0
 34 35  2  0  0  0
 32 36  1  0  0  0
 36 37  1  0  0  0
 36 38  1  0  0  0
 36 39  1  0  0  0
 47 42  1  0  0  0
  6  1  1  0  0  0
 18 13  1  0  0  0
 24 19  1  0  0  0
 35 30  1  0  0  0
 11  4  1  0  0  0
 27 29  1  0  0  0
M  END
> <minimizedAffinity>
16.38727

> <CNNscore>
0.6202942133

> <CNNaffinity>
8.1799640656

> <CNN_VS>
5.0739841461

> <CNNaffinity_variance>
0.6971065998

$$$$
[H]OC(=O)c1c([H])c([H])c(-c2c([H])c([H])c(N3C(=O)N(c4nc([H])nc(C(F)(F)F)c4[H])C4(C3=O)C([H])([H])C([H])([H])N(C([H])([H])c3nc([H])c([H])c([H])c3C([H])([H])[H])C([H])([H])C4([H])[H])c([H])c2[H])c(C([H])([H])[H])c1[H]


 47 52  0  0  0  0  0  0  0  0999 V2000
   12.8029   26.1343   -3.3011 N   0  0  0  0  0  0  0  0  0  0  0  0
   12.9447   24.7314   -3.3470 C   0  0  0  0  0  0  0  0  0  0  0  0
   12.6632   24.0601   -2.0221 C   0  0  0  0  0  0  0  0  0  0  0  0
   13.1595   24.7546   -0.8180 C   0  0  0  0  0  0  0  0  0  0  0  0
   13.5448   26.1963   -0.9591 C   0  0  0  0  0  0  0  0  0  0  0  0
   13.6937   26.7248   -2.3187 C   0  0  0  0  0  0  0  0  0  0  0  0
   14.2455   23.9916   -0.1690 N   0  0  0  0  0  0  0  0  0  0  0  0
   13.5944   23.0033    0.6199 C   0  0  0  0  0  0  0  0  0  0  0  0
   14.1522   21.9393    1.0206 O   0  0  0  0  0  0  0  0  0  0  0  0
   12.2584   23.3972    0.8673 N   0  0  0  0  0  0  0  0  0  0  0  0
   12.0889   24.6401    0.2211 C   0  0  0  0  0  0  0  0  0  0  0  0
   11.1881   25.4858    0.4881 O   0  0  0  0  0  0  0  0  0  0  0  0
   11.2605   22.6904    1.6347 C   0  0  0  0  0  0  0  0  0  0  0  0
   11.1054   21.3317    1.5301 C   0  0  0  0  0  0  0  0  0  0  0  0
   10.1337   20.6803    2.2408 C   0  0  0  0  0  0  0  0  0  0  0  0
    9.2875   21.3722    3.0807 C   0  0  0  0  0  0  0  0  0  0  0  0
    9.4203   22.7515    3.2114 C   0  0  0  0  0  0  0  0  0  0  0  0
   10.4116   23.3767    2.4770 C   0  0  0  0  0  0  0  0  0  0  0  0
    8.2576   20.6842    3.8447 C   0  0  0  0  0  0  0  0  0  0  0  0
    6.9966   20.5653    3.3058 C   0  0  0  0  0  0  0  0  0  0  0  0
    5.9734   19.9101    3.9627 C   0  0  0  0  0  0  0  0  0  0  0  0
    6.1909   19.3438    5.2021 C   0  0  0  0  0  0  0  0  0  0  0  0
    7.4498   19.4697    5.7277 C   0  0  0  0  0  0  0  0  0  0  0  0
    8.4891   20.1269    5.0806 C   0  0  0  0  0  0  0  0  0  0  0  0
    9.8134   20.2171    5.7599 C   0  0  0  0  0  0  0  0  0  0  0  0
    5.1198   18.6528    5.9144 C   0  0  0  0  0  0  0  0  0  0  0  0
    5.2366   17.2757    6.0791 O   0  0  0  0  0  0  0  0  0  0  0  0
    4.1230   19.2957    6.3615 O   0  0  0  0  0  0  0  0  0  0  0  0
    5.9700   16.8422    6.6295 H   0  0  0  0  0  0  0  0  0  0  0  0
   15.6445   24.1807   -0.2856 C   0  0  0  0  0  0  0  0  0  0  0  0
   16.4987   24.1551    0.8044 C   0  0  0  0  0  0  0  0  0  0  0  0
   17.8604   24.3425    0.6691 C   0  0  0  0  0  0  0  0  0  0  0  0
   18.3050   24.5513   -0.5871 N   0  0  0  0  0  0  0  0  0  0  0  0
   17.4968   24.5764   -1.6417 C   0  0  0  0  0  0  0  0  0  0  0  0
   16.1712   24.3935   -1.5005 N   0  0  0  0  0  0  0  0  0  0  0  0
   18.7940   24.3149    1.8216 C   0  0  0  0  0  0  0  0  0  0  0  0
   18.4534   23.3023    2.7224 F   0  0  0  0  0  0  0  0  0  0  0  0
   18.8117   25.5269    2.4632 F   0  0  0  0  0  0  0  0  0  0  0  0
   20.0454   24.0311    1.3535 F   0  0  0  0  0  0  0  0  0  0  0  0
   13.1011   26.7706   -4.5509 C   0  0  0  0  0  0  0  0  0  0  0  0
   14.5354   25.6444   -6.6424 C   0  0  0  0  0  0  0  0  0  0  0  0
   15.2027   26.6453   -5.7963 C   0  0  0  0  0  0  0  0  0  0  0  0
   16.5094   27.0008   -6.0507 C   0  0  0  0  0  0  0  0  0  0  0  0
   17.1216   27.9383   -5.2552 C   0  0  0  0  0  0  0  0  0  0  0  0
   16.3927   28.4974   -4.2113 C   0  0  0  0  0  0  0  0  0  0  0  0
   15.1103   28.1311   -3.9828 N   0  0  0  0  0  0  0  0  0  0  0  0
   14.4863   27.2248   -4.7373 C   0  0  0  0  0  0  0  0  0  0  0  0
 41 42  1  0  0  0
 42 43  2  0  0  0
 43 44  1  0  0  0
 44 45  2  0  0  0
 45 46  1  0  0  0
 46 47  2  0  0  0
 47 40  1  0  0  0
 40  1  1  0  0  0
  1  2  1  0  0  0
  2  3  1  0  0  0
  3  4  1  0  0  0
  4  5  1  0  0  0
  5  6  1  0  0  0
  4  7  1  0  0  0
  7  8  1  0  0  0
  8  9  2  0  0  0
  8 10  1  0  0  0
 10 11  1  0  0  0
 11 12  2  0  0  0
 10 13  1  0  0  0
 13 14  2  0  0  0
 14 15  1  0  0  0
 15 16  2  0  0  0
 16 17  1  0  0  0
 17 18  2  0  0  0
 16 19  1  0  0  0
 19 20  2  0  0  0
 20 21  1  0  0  0
 21 22  2  0  0  0
 22 23  1  0  0  0
 23 24  2  0  0  0
 24 25  1  0  0  0
 22 26  1  0  0  0
 26 27  1  0  0  0
 26 28  2  0  0  0
  7 30  1  0  0  0
 30 31  2  0  0  0
 31 32  1  0  0  0
 32 33  2  0  0  0
 33 34  1  0  0  0
 34 35  2  0  0  0
 32 36  1  0  0  0
 36 37  1  0  0  0
 36 38  1  0  0  0
 36 39  1  0  0  0
 47 42  1  0  0  0
  6  1  1  0  0  0
 18 13  1  0  0  0
 24 19  1  0  0  0
 35 30  1  0  0  0
 11  4  1  0  0  0
 27 29  1  0  0  0
M  END
> <minimizedAffinity>
7.31246

> <CNNscore>
0.5637560487

> <CNNaffinity>
7.9897513390

> <CNN_VS>
4.5042705536

> <CNNaffinity_variance>
0.9069604874

$$$$
[H]OC(=O)c1c([H])c([H])c(-c2c([H])c([H])c(N3C(=O)N(c4nc([H])nc(C(F)(F)F)c4[H])C4(C3=O)C([H])([H])C([H])([H])N(C([H])([H])c3nc([H])c([H])c([H])c3C([H])([H])[H])C([H])([H])C4([H])[H])c([H])c2[H])c(C([H])([H])[H])c1[H]


 47 52  0  0  0  0  0  0  0  0999 V2000
   12.6270   26.6991   -3.4318 N   0  0  0  0  0  0  0  0  0  0  0  0
   12.6992   25.3009   -3.6054 C   0  0  0  0  0  0  0  0  0  0  0  0
   12.3785   24.5266   -2.3473 C   0  0  0  0  0  0  0  0  0  0  0  0
   12.9030   25.0829   -1.0849 C   0  0  0  0  0  0  0  0  0  0  0  0
   13.3601   26.5105   -1.0938 C   0  0  0  0  0  0  0  0  0  0  0  0
   13.5414   27.1525   -2.3995 C   0  0  0  0  0  0  0  0  0  0  0  0
   13.9467   24.2108   -0.5080 N   0  0  0  0  0  0  0  0  0  0  0  0
   13.2437   23.1884    0.1874 C   0  0  0  0  0  0  0  0  0  0  0  0
   13.7461   22.0659    0.4895 O   0  0  0  0  0  0  0  0  0  0  0  0
   11.9277   23.6243    0.4695 N   0  0  0  0  0  0  0  0  0  0  0  0
   11.8232   24.9277   -0.0607 C   0  0  0  0  0  0  0  0  0  0  0  0
   10.9642   25.7895    0.2823 O   0  0  0  0  0  0  0  0  0  0  0  0
   10.8923   22.9012    1.1691 C   0  0  0  0  0  0  0  0  0  0  0  0
   10.5323   23.2266    2.4518 C   0  0  0  0  0  0  0  0  0  0  0  0
    9.5706   22.5113    3.1128 C   0  0  0  0  0  0  0  0  0  0  0  0
    8.9383   21.4470    2.5064 C   0  0  0  0  0  0  0  0  0  0  0  0
    9.2787   21.0925    1.2042 C   0  0  0  0  0  0  0  0  0  0  0  0
   10.2557   21.8363    0.5675 C   0  0  0  0  0  0  0  0  0  0  0  0
    7.9097   20.6876    3.2013 C   0  0  0  0  0  0  0  0  0  0  0  0
    8.1669   20.2267    4.4725 C   0  0  0  0  0  0  0  0  0  0  0  0
    7.2338   19.5156    5.2014 C   0  0  0  0  0  0  0  0  0  0  0  0
    5.9918   19.2426    4.6656 C   0  0  0  0  0  0  0  0  0  0  0  0
    5.7485   19.7061    3.3996 C   0  0  0  0  0  0  0  0  0  0  0  0
    6.6769   20.4212    2.6528 C   0  0  0  0  0  0  0  0  0  0  0  0
    6.3058   20.8586    1.2764 C   0  0  0  0  0  0  0  0  0  0  0  0
    4.9947   18.4869    5.4186 C   0  0  0  0  0  0  0  0  0  0  0  0
    4.2335   19.1774    6.3571 O   0  0  0  0  0  0  0  0  0  0  0  0
    4.8382   17.2454    5.2161 O   0  0  0  0  0  0  0  0  0  0  0  0
    3.5823   19.9149    6.1102 H   0  0  0  0  0  0  0  0  0  0  0  0
   15.3539   24.3398   -0.6066 C   0  0  0  0  0  0  0  0  0  0  0  0
   16.2031   24.1392    0.4691 C   0  0  0  0  0  0  0  0  0  0  0  0
   17.5731   24.2707    0.3517 C   0  0  0  0  0  0  0  0  0  0  0  0
   18.0307   24.6055   -0.8720 N   0  0  0  0  0  0  0  0  0  0  0  0
   17.2274   24.7989   -1.9128 C   0  0  0  0  0  0  0  0  0  0  0  0
   15.8937   24.6693   -1.7893 N   0  0  0  0  0  0  0  0  0  0  0  0
   18.5013   24.0566    1.4889 C   0  0  0  0  0  0  0  0  0  0  0  0
   18.6269   25.2137    2.2623 F   0  0  0  0  0  0  0  0  0  0  0  0
   19.7342   23.6549    1.0423 F   0  0  0  0  0  0  0  0  0  0  0  0
   17.9742   23.0894    2.2968 F   0  0  0  0  0  0  0  0  0  0  0  0
   12.9622   27.4310   -4.6183 C   0  0  0  0  0  0  0  0  0  0  0  0
   15.3819   28.7400   -4.2553 C   0  0  0  0  0  0  0  0  0  0  0  0
   15.3325   27.6101   -5.1954 C   0  0  0  0  0  0  0  0  0  0  0  0
   16.4704   27.2269   -5.8715 C   0  0  0  0  0  0  0  0  0  0  0  0
   16.4128   26.1688   -6.7454 C   0  0  0  0  0  0  0  0  0  0  0  0
   15.1956   25.5190   -6.9180 C   0  0  0  0  0  0  0  0  0  0  0  0
   14.0926   25.9150   -6.2415 N   0  0  0  0  0  0  0  0  0  0  0  0
   14.1150   26.9376   -5.3849 C   0  0  0  0  0  0  0  0  0  0  0  0
 41 42  1  0  0  0
 42 43  2  0  0  0
 43 44  1  0  0  0
 44 45  2  0  0  0
 45 46  1  0  0  0
 46 47  2  0  0  0
 47 40  1  0  0  0
 40  1  1  0  0  0
  1  2  1  0  0  0
  2  3  1  0  0  0
  3  4  1  0  0  0
  4  5  1  0  0  0
  5  6  1  0  0  0
  4  7  1  0  0  0
  7  8  1  0  0  0
  8  9  2  0  0  0
  8 10  1  0  0  0
 10 11  1  0  0  0
 11 12  2  0  0  0
 10 13  1  0  0  0
 13 14  2  0  0  0
 14 15  1  0  0  0
 15 16  2  0  0  0
 16 17  1  0  0  0
 17 18  2  0  0  0
 16 19  1  0  0  0
 19 20  2  0  0  0
 20 21  1  0  0  0
 21 22  2  0  0  0
 22 23  1  0  0  0
 23 24  2  0  0  0
 24 25  1  0  0  0
 22 26  1  0  0  0
 26 27  1  0  0  0
 26 28  2  0  0  0
  7 30  1  0  0  0
 30 31  2  0  0  0
 31 32  1  0  0  0
 32 33  2  0  0  0
 33 34  1  0  0  0
 34 35  2  0  0  0
 32 36  1  0  0  0
 36 37  1  0  0  0
 36 38  1  0  0  0
 36 39  1  0  0  0
 47 42  1  0  0  0
  6  1  1  0  0  0
 18 13  1  0  0  0
 24 19  1  0  0  0
 35 30  1  0  0  0
 11  4  1  0  0  0
 27 29  1  0  0  0
M  END
> <minimizedAffinity>
9.02029

> <CNNscore>
0.5412936807

> <CNNaffinity>
8.0337142944

> <CNN_VS>
4.3485989571

> <CNNaffinity_variance>
1.2952357531

$$$$
[H]OC(=O)c1c([H])c([H])c(-c2c([H])c([H])c(N3C(=O)N(c4nc([H])nc(C(F)(F)F)c4[H])C4(C3=O)C([H])([H])C([H])([H])N(C([H])([H])c3nc([H])c([H])c([H])c3C([H])([H])[H])C([H])([H])C4([H])[H])c([H])c2[H])c(C([H])([H])[H])c1[H]


 47 52  0  0  0  0  0  0  0  0999 V2000
   17.0100   24.6389   -1.4656 N   0  0  0  0  0  0  0  0  0  0  0  0
   16.2307   25.6251   -0.8248 C   0  0  0  0  0  0  0  0  0  0  0  0
   14.7964   25.2017   -0.6048 C   0  0  0  0  0  0  0  0  0  0  0  0
   14.1635   24.4401   -1.6992 C   0  0  0  0  0  0  0  0  0  0  0  0
   15.0643   23.8346   -2.7331 C   0  0  0  0  0  0  0  0  0  0  0  0
   16.4585   24.2875   -2.7616 C   0  0  0  0  0  0  0  0  0  0  0  0
   13.0899   25.2228   -2.3453 N   0  0  0  0  0  0  0  0  0  0  0  0
   11.9476   25.0561   -1.5144 C   0  0  0  0  0  0  0  0  0  0  0  0
   10.9569   25.8450   -1.5091 O   0  0  0  0  0  0  0  0  0  0  0  0
   12.1054   23.8986   -0.7165 N   0  0  0  0  0  0  0  0  0  0  0  0
   13.3593   23.3512   -1.0616 C   0  0  0  0  0  0  0  0  0  0  0  0
   13.7159   22.1556   -0.8578 O   0  0  0  0  0  0  0  0  0  0  0  0
   11.1764   23.3630    0.2501 C   0  0  0  0  0  0  0  0  0  0  0  0
   10.6078   22.1255    0.0885 C   0  0  0  0  0  0  0  0  0  0  0  0
    9.7047   21.6447    0.9978 C   0  0  0  0  0  0  0  0  0  0  0  0
    9.3447   22.3907    2.0997 C   0  0  0  0  0  0  0  0  0  0  0  0
    9.9056   23.6496    2.2944 C   0  0  0  0  0  0  0  0  0  0  0  0
   10.8131   24.1039    1.3547 C   0  0  0  0  0  0  0  0  0  0  0  0
    8.3910   21.8818    3.0739 C   0  0  0  0  0  0  0  0  0  0  0  0
    7.6648   20.7533    2.7679 C   0  0  0  0  0  0  0  0  0  0  0  0
    6.7554   20.2009    3.6486 C   0  0  0  0  0  0  0  0  0  0  0  0
    6.5458   20.7755    4.8856 C   0  0  0  0  0  0  0  0  0  0  0  0
    7.2741   21.8985    5.1776 C   0  0  0  0  0  0  0  0  0  0  0  0
    8.1912   22.4674    4.3022 C   0  0  0  0  0  0  0  0  0  0  0  0
    8.9125   23.7028    4.7229 C   0  0  0  0  0  0  0  0  0  0  0  0
    5.5841   20.2095    5.8273 C   0  0  0  0  0  0  0  0  0  0  0  0
    4.4925   20.9947    6.1866 O   0  0  0  0  0  0  0  0  0  0  0  0
    5.7493   19.0430    6.2950 O   0  0  0  0  0  0  0  0  0  0  0  0
    3.7762   21.2844    5.5294 H   0  0  0  0  0  0  0  0  0  0  0  0
   13.1528   25.9847   -3.5379 C   0  0  0  0  0  0  0  0  0  0  0  0
   14.0189   25.6836   -4.5760 C   0  0  0  0  0  0  0  0  0  0  0  0
   14.0649   26.4401   -5.7308 C   0  0  0  0  0  0  0  0  0  0  0  0
   13.2163   27.4870   -5.7841 N   0  0  0  0  0  0  0  0  0  0  0  0
   12.3789   27.7858   -4.7964 C   0  0  0  0  0  0  0  0  0  0  0  0
   12.3413   27.0437   -3.6745 N   0  0  0  0  0  0  0  0  0  0  0  0
   14.9812   26.1335   -6.8564 C   0  0  0  0  0  0  0  0  0  0  0  0
   14.3097   26.1816   -8.0809 F   0  0  0  0  0  0  0  0  0  0  0  0
   15.5638   24.9034   -6.6889 F   0  0  0  0  0  0  0  0  0  0  0  0
   15.9519   27.0940   -6.8933 F   0  0  0  0  0  0  0  0  0  0  0  0
   18.3615   25.0555   -1.7010 C   0  0  0  0  0  0  0  0  0  0  0  0
   16.0815   26.1854   -2.8076 C   0  0  0  0  0  0  0  0  0  0  0  0
   17.3779   26.8283   -3.0696 C   0  0  0  0  0  0  0  0  0  0  0  0
   17.4387   27.9626   -3.8496 C   0  0  0  0  0  0  0  0  0  0  0  0
   18.6549   28.5557   -4.0857 C   0  0  0  0  0  0  0  0  0  0  0  0
   19.7905   27.9820   -3.5246 C   0  0  0  0  0  0  0  0  0  0  0  0
   19.7036   26.8677   -2.7619 N   0  0  0  0  0  0  0  0  0  0  0  0
   18.5381   26.2681   -2.5123 C   0  0  0  0  0  0  0  0  0  0  0  0
 41 42  1  0  0  0
 42 43  2  0  0  0
 43 44  1  0  0  0
 44 45  2  0  0  0
 45 46  1  0  0  0
 46 47  2  0  0  0
 47 40  1  0  0  0
 40  1  1  0  0  0
  1  2  1  0  0  0
  2  3  1  0  0  0
  3  4  1  0  0  0
  4  5  1  0  0  0
  5  6  1  0  0  0
  4  7  1  0  0  0
  7  8  1  0  0  0
  8  9  2  0  0  0
  8 10  1  0  0  0
 10 11  1  0  0  0
 11 12  2  0  0  0
 10 13  1  0  0  0
 13 14  2  0  0  0
 14 15  1  0  0  0
 15 16  2  0  0  0
 16 17  1  0  0  0
 17 18  2  0  0  0
 16 19  1  0  0  0
 19 20  2  0  0  0
 20 21  1  0  0  0
 21 22  2  0  0  0
 22 23  1  0  0  0
 23 24  2  0  0  0
 24 25  1  0  0  0
 22 26  1  0  0  0
 26 27  1  0  0  0
 26 28  2  0  0  0
  7 30  1  0  0  0
 30 31  2  0  0  0
 31 32  1  0  0  0
 32 33  2  0  0  0
 33 34  1  0  0  0
 34 35  2  0  0  0
 32 36  1  0  0  0
 36 37  1  0  0  0
 36 38  1  0  0  0
 36 39  1  0  0  0
 47 42  1  0  0  0
  6  1  1  0  0  0
 18 13  1  0  0  0
 24 19  1  0  0  0
 35 30  1  0  0  0
 11  4  1  0  0  0
 27 29  1  0  0  0
M  END
> <minimizedAffinity>
7.95742

> <CNNscore>
0.5350428820

> <CNNaffinity>
8.0869770050

> <CNN_VS>
4.3268795013

> <CNNaffinity_variance>
0.6573550701

$$$$
[H]OC(=O)c1c([H])c([H])c(-c2c([H])c([H])c(N3C(=O)N(c4nc([H])nc(C(F)(F)F)c4[H])C4(C3=O)C([H])([H])C([H])([H])N(C([H])([H])c3nc([H])c([H])c([H])c3C([H])([H])[H])C([H])([H])C4([H])[H])c([H])c2[H])c(C([H])([H])[H])c1[H]


 47 52  0  0  0  0  0  0  0  0999 V2000
   12.1579   26.2153   -2.6980 N   0  0  0  0  0  0  0  0  0  0  0  0
   12.3680   24.8307   -2.8689 C   0  0  0  0  0  0  0  0  0  0  0  0
   12.1342   24.0320   -1.6071 C   0  0  0  0  0  0  0  0  0  0  0  0
   12.6085   24.6414   -0.3493 C   0  0  0  0  0  0  0  0  0  0  0  0
   12.9209   26.1074   -0.3645 C   0  0  0  0  0  0  0  0  0  0  0  0
   13.0289   26.7606   -1.6728 C   0  0  0  0  0  0  0  0  0  0  0  0
   13.7377   23.8794    0.2226 N   0  0  0  0  0  0  0  0  0  0  0  0
   13.1446   22.7941    0.9249 C   0  0  0  0  0  0  0  0  0  0  0  0
   13.7584   21.7281    1.2262 O   0  0  0  0  0  0  0  0  0  0  0  0
   11.7936   23.0974    1.2147 N   0  0  0  0  0  0  0  0  0  0  0  0
   11.5562   24.3823    0.6823 C   0  0  0  0  0  0  0  0  0  0  0  0
   10.6177   25.1551    1.0290 O   0  0  0  0  0  0  0  0  0  0  0  0
   10.8399   22.2766    1.9228 C   0  0  0  0  0  0  0  0  0  0  0  0
    9.6026   22.7544    2.2717 C   0  0  0  0  0  0  0  0  0  0  0  0
    8.7214   21.9742    2.9705 C   0  0  0  0  0  0  0  0  0  0  0  0
    9.0538   20.6884    3.3400 C   0  0  0  0  0  0  0  0  0  0  0  0
   10.3007   20.1725    2.9990 C   0  0  0  0  0  0  0  0  0  0  0  0
   11.1661   20.9895    2.2944 C   0  0  0  0  0  0  0  0  0  0  0  0
    8.1183   19.8515    4.0763 C   0  0  0  0  0  0  0  0  0  0  0  0
    6.9238   19.5084    3.4844 C   0  0  0  0  0  0  0  0  0  0  0  0
    5.9946   18.7027    4.1130 C   0  0  0  0  0  0  0  0  0  0  0  0
    6.2428   18.2080    5.3770 C   0  0  0  0  0  0  0  0  0  0  0  0
    7.4346   18.5573    5.9553 C   0  0  0  0  0  0  0  0  0  0  0  0
    8.3788   19.3680    5.3371 C   0  0  0  0  0  0  0  0  0  0  0  0
    9.6334   19.6965    6.0730 C   0  0  0  0  0  0  0  0  0  0  0  0
    5.2697   17.3600    6.0599 C   0  0  0  0  0  0  0  0  0  0  0  0
    5.6482   16.0548    6.3606 O   0  0  0  0  0  0  0  0  0  0  0  0
    4.1232   17.8082    6.3619 O   0  0  0  0  0  0  0  0  0  0  0  0
    6.3961   15.8283    7.0073 H   0  0  0  0  0  0  0  0  0  0  0  0
   15.1244   24.1478    0.1143 C   0  0  0  0  0  0  0  0  0  0  0  0
   15.6651   24.8993   -0.9159 C   0  0  0  0  0  0  0  0  0  0  0  0
   17.0208   25.1488   -1.0035 C   0  0  0  0  0  0  0  0  0  0  0  0
   17.7827   24.6168   -0.0260 N   0  0  0  0  0  0  0  0  0  0  0  0
   17.2767   23.8957    0.9691 C   0  0  0  0  0  0  0  0  0  0  0  0
   15.9547   23.6569    1.0461 N   0  0  0  0  0  0  0  0  0  0  0  0
   17.6209   25.9542   -2.0953 C   0  0  0  0  0  0  0  0  0  0  0  0
   17.1377   25.5515   -3.3431 F   0  0  0  0  0  0  0  0  0  0  0  0
   18.9891   25.8648   -2.0710 F   0  0  0  0  0  0  0  0  0  0  0  0
   17.2482   27.2569   -1.9222 F   0  0  0  0  0  0  0  0  0  0  0  0
   12.4109   26.9734   -3.8884 C   0  0  0  0  0  0  0  0  0  0  0  0
   14.1299   29.1351   -4.1569 C   0  0  0  0  0  0  0  0  0  0  0  0
   14.5571   27.8320   -4.6882 C   0  0  0  0  0  0  0  0  0  0  0  0
   15.7841   27.7079   -5.3028 C   0  0  0  0  0  0  0  0  0  0  0  0
   16.1735   26.4855   -5.7933 C   0  0  0  0  0  0  0  0  0  0  0  0
   15.3049   25.4089   -5.6515 C   0  0  0  0  0  0  0  0  0  0  0  0
   14.1051   25.5572   -5.0436 N   0  0  0  0  0  0  0  0  0  0  0  0
   13.6977   26.7301   -4.5553 C   0  0  0  0  0  0  0  0  0  0  0  0
 41 42  1  0  0  0
 42 43  2  0  0  0
 43 44  1  0  0  0
 44 45  2  0  0  0
 45 46  1  0  0  0
 46 47  2  0  0  0
 47 40  1  0  0  0
 40  1  1  0  0  0
  1  2  1  0  0  0
  2  3  1  0  0  0
  3  4  1  0  0  0
  4  5  1  0  0  0
  5  6  1  0  0  0
  4  7  1  0  0  0
  7  8  1  0  0  0
  8  9  2  0  0  0
  8 10  1  0  0  0
 10 11  1  0  0  0
 11 12  2  0  0  0
 10 13  1  0  0  0
 13 14  2  0  0  0
 14 15  1  0  0  0
 15 16  2  0  0  0
 16 17  1  0  0  0
 17 18  2  0  0  0
 16 19  1  0  0  0
 19 20  2  0  0  0
 20 21  1  0  0  0
 21 22  2  0  0  0
 22 23  1  0  0  0
 23 24  2  0  0  0
 24 25  1  0  0  0
 22 26  1  0  0  0
 26 27  1  0  0  0
 26 28  2  0  0  0
  7 30  1  0  0  0
 30 31  2  0  0  0
 31 32  1  0  0  0
 32 33  2  0  0  0
 33 34  1  0  0  0
 34 35  2  0  0  0
 32 36  1  0  0  0
 36 37  1  0  0  0
 36 38  1  0  0  0
 36 39  1  0  0  0
 47 42  1  0  0  0
  6  1  1  0  0  0
 18 13  1  0  0  0
 24 19  1  0  0  0
 35 30  1  0  0  0
 11  4  1  0  0  0
 27 29  1  0  0  0
M  END
> <minimizedAffinity>
5.91085

> <CNNscore>
0.5097111464

> <CNNaffinity>
7.8727850914

> <CNN_VS>
4.0128464699

> <CNNaffinity_variance>
0.5439279675

$$$$
[H]OC(=O)c1c([H])c([H])c(-c2c([H])c([H])c(N3C(=O)N(c4nc([H])nc(C(F)(F)F)c4[H])C4(C3=O)C([H])([H])C([H])([H])N(C([H])([H])c3nc([H])c([H])c([H])c3C([H])([H])[H])C([H])([H])C4([H])[H])c([H])c2[H])c(C([H])([H])[H])c1[H]


 47 52  0  0  0  0  0  0  0  0999 V2000
   16.9043   23.8059   -0.8823 N   0  0  0  0  0  0  0  0  0  0  0  0
   16.1582   24.7691   -0.1709 C   0  0  0  0  0  0  0  0  0  0  0  0
   14.6863   24.4365   -0.0820 C   0  0  0  0  0  0  0  0  0  0  0  0
   14.0715   23.8589   -1.2931 C   0  0  0  0  0  0  0  0  0  0  0  0
   14.9906   23.3088   -2.3417 C   0  0  0  0  0  0  0  0  0  0  0  0
   16.4126   23.6515   -2.2394 C   0  0  0  0  0  0  0  0  0  0  0  0
   13.0995   24.7928   -1.8978 N   0  0  0  0  0  0  0  0  0  0  0  0
   11.8979   24.6208   -1.1566 C   0  0  0  0  0  0  0  0  0  0  0  0
   10.9675   25.4787   -1.1103 O   0  0  0  0  0  0  0  0  0  0  0  0
   11.9219   23.3697   -0.4965 N   0  0  0  0  0  0  0  0  0  0  0  0
   13.1530   22.7697   -0.8361 C   0  0  0  0  0  0  0  0  0  0  0  0
   13.4099   21.5343   -0.7587 O   0  0  0  0  0  0  0  0  0  0  0  0
   10.8977   22.7999    0.3465 C   0  0  0  0  0  0  0  0  0  0  0  0
   10.4388   21.5220    0.1527 C   0  0  0  0  0  0  0  0  0  0  0  0
    9.4450   21.0071    0.9406 C   0  0  0  0  0  0  0  0  0  0  0  0
    8.8811   21.7583    1.9496 C   0  0  0  0  0  0  0  0  0  0  0  0
    9.3262   23.0578    2.1741 C   0  0  0  0  0  0  0  0  0  0  0  0
   10.3304   23.5459    1.3578 C   0  0  0  0  0  0  0  0  0  0  0  0
    7.8297   21.2136    2.7955 C   0  0  0  0  0  0  0  0  0  0  0  0
    6.6248   20.8731    2.2237 C   0  0  0  0  0  0  0  0  0  0  0  0
    5.5869   20.3336    2.9583 C   0  0  0  0  0  0  0  0  0  0  0  0
    5.7319   20.1151    4.3131 C   0  0  0  0  0  0  0  0  0  0  0  0
    6.9354   20.4588    4.8700 C   0  0  0  0  0  0  0  0  0  0  0  0
    7.9884   21.0040    4.1454 C   0  0  0  0  0  0  0  0  0  0  0  0
    9.2463   21.3566    4.8641 C   0  0  0  0  0  0  0  0  0  0  0  0
    4.6437   19.5516    5.1072 C   0  0  0  0  0  0  0  0  0  0  0  0
    4.1892   20.2894    6.1963 O   0  0  0  0  0  0  0  0  0  0  0  0
    4.1399   18.4283    4.8055 O   0  0  0  0  0  0  0  0  0  0  0  0
    3.7407   21.1946    6.1058 H   0  0  0  0  0  0  0  0  0  0  0  0
   13.2920   25.6807   -2.9847 C   0  0  0  0  0  0  0  0  0  0  0  0
   14.5431   25.9738   -3.5018 C   0  0  0  0  0  0  0  0  0  0  0  0
   14.7091   26.8433   -4.5621 C   0  0  0  0  0  0  0  0  0  0  0  0
   13.5802   27.3872   -5.0610 N   0  0  0  0  0  0  0  0  0  0  0  0
   12.3737   27.1131   -4.5759 C   0  0  0  0  0  0  0  0  0  0  0  0
   12.2213   26.2653   -3.5421 N   0  0  0  0  0  0  0  0  0  0  0  0
   16.0386   27.1684   -5.1343 C   0  0  0  0  0  0  0  0  0  0  0  0
   16.4146   28.4780   -4.8243 F   0  0  0  0  0  0  0  0  0  0  0  0
   16.0406   26.9892   -6.4939 F   0  0  0  0  0  0  0  0  0  0  0  0
   16.9644   26.3401   -4.5661 F   0  0  0  0  0  0  0  0  0  0  0  0
   18.2943   24.1401   -0.9918 C   0  0  0  0  0  0  0  0  0  0  0  0
   16.9414   23.5156    1.3491 C   0  0  0  0  0  0  0  0  0  0  0  0
   18.3324   23.9827    1.4490 C   0  0  0  0  0  0  0  0  0  0  0  0
   18.9313   24.1024    2.6841 C   0  0  0  0  0  0  0  0  0  0  0  0
   20.2316   24.5376    2.7650 C   0  0  0  0  0  0  0  0  0  0  0  0
   20.9004   24.8458    1.5855 C   0  0  0  0  0  0  0  0  0  0  0  0
   20.2894   24.7193    0.3848 N   0  0  0  0  0  0  0  0  0  0  0  0
   19.0284   24.2983    0.2715 C   0  0  0  0  0  0  0  0  0  0  0  0
 41 42  1  0  0  0
 42 43  2  0  0  0
 43 44  1  0  0  0
 44 45  2  0  0  0
 45 46  1  0  0  0
 46 47  2  0  0  0
 47 40  1  0  0  0
 40  1  1  0  0  0
  1  2  1  0  0  0
  2  3  1  0  0  0
  3  4  1  0  0  0
  4  5  1  0  0  0
  5  6  1  0  0  0
  4  7  1  0  0  0
  7  8  1  0  0  0
  8  9  2  0  0  0
  8 10  1  0  0  0
 10 11  1  0  0  0
 11 12  2  0  0  0
 10 13  1  0  0  0
 13 14  2  0  0  0
 14 15  1  0  0  0
 15 16  2  0  0  0
 16 17  1  0  0  0
 17 18  2  0  0  0
 16 19  1  0  0  0
 19 20  2  0  0  0
 20 21  1  0  0  0
 21 22  2  0  0  0
 22 23  1  0  0  0
 23 24  2  0  0  0
 24 25  1  0  0  0
 22 26  1  0  0  0
 26 27  1  0  0  0
 26 28  2  0  0  0
  7 30  1  0  0  0
 30 31  2  0  0  0
 31 32  1  0  0  0
 32 33  2  0  0  0
 33 34  1  0  0  0
 34 35  2  0  0  0
 32 36  1  0  0  0
 36 37  1  0  0  0
 36 38  1  0  0  0
 36 39  1  0  0  0
 47 42  1  0  0  0
  6  1  1  0  0  0
 18 13  1  0  0  0
 24 19  1  0  0  0
 35 30  1  0  0  0
 11  4  1  0  0  0
 27 29  1  0  0  0
M  END
> <minimizedAffinity>
13.88632

> <CNNscore>
0.5033121109

> <CNNaffinity>
8.0537557602

> <CNN_VS>
4.0535526276

> <CNNaffinity_variance>
0.5415881872

$$$$
[H]OC(=O)c1c([H])c([H])c(-c2c([H])c([H])c(N3C(=O)N(c4nc([H])nc(C(F)(F)F)c4[H])C4(C3=O)C([H])([H])C([H])([H])N(C([H])([H])c3nc([H])c([H])c([H])c3C([H])([H])[H])C([H])([H])C4([H])[H])c([H])c2[H])c(C([H])([H])[H])c1[H]


 47 52  0  0  0  0  0  0  0  0999 V2000
   14.4386   24.6900   -4.0527 N   0  0  0  0  0  0  0  0  0  0  0  0
   14.6146   23.3501   -3.6477 C   0  0  0  0  0  0  0  0  0  0  0  0
   14.0918   23.0742   -2.2565 C   0  0  0  0  0  0  0  0  0  0  0  0
   14.3277   24.1257   -1.2481 C   0  0  0  0  0  0  0  0  0  0  0  0
   14.7043   25.4892   -1.7441 C   0  0  0  0  0  0  0  0  0  0  0  0
   15.1069   25.6086   -3.1489 C   0  0  0  0  0  0  0  0  0  0  0  0
   15.2800   23.6720   -0.2138 N   0  0  0  0  0  0  0  0  0  0  0  0
   14.5065   22.9088    0.7040 C   0  0  0  0  0  0  0  0  0  0  0  0
   14.9958   22.0546    1.5007 O   0  0  0  0  0  0  0  0  0  0  0  0
   13.1403   23.2524    0.5745 N   0  0  0  0  0  0  0  0  0  0  0  0
   13.0763   24.2359   -0.4352 C   0  0  0  0  0  0  0  0  0  0  0  0
   12.1238   25.0500   -0.6033 O   0  0  0  0  0  0  0  0  0  0  0  0
   12.0253   22.7244    1.3245 C   0  0  0  0  0  0  0  0  0  0  0  0
   11.8505   21.3747    1.4942 C   0  0  0  0  0  0  0  0  0  0  0  0
   10.7711   20.8886    2.1812 C   0  0  0  0  0  0  0  0  0  0  0  0
    9.8331   21.7423    2.7213 C   0  0  0  0  0  0  0  0  0  0  0  0
    9.9827   23.1177    2.5691 C   0  0  0  0  0  0  0  0  0  0  0  0
   11.0843   23.5732    1.8678 C   0  0  0  0  0  0  0  0  0  0  0  0
    8.6876   21.2317    3.4593 C   0  0  0  0  0  0  0  0  0  0  0  0
    8.8627   20.8257    4.7629 C   0  0  0  0  0  0  0  0  0  0  0  0
    7.8198   20.3479    5.5322 C   0  0  0  0  0  0  0  0  0  0  0  0
    6.5471   20.2636    5.0058 C   0  0  0  0  0  0  0  0  0  0  0  0
    6.3862   20.6700    3.7074 C   0  0  0  0  0  0  0  0  0  0  0  0
    7.4251   21.1512    2.9198 C   0  0  0  0  0  0  0  0  0  0  0  0
    7.1334   21.5469    1.5121 C   0  0  0  0  0  0  0  0  0  0  0  0
    5.4334   19.7552    5.8018 C   0  0  0  0  0  0  0  0  0  0  0  0
    5.5650   18.4880    6.3622 O   0  0  0  0  0  0  0  0  0  0  0  0
    4.3883   20.4528    5.9683 O   0  0  0  0  0  0  0  0  0  0  0  0
    6.2573   18.2620    7.0682 H   0  0  0  0  0  0  0  0  0  0  0  0
   16.6705   23.9273   -0.1258 C   0  0  0  0  0  0  0  0  0  0  0  0
   17.3219   24.1277    1.0800 C   0  0  0  0  0  0  0  0  0  0  0  0
   18.6792   24.3761    1.1438 C   0  0  0  0  0  0  0  0  0  0  0  0
   19.3285   24.4109   -0.0378 N   0  0  0  0  0  0  0  0  0  0  0  0
   18.7162   24.2184   -1.2015 C   0  0  0  0  0  0  0  0  0  0  0  0
   17.3933   23.9777   -1.2544 N   0  0  0  0  0  0  0  0  0  0  0  0
   19.3978   24.5895    2.4239 C   0  0  0  0  0  0  0  0  0  0  0  0
   18.9495   23.7041    3.4077 F   0  0  0  0  0  0  0  0  0  0  0  0
   19.2512   25.8831    2.8550 F   0  0  0  0  0  0  0  0  0  0  0  0
   20.7228   24.3263    2.2212 F   0  0  0  0  0  0  0  0  0  0  0  0
   14.9638   24.9558   -5.3601 C   0  0  0  0  0  0  0  0  0  0  0  0
   15.7090   25.5836   -7.9583 C   0  0  0  0  0  0  0  0  0  0  0  0
   15.7782   26.6393   -6.9367 C   0  0  0  0  0  0  0  0  0  0  0  0
   16.2069   27.9029   -7.2805 C   0  0  0  0  0  0  0  0  0  0  0  0
   16.2654   28.8815   -6.3185 C   0  0  0  0  0  0  0  0  0  0  0  0
   15.8877   28.5561   -5.0204 C   0  0  0  0  0  0  0  0  0  0  0  0
   15.4700   27.3074   -4.7088 N   0  0  0  0  0  0  0  0  0  0  0  0
   15.4004   26.3348   -5.6195 C   0  0  0  0  0  0  0  0  0  0  0  0
 41 42  1  0  0  0
 42 43  2  0  0  0
 43 44  1  0  0  0
 44 45  2  0  0  0
 45 46  1  0  0  0
 46 47  2  0  0  0
 47 40  1  0  0  0
 40  1  1  0  0  0
  1  2  1  0  0  0
  2  3  1  0  0  0
  3  4  1  0  0  0
  4  5  1  0  0  0
  5  6  1  0  0  0
  4  7  1  0  0  0
  7  8  1  0  0  0
  8  9  2  0  0  0
  8 10  1  0  0  0
 10 11  1  0  0  0
 11 12  2  0  0  0
 10 13  1  0  0  0
 13 14  2  0  0  0
 14 15  1  0  0  0
 15 16  2  0  0  0
 16 17  1  0  0  0
 17 18  2  0  0  0
 16 19  1  0  0  0
 19 20  2  0  0  0
 20 21  1  0  0  0
 21 22  2  0  0  0
 22 23  1  0  0  0
 23 24  2  0  0  0
 24 25  1  0  0  0
 22 26  1  0  0  0
 26 27  1  0  0  0
 26 28  2  0  0  0
  7 30  1  0  0  0
 30 31  2  0  0  0
 31 32  1  0  0  0
 32 33  2  0  0  0
 33 34  1  0  0  0
 34 35  2  0  0  0
 32 36  1  0  0  0
 36 37  1  0  0  0
 36 38  1  0  0  0
 36 39  1  0  0  0
 47 42  1  0  0  0
  6  1  1  0  0  0
 18 13  1  0  0  0
 24 19  1  0  0  0
 35 30  1  0  0  0
 11  4  1  0  0  0
 27 29  1  0  0  0
M  END
> <minimizedAffinity>
8.52575

> <CNNscore>
0.4752123654

> <CNNaffinity>
7.9151153564

> <CNN_VS>
3.7613606453

> <CNNaffinity_variance>
0.4588035941

$$$$
[H]OC(=O)c1c([H])c([H])c(-c2c([H])c([H])c(N3C(=O)N(c4nc([H])nc(C(F)(F)F)c4[H])C4(C3=O)C([H])([H])C([H])([H])N(C([H])([H])c3nc([H])c([H])c([H])c3C([H])([H])[H])C([H])([H])C4([H])[H])c([H])c2[H])c(C([H])([H])[H])c1[H]


 47 52  0  0  0  0  0  0  0  0999 V2000
   13.2851   26.5440   -5.1050 N   0  0  0  0  0  0  0  0  0  0  0  0
   13.6446   25.1909   -4.9310 C   0  0  0  0  0  0  0  0  0  0  0  0
   13.3849   24.6802   -3.5322 C   0  0  0  0  0  0  0  0  0  0  0  0
   13.6888   25.6117   -2.4284 C   0  0  0  0  0  0  0  0  0  0  0  0
   13.8551   27.0614   -2.7712 C   0  0  0  0  0  0  0  0  0  0  0  0
   14.0083   27.4063   -4.1880 C   0  0  0  0  0  0  0  0  0  0  0  0
   14.8352   25.1365   -1.6268 N   0  0  0  0  0  0  0  0  0  0  0  0
   14.2950   24.1793   -0.7241 C   0  0  0  0  0  0  0  0  0  0  0  0
   14.9833   23.2888   -0.1436 O   0  0  0  0  0  0  0  0  0  0  0  0
   12.9009   24.3823   -0.5947 N   0  0  0  0  0  0  0  0  0  0  0  0
   12.5837   25.4752   -1.4288 C   0  0  0  0  0  0  0  0  0  0  0  0
   11.5476   26.1929   -1.3308 O   0  0  0  0  0  0  0  0  0  0  0  0
   11.9765   23.6404    0.2297 C   0  0  0  0  0  0  0  0  0  0  0  0
   12.1697   22.3108    0.5051 C   0  0  0  0  0  0  0  0  0  0  0  0
   11.2676   21.6135    1.2623 C   0  0  0  0  0  0  0  0  0  0  0  0
   10.1431   22.2294    1.7689 C   0  0  0  0  0  0  0  0  0  0  0  0
    9.9190   23.5785    1.5099 C   0  0  0  0  0  0  0  0  0  0  0  0
   10.8505   24.2510    0.7398 C   0  0  0  0  0  0  0  0  0  0  0  0
    9.1845   21.4952    2.5810 C   0  0  0  0  0  0  0  0  0  0  0  0
    9.5927   20.9810    3.7908 C   0  0  0  0  0  0  0  0  0  0  0  0
    8.7356   20.2895    4.6245 C   0  0  0  0  0  0  0  0  0  0  0  0
    7.4190   20.0918    4.2616 C   0  0  0  0  0  0  0  0  0  0  0  0
    7.0255   20.6079    3.0551 C   0  0  0  0  0  0  0  0  0  0  0  0
    7.8756   21.3041    2.2044 C   0  0  0  0  0  0  0  0  0  0  0  0
    7.3390   21.8036    0.9060 C   0  0  0  0  0  0  0  0  0  0  0  0
    6.4998   19.3580    5.1269 C   0  0  0  0  0  0  0  0  0  0  0  0
    5.7599   18.3263    4.5566 O   0  0  0  0  0  0  0  0  0  0  0  0
    6.3879   19.6603    6.3527 O   0  0  0  0  0  0  0  0  0  0  0  0
    6.1803   17.4835    4.1799 H   0  0  0  0  0  0  0  0  0  0  0  0
   16.1928   25.5317   -1.7132 C   0  0  0  0  0  0  0  0  0  0  0  0
   16.6290   26.5383   -2.5587 C   0  0  0  0  0  0  0  0  0  0  0  0
   17.9581   26.9080   -2.6284 C   0  0  0  0  0  0  0  0  0  0  0  0
   18.8018   26.2297   -1.8239 N   0  0  0  0  0  0  0  0  0  0  0  0
   18.3963   25.2634   -1.0067 C   0  0  0  0  0  0  0  0  0  0  0  0
   17.0996   24.9092   -0.9458 N   0  0  0  0  0  0  0  0  0  0  0  0
   18.4467   27.9855   -3.5233 C   0  0  0  0  0  0  0  0  0  0  0  0
   19.5603   27.5664   -4.2561 F   0  0  0  0  0  0  0  0  0  0  0  0
   18.7547   29.1126   -2.8053 F   0  0  0  0  0  0  0  0  0  0  0  0
   17.4607   28.2761   -4.4230 F   0  0  0  0  0  0  0  0  0  0  0  0
   13.5617   27.0341   -6.4237 C   0  0  0  0  0  0  0  0  0  0  0  0
   13.7729   25.0300   -8.3313 C   0  0  0  0  0  0  0  0  0  0  0  0
   14.9965   25.7335   -7.9182 C   0  0  0  0  0  0  0  0  0  0  0  0
   16.2092   25.3904   -8.4750 C   0  0  0  0  0  0  0  0  0  0  0  0
   17.3451   26.0557   -8.0830 C   0  0  0  0  0  0  0  0  0  0  0  0
   17.2272   27.0594   -7.1279 C   0  0  0  0  0  0  0  0  0  0  0  0
   16.0240   27.3775   -6.5966 N   0  0  0  0  0  0  0  0  0  0  0  0
   14.9020   26.7517   -6.9565 C   0  0  0  0  0  0  0  0  0  0  0  0
 41 42  1  0  0  0
 42 43  2  0  0  0
 43 44  1  0  0  0
 44 45  2  0  0  0
 45 46  1  0  0  0
 46 47  2  0  0  0
 47 40  1  0  0  0
 40  1  1  0  0  0
  1  2  1  0  0  0
  2  3  1  0  0  0
  3  4  1  0  0  0
  4  5  1  0  0  0
  5  6  1  0  0  0
  4  7  1  0  0  0
  7  8  1  0  0  0
  8  9  2  0  0  0
  8 10  1  0  0  0
 10 11  1  0  0  0
 11 12  2  0  0  0
 10 13  1  0  0  0
 13 14  2  0  0  0
 14 15  1  0  0  0
 15 16  2  0  0  0
 16 17  1  0  0  0
 17 18  2  0  0  0
 16 19  1  0  0  0
 19 20  2  0  0  0
 20 21  1  0  0  0
 21 22  2  0  0  0
 22 23  1  0  0  0
 23 24  2  0  0  0
 24 25  1  0  0  0
 22 26  1  0  0  0
 26 27  1  0  0  0
 26 28  2  0  0  0
  7 30  1  0  0  0
 30 31  2  0  0  0
 31 32  1  0  0  0
 32 33  2  0  0  0
 33 34  1  0  0  0
 34 35  2  0  0  0
 32 36  1  0  0  0
 36 37  1  0  0  0
 36 38  1  0  0  0
 36 39  1  0  0  0
 47 42  1  0  0  0
  6  1  1  0  0  0
 18 13  1  0  0  0
 24 19  1  0  0  0
 35 30  1  0  0  0
 11  4  1  0  0  0
 27 29  1  0  0  0
M  END
> <minimizedAffinity>
19.19325

> <CNNscore>
0.4460156858

> <CNNaffinity>
7.9624342918

> <CNN_VS>
3.5513706207

> <CNNaffinity_variance>
1.3680408001

$$$$
[H]OC(=O)c1c([H])c([H])c(-c2c([H])c([H])c(N3C(=O)N(c4nc([H])nc(C(F)(F)F)c4[H])C4(C3=O)C([H])([H])C([H])([H])N(C([H])([H])c3nc([H])c([H])c([H])c3C([H])([H])[H])C([H])([H])C4([H])[H])c([H])c2[H])c(C([H])([H])[H])c1[H]


 47 52  0  0  0  0  0  0  0  0999 V2000
   13.1684   26.7139   -4.3397 N   0  0  0  0  0  0  0  0  0  0  0  0
   13.4804   25.3670   -4.6208 C   0  0  0  0  0  0  0  0  0  0  0  0
   12.9501   24.4033   -3.5839 C   0  0  0  0  0  0  0  0  0  0  0  0
   13.0372   24.8421   -2.1774 C   0  0  0  0  0  0  0  0  0  0  0  0
   13.2742   26.2996   -1.9197 C   0  0  0  0  0  0  0  0  0  0  0  0
   13.7028   27.1241   -3.0539 C   0  0  0  0  0  0  0  0  0  0  0  0
   14.0027   24.0205   -1.4188 N   0  0  0  0  0  0  0  0  0  0  0  0
   13.2920   22.8449   -1.0504 C   0  0  0  0  0  0  0  0  0  0  0  0
   13.8494   21.7538   -0.7300 O   0  0  0  0  0  0  0  0  0  0  0  0
   11.9005   23.0937   -1.1070 N   0  0  0  0  0  0  0  0  0  0  0  0
   11.7575   24.4364   -1.5164 C   0  0  0  0  0  0  0  0  0  0  0  0
   10.7257   25.1466   -1.3457 O   0  0  0  0  0  0  0  0  0  0  0  0
   10.8294   22.1761   -0.7987 C   0  0  0  0  0  0  0  0  0  0  0  0
   10.7074   21.6082    0.4438 C   0  0  0  0  0  0  0  0  0  0  0  0
    9.7046   20.7158    0.7113 C   0  0  0  0  0  0  0  0  0  0  0  0
    8.7910   20.3660   -0.2599 C   0  0  0  0  0  0  0  0  0  0  0  0
    8.8854   20.9264   -1.5305 C   0  0  0  0  0  0  0  0  0  0  0  0
    9.9121   21.8229   -1.7655 C   0  0  0  0  0  0  0  0  0  0  0  0
    7.7182   19.4237    0.0207 C   0  0  0  0  0  0  0  0  0  0  0  0
    7.7587   18.1766   -0.5603 C   0  0  0  0  0  0  0  0  0  0  0  0
    6.7871   17.2230   -0.3268 C   0  0  0  0  0  0  0  0  0  0  0  0
    5.7278   17.4986    0.5134 C   0  0  0  0  0  0  0  0  0  0  0  0
    5.6987   18.7434    1.0847 C   0  0  0  0  0  0  0  0  0  0  0  0
    6.6671   19.7141    0.8587 C   0  0  0  0  0  0  0  0  0  0  0  0
    6.5199   21.0415    1.5219 C   0  0  0  0  0  0  0  0  0  0  0  0
    4.6879   16.5054    0.7674 C   0  0  0  0  0  0  0  0  0  0  0  0
    4.1237   15.8648   -0.3319 O   0  0  0  0  0  0  0  0  0  0  0  0
    4.3198   16.2455    1.9521 O   0  0  0  0  0  0  0  0  0  0  0  0
    4.6482   15.2528   -0.9478 H   0  0  0  0  0  0  0  0  0  0  0  0
   15.3529   24.3140   -1.1067 C   0  0  0  0  0  0  0  0  0  0  0  0
   15.9920   23.8061    0.0123 C   0  0  0  0  0  0  0  0  0  0  0  0
   17.3097   24.1054    0.2989 C   0  0  0  0  0  0  0  0  0  0  0  0
   17.9331   24.9203   -0.5764 N   0  0  0  0  0  0  0  0  0  0  0  0
   17.3326   25.4129   -1.6547 C   0  0  0  0  0  0  0  0  0  0  0  0
   16.0482   25.1167   -1.9258 N   0  0  0  0  0  0  0  0  0  0  0  0
   18.0149   23.5695    1.4889 C   0  0  0  0  0  0  0  0  0  0  0  0
   17.2651   22.5677    2.1110 F   0  0  0  0  0  0  0  0  0  0  0  0
   18.2920   24.5717    2.3831 F   0  0  0  0  0  0  0  0  0  0  0  0
   19.1832   22.9965    1.0734 F   0  0  0  0  0  0  0  0  0  0  0  0
   13.6995   27.6279   -5.3083 C   0  0  0  0  0  0  0  0  0  0  0  0
   16.4066   28.1611   -5.0131 C   0  0  0  0  0  0  0  0  0  0  0  0
   15.9766   27.3381   -6.1535 C   0  0  0  0  0  0  0  0  0  0  0  0
   16.9100   26.8541   -7.0440 C   0  0  0  0  0  0  0  0  0  0  0  0
   16.4969   26.0848   -8.1043 C   0  0  0  0  0  0  0  0  0  0  0  0
   15.1383   25.8224   -8.2412 C   0  0  0  0  0  0  0  0  0  0  0  0
   14.2417   26.3095   -7.3524 N   0  0  0  0  0  0  0  0  0  0  0  0
   14.6101   27.0585   -6.3115 C   0  0  0  0  0  0  0  0  0  0  0  0
 41 42  1  0  0  0
 42 43  2  0  0  0
 43 44  1  0  0  0
 44 45  2  0  0  0
 45 46  1  0  0  0
 46 47  2  0  0  0
 47 40  1  0  0  0
 40  1  1  0  0  0
  1  2  1  0  0  0
  2  3  1  0  0  0
  3  4  1  0  0  0
  4  5  1  0  0  0
  5  6  1  0  0  0
  4  7  1  0  0  0
  7  8  1  0  0  0
  8  9  2  0  0  0
  8 10  1  0  0  0
 10 11  1  0  0  0
 11 12  2  0  0  0
 10 13  1  0  0  0
 13 14  2  0  0  0
 14 15  1  0  0  0
 15 16  2  0  0  0
 16 17  1  0  0  0
 17 18  2  0  0  0
 16 19  1  0  0  0
 19 20  2  0  0  0
 20 21  1  0  0  0
 21 22  2  0  0  0
 22 23  1  0  0  0
 23 24  2  0  0  0
 24 25  1  0  0  0
 22 26  1  0  0  0
 26 27  1  0  0  0
 26 28  2  0  0  0
  7 30  1  0  0  0
 30 31  2  0  0  0
 31 32  1  0  0  0
 32 33  2  0  0  0
 33 34  1  0  0  0
 34 35  2  0  0  0
 32 36  1  0  0  0
 36 37  1  0  0  0
 36 38  1  0  0  0
 36 39  1  0  0  0
 47 42  1  0  0  0
  6  1  1  0  0  0
 18 13  1  0  0  0
 24 19  1  0  0  0
 35 30  1  0  0  0
 11  4  1  0  0  0
 27 29  1  0  0  0
M  END
> <minimizedAffinity>
9.46732

> <CNNscore>
0.4390390813

> <CNNaffinity>
7.6754326820

> <CNN_VS>
3.3698148727

> <CNNaffinity_variance>
0.5764601827

$$$$
[H]c1nc2c([H])c([H])c([H])c(-c3c([H])c([H])c(C#N)c(F)c3[H])n2n1


 18 20  0  0  0  0  0  0  0  0999 V2000
   16.3121   23.9406   -5.6380 F   0  0  0  0  0  0  0  0  0  0  0  0
   15.4204   24.8013   -5.0868 C   0  0  0  0  0  0  0  0  0  0  0  0
   14.9030   24.4394   -3.8379 C   0  0  0  0  0  0  0  0  0  0  0  0
   13.9937   25.2429   -3.1970 C   0  0  0  0  0  0  0  0  0  0  0  0
   13.6453   26.4168   -3.8854 C   0  0  0  0  0  0  0  0  0  0  0  0
   14.1601   26.7614   -5.1102 C   0  0  0  0  0  0  0  0  0  0  0  0
   15.0632   25.9479   -5.7311 C   0  0  0  0  0  0  0  0  0  0  0  0
   13.3789   24.9614   -1.9374 C   0  0  0  0  0  0  0  0  0  0  0  0
   11.9893   25.0807   -1.8232 C   0  0  0  0  0  0  0  0  0  0  0  0
   11.3123   24.7989   -0.6364 C   0  0  0  0  0  0  0  0  0  0  0  0
   12.0372   24.3974    0.4347 C   0  0  0  0  0  0  0  0  0  0  0  0
   13.3850   24.2756    0.3449 C   0  0  0  0  0  0  0  0  0  0  0  0
   14.3123   23.8924    1.2586 N   0  0  0  0  0  0  0  0  0  0  0  0
   15.5163   23.9342    0.6617 C   0  0  0  0  0  0  0  0  0  0  0  0
   15.2630   24.3408   -0.5858 N   0  0  0  0  0  0  0  0  0  0  0  0
   14.0014   24.5576   -0.8214 N   0  0  0  0  0  0  0  0  0  0  0  0
   15.6422   26.2404   -7.0068 C   0  0  0  0  0  0  0  0  0  0  0  0
   16.1134   26.4708   -8.0353 N   0  0  0  0  0  0  0  0  0  0  0  0
  1  2  1  0  0  0
  2  3  2  0  0  0
  3  4  1  0  0  0
  4  5  2  0  0  0
  5  6  1  0  0  0
  6  7  2  0  0  0
  7 17  1  0  0  0
 17 18  3  0  0  0
  4  8  1  0  0  0
  8  9  2  0  0  0
  9 10  1  0  0  0
 10 11  2  0  0  0
 11 12  1  0  0  0
 12 13  2  0  0  0
 13 14  1  0  0  0
 14 15  2  0  0  0
 15 16  1  0  0  0
  7  2  1  0  0  0
 16  8  1  0  0  0
 16 12  1  0  0  0
M  END
> <minimizedAffinity>
-8.12795

> <CNNscore>
0.7644466758

> <CNNaffinity>
6.5419869423

> <CNN_VS>
5.0010004044

> <CNNaffinity_variance>
0.1551420987

$$$$
[H]c1nc2c([H])c([H])c([H])c(-c3c([H])c([H])c(C#N)c(F)c3[H])n2n1


 18 20  0  0  0  0  0  0  0  0999 V2000
   13.1041   27.3895   -4.5424 F   0  0  0  0  0  0  0  0  0  0  0  0
   13.6079   26.2536   -3.9988 C   0  0  0  0  0  0  0  0  0  0  0  0
   12.9750   25.7892   -2.8402 C   0  0  0  0  0  0  0  0  0  0  0  0
   13.4098   24.6483   -2.2139 C   0  0  0  0  0  0  0  0  0  0  0  0
   14.5067   24.0151   -2.8217 C   0  0  0  0  0  0  0  0  0  0  0  0
   15.1190   24.4799   -3.9587 C   0  0  0  0  0  0  0  0  0  0  0  0
   14.6712   25.6171   -4.5662 C   0  0  0  0  0  0  0  0  0  0  0  0
   12.8609   24.0986   -1.0139 C   0  0  0  0  0  0  0  0  0  0  0  0
   11.7195   24.6903   -0.4611 C   0  0  0  0  0  0  0  0  0  0  0  0
   11.1093   24.1975    0.6926 C   0  0  0  0  0  0  0  0  0  0  0  0
   11.6506   23.1085    1.2883 C   0  0  0  0  0  0  0  0  0  0  0  0
   12.7568   22.5203    0.7687 C   0  0  0  0  0  0  0  0  0  0  0  0
   13.4680   21.4371    1.1716 N   0  0  0  0  0  0  0  0  0  0  0  0
   14.4787   21.2647    0.3018 C   0  0  0  0  0  0  0  0  0  0  0  0
   14.3332   22.2513   -0.5877 N   0  0  0  0  0  0  0  0  0  0  0  0
   13.3164   23.0280   -0.3488 N   0  0  0  0  0  0  0  0  0  0  0  0
   15.2582   26.1618   -5.7523 C   0  0  0  0  0  0  0  0  0  0  0  0
   15.7258   26.6045   -6.7106 N   0  0  0  0  0  0  0  0  0  0  0  0
  1  2  1  0  0  0
  2  3  2  0  0  0
  3  4  1  0  0  0
  4  5  2  0  0  0
  5  6  1  0  0  0
  6  7  2  0  0  0
  7 17  1  0  0  0
 17 18  3  0  0  0
  4  8  1  0  0  0
  8  9  2  0  0  0
  9 10  1  0  0  0
 10 11  2  0  0  0
 11 12  1  0  0  0
 12 13  2  0  0  0
 13 14  1  0  0  0
 14 15  2  0  0  0
 15 16  1  0  0  0
  7  2  1  0  0  0
 16  8  1  0  0  0
 16 12  1  0  0  0
M  END
> <minimizedAffinity>
-8.71100

> <CNNscore>
0.6604638696

> <CNNaffinity>
6.4607496262

> <CNN_VS>
4.2670917511

> <CNNaffinity_variance>
0.2678950131

$$$$
[H]c1nc2c([H])c([H])c([H])c(-c3c([H])c([H])c(C#N)c(F)c3[H])n2n1


 18 20  0  0  0  0  0  0  0  0999 V2000
   13.0755   27.1667   -3.7936 F   0  0  0  0  0  0  0  0  0  0  0  0
   13.7646   26.0042   -3.6777 C   0  0  0  0  0  0  0  0  0  0  0  0
   13.3706   25.1531   -2.6389 C   0  0  0  0  0  0  0  0  0  0  0  0
   14.0055   23.9534   -2.4374 C   0  0  0  0  0  0  0  0  0  0  0  0
   15.0469   23.6710   -3.3370 C   0  0  0  0  0  0  0  0  0  0  0  0
   15.4241   24.5137   -4.3526 C   0  0  0  0  0  0  0  0  0  0  0  0
   14.7797   25.7029   -4.5357 C   0  0  0  0  0  0  0  0  0  0  0  0
   13.7086   23.0211   -1.3952 C   0  0  0  0  0  0  0  0  0  0  0  0
   14.3905   21.7993   -1.3684 C   0  0  0  0  0  0  0  0  0  0  0  0
   14.1763   20.8483   -0.3704 C   0  0  0  0  0  0  0  0  0  0  0  0
   13.2743   21.1297    0.5996 C   0  0  0  0  0  0  0  0  0  0  0  0
   12.6026   22.3081    0.5917 C   0  0  0  0  0  0  0  0  0  0  0  0
   11.6725   22.8143    1.4403 N   0  0  0  0  0  0  0  0  0  0  0  0
   11.3245   24.0313    0.9870 C   0  0  0  0  0  0  0  0  0  0  0  0
   12.0596   24.2061   -0.1153 N   0  0  0  0  0  0  0  0  0  0  0  0
   12.8392   23.2010   -0.3913 N   0  0  0  0  0  0  0  0  0  0  0  0
   15.1167   26.6317   -5.5710 C   0  0  0  0  0  0  0  0  0  0  0  0
   15.3893   27.3861   -6.4014 N   0  0  0  0  0  0  0  0  0  0  0  0
  1  2  1  0  0  0
  2  3  2  0  0  0
  3  4  1  0  0  0
  4  5  2  0  0  0
  5  6  1  0  0  0
  6  7  2  0  0  0
  7 17  1  0  0  0
 17 18  3  0  0  0
  4  8  1  0  0  0
  8  9  2  0  0  0
  9 10  1  0  0  0
 10 11  2  0  0  0
 11 12  1  0  0  0
 12 13  2  0  0  0
 13 14  1  0  0  0
 14 15  2  0  0  0
 15 16  1  0  0  0
  7  2  1  0  0  0
 16  8  1  0  0  0
 16 12  1  0  0  0
M  END
> <minimizedAffinity>
-8.60678

> <CNNscore>
0.6400677562

> <CNNaffinity>
6.4248418808

> <CNN_VS>
4.1123342514

> <CNNaffinity_variance>
0.2369805574

$$$$
[H]c1nc2c([H])c([H])c([H])c(-c3c([H])c([H])c(C#N)c(F)c3[H])n2n1


 18 20  0  0  0  0  0  0  0  0999 V2000
   13.1409   27.2579   -3.4230 F   0  0  0  0  0  0  0  0  0  0  0  0
   13.5995   25.9959   -3.2310 C   0  0  0  0  0  0  0  0  0  0  0  0
   12.9472   25.2442   -2.2472 C   0  0  0  0  0  0  0  0  0  0  0  0
   13.3365   23.9564   -1.9767 C   0  0  0  0  0  0  0  0  0  0  0  0
   14.4090   23.4824   -2.7503 C   0  0  0  0  0  0  0  0  0  0  0  0
   15.0408   24.2292   -3.7131 C   0  0  0  0  0  0  0  0  0  0  0  0
   14.6383   25.5085   -3.9664 C   0  0  0  0  0  0  0  0  0  0  0  0
   12.7646   23.1079   -0.9784 C   0  0  0  0  0  0  0  0  0  0  0  0
   11.3741   23.0929   -0.8214 C   0  0  0  0  0  0  0  0  0  0  0  0
   10.7386   22.2737    0.1121 C   0  0  0  0  0  0  0  0  0  0  0  0
   11.5056   21.4705    0.8868 C   0  0  0  0  0  0  0  0  0  0  0  0
   12.8551   21.4702    0.7505 C   0  0  0  0  0  0  0  0  0  0  0  0
   13.8198   20.7643    1.3928 N   0  0  0  0  0  0  0  0  0  0  0  0
   15.0064   21.1307    0.8776 C   0  0  0  0  0  0  0  0  0  0  0  0
   14.7058   22.0416   -0.0529 N   0  0  0  0  0  0  0  0  0  0  0  0
   13.4306   22.2773   -0.1644 N   0  0  0  0  0  0  0  0  0  0  0  0
   15.2480   26.3467   -4.9533 C   0  0  0  0  0  0  0  0  0  0  0  0
   15.7419   27.0172   -5.7529 N   0  0  0  0  0  0  0  0  0  0  0  0
  1  2  1  0  0  0
  2  3  2  0  0  0
  3  4  1  0  0  0
  4  5  2  0  0  0
  5  6  1  0  0  0
  6  7  2  0  0  0
  7 17  1  0  0  0
 17 18  3  0  0  0
  4  8  1  0  0  0
  8  9  2  0  0  0
  9 10  1  0  0  0
 10 11  2  0  0  0
 11 12  1  0  0  0
 12 13  2  0  0  0
 13 14  1  0  0  0
 14 15  2  0  0  0
 15 16  1  0  0  0
  7  2  1  0  0  0
 16  8  1  0  0  0
 16 12  1  0  0  0
M  END
> <minimizedAffinity>
-7.65708

> <CNNscore>
0.5847354531

> <CNNaffinity>
6.4435219765

> <CNN_VS>
3.7677557468

> <CNNaffinity_variance>
0.3035666049

$$$$
[H]c1nc2c([H])c([H])c([H])c(-c3c([H])c([H])c(C#N)c(F)c3[H])n2n1


 18 20  0  0  0  0  0  0  0  0999 V2000
   17.2573   26.4923   -2.8972 F   0  0  0  0  0  0  0  0  0  0  0  0
   15.9845   26.0386   -3.0153 C   0  0  0  0  0  0  0  0  0  0  0  0
   15.6097   25.0140   -2.1389 C   0  0  0  0  0  0  0  0  0  0  0  0
   14.3437   24.4862   -2.1788 C   0  0  0  0  0  0  0  0  0  0  0  0
   13.4926   25.0496   -3.1441 C   0  0  0  0  0  0  0  0  0  0  0  0
   13.8715   26.0550   -3.9982 C   0  0  0  0  0  0  0  0  0  0  0  0
   15.1359   26.5659   -3.9423 C   0  0  0  0  0  0  0  0  0  0  0  0
   13.8607   23.4222   -1.3553 C   0  0  0  0  0  0  0  0  0  0  0  0
   14.4158   22.1465   -1.5067 C   0  0  0  0  0  0  0  0  0  0  0  0
   14.0170   21.0628   -0.7238 C   0  0  0  0  0  0  0  0  0  0  0  0
   13.0587   21.2661    0.2110 C   0  0  0  0  0  0  0  0  0  0  0  0
   12.5078   22.4948    0.3736 C   0  0  0  0  0  0  0  0  0  0  0  0
   11.5548   22.9428    1.2296 N   0  0  0  0  0  0  0  0  0  0  0  0
   11.3705   24.2524    0.9876 C   0  0  0  0  0  0  0  0  0  0  0  0
   12.2201   24.5374   -0.0038 N   0  0  0  0  0  0  0  0  0  0  0  0
   12.9216   23.5165   -0.4039 N   0  0  0  0  0  0  0  0  0  0  0  0
   15.6025   27.6130   -4.7992 C   0  0  0  0  0  0  0  0  0  0  0  0
   15.9819   28.4528   -5.4946 N   0  0  0  0  0  0  0  0  0  0  0  0
  1  2  1  0  0  0
  2  3  2  0  0  0
  3  4  1  0  0  0
  4  5  2  0  0  0
  5  6  1  0  0  0
  6  7  2  0  0  0
  7 17  1  0  0  0
 17 18  3  0  0  0
  4  8  1  0  0  0
  8  9  2  0  0  0
  9 10  1  0  0  0
 10 11  2  0  0  0
 11 12  1  0  0  0
 12 13  2  0  0  0
 13 14  1  0  0  0
 14 15  2  0  0  0
 15 16  1  0  0  0
  7  2  1  0  0  0
 16  8  1  0  0  0
 16 12  1  0  0  0
M  END
> <minimizedAffinity>
-7.88786

> <CNNscore>
0.5692391992

> <CNNaffinity>
6.2621989250

> <CNN_VS>
3.5646891594

> <CNNaffinity_variance>
0.0983012989

$$$$
[H]c1nc2c([H])c([H])c([H])c(-c3c([H])c([H])c(C#N)c(F)c3[H])n2n1


 18 20  0  0  0  0  0  0  0  0999 V2000
   16.3844   24.5099    0.4277 F   0  0  0  0  0  0  0  0  0  0  0  0
   15.7168   24.4428   -0.7512 C   0  0  0  0  0  0  0  0  0  0  0  0
   16.0753   25.3878   -1.7191 C   0  0  0  0  0  0  0  0  0  0  0  0
   15.4583   25.4037   -2.9447 C   0  0  0  0  0  0  0  0  0  0  0  0
   14.4720   24.4205   -3.1289 C   0  0  0  0  0  0  0  0  0  0  0  0
   14.1292   23.4984   -2.1719 C   0  0  0  0  0  0  0  0  0  0  0  0
   14.7550   23.4998   -0.9590 C   0  0  0  0  0  0  0  0  0  0  0  0
   15.7215   26.3368   -3.9953 C   0  0  0  0  0  0  0  0  0  0  0  0
   16.0976   27.6423   -3.6598 C   0  0  0  0  0  0  0  0  0  0  0  0
   16.3962   28.6032   -4.6262 C   0  0  0  0  0  0  0  0  0  0  0  0
   16.3149   28.2471   -5.9302 C   0  0  0  0  0  0  0  0  0  0  0  0
   15.9520   26.9870   -6.2764 C   0  0  0  0  0  0  0  0  0  0  0  0
   15.8076   26.3985   -7.4907 N   0  0  0  0  0  0  0  0  0  0  0  0
   15.4350   25.1230   -7.2853 C   0  0  0  0  0  0  0  0  0  0  0  0
   15.3708   24.9978   -5.9564 N   0  0  0  0  0  0  0  0  0  0  0  0
   15.6717   26.0874   -5.3111 N   0  0  0  0  0  0  0  0  0  0  0  0
   14.4515   22.5710    0.0867 C   0  0  0  0  0  0  0  0  0  0  0  0
   14.2009   21.8256    0.9319 N   0  0  0  0  0  0  0  0  0  0  0  0
  1  2  1  0  0  0
  2  3  2  0  0  0
  3  4  1  0  0  0
  4  5  2  0  0  0
  5  6  1  0  0  0
  6  7  2  0  0  0
  7 17  1  0  0  0
 17 18  3  0  0  0
  4  8  1  0  0  0
  8  9  2  0  0  0
  9 10  1  0  0  0
 10 11  2  0  0  0
 11 12  1  0  0  0
 12 13  2  0  0  0
 13 14  1  0  0  0
 14 15  2  0  0  0
 15 16  1  0  0  0
  7  2  1  0  0  0
 16  8  1  0  0  0
 16 12  1  0  0  0
M  END
> <minimizedAffinity>
-6.03447

> <CNNscore>
0.5325698256

> <CNNaffinity>
6.2729315758

> <CNN_VS>
3.3407740593

> <CNNaffinity_variance>
0.2131636441

$$$$
[H]c1nc2c([H])c([H])c([H])c(-c3c([H])c([H])c(C#N)c(F)c3[H])n2n1


 18 20  0  0  0  0  0  0  0  0999 V2000
   10.7261   26.1891   -3.6911 F   0  0  0  0  0  0  0  0  0  0  0  0
   11.9725   26.0429   -3.1763 C   0  0  0  0  0  0  0  0  0  0  0  0
   13.0010   26.7140   -3.8473 C   0  0  0  0  0  0  0  0  0  0  0  0
   14.2974   26.6292   -3.4056 C   0  0  0  0  0  0  0  0  0  0  0  0
   14.4873   25.8367   -2.2613 C   0  0  0  0  0  0  0  0  0  0  0  0
   13.4702   25.1834   -1.6113 C   0  0  0  0  0  0  0  0  0  0  0  0
   12.1874   25.2806   -2.0672 C   0  0  0  0  0  0  0  0  0  0  0  0
   15.4284   27.2457   -4.0256 C   0  0  0  0  0  0  0  0  0  0  0  0
   15.2377   27.9735   -5.2057 C   0  0  0  0  0  0  0  0  0  0  0  0
   16.2854   28.6254   -5.8565 C   0  0  0  0  0  0  0  0  0  0  0  0
   17.5247   28.5429   -5.3171 C   0  0  0  0  0  0  0  0  0  0  0  0
   17.7309   27.8424   -4.1741 C   0  0  0  0  0  0  0  0  0  0  0  0
   18.8570   27.6222   -3.4496 N   0  0  0  0  0  0  0  0  0  0  0  0
   18.5207   26.8643   -2.3912 C   0  0  0  0  0  0  0  0  0  0  0  0
   17.2066   26.6604   -2.5233 N   0  0  0  0  0  0  0  0  0  0  0  0
   16.6906   27.2265   -3.5757 N   0  0  0  0  0  0  0  0  0  0  0  0
   11.0766   24.6287   -1.4430 C   0  0  0  0  0  0  0  0  0  0  0  0
   10.1826   24.1056   -0.9332 N   0  0  0  0  0  0  0  0  0  0  0  0
  1  2  1  0  0  0
  2  3  2  0  0  0
  3  4  1  0  0  0
  4  5  2  0  0  0
  5  6  1  0  0  0
  6  7  2  0  0  0
  7 17  1  0  0  0
 17 18  3  0  0  0
  4  8  1  0  0  0
  8  9  2  0  0  0
  9 10  1  0  0  0
 10 11  2  0  0  0
 11 12  1  0  0  0
 12 13  2  0  0  0
 13 14  1  0  0  0
 14 15  2  0  0  0
 15 16  1  0  0  0
  7  2  1  0  0  0
 16  8  1  0  0  0
 16 12  1  0  0  0
M  END
> <minimizedAffinity>
6.04636

> <CNNscore>
0.5102251768

> <CNNaffinity>
5.5820188522

> <CNN_VS>
2.8480865955

> <CNNaffinity_variance>
0.5531944633

$$$$
[H]c1nc2c([H])c([H])c([H])c(-c3c([H])c([H])c(C#N)c(F)c3[H])n2n1


 18 20  0  0  0  0  0  0  0  0999 V2000
   13.5470   21.6803   -2.6090 F   0  0  0  0  0  0  0  0  0  0  0  0
   14.1337   22.7014   -1.9360 C   0  0  0  0  0  0  0  0  0  0  0  0
   14.6485   23.7418   -2.7177 C   0  0  0  0  0  0  0  0  0  0  0  0
   15.2618   24.8205   -2.1318 C   0  0  0  0  0  0  0  0  0  0  0  0
   15.3214   24.7837   -0.7288 C   0  0  0  0  0  0  0  0  0  0  0  0
   14.8123   23.7576    0.0274 C   0  0  0  0  0  0  0  0  0  0  0  0
   14.2062   22.6934   -0.5751 C   0  0  0  0  0  0  0  0  0  0  0  0
   15.8477   25.9227   -2.8287 C   0  0  0  0  0  0  0  0  0  0  0  0
   16.8376   26.6766   -2.1882 C   0  0  0  0  0  0  0  0  0  0  0  0
   17.4754   27.7504   -2.8100 C   0  0  0  0  0  0  0  0  0  0  0  0
   17.1143   28.0634   -4.0771 C   0  0  0  0  0  0  0  0  0  0  0  0
   16.1570   27.3453   -4.7155 C   0  0  0  0  0  0  0  0  0  0  0  0
   15.6365   27.4575   -5.9637 N   0  0  0  0  0  0  0  0  0  0  0  0
   14.7132   26.4913   -6.1103 C   0  0  0  0  0  0  0  0  0  0  0  0
   14.7169   25.8384   -4.9443 N   0  0  0  0  0  0  0  0  0  0  0  0
   15.5647   26.3141   -4.0788 N   0  0  0  0  0  0  0  0  0  0  0  0
   13.6528   21.5881    0.1464 C   0  0  0  0  0  0  0  0  0  0  0  0
   13.2019   20.6954    0.7230 N   0  0  0  0  0  0  0  0  0  0  0  0
  1  2  1  0  0  0
  2  3  2  0  0  0
  3  4  1  0  0  0
  4  5  2  0  0  0
  5  6  1  0  0  0
  6  7  2  0  0  0
  7 17  1  0  0  0
 17 18  3  0  0  0
  4  8  1  0  0  0
  8  9  2  0  0  0
  9 10  1  0  0  0
 10 11  2  0  0  0
 11 12  1  0  0  0
 12 13  2  0  0  0
 13 14  1  0  0  0
 14 15  2  0  0  0
 15 16  1  0  0  0
  7  2  1  0  0  0
 16  8  1  0  0  0
 16 12  1  0  0  0
M  END
> <minimizedAffinity>
-6.99676

> <CNNscore>
0.4461061656

> <CNNaffinity>
6.1989235878

> <CNN_VS>
2.7653779984

> <CNNaffinity_variance>
0.3135359883

$$$$
[H]c1nc2c([H])c([H])c([H])c(-c3c([H])c([H])c(C#N)c(F)c3[H])n2n1


 18 20  0  0  0  0  0  0  0  0999 V2000
   16.0568   24.1573   -4.9562 F   0  0  0  0  0  0  0  0  0  0  0  0
   15.1066   24.4056   -4.0207 C   0  0  0  0  0  0  0  0  0  0  0  0
   14.8768   23.3879   -3.0879 C   0  0  0  0  0  0  0  0  0  0  0  0
   13.9354   23.5415   -2.1014 C   0  0  0  0  0  0  0  0  0  0  0  0
   13.2514   24.7685   -2.1153 C   0  0  0  0  0  0  0  0  0  0  0  0
   13.4859   25.7596   -3.0354 C   0  0  0  0  0  0  0  0  0  0  0  0
   14.4266   25.5866   -4.0090 C   0  0  0  0  0  0  0  0  0  0  0  0
   13.5968   22.5624   -1.1164 C   0  0  0  0  0  0  0  0  0  0  0  0
   14.5631   22.1897   -0.1753 C   0  0  0  0  0  0  0  0  0  0  0  0
   14.3024   21.2610    0.8325 C   0  0  0  0  0  0  0  0  0  0  0  0
   13.0674   20.7085    0.8906 C   0  0  0  0  0  0  0  0  0  0  0  0
   12.1166   21.0561   -0.0121 C   0  0  0  0  0  0  0  0  0  0  0  0
   10.8283   20.6544   -0.1552 N   0  0  0  0  0  0  0  0  0  0  0  0
   10.3106   21.3086   -1.2096 C   0  0  0  0  0  0  0  0  0  0  0  0
   11.3090   22.0763   -1.6565 N   0  0  0  0  0  0  0  0  0  0  0  0
   12.4093   21.9583   -0.9712 N   0  0  0  0  0  0  0  0  0  0  0  0
   14.7258   26.5735   -5.0014 C   0  0  0  0  0  0  0  0  0  0  0  0
   14.9673   27.3646   -5.8069 N   0  0  0  0  0  0  0  0  0  0  0  0
  1  2  1  0  0  0
  2  3  2  0  0  0
  3  4  1  0  0  0
  4  5  2  0  0  0
  5  6  1  0  0  0
  6  7  2  0  0  0
  7 17  1  0  0  0
 17 18  3  0  0  0
  4  8  1  0  0  0
  8  9  2  0  0  0
  9 10  1  0  0  0
 10 11  2  0  0  0
 11 12  1  0  0  0
 12 13  2  0  0  0
 13 14  1  0  0  0
 14 15  2  0  0  0
 15 16  1  0  0  0
  7  2  1  0  0  0
 16  8  1  0  0  0
 16 12  1  0  0  0
M  END
> <minimizedAffinity>
-8.11889

> <CNNscore>
0.4287808239

> <CNNaffinity>
6.1117649078

> <CNN_VS>
2.6206076145

> <CNNaffinity_variance>
0.0831524581

$$$$
[H]c1nc(C([H])([H])N2C([H])([H])C([H])([H])C3(C(=O)N(c4c([H])c([H])c(-c5c([H])c([H])c(N6C([H])([H])C([H])([H])OC([H])([H])C6([H])[H])c([H])c5[H])c([H])c4[H])C(=O)N3c3nc([H])n([H])c(=O)c3[H])C([H])([H])C2([H])[H])c(C([H])([H])[H])c([H])c1[H]


 46 52  0  0  0  0  0  0  0  0999 V2000
   12.4699   27.5168   -4.6856 N   0  0  0  0  0  0  0  0  0  0  0  0
   13.0688   26.2107   -4.7895 C   0  0  0  0  0  0  0  0  0  0  0  0
   12.8920   25.4534   -3.5212 C   0  0  0  0  0  0  0  0  0  0  0  0
   13.5296   26.1560   -2.3777 C   0  0  0  0  0  0  0  0  0  0  0  0
   13.8557   27.6004   -2.6670 C   0  0  0  0  0  0  0  0  0  0  0  0
   12.7254   28.2113   -3.4797 C   0  0  0  0  0  0  0  0  0  0  0  0
   14.6755   25.4264   -1.8949 N   0  0  0  0  0  0  0  0  0  0  0  0
   14.1059   24.3428   -1.1372 C   0  0  0  0  0  0  0  0  0  0  0  0
   14.6872   23.2388   -0.9237 O   0  0  0  0  0  0  0  0  0  0  0  0
   12.7937   24.7358   -0.6838 N   0  0  0  0  0  0  0  0  0  0  0  0
   12.6086   26.0502   -1.1883 C   0  0  0  0  0  0  0  0  0  0  0  0
   11.8404   26.9205   -0.7300 O   0  0  0  0  0  0  0  0  0  0  0  0
   16.0680   25.6138   -2.0263 C   0  0  0  0  0  0  0  0  0  0  0  0
   16.5887   26.6334   -2.7832 C   0  0  0  0  0  0  0  0  0  0  0  0
   17.9500   26.8035   -2.9008 C   0  0  0  0  0  0  0  0  0  0  0  0
   18.4243   27.7302   -3.5883 O   0  0  0  0  0  0  0  0  0  0  0  0
   18.7730   25.9661   -2.2694 N   0  0  0  0  0  0  0  0  0  0  0  0
   18.2996   24.9579   -1.5198 C   0  0  0  0  0  0  0  0  0  0  0  0
   16.9698   24.7956   -1.4088 N   0  0  0  0  0  0  0  0  0  0  0  0
   19.8214   26.0730   -2.3452 H   0  0  0  0  0  0  0  0  0  0  0  0
   11.9246   23.9525    0.1105 C   0  0  0  0  0  0  0  0  0  0  0  0
   10.6246   24.3248    0.2953 C   0  0  0  0  0  0  0  0  0  0  0  0
    9.7518   23.5392    1.0672 C   0  0  0  0  0  0  0  0  0  0  0  0
   10.2193   22.3746    1.6454 C   0  0  0  0  0  0  0  0  0  0  0  0
   11.5361   22.0110    1.4507 C   0  0  0  0  0  0  0  0  0  0  0  0
   12.3932   22.7982    0.6836 C   0  0  0  0  0  0  0  0  0  0  0  0
    9.2977   21.5674    2.4276 C   0  0  0  0  0  0  0  0  0  0  0  0
    9.6187   20.9486    3.6137 C   0  0  0  0  0  0  0  0  0  0  0  0
    8.7098   20.1896    4.3477 C   0  0  0  0  0  0  0  0  0  0  0  0
    7.4231   20.0369    3.8848 C   0  0  0  0  0  0  0  0  0  0  0  0
    7.0882   20.6555    2.6896 C   0  0  0  0  0  0  0  0  0  0  0  0
    7.9920   21.3994    1.9776 C   0  0  0  0  0  0  0  0  0  0  0  0
    6.4858   19.2746    4.6181 N   0  0  0  0  0  0  0  0  0  0  0  0
    5.2528   18.7714    4.0364 C   0  0  0  0  0  0  0  0  0  0  0  0
    4.1253   18.9539    5.0399 C   0  0  0  0  0  0  0  0  0  0  0  0
    4.4135   18.4394    6.2792 O   0  0  0  0  0  0  0  0  0  0  0  0
    5.6822   17.8703    6.3563 C   0  0  0  0  0  0  0  0  0  0  0  0
    6.7153   18.9505    6.0098 C   0  0  0  0  0  0  0  0  0  0  0  0
   11.0885   27.4422   -5.0703 C   0  0  0  0  0  0  0  0  0  0  0  0
    8.4074   27.5499   -5.9528 C   0  0  0  0  0  0  0  0  0  0  0  0
    8.9860   28.7637   -5.3178 C   0  0  0  0  0  0  0  0  0  0  0  0
    8.2428   29.9113   -5.1645 C   0  0  0  0  0  0  0  0  0  0  0  0
    8.7908   31.0277   -4.5827 C   0  0  0  0  0  0  0  0  0  0  0  0
   10.0945   30.9421   -4.1687 C   0  0  0  0  0  0  0  0  0  0  0  0
   10.8070   29.7946   -4.3318 N   0  0  0  0  0  0  0  0  0  0  0  0
   10.3186   28.6859   -4.8916 C   0  0  0  0  0  0  0  0  0  0  0  0
 40 41  1  0  0  0
 41 42  2  0  0  0
 42 43  1  0  0  0
 43 44  2  0  0  0
 44 45  1  0  0  0
 45 46  2  0  0  0
 46 39  1  0  0  0
 39  1  1  0  0  0
  1  2  1  0  0  0
  2  3  1  0  0  0
  3  4  1  0  0  0
  4  5  1  0  0  0
  5  6  1  0  0  0
  4  7  1  0  0  0
  7  8  1  0  0  0
  8  9  2  0  0  0
  8 10  1  0  0  0
 10 11  1  0  0  0
 11 12  2  0  0  0
 10 21  1  0  0  0
 21 22  2  0  0  0
 22 23  1  0  0  0
 23 24  2  0  0  0
 24 25  1  0  0  0
 25 26  2  0  0  0
 24 27  1  0  0  0
 27 28  2  0  0  0
 28 29  1  0  0  0
 29 30  2  0  0  0
 30 31  1  0  0  0
 31 32  2  0  0  0
 30 33  1  0  0  0
 33 34  1  0  0  0
 34 35  1  0  0  0
 35 36  1  0  0  0
 36 37  1  0  0  0
 37 38  1  0  0  0
  7 13  1  0  0  0
 13 14  2  0  0  0
 14 15  1  0  0  0
 15 16  2  0  0  0
 15 17  1  0  0  0
 17 18  1  0  0  0
 18 19  2  0  0  0
 46 41  1  0  0  0
  6  1  1  0  0  0
 26 21  1  0  0  0
 32 27  1  0  0  0
 38 33  1  0  0  0
 19 13  1  0  0  0
 11  4  1  0  0  0
 17 20  1  0  0  0
M  END
> <minimizedAffinity>
25.72026

> <CNNscore>
0.5229521394

> <CNNaffinity>
7.5372490883

> <CNN_VS>
3.9416205883

> <CNNaffinity_variance>
1.1639751196

$$$$
[H]c1nc(C([H])([H])N2C([H])([H])C([H])([H])C3(C(=O)N(c4c([H])c([H])c(-c5c([H])c([H])c(N6C([H])([H])C([H])([H])OC([H])([H])C6([H])[H])c([H])c5[H])c([H])c4[H])C(=O)N3c3nc([H])n([H])c(=O)c3[H])C([H])([H])C2([H])[H])c(C([H])([H])[H])c([H])c1[H]


 46 52  0  0  0  0  0  0  0  0999 V2000
   16.0226   26.9121   -3.4314 N   0  0  0  0  0  0  0  0  0  0  0  0
   16.5150   25.5590   -3.4768 C   0  0  0  0  0  0  0  0  0  0  0  0
   15.6779   24.6705   -2.6263 C   0  0  0  0  0  0  0  0  0  0  0  0
   15.6894   25.1110   -1.2074 C   0  0  0  0  0  0  0  0  0  0  0  0
   16.2002   26.5183   -1.0198 C   0  0  0  0  0  0  0  0  0  0  0  0
   15.6732   27.3918   -2.1470 C   0  0  0  0  0  0  0  0  0  0  0  0
   16.3896   24.1636   -0.3763 N   0  0  0  0  0  0  0  0  0  0  0  0
   15.4535   23.0818   -0.2147 C   0  0  0  0  0  0  0  0  0  0  0  0
   15.7821   21.8863    0.0404 O   0  0  0  0  0  0  0  0  0  0  0  0
   14.1174   23.5965   -0.3931 N   0  0  0  0  0  0  0  0  0  0  0  0
   14.2893   24.9800   -0.6630 C   0  0  0  0  0  0  0  0  0  0  0  0
   13.4467   25.8826   -0.4812 O   0  0  0  0  0  0  0  0  0  0  0  0
   17.6658   24.1623    0.2262 C   0  0  0  0  0  0  0  0  0  0  0  0
   17.8317   24.4340    1.5612 C   0  0  0  0  0  0  0  0  0  0  0  0
   19.0835   24.4278    2.1345 C   0  0  0  0  0  0  0  0  0  0  0  0
   19.2353   24.6744    3.3480 O   0  0  0  0  0  0  0  0  0  0  0  0
   20.1488   24.1530    1.3815 N   0  0  0  0  0  0  0  0  0  0  0  0
   20.0247   23.8819    0.0725 C   0  0  0  0  0  0  0  0  0  0  0  0
   18.8004   23.8899   -0.4826 N   0  0  0  0  0  0  0  0  0  0  0  0
   21.1206   24.1443    1.7960 H   0  0  0  0  0  0  0  0  0  0  0  0
   12.9224   22.8477   -0.2891 C   0  0  0  0  0  0  0  0  0  0  0  0
   12.4086   22.2013   -1.3759 C   0  0  0  0  0  0  0  0  0  0  0  0
   11.2322   21.4396   -1.2728 C   0  0  0  0  0  0  0  0  0  0  0  0
   10.5896   21.3455   -0.0532 C   0  0  0  0  0  0  0  0  0  0  0  0
   11.1201   22.0048    1.0368 C   0  0  0  0  0  0  0  0  0  0  0  0
   12.2872   22.7583    0.9229 C   0  0  0  0  0  0  0  0  0  0  0  0
    9.3827   20.5406    0.0373 C   0  0  0  0  0  0  0  0  0  0  0  0
    8.2426   20.9198    0.7073 C   0  0  0  0  0  0  0  0  0  0  0  0
    7.0958   20.1310    0.7673 C   0  0  0  0  0  0  0  0  0  0  0  0
    7.0782   18.9098    0.1337 C   0  0  0  0  0  0  0  0  0  0  0  0
    8.2222   18.5165   -0.5445 C   0  0  0  0  0  0  0  0  0  0  0  0
    9.3434   19.3022   -0.5956 C   0  0  0  0  0  0  0  0  0  0  0  0
    5.9223   18.0979    0.1793 N   0  0  0  0  0  0  0  0  0  0  0  0
    5.0323   18.0590    1.3275 C   0  0  0  0  0  0  0  0  0  0  0  0
    4.6246   16.6172    1.5852 C   0  0  0  0  0  0  0  0  0  0  0  0
    4.1327   15.9850    0.4706 O   0  0  0  0  0  0  0  0  0  0  0  0
    4.1230   16.7959   -0.6615 C   0  0  0  0  0  0  0  0  0  0  0  0
    5.5617   17.2521   -0.9383 C   0  0  0  0  0  0  0  0  0  0  0  0
   15.0235   27.0923   -4.4469 C   0  0  0  0  0  0  0  0  0  0  0  0
   16.1782   28.7780   -6.3971 C   0  0  0  0  0  0  0  0  0  0  0  0
   15.9417   27.3537   -6.7527 C   0  0  0  0  0  0  0  0  0  0  0  0
   16.2706   26.8650   -7.9960 C   0  0  0  0  0  0  0  0  0  0  0  0
   16.0409   25.5494   -8.3144 C   0  0  0  0  0  0  0  0  0  0  0  0
   15.4769   24.7601   -7.3462 C   0  0  0  0  0  0  0  0  0  0  0  0
   15.1617   25.2686   -6.1242 N   0  0  0  0  0  0  0  0  0  0  0  0
   15.3649   26.5390   -5.7693 C   0  0  0  0  0  0  0  0  0  0  0  0
 40 41  1  0  0  0
 41 42  2  0  0  0
 42 43  1  0  0  0
 43 44  2  0  0  0
 44 45  1  0  0  0
 45 46  2  0  0  0
 46 39  1  0  0  0
 39  1  1  0  0  0
  1  2  1  0  0  0
  2  3  1  0  0  0
  3  4  1  0  0  0
  4  5  1  0  0  0
  5  6  1  0  0  0
  4  7  1  0  0  0
  7  8  1  0  0  0
  8  9  2  0  0  0
  8 10  1  0  0  0
 10 11  1  0  0  0
 11 12  2  0  0  0
 10 21  1  0  0  0
 21 22  2  0  0  0
 22 23  1  0  0  0
 23 24  2  0  0  0
 24 25  1  0  0  0
 25 26  2  0  0  0
 24 27  1  0  0  0
 27 28  2  0  0  0
 28 29  1  0  0  0
 29 30  2  0  0  0
 30 31  1  0  0  0
 31 32  2  0  0  0
 30 33  1  0  0  0
 33 34  1  0  0  0
 34 35  1  0  0  0
 35 36  1  0  0  0
 36 37  1  0  0  0
 37 38  1  0  0  0
  7 13  1  0  0  0
 13 14  2  0  0  0
 14 15  1  0  0  0
 15 16  2  0  0  0
 15 17  1  0  0  0
 17 18  1  0  0  0
 18 19  2  0  0  0
 46 41  1  0  0  0
  6  1  1  0  0  0
 26 21  1  0  0  0
 32 27  1  0  0  0
 38 33  1  0  0  0
 19 13  1  0  0  0
 11  4  1  0  0  0
 17 20  1  0  0  0
M  END
> <minimizedAffinity>
14.34693

> <CNNscore>
0.4907732904

> <CNNaffinity>
7.7977118492

> <CNN_VS>
3.8269085884

> <CNNaffinity_variance>
0.7306076884

$$$$
[H]c1nc(C([H])([H])N2C([H])([H])C([H])([H])C3(C(=O)N(c4c([H])c([H])c(-c5c([H])c([H])c(N6C([H])([H])C([H])([H])OC([H])([H])C6([H])[H])c([H])c5[H])c([H])c4[H])C(=O)N3c3nc([H])n([H])c(=O)c3[H])C([H])([H])C2([H])[H])c(C([H])([H])[H])c([H])c1[H]


 46 52  0  0  0  0  0  0  0  0999 V2000
   15.8529   25.8632   -3.4707 N   0  0  0  0  0  0  0  0  0  0  0  0
   16.2641   24.5166   -3.1656 C   0  0  0  0  0  0  0  0  0  0  0  0
   15.5057   23.9914   -1.9984 C   0  0  0  0  0  0  0  0  0  0  0  0
   15.7326   24.8215   -0.7872 C   0  0  0  0  0  0  0  0  0  0  0  0
   16.3360   26.1711   -1.0887 C   0  0  0  0  0  0  0  0  0  0  0  0
   15.7065   26.7238   -2.3573 C   0  0  0  0  0  0  0  0  0  0  0  0
   16.4895   24.0970    0.2032 N   0  0  0  0  0  0  0  0  0  0  0  0
   15.5296   23.1967    0.7869 C   0  0  0  0  0  0  0  0  0  0  0  0
   15.8277   22.1022    1.3484 O   0  0  0  0  0  0  0  0  0  0  0  0
   14.2100   23.7550    0.6171 N   0  0  0  0  0  0  0  0  0  0  0  0
   14.4146   24.9797   -0.0719 C   0  0  0  0  0  0  0  0  0  0  0  0
   13.6522   25.9678   -0.0729 O   0  0  0  0  0  0  0  0  0  0  0  0
   17.8339   24.1563    0.6282 C   0  0  0  0  0  0  0  0  0  0  0  0
   18.1652   24.4232    1.9330 C   0  0  0  0  0  0  0  0  0  0  0  0
   19.4819   24.4766    2.3322 C   0  0  0  0  0  0  0  0  0  0  0  0
   19.7840   24.7188    3.5182 O   0  0  0  0  0  0  0  0  0  0  0  0
   20.4479   24.2650    1.4381 N   0  0  0  0  0  0  0  0  0  0  0  0
   20.1615   24.0005    0.1534 C   0  0  0  0  0  0  0  0  0  0  0  0
   18.8744   23.9502   -0.2315 N   0  0  0  0  0  0  0  0  0  0  0  0
   21.4660   24.3028    1.7177 H   0  0  0  0  0  0  0  0  0  0  0  0
   13.0032   23.1785    1.0764 C   0  0  0  0  0  0  0  0  0  0  0  0
   12.9673   21.8809    1.4981 C   0  0  0  0  0  0  0  0  0  0  0  0
   11.7748   21.3097    1.9742 C   0  0  0  0  0  0  0  0  0  0  0  0
   10.6251   22.0749    2.0148 C   0  0  0  0  0  0  0  0  0  0  0  0
   10.6760   23.3850    1.5847 C   0  0  0  0  0  0  0  0  0  0  0  0
   11.8641   23.9412    1.1136 C   0  0  0  0  0  0  0  0  0  0  0  0
    9.4050   21.4713    2.5247 C   0  0  0  0  0  0  0  0  0  0  0  0
    8.2521   21.3081    1.7921 C   0  0  0  0  0  0  0  0  0  0  0  0
    7.1006   20.7150    2.3051 C   0  0  0  0  0  0  0  0  0  0  0  0
    7.0914   20.2626    3.6045 C   0  0  0  0  0  0  0  0  0  0  0  0
    8.2478   20.4224    4.3531 C   0  0  0  0  0  0  0  0  0  0  0  0
    9.3737   21.0075    3.8361 C   0  0  0  0  0  0  0  0  0  0  0  0
    5.9341   19.6539    4.1408 N   0  0  0  0  0  0  0  0  0  0  0  0
    4.9549   20.3826    4.9294 C   0  0  0  0  0  0  0  0  0  0  0  0
    4.5253   19.5162    6.1027 C   0  0  0  0  0  0  0  0  0  0  0  0
    4.1233   18.2581    5.7295 O   0  0  0  0  0  0  0  0  0  0  0  0
    4.2059   18.0396    4.3566 C   0  0  0  0  0  0  0  0  0  0  0  0
    5.6629   18.2490    3.9235 C   0  0  0  0  0  0  0  0  0  0  0  0
   14.7356   25.8299   -4.3721 C   0  0  0  0  0  0  0  0  0  0  0  0
   16.0926   28.0945   -5.3766 C   0  0  0  0  0  0  0  0  0  0  0  0
   15.7573   26.9999   -6.3255 C   0  0  0  0  0  0  0  0  0  0  0  0
   16.0926   27.0829   -7.6572 C   0  0  0  0  0  0  0  0  0  0  0  0
   15.7713   26.0683   -8.5247 C   0  0  0  0  0  0  0  0  0  0  0  0
   15.1106   24.9859   -8.0050 C   0  0  0  0  0  0  0  0  0  0  0  0
   14.7912   24.9288   -6.6837 N   0  0  0  0  0  0  0  0  0  0  0  0
   15.0813   25.8890   -5.8035 C   0  0  0  0  0  0  0  0  0  0  0  0
 40 41  1  0  0  0
 41 42  2  0  0  0
 42 43  1  0  0  0
 43 44  2  0  0  0
 44 45  1  0  0  0
 45 46  2  0  0  0
 46 39  1  0  0  0
 39  1  1  0  0  0
  1  2  1  0  0  0
  2  3  1  0  0  0
  3  4  1  0  0  0
  4  5  1  0  0  0
  5  6  1  0  0  0
  4  7  1  0  0  0
  7  8  1  0  0  0
  8  9  2  0  0  0
  8 10  1  0  0  0
 10 11  1  0  0  0
 11 12  2  0  0  0
 10 21  1  0  0  0
 21 22  2  0  0  0
 22 23  1  0  0  0
 23 24  2  0  0  0
 24 25  1  0  0  0
 25 26  2  0  0  0
 24 27  1  0  0  0
 27 28  2  0  0  0
 28 29  1  0  0  0
 29 30  2  0  0  0
 30 31  1  0  0  0
 31 32  2  0  0  0
 30 33  1  0  0  0
 33 34  1  0  0  0
 34 35  1  0  0  0
 35 36  1  0  0  0
 36 37  1  0  0  0
 37 38  1  0  0  0
  7 13  1  0  0  0
 13 14  2  0  0  0
 14 15  1  0  0  0
 15 16  2  0  0  0
 15 17  1  0  0  0
 17 18  1  0  0  0
 18 19  2  0  0  0
 46 41  1  0  0  0
  6  1  1  0  0  0
 26 21  1  0  0  0
 32 27  1  0  0  0
 38 33  1  0  0  0
 19 13  1  0  0  0
 11  4  1  0  0  0
 17 20  1  0  0  0
M  END
> <minimizedAffinity>
10.41789

> <CNNscore>
0.4750982821

> <CNNaffinity>
7.7365775108

> <CNN_VS>
3.6756346226

> <CNNaffinity_variance>
0.5309592485

$$$$
[H]c1nc(C([H])([H])N2C([H])([H])C([H])([H])C3(C(=O)N(c4c([H])c([H])c(-c5c([H])c([H])c(N6C([H])([H])C([H])([H])OC([H])([H])C6([H])[H])c([H])c5[H])c([H])c4[H])C(=O)N3c3nc([H])n([H])c(=O)c3[H])C([H])([H])C2([H])[H])c(C([H])([H])[H])c([H])c1[H]


 46 52  0  0  0  0  0  0  0  0999 V2000
   16.0167   26.9535   -4.0750 N   0  0  0  0  0  0  0  0  0  0  0  0
   16.5658   25.6217   -4.0787 C   0  0  0  0  0  0  0  0  0  0  0  0
   15.7908   24.7353   -3.1692 C   0  0  0  0  0  0  0  0  0  0  0  0
   15.8208   25.2355   -1.7704 C   0  0  0  0  0  0  0  0  0  0  0  0
   16.2749   26.6697   -1.6553 C   0  0  0  0  0  0  0  0  0  0  0  0
   15.6809   27.4718   -2.8020 C   0  0  0  0  0  0  0  0  0  0  0  0
   16.5832   24.3544   -0.9213 N   0  0  0  0  0  0  0  0  0  0  0  0
   15.6995   23.2418   -0.6891 C   0  0  0  0  0  0  0  0  0  0  0  0
   16.0862   22.0731   -0.3945 O   0  0  0  0  0  0  0  0  0  0  0  0
   14.3381   23.6916   -0.8507 N   0  0  0  0  0  0  0  0  0  0  0  0
   14.4426   25.0686   -1.1818 C   0  0  0  0  0  0  0  0  0  0  0  0
   13.5667   25.9416   -1.0135 O   0  0  0  0  0  0  0  0  0  0  0  0
   17.8737   24.4324   -0.3555 C   0  0  0  0  0  0  0  0  0  0  0  0
   18.9647   24.8048   -1.1002 C   0  0  0  0  0  0  0  0  0  0  0  0
   20.2173   24.8771   -0.5333 C   0  0  0  0  0  0  0  0  0  0  0  0
   21.2096   25.2158   -1.2093 O   0  0  0  0  0  0  0  0  0  0  0  0
   20.3715   24.5818    0.7577 N   0  0  0  0  0  0  0  0  0  0  0  0
   19.3271   24.2145    1.5172 C   0  0  0  0  0  0  0  0  0  0  0  0
   18.1063   24.1448    0.9587 N   0  0  0  0  0  0  0  0  0  0  0  0
   21.3221   24.6268    1.2165 H   0  0  0  0  0  0  0  0  0  0  0  0
   13.1798   22.8981   -0.6823 C   0  0  0  0  0  0  0  0  0  0  0  0
   12.4258   22.5291   -1.7585 C   0  0  0  0  0  0  0  0  0  0  0  0
   11.2852   21.7240   -1.5984 C   0  0  0  0  0  0  0  0  0  0  0  0
   10.9252   21.3017   -0.3330 C   0  0  0  0  0  0  0  0  0  0  0  0
   11.6964   21.6829    0.7458 C   0  0  0  0  0  0  0  0  0  0  0  0
   12.8254   22.4825    0.5755 C   0  0  0  0  0  0  0  0  0  0  0  0
    9.7512   20.4569   -0.1890 C   0  0  0  0  0  0  0  0  0  0  0  0
    8.6037   20.8252    0.4745 C   0  0  0  0  0  0  0  0  0  0  0  0
    7.4889   19.9972    0.5864 C   0  0  0  0  0  0  0  0  0  0  0  0
    7.5124   18.7462    0.0141 C   0  0  0  0  0  0  0  0  0  0  0  0
    8.6642   18.3635   -0.6568 C   0  0  0  0  0  0  0  0  0  0  0  0
    9.7537   19.1879   -0.7595 C   0  0  0  0  0  0  0  0  0  0  0  0
    6.3892   17.8941    0.1131 N   0  0  0  0  0  0  0  0  0  0  0  0
    6.5045   16.4607    0.3223 C   0  0  0  0  0  0  0  0  0  0  0  0
    5.4921   15.7515   -0.5631 C   0  0  0  0  0  0  0  0  0  0  0  0
    4.2164   16.2390   -0.4266 O   0  0  0  0  0  0  0  0  0  0  0  0
    4.1236   17.2875    0.4853 C   0  0  0  0  0  0  0  0  0  0  0  0
    5.0446   18.4196    0.0114 C   0  0  0  0  0  0  0  0  0  0  0  0
   14.9841   27.0484   -5.0684 C   0  0  0  0  0  0  0  0  0  0  0  0
   17.1965   27.9930   -6.5488 C   0  0  0  0  0  0  0  0  0  0  0  0
   16.3967   26.8764   -7.1186 C   0  0  0  0  0  0  0  0  0  0  0  0
   16.7178   26.3169   -8.3338 C   0  0  0  0  0  0  0  0  0  0  0  0
   15.9672   25.2908   -8.8523 C   0  0  0  0  0  0  0  0  0  0  0  0
   14.8994   24.8588   -8.1097 C   0  0  0  0  0  0  0  0  0  0  0  0
   14.6040   25.4294   -6.9103 N   0  0  0  0  0  0  0  0  0  0  0  0
   15.3025   26.4281   -6.3667 C   0  0  0  0  0  0  0  0  0  0  0  0
 40 41  1  0  0  0
 41 42  2  0  0  0
 42 43  1  0  0  0
 43 44  2  0  0  0
 44 45  1  0  0  0
 45 46  2  0  0  0
 46 39  1  0  0  0
 39  1  1  0  0  0
  1  2  1  0  0  0
  2  3  1  0  0  0
  3  4  1  0  0  0
  4  5  1  0  0  0
  5  6  1  0  0  0
  4  7  1  0  0  0
  7  8  1  0  0  0
  8  9  2  0  0  0
  8 10  1  0  0  0
 10 11  1  0  0  0
 11 12  2  0  0  0
 10 21  1  0  0  0
 21 22  2  0  0  0
 22 23  1  0  0  0
 23 24  2  0  0  0
 24 25  1  0  0  0
 25 26  2  0  0  0
 24 27  1  0  0  0
 27 28  2  0  0  0
 28 29  1  0  0  0
 29 30  2  0  0  0
 30 31  1  0  0  0
 31 32  2  0  0  0
 30 33  1  0  0  0
 33 34  1  0  0  0
 34 35  1  0  0  0
 35 36  1  0  0  0
 36 37  1  0  0  0
 37 38  1  0  0  0
  7 13  1  0  0  0
 13 14  2  0  0  0
 14 15  1  0  0  0
 15 16  2  0  0  0
 15 17  1  0  0  0
 17 18  1  0  0  0
 18 19  2  0  0  0
 46 41  1  0  0  0
  6  1  1  0  0  0
 26 21  1  0  0  0
 32 27  1  0  0  0
 38 33  1  0  0  0
 19 13  1  0  0  0
 11  4  1  0  0  0
 17 20  1  0  0  0
M  END
> <minimizedAffinity>
27.70142

> <CNNscore>
0.4324893951

> <CNNaffinity>
7.6755914688

> <CNN_VS>
3.3196120262

> <CNNaffinity_variance>
1.0094490051

$$$$
[H]c1nc(C([H])([H])N2C([H])([H])C([H])([H])C3(C(=O)N(c4c([H])c([H])c(-c5c([H])c([H])c(N6C([H])([H])C([H])([H])OC([H])([H])C6([H])[H])c([H])c5[H])c([H])c4[H])C(=O)N3c3nc([H])n([H])c(=O)c3[H])C([H])([H])C2([H])[H])c(C([H])([H])[H])c([H])c1[H]


 46 52  0  0  0  0  0  0  0  0999 V2000
   16.3637   27.3276   -4.8101 N   0  0  0  0  0  0  0  0  0  0  0  0
   16.7382   25.9408   -4.7022 C   0  0  0  0  0  0  0  0  0  0  0  0
   15.9912   25.2832   -3.5962 C   0  0  0  0  0  0  0  0  0  0  0  0
   16.2739   25.9333   -2.2904 C   0  0  0  0  0  0  0  0  0  0  0  0
   16.9133   27.2934   -2.4228 C   0  0  0  0  0  0  0  0  0  0  0  0
   16.2720   28.0321   -3.5865 C   0  0  0  0  0  0  0  0  0  0  0  0
   17.0304   25.0588   -1.4292 N   0  0  0  0  0  0  0  0  0  0  0  0
   16.0559   24.1154   -0.9463 C   0  0  0  0  0  0  0  0  0  0  0  0
   16.3318   22.9463   -0.5473 O   0  0  0  0  0  0  0  0  0  0  0  0
   14.7515   24.7294   -1.0017 N   0  0  0  0  0  0  0  0  0  0  0  0
   14.9792   26.0304   -1.5235 C   0  0  0  0  0  0  0  0  0  0  0  0
   14.2494   27.0310   -1.3690 O   0  0  0  0  0  0  0  0  0  0  0  0
   18.3858   25.0206   -1.0381 C   0  0  0  0  0  0  0  0  0  0  0  0
   19.3920   25.3988   -1.8913 C   0  0  0  0  0  0  0  0  0  0  0  0
   20.7097   25.3568   -1.4943 C   0  0  0  0  0  0  0  0  0  0  0  0
   21.6251   25.7007   -2.2691 O   0  0  0  0  0  0  0  0  0  0  0  0
   21.0114   24.9436   -0.2632 N   0  0  0  0  0  0  0  0  0  0  0  0
   20.0536   24.5667    0.5988 C   0  0  0  0  0  0  0  0  0  0  0  0
   18.7686   24.6089    0.2061 N   0  0  0  0  0  0  0  0  0  0  0  0
   22.0145   24.8994    0.0654 H   0  0  0  0  0  0  0  0  0  0  0  0
   13.5379   24.1308   -0.5911 C   0  0  0  0  0  0  0  0  0  0  0  0
   13.0589   23.0213   -1.2255 C   0  0  0  0  0  0  0  0  0  0  0  0
   11.8638   22.4111   -0.8083 C   0  0  0  0  0  0  0  0  0  0  0  0
   11.1667   22.9439    0.2590 C   0  0  0  0  0  0  0  0  0  0  0  0
   11.6624   24.0662    0.8905 C   0  0  0  0  0  0  0  0  0  0  0  0
   12.8486   24.6639    0.4678 C   0  0  0  0  0  0  0  0  0  0  0  0
    9.9407   22.2899    0.6858 C   0  0  0  0  0  0  0  0  0  0  0  0
    8.6755   22.7691    0.4365 C   0  0  0  0  0  0  0  0  0  0  0  0
    7.5174   22.1136    0.8488 C   0  0  0  0  0  0  0  0  0  0  0  0
    7.6179   20.9283    1.5401 C   0  0  0  0  0  0  0  0  0  0  0  0
    8.8884   20.4357    1.7979 C   0  0  0  0  0  0  0  0  0  0  0  0
   10.0194   21.0906    1.3865 C   0  0  0  0  0  0  0  0  0  0  0  0
    6.4541   20.2465    1.9622 N   0  0  0  0  0  0  0  0  0  0  0  0
    6.2674   19.7768    3.3247 C   0  0  0  0  0  0  0  0  0  0  0  0
    5.6445   18.3904    3.2859 C   0  0  0  0  0  0  0  0  0  0  0  0
    4.5154   18.3244    2.5085 O   0  0  0  0  0  0  0  0  0  0  0  0
    4.1877   19.5392    1.9115 C   0  0  0  0  0  0  0  0  0  0  0  0
    5.3708   19.9809    1.0400 C   0  0  0  0  0  0  0  0  0  0  0  0
   15.2247   27.4501   -5.6759 C   0  0  0  0  0  0  0  0  0  0  0  0
   12.9223   26.5603   -7.0491 C   0  0  0  0  0  0  0  0  0  0  0  0
   14.2446   26.3734   -7.7029 C   0  0  0  0  0  0  0  0  0  0  0  0
   14.3511   25.7814   -8.9402 C   0  0  0  0  0  0  0  0  0  0  0  0
   15.5787   25.6083   -9.5303 C   0  0  0  0  0  0  0  0  0  0  0  0
   16.6750   26.0486   -8.8356 C   0  0  0  0  0  0  0  0  0  0  0  0
   16.5417   26.6314   -7.6133 N   0  0  0  0  0  0  0  0  0  0  0  0
   15.3716   26.8201   -7.0000 C   0  0  0  0  0  0  0  0  0  0  0  0
 40 41  1  0  0  0
 41 42  2  0  0  0
 42 43  1  0  0  0
 43 44  2  0  0  0
 44 45  1  0  0  0
 45 46  2  0  0  0
 46 39  1  0  0  0
 39  1  1  0  0  0
  1  2  1  0  0  0
  2  3  1  0  0  0
  3  4  1  0  0  0
  4  5  1  0  0  0
  5  6  1  0  0  0
  4  7  1  0  0  0
  7  8  1  0  0  0
  8  9  2  0  0  0
  8 10  1  0  0  0
 10 11  1  0  0  0
 11 12  2  0  0  0
 10 21  1  0  0  0
 21 22  2  0  0  0
 22 23  1  0  0  0
 23 24  2  0  0  0
 24 25  1  0  0  0
 25 26  2  0  0  0
 24 27  1  0  0  0
 27 28  2  0  0  0
 28 29  1  0  0  0
 29 30  2  0  0  0
 30 31  1  0  0  0
 31 32  2  0  0  0
 30 33  1  0  0  0
 33 34  1  0  0  0
 34 35  1  0  0  0
 35 36  1  0  0  0
 36 37  1  0  0  0
 37 38  1  0  0  0
  7 13  1  0  0  0
 13 14  2  0  0  0
 14 15  1  0  0  0
 15 16  2  0  0  0
 15 17  1  0  0  0
 17 18  1  0  0  0
 18 19  2  0  0  0
 46 41  1  0  0  0
  6  1  1  0  0  0
 26 21  1  0  0  0
 32 27  1  0  0  0
 38 33  1  0  0  0
 19 13  1  0  0  0
 11  4  1  0  0  0
 17 20  1  0  0  0
M  END
> <minimizedAffinity>
43.49249

> <CNNscore>
0.4152528942

> <CNNaffinity>
7.3881163597

> <CNN_VS>
3.0679366589

> <CNNaffinity_variance>
0.8786522746

$$$$
[H]c1nc(C([H])([H])N2C([H])([H])C([H])([H])C3(C(=O)N(c4c([H])c([H])c(-c5c([H])c([H])c(N6C([H])([H])C([H])([H])OC([H])([H])C6([H])[H])c([H])c5[H])c([H])c4[H])C(=O)N3c3nc([H])n([H])c(=O)c3[H])C([H])([H])C2([H])[H])c(C([H])([H])[H])c([H])c1[H]


 46 52  0  0  0  0  0  0  0  0999 V2000
   14.3256   28.8647   -4.4502 N   0  0  0  0  0  0  0  0  0  0  0  0
   13.6178   27.8172   -5.1410 C   0  0  0  0  0  0  0  0  0  0  0  0
   13.5534   26.5901   -4.3021 C   0  0  0  0  0  0  0  0  0  0  0  0
   14.9122   26.0836   -3.9784 C   0  0  0  0  0  0  0  0  0  0  0  0
   16.0045   27.0945   -4.2259 C   0  0  0  0  0  0  0  0  0  0  0  0
   15.5159   28.4684   -3.7959 C   0  0  0  0  0  0  0  0  0  0  0  0
   15.1704   24.8309   -4.6438 N   0  0  0  0  0  0  0  0  0  0  0  0
   14.4358   23.8655   -3.8683 C   0  0  0  0  0  0  0  0  0  0  0  0
   14.0132   22.7610   -4.3195 O   0  0  0  0  0  0  0  0  0  0  0  0
   14.2757   24.3750   -2.5280 N   0  0  0  0  0  0  0  0  0  0  0  0
   14.9181   25.6415   -2.5368 C   0  0  0  0  0  0  0  0  0  0  0  0
   15.3831   26.2454   -1.5485 O   0  0  0  0  0  0  0  0  0  0  0  0
   15.9447   24.4737   -5.7682 C   0  0  0  0  0  0  0  0  0  0  0  0
   16.7778   23.3832   -5.7514 C   0  0  0  0  0  0  0  0  0  0  0  0
   17.5261   23.0471   -6.8572 C   0  0  0  0  0  0  0  0  0  0  0  0
   18.2834   22.0558   -6.8430 O   0  0  0  0  0  0  0  0  0  0  0  0
   17.4389   23.7916   -7.9597 N   0  0  0  0  0  0  0  0  0  0  0  0
   16.6342   24.8649   -8.0129 C   0  0  0  0  0  0  0  0  0  0  0  0
   15.9061   25.1893   -6.9303 N   0  0  0  0  0  0  0  0  0  0  0  0
   18.0042   23.5571   -8.8208 H   0  0  0  0  0  0  0  0  0  0  0  0
   13.6288   23.7082   -1.4620 C   0  0  0  0  0  0  0  0  0  0  0  0
   12.6535   24.3324   -0.7394 C   0  0  0  0  0  0  0  0  0  0  0  0
   11.9938   23.6669    0.3079 C   0  0  0  0  0  0  0  0  0  0  0  0
   12.3395   22.3631    0.6074 C   0  0  0  0  0  0  0  0  0  0  0  0
   13.3277   21.7449   -0.1310 C   0  0  0  0  0  0  0  0  0  0  0  0
   13.9760   22.4147   -1.1672 C   0  0  0  0  0  0  0  0  0  0  0  0
   11.6354   21.6862    1.6840 C   0  0  0  0  0  0  0  0  0  0  0  0
   12.2346   20.8633    2.6094 C   0  0  0  0  0  0  0  0  0  0  0  0
   11.5347   20.2365    3.6381 C   0  0  0  0  0  0  0  0  0  0  0  0
   10.1782   20.4346    3.7551 C   0  0  0  0  0  0  0  0  0  0  0  0
    9.5631   21.2617    2.8274 C   0  0  0  0  0  0  0  0  0  0  0  0
   10.2634   21.8722    1.8204 C   0  0  0  0  0  0  0  0  0  0  0  0
    9.4523   19.8111    4.7951 N   0  0  0  0  0  0  0  0  0  0  0  0
   10.0912   19.0436    5.8509 C   0  0  0  0  0  0  0  0  0  0  0  0
    9.2683   17.7932    6.1169 C   0  0  0  0  0  0  0  0  0  0  0  0
    7.9392   18.0551    6.3374 O   0  0  0  0  0  0  0  0  0  0  0  0
    7.6258   19.4098    6.2589 C   0  0  0  0  0  0  0  0  0  0  0  0
    8.0100   19.9116    4.8607 C   0  0  0  0  0  0  0  0  0  0  0  0
   13.4035   29.6157   -3.6456 C   0  0  0  0  0  0  0  0  0  0  0  0
   11.7130   31.8252   -3.1565 C   0  0  0  0  0  0  0  0  0  0  0  0
   11.1398   30.6452   -3.8567 C   0  0  0  0  0  0  0  0  0  0  0  0
    9.8231   30.6223   -4.2547 C   0  0  0  0  0  0  0  0  0  0  0  0
    9.3040   29.5239   -4.8944 C   0  0  0  0  0  0  0  0  0  0  0  0
   10.1506   28.4686   -5.1132 C   0  0  0  0  0  0  0  0  0  0  0  0
   11.4491   28.5173   -4.7096 N   0  0  0  0  0  0  0  0  0  0  0  0
   11.9978   29.5609   -4.0845 C   0  0  0  0  0  0  0  0  0  0  0  0
 40 41  1  0  0  0
 41 42  2  0  0  0
 42 43  1  0  0  0
 43 44  2  0  0  0
 44 45  1  0  0  0
 45 46  2  0  0  0
 46 39  1  0  0  0
 39  1  1  0  0  0
  1  2  1  0  0  0
  2  3  1  0  0  0
  3  4  1  0  0  0
  4  5  1  0  0  0
  5  6  1  0  0  0
  4  7  1  0  0  0
  7  8  1  0  0  0
  8  9  2  0  0  0
  8 10  1  0  0  0
 10 11  1  0  0  0
 11 12  2  0  0  0
 10 21  1  0  0  0
 21 22  2  0  0  0
 22 23  1  0  0  0
 23 24  2  0  0  0
 24 25  1  0  0  0
 25 26  2  0  0  0
 24 27  1  0  0  0
 27 28  2  0  0  0
 28 29  1  0  0  0
 29 30  2  0  0  0
 30 31  1  0  0  0
 31 32  2  0  0  0
 30 33  1  0  0  0
 33 34  1  0  0  0
 34 35  1  0  0  0
 35 36  1  0  0  0
 36 37  1  0  0  0
 37 38  1  0  0  0
  7 13  1  0  0  0
 13 14  2  0  0  0
 14 15  1  0  0  0
 15 16  2  0  0  0
 15 17  1  0  0  0
 17 18  1  0  0  0
 18 19  2  0  0  0
 46 41  1  0  0  0
  6  1  1  0  0  0
 26 21  1  0  0  0
 32 27  1  0  0  0
 38 33  1  0  0  0
 19 13  1  0  0  0
 11  4  1  0  0  0
 17 20  1  0  0  0
M  END
> <minimizedAffinity>
31.83052

> <CNNscore>
0.4098344743

> <CNNaffinity>
7.3885574341

> <CNN_VS>
3.0280854702

> <CNNaffinity_variance>
0.5530409813

$$$$
[H]c1nc(C([H])([H])N2C([H])([H])C([H])([H])C3(C(=O)N(c4c([H])c([H])c(-c5c([H])c([H])c(N6C([H])([H])C([H])([H])OC([H])([H])C6([H])[H])c([H])c5[H])c([H])c4[H])C(=O)N3c3nc([H])n([H])c(=O)c3[H])C([H])([H])C2([H])[H])c(C([H])([H])[H])c([H])c1[H]


 46 52  0  0  0  0  0  0  0  0999 V2000
    7.7990   19.4329   -0.0582 N   0  0  0  0  0  0  0  0  0  0  0  0
    6.5304   19.5229    0.6185 C   0  0  0  0  0  0  0  0  0  0  0  0
    6.5374   20.6474    1.5926 C   0  0  0  0  0  0  0  0  0  0  0  0
    7.5908   20.4636    2.6242 C   0  0  0  0  0  0  0  0  0  0  0  0
    8.6264   19.4329    2.2478 C   0  0  0  0  0  0  0  0  0  0  0  0
    8.9413   19.5639    0.7663 C   0  0  0  0  0  0  0  0  0  0  0  0
    7.0097   20.2027    3.9175 N   0  0  0  0  0  0  0  0  0  0  0  0
    6.5539   21.4938    4.3627 C   0  0  0  0  0  0  0  0  0  0  0  0
    5.6170   21.6714    5.1951 O   0  0  0  0  0  0  0  0  0  0  0  0
    7.3362   22.5120    3.7046 N   0  0  0  0  0  0  0  0  0  0  0  0
    8.2422   21.8004    2.8743 C   0  0  0  0  0  0  0  0  0  0  0  0
    9.3418   22.2119    2.4509 O   0  0  0  0  0  0  0  0  0  0  0  0
    6.8675   19.0350    4.6971 C   0  0  0  0  0  0  0  0  0  0  0  0
    5.7613   18.2295    4.5917 C   0  0  0  0  0  0  0  0  0  0  0  0
    5.6379   17.0927    5.3587 C   0  0  0  0  0  0  0  0  0  0  0  0
    4.6328   16.3597    5.2634 O   0  0  0  0  0  0  0  0  0  0  0  0
    6.6075   16.7702    6.2150 N   0  0  0  0  0  0  0  0  0  0  0  0
    7.7042   17.5338    6.3444 C   0  0  0  0  0  0  0  0  0  0  0  0
    7.8196   18.6431    5.5938 N   0  0  0  0  0  0  0  0  0  0  0  0
    6.5363   15.9049    6.8170 H   0  0  0  0  0  0  0  0  0  0  0  0
    7.2061   23.9070    3.8959 C   0  0  0  0  0  0  0  0  0  0  0  0
    7.1267   24.4333    5.1527 C   0  0  0  0  0  0  0  0  0  0  0  0
    7.0175   25.8207    5.3484 C   0  0  0  0  0  0  0  0  0  0  0  0
    6.9907   26.6604    4.2515 C   0  0  0  0  0  0  0  0  0  0  0  0
    7.0712   26.1143    2.9868 C   0  0  0  0  0  0  0  0  0  0  0  0
    7.1785   24.7366    2.8043 C   0  0  0  0  0  0  0  0  0  0  0  0
    6.8928   28.0934    4.4743 C   0  0  0  0  0  0  0  0  0  0  0  0
    7.2484   29.0506    3.5524 C   0  0  0  0  0  0  0  0  0  0  0  0
    7.1326   30.4184    3.7905 C   0  0  0  0  0  0  0  0  0  0  0  0
    6.6415   30.8578    4.9983 C   0  0  0  0  0  0  0  0  0  0  0  0
    6.2804   29.9019    5.9360 C   0  0  0  0  0  0  0  0  0  0  0  0
    6.3994   28.5596    5.6887 C   0  0  0  0  0  0  0  0  0  0  0  0
    6.5123   32.2414    5.2562 N   0  0  0  0  0  0  0  0  0  0  0  0
    7.1589   33.2575    4.4431 C   0  0  0  0  0  0  0  0  0  0  0  0
    7.7204   34.3349    5.3572 C   0  0  0  0  0  0  0  0  0  0  0  0
    6.7974   34.8283    6.2451 O   0  0  0  0  0  0  0  0  0  0  0  0
    5.5463   34.2283    6.1271 C   0  0  0  0  0  0  0  0  0  0  0  0
    5.7120   32.7211    6.3625 C   0  0  0  0  0  0  0  0  0  0  0  0
    7.7818   20.2743   -1.2217 C   0  0  0  0  0  0  0  0  0  0  0  0
    8.1044   20.8648   -3.9650 C   0  0  0  0  0  0  0  0  0  0  0  0
    6.7946   20.3252   -3.5132 C   0  0  0  0  0  0  0  0  0  0  0  0
    5.7635   20.1201   -4.4007 C   0  0  0  0  0  0  0  0  0  0  0  0
    4.5564   19.6276   -3.9698 C   0  0  0  0  0  0  0  0  0  0  0  0
    4.4329   19.3547   -2.6325 C   0  0  0  0  0  0  0  0  0  0  0  0
    5.4689   19.5662   -1.7761 N   0  0  0  0  0  0  0  0  0  0  0  0
    6.6586   20.0434   -2.1473 C   0  0  0  0  0  0  0  0  0  0  0  0
 40 41  1  0  0  0
 41 42  2  0  0  0
 42 43  1  0  0  0
 43 44  2  0  0  0
 44 45  1  0  0  0
 45 46  2  0  0  0
 46 39  1  0  0  0
 39  1  1  0  0  0
  1  2  1  0  0  0
  2  3  1  0  0  0
  3  4  1  0  0  0
  4  5  1  0  0  0
  5  6  1  0  0  0
  4  7  1  0  0  0
  7  8  1  0  0  0
  8  9  2  0  0  0
  8 10  1  0  0  0
 10 11  1  0  0  0
 11 12  2  0  0  0
 10 21  1  0  0  0
 21 22  2  0  0  0
 22 23  1  0  0  0
 23 24  2  0  0  0
 24 25  1  0  0  0
 25 26  2  0  0  0
 24 27  1  0  0  0
 27 28  2  0  0  0
 28 29  1  0  0  0
 29 30  2  0  0  0
 30 31  1  0  0  0
 31 32  2  0  0  0
 30 33  1  0  0  0
 33 34  1  0  0  0
 34 35  1  0  0  0
 35 36  1  0  0  0
 36 37  1  0  0  0
 37 38  1  0  0  0
  7 13  1  0  0  0
 13 14  2  0  0  0
 14 15  1  0  0  0
 15 16  2  0  0  0
 15 17  1  0  0  0
 17 18  1  0  0  0
 18 19  2  0  0  0
 46 41  1  0  0  0
  6  1  1  0  0  0
 26 21  1  0  0  0
 32 27  1  0  0  0
 38 33  1  0  0  0
 19 13  1  0  0  0
 11  4  1  0  0  0
 17 20  1  0  0  0
M  END
> <minimizedAffinity>
32.99712

> <CNNscore>
0.3397324085

> <CNNaffinity>
6.0939397812

> <CNN_VS>
2.0703089237

> <CNNaffinity_variance>
0.5975543857

$$$$
[H]c1nc(C([H])([H])N2C([H])([H])C([H])([H])C3(C(=O)N(c4c([H])c([H])c(-c5c([H])c([H])c(N6C([H])([H])C([H])([H])OC([H])([H])C6([H])[H])c([H])c5[H])c([H])c4[H])C(=O)N3c3nc([H])n([H])c(=O)c3[H])C([H])([H])C2([H])[H])c(C([H])([H])[H])c([H])c1[H]


 46 52  0  0  0  0  0  0  0  0999 V2000
   17.7105   24.8680   -1.4253 N   0  0  0  0  0  0  0  0  0  0  0  0
   16.7747   25.9633   -1.4371 C   0  0  0  0  0  0  0  0  0  0  0  0
   15.3766   25.4553   -1.4127 C   0  0  0  0  0  0  0  0  0  0  0  0
   15.0905   24.6003   -2.5937 C   0  0  0  0  0  0  0  0  0  0  0  0
   16.3324   24.1368   -3.3143 C   0  0  0  0  0  0  0  0  0  0  0  0
   17.4010   23.7914   -2.2896 C   0  0  0  0  0  0  0  0  0  0  0  0
   14.1537   25.2411   -3.4827 N   0  0  0  0  0  0  0  0  0  0  0  0
   12.8810   25.0699   -2.8317 C   0  0  0  0  0  0  0  0  0  0  0  0
   11.8837   25.8299   -3.0042 O   0  0  0  0  0  0  0  0  0  0  0  0
   12.9527   23.9113   -1.9748 N   0  0  0  0  0  0  0  0  0  0  0  0
   14.2752   23.4186   -2.1321 C   0  0  0  0  0  0  0  0  0  0  0  0
   14.6620   22.2500   -1.9266 O   0  0  0  0  0  0  0  0  0  0  0  0
   14.2911   25.8954   -4.7255 C   0  0  0  0  0  0  0  0  0  0  0  0
   15.1599   25.4411   -5.6859 C   0  0  0  0  0  0  0  0  0  0  0  0
   15.2817   26.0901   -6.8941 C   0  0  0  0  0  0  0  0  0  0  0  0
   16.0710   25.6777   -7.7678 O   0  0  0  0  0  0  0  0  0  0  0  0
   14.5442   27.1745   -7.1339 N   0  0  0  0  0  0  0  0  0  0  0  0
   13.6834   27.6472   -6.2184 C   0  0  0  0  0  0  0  0  0  0  0  0
   13.5687   27.0104   -5.0401 N   0  0  0  0  0  0  0  0  0  0  0  0
   14.6204   27.6924   -8.0516 H   0  0  0  0  0  0  0  0  0  0  0  0
   11.8971   23.4015   -1.1839 C   0  0  0  0  0  0  0  0  0  0  0  0
   11.1277   22.3670   -1.6321 C   0  0  0  0  0  0  0  0  0  0  0  0
   10.0905   21.8439   -0.8413 C   0  0  0  0  0  0  0  0  0  0  0  0
    9.8491   22.3863    0.4063 C   0  0  0  0  0  0  0  0  0  0  0  0
   10.6343   23.4322    0.8462 C   0  0  0  0  0  0  0  0  0  0  0  0
   11.6601   23.9438    0.0531 C   0  0  0  0  0  0  0  0  0  0  0  0
    8.7820   21.8218    1.2159 C   0  0  0  0  0  0  0  0  0  0  0  0
    7.9161   20.8417    0.7890 C   0  0  0  0  0  0  0  0  0  0  0  0
    6.9090   20.3116    1.5925 C   0  0  0  0  0  0  0  0  0  0  0  0
    6.7528   20.7743    2.8788 C   0  0  0  0  0  0  0  0  0  0  0  0
    7.6195   21.7630    3.3201 C   0  0  0  0  0  0  0  0  0  0  0  0
    8.6059   22.2756    2.5193 C   0  0  0  0  0  0  0  0  0  0  0  0
    5.7399   20.2452    3.7103 N   0  0  0  0  0  0  0  0  0  0  0  0
    4.9222   21.0742    4.5798 C   0  0  0  0  0  0  0  0  0  0  0  0
    4.7551   20.3694    5.9165 C   0  0  0  0  0  0  0  0  0  0  0  0
    4.3146   19.0751    5.7961 O   0  0  0  0  0  0  0  0  0  0  0  0
    4.1259   18.6797    4.4742 C   0  0  0  0  0  0  0  0  0  0  0  0
    5.4619   18.8251    3.7337 C   0  0  0  0  0  0  0  0  0  0  0  0
   18.0013   24.5015   -0.0677 C   0  0  0  0  0  0  0  0  0  0  0  0
   18.8162   21.8553    0.4909 C   0  0  0  0  0  0  0  0  0  0  0  0
   17.4253   22.2489    0.8392 C   0  0  0  0  0  0  0  0  0  0  0  0
   16.5535   21.3534    1.4144 C   0  0  0  0  0  0  0  0  0  0  0  0
   15.2694   21.7272    1.7250 C   0  0  0  0  0  0  0  0  0  0  0  0
   14.9061   23.0172    1.4380 C   0  0  0  0  0  0  0  0  0  0  0  0
   15.7882   23.8830    0.8694 N   0  0  0  0  0  0  0  0  0  0  0  0
   17.0444   23.5658    0.5491 C   0  0  0  0  0  0  0  0  0  0  0  0
 40 41  1  0  0  0
 41 42  2  0  0  0
 42 43  1  0  0  0
 43 44  2  0  0  0
 44 45  1  0  0  0
 45 46  2  0  0  0
 46 39  1  0  0  0
 39  1  1  0  0  0
  1  2  1  0  0  0
  2  3  1  0  0  0
  3  4  1  0  0  0
  4  5  1  0  0  0
  5  6  1  0  0  0
  4  7  1  0  0  0
  7  8  1  0  0  0
  8  9  2  0  0  0
  8 10  1  0  0  0
 10 11  1  0  0  0
 11 12  2  0  0  0
 10 21  1  0  0  0
 21 22  2  0  0  0
 22 23  1  0  0  0
 23 24  2  0  0  0
 24 25  1  0  0  0
 25 26  2  0  0  0
 24 27  1  0  0  0
 27 28  2  0  0  0
 28 29  1  0  0  0
 29 30  2  0  0  0
 30 31  1  0  0  0
 31 32  2  0  0  0
 30 33  1  0  0  0
 33 34  1  0  0  0
 34 35  1  0  0  0
 35 36  1  0  0  0
 36 37  1  0  0  0
 37 38  1  0  0  0
  7 13  1  0  0  0
 13 14  2  0  0  0
 14 15  1  0  0  0
 15 16  2  0  0  0
 15 17  1  0  0  0
 17 18  1  0  0  0
 18 19  2  0  0  0
 46 41  1  0  0  0
  6  1  1  0  0  0
 26 21  1  0  0  0
 32 27  1  0  0  0
 38 33  1  0  0  0
 19 13  1  0  0  0
 11  4  1  0  0  0
 17 20  1  0  0  0
M  END
> <minimizedAffinity>
11.96583

> <CNNscore>
0.3374605775

> <CNNaffinity>
7.6346368790

> <CNN_VS>
2.5763890743

> <CNNaffinity_variance>
0.3345162868

$$$$
[H]c1nc(C([H])([H])N2C([H])([H])C([H])([H])C3(C(=O)N(c4c([H])c([H])c(-c5c([H])c([H])c(N6C([H])([H])C([H])([H])OC([H])([H])C6([H])[H])c([H])c5[H])c([H])c4[H])C(=O)N3c3nc([H])n([H])c(=O)c3[H])C([H])([H])C2([H])[H])c(C([H])([H])[H])c([H])c1[H]


 46 52  0  0  0  0  0  0  0  0999 V2000
   16.2478   25.7517   -4.6840 N   0  0  0  0  0  0  0  0  0  0  0  0
   16.2353   26.6504   -3.5582 C   0  0  0  0  0  0  0  0  0  0  0  0
   15.0459   26.3967   -2.7013 C   0  0  0  0  0  0  0  0  0  0  0  0
   13.7820   26.5965   -3.4564 C   0  0  0  0  0  0  0  0  0  0  0  0
   13.9746   26.6250   -4.9525 C   0  0  0  0  0  0  0  0  0  0  0  0
   15.0063   25.5779   -5.3401 C   0  0  0  0  0  0  0  0  0  0  0  0
   13.0702   27.7555   -2.9781 N   0  0  0  0  0  0  0  0  0  0  0  0
   12.4691   27.3128   -1.7470 C   0  0  0  0  0  0  0  0  0  0  0  0
   12.1481   28.0808   -0.7934 O   0  0  0  0  0  0  0  0  0  0  0  0
   12.3077   25.8800   -1.8007 N   0  0  0  0  0  0  0  0  0  0  0  0
   12.8236   25.4991   -3.0677 C   0  0  0  0  0  0  0  0  0  0  0  0
   12.5327   24.4686   -3.7089 O   0  0  0  0  0  0  0  0  0  0  0  0
   12.8923   29.0600   -3.4860 C   0  0  0  0  0  0  0  0  0  0  0  0
   11.6429   29.5760   -3.7228 C   0  0  0  0  0  0  0  0  0  0  0  0
   11.4859   30.8512   -4.2177 C   0  0  0  0  0  0  0  0  0  0  0  0
   10.3505   31.3213   -4.4330 O   0  0  0  0  0  0  0  0  0  0  0  0
   12.5634   31.5948   -4.4694 N   0  0  0  0  0  0  0  0  0  0  0  0
   13.8012   31.1236   -4.2494 C   0  0  0  0  0  0  0  0  0  0  0  0
   13.9491   29.8777   -3.7667 N   0  0  0  0  0  0  0  0  0  0  0  0
   12.4708   32.5753   -4.8518 H   0  0  0  0  0  0  0  0  0  0  0  0
   11.7323   25.0745   -0.7909 C   0  0  0  0  0  0  0  0  0  0  0  0
   10.5225   24.4730   -0.9846 C   0  0  0  0  0  0  0  0  0  0  0  0
    9.9560   23.6555    0.0081 C   0  0  0  0  0  0  0  0  0  0  0  0
   10.6357   23.4598    1.1950 C   0  0  0  0  0  0  0  0  0  0  0  0
   11.8574   24.0747    1.3774 C   0  0  0  0  0  0  0  0  0  0  0  0
   12.4097   24.8842    0.3862 C   0  0  0  0  0  0  0  0  0  0  0  0
   10.0410   22.5986    2.2037 C   0  0  0  0  0  0  0  0  0  0  0  0
    9.9971   22.8892    3.5477 C   0  0  0  0  0  0  0  0  0  0  0  0
    9.4096   22.0484    4.4904 C   0  0  0  0  0  0  0  0  0  0  0  0
    8.8389   20.8648    4.0823 C   0  0  0  0  0  0  0  0  0  0  0  0
    8.8777   20.5608    2.7297 C   0  0  0  0  0  0  0  0  0  0  0  0
    9.4588   21.3969    1.8129 C   0  0  0  0  0  0  0  0  0  0  0  0
    8.2339   20.0014    5.0235 N   0  0  0  0  0  0  0  0  0  0  0  0
    8.9617   19.4171    6.1374 C   0  0  0  0  0  0  0  0  0  0  0  0
    8.5414   17.9641    6.2914 C   0  0  0  0  0  0  0  0  0  0  0  0
    7.1808   17.7971    6.3589 O   0  0  0  0  0  0  0  0  0  0  0  0
    6.4749   18.9935    6.2600 C   0  0  0  0  0  0  0  0  0  0  0  0
    6.8328   19.6535    4.9219 C   0  0  0  0  0  0  0  0  0  0  0  0
   16.9255   24.5389   -4.3210 C   0  0  0  0  0  0  0  0  0  0  0  0
   16.9440   24.7345   -1.5032 C   0  0  0  0  0  0  0  0  0  0  0  0
   16.1185   23.6663   -2.1266 C   0  0  0  0  0  0  0  0  0  0  0  0
   15.3848   22.7923   -1.3581 C   0  0  0  0  0  0  0  0  0  0  0  0
   14.6319   21.8057   -1.9456 C   0  0  0  0  0  0  0  0  0  0  0  0
   14.6478   21.7372   -3.3143 C   0  0  0  0  0  0  0  0  0  0  0  0
   15.3819   22.6147   -4.0508 N   0  0  0  0  0  0  0  0  0  0  0  0
   16.1288   23.5880   -3.5256 C   0  0  0  0  0  0  0  0  0  0  0  0
 40 41  1  0  0  0
 41 42  2  0  0  0
 42 43  1  0  0  0
 43 44  2  0  0  0
 44 45  1  0  0  0
 45 46  2  0  0  0
 46 39  1  0  0  0
 39  1  1  0  0  0
  1  2  1  0  0  0
  2  3  1  0  0  0
  3  4  1  0  0  0
  4  5  1  0  0  0
  5  6  1  0  0  0
  4  7  1  0  0  0
  7  8  1  0  0  0
  8  9  2  0  0  0
  8 10  1  0  0  0
 10 11  1  0  0  0
 11 12  2  0  0  0
 10 21  1  0  0  0
 21 22  2  0  0  0
 22 23  1  0  0  0
 23 24  2  0  0  0
 24 25  1  0  0  0
 25 26  2  0  0  0
 24 27  1  0  0  0
 27 28  2  0  0  0
 28 29  1  0  0  0
 29 30  2  0  0  0
 30 31  1  0  0  0
 31 32  2  0  0  0
 30 33  1  0  0  0
 33 34  1  0  0  0
 34 35  1  0  0  0
 35 36  1  0  0  0
 36 37  1  0  0  0
 37 38  1  0  0  0
  7 13  1  0  0  0
 13 14  2  0  0  0
 14 15  1  0  0  0
 15 16  2  0  0  0
 15 17  1  0  0  0
 17 18  1  0  0  0
 18 19  2  0  0  0
 46 41  1  0  0  0
  6  1  1  0  0  0
 26 21  1  0  0  0
 32 27  1  0  0  0
 38 33  1  0  0  0
 19 13  1  0  0  0
 11  4  1  0  0  0
 17 20  1  0  0  0
M  END
> <minimizedAffinity>
26.30988

> <CNNscore>
0.3362772763

> <CNNaffinity>
7.1310172081

> <CNN_VS>
2.3979990482

> <CNNaffinity_variance>
0.2781361341

$$$$
[H]OC(=O)c1c([H])c([H])c(-c2c([H])c([H])c(N3C(=O)N(c4nc([H])n([H])c(=O)c4[H])C4(C3=O)C([H])([H])C([H])([H])N(C([H])([H])c3nc([H])c([H])c([H])c3C([H])([H])[H])C([H])([H])C4([H])[H])c([H])c2[H])c([H])c1[H]


 44 49  0  0  0  0  0  0  0  0999 V2000
   14.4013   24.2281   -4.3515 N   0  0  0  0  0  0  0  0  0  0  0  0
   14.9945   22.9594   -3.9377 C   0  0  0  0  0  0  0  0  0  0  0  0
   15.5988   22.9730   -2.5868 C   0  0  0  0  0  0  0  0  0  0  0  0
   14.7682   23.6147   -1.5373 C   0  0  0  0  0  0  0  0  0  0  0  0
   14.2422   24.9501   -2.0178 C   0  0  0  0  0  0  0  0  0  0  0  0
   14.7878   25.2628   -3.3909 C   0  0  0  0  0  0  0  0  0  0  0  0
   15.4324   23.7337   -0.2667 N   0  0  0  0  0  0  0  0  0  0  0  0
   14.4331   23.5676    0.7564 C   0  0  0  0  0  0  0  0  0  0  0  0
   14.5599   23.8813    1.9811 O   0  0  0  0  0  0  0  0  0  0  0  0
   13.2633   22.9923    0.1911 N   0  0  0  0  0  0  0  0  0  0  0  0
   13.5581   22.8061   -1.1878 C   0  0  0  0  0  0  0  0  0  0  0  0
   12.8675   22.0644   -1.9344 O   0  0  0  0  0  0  0  0  0  0  0  0
   16.7966   23.9825    0.0572 C   0  0  0  0  0  0  0  0  0  0  0  0
   17.2668   24.0667    1.3342 C   0  0  0  0  0  0  0  0  0  0  0  0
   18.6099   24.3146    1.5294 C   0  0  0  0  0  0  0  0  0  0  0  0
   19.0107   24.3854    2.7335 O   0  0  0  0  0  0  0  0  0  0  0  0
   19.4722   24.4761    0.5065 N   0  0  0  0  0  0  0  0  0  0  0  0
   19.0007   24.3918   -0.7556 C   0  0  0  0  0  0  0  0  0  0  0  0
   17.7165   24.1549   -0.9442 N   0  0  0  0  0  0  0  0  0  0  0  0
   20.4828   24.6621    0.6866 H   0  0  0  0  0  0  0  0  0  0  0  0
   12.0335   22.6716    0.8676 C   0  0  0  0  0  0  0  0  0  0  0  0
   10.9501   23.5211    0.8919 C   0  0  0  0  0  0  0  0  0  0  0  0
    9.7917   23.1770    1.5580 C   0  0  0  0  0  0  0  0  0  0  0  0
    9.6540   21.9797    2.2281 C   0  0  0  0  0  0  0  0  0  0  0  0
   10.7286   21.1190    2.2125 C   0  0  0  0  0  0  0  0  0  0  0  0
   11.8957   21.4736    1.5373 C   0  0  0  0  0  0  0  0  0  0  0  0
    8.3946   21.6843    2.9211 C   0  0  0  0  0  0  0  0  0  0  0  0
    8.2731   21.7844    4.2898 C   0  0  0  0  0  0  0  0  0  0  0  0
    7.1090   21.5073    4.9521 C   0  0  0  0  0  0  0  0  0  0  0  0
    6.0106   21.1111    4.2182 C   0  0  0  0  0  0  0  0  0  0  0  0
    6.1105   21.0035    2.8336 C   0  0  0  0  0  0  0  0  0  0  0  0
    7.3044   21.2923    2.2023 C   0  0  0  0  0  0  0  0  0  0  0  0
    4.7391   20.7977    4.8586 C   0  0  0  0  0  0  0  0  0  0  0  0
    4.1777   19.5448    4.7944 O   0  0  0  0  0  0  0  0  0  0  0  0
    4.1535   21.7129    5.4838 O   0  0  0  0  0  0  0  0  0  0  0  0
    3.8833   19.0975    5.6760 H   0  0  0  0  0  0  0  0  0  0  0  0
   15.0013   24.6163   -5.6127 C   0  0  0  0  0  0  0  0  0  0  0  0
   15.6556   25.6692   -8.1242 C   0  0  0  0  0  0  0  0  0  0  0  0
   15.7372   26.5275   -6.9239 C   0  0  0  0  0  0  0  0  0  0  0  0
   16.1161   27.8375   -7.0398 C   0  0  0  0  0  0  0  0  0  0  0  0
   16.2031   28.6506   -5.9466 C   0  0  0  0  0  0  0  0  0  0  0  0
   15.9011   28.1238   -4.7189 C   0  0  0  0  0  0  0  0  0  0  0  0
   15.5372   26.8499   -4.6392 N   0  0  0  0  0  0  0  0  0  0  0  0
   15.4348   26.0125   -5.6670 C   0  0  0  0  0  0  0  0  0  0  0  0
 38 39  1  0  0  0
 39 40  2  0  0  0
 40 41  1  0  0  0
 41 42  2  0  0  0
 42 43  1  0  0  0
 43 44  2  0  0  0
 44 37  1  0  0  0
 37  1  1  0  0  0
  1  2  1  0  0  0
  2  3  1  0  0  0
  3  4  1  0  0  0
  4  5  1  0  0  0
  5  6  1  0  0  0
  4  7  1  0  0  0
  7  8  1  0  0  0
  8  9  2  0  0  0
  8 10  1  0  0  0
 10 11  1  0  0  0
 11 12  2  0  0  0
 10 21  1  0  0  0
 21 22  2  0  0  0
 22 23  1  0  0  0
 23 24  2  0  0  0
 24 25  1  0  0  0
 25 26  2  0  0  0
 24 27  1  0  0  0
 27 28  2  0  0  0
 28 29  1  0  0  0
 29 30  2  0  0  0
 30 31  1  0  0  0
 31 32  2  0  0  0
 30 33  1  0  0  0
 33 34  1  0  0  0
 33 35  2  0  0  0
  7 13  1  0  0  0
 13 14  2  0  0  0
 14 15  1  0  0  0
 15 16  2  0  0  0
 15 17  1  0  0  0
 17 18  1  0  0  0
 18 19  2  0  0  0
 44 39  1  0  0  0
  6  1  1  0  0  0
 26 21  1  0  0  0
 32 27  1  0  0  0
 19 13  1  0  0  0
 11  4  1  0  0  0
 34 36  1  0  0  0
 17 20  1  0  0  0
M  END
> <minimizedAffinity>
5.63709

> <CNNscore>
0.5678572655

> <CNNaffinity>
8.0429029465

> <CNN_VS>
4.5672206879

> <CNNaffinity_variance>
0.8042182922

$$$$
[H]OC(=O)c1c([H])c([H])c(-c2c([H])c([H])c(N3C(=O)N(c4nc([H])n([H])c(=O)c4[H])C4(C3=O)C([H])([H])C([H])([H])N(C([H])([H])c3nc([H])c([H])c([H])c3C([H])([H])[H])C([H])([H])C4([H])[H])c([H])c2[H])c([H])c1[H]


 44 49  0  0  0  0  0  0  0  0999 V2000
   15.2059   26.3657   -3.9258 N   0  0  0  0  0  0  0  0  0  0  0  0
   15.7325   25.0082   -4.0376 C   0  0  0  0  0  0  0  0  0  0  0  0
   16.2164   24.4280   -2.7649 C   0  0  0  0  0  0  0  0  0  0  0  0
   15.3116   24.6241   -1.6049 C   0  0  0  0  0  0  0  0  0  0  0  0
   14.8591   26.0660   -1.5210 C   0  0  0  0  0  0  0  0  0  0  0  0
   15.5295   26.8872   -2.5968 C   0  0  0  0  0  0  0  0  0  0  0  0
   15.8644   24.1696   -0.3569 N   0  0  0  0  0  0  0  0  0  0  0  0
   14.7760   23.6521    0.4308 C   0  0  0  0  0  0  0  0  0  0  0  0
   14.8020   23.4237    1.6804 O   0  0  0  0  0  0  0  0  0  0  0  0
   13.6477   23.4289   -0.4037 N   0  0  0  0  0  0  0  0  0  0  0  0
   14.0580   23.8131   -1.7102 C   0  0  0  0  0  0  0  0  0  0  0  0
   13.4192   23.4867   -2.7446 O   0  0  0  0  0  0  0  0  0  0  0  0
   17.2001   24.1849    0.1364 C   0  0  0  0  0  0  0  0  0  0  0  0
   18.2938   23.9271   -0.6358 C   0  0  0  0  0  0  0  0  0  0  0  0
   19.5419   23.9675   -0.0492 C   0  0  0  0  0  0  0  0  0  0  0  0
   20.5370   23.7225   -0.8012 O   0  0  0  0  0  0  0  0  0  0  0  0
   19.7194   24.2518    1.2560 N   0  0  0  0  0  0  0  0  0  0  0  0
   18.6327   24.5059    2.0155 C   0  0  0  0  0  0  0  0  0  0  0  0
   17.4382   24.4677    1.4562 N   0  0  0  0  0  0  0  0  0  0  0  0
   20.6765   24.2751    1.6704 H   0  0  0  0  0  0  0  0  0  0  0  0
   12.3567   22.9272   -0.0108 C   0  0  0  0  0  0  0  0  0  0  0  0
   11.3014   23.7506    0.3124 C   0  0  0  0  0  0  0  0  0  0  0  0
   10.0816   23.2277    0.6901 C   0  0  0  0  0  0  0  0  0  0  0  0
    9.8523   21.8700    0.7648 C   0  0  0  0  0  0  0  0  0  0  0  0
   10.8978   21.0334    0.4441 C   0  0  0  0  0  0  0  0  0  0  0  0
   12.1273   21.5691    0.0631 C   0  0  0  0  0  0  0  0  0  0  0  0
    8.5311   21.3858    1.1817 C   0  0  0  0  0  0  0  0  0  0  0  0
    7.7944   20.5158    0.4081 C   0  0  0  0  0  0  0  0  0  0  0  0
    6.5595   20.0596    0.7785 C   0  0  0  0  0  0  0  0  0  0  0  0
    6.0298   20.4888    1.9775 C   0  0  0  0  0  0  0  0  0  0  0  0
    6.7570   21.3678    2.7756 C   0  0  0  0  0  0  0  0  0  0  0  0
    8.0011   21.8056    2.3657 C   0  0  0  0  0  0  0  0  0  0  0  0
    4.7184   20.0448    2.4335 C   0  0  0  0  0  0  0  0  0  0  0  0
    4.1246   20.5582    3.5618 O   0  0  0  0  0  0  0  0  0  0  0  0
    4.1280   19.1661    1.7621 O   0  0  0  0  0  0  0  0  0  0  0  0
    3.1571   20.9081    3.4865 H   0  0  0  0  0  0  0  0  0  0  0  0
   15.9224   27.2060   -4.8649 C   0  0  0  0  0  0  0  0  0  0  0  0
   13.4453   26.5604   -6.0013 C   0  0  0  0  0  0  0  0  0  0  0  0
   14.6808   26.4095   -6.7982 C   0  0  0  0  0  0  0  0  0  0  0  0
   14.6146   25.9708   -8.0928 C   0  0  0  0  0  0  0  0  0  0  0  0
   15.7410   25.8193   -8.8492 C   0  0  0  0  0  0  0  0  0  0  0  0
   16.9509   26.1176   -8.2808 C   0  0  0  0  0  0  0  0  0  0  0  0
   16.9820   26.5405   -7.0231 N   0  0  0  0  0  0  0  0  0  0  0  0
   15.9203   26.7070   -6.2401 C   0  0  0  0  0  0  0  0  0  0  0  0
 38 39  1  0  0  0
 39 40  2  0  0  0
 40 41  1  0  0  0
 41 42  2  0  0  0
 42 43  1  0  0  0
 43 44  2  0  0  0
 44 37  1  0  0  0
 37  1  1  0  0  0
  1  2  1  0  0  0
  2  3  1  0  0  0
  3  4  1  0  0  0
  4  5  1  0  0  0
  5  6  1  0  0  0
  4  7  1  0  0  0
  7  8  1  0  0  0
  8  9  2  0  0  0
  8 10  1  0  0  0
 10 11  1  0  0  0
 11 12  2  0  0  0
 10 21  1  0  0  0
 21 22  2  0  0  0
 22 23  1  0  0  0
 23 24  2  0  0  0
 24 25  1  0  0  0
 25 26  2  0  0  0
 24 27  1  0  0  0
 27 28  2  0  0  0
 28 29  1  0  0  0
 29 30  2  0  0  0
 30 31  1  0  0  0
 31 32  2  0  0  0
 30 33  1  0  0  0
 33 34  1  0  0  0
 33 35  2  0  0  0
  7 13  1  0  0  0
 13 14  2  0  0  0
 14 15  1  0  0  0
 15 16  2  0  0  0
 15 17  1  0  0  0
 17 18  1  0  0  0
 18 19  2  0  0  0
 44 39  1  0  0  0
  6  1  1  0  0  0
 26 21  1  0  0  0
 32 27  1  0  0  0
 19 13  1  0  0  0
 11  4  1  0  0  0
 34 36  1  0  0  0
 17 20  1  0  0  0
M  END
> <minimizedAffinity>
14.31040

> <CNNscore>
0.5525807142

> <CNNaffinity>
8.0169534683

> <CNN_VS>
4.4300136566

> <CNNaffinity_variance>
1.2198657990

$$$$
[H]OC(=O)c1c([H])c([H])c(-c2c([H])c([H])c(N3C(=O)N(c4nc([H])n([H])c(=O)c4[H])C4(C3=O)C([H])([H])C([H])([H])N(C([H])([H])c3nc([H])c([H])c([H])c3C([H])([H])[H])C([H])([H])C4([H])[H])c([H])c2[H])c([H])c1[H]


 44 49  0  0  0  0  0  0  0  0999 V2000
   13.0254   26.6471   -3.8650 N   0  0  0  0  0  0  0  0  0  0  0  0
   13.5604   25.3205   -4.1598 C   0  0  0  0  0  0  0  0  0  0  0  0
   14.3617   24.7226   -3.0685 C   0  0  0  0  0  0  0  0  0  0  0  0
   13.7600   24.8371   -1.7166 C   0  0  0  0  0  0  0  0  0  0  0  0
   13.2868   26.2523   -1.4631 C   0  0  0  0  0  0  0  0  0  0  0  0
   13.6430   27.1394   -2.6325 C   0  0  0  0  0  0  0  0  0  0  0  0
   14.6173   24.3687   -0.6605 N   0  0  0  0  0  0  0  0  0  0  0  0
   13.7743   23.7743    0.3439 C   0  0  0  0  0  0  0  0  0  0  0  0
   14.1127   23.5065    1.5390 O   0  0  0  0  0  0  0  0  0  0  0  0
   12.4860   23.5252   -0.2015 N   0  0  0  0  0  0  0  0  0  0  0  0
   12.5505   23.9712   -1.5505 C   0  0  0  0  0  0  0  0  0  0  0  0
   11.6919   23.6489   -2.4128 O   0  0  0  0  0  0  0  0  0  0  0  0
   16.0313   24.4314   -0.5050 C   0  0  0  0  0  0  0  0  0  0  0  0
   16.6729   24.1958    0.6748 C   0  0  0  0  0  0  0  0  0  0  0  0
   18.0492   24.2875    0.7089 C   0  0  0  0  0  0  0  0  0  0  0  0
   18.6113   24.0604    1.8260 O   0  0  0  0  0  0  0  0  0  0  0  0
   18.7809   24.6005   -0.3786 N   0  0  0  0  0  0  0  0  0  0  0  0
   18.1400   24.8328   -1.5437 C   0  0  0  0  0  0  0  0  0  0  0  0
   16.8238   24.7457   -1.5782 N   0  0  0  0  0  0  0  0  0  0  0  0
   19.8208   24.6617   -0.3209 H   0  0  0  0  0  0  0  0  0  0  0  0
   11.3498   22.9498    0.4700 C   0  0  0  0  0  0  0  0  0  0  0  0
   11.2601   21.6095    0.7726 C   0  0  0  0  0  0  0  0  0  0  0  0
   10.1495   21.0979    1.4119 C   0  0  0  0  0  0  0  0  0  0  0  0
    9.0806   21.8878    1.7793 C   0  0  0  0  0  0  0  0  0  0  0  0
    9.1555   23.2306    1.4840 C   0  0  0  0  0  0  0  0  0  0  0  0
   10.2811   23.7403    0.8380 C   0  0  0  0  0  0  0  0  0  0  0  0
    7.9291   21.2729    2.4498 C   0  0  0  0  0  0  0  0  0  0  0  0
    6.7898   20.9142    1.7632 C   0  0  0  0  0  0  0  0  0  0  0  0
    5.7057   20.3459    2.3731 C   0  0  0  0  0  0  0  0  0  0  0  0
    5.7557   20.1224    3.7331 C   0  0  0  0  0  0  0  0  0  0  0  0
    6.8972   20.4767    4.4472 C   0  0  0  0  0  0  0  0  0  0  0  0
    7.9713   21.0487    3.7940 C   0  0  0  0  0  0  0  0  0  0  0  0
    4.6360   19.5226    4.4484 C   0  0  0  0  0  0  0  0  0  0  0  0
    4.1258   20.0724    5.6002 O   0  0  0  0  0  0  0  0  0  0  0  0
    4.1350   18.4720    3.9829 O   0  0  0  0  0  0  0  0  0  0  0  0
    3.1085   20.2350    5.6528 H   0  0  0  0  0  0  0  0  0  0  0  0
   13.4587   27.5509   -4.9121 C   0  0  0  0  0  0  0  0  0  0  0  0
   16.1934   28.1153   -4.6943 C   0  0  0  0  0  0  0  0  0  0  0  0
   15.7116   27.2170   -5.7644 C   0  0  0  0  0  0  0  0  0  0  0  0
   16.5998   26.6493   -6.6373 C   0  0  0  0  0  0  0  0  0  0  0  0
   16.1806   25.8191   -7.6367 C   0  0  0  0  0  0  0  0  0  0  0  0
   14.8398   25.5633   -7.7499 C   0  0  0  0  0  0  0  0  0  0  0  0
   14.0037   26.1291   -6.8883 N   0  0  0  0  0  0  0  0  0  0  0  0
   14.3537   26.9438   -5.8973 C   0  0  0  0  0  0  0  0  0  0  0  0
 38 39  1  0  0  0
 39 40  2  0  0  0
 40 41  1  0  0  0
 41 42  2  0  0  0
 42 43  1  0  0  0
 43 44  2  0  0  0
 44 37  1  0  0  0
 37  1  1  0  0  0
  1  2  1  0  0  0
  2  3  1  0  0  0
  3  4  1  0  0  0
  4  5  1  0  0  0
  5  6  1  0  0  0
  4  7  1  0  0  0
  7  8  1  0  0  0
  8  9  2  0  0  0
  8 10  1  0  0  0
 10 11  1  0  0  0
 11 12  2  0  0  0
 10 21  1  0  0  0
 21 22  2  0  0  0
 22 23  1  0  0  0
 23 24  2  0  0  0
 24 25  1  0  0  0
 25 26  2  0  0  0
 24 27  1  0  0  0
 27 28  2  0  0  0
 28 29  1  0  0  0
 29 30  2  0  0  0
 30 31  1  0  0  0
 31 32  2  0  0  0
 30 33  1  0  0  0
 33 34  1  0  0  0
 33 35  2  0  0  0
  7 13  1  0  0  0
 13 14  2  0  0  0
 14 15  1  0  0  0
 15 16  2  0  0  0
 15 17  1  0  0  0
 17 18  1  0  0  0
 18 19  2  0  0  0
 44 39  1  0  0  0
  6  1  1  0  0  0
 26 21  1  0  0  0
 32 27  1  0  0  0
 19 13  1  0  0  0
 11  4  1  0  0  0
 34 36  1  0  0  0
 17 20  1  0  0  0
M  END
> <minimizedAffinity>
4.60885

> <CNNscore>
0.5505154133

> <CNNaffinity>
7.9550733566

> <CNN_VS>
4.3793907166

> <CNNaffinity_variance>
1.1161662340

$$$$
[H]OC(=O)c1c([H])c([H])c(-c2c([H])c([H])c(N3C(=O)N(c4nc([H])n([H])c(=O)c4[H])C4(C3=O)C([H])([H])C([H])([H])N(C([H])([H])c3nc([H])c([H])c([H])c3C([H])([H])[H])C([H])([H])C4([H])[H])c([H])c2[H])c([H])c1[H]


 44 49  0  0  0  0  0  0  0  0999 V2000
    9.2210   24.5114    0.8964 N   0  0  0  0  0  0  0  0  0  0  0  0
   10.3769   24.8228    1.7330 C   0  0  0  0  0  0  0  0  0  0  0  0
   11.5316   23.9149    1.5517 C   0  0  0  0  0  0  0  0  0  0  0  0
   11.8787   23.6199    0.1391 C   0  0  0  0  0  0  0  0  0  0  0  0
   10.6398   23.2463   -0.6461 C   0  0  0  0  0  0  0  0  0  0  0  0
    9.4358   23.2084    0.2648 C   0  0  0  0  0  0  0  0  0  0  0  0
   12.9157   22.6337   -0.0077 N   0  0  0  0  0  0  0  0  0  0  0  0
   13.6914   22.9966   -1.1651 C   0  0  0  0  0  0  0  0  0  0  0  0
   14.5033   22.2416   -1.7858 O   0  0  0  0  0  0  0  0  0  0  0  0
   13.4147   24.3441   -1.5210 N   0  0  0  0  0  0  0  0  0  0  0  0
   12.4634   24.8024   -0.5680 C   0  0  0  0  0  0  0  0  0  0  0  0
   12.2058   26.0231   -0.4006 O   0  0  0  0  0  0  0  0  0  0  0  0
   13.2178   21.4715    0.7576 C   0  0  0  0  0  0  0  0  0  0  0  0
   12.3567   20.9125    1.6547 C   0  0  0  0  0  0  0  0  0  0  0  0
   12.7579   19.7861    2.3431 C   0  0  0  0  0  0  0  0  0  0  0  0
   11.9277   19.2936    3.1700 O   0  0  0  0  0  0  0  0  0  0  0  0
   13.9669   19.2194    2.1617 N   0  0  0  0  0  0  0  0  0  0  0  0
   14.8153   19.7775    1.2723 C   0  0  0  0  0  0  0  0  0  0  0  0
   14.4333   20.8547    0.6130 N   0  0  0  0  0  0  0  0  0  0  0  0
   14.2411   18.3672    2.6974 H   0  0  0  0  0  0  0  0  0  0  0  0
   13.9721   25.0893   -2.6195 C   0  0  0  0  0  0  0  0  0  0  0  0
   13.1965   25.6828   -3.5902 C   0  0  0  0  0  0  0  0  0  0  0  0
   13.7723   26.3832   -4.6304 C   0  0  0  0  0  0  0  0  0  0  0  0
   15.1380   26.5271   -4.7561 C   0  0  0  0  0  0  0  0  0  0  0  0
   15.9272   25.9397   -3.7928 C   0  0  0  0  0  0  0  0  0  0  0  0
   15.3381   25.2337   -2.7447 C   0  0  0  0  0  0  0  0  0  0  0  0
   15.6800   27.2798   -5.8934 C   0  0  0  0  0  0  0  0  0  0  0  0
   15.7575   28.6553   -5.8887 C   0  0  0  0  0  0  0  0  0  0  0  0
   16.2540   29.3726   -6.9420 C   0  0  0  0  0  0  0  0  0  0  0  0
   16.6959   28.6894   -8.0556 C   0  0  0  0  0  0  0  0  0  0  0  0
   16.6273   27.2990   -8.0821 C   0  0  0  0  0  0  0  0  0  0  0  0
   16.1189   26.6113   -6.9976 C   0  0  0  0  0  0  0  0  0  0  0  0
   17.2347   29.3897   -9.2150 C   0  0  0  0  0  0  0  0  0  0  0  0
   18.5723   29.6823   -9.3355 O   0  0  0  0  0  0  0  0  0  0  0  0
   16.4376   29.7278  -10.1214 O   0  0  0  0  0  0  0  0  0  0  0  0
   19.0534   29.4107  -10.2067 H   0  0  0  0  0  0  0  0  0  0  0  0
    8.0698   24.3459    1.7616 C   0  0  0  0  0  0  0  0  0  0  0  0
    7.9248   22.8210    4.1064 C   0  0  0  0  0  0  0  0  0  0  0  0
    8.1157   24.2840    4.1921 C   0  0  0  0  0  0  0  0  0  0  0  0
    8.2373   24.8912    5.4126 C   0  0  0  0  0  0  0  0  0  0  0  0
    8.4106   26.2411    5.5196 C   0  0  0  0  0  0  0  0  0  0  0  0
    8.4604   26.9834    4.3696 C   0  0  0  0  0  0  0  0  0  0  0  0
    8.3392   26.3653    3.2013 N   0  0  0  0  0  0  0  0  0  0  0  0
    8.1691   25.0569    3.0362 C   0  0  0  0  0  0  0  0  0  0  0  0
 38 39  1  0  0  0
 39 40  2  0  0  0
 40 41  1  0  0  0
 41 42  2  0  0  0
 42 43  1  0  0  0
 43 44  2  0  0  0
 44 37  1  0  0  0
 37  1  1  0  0  0
  1  2  1  0  0  0
  2  3  1  0  0  0
  3  4  1  0  0  0
  4  5  1  0  0  0
  5  6  1  0  0  0
  4  7  1  0  0  0
  7  8  1  0  0  0
  8  9  2  0  0  0
  8 10  1  0  0  0
 10 11  1  0  0  0
 11 12  2  0  0  0
 10 21  1  0  0  0
 21 22  2  0  0  0
 22 23  1  0  0  0
 23 24  2  0  0  0
 24 25  1  0  0  0
 25 26  2  0  0  0
 24 27  1  0  0  0
 27 28  2  0  0  0
 28 29  1  0  0  0
 29 30  2  0  0  0
 30 31  1  0  0  0
 31 32  2  0  0  0
 30 33  1  0  0  0
 33 34  1  0  0  0
 33 35  2  0  0  0
  7 13  1  0  0  0
 13 14  2  0  0  0
 14 15  1  0  0  0
 15 16  2  0  0  0
 15 17  1  0  0  0
 17 18  1  0  0  0
 18 19  2  0  0  0
 44 39  1  0  0  0
  6  1  1  0  0  0
 26 21  1  0  0  0
 32 27  1  0  0  0
 19 13  1  0  0  0
 11  4  1  0  0  0
 34 36  1  0  0  0
 17 20  1  0  0  0
M  END
> <minimizedAffinity>
12.97461

> <CNNscore>
0.5498333573

> <CNNaffinity>
7.6788339615

> <CNN_VS>
4.2220792770

> <CNNaffinity_variance>
0.1040869728

$$$$
[H]OC(=O)c1c([H])c([H])c(-c2c([H])c([H])c(N3C(=O)N(c4nc([H])n([H])c(=O)c4[H])C4(C3=O)C([H])([H])C([H])([H])N(C([H])([H])c3nc([H])c([H])c([H])c3C([H])([H])[H])C([H])([H])C4([H])[H])c([H])c2[H])c([H])c1[H]


 44 49  0  0  0  0  0  0  0  0999 V2000
   10.2991   22.1642   -0.6200 N   0  0  0  0  0  0  0  0  0  0  0  0
   10.8838   23.1423    0.2935 C   0  0  0  0  0  0  0  0  0  0  0  0
   12.3383   22.9843    0.5172 C   0  0  0  0  0  0  0  0  0  0  0  0
   13.1391   22.7622   -0.7125 C   0  0  0  0  0  0  0  0  0  0  0  0
   12.5034   21.6935   -1.5754 C   0  0  0  0  0  0  0  0  0  0  0  0
   11.2890   21.1189   -0.8853 C   0  0  0  0  0  0  0  0  0  0  0  0
   14.5261   22.4795   -0.4561 N   0  0  0  0  0  0  0  0  0  0  0  0
   15.2882   23.0667   -1.5272 C   0  0  0  0  0  0  0  0  0  0  0  0
   16.4969   22.8016   -1.8155 O   0  0  0  0  0  0  0  0  0  0  0  0
   14.4813   24.0023   -2.2292 N   0  0  0  0  0  0  0  0  0  0  0  0
   13.2185   23.9829   -1.5749 C   0  0  0  0  0  0  0  0  0  0  0  0
   12.3546   24.8831   -1.7422 O   0  0  0  0  0  0  0  0  0  0  0  0
   15.1556   21.7595    0.5989 C   0  0  0  0  0  0  0  0  0  0  0  0
   14.8911   20.4530    0.8850 C   0  0  0  0  0  0  0  0  0  0  0  0
   15.5603   19.8570    1.9340 C   0  0  0  0  0  0  0  0  0  0  0  0
   15.2876   18.6381    2.1695 O   0  0  0  0  0  0  0  0  0  0  0  0
   16.4639   20.5174    2.6846 N   0  0  0  0  0  0  0  0  0  0  0  0
   16.7214   21.8109    2.3967 C   0  0  0  0  0  0  0  0  0  0  0  0
   16.0823   22.3825    1.3938 N   0  0  0  0  0  0  0  0  0  0  0  0
   16.9540   20.0387    3.4714 H   0  0  0  0  0  0  0  0  0  0  0  0
   14.8573   24.7981   -3.3685 C   0  0  0  0  0  0  0  0  0  0  0  0
   14.8304   24.3166   -4.6583 C   0  0  0  0  0  0  0  0  0  0  0  0
   15.2053   25.1118   -5.7218 C   0  0  0  0  0  0  0  0  0  0  0  0
   15.6226   26.4157   -5.5569 C   0  0  0  0  0  0  0  0  0  0  0  0
   15.6545   26.9120   -4.2729 C   0  0  0  0  0  0  0  0  0  0  0  0
   15.2740   26.1025   -3.2034 C   0  0  0  0  0  0  0  0  0  0  0  0
   16.0137   27.1999   -6.7342 C   0  0  0  0  0  0  0  0  0  0  0  0
   16.5187   26.6081   -7.8712 C   0  0  0  0  0  0  0  0  0  0  0  0
   16.8935   27.3240   -8.9745 C   0  0  0  0  0  0  0  0  0  0  0  0
   16.7599   28.6964   -8.9473 C   0  0  0  0  0  0  0  0  0  0  0  0
   16.2514   29.3158   -7.8087 C   0  0  0  0  0  0  0  0  0  0  0  0
   15.8843   28.5570   -6.7147 C   0  0  0  0  0  0  0  0  0  0  0  0
   17.1416   29.5219  -10.0865 C   0  0  0  0  0  0  0  0  0  0  0  0
   18.3495   30.1753  -10.1434 O   0  0  0  0  0  0  0  0  0  0  0  0
   16.3295   29.6272  -11.0356 O   0  0  0  0  0  0  0  0  0  0  0  0
   18.9312   30.0505  -10.9862 H   0  0  0  0  0  0  0  0  0  0  0  0
    9.2039   21.5062    0.0646 C   0  0  0  0  0  0  0  0  0  0  0  0
   10.2852   20.7402    2.5321 C   0  0  0  0  0  0  0  0  0  0  0  0
    9.2918   21.8328    2.4728 C   0  0  0  0  0  0  0  0  0  0  0  0
    8.9123   22.4799    3.6175 C   0  0  0  0  0  0  0  0  0  0  0  0
    7.9941   23.4897    3.5907 C   0  0  0  0  0  0  0  0  0  0  0  0
    7.4542   23.8459    2.3833 C   0  0  0  0  0  0  0  0  0  0  0  0
    7.8425   23.1991    1.2912 N   0  0  0  0  0  0  0  0  0  0  0  0
    8.7310   22.2104    1.2566 C   0  0  0  0  0  0  0  0  0  0  0  0
 38 39  1  0  0  0
 39 40  2  0  0  0
 40 41  1  0  0  0
 41 42  2  0  0  0
 42 43  1  0  0  0
 43 44  2  0  0  0
 44 37  1  0  0  0
 37  1  1  0  0  0
  1  2  1  0  0  0
  2  3  1  0  0  0
  3  4  1  0  0  0
  4  5  1  0  0  0
  5  6  1  0  0  0
  4  7  1  0  0  0
  7  8  1  0  0  0
  8  9  2  0  0  0
  8 10  1  0  0  0
 10 11  1  0  0  0
 11 12  2  0  0  0
 10 21  1  0  0  0
 21 22  2  0  0  0
 22 23  1  0  0  0
 23 24  2  0  0  0
 24 25  1  0  0  0
 25 26  2  0  0  0
 24 27  1  0  0  0
 27 28  2  0  0  0
 28 29  1  0  0  0
 29 30  2  0  0  0
 30 31  1  0  0  0
 31 32  2  0  0  0
 30 33  1  0  0  0
 33 34  1  0  0  0
 33 35  2  0  0  0
  7 13  1  0  0  0
 13 14  2  0  0  0
 14 15  1  0  0  0
 15 16  2  0  0  0
 15 17  1  0  0  0
 17 18  1  0  0  0
 18 19  2  0  0  0
 44 39  1  0  0  0
  6  1  1  0  0  0
 26 21  1  0  0  0
 32 27  1  0  0  0
 19 13  1  0  0  0
 11  4  1  0  0  0
 34 36  1  0  0  0
 17 20  1  0  0  0
M  END
> <minimizedAffinity>
35.74673

> <CNNscore>
0.4464080036

> <CNNaffinity>
7.5586385727

> <CNN_VS>
3.3742368221

> <CNNaffinity_variance>
0.1995361447

$$$$
[H]OC(=O)c1c([H])c([H])c(-c2c([H])c([H])c(N3C(=O)N(c4nc([H])n([H])c(=O)c4[H])C4(C3=O)C([H])([H])C([H])([H])N(C([H])([H])c3nc([H])c([H])c([H])c3C([H])([H])[H])C([H])([H])C4([H])[H])c([H])c2[H])c([H])c1[H]


 44 49  0  0  0  0  0  0  0  0999 V2000
   14.9429   24.2259   -4.7454 N   0  0  0  0  0  0  0  0  0  0  0  0
   15.7653   23.2331   -4.0592 C   0  0  0  0  0  0  0  0  0  0  0  0
   15.7495   23.3338   -2.5827 C   0  0  0  0  0  0  0  0  0  0  0  0
   14.4036   23.5120   -1.9830 C   0  0  0  0  0  0  0  0  0  0  0  0
   13.6379   24.5979   -2.7078 C   0  0  0  0  0  0  0  0  0  0  0  0
   14.5055   25.2276   -3.7716 C   0  0  0  0  0  0  0  0  0  0  0  0
   14.4289   23.7402   -0.5628 N   0  0  0  0  0  0  0  0  0  0  0  0
   13.2583   23.1128   -0.0070 C   0  0  0  0  0  0  0  0  0  0  0  0
   12.7751   23.3259    1.1486 O   0  0  0  0  0  0  0  0  0  0  0  0
   12.7100   22.2046   -0.9523 N   0  0  0  0  0  0  0  0  0  0  0  0
   13.5587   22.2813   -2.0911 C   0  0  0  0  0  0  0  0  0  0  0  0
   13.5466   21.4156   -3.0050 O   0  0  0  0  0  0  0  0  0  0  0  0
   15.3576   24.4435    0.2562 C   0  0  0  0  0  0  0  0  0  0  0  0
   16.6299   24.0155    0.4949 C   0  0  0  0  0  0  0  0  0  0  0  0
   17.4425   24.7781    1.3083 C   0  0  0  0  0  0  0  0  0  0  0  0
   18.6216   24.3470    1.5068 O   0  0  0  0  0  0  0  0  0  0  0  0
   17.0258   25.9279    1.8742 N   0  0  0  0  0  0  0  0  0  0  0  0
   15.7650   26.3464    1.6344 C   0  0  0  0  0  0  0  0  0  0  0  0
   14.9865   25.6184    0.8567 N   0  0  0  0  0  0  0  0  0  0  0  0
   17.6645   26.4828    2.4847 H   0  0  0  0  0  0  0  0  0  0  0  0
   11.5375   21.3839   -0.7963 C   0  0  0  0  0  0  0  0  0  0  0  0
   11.5420   20.1995   -0.0939 C   0  0  0  0  0  0  0  0  0  0  0  0
   10.3965   19.4398    0.0260 C   0  0  0  0  0  0  0  0  0  0  0  0
    9.1981   19.8171   -0.5425 C   0  0  0  0  0  0  0  0  0  0  0  0
    9.1773   20.9995   -1.2478 C   0  0  0  0  0  0  0  0  0  0  0  0
   10.3388   21.7619   -1.3645 C   0  0  0  0  0  0  0  0  0  0  0  0
    8.0220   18.9547   -0.3798 C   0  0  0  0  0  0  0  0  0  0  0  0
    6.8058   19.4490    0.0382 C   0  0  0  0  0  0  0  0  0  0  0  0
    5.7016   18.6587    0.2008 C   0  0  0  0  0  0  0  0  0  0  0  0
    5.8106   17.3099   -0.0654 C   0  0  0  0  0  0  0  0  0  0  0  0
    7.0300   16.7885   -0.4894 C   0  0  0  0  0  0  0  0  0  0  0  0
    8.1220   17.6203   -0.6412 C   0  0  0  0  0  0  0  0  0  0  0  0
    4.6752   16.4086    0.0887 C   0  0  0  0  0  0  0  0  0  0  0  0
    4.1233   15.7396   -0.9775 O   0  0  0  0  0  0  0  0  0  0  0  0
    4.2006   16.2510    1.2382 O   0  0  0  0  0  0  0  0  0  0  0  0
    3.9935   14.7194   -0.8976 H   0  0  0  0  0  0  0  0  0  0  0  0
   15.7846   24.9341   -5.6894 C   0  0  0  0  0  0  0  0  0  0  0  0
   14.8373   27.1081   -7.1794 C   0  0  0  0  0  0  0  0  0  0  0  0
   15.6850   27.3449   -5.9923 C   0  0  0  0  0  0  0  0  0  0  0  0
   15.9940   28.6227   -5.6118 C   0  0  0  0  0  0  0  0  0  0  0  0
   16.7780   28.8686   -4.5215 C   0  0  0  0  0  0  0  0  0  0  0  0
   17.2545   27.8003   -3.8090 C   0  0  0  0  0  0  0  0  0  0  0  0
   16.9374   26.5733   -4.2035 N   0  0  0  0  0  0  0  0  0  0  0  0
   16.1796   26.2738   -5.2543 C   0  0  0  0  0  0  0  0  0  0  0  0
 38 39  1  0  0  0
 39 40  2  0  0  0
 40 41  1  0  0  0
 41 42  2  0  0  0
 42 43  1  0  0  0
 43 44  2  0  0  0
 44 37  1  0  0  0
 37  1  1  0  0  0
  1  2  1  0  0  0
  2  3  1  0  0  0
  3  4  1  0  0  0
  4  5  1  0  0  0
  5  6  1  0  0  0
  4  7  1  0  0  0
  7  8  1  0  0  0
  8  9  2  0  0  0
  8 10  1  0  0  0
 10 11  1  0  0  0
 11 12  2  0  0  0
 10 21  1  0  0  0
 21 22  2  0  0  0
 22 23  1  0  0  0
 23 24  2  0  0  0
 24 25  1  0  0  0
 25 26  2  0  0  0
 24 27  1  0  0  0
 27 28  2  0  0  0
 28 29  1  0  0  0
 29 30  2  0  0  0
 30 31  1  0  0  0
 31 32  2  0  0  0
 30 33  1  0  0  0
 33 34  1  0  0  0
 33 35  2  0  0  0
  7 13  1  0  0  0
 13 14  2  0  0  0
 14 15  1  0  0  0
 15 16  2  0  0  0
 15 17  1  0  0  0
 17 18  1  0  0  0
 18 19  2  0  0  0
 44 39  1  0  0  0
  6  1  1  0  0  0
 26 21  1  0  0  0
 32 27  1  0  0  0
 19 13  1  0  0  0
 11  4  1  0  0  0
 34 36  1  0  0  0
 17 20  1  0  0  0
M  END
> <minimizedAffinity>
3.91751

> <CNNscore>
0.4273414314

> <CNNaffinity>
7.7568941116

> <CNN_VS>
3.3148422241

> <CNNaffinity_variance>
0.4843305647

$$$$
[H]OC(=O)c1c([H])c([H])c(-c2c([H])c([H])c(N3C(=O)N(c4nc([H])n([H])c(=O)c4[H])C4(C3=O)C([H])([H])C([H])([H])N(C([H])([H])c3nc([H])c([H])c([H])c3C([H])([H])[H])C([H])([H])C4([H])[H])c([H])c2[H])c([H])c1[H]


 44 49  0  0  0  0  0  0  0  0999 V2000
   10.6090   20.8791   -1.0518 N   0  0  0  0  0  0  0  0  0  0  0  0
   10.8385   21.7120    0.1257 C   0  0  0  0  0  0  0  0  0  0  0  0
   12.2618   21.8766    0.4964 C   0  0  0  0  0  0  0  0  0  0  0  0
   13.1714   22.1801   -0.6365 C   0  0  0  0  0  0  0  0  0  0  0  0
   12.9149   21.2368   -1.7920 C   0  0  0  0  0  0  0  0  0  0  0  0
   11.8650   20.2195   -1.4126 C   0  0  0  0  0  0  0  0  0  0  0  0
   14.5626   22.2029   -0.2709 N   0  0  0  0  0  0  0  0  0  0  0  0
   15.2004   23.2130   -1.0746 C   0  0  0  0  0  0  0  0  0  0  0  0
   16.4513   23.3436   -1.2545 O   0  0  0  0  0  0  0  0  0  0  0  0
   14.2133   24.0588   -1.6487 N   0  0  0  0  0  0  0  0  0  0  0  0
   12.9655   23.5570   -1.1860 C   0  0  0  0  0  0  0  0  0  0  0  0
   11.8987   24.2212   -1.2591 O   0  0  0  0  0  0  0  0  0  0  0  0
   15.2967   21.4251    0.6692 C   0  0  0  0  0  0  0  0  0  0  0  0
   15.2911   20.0619    0.6903 C   0  0  0  0  0  0  0  0  0  0  0  0
   16.0396   19.4122    1.6501 C   0  0  0  0  0  0  0  0  0  0  0  0
   16.0097   18.1416    1.6374 O   0  0  0  0  0  0  0  0  0  0  0  0
   16.7743   20.0741    2.5655 N   0  0  0  0  0  0  0  0  0  0  0  0
   16.7757   21.4238    2.5398 C   0  0  0  0  0  0  0  0  0  0  0  0
   16.0605   22.0468    1.6226 N   0  0  0  0  0  0  0  0  0  0  0  0
   17.3303   19.5540    3.2788 H   0  0  0  0  0  0  0  0  0  0  0  0
   14.4276   25.1832   -2.5220 C   0  0  0  0  0  0  0  0  0  0  0  0
   13.5037   25.5884   -3.4592 C   0  0  0  0  0  0  0  0  0  0  0  0
   13.7520   26.6685   -4.2812 C   0  0  0  0  0  0  0  0  0  0  0  0
   14.9227   27.3940   -4.2127 C   0  0  0  0  0  0  0  0  0  0  0  0
   15.8564   27.0014   -3.2800 C   0  0  0  0  0  0  0  0  0  0  0  0
   15.5984   25.9091   -2.4528 C   0  0  0  0  0  0  0  0  0  0  0  0
   15.1211   28.5268   -5.1245 C   0  0  0  0  0  0  0  0  0  0  0  0
   15.7268   28.3783   -6.3529 C   0  0  0  0  0  0  0  0  0  0  0  0
   15.9249   29.4238   -7.2120 C   0  0  0  0  0  0  0  0  0  0  0  0
   15.4998   30.6796   -6.8321 C   0  0  0  0  0  0  0  0  0  0  0  0
   14.8848   30.8529   -5.5950 C   0  0  0  0  0  0  0  0  0  0  0  0
   14.7034   29.7711   -4.7558 C   0  0  0  0  0  0  0  0  0  0  0  0
   15.6807   31.8392   -7.6967 C   0  0  0  0  0  0  0  0  0  0  0  0
   14.6178   32.5016   -8.2629 O   0  0  0  0  0  0  0  0  0  0  0  0
   16.8506   32.2308   -7.9194 O   0  0  0  0  0  0  0  0  0  0  0  0
   14.5655   33.5255   -8.1487 H   0  0  0  0  0  0  0  0  0  0  0  0
    9.6968   19.8153   -0.6808 C   0  0  0  0  0  0  0  0  0  0  0  0
    8.6482   22.3220   -0.0017 C   0  0  0  0  0  0  0  0  0  0  0  0
    7.7973   21.3336   -0.6967 C   0  0  0  0  0  0  0  0  0  0  0  0
    6.5054   21.6466   -1.0222 C   0  0  0  0  0  0  0  0  0  0  0  0
    5.6973   20.7505   -1.6608 C   0  0  0  0  0  0  0  0  0  0  0  0
    6.2102   19.5192   -1.9720 C   0  0  0  0  0  0  0  0  0  0  0  0
    7.4666   19.2458   -1.6428 N   0  0  0  0  0  0  0  0  0  0  0  0
    8.2985   20.0769   -1.0221 C   0  0  0  0  0  0  0  0  0  0  0  0
 38 39  1  0  0  0
 39 40  2  0  0  0
 40 41  1  0  0  0
 41 42  2  0  0  0
 42 43  1  0  0  0
 43 44  2  0  0  0
 44 37  1  0  0  0
 37  1  1  0  0  0
  1  2  1  0  0  0
  2  3  1  0  0  0
  3  4  1  0  0  0
  4  5  1  0  0  0
  5  6  1  0  0  0
  4  7  1  0  0  0
  7  8  1  0  0  0
  8  9  2  0  0  0
  8 10  1  0  0  0
 10 11  1  0  0  0
 11 12  2  0  0  0
 10 21  1  0  0  0
 21 22  2  0  0  0
 22 23  1  0  0  0
 23 24  2  0  0  0
 24 25  1  0  0  0
 25 26  2  0  0  0
 24 27  1  0  0  0
 27 28  2  0  0  0
 28 29  1  0  0  0
 29 30  2  0  0  0
 30 31  1  0  0  0
 31 32  2  0  0  0
 30 33  1  0  0  0
 33 34  1  0  0  0
 33 35  2  0  0  0
  7 13  1  0  0  0
 13 14  2  0  0  0
 14 15  1  0  0  0
 15 16  2  0  0  0
 15 17  1  0  0  0
 17 18  1  0  0  0
 18 19  2  0  0  0
 44 39  1  0  0  0
  6  1  1  0  0  0
 26 21  1  0  0  0
 32 27  1  0  0  0
 19 13  1  0  0  0
 11  4  1  0  0  0
 34 36  1  0  0  0
 17 20  1  0  0  0
M  END
> <minimizedAffinity>
37.48719

> <CNNscore>
0.3898600638

> <CNNaffinity>
7.2305641174

> <CNN_VS>
2.8189082146

> <CNNaffinity_variance>
0.3878430426

$$$$
[H]OC(=O)c1c([H])c([H])c(-c2c([H])c([H])c(N3C(=O)N(c4nc([H])n([H])c(=O)c4[H])C4(C3=O)C([H])([H])C([H])([H])N(C([H])([H])c3nc([H])c([H])c([H])c3C([H])([H])[H])C([H])([H])C4([H])[H])c([H])c2[H])c([H])c1[H]


 44 49  0  0  0  0  0  0  0  0999 V2000
   15.8242   25.5540   -2.9795 N   0  0  0  0  0  0  0  0  0  0  0  0
   15.2474   26.6649   -2.2271 C   0  0  0  0  0  0  0  0  0  0  0  0
   13.8075   26.8976   -2.4781 C   0  0  0  0  0  0  0  0  0  0  0  0
   12.9671   25.6742   -2.4755 C   0  0  0  0  0  0  0  0  0  0  0  0
   13.5994   24.5928   -3.3251 C   0  0  0  0  0  0  0  0  0  0  0  0
   14.8547   25.1134   -3.9840 C   0  0  0  0  0  0  0  0  0  0  0  0
   11.5993   25.9115   -2.8527 N   0  0  0  0  0  0  0  0  0  0  0  0
   10.7809   25.0064   -2.0886 C   0  0  0  0  0  0  0  0  0  0  0  0
    9.5700   24.7086   -2.3325 O   0  0  0  0  0  0  0  0  0  0  0  0
   11.5340   24.4838   -1.0029 N   0  0  0  0  0  0  0  0  0  0  0  0
   12.8207   25.0804   -1.1094 C   0  0  0  0  0  0  0  0  0  0  0  0
   13.6521   25.0721   -0.1642 O   0  0  0  0  0  0  0  0  0  0  0  0
   11.0308   26.8178   -3.7925 C   0  0  0  0  0  0  0  0  0  0  0  0
    9.8184   26.6284   -4.3867 C   0  0  0  0  0  0  0  0  0  0  0  0
    9.3677   27.5730   -5.2855 C   0  0  0  0  0  0  0  0  0  0  0  0
    8.2330   27.3621   -5.8182 O   0  0  0  0  0  0  0  0  0  0  0  0
   10.0801   28.6736   -5.5971 N   0  0  0  0  0  0  0  0  0  0  0  0
   11.2799   28.8556   -5.0057 C   0  0  0  0  0  0  0  0  0  0  0  0
   11.7125   27.9532   -4.1458 N   0  0  0  0  0  0  0  0  0  0  0  0
    9.7118   29.3703   -6.2808 H   0  0  0  0  0  0  0  0  0  0  0  0
   11.0928   23.5421   -0.0072 C   0  0  0  0  0  0  0  0  0  0  0  0
   11.4152   22.2040   -0.0490 C   0  0  0  0  0  0  0  0  0  0  0  0
   10.9658   21.3339    0.9230 C   0  0  0  0  0  0  0  0  0  0  0  0
   10.1791   21.7480    1.9772 C   0  0  0  0  0  0  0  0  0  0  0  0
    9.8485   23.0834    2.0332 C   0  0  0  0  0  0  0  0  0  0  0  0
   10.3064   23.9566    1.0474 C   0  0  0  0  0  0  0  0  0  0  0  0
    9.7316   20.7643    2.9702 C   0  0  0  0  0  0  0  0  0  0  0  0
   10.5332   20.3676    4.0180 C   0  0  0  0  0  0  0  0  0  0  0  0
   10.1344   19.4481    4.9485 C   0  0  0  0  0  0  0  0  0  0  0  0
    8.8763   18.8950    4.8325 C   0  0  0  0  0  0  0  0  0  0  0  0
    8.0489   19.2816    3.7815 C   0  0  0  0  0  0  0  0  0  0  0  0
    8.4891   20.2135    2.8621 C   0  0  0  0  0  0  0  0  0  0  0  0
    8.3870   17.9077    5.7869 C   0  0  0  0  0  0  0  0  0  0  0  0
    7.0742   17.8710    6.1922 O   0  0  0  0  0  0  0  0  0  0  0  0
    9.2044   17.0731    6.2417 O   0  0  0  0  0  0  0  0  0  0  0  0
    6.5721   16.9717    6.1352 H   0  0  0  0  0  0  0  0  0  0  0  0
   16.9627   26.0560   -3.7232 C   0  0  0  0  0  0  0  0  0  0  0  0
   15.7416   24.5283   -5.7280 C   0  0  0  0  0  0  0  0  0  0  0  0
   15.9888   25.9684   -5.9497 C   0  0  0  0  0  0  0  0  0  0  0  0
   15.6083   26.5585   -7.1245 C   0  0  0  0  0  0  0  0  0  0  0  0
   15.8283   27.8858   -7.3558 C   0  0  0  0  0  0  0  0  0  0  0  0
   16.4440   28.6227   -6.3792 C   0  0  0  0  0  0  0  0  0  0  0  0
   16.8013   28.0215   -5.2511 N   0  0  0  0  0  0  0  0  0  0  0  0
   16.6130   26.7354   -4.9707 C   0  0  0  0  0  0  0  0  0  0  0  0
 38 39  1  0  0  0
 39 40  2  0  0  0
 40 41  1  0  0  0
 41 42  2  0  0  0
 42 43  1  0  0  0
 43 44  2  0  0  0
 44 37  1  0  0  0
 37  1  1  0  0  0
  1  2  1  0  0  0
  2  3  1  0  0  0
  3  4  1  0  0  0
  4  5  1  0  0  0
  5  6  1  0  0  0
  4  7  1  0  0  0
  7  8  1  0  0  0
  8  9  2  0  0  0
  8 10  1  0  0  0
 10 11  1  0  0  0
 11 12  2  0  0  0
 10 21  1  0  0  0
 21 22  2  0  0  0
 22 23  1  0  0  0
 23 24  2  0  0  0
 24 25  1  0  0  0
 25 26  2  0  0  0
 24 27  1  0  0  0
 27 28  2  0  0  0
 28 29  1  0  0  0
 29 30  2  0  0  0
 30 31  1  0  0  0
 31 32  2  0  0  0
 30 33  1  0  0  0
 33 34  1  0  0  0
 33 35  2  0  0  0
  7 13  1  0  0  0
 13 14  2  0  0  0
 14 15  1  0  0  0
 15 16  2  0  0  0
 15 17  1  0  0  0
 17 18  1  0  0  0
 18 19  2  0  0  0
 44 39  1  0  0  0
  6  1  1  0  0  0
 26 21  1  0  0  0
 32 27  1  0  0  0
 19 13  1  0  0  0
 11  4  1  0  0  0
 34 36  1  0  0  0
 17 20  1  0  0  0
M  END
> <minimizedAffinity>
33.04537

> <CNNscore>
0.3867215514

> <CNNaffinity>
6.8461427689

> <CNN_VS>
2.6475510597

> <CNNaffinity_variance>
0.7668533921

$$$$
[H]OC(=O)c1c([H])c([H])c(-c2c([H])c([H])c(N3C(=O)N(c4nc([H])n([H])c(=O)c4[H])C4(C3=O)C([H])([H])C([H])([H])N(C([H])([H])c3nc([H])c([H])c([H])c3C([H])([H])[H])C([H])([H])C4([H])[H])c([H])c2[H])c([H])c1[H]


 44 49  0  0  0  0  0  0  0  0999 V2000
   15.8411   26.5243   -2.8618 N   0  0  0  0  0  0  0  0  0  0  0  0
   14.8135   26.2661   -3.8668 C   0  0  0  0  0  0  0  0  0  0  0  0
   14.3877   24.8520   -3.9639 C   0  0  0  0  0  0  0  0  0  0  0  0
   14.1312   24.1860   -2.6624 C   0  0  0  0  0  0  0  0  0  0  0  0
   15.2674   24.4486   -1.6975 C   0  0  0  0  0  0  0  0  0  0  0  0
   16.3572   25.2428   -2.3778 C   0  0  0  0  0  0  0  0  0  0  0  0
   13.8495   22.7800   -2.7780 N   0  0  0  0  0  0  0  0  0  0  0  0
   12.8918   22.4493   -1.7550 C   0  0  0  0  0  0  0  0  0  0  0  0
   12.6087   21.2794   -1.3480 O   0  0  0  0  0  0  0  0  0  0  0  0
   12.2974   23.6396   -1.2559 N   0  0  0  0  0  0  0  0  0  0  0  0
   12.8997   24.7014   -1.9858 C   0  0  0  0  0  0  0  0  0  0  0  0
   12.4177   25.8640   -2.0130 O   0  0  0  0  0  0  0  0  0  0  0  0
   14.3585   21.7931   -3.6695 C   0  0  0  0  0  0  0  0  0  0  0  0
   13.5790   21.0768   -4.5287 C   0  0  0  0  0  0  0  0  0  0  0  0
   14.1815   20.1429   -5.3462 C   0  0  0  0  0  0  0  0  0  0  0  0
   13.4223   19.4957   -6.1338 O   0  0  0  0  0  0  0  0  0  0  0  0
   15.5092   19.9132   -5.3267 N   0  0  0  0  0  0  0  0  0  0  0  0
   16.2758   20.6253   -4.4737 C   0  0  0  0  0  0  0  0  0  0  0  0
   15.7013   21.5189   -3.6911 N   0  0  0  0  0  0  0  0  0  0  0  0
   15.9353   19.2001   -5.9578 H   0  0  0  0  0  0  0  0  0  0  0  0
   11.3007   23.7512   -0.2230 C   0  0  0  0  0  0  0  0  0  0  0  0
   10.0637   23.1527   -0.3101 C   0  0  0  0  0  0  0  0  0  0  0  0
    9.1346   23.2904    0.7008 C   0  0  0  0  0  0  0  0  0  0  0  0
    9.3877   24.0248    1.8402 C   0  0  0  0  0  0  0  0  0  0  0  0
   10.6207   24.6291    1.9424 C   0  0  0  0  0  0  0  0  0  0  0  0
   11.5543   24.4852    0.9169 C   0  0  0  0  0  0  0  0  0  0  0  0
    8.3487   24.1337    2.8709 C   0  0  0  0  0  0  0  0  0  0  0  0
    7.9287   25.3518    3.3589 C   0  0  0  0  0  0  0  0  0  0  0  0
    6.9663   25.4711    4.3233 C   0  0  0  0  0  0  0  0  0  0  0  0
    6.3921   24.3232    4.8280 C   0  0  0  0  0  0  0  0  0  0  0  0
    6.8009   23.0814    4.3491 C   0  0  0  0  0  0  0  0  0  0  0  0
    7.7764   23.0034    3.3745 C   0  0  0  0  0  0  0  0  0  0  0  0
    5.3625   24.3759    5.8586 C   0  0  0  0  0  0  0  0  0  0  0  0
    4.7162   23.2478    6.3044 O   0  0  0  0  0  0  0  0  0  0  0  0
    5.0707   25.4949    6.3425 O   0  0  0  0  0  0  0  0  0  0  0  0
    4.6773   23.0788    7.3212 H   0  0  0  0  0  0  0  0  0  0  0  0
   16.9575   27.1777   -3.5160 C   0  0  0  0  0  0  0  0  0  0  0  0
   15.9725   29.7518   -4.0141 C   0  0  0  0  0  0  0  0  0  0  0  0
   16.2353   28.8347   -5.1428 C   0  0  0  0  0  0  0  0  0  0  0  0
   16.0134   29.2462   -6.4291 C   0  0  0  0  0  0  0  0  0  0  0  0
   16.2445   28.4176   -7.4891 C   0  0  0  0  0  0  0  0  0  0  0  0
   16.7071   27.1532   -7.2373 C   0  0  0  0  0  0  0  0  0  0  0  0
   16.9121   26.7838   -5.9791 N   0  0  0  0  0  0  0  0  0  0  0  0
   16.7054   27.5459   -4.9092 C   0  0  0  0  0  0  0  0  0  0  0  0
 38 39  1  0  0  0
 39 40  2  0  0  0
 40 41  1  0  0  0
 41 42  2  0  0  0
 42 43  1  0  0  0
 43 44  2  0  0  0
 44 37  1  0  0  0
 37  1  1  0  0  0
  1  2  1  0  0  0
  2  3  1  0  0  0
  3  4  1  0  0  0
  4  5  1  0  0  0
  5  6  1  0  0  0
  4  7  1  0  0  0
  7  8  1  0  0  0
  8  9  2  0  0  0
  8 10  1  0  0  0
 10 11  1  0  0  0
 11 12  2  0  0  0
 10 21  1  0  0  0
 21 22  2  0  0  0
 22 23  1  0  0  0
 23 24  2  0  0  0
 24 25  1  0  0  0
 25 26  2  0  0  0
 24 27  1  0  0  0
 27 28  2  0  0  0
 28 29  1  0  0  0
 29 30  2  0  0  0
 30 31  1  0  0  0
 31 32  2  0  0  0
 30 33  1  0  0  0
 33 34  1  0  0  0
 33 35  2  0  0  0
  7 13  1  0  0  0
 13 14  2  0  0  0
 14 15  1  0  0  0
 15 16  2  0  0  0
 15 17  1  0  0  0
 17 18  1  0  0  0
 18 19  2  0  0  0
 44 39  1  0  0  0
  6  1  1  0  0  0
 26 21  1  0  0  0
 32 27  1  0  0  0
 19 13  1  0  0  0
 11  4  1  0  0  0
 34 36  1  0  0  0
 17 20  1  0  0  0
M  END
> <minimizedAffinity>
15.74421

> <CNNscore>
0.3470826447

> <CNNaffinity>
7.3504929543

> <CNN_VS>
2.5512285233

> <CNNaffinity_variance>
0.9208035469

$$$$
[H]c1nc2c([H])c(SC([H])([H])c3c([H])c([H])c([H])c([H])c3[H])c([H])c(-c3c([H])c([H])c(C#N)c([H])c3[H])n2n1


 25 28  0  0  0  0  0  0  0  0999 V2000
   13.6844   24.6490   -1.8725 C   0  0  0  0  0  0  0  0  0  0  0  0
   12.3404   24.3842   -1.6989 C   0  0  0  0  0  0  0  0  0  0  0  0
   11.8918   24.0215   -0.4482 C   0  0  0  0  0  0  0  0  0  0  0  0
   12.7493   23.9180    0.6255 C   0  0  0  0  0  0  0  0  0  0  0  0
   14.0834   24.1912    0.4078 C   0  0  0  0  0  0  0  0  0  0  0  0
   15.1351   24.1730    1.2524 N   0  0  0  0  0  0  0  0  0  0  0  0
   16.2326   24.5137    0.5692 C   0  0  0  0  0  0  0  0  0  0  0  0
   15.8292   24.7365   -0.6932 N   0  0  0  0  0  0  0  0  0  0  0  0
   14.5327   24.5496   -0.8235 N   0  0  0  0  0  0  0  0  0  0  0  0
   15.1583   25.7301   -5.7455 C   0  0  0  0  0  0  0  0  0  0  0  0
   14.2718   26.5178   -5.0593 C   0  0  0  0  0  0  0  0  0  0  0  0
   13.7799   26.1980   -3.8137 C   0  0  0  0  0  0  0  0  0  0  0  0
   14.1752   25.0343   -3.1911 C   0  0  0  0  0  0  0  0  0  0  0  0
   15.0720   24.2234   -3.8692 C   0  0  0  0  0  0  0  0  0  0  0  0
   15.5606   24.5540   -5.1214 C   0  0  0  0  0  0  0  0  0  0  0  0
   16.0446   26.3976   -8.1037 N   0  0  0  0  0  0  0  0  0  0  0  0
   15.6429   26.1081   -7.0445 C   0  0  0  0  0  0  0  0  0  0  0  0
   10.1535   23.6828   -0.2395 S   0  0  0  0  0  0  0  0  0  0  0  0
    9.9869   22.1321    0.6883 C   0  0  0  0  0  0  0  0  0  0  0  0
    8.8616   21.3101    0.1697 C   0  0  0  0  0  0  0  0  0  0  0  0
    7.5927   21.3440    0.7097 C   0  0  0  0  0  0  0  0  0  0  0  0
    6.5605   20.5693    0.2099 C   0  0  0  0  0  0  0  0  0  0  0  0
    6.7674   19.7251   -0.8602 C   0  0  0  0  0  0  0  0  0  0  0  0
    8.0336   19.6856   -1.4058 C   0  0  0  0  0  0  0  0  0  0  0  0
    9.0610   20.4588   -0.9058 C   0  0  0  0  0  0  0  0  0  0  0  0
 16 17  3  0  0  0
 17 10  1  0  0  0
 10 11  2  0  0  0
 11 12  1  0  0  0
 12 13  2  0  0  0
 13 14  1  0  0  0
 14 15  2  0  0  0
 13  1  1  0  0  0
  1  2  2  0  0  0
  2  3  1  0  0  0
  3 18  1  0  0  0
 18 19  1  0  0  0
 19 20  1  0  0  0
 20 21  2  0  0  0
 21 22  1  0  0  0
 22 23  2  0  0  0
 23 24  1  0  0  0
 24 25  2  0  0  0
  3  4  2  0  0  0
  4  5  1  0  0  0
  5  6  2  0  0  0
  6  7  1  0  0  0
  7  8  2  0  0  0
  8  9  1  0  0  0
 15 10  1  0  0  0
  9  1  1  0  0  0
 25 20  1  0  0  0
  9  5  1  0  0  0
M  END
> <minimizedAffinity>
-8.39591

> <CNNscore>
0.7195738554

> <CNNaffinity>
7.1658759117

> <CNN_VS>
5.1563768387

> <CNNaffinity_variance>
0.2830701470

$$$$
[H]c1nc2c([H])c(SC([H])([H])c3c([H])c([H])c([H])c([H])c3[H])c([H])c(-c3c([H])c([H])c(C#N)c([H])c3[H])n2n1


 25 28  0  0  0  0  0  0  0  0999 V2000
   13.6832   24.6225   -1.8709 C   0  0  0  0  0  0  0  0  0  0  0  0
   12.3387   24.3606   -1.6972 C   0  0  0  0  0  0  0  0  0  0  0  0
   11.8890   24.0011   -0.4460 C   0  0  0  0  0  0  0  0  0  0  0  0
   12.7458   23.8980    0.6282 C   0  0  0  0  0  0  0  0  0  0  0  0
   14.0805   24.1682    0.4105 C   0  0  0  0  0  0  0  0  0  0  0  0
   15.1319   24.1495    1.2554 N   0  0  0  0  0  0  0  0  0  0  0  0
   16.2304   24.4868    0.5720 C   0  0  0  0  0  0  0  0  0  0  0  0
   15.8277   24.7080   -0.6909 N   0  0  0  0  0  0  0  0  0  0  0  0
   14.5310   24.5234   -0.8213 N   0  0  0  0  0  0  0  0  0  0  0  0
   15.1603   25.6933   -5.7455 C   0  0  0  0  0  0  0  0  0  0  0  0
   14.2811   26.4878   -5.0578 C   0  0  0  0  0  0  0  0  0  0  0  0
   13.7884   26.1714   -3.8116 C   0  0  0  0  0  0  0  0  0  0  0  0
   14.1752   25.0043   -3.1899 C   0  0  0  0  0  0  0  0  0  0  0  0
   15.0646   24.1866   -3.8697 C   0  0  0  0  0  0  0  0  0  0  0  0
   15.5540   24.5137   -5.1224 C   0  0  0  0  0  0  0  0  0  0  0  0
   16.0490   26.3547   -8.1045 N   0  0  0  0  0  0  0  0  0  0  0  0
   15.6460   26.0679   -7.0450 C   0  0  0  0  0  0  0  0  0  0  0  0
   10.1499   23.6661   -0.2372 S   0  0  0  0  0  0  0  0  0  0  0  0
    9.9444   21.8813    0.0182 C   0  0  0  0  0  0  0  0  0  0  0  0
   10.4679   21.4612    1.3449 C   0  0  0  0  0  0  0  0  0  0  0  0
   11.4307   20.4855    1.5002 C   0  0  0  0  0  0  0  0  0  0  0  0
   11.9030   20.1109    2.7460 C   0  0  0  0  0  0  0  0  0  0  0  0
   11.4209   20.7082    3.8912 C   0  0  0  0  0  0  0  0  0  0  0  0
   10.4580   21.6847    3.7442 C   0  0  0  0  0  0  0  0  0  0  0  0
    9.9888   22.0565    2.5012 C   0  0  0  0  0  0  0  0  0  0  0  0
 16 17  3  0  0  0
 17 10  1  0  0  0
 10 11  2  0  0  0
 11 12  1  0  0  0
 12 13  2  0  0  0
 13 14  1  0  0  0
 14 15  2  0  0  0
 13  1  1  0  0  0
  1  2  2  0  0  0
  2  3  1  0  0  0
  3 18  1  0  0  0
 18 19  1  0  0  0
 19 20  1  0  0  0
 20 21  2  0  0  0
 21 22  1  0  0  0
 22 23  2  0  0  0
 23 24  1  0  0  0
 24 25  2  0  0  0
  3  4  2  0  0  0
  4  5  1  0  0  0
  5  6  2  0  0  0
  6  7  1  0  0  0
  7  8  2  0  0  0
  8  9  1  0  0  0
 15 10  1  0  0  0
  9  1  1  0  0  0
 25 20  1  0  0  0
  9  5  1  0  0  0
M  END
> <minimizedAffinity>
-8.68582

> <CNNscore>
0.6619578004

> <CNNaffinity>
7.0960626602

> <CNN_VS>
4.6972942352

> <CNNaffinity_variance>
0.0356522724

$$$$
[H]c1nc2c([H])c(SC([H])([H])c3c([H])c([H])c([H])c([H])c3[H])c([H])c(-c3c([H])c([H])c(C#N)c([H])c3[H])n2n1


 25 28  0  0  0  0  0  0  0  0999 V2000
   13.6589   24.6068   -1.8281 C   0  0  0  0  0  0  0  0  0  0  0  0
   12.3142   24.3487   -1.6497 C   0  0  0  0  0  0  0  0  0  0  0  0
   11.8693   23.9828   -0.3986 C   0  0  0  0  0  0  0  0  0  0  0  0
   12.7310   23.8695    0.6707 C   0  0  0  0  0  0  0  0  0  0  0  0
   14.0656   24.1363    0.4482 C   0  0  0  0  0  0  0  0  0  0  0  0
   15.1210   24.1082    1.2879 N   0  0  0  0  0  0  0  0  0  0  0  0
   16.2173   24.4460    0.6013 C   0  0  0  0  0  0  0  0  0  0  0  0
   15.8094   24.6768   -0.6581 N   0  0  0  0  0  0  0  0  0  0  0  0
   14.5114   24.4979   -0.7834 N   0  0  0  0  0  0  0  0  0  0  0  0
   15.1218   25.6978   -5.7025 C   0  0  0  0  0  0  0  0  0  0  0  0
   14.2339   26.4816   -5.0137 C   0  0  0  0  0  0  0  0  0  0  0  0
   13.7455   26.1586   -3.7676 C   0  0  0  0  0  0  0  0  0  0  0  0
   14.1459   24.9954   -3.1471 C   0  0  0  0  0  0  0  0  0  0  0  0
   15.0443   24.1885   -3.8279 C   0  0  0  0  0  0  0  0  0  0  0  0
   15.5294   24.5223   -5.0806 C   0  0  0  0  0  0  0  0  0  0  0  0
   16.0122   26.3847   -8.0536 N   0  0  0  0  0  0  0  0  0  0  0  0
   15.6027   26.0791   -7.0019 C   0  0  0  0  0  0  0  0  0  0  0  0
   10.1301   23.6528   -0.1835 S   0  0  0  0  0  0  0  0  0  0  0  0
    9.9190   22.7097    1.3524 C   0  0  0  0  0  0  0  0  0  0  0  0
    9.5625   23.5999    2.4887 C   0  0  0  0  0  0  0  0  0  0  0  0
    9.5217   24.9748    2.3844 C   0  0  0  0  0  0  0  0  0  0  0  0
    9.1869   25.7835    3.4565 C   0  0  0  0  0  0  0  0  0  0  0  0
    8.8781   25.2353    4.6832 C   0  0  0  0  0  0  0  0  0  0  0  0
    8.9167   23.8612    4.7956 C   0  0  0  0  0  0  0  0  0  0  0  0
    9.2507   23.0571    3.7254 C   0  0  0  0  0  0  0  0  0  0  0  0
 16 17  3  0  0  0
 17 10  1  0  0  0
 10 11  2  0  0  0
 11 12  1  0  0  0
 12 13  2  0  0  0
 13 14  1  0  0  0
 14 15  2  0  0  0
 13  1  1  0  0  0
  1  2  2  0  0  0
  2  3  1  0  0  0
  3 18  1  0  0  0
 18 19  1  0  0  0
 19 20  1  0  0  0
 20 21  2  0  0  0
 21 22  1  0  0  0
 22 23  2  0  0  0
 23 24  1  0  0  0
 24 25  2  0  0  0
  3  4  2  0  0  0
  4  5  1  0  0  0
  5  6  2  0  0  0
  6  7  1  0  0  0
  7  8  2  0  0  0
  8  9  1  0  0  0
 15 10  1  0  0  0
  9  1  1  0  0  0
 25 20  1  0  0  0
  9  5  1  0  0  0
M  END
> <minimizedAffinity>
-8.83739

> <CNNscore>
0.6351718903

> <CNNaffinity>
6.9242730141

> <CNN_VS>
4.3981037140

> <CNNaffinity_variance>
0.0739966035

$$$$
[H]c1nc2c([H])c(SC([H])([H])c3c([H])c([H])c([H])c([H])c3[H])c([H])c(-c3c([H])c([H])c(C#N)c([H])c3[H])n2n1


 25 28  0  0  0  0  0  0  0  0999 V2000
   13.8024   22.9175   -1.3964 C   0  0  0  0  0  0  0  0  0  0  0  0
   12.6074   22.2264   -1.4279 C   0  0  0  0  0  0  0  0  0  0  0  0
   12.3400   21.3177   -0.4280 C   0  0  0  0  0  0  0  0  0  0  0  0
   13.2328   21.0854    0.5955 C   0  0  0  0  0  0  0  0  0  0  0  0
   14.4140   21.7972    0.5884 C   0  0  0  0  0  0  0  0  0  0  0  0
   15.4570   21.7808    1.4436 N   0  0  0  0  0  0  0  0  0  0  0  0
   16.3732   22.6529    1.0108 C   0  0  0  0  0  0  0  0  0  0  0  0
   15.8697   23.1926   -0.1123 N   0  0  0  0  0  0  0  0  0  0  0  0
   14.6842   22.6952   -0.3949 N   0  0  0  0  0  0  0  0  0  0  0  0
   14.6373   25.7904   -4.4608 C   0  0  0  0  0  0  0  0  0  0  0  0
   15.2808   24.5823   -4.4024 C   0  0  0  0  0  0  0  0  0  0  0  0
   15.0349   23.6384   -3.4306 C   0  0  0  0  0  0  0  0  0  0  0  0
   14.1005   23.8833   -2.4482 C   0  0  0  0  0  0  0  0  0  0  0  0
   13.4383   25.1004   -2.4899 C   0  0  0  0  0  0  0  0  0  0  0  0
   13.6929   26.0428   -3.4713 C   0  0  0  0  0  0  0  0  0  0  0  0
   15.1516   27.5119   -6.3486 N   0  0  0  0  0  0  0  0  0  0  0  0
   14.9296   26.7429   -5.4962 C   0  0  0  0  0  0  0  0  0  0  0  0
   10.7927   20.4328   -0.4821 S   0  0  0  0  0  0  0  0  0  0  0  0
    9.4455   21.6399   -0.3377 C   0  0  0  0  0  0  0  0  0  0  0  0
    9.5272   22.3906    0.9432 C   0  0  0  0  0  0  0  0  0  0  0  0
    9.3394   21.8000    2.1756 C   0  0  0  0  0  0  0  0  0  0  0  0
    9.4204   22.5193    3.3552 C   0  0  0  0  0  0  0  0  0  0  0  0
    9.6955   23.8702    3.3393 C   0  0  0  0  0  0  0  0  0  0  0  0
    9.8845   24.4681    2.1108 C   0  0  0  0  0  0  0  0  0  0  0  0
    9.8033   23.7488    0.9362 C   0  0  0  0  0  0  0  0  0  0  0  0
 16 17  3  0  0  0
 17 10  1  0  0  0
 10 11  2  0  0  0
 11 12  1  0  0  0
 12 13  2  0  0  0
 13 14  1  0  0  0
 14 15  2  0  0  0
 13  1  1  0  0  0
  1  2  2  0  0  0
  2  3  1  0  0  0
  3 18  1  0  0  0
 18 19  1  0  0  0
 19 20  1  0  0  0
 20 21  2  0  0  0
 21 22  1  0  0  0
 22 23  2  0  0  0
 23 24  1  0  0  0
 24 25  2  0  0  0
  3  4  2  0  0  0
  4  5  1  0  0  0
  5  6  2  0  0  0
  6  7  1  0  0  0
  7  8  2  0  0  0
  8  9  1  0  0  0
 15 10  1  0  0  0
  9  1  1  0  0  0
 25 20  1  0  0  0
  9  5  1  0  0  0
M  END
> <minimizedAffinity>
-7.30672

> <CNNscore>
0.5837972760

> <CNNaffinity>
7.3057074547

> <CNN_VS>
4.2650523186

> <CNNaffinity_variance>
0.1851584017

$$$$
[H]c1nc2c([H])c(SC([H])([H])c3c([H])c([H])c([H])c([H])c3[H])c([H])c(-c3c([H])c([H])c(C#N)c([H])c3[H])n2n1


 25 28  0  0  0  0  0  0  0  0999 V2000
   12.5312   23.7347   -0.9780 C   0  0  0  0  0  0  0  0  0  0  0  0
   11.2009   23.9587   -0.6834 C   0  0  0  0  0  0  0  0  0  0  0  0
   10.6150   23.2350    0.3315 C   0  0  0  0  0  0  0  0  0  0  0  0
   11.3229   22.2991    1.0538 C   0  0  0  0  0  0  0  0  0  0  0  0
   12.6487   22.1070    0.7266 C   0  0  0  0  0  0  0  0  0  0  0  0
   13.5731   21.2753    1.2496 N   0  0  0  0  0  0  0  0  0  0  0  0
   14.7239   21.4548    0.5930 C   0  0  0  0  0  0  0  0  0  0  0  0
   14.4808   22.4020   -0.3288 N   0  0  0  0  0  0  0  0  0  0  0  0
   13.2330   22.8176   -0.2735 N   0  0  0  0  0  0  0  0  0  0  0  0
   14.3543   26.0042   -4.1191 C   0  0  0  0  0  0  0  0  0  0  0  0
   14.8470   24.7899   -3.7195 C   0  0  0  0  0  0  0  0  0  0  0  0
   14.2840   24.0368   -2.7138 C   0  0  0  0  0  0  0  0  0  0  0  0
   13.1662   24.4930   -2.0501 C   0  0  0  0  0  0  0  0  0  0  0  0
   12.6521   25.7201   -2.4397 C   0  0  0  0  0  0  0  0  0  0  0  0
   13.2258   26.4696   -3.4522 C   0  0  0  0  0  0  0  0  0  0  0  0
   15.4792   27.3782   -6.0266 N   0  0  0  0  0  0  0  0  0  0  0  0
   14.9785   26.7527   -5.1751 C   0  0  0  0  0  0  0  0  0  0  0  0
    8.8964   23.5355    0.7003 S   0  0  0  0  0  0  0  0  0  0  0  0
    8.6423   23.2594    2.4758 C   0  0  0  0  0  0  0  0  0  0  0  0
    8.3399   24.5319    3.1829 C   0  0  0  0  0  0  0  0  0  0  0  0
    9.2377   25.5753    3.2729 C   0  0  0  0  0  0  0  0  0  0  0  0
    8.9338   26.7511    3.9368 C   0  0  0  0  0  0  0  0  0  0  0  0
    7.7058   26.9228    4.5395 C   0  0  0  0  0  0  0  0  0  0  0  0
    6.8026   25.8840    4.4539 C   0  0  0  0  0  0  0  0  0  0  0  0
    7.1078   24.7129    3.7915 C   0  0  0  0  0  0  0  0  0  0  0  0
 16 17  3  0  0  0
 17 10  1  0  0  0
 10 11  2  0  0  0
 11 12  1  0  0  0
 12 13  2  0  0  0
 13 14  1  0  0  0
 14 15  2  0  0  0
 13  1  1  0  0  0
  1  2  2  0  0  0
  2  3  1  0  0  0
  3 18  1  0  0  0
 18 19  1  0  0  0
 19 20  1  0  0  0
 20 21  2  0  0  0
 21 22  1  0  0  0
 22 23  2  0  0  0
 23 24  1  0  0  0
 24 25  2  0  0  0
  3  4  2  0  0  0
  4  5  1  0  0  0
  5  6  2  0  0  0
  6  7  1  0  0  0
  7  8  2  0  0  0
  8  9  1  0  0  0
 15 10  1  0  0  0
  9  1  1  0  0  0
 25 20  1  0  0  0
  9  5  1  0  0  0
M  END
> <minimizedAffinity>
-9.22624

> <CNNscore>
0.5654506683

> <CNNaffinity>
6.8004808426

> <CNN_VS>
3.8453364372

> <CNNaffinity_variance>
0.1785503924

$$$$
[H]c1nc2c([H])c(SC([H])([H])c3c([H])c([H])c([H])c([H])c3[H])c([H])c(-c3c([H])c([H])c(C#N)c([H])c3[H])n2n1


 25 28  0  0  0  0  0  0  0  0999 V2000
   13.1866   25.5834   -1.5649 C   0  0  0  0  0  0  0  0  0  0  0  0
   14.3504   25.5500   -0.8226 C   0  0  0  0  0  0  0  0  0  0  0  0
   15.4998   26.0788   -1.3668 C   0  0  0  0  0  0  0  0  0  0  0  0
   15.5130   26.6363   -2.6269 C   0  0  0  0  0  0  0  0  0  0  0  0
   14.3290   26.6488   -3.3337 C   0  0  0  0  0  0  0  0  0  0  0  0
   14.0438   27.1188   -4.5655 N   0  0  0  0  0  0  0  0  0  0  0  0
   12.7480   26.9009   -4.8123 C   0  0  0  0  0  0  0  0  0  0  0  0
   12.2587   26.2959   -3.7167 N   0  0  0  0  0  0  0  0  0  0  0  0
   13.1912   26.1289   -2.8028 N   0  0  0  0  0  0  0  0  0  0  0  0
    9.5736   23.9286    0.0320 C   0  0  0  0  0  0  0  0  0  0  0  0
   10.4545   24.6353    0.8078 C   0  0  0  0  0  0  0  0  0  0  0  0
   11.6233   25.1792    0.3244 C   0  0  0  0  0  0  0  0  0  0  0  0
   11.9608   25.0273   -1.0027 C   0  0  0  0  0  0  0  0  0  0  0  0
   11.0823   24.3153   -1.8045 C   0  0  0  0  0  0  0  0  0  0  0  0
    9.9096   23.7723   -1.3087 C   0  0  0  0  0  0  0  0  0  0  0  0
    7.3933   22.9254    1.0477 N   0  0  0  0  0  0  0  0  0  0  0  0
    8.3657   23.3802    0.5841 C   0  0  0  0  0  0  0  0  0  0  0  0
   16.9949   26.0286   -0.3961 S   0  0  0  0  0  0  0  0  0  0  0  0
   17.3938   24.2902   -0.0615 C   0  0  0  0  0  0  0  0  0  0  0  0
   16.2118   23.4137   -0.2739 C   0  0  0  0  0  0  0  0  0  0  0  0
   15.6189   23.2342   -1.5065 C   0  0  0  0  0  0  0  0  0  0  0  0
   14.5187   22.4128   -1.6802 C   0  0  0  0  0  0  0  0  0  0  0  0
   13.9693   21.7358   -0.6123 C   0  0  0  0  0  0  0  0  0  0  0  0
   14.5564   21.9100    0.6236 C   0  0  0  0  0  0  0  0  0  0  0  0
   15.6532   22.7294    0.7942 C   0  0  0  0  0  0  0  0  0  0  0  0
 16 17  3  0  0  0
 17 10  1  0  0  0
 10 11  2  0  0  0
 11 12  1  0  0  0
 12 13  2  0  0  0
 13 14  1  0  0  0
 14 15  2  0  0  0
 13  1  1  0  0  0
  1  2  2  0  0  0
  2  3  1  0  0  0
  3 18  1  0  0  0
 18 19  1  0  0  0
 19 20  1  0  0  0
 20 21  2  0  0  0
 21 22  1  0  0  0
 22 23  2  0  0  0
 23 24  1  0  0  0
 24 25  2  0  0  0
  3  4  2  0  0  0
  4  5  1  0  0  0
  5  6  2  0  0  0
  6  7  1  0  0  0
  7  8  2  0  0  0
  8  9  1  0  0  0
 15 10  1  0  0  0
  9  1  1  0  0  0
 25 20  1  0  0  0
  9  5  1  0  0  0
M  END
> <minimizedAffinity>
3.69060

> <CNNscore>
0.5272814631

> <CNNaffinity>
6.7939758301

> <CNN_VS>
3.5823376179

> <CNNaffinity_variance>
0.6628871560

$$$$
[H]c1nc2c([H])c(SC([H])([H])c3c([H])c([H])c([H])c([H])c3[H])c([H])c(-c3c([H])c([H])c(C#N)c([H])c3[H])n2n1


 25 28  0  0  0  0  0  0  0  0999 V2000
   14.4311   23.7986   -1.7141 C   0  0  0  0  0  0  0  0  0  0  0  0
   13.3988   22.9154   -1.9610 C   0  0  0  0  0  0  0  0  0  0  0  0
   13.1354   21.9279   -1.0377 C   0  0  0  0  0  0  0  0  0  0  0  0
   13.8746   21.8034    0.1185 C   0  0  0  0  0  0  0  0  0  0  0  0
   14.8963   22.7063    0.3253 C   0  0  0  0  0  0  0  0  0  0  0  0
   15.7709   22.8279    1.3451 N   0  0  0  0  0  0  0  0  0  0  0  0
   16.5771   23.8635    1.0902 C   0  0  0  0  0  0  0  0  0  0  0  0
   16.1777   24.3618   -0.0922 N   0  0  0  0  0  0  0  0  0  0  0  0
   15.1616   23.6830   -0.5814 N   0  0  0  0  0  0  0  0  0  0  0  0
   15.3457   26.8800   -4.5443 C   0  0  0  0  0  0  0  0  0  0  0  0
   14.0604   26.4688   -4.3074 C   0  0  0  0  0  0  0  0  0  0  0  0
   13.7342   25.4816   -3.4048 C   0  0  0  0  0  0  0  0  0  0  0  0
   14.7227   24.8500   -2.6822 C   0  0  0  0  0  0  0  0  0  0  0  0
   16.0302   25.2519   -2.9075 C   0  0  0  0  0  0  0  0  0  0  0  0
   16.3476   26.2455   -3.8174 C   0  0  0  0  0  0  0  0  0  0  0  0
   15.8567   28.7699   -6.2645 N   0  0  0  0  0  0  0  0  0  0  0  0
   15.6348   27.9156   -5.4976 C   0  0  0  0  0  0  0  0  0  0  0  0
   11.7990   20.7950   -1.3702 S   0  0  0  0  0  0  0  0  0  0  0  0
   10.2399   21.7199   -1.2889 C   0  0  0  0  0  0  0  0  0  0  0  0
   10.1735   22.5611   -0.0646 C   0  0  0  0  0  0  0  0  0  0  0  0
    9.8385   22.0601    1.1762 C   0  0  0  0  0  0  0  0  0  0  0  0
    9.7832   22.8628    2.3023 C   0  0  0  0  0  0  0  0  0  0  0  0
   10.0651   24.2099    2.2219 C   0  0  0  0  0  0  0  0  0  0  0  0
   10.4010   24.7184    0.9846 C   0  0  0  0  0  0  0  0  0  0  0  0
   10.4555   23.9163   -0.1365 C   0  0  0  0  0  0  0  0  0  0  0  0
 16 17  3  0  0  0
 17 10  1  0  0  0
 10 11  2  0  0  0
 11 12  1  0  0  0
 12 13  2  0  0  0
 13 14  1  0  0  0
 14 15  2  0  0  0
 13  1  1  0  0  0
  1  2  2  0  0  0
  2  3  1  0  0  0
  3 18  1  0  0  0
 18 19  1  0  0  0
 19 20  1  0  0  0
 20 21  2  0  0  0
 21 22  1  0  0  0
 22 23  2  0  0  0
 23 24  1  0  0  0
 24 25  2  0  0  0
  3  4  2  0  0  0
  4  5  1  0  0  0
  5  6  2  0  0  0
  6  7  1  0  0  0
  7  8  2  0  0  0
  8  9  1  0  0  0
 15 10  1  0  0  0
  9  1  1  0  0  0
 25 20  1  0  0  0
  9  5  1  0  0  0
M  END
> <minimizedAffinity>
-6.13532

> <CNNscore>
0.5237559080

> <CNNaffinity>
7.2751703262

> <CNN_VS>
3.8104133606

> <CNNaffinity_variance>
0.2191977054

$$$$
[H]c1nc2c([H])c(SC([H])([H])c3c([H])c([H])c([H])c([H])c3[H])c([H])c(-c3c([H])c([H])c(C#N)c([H])c3[H])n2n1


 25 28  0  0  0  0  0  0  0  0999 V2000
   13.9755   25.9786   -3.1308 C   0  0  0  0  0  0  0  0  0  0  0  0
   12.7988   26.4385   -3.6881 C   0  0  0  0  0  0  0  0  0  0  0  0
   12.8540   27.4769   -4.5914 C   0  0  0  0  0  0  0  0  0  0  0  0
   14.0493   28.0621   -4.9481 C   0  0  0  0  0  0  0  0  0  0  0  0
   15.2003   27.5720   -4.3676 C   0  0  0  0  0  0  0  0  0  0  0  0
   16.4891   27.9394   -4.5211 N   0  0  0  0  0  0  0  0  0  0  0  0
   17.2468   27.1622   -3.7404 C   0  0  0  0  0  0  0  0  0  0  0  0
   16.4000   26.3251   -3.1173 N   0  0  0  0  0  0  0  0  0  0  0  0
   15.1532   26.5478   -3.4758 N   0  0  0  0  0  0  0  0  0  0  0  0
   13.8868   22.7190   -0.3544 C   0  0  0  0  0  0  0  0  0  0  0  0
   13.2551   23.9078   -0.1000 C   0  0  0  0  0  0  0  0  0  0  0  0
   13.2651   24.9736   -0.9717 C   0  0  0  0  0  0  0  0  0  0  0  0
   13.9339   24.8796   -2.1725 C   0  0  0  0  0  0  0  0  0  0  0  0
   14.5797   23.6845   -2.4487 C   0  0  0  0  0  0  0  0  0  0  0  0
   14.5636   22.6188   -1.5655 C   0  0  0  0  0  0  0  0  0  0  0  0
   13.8181   20.7663    1.3702 N   0  0  0  0  0  0  0  0  0  0  0  0
   13.8469   21.6353    0.5884 C   0  0  0  0  0  0  0  0  0  0  0  0
   11.3262   28.0599   -5.3027 S   0  0  0  0  0  0  0  0  0  0  0  0
   10.8476   29.5847   -4.4430 C   0  0  0  0  0  0  0  0  0  0  0  0
    9.3705   29.6883   -4.3081 C   0  0  0  0  0  0  0  0  0  0  0  0
    8.4915   29.1879   -5.2462 C   0  0  0  0  0  0  0  0  0  0  0  0
    7.1197   29.2963   -5.0991 C   0  0  0  0  0  0  0  0  0  0  0  0
    6.5762   29.9168   -3.9944 C   0  0  0  0  0  0  0  0  0  0  0  0
    7.4486   30.4198   -3.0519 C   0  0  0  0  0  0  0  0  0  0  0  0
    8.8158   30.3106   -3.2007 C   0  0  0  0  0  0  0  0  0  0  0  0
 16 17  3  0  0  0
 17 10  1  0  0  0
 10 11  2  0  0  0
 11 12  1  0  0  0
 12 13  2  0  0  0
 13 14  1  0  0  0
 14 15  2  0  0  0
 13  1  1  0  0  0
  1  2  2  0  0  0
  2  3  1  0  0  0
  3 18  1  0  0  0
 18 19  1  0  0  0
 19 20  1  0  0  0
 20 21  2  0  0  0
 21 22  1  0  0  0
 22 23  2  0  0  0
 23 24  1  0  0  0
 24 25  2  0  0  0
  3  4  2  0  0  0
  4  5  1  0  0  0
  5  6  2  0  0  0
  6  7  1  0  0  0
  7  8  2  0  0  0
  8  9  1  0  0  0
 15 10  1  0  0  0
  9  1  1  0  0  0
 25 20  1  0  0  0
  9  5  1  0  0  0
M  END
> <minimizedAffinity>
9.78829

> <CNNscore>
0.5209300518

> <CNNaffinity>
6.5960135460

> <CNN_VS>
3.4360616207

> <CNNaffinity_variance>
0.5884997249

$$$$
[H]c1nc2c([H])c(SC([H])([H])c3c([H])c([H])c([H])c([H])c3[H])c([H])c(-c3c([H])c([H])c(C#N)c([H])c3[H])n2n1


 25 28  0  0  0  0  0  0  0  0999 V2000
   12.8246   23.7596   -0.8588 C   0  0  0  0  0  0  0  0  0  0  0  0
   11.5619   24.0715   -0.3951 C   0  0  0  0  0  0  0  0  0  0  0  0
   11.0635   23.3812    0.6876 C   0  0  0  0  0  0  0  0  0  0  0  0
   11.7925   22.3933    1.3131 C   0  0  0  0  0  0  0  0  0  0  0  0
   13.0487   22.1138    0.8175 C   0  0  0  0  0  0  0  0  0  0  0  0
   13.9734   21.2167    1.2173 N   0  0  0  0  0  0  0  0  0  0  0  0
   15.0395   21.3225    0.4174 C   0  0  0  0  0  0  0  0  0  0  0  0
   14.7453   22.2916   -0.4659 N   0  0  0  0  0  0  0  0  0  0  0  0
   13.5467   22.7909   -0.2502 N   0  0  0  0  0  0  0  0  0  0  0  0
   14.3745   25.9216   -4.2151 C   0  0  0  0  0  0  0  0  0  0  0  0
   14.9227   24.7375   -3.7973 C   0  0  0  0  0  0  0  0  0  0  0  0
   14.4477   24.0193   -2.7229 C   0  0  0  0  0  0  0  0  0  0  0  0
   13.3667   24.4815   -2.0046 C   0  0  0  0  0  0  0  0  0  0  0  0
   12.7976   25.6782   -2.4117 C   0  0  0  0  0  0  0  0  0  0  0  0
   13.2828   26.3927   -3.4933 C   0  0  0  0  0  0  0  0  0  0  0  0
   15.3427   27.1967   -6.2714 N   0  0  0  0  0  0  0  0  0  0  0  0
   14.9072   26.6341   -5.3436 C   0  0  0  0  0  0  0  0  0  0  0  0
    9.4315   23.7954    1.2751 S   0  0  0  0  0  0  0  0  0  0  0  0
    8.6142   22.2631    1.8016 C   0  0  0  0  0  0  0  0  0  0  0  0
    8.2196   21.4321    0.6335 C   0  0  0  0  0  0  0  0  0  0  0  0
    6.9070   21.2390    0.2555 C   0  0  0  0  0  0  0  0  0  0  0  0
    6.5636   20.4607   -0.8361 C   0  0  0  0  0  0  0  0  0  0  0  0
    7.5350   19.8426   -1.5944 C   0  0  0  0  0  0  0  0  0  0  0  0
    8.8499   20.0307   -1.2228 C   0  0  0  0  0  0  0  0  0  0  0  0
    9.1898   20.8071   -0.1342 C   0  0  0  0  0  0  0  0  0  0  0  0
 16 17  3  0  0  0
 17 10  1  0  0  0
 10 11  2  0  0  0
 11 12  1  0  0  0
 12 13  2  0  0  0
 13 14  1  0  0  0
 14 15  2  0  0  0
 13  1  1  0  0  0
  1  2  2  0  0  0
  2  3  1  0  0  0
  3 18  1  0  0  0
 18 19  1  0  0  0
 19 20  1  0  0  0
 20 21  2  0  0  0
 21 22  1  0  0  0
 22 23  2  0  0  0
 23 24  1  0  0  0
 24 25  2  0  0  0
  3  4  2  0  0  0
  4  5  1  0  0  0
  5  6  2  0  0  0
  6  7  1  0  0  0
  7  8  2  0  0  0
  8  9  1  0  0  0
 15 10  1  0  0  0
  9  1  1  0  0  0
 25 20  1  0  0  0
  9  5  1  0  0  0
M  END
> <minimizedAffinity>
-8.70141

> <CNNscore>
0.5142866373

> <CNNaffinity>
7.1365022659

> <CNN_VS>
3.6702077389

> <CNNaffinity_variance>
0.3967364132

$$$$
[H]OC([H])([H])C(=O)N([H])c1c([H])c(-c2c([H])c([H])c(C#N)c([H])c2C([H])([H])[H])n2nc([H])nc2c1[H]


 25 27  0  0  0  0  0  0  0  0999 V2000
   13.5909   24.6074   -1.8386 C   0  0  0  0  0  0  0  0  0  0  0  0
   12.2701   24.2854   -1.6405 C   0  0  0  0  0  0  0  0  0  0  0  0
   11.7584   23.8844   -0.3950 C   0  0  0  0  0  0  0  0  0  0  0  0
   12.6850   23.8389    0.6140 C   0  0  0  0  0  0  0  0  0  0  0  0
   14.0266   24.1715    0.3881 C   0  0  0  0  0  0  0  0  0  0  0  0
   15.0628   24.1773    1.2756 N   0  0  0  0  0  0  0  0  0  0  0  0
   16.1291   24.5683    0.5604 C   0  0  0  0  0  0  0  0  0  0  0  0
   15.7691   24.7947   -0.7138 N   0  0  0  0  0  0  0  0  0  0  0  0
   14.4762   24.5473   -0.8055 N   0  0  0  0  0  0  0  0  0  0  0  0
   15.1883   22.8212   -3.3624 C   0  0  0  0  0  0  0  0  0  0  0  0
   14.8697   24.1614   -3.8681 C   0  0  0  0  0  0  0  0  0  0  0  0
   15.3721   24.5379   -5.1193 C   0  0  0  0  0  0  0  0  0  0  0  0
   15.0943   25.7897   -5.6285 C   0  0  0  0  0  0  0  0  0  0  0  0
   14.3283   26.6440   -4.8960 C   0  0  0  0  0  0  0  0  0  0  0  0
   13.8260   26.2668   -3.6444 C   0  0  0  0  0  0  0  0  0  0  0  0
   14.1019   25.0206   -3.1362 C   0  0  0  0  0  0  0  0  0  0  0  0
   15.6182   26.1714   -6.9242 C   0  0  0  0  0  0  0  0  0  0  0  0
   16.0406   26.4611   -7.9672 N   0  0  0  0  0  0  0  0  0  0  0  0
   10.3831   23.5799   -0.2739 N   0  0  0  0  0  0  0  0  0  0  0  0
    9.8276   22.3961    0.1718 C   0  0  0  0  0  0  0  0  0  0  0  0
   10.4639   21.3980    0.5388 O   0  0  0  0  0  0  0  0  0  0  0  0
    9.7232   24.3745   -0.5638 H   0  0  0  0  0  0  0  0  0  0  0  0
    8.3031   22.3334    0.2072 C   0  0  0  0  0  0  0  0  0  0  0  0
    7.7580   23.5950    0.2272 O   0  0  0  0  0  0  0  0  0  0  0  0
    6.8883   23.6115    0.6742 H   0  0  0  0  0  0  0  0  0  0  0  0
 10 11  1  0  0  0
 11 12  2  0  0  0
 12 13  1  0  0  0
 13 14  2  0  0  0
 14 15  1  0  0  0
 15 16  2  0  0  0
 16  1  1  0  0  0
  1  2  2  0  0  0
  2  3  1  0  0  0
  3 19  1  0  0  0
 19 20  1  0  0  0
 20 21  2  0  0  0
 20 23  1  0  0  0
 23 24  1  0  0  0
  3  4  2  0  0  0
  4  5  1  0  0  0
  5  6  2  0  0  0
  6  7  1  0  0  0
  7  8  2  0  0  0
  8  9  1  0  0  0
 13 17  1  0  0  0
 17 18  3  0  0  0
 16 11  1  0  0  0
  9  1  1  0  0  0
  9  5  1  0  0  0
 19 22  1  0  0  0
 24 25  1  0  0  0
M  END
> <minimizedAffinity>
-8.47219

> <CNNscore>
0.8043771982

> <CNNaffinity>
7.0449538231

> <CNN_VS>
5.6668000221

> <CNNaffinity_variance>
0.1363614053

$$$$
[H]OC([H])([H])C(=O)N([H])c1c([H])c(-c2c([H])c([H])c(C#N)c([H])c2C([H])([H])[H])n2nc([H])nc2c1[H]


 25 27  0  0  0  0  0  0  0  0999 V2000
   13.8541   23.9441   -1.7581 C   0  0  0  0  0  0  0  0  0  0  0  0
   14.0519   24.3191   -3.0649 C   0  0  0  0  0  0  0  0  0  0  0  0
   15.2231   24.9548   -3.5100 C   0  0  0  0  0  0  0  0  0  0  0  0
   16.1595   25.1733   -2.5332 C   0  0  0  0  0  0  0  0  0  0  0  0
   15.9354   24.7823   -1.2071 C   0  0  0  0  0  0  0  0  0  0  0  0
   16.7569   24.9259   -0.1273 N   0  0  0  0  0  0  0  0  0  0  0  0
   16.0772   24.3904    0.8986 C   0  0  0  0  0  0  0  0  0  0  0  0
   14.8872   23.9352    0.4729 N   0  0  0  0  0  0  0  0  0  0  0  0
   14.8134   24.1822   -0.8212 N   0  0  0  0  0  0  0  0  0  0  0  0
   13.7862   21.1169   -1.5010 C   0  0  0  0  0  0  0  0  0  0  0  0
   12.6023   21.9275   -1.1930 C   0  0  0  0  0  0  0  0  0  0  0  0
   11.4392   21.2736   -0.7696 C   0  0  0  0  0  0  0  0  0  0  0  0
   10.3058   22.0014   -0.4708 C   0  0  0  0  0  0  0  0  0  0  0  0
   10.3411   23.3565   -0.5949 C   0  0  0  0  0  0  0  0  0  0  0  0
   11.5049   24.0102   -1.0185 C   0  0  0  0  0  0  0  0  0  0  0  0
   12.6342   23.2866   -1.3164 C   0  0  0  0  0  0  0  0  0  0  0  0
    9.1062   21.3169   -0.0334 C   0  0  0  0  0  0  0  0  0  0  0  0
    8.1528   20.7531    0.3179 N   0  0  0  0  0  0  0  0  0  0  0  0
   15.3513   25.2990   -4.8752 N   0  0  0  0  0  0  0  0  0  0  0  0
   15.2057   26.5533   -5.4357 C   0  0  0  0  0  0  0  0  0  0  0  0
   14.9318   27.5899   -4.8141 O   0  0  0  0  0  0  0  0  0  0  0  0
   15.5911   24.4773   -5.5217 H   0  0  0  0  0  0  0  0  0  0  0  0
   15.4022   26.6481   -6.9462 C   0  0  0  0  0  0  0  0  0  0  0  0
   15.5246   25.3993   -7.5069 O   0  0  0  0  0  0  0  0  0  0  0  0
   16.0625   25.4150   -8.3234 H   0  0  0  0  0  0  0  0  0  0  0  0
 10 11  1  0  0  0
 11 12  2  0  0  0
 12 13  1  0  0  0
 13 14  2  0  0  0
 14 15  1  0  0  0
 15 16  2  0  0  0
 16  1  1  0  0  0
  1  2  2  0  0  0
  2  3  1  0  0  0
  3 19  1  0  0  0
 19 20  1  0  0  0
 20 21  2  0  0  0
 20 23  1  0  0  0
 23 24  1  0  0  0
  3  4  2  0  0  0
  4  5  1  0  0  0
  5  6  2  0  0  0
  6  7  1  0  0  0
  7  8  2  0  0  0
  8  9  1  0  0  0
 13 17  1  0  0  0
 17 18  3  0  0  0
 16 11  1  0  0  0
  9  1  1  0  0  0
  9  5  1  0  0  0
 19 22  1  0  0  0
 24 25  1  0  0  0
M  END
> <minimizedAffinity>
-7.71229

> <CNNscore>
0.7405775785

> <CNNaffinity>
7.1340546608

> <CNN_VS>
5.2833209038

> <CNNaffinity_variance>
0.2335207164

$$$$
[H]OC([H])([H])C(=O)N([H])c1c([H])c(-c2c([H])c([H])c(C#N)c([H])c2C([H])([H])[H])n2nc([H])nc2c1[H]


 25 27  0  0  0  0  0  0  0  0999 V2000
   14.1260   23.6510   -1.8455 C   0  0  0  0  0  0  0  0  0  0  0  0
   14.3557   24.0893   -3.1271 C   0  0  0  0  0  0  0  0  0  0  0  0
   15.4410   24.9123   -3.4717 C   0  0  0  0  0  0  0  0  0  0  0  0
   16.2586   25.2462   -2.4235 C   0  0  0  0  0  0  0  0  0  0  0  0
   16.0041   24.7874   -1.1249 C   0  0  0  0  0  0  0  0  0  0  0  0
   16.7129   25.0264    0.0161 N   0  0  0  0  0  0  0  0  0  0  0  0
   16.0541   24.3623    0.9786 C   0  0  0  0  0  0  0  0  0  0  0  0
   14.9845   23.7395    0.4566 N   0  0  0  0  0  0  0  0  0  0  0  0
   14.9659   24.0089   -0.8350 N   0  0  0  0  0  0  0  0  0  0  0  0
   11.5628   24.8010   -1.4318 C   0  0  0  0  0  0  0  0  0  0  0  0
   11.7645   23.3526   -1.3096 C   0  0  0  0  0  0  0  0  0  0  0  0
   10.6632   22.5519   -0.9844 C   0  0  0  0  0  0  0  0  0  0  0  0
   10.8131   21.1860   -0.8606 C   0  0  0  0  0  0  0  0  0  0  0  0
   12.0429   20.6373   -1.0594 C   0  0  0  0  0  0  0  0  0  0  0  0
   13.1442   21.4388   -1.3848 C   0  0  0  0  0  0  0  0  0  0  0  0
   12.9964   22.7990   -1.5084 C   0  0  0  0  0  0  0  0  0  0  0  0
    9.6682   20.3646   -0.5237 C   0  0  0  0  0  0  0  0  0  0  0  0
    8.7468   19.7036   -0.2701 N   0  0  0  0  0  0  0  0  0  0  0  0
   15.6111   25.3112   -4.8174 N   0  0  0  0  0  0  0  0  0  0  0  0
   15.3918   26.5676   -5.3484 C   0  0  0  0  0  0  0  0  0  0  0  0
   15.0014   27.5573   -4.7128 O   0  0  0  0  0  0  0  0  0  0  0  0
   15.9513   24.5336   -5.4734 H   0  0  0  0  0  0  0  0  0  0  0  0
   15.6582   26.7284   -6.8424 C   0  0  0  0  0  0  0  0  0  0  0  0
   15.7714   25.5045   -7.4577 O   0  0  0  0  0  0  0  0  0  0  0  0
   16.3455   25.5434   -8.2483 H   0  0  0  0  0  0  0  0  0  0  0  0
 10 11  1  0  0  0
 11 12  2  0  0  0
 12 13  1  0  0  0
 13 14  2  0  0  0
 14 15  1  0  0  0
 15 16  2  0  0  0
 16  1  1  0  0  0
  1  2  2  0  0  0
  2  3  1  0  0  0
  3 19  1  0  0  0
 19 20  1  0  0  0
 20 21  2  0  0  0
 20 23  1  0  0  0
 23 24  1  0  0  0
  3  4  2  0  0  0
  4  5  1  0  0  0
  5  6  2  0  0  0
  6  7  1  0  0  0
  7  8  2  0  0  0
  8  9  1  0  0  0
 13 17  1  0  0  0
 17 18  3  0  0  0
 16 11  1  0  0  0
  9  1  1  0  0  0
  9  5  1  0  0  0
 19 22  1  0  0  0
 24 25  1  0  0  0
M  END
> <minimizedAffinity>
-7.68212

> <CNNscore>
0.7252205610

> <CNNaffinity>
7.0140900612

> <CNN_VS>
5.0867624283

> <CNNaffinity_variance>
0.3559858203

$$$$
[H]OC([H])([H])C(=O)N([H])c1c([H])c(-c2c([H])c([H])c(C#N)c([H])c2C([H])([H])[H])n2nc([H])nc2c1[H]


 25 27  0  0  0  0  0  0  0  0999 V2000
   13.0562   22.7383   -1.4021 C   0  0  0  0  0  0  0  0  0  0  0  0
   11.7897   22.2392   -1.5873 C   0  0  0  0  0  0  0  0  0  0  0  0
   11.2537   21.2020   -0.8057 C   0  0  0  0  0  0  0  0  0  0  0  0
   12.0975   20.7236    0.1627 C   0  0  0  0  0  0  0  0  0  0  0  0
   13.3849   21.2482    0.3327 C   0  0  0  0  0  0  0  0  0  0  0  0
   14.3380   20.8868    1.2395 N   0  0  0  0  0  0  0  0  0  0  0  0
   15.3821   21.6905    0.9836 C   0  0  0  0  0  0  0  0  0  0  0  0
   15.0884   22.5133   -0.0368 N   0  0  0  0  0  0  0  0  0  0  0  0
   13.8598   22.2310   -0.4266 N   0  0  0  0  0  0  0  0  0  0  0  0
   11.9248   25.3380   -1.2429 C   0  0  0  0  0  0  0  0  0  0  0  0
   13.0491   25.0624   -2.1448 C   0  0  0  0  0  0  0  0  0  0  0  0
   13.5502   26.1116   -2.9244 C   0  0  0  0  0  0  0  0  0  0  0  0
   14.6065   25.8916   -3.7844 C   0  0  0  0  0  0  0  0  0  0  0  0
   15.1470   24.6444   -3.8587 C   0  0  0  0  0  0  0  0  0  0  0  0
   14.6453   23.5952   -3.0785 C   0  0  0  0  0  0  0  0  0  0  0  0
   13.5935   23.8129   -2.2219 C   0  0  0  0  0  0  0  0  0  0  0  0
   15.1190   26.9828   -4.5877 C   0  0  0  0  0  0  0  0  0  0  0  0
   15.5150   27.8659   -5.2307 N   0  0  0  0  0  0  0  0  0  0  0  0
    9.9366   20.7528   -1.0555 N   0  0  0  0  0  0  0  0  0  0  0  0
    8.8796   20.7341   -0.1660 C   0  0  0  0  0  0  0  0  0  0  0  0
    8.9266   21.1139    1.0127 O   0  0  0  0  0  0  0  0  0  0  0  0
    9.7687   20.3965   -2.0532 H   0  0  0  0  0  0  0  0  0  0  0  0
    7.5541   20.1976   -0.6992 C   0  0  0  0  0  0  0  0  0  0  0  0
    7.4621   20.3737   -2.0592 O   0  0  0  0  0  0  0  0  0  0  0  0
    6.5344   20.4617   -2.3556 H   0  0  0  0  0  0  0  0  0  0  0  0
 10 11  1  0  0  0
 11 12  2  0  0  0
 12 13  1  0  0  0
 13 14  2  0  0  0
 14 15  1  0  0  0
 15 16  2  0  0  0
 16  1  1  0  0  0
  1  2  2  0  0  0
  2  3  1  0  0  0
  3 19  1  0  0  0
 19 20  1  0  0  0
 20 21  2  0  0  0
 20 23  1  0  0  0
 23 24  1  0  0  0
  3  4  2  0  0  0
  4  5  1  0  0  0
  5  6  2  0  0  0
  6  7  1  0  0  0
  7  8  2  0  0  0
  8  9  1  0  0  0
 13 17  1  0  0  0
 17 18  3  0  0  0
 16 11  1  0  0  0
  9  1  1  0  0  0
  9  5  1  0  0  0
 19 22  1  0  0  0
 24 25  1  0  0  0
M  END
> <minimizedAffinity>
-8.29852

> <CNNscore>
0.6363717318

> <CNNaffinity>
7.0569257736

> <CNN_VS>
4.4908280373

> <CNNaffinity_variance>
0.5358902812

$$$$
[H]OC([H])([H])C(=O)N([H])c1c([H])c(-c2c([H])c([H])c(C#N)c([H])c2C([H])([H])[H])n2nc([H])nc2c1[H]


 25 27  0  0  0  0  0  0  0  0999 V2000
   14.2191   25.0827   -3.5697 C   0  0  0  0  0  0  0  0  0  0  0  0
   13.9787   24.2832   -2.4786 C   0  0  0  0  0  0  0  0  0  0  0  0
   14.4850   22.9780   -2.3595 C   0  0  0  0  0  0  0  0  0  0  0  0
   15.2426   22.5613   -3.4230 C   0  0  0  0  0  0  0  0  0  0  0  0
   15.4740   23.3942   -4.5249 C   0  0  0  0  0  0  0  0  0  0  0  0
   16.1974   23.1331   -5.6518 N   0  0  0  0  0  0  0  0  0  0  0  0
   16.1066   24.2514   -6.3885 C   0  0  0  0  0  0  0  0  0  0  0  0
   15.3599   25.1647   -5.7461 N   0  0  0  0  0  0  0  0  0  0  0  0
   14.9782   24.6254   -4.6038 N   0  0  0  0  0  0  0  0  0  0  0  0
   15.9930   27.2931   -3.7463 C   0  0  0  0  0  0  0  0  0  0  0  0
   14.5394   27.4940   -3.7596 C   0  0  0  0  0  0  0  0  0  0  0  0
   14.0486   28.8011   -3.8613 C   0  0  0  0  0  0  0  0  0  0  0  0
   12.6882   29.0303   -3.8769 C   0  0  0  0  0  0  0  0  0  0  0  0
   11.8401   27.9689   -3.7921 C   0  0  0  0  0  0  0  0  0  0  0  0
   12.3316   26.6615   -3.6903 C   0  0  0  0  0  0  0  0  0  0  0  0
   13.6860   26.4319   -3.6747 C   0  0  0  0  0  0  0  0  0  0  0  0
   12.1885   30.3861   -3.9825 C   0  0  0  0  0  0  0  0  0  0  0  0
   11.7900   31.4755   -4.0503 N   0  0  0  0  0  0  0  0  0  0  0  0
   14.1985   22.2247   -1.1979 N   0  0  0  0  0  0  0  0  0  0  0  0
   13.8953   22.7128    0.0584 C   0  0  0  0  0  0  0  0  0  0  0  0
   13.8293   23.9115    0.3660 O   0  0  0  0  0  0  0  0  0  0  0  0
   14.2237   21.1615   -1.3385 H   0  0  0  0  0  0  0  0  0  0  0  0
   13.6225   21.6735    1.1421 C   0  0  0  0  0  0  0  0  0  0  0  0
   12.4734   20.9695    0.8722 O   0  0  0  0  0  0  0  0  0  0  0  0
   12.0436   20.6426    1.6875 H   0  0  0  0  0  0  0  0  0  0  0  0
 10 11  1  0  0  0
 11 12  2  0  0  0
 12 13  1  0  0  0
 13 14  2  0  0  0
 14 15  1  0  0  0
 15 16  2  0  0  0
 16  1  1  0  0  0
  1  2  2  0  0  0
  2  3  1  0  0  0
  3 19  1  0  0  0
 19 20  1  0  0  0
 20 21  2  0  0  0
 20 23  1  0  0  0
 23 24  1  0  0  0
  3  4  2  0  0  0
  4  5  1  0  0  0
  5  6  2  0  0  0
  6  7  1  0  0  0
  7  8  2  0  0  0
  8  9  1  0  0  0
 13 17  1  0  0  0
 17 18  3  0  0  0
 16 11  1  0  0  0
  9  1  1  0  0  0
  9  5  1  0  0  0
 19 22  1  0  0  0
 24 25  1  0  0  0
M  END
> <minimizedAffinity>
8.94032

> <CNNscore>
0.5611357689

> <CNNaffinity>
6.3516612053

> <CNN_VS>
3.5641443729

> <CNNaffinity_variance>
0.8203582764

$$$$
[H]OC([H])([H])C(=O)N([H])c1c([H])c(-c2c([H])c([H])c(C#N)c([H])c2C([H])([H])[H])n2nc([H])nc2c1[H]


 25 27  0  0  0  0  0  0  0  0999 V2000
   14.6991   25.4647   -2.4427 C   0  0  0  0  0  0  0  0  0  0  0  0
   14.4555   24.3125   -1.7352 C   0  0  0  0  0  0  0  0  0  0  0  0
   15.4595   23.6084   -1.0497 C   0  0  0  0  0  0  0  0  0  0  0  0
   16.7093   24.1636   -1.1417 C   0  0  0  0  0  0  0  0  0  0  0  0
   16.9336   25.3392   -1.8691 C   0  0  0  0  0  0  0  0  0  0  0  0
   18.1050   26.0130   -2.0571 N   0  0  0  0  0  0  0  0  0  0  0  0
   17.7799   27.0656   -2.8238 C   0  0  0  0  0  0  0  0  0  0  0  0
   16.4651   27.0445   -3.0985 N   0  0  0  0  0  0  0  0  0  0  0  0
   15.9582   25.9797   -2.5065 N   0  0  0  0  0  0  0  0  0  0  0  0
   14.9677   26.0043   -5.2177 C   0  0  0  0  0  0  0  0  0  0  0  0
   13.7757   26.4388   -4.4802 C   0  0  0  0  0  0  0  0  0  0  0  0
   12.7747   27.1254   -5.1775 C   0  0  0  0  0  0  0  0  0  0  0  0
   11.6392   27.5500   -4.5188 C   0  0  0  0  0  0  0  0  0  0  0  0
   11.5130   27.2900   -3.1886 C   0  0  0  0  0  0  0  0  0  0  0  0
   12.5147   26.6031   -2.4915 C   0  0  0  0  0  0  0  0  0  0  0  0
   13.6458   26.1798   -3.1462 C   0  0  0  0  0  0  0  0  0  0  0  0
   10.6080   28.2600   -5.2479 C   0  0  0  0  0  0  0  0  0  0  0  0
    9.7717   28.8305   -5.8182 N   0  0  0  0  0  0  0  0  0  0  0  0
   15.1225   22.4351   -0.3365 N   0  0  0  0  0  0  0  0  0  0  0  0
   14.4951   21.3089   -0.8334 C   0  0  0  0  0  0  0  0  0  0  0  0
   14.1216   21.1533   -2.0048 O   0  0  0  0  0  0  0  0  0  0  0  0
   15.3990   22.4482    0.6999 H   0  0  0  0  0  0  0  0  0  0  0  0
   14.2515   20.1751    0.1586 C   0  0  0  0  0  0  0  0  0  0  0  0
   15.3085   20.0440    1.0272 O   0  0  0  0  0  0  0  0  0  0  0  0
   15.4033   19.1271    1.3537 H   0  0  0  0  0  0  0  0  0  0  0  0
 10 11  1  0  0  0
 11 12  2  0  0  0
 12 13  1  0  0  0
 13 14  2  0  0  0
 14 15  1  0  0  0
 15 16  2  0  0  0
 16  1  1  0  0  0
  1  2  2  0  0  0
  2  3  1  0  0  0
  3 19  1  0  0  0
 19 20  1  0  0  0
 20 21  2  0  0  0
 20 23  1  0  0  0
 23 24  1  0  0  0
  3  4  2  0  0  0
  4  5  1  0  0  0
  5  6  2  0  0  0
  6  7  1  0  0  0
  7  8  2  0  0  0
  8  9  1  0  0  0
 13 17  1  0  0  0
 17 18  3  0  0  0
 16 11  1  0  0  0
  9  1  1  0  0  0
  9  5  1  0  0  0
 19 22  1  0  0  0
 24 25  1  0  0  0
M  END
> <minimizedAffinity>
10.20119

> <CNNscore>
0.5504163504

> <CNNaffinity>
6.4281005859

> <CNN_VS>
3.5381317139

> <CNNaffinity_variance>
0.9721759558

$$$$
[H]OC([H])([H])C(=O)N([H])c1c([H])c(-c2c([H])c([H])c(C#N)c([H])c2C([H])([H])[H])n2nc([H])nc2c1[H]


 25 27  0  0  0  0  0  0  0  0999 V2000
   12.8358   23.4993   -1.0281 C   0  0  0  0  0  0  0  0  0  0  0  0
   12.9380   24.3718   -2.0844 C   0  0  0  0  0  0  0  0  0  0  0  0
   14.1325   25.0309   -2.4201 C   0  0  0  0  0  0  0  0  0  0  0  0
   15.1953   24.7340   -1.6070 C   0  0  0  0  0  0  0  0  0  0  0  0
   15.0670   23.8412   -0.5355 C   0  0  0  0  0  0  0  0  0  0  0  0
   16.0174   23.4434    0.3588 N   0  0  0  0  0  0  0  0  0  0  0  0
   15.3863   22.5866    1.1768 C   0  0  0  0  0  0  0  0  0  0  0  0
   14.1016   22.4595    0.8053 N   0  0  0  0  0  0  0  0  0  0  0  0
   13.9195   23.2350   -0.2467 N   0  0  0  0  0  0  0  0  0  0  0  0
   11.0971   24.6231    0.9156 C   0  0  0  0  0  0  0  0  0  0  0  0
   10.7544   23.3672    0.2383 C   0  0  0  0  0  0  0  0  0  0  0  0
    9.5502   22.7369    0.5733 C   0  0  0  0  0  0  0  0  0  0  0  0
    9.1934   21.5546   -0.0418 C   0  0  0  0  0  0  0  0  0  0  0  0
   10.0287   21.0180   -0.9732 C   0  0  0  0  0  0  0  0  0  0  0  0
   11.2333   21.6490   -1.3080 C   0  0  0  0  0  0  0  0  0  0  0  0
   11.5898   22.8263   -0.6962 C   0  0  0  0  0  0  0  0  0  0  0  0
    7.9455   20.9087    0.3108 C   0  0  0  0  0  0  0  0  0  0  0  0
    6.9485   20.3922    0.6101 N   0  0  0  0  0  0  0  0  0  0  0  0
   14.1551   25.9064   -3.5299 N   0  0  0  0  0  0  0  0  0  0  0  0
   14.7884   25.7013   -4.7405 C   0  0  0  0  0  0  0  0  0  0  0  0
   15.4499   24.6981   -5.0437 O   0  0  0  0  0  0  0  0  0  0  0  0
   13.6103   26.8196   -3.3887 H   0  0  0  0  0  0  0  0  0  0  0  0
   14.6496   26.8142   -5.7756 C   0  0  0  0  0  0  0  0  0  0  0  0
   15.3378   27.9384   -5.3863 O   0  0  0  0  0  0  0  0  0  0  0  0
   14.9417   28.7551   -5.7502 H   0  0  0  0  0  0  0  0  0  0  0  0
 10 11  1  0  0  0
 11 12  2  0  0  0
 12 13  1  0  0  0
 13 14  2  0  0  0
 14 15  1  0  0  0
 15 16  2  0  0  0
 16  1  1  0  0  0
  1  2  2  0  0  0
  2  3  1  0  0  0
  3 19  1  0  0  0
 19 20  1  0  0  0
 20 21  2  0  0  0
 20 23  1  0  0  0
 23 24  1  0  0  0
  3  4  2  0  0  0
  4  5  1  0  0  0
  5  6  2  0  0  0
  6  7  1  0  0  0
  7  8  2  0  0  0
  8  9  1  0  0  0
 13 17  1  0  0  0
 17 18  3  0  0  0
 16 11  1  0  0  0
  9  1  1  0  0  0
  9  5  1  0  0  0
 19 22  1  0  0  0
 24 25  1  0  0  0
M  END
> <minimizedAffinity>
-6.48239

> <CNNscore>
0.4008839726

> <CNNaffinity>
6.5860924721

> <CNN_VS>
2.6402590275

> <CNNaffinity_variance>
0.1065541282

$$$$
[H]OC([H])([H])C(=O)N([H])c1c([H])c(-c2c([H])c([H])c(C#N)c([H])c2C([H])([H])[H])n2nc([H])nc2c1[H]


 25 27  0  0  0  0  0  0  0  0999 V2000
   12.4808   24.2949   -0.7814 C   0  0  0  0  0  0  0  0  0  0  0  0
   11.7839   24.9160    0.2266 C   0  0  0  0  0  0  0  0  0  0  0  0
   11.0869   24.2112    1.2223 C   0  0  0  0  0  0  0  0  0  0  0  0
   11.1564   22.8470    1.1097 C   0  0  0  0  0  0  0  0  0  0  0  0
   11.8730   22.2361    0.0729 C   0  0  0  0  0  0  0  0  0  0  0  0
   12.0385   20.9053   -0.1779 N   0  0  0  0  0  0  0  0  0  0  0  0
   12.8038   20.8529   -1.2792 C   0  0  0  0  0  0  0  0  0  0  0  0
   13.0993   22.0966   -1.6922 N   0  0  0  0  0  0  0  0  0  0  0  0
   12.5217   22.9355   -0.8533 N   0  0  0  0  0  0  0  0  0  0  0  0
   15.3196   24.3603   -0.7562 C   0  0  0  0  0  0  0  0  0  0  0  0
   14.5613   25.0732   -1.7908 C   0  0  0  0  0  0  0  0  0  0  0  0
   15.2709   25.7858   -2.7646 C   0  0  0  0  0  0  0  0  0  0  0  0
   14.5933   26.4687   -3.7535 C   0  0  0  0  0  0  0  0  0  0  0  0
   13.2325   26.4356   -3.7633 C   0  0  0  0  0  0  0  0  0  0  0  0
   12.5231   25.7225   -2.7889 C   0  0  0  0  0  0  0  0  0  0  0  0
   13.1966   25.0422   -1.8036 C   0  0  0  0  0  0  0  0  0  0  0  0
   15.3353   27.2038   -4.7575 C   0  0  0  0  0  0  0  0  0  0  0  0
   15.9184   27.8056   -5.5625 N   0  0  0  0  0  0  0  0  0  0  0  0
   10.4025   24.9275    2.2310 N   0  0  0  0  0  0  0  0  0  0  0  0
    9.0434   24.9248    2.4790 C   0  0  0  0  0  0  0  0  0  0  0  0
    8.1984   24.2823    1.8395 O   0  0  0  0  0  0  0  0  0  0  0  0
   11.0332   25.5268    2.8584 H   0  0  0  0  0  0  0  0  0  0  0  0
    8.5643   25.7910    3.6405 C   0  0  0  0  0  0  0  0  0  0  0  0
    9.5479   26.6618    4.0448 O   0  0  0  0  0  0  0  0  0  0  0  0
    9.4650   26.8948    4.9909 H   0  0  0  0  0  0  0  0  0  0  0  0
 10 11  1  0  0  0
 11 12  2  0  0  0
 12 13  1  0  0  0
 13 14  2  0  0  0
 14 15  1  0  0  0
 15 16  2  0  0  0
 16  1  1  0  0  0
  1  2  2  0  0  0
  2  3  1  0  0  0
  3 19  1  0  0  0
 19 20  1  0  0  0
 20 21  2  0  0  0
 20 23  1  0  0  0
 23 24  1  0  0  0
  3  4  2  0  0  0
  4  5  1  0  0  0
  5  6  2  0  0  0
  6  7  1  0  0  0
  7  8  2  0  0  0
  8  9  1  0  0  0
 13 17  1  0  0  0
 17 18  3  0  0  0
 16 11  1  0  0  0
  9  1  1  0  0  0
  9  5  1  0  0  0
 19 22  1  0  0  0
 24 25  1  0  0  0
M  END
> <minimizedAffinity>
-8.37789

> <CNNscore>
0.3486049175

> <CNNaffinity>
6.3348970413

> <CNN_VS>
2.2083761692

> <CNNaffinity_variance>
0.0925142094

$$$$
[H]OC([H])([H])C(=O)N([H])c1c([H])c(-c2c([H])c([H])c(C#N)c([H])c2C([H])([H])[H])n2nc([H])nc2c1[H]


 25 27  0  0  0  0  0  0  0  0999 V2000
   13.9166   24.2890   -2.1068 C   0  0  0  0  0  0  0  0  0  0  0  0
   13.4798   25.2208   -1.1967 C   0  0  0  0  0  0  0  0  0  0  0  0
   12.9985   24.8787    0.0782 C   0  0  0  0  0  0  0  0  0  0  0  0
   12.9985   23.5344    0.3456 C   0  0  0  0  0  0  0  0  0  0  0  0
   13.4485   22.6027   -0.5983 C   0  0  0  0  0  0  0  0  0  0  0  0
   13.5125   21.2443   -0.4894 N   0  0  0  0  0  0  0  0  0  0  0  0
   14.0132   20.8260   -1.6623 C   0  0  0  0  0  0  0  0  0  0  0  0
   14.2489   21.8790   -2.4623 N   0  0  0  0  0  0  0  0  0  0  0  0
   13.8978   22.9630   -1.7967 N   0  0  0  0  0  0  0  0  0  0  0  0
   12.9405   26.6382   -3.3686 C   0  0  0  0  0  0  0  0  0  0  0  0
   13.9420   25.7924   -4.0282 C   0  0  0  0  0  0  0  0  0  0  0  0
   14.4043   26.1716   -5.2940 C   0  0  0  0  0  0  0  0  0  0  0  0
   15.3456   25.4021   -5.9461 C   0  0  0  0  0  0  0  0  0  0  0  0
   15.8119   24.2765   -5.3390 C   0  0  0  0  0  0  0  0  0  0  0  0
   15.3491   23.8976   -4.0727 C   0  0  0  0  0  0  0  0  0  0  0  0
   14.4117   24.6629   -3.4223 C   0  0  0  0  0  0  0  0  0  0  0  0
   15.8188   25.8016   -7.2559 C   0  0  0  0  0  0  0  0  0  0  0  0
   16.1847   26.1323   -8.3080 N   0  0  0  0  0  0  0  0  0  0  0  0
   12.5770   25.9008    0.9594 N   0  0  0  0  0  0  0  0  0  0  0  0
   13.3761   26.8151    1.6184 C   0  0  0  0  0  0  0  0  0  0  0  0
   14.6111   26.8783    1.5379 O   0  0  0  0  0  0  0  0  0  0  0  0
   11.5162   25.9495    1.1111 H   0  0  0  0  0  0  0  0  0  0  0  0
   12.6588   27.8211    2.5142 C   0  0  0  0  0  0  0  0  0  0  0  0
   13.5169   28.3484    3.4494 O   0  0  0  0  0  0  0  0  0  0  0  0
   13.0489   28.6227    4.2630 H   0  0  0  0  0  0  0  0  0  0  0  0
 10 11  1  0  0  0
 11 12  2  0  0  0
 12 13  1  0  0  0
 13 14  2  0  0  0
 14 15  1  0  0  0
 15 16  2  0  0  0
 16  1  1  0  0  0
  1  2  2  0  0  0
  2  3  1  0  0  0
  3 19  1  0  0  0
 19 20  1  0  0  0
 20 21  2  0  0  0
 20 23  1  0  0  0
 23 24  1  0  0  0
  3  4  2  0  0  0
  4  5  1  0  0  0
  5  6  2  0  0  0
  6  7  1  0  0  0
  7  8  2  0  0  0
  8  9  1  0  0  0
 13 17  1  0  0  0
 17 18  3  0  0  0
 16 11  1  0  0  0
  9  1  1  0  0  0
  9  5  1  0  0  0
 19 22  1  0  0  0
 24 25  1  0  0  0
M  END
> <minimizedAffinity>
-0.87722

> <CNNscore>
0.3252927661

> <CNNaffinity>
6.3483748436

> <CNN_VS>
2.0650804043

> <CNNaffinity_variance>
0.2583889067

$$$$
[H]c1nc2c([H])c([H])c([H])c(-c3c(C([H])([H])[H])nc(C#N)nc3C([H])([H])[H])n2n1


 19 21  0  0  0  0  0  0  0  0999 V2000
   12.9118   27.3047   -3.4651 C   0  0  0  0  0  0  0  0  0  0  0  0
   13.8113   26.2964   -4.0857 C   0  0  0  0  0  0  0  0  0  0  0  0
   14.3645   26.5388   -5.2925 N   0  0  0  0  0  0  0  0  0  0  0  0
   15.1847   25.6614   -5.8984 C   0  0  0  0  0  0  0  0  0  0  0  0
   15.4435   24.5103   -5.2530 N   0  0  0  0  0  0  0  0  0  0  0  0
   14.9157   24.2159   -4.0414 C   0  0  0  0  0  0  0  0  0  0  0  0
   15.2216   22.9373   -3.3570 C   0  0  0  0  0  0  0  0  0  0  0  0
   14.0764   25.1186   -3.4260 C   0  0  0  0  0  0  0  0  0  0  0  0
   13.4638   24.8855   -2.1235 C   0  0  0  0  0  0  0  0  0  0  0  0
   12.0949   24.7953   -1.9663 C   0  0  0  0  0  0  0  0  0  0  0  0
   11.5045   24.5751   -0.7386 C   0  0  0  0  0  0  0  0  0  0  0  0
   12.3112   24.4406    0.3683 C   0  0  0  0  0  0  0  0  0  0  0  0
   13.6754   24.5351    0.1824 C   0  0  0  0  0  0  0  0  0  0  0  0
   14.6662   24.4414    1.0855 N   0  0  0  0  0  0  0  0  0  0  0  0
   15.8465   24.5951    0.4639 C   0  0  0  0  0  0  0  0  0  0  0  0
   15.5500   24.7829   -0.8283 N   0  0  0  0  0  0  0  0  0  0  0  0
   14.2477   24.7494   -1.0130 N   0  0  0  0  0  0  0  0  0  0  0  0
   15.7644   25.9480   -7.1940 C   0  0  0  0  0  0  0  0  0  0  0  0
   16.2311   26.1632   -8.2321 N   0  0  0  0  0  0  0  0  0  0  0  0
  1  2  1  0  0  0
  2  3  2  0  0  0
  3  4  1  0  0  0
  4  5  2  0  0  0
  5  6  1  0  0  0
  6  7  1  0  0  0
  6  8  2  0  0  0
  8  9  1  0  0  0
  9 10  2  0  0  0
 10 11  1  0  0  0
 11 12  2  0  0  0
 12 13  1  0  0  0
 13 14  2  0  0  0
 14 15  1  0  0  0
 15 16  2  0  0  0
 16 17  1  0  0  0
  4 18  1  0  0  0
 18 19  3  0  0  0
  8  2  1  0  0  0
 17  9  1  0  0  0
 17 13  1  0  0  0
M  END
> <minimizedAffinity>
-7.90629

> <CNNscore>
0.8443902135

> <CNNaffinity>
6.9108748436

> <CNN_VS>
5.8354749680

> <CNNaffinity_variance>
0.0776346773

$$$$
[H]c1nc2c([H])c([H])c([H])c(-c3c(C([H])([H])[H])nc(C#N)nc3C([H])([H])[H])n2n1


 19 21  0  0  0  0  0  0  0  0999 V2000
   15.0775   22.3672   -3.3926 C   0  0  0  0  0  0  0  0  0  0  0  0
   14.5675   23.7461   -3.1698 C   0  0  0  0  0  0  0  0  0  0  0  0
   15.0292   24.7655   -3.9241 N   0  0  0  0  0  0  0  0  0  0  0  0
   14.6019   26.0311   -3.7642 C   0  0  0  0  0  0  0  0  0  0  0  0
   13.6810   26.2564   -2.8103 N   0  0  0  0  0  0  0  0  0  0  0  0
   13.1839   25.2714   -2.0256 C   0  0  0  0  0  0  0  0  0  0  0  0
   12.1692   25.5541   -0.9829 C   0  0  0  0  0  0  0  0  0  0  0  0
   13.6255   23.9773   -2.1942 C   0  0  0  0  0  0  0  0  0  0  0  0
   13.1461   22.8555   -1.3955 C   0  0  0  0  0  0  0  0  0  0  0  0
   11.9059   22.2864   -1.6069 C   0  0  0  0  0  0  0  0  0  0  0  0
   11.4422   21.2247   -0.8571 C   0  0  0  0  0  0  0  0  0  0  0  0
   12.2466   20.7160    0.1370 C   0  0  0  0  0  0  0  0  0  0  0  0
   13.4807   21.3038    0.3263 C   0  0  0  0  0  0  0  0  0  0  0  0
   14.4407   21.0003    1.2164 N   0  0  0  0  0  0  0  0  0  0  0  0
   15.4802   21.8330    1.0462 C   0  0  0  0  0  0  0  0  0  0  0  0
   15.1303   22.6430    0.0390 N   0  0  0  0  0  0  0  0  0  0  0  0
   13.9299   22.3367   -0.4043 N   0  0  0  0  0  0  0  0  0  0  0  0
   15.1148   27.1056   -4.5881 C   0  0  0  0  0  0  0  0  0  0  0  0
   15.5271   27.9559   -5.2581 N   0  0  0  0  0  0  0  0  0  0  0  0
  1  2  1  0  0  0
  2  3  2  0  0  0
  3  4  1  0  0  0
  4  5  2  0  0  0
  5  6  1  0  0  0
  6  7  1  0  0  0
  6  8  2  0  0  0
  8  9  1  0  0  0
  9 10  2  0  0  0
 10 11  1  0  0  0
 11 12  2  0  0  0
 12 13  1  0  0  0
 13 14  2  0  0  0
 14 15  1  0  0  0
 15 16  2  0  0  0
 16 17  1  0  0  0
  4 18  1  0  0  0
 18 19  3  0  0  0
  8  2  1  0  0  0
 17  9  1  0  0  0
 17 13  1  0  0  0
M  END
> <minimizedAffinity>
-6.28932

> <CNNscore>
0.5349606872

> <CNNaffinity>
6.8089551926

> <CNN_VS>
3.6425232887

> <CNNaffinity_variance>
0.4425762296

$$$$
[H]c1nc2c([H])c([H])c([H])c(-c3c(C([H])([H])[H])nc(C#N)nc3C([H])([H])[H])n2n1


 19 21  0  0  0  0  0  0  0  0999 V2000
   12.1723   25.4883   -1.0258 C   0  0  0  0  0  0  0  0  0  0  0  0
   13.2000   25.2065   -2.0628 C   0  0  0  0  0  0  0  0  0  0  0  0
   13.6901   26.2126   -2.8169 N   0  0  0  0  0  0  0  0  0  0  0  0
   14.6203   26.0129   -3.7680 C   0  0  0  0  0  0  0  0  0  0  0  0
   15.0576   24.7542   -3.9499 N   0  0  0  0  0  0  0  0  0  0  0  0
   14.6004   23.7081   -3.2220 C   0  0  0  0  0  0  0  0  0  0  0  0
   15.1038   22.3326   -3.4482 C   0  0  0  0  0  0  0  0  0  0  0  0
   13.6478   23.9191   -2.2494 C   0  0  0  0  0  0  0  0  0  0  0  0
   13.0992   22.8533   -1.4191 C   0  0  0  0  0  0  0  0  0  0  0  0
   11.8231   22.3619   -1.6111 C   0  0  0  0  0  0  0  0  0  0  0  0
   11.2940   21.3538   -0.8314 C   0  0  0  0  0  0  0  0  0  0  0  0
   12.0679   20.8200    0.1738 C   0  0  0  0  0  0  0  0  0  0  0  0
   13.3389   21.3299    0.3433 C   0  0  0  0  0  0  0  0  0  0  0  0
   14.2812   20.9876    1.2384 N   0  0  0  0  0  0  0  0  0  0  0  0
   15.3725   21.7449    1.0425 C   0  0  0  0  0  0  0  0  0  0  0  0
   15.0719   22.5488    0.0147 N   0  0  0  0  0  0  0  0  0  0  0  0
   13.8518   22.3107   -0.4165 N   0  0  0  0  0  0  0  0  0  0  0  0
   15.1285   27.1116   -4.5626 C   0  0  0  0  0  0  0  0  0  0  0  0
   15.5479   27.9839   -5.1989 N   0  0  0  0  0  0  0  0  0  0  0  0
  1  2  1  0  0  0
  2  3  2  0  0  0
  3  4  1  0  0  0
  4  5  2  0  0  0
  5  6  1  0  0  0
  6  7  1  0  0  0
  6  8  2  0  0  0
  8  9  1  0  0  0
  9 10  2  0  0  0
 10 11  1  0  0  0
 11 12  2  0  0  0
 12 13  1  0  0  0
 13 14  2  0  0  0
 14 15  1  0  0  0
 15 16  2  0  0  0
 16 17  1  0  0  0
  4 18  1  0  0  0
 18 19  3  0  0  0
  8  2  1  0  0  0
 17  9  1  0  0  0
 17 13  1  0  0  0
M  END
> <minimizedAffinity>
-6.35796

> <CNNscore>
0.5073446035

> <CNNaffinity>
6.7709083557

> <CNN_VS>
3.4351837635

> <CNNaffinity_variance>
0.4385794103

$$$$
[H]c1nc2c([H])c([H])c([H])c(-c3c(C([H])([H])[H])nc(C#N)nc3C([H])([H])[H])n2n1


 19 21  0  0  0  0  0  0  0  0999 V2000
   16.8248   24.3689   -0.3839 C   0  0  0  0  0  0  0  0  0  0  0  0
   16.4030   25.1945   -1.5465 C   0  0  0  0  0  0  0  0  0  0  0  0
   17.2171   26.1628   -2.0162 N   0  0  0  0  0  0  0  0  0  0  0  0
   16.8846   26.9379   -3.0643 C   0  0  0  0  0  0  0  0  0  0  0  0
   15.6914   26.7154   -3.6434 N   0  0  0  0  0  0  0  0  0  0  0  0
   14.8362   25.7579   -3.2132 C   0  0  0  0  0  0  0  0  0  0  0  0
   13.5280   25.5388   -3.8744 C   0  0  0  0  0  0  0  0  0  0  0  0
   15.1824   24.9674   -2.1393 C   0  0  0  0  0  0  0  0  0  0  0  0
   14.3249   23.9140   -1.6090 C   0  0  0  0  0  0  0  0  0  0  0  0
   14.4873   22.5907   -1.9683 C   0  0  0  0  0  0  0  0  0  0  0  0
   13.6817   21.5858   -1.4727 C   0  0  0  0  0  0  0  0  0  0  0  0
   12.6805   21.9167   -0.5882 C   0  0  0  0  0  0  0  0  0  0  0  0
   12.5409   23.2465   -0.2467 C   0  0  0  0  0  0  0  0  0  0  0  0
   11.6558   23.8238    0.5836 N   0  0  0  0  0  0  0  0  0  0  0  0
   11.8828   25.1467    0.6208 C   0  0  0  0  0  0  0  0  0  0  0  0
   12.9191   25.3564   -0.2008 N   0  0  0  0  0  0  0  0  0  0  0  0
   13.3258   24.2225   -0.7300 N   0  0  0  0  0  0  0  0  0  0  0  0
   17.7781   27.9699   -3.5473 C   0  0  0  0  0  0  0  0  0  0  0  0
   18.5008   28.7853   -3.9405 N   0  0  0  0  0  0  0  0  0  0  0  0
  1  2  1  0  0  0
  2  3  2  0  0  0
  3  4  1  0  0  0
  4  5  2  0  0  0
  5  6  1  0  0  0
  6  7  1  0  0  0
  6  8  2  0  0  0
  8  9  1  0  0  0
  9 10  2  0  0  0
 10 11  1  0  0  0
 11 12  2  0  0  0
 12 13  1  0  0  0
 13 14  2  0  0  0
 14 15  1  0  0  0
 15 16  2  0  0  0
 16 17  1  0  0  0
  4 18  1  0  0  0
 18 19  3  0  0  0
  8  2  1  0  0  0
 17  9  1  0  0  0
 17 13  1  0  0  0
M  END
> <minimizedAffinity>
-6.18435

> <CNNscore>
0.4981794059

> <CNNaffinity>
6.6752157211

> <CNN_VS>
3.3254549503

> <CNNaffinity_variance>
0.4059176445

$$$$
[H]c1nc2c([H])c([H])c([H])c(-c3c(C([H])([H])[H])nc(C#N)nc3C([H])([H])[H])n2n1


 19 21  0  0  0  0  0  0  0  0999 V2000
   13.6843   25.3973   -3.9499 C   0  0  0  0  0  0  0  0  0  0  0  0
   14.9548   25.6745   -3.2289 C   0  0  0  0  0  0  0  0  0  0  0  0
   15.7814   26.6462   -3.6691 N   0  0  0  0  0  0  0  0  0  0  0  0
   16.9420   26.9379   -3.0546 C   0  0  0  0  0  0  0  0  0  0  0  0
   17.2621   26.2178   -1.9649 N   0  0  0  0  0  0  0  0  0  0  0  0
   16.4703   25.2322   -1.4802 C   0  0  0  0  0  0  0  0  0  0  0  0
   16.8531   24.4572   -0.2763 C   0  0  0  0  0  0  0  0  0  0  0  0
   15.2830   24.9381   -2.1141 C   0  0  0  0  0  0  0  0  0  0  0  0
   14.3695   23.8950   -1.6628 C   0  0  0  0  0  0  0  0  0  0  0  0
   14.4937   22.5850   -2.0813 C   0  0  0  0  0  0  0  0  0  0  0  0
   13.6350   21.5900   -1.6607 C   0  0  0  0  0  0  0  0  0  0  0  0
   12.6184   21.9172   -0.7926 C   0  0  0  0  0  0  0  0  0  0  0  0
   12.5177   23.2336   -0.3909 C   0  0  0  0  0  0  0  0  0  0  0  0
   11.6281   23.8048    0.4388 N   0  0  0  0  0  0  0  0  0  0  0  0
   11.9033   25.1145    0.5478 C   0  0  0  0  0  0  0  0  0  0  0  0
   12.9733   25.3225   -0.2300 N   0  0  0  0  0  0  0  0  0  0  0  0
   13.3543   24.2001   -0.8012 N   0  0  0  0  0  0  0  0  0  0  0  0
   17.8098   27.9863   -3.5492 C   0  0  0  0  0  0  0  0  0  0  0  0
   18.5129   28.8149   -3.9502 N   0  0  0  0  0  0  0  0  0  0  0  0
  1  2  1  0  0  0
  2  3  2  0  0  0
  3  4  1  0  0  0
  4  5  2  0  0  0
  5  6  1  0  0  0
  6  7  1  0  0  0
  6  8  2  0  0  0
  8  9  1  0  0  0
  9 10  2  0  0  0
 10 11  1  0  0  0
 11 12  2  0  0  0
 12 13  1  0  0  0
 13 14  2  0  0  0
 14 15  1  0  0  0
 15 16  2  0  0  0
 16 17  1  0  0  0
  4 18  1  0  0  0
 18 19  3  0  0  0
  8  2  1  0  0  0
 17  9  1  0  0  0
 17 13  1  0  0  0
M  END
> <minimizedAffinity>
-6.01597

> <CNNscore>
0.4948439598

> <CNNaffinity>
6.6644201279

> <CNN_VS>
3.2978479862

> <CNNaffinity_variance>
0.3840854168

$$$$
[H]c1nc2c([H])c([H])c([H])c(-c3c(C([H])([H])[H])nc(C#N)nc3C([H])([H])[H])n2n1


 19 21  0  0  0  0  0  0  0  0999 V2000
   14.7997   25.2019   -5.5124 C   0  0  0  0  0  0  0  0  0  0  0  0
   15.1456   24.5701   -4.2116 C   0  0  0  0  0  0  0  0  0  0  0  0
   14.6113   23.3763   -3.8790 N   0  0  0  0  0  0  0  0  0  0  0  0
   14.8904   22.7611   -2.7156 C   0  0  0  0  0  0  0  0  0  0  0  0
   15.7357   23.3834   -1.8749 N   0  0  0  0  0  0  0  0  0  0  0  0
   16.2999   24.5812   -2.1579 C   0  0  0  0  0  0  0  0  0  0  0  0
   17.2279   25.2402   -1.2086 C   0  0  0  0  0  0  0  0  0  0  0  0
   16.0101   25.2062   -3.3510 C   0  0  0  0  0  0  0  0  0  0  0  0
   16.5710   26.4952   -3.7385 C   0  0  0  0  0  0  0  0  0  0  0  0
   17.1482   27.3466   -2.8173 C   0  0  0  0  0  0  0  0  0  0  0  0
   17.6819   28.5685   -3.1728 C   0  0  0  0  0  0  0  0  0  0  0  0
   17.6363   28.9507   -4.4942 C   0  0  0  0  0  0  0  0  0  0  0  0
   17.0539   28.0806   -5.3931 C   0  0  0  0  0  0  0  0  0  0  0  0
   16.8858   28.2135   -6.7198 N   0  0  0  0  0  0  0  0  0  0  0  0
   16.2688   27.1212   -7.1986 C   0  0  0  0  0  0  0  0  0  0  0  0
   16.0682   26.3284   -6.1383 N   0  0  0  0  0  0  0  0  0  0  0  0
   16.5353   26.8922   -5.0451 N   0  0  0  0  0  0  0  0  0  0  0  0
   14.3026   21.4798   -2.3848 C   0  0  0  0  0  0  0  0  0  0  0  0
   13.8320   20.4515   -2.1343 N   0  0  0  0  0  0  0  0  0  0  0  0
  1  2  1  0  0  0
  2  3  2  0  0  0
  3  4  1  0  0  0
  4  5  2  0  0  0
  5  6  1  0  0  0
  6  7  1  0  0  0
  6  8  2  0  0  0
  8  9  1  0  0  0
  9 10  2  0  0  0
 10 11  1  0  0  0
 11 12  2  0  0  0
 12 13  1  0  0  0
 13 14  2  0  0  0
 14 15  1  0  0  0
 15 16  2  0  0  0
 16 17  1  0  0  0
  4 18  1  0  0  0
 18 19  3  0  0  0
  8  2  1  0  0  0
 17  9  1  0  0  0
 17 13  1  0  0  0
M  END
> <minimizedAffinity>
2.21018

> <CNNscore>
0.4427115321

> <CNNaffinity>
5.9360985756

> <CNN_VS>
2.6279792786

> <CNNaffinity_variance>
0.2579772472

$$$$
[H]c1nc2c([H])c([H])c([H])c(-c3c(C([H])([H])[H])nc(C#N)nc3C([H])([H])[H])n2n1


 19 21  0  0  0  0  0  0  0  0999 V2000
   10.9491   23.5632   -2.1862 C   0  0  0  0  0  0  0  0  0  0  0  0
   11.6346   23.3953   -0.8774 C   0  0  0  0  0  0  0  0  0  0  0  0
   10.9115   23.1512    0.2356 N   0  0  0  0  0  0  0  0  0  0  0  0
   11.4809   22.9913    1.4440 C   0  0  0  0  0  0  0  0  0  0  0  0
   12.8208   23.0836    1.5127 N   0  0  0  0  0  0  0  0  0  0  0  0
   13.5943   23.3268    0.4283 C   0  0  0  0  0  0  0  0  0  0  0  0
   15.0692   23.4225    0.5389 C   0  0  0  0  0  0  0  0  0  0  0  0
   13.0052   23.4897   -0.8064 C   0  0  0  0  0  0  0  0  0  0  0  0
   13.7589   23.7542   -2.0262 C   0  0  0  0  0  0  0  0  0  0  0  0
   14.6498   22.8368   -2.5472 C   0  0  0  0  0  0  0  0  0  0  0  0
   15.3682   23.0767   -3.7007 C   0  0  0  0  0  0  0  0  0  0  0  0
   15.1889   24.2746   -4.3543 C   0  0  0  0  0  0  0  0  0  0  0  0
   14.2927   25.1727   -3.8116 C   0  0  0  0  0  0  0  0  0  0  0  0
   13.9409   26.3939   -4.2487 N   0  0  0  0  0  0  0  0  0  0  0  0
   13.0327   26.9185   -3.4103 C   0  0  0  0  0  0  0  0  0  0  0  0
   12.8435   25.9932   -2.4611 N   0  0  0  0  0  0  0  0  0  0  0  0
   13.5947   24.9373   -2.6892 N   0  0  0  0  0  0  0  0  0  0  0  0
   10.6801   22.7302    2.6218 C   0  0  0  0  0  0  0  0  0  0  0  0
   10.0359   22.5353    3.5645 N   0  0  0  0  0  0  0  0  0  0  0  0
  1  2  1  0  0  0
  2  3  2  0  0  0
  3  4  1  0  0  0
  4  5  2  0  0  0
  5  6  1  0  0  0
  6  7  1  0  0  0
  6  8  2  0  0  0
  8  9  1  0  0  0
  9 10  2  0  0  0
 10 11  1  0  0  0
 11 12  2  0  0  0
 12 13  1  0  0  0
 13 14  2  0  0  0
 14 15  1  0  0  0
 15 16  2  0  0  0
 16 17  1  0  0  0
  4 18  1  0  0  0
 18 19  3  0  0  0
  8  2  1  0  0  0
 17  9  1  0  0  0
 17 13  1  0  0  0
M  END
> <minimizedAffinity>
-5.52465

> <CNNscore>
0.4386906624

> <CNNaffinity>
6.2289752960

> <CNN_VS>
2.7325932980

> <CNNaffinity_variance>
0.3853257298

$$$$
[H]c1nc2c([H])c([H])c([H])c(-c3c(C([H])([H])[H])nc(C#N)nc3C([H])([H])[H])n2n1


 19 21  0  0  0  0  0  0  0  0999 V2000
   10.6812   23.7729   -1.8493 C   0  0  0  0  0  0  0  0  0  0  0  0
   11.6674   23.4966   -0.7713 C   0  0  0  0  0  0  0  0  0  0  0  0
   11.3055   22.7613    0.3009 N   0  0  0  0  0  0  0  0  0  0  0  0
   12.1576   22.4819    1.3037 C   0  0  0  0  0  0  0  0  0  0  0  0
   13.4081   22.9669    1.2050 N   0  0  0  0  0  0  0  0  0  0  0  0
   13.8241   23.7098    0.1523 C   0  0  0  0  0  0  0  0  0  0  0  0
   15.2100   24.2293    0.0748 C   0  0  0  0  0  0  0  0  0  0  0  0
   12.9467   23.9926   -0.8715 C   0  0  0  0  0  0  0  0  0  0  0  0
   13.3077   24.7837   -2.0420 C   0  0  0  0  0  0  0  0  0  0  0  0
   12.7999   26.0505   -2.2516 C   0  0  0  0  0  0  0  0  0  0  0  0
   13.1346   26.8078   -3.3555 C   0  0  0  0  0  0  0  0  0  0  0  0
   14.0064   26.2795   -4.2802 C   0  0  0  0  0  0  0  0  0  0  0  0
   14.4983   25.0117   -4.0457 C   0  0  0  0  0  0  0  0  0  0  0  0
   15.3512   24.2796   -4.7824 N   0  0  0  0  0  0  0  0  0  0  0  0
   15.5570   23.0990   -4.1769 C   0  0  0  0  0  0  0  0  0  0  0  0
   14.8140   23.1321   -3.0634 N   0  0  0  0  0  0  0  0  0  0  0  0
   14.1714   24.2766   -2.9709 N   0  0  0  0  0  0  0  0  0  0  0  0
   11.7420   21.6901    2.4425 C   0  0  0  0  0  0  0  0  0  0  0  0
   11.3960   21.0615    3.3518 N   0  0  0  0  0  0  0  0  0  0  0  0
  1  2  1  0  0  0
  2  3  2  0  0  0
  3  4  1  0  0  0
  4  5  2  0  0  0
  5  6  1  0  0  0
  6  7  1  0  0  0
  6  8  2  0  0  0
  8  9  1  0  0  0
  9 10  2  0  0  0
 10 11  1  0  0  0
 11 12  2  0  0  0
 12 13  1  0  0  0
 13 14  2  0  0  0
 14 15  1  0  0  0
 15 16  2  0  0  0
 16 17  1  0  0  0
  4 18  1  0  0  0
 18 19  3  0  0  0
  8  2  1  0  0  0
 17  9  1  0  0  0
 17 13  1  0  0  0
M  END
> <minimizedAffinity>
-7.04976

> <CNNscore>
0.4284683764

> <CNNaffinity>
6.3883032799

> <CNN_VS>
2.7371859550

> <CNNaffinity_variance>
0.3036641181

$$$$
[H]c1nc2c([H])c([H])c([H])c(-c3c(C([H])([H])[H])nc(C#N)nc3C([H])([H])[H])n2n1


 19 21  0  0  0  0  0  0  0  0999 V2000
   14.1735   26.4478   -4.7864 C   0  0  0  0  0  0  0  0  0  0  0  0
   15.3100   26.5495   -3.8330 C   0  0  0  0  0  0  0  0  0  0  0  0
   16.4069   27.2619   -4.1655 N   0  0  0  0  0  0  0  0  0  0  0  0
   17.4625   27.3862   -3.3409 C   0  0  0  0  0  0  0  0  0  0  0  0
   17.3920   26.7665   -2.1494 N   0  0  0  0  0  0  0  0  0  0  0  0
   16.3166   26.0392   -1.7650 C   0  0  0  0  0  0  0  0  0  0  0  0
   16.2713   25.3686   -0.4441 C   0  0  0  0  0  0  0  0  0  0  0  0
   15.2387   25.9157   -2.6140 C   0  0  0  0  0  0  0  0  0  0  0  0
   14.0404   25.1534   -2.2836 C   0  0  0  0  0  0  0  0  0  0  0  0
   12.8062   25.7571   -2.1456 C   0  0  0  0  0  0  0  0  0  0  0  0
   11.6659   25.0456   -1.8332 C   0  0  0  0  0  0  0  0  0  0  0  0
   11.7644   23.6847   -1.6529 C   0  0  0  0  0  0  0  0  0  0  0  0
   13.0096   23.1077   -1.7967 C   0  0  0  0  0  0  0  0  0  0  0  0
   13.3699   21.8187   -1.6749 N   0  0  0  0  0  0  0  0  0  0  0  0
   14.6888   21.7055   -1.8999 C   0  0  0  0  0  0  0  0  0  0  0  0
   15.1168   22.9475   -2.1592 N   0  0  0  0  0  0  0  0  0  0  0  0
   14.1178   23.8019   -2.1008 N   0  0  0  0  0  0  0  0  0  0  0  0
   18.6268   28.1572   -3.7238 C   0  0  0  0  0  0  0  0  0  0  0  0
   19.5591   28.7791   -4.0166 N   0  0  0  0  0  0  0  0  0  0  0  0
  1  2  1  0  0  0
  2  3  2  0  0  0
  3  4  1  0  0  0
  4  5  2  0  0  0
  5  6  1  0  0  0
  6  7  1  0  0  0
  6  8  2  0  0  0
  8  9  1  0  0  0
  9 10  2  0  0  0
 10 11  1  0  0  0
 11 12  2  0  0  0
 12 13  1  0  0  0
 13 14  2  0  0  0
 14 15  1  0  0  0
 15 16  2  0  0  0
 16 17  1  0  0  0
  4 18  1  0  0  0
 18 19  3  0  0  0
  8  2  1  0  0  0
 17  9  1  0  0  0
 17 13  1  0  0  0
M  END
> <minimizedAffinity>
-4.83492

> <CNNscore>
0.4119700193

> <CNNaffinity>
6.3739852905

> <CNN_VS>
2.6258907318

> <CNNaffinity_variance>
0.1298603565

$$$$
[H]c1nc2c([H])c(N([H])C(=O)C3([H])C([H])([H])C3([H])[H])c([H])c(-c3c([H])c([H])c(C#N)c([H])c3C([H])([H])[H])n2n1


 25 28  0  0  0  0  0  0  0  0999 V2000
   13.7009   24.6950   -1.8338 C   0  0  0  0  0  0  0  0  0  0  0  0
   12.3705   24.4409   -1.6424 C   0  0  0  0  0  0  0  0  0  0  0  0
   11.8158   24.0718   -0.4014 C   0  0  0  0  0  0  0  0  0  0  0  0
   12.7323   23.9862    0.6169 C   0  0  0  0  0  0  0  0  0  0  0  0
   14.0876   24.2535    0.3852 C   0  0  0  0  0  0  0  0  0  0  0  0
   15.1405   24.2311    1.2199 N   0  0  0  0  0  0  0  0  0  0  0  0
   16.2612   24.5618    0.5438 C   0  0  0  0  0  0  0  0  0  0  0  0
   15.8889   24.7901   -0.7241 N   0  0  0  0  0  0  0  0  0  0  0  0
   14.5629   24.5998   -0.8110 N   0  0  0  0  0  0  0  0  0  0  0  0
   15.1828   22.8424   -3.3553 C   0  0  0  0  0  0  0  0  0  0  0  0
   14.9109   24.1828   -3.9114 C   0  0  0  0  0  0  0  0  0  0  0  0
   15.3775   24.5479   -5.1822 C   0  0  0  0  0  0  0  0  0  0  0  0
   15.1169   25.8056   -5.6925 C   0  0  0  0  0  0  0  0  0  0  0  0
   14.3945   26.6872   -4.9329 C   0  0  0  0  0  0  0  0  0  0  0  0
   13.9459   26.3122   -3.6911 C   0  0  0  0  0  0  0  0  0  0  0  0
   14.1852   25.0700   -3.1496 C   0  0  0  0  0  0  0  0  0  0  0  0
   15.6169   26.1339   -7.0016 C   0  0  0  0  0  0  0  0  0  0  0  0
   16.0310   26.3819   -8.0545 N   0  0  0  0  0  0  0  0  0  0  0  0
   10.4320   23.8310   -0.3025 N   0  0  0  0  0  0  0  0  0  0  0  0
    9.6668   23.6688    0.8400 C   0  0  0  0  0  0  0  0  0  0  0  0
   10.1328   23.7180    1.9910 O   0  0  0  0  0  0  0  0  0  0  0  0
    9.8920   23.7633   -1.2291 H   0  0  0  0  0  0  0  0  0  0  0  0
    8.1740   23.4142    0.7726 C   0  0  0  0  0  0  0  0  0  0  0  0
    7.7975   21.9673    0.5909 C   0  0  0  0  0  0  0  0  0  0  0  0
    7.5324   22.6800    1.8656 C   0  0  0  0  0  0  0  0  0  0  0  0
 10 11  1  0  0  0
 11 12  2  0  0  0
 12 13  1  0  0  0
 13 14  2  0  0  0
 14 15  1  0  0  0
 15 16  2  0  0  0
 16  1  1  0  0  0
  1  2  2  0  0  0
  2  3  1  0  0  0
  3 19  1  0  0  0
 19 20  1  0  0  0
 20 21  2  0  0  0
 20 23  1  0  0  0
 23 24  1  0  0  0
 24 25  1  0  0  0
  3  4  2  0  0  0
  4  5  1  0  0  0
  5  6  2  0  0  0
  6  7  1  0  0  0
  7  8  2  0  0  0
  8  9  1  0  0  0
 13 17  1  0  0  0
 17 18  3  0  0  0
 16 11  1  0  0  0
  9  1  1  0  0  0
 25 23  1  0  0  0
  9  5  1  0  0  0
 19 22  1  0  0  0
M  END
> <minimizedAffinity>
-8.78680

> <CNNscore>
0.8062143922

> <CNNaffinity>
7.2444901466

> <CNN_VS>
5.8406124115

> <CNNaffinity_variance>
0.0880928785

$$$$
[H]c1nc2c([H])c(N([H])C(=O)C3([H])C([H])([H])C3([H])[H])c([H])c(-c3c([H])c([H])c(C#N)c([H])c3C([H])([H])[H])n2n1


 25 28  0  0  0  0  0  0  0  0999 V2000
   12.9827   22.8771   -1.3324 C   0  0  0  0  0  0  0  0  0  0  0  0
   11.6563   22.5631   -1.4474 C   0  0  0  0  0  0  0  0  0  0  0  0
   11.0040   21.6156   -0.6345 C   0  0  0  0  0  0  0  0  0  0  0  0
   11.8192   21.0232    0.2975 C   0  0  0  0  0  0  0  0  0  0  0  0
   13.1736   21.3691    0.3876 C   0  0  0  0  0  0  0  0  0  0  0  0
   14.1389   20.9242    1.2098 N   0  0  0  0  0  0  0  0  0  0  0  0
   15.3003   21.5507    0.9249 C   0  0  0  0  0  0  0  0  0  0  0  0
   15.0422   22.3919   -0.0869 N   0  0  0  0  0  0  0  0  0  0  0  0
   13.7440   22.2742   -0.4075 N   0  0  0  0  0  0  0  0  0  0  0  0
   12.0672   25.5413   -1.2483 C   0  0  0  0  0  0  0  0  0  0  0  0
   13.1421   25.1747   -2.1917 C   0  0  0  0  0  0  0  0  0  0  0  0
   13.7135   26.1293   -3.0450 C   0  0  0  0  0  0  0  0  0  0  0  0
   14.7192   25.7746   -3.9242 C   0  0  0  0  0  0  0  0  0  0  0  0
   15.1460   24.4732   -3.9452 C   0  0  0  0  0  0  0  0  0  0  0  0
   14.5748   23.5524   -3.1027 C   0  0  0  0  0  0  0  0  0  0  0  0
   13.5723   23.8676   -2.2143 C   0  0  0  0  0  0  0  0  0  0  0  0
   15.2743   26.7897   -4.7801 C   0  0  0  0  0  0  0  0  0  0  0  0
   15.7027   27.6114   -5.4750 N   0  0  0  0  0  0  0  0  0  0  0  0
    9.6328   21.3602   -0.8281 N   0  0  0  0  0  0  0  0  0  0  0  0
    8.9537   20.1612   -0.6917 C   0  0  0  0  0  0  0  0  0  0  0  0
    9.5016   19.0957   -0.3618 O   0  0  0  0  0  0  0  0  0  0  0  0
    9.0276   22.1990   -1.1191 H   0  0  0  0  0  0  0  0  0  0  0  0
    7.4620   20.0551   -0.9390 C   0  0  0  0  0  0  0  0  0  0  0  0
    7.0895   19.7151   -2.3581 C   0  0  0  0  0  0  0  0  0  0  0  0
    6.8895   18.7441   -1.2535 C   0  0  0  0  0  0  0  0  0  0  0  0
 10 11  1  0  0  0
 11 12  2  0  0  0
 12 13  1  0  0  0
 13 14  2  0  0  0
 14 15  1  0  0  0
 15 16  2  0  0  0
 16  1  1  0  0  0
  1  2  2  0  0  0
  2  3  1  0  0  0
  3 19  1  0  0  0
 19 20  1  0  0  0
 20 21  2  0  0  0
 20 23  1  0  0  0
 23 24  1  0  0  0
 24 25  1  0  0  0
  3  4  2  0  0  0
  4  5  1  0  0  0
  5  6  2  0  0  0
  6  7  1  0  0  0
  7  8  2  0  0  0
  8  9  1  0  0  0
 13 17  1  0  0  0
 17 18  3  0  0  0
 16 11  1  0  0  0
  9  1  1  0  0  0
 25 23  1  0  0  0
  9  5  1  0  0  0
 19 22  1  0  0  0
M  END
> <minimizedAffinity>
-8.82100

> <CNNscore>
0.7711213827

> <CNNaffinity>
7.4142541885

> <CNN_VS>
5.7172899246

> <CNNaffinity_variance>
0.3387503624

$$$$
[H]c1nc2c([H])c(N([H])C(=O)C3([H])C([H])([H])C3([H])[H])c([H])c(-c3c([H])c([H])c(C#N)c([H])c3C([H])([H])[H])n2n1


 25 28  0  0  0  0  0  0  0  0999 V2000
   13.7986   24.4694   -1.9178 C   0  0  0  0  0  0  0  0  0  0  0  0
   12.4856   24.1332   -1.7328 C   0  0  0  0  0  0  0  0  0  0  0  0
   11.9369   23.7830   -0.4837 C   0  0  0  0  0  0  0  0  0  0  0  0
   12.8401   23.8066    0.5497 C   0  0  0  0  0  0  0  0  0  0  0  0
   14.1777   24.1558    0.3242 C   0  0  0  0  0  0  0  0  0  0  0  0
   15.2157   24.2435    1.1731 N   0  0  0  0  0  0  0  0  0  0  0  0
   16.3223   24.6198    0.4976 C   0  0  0  0  0  0  0  0  0  0  0  0
   15.9564   24.7647   -0.7843 N   0  0  0  0  0  0  0  0  0  0  0  0
   14.6480   24.4798   -0.8802 N   0  0  0  0  0  0  0  0  0  0  0  0
   12.8817   26.8279   -3.1588 C   0  0  0  0  0  0  0  0  0  0  0  0
   13.8450   25.9634   -3.8693 C   0  0  0  0  0  0  0  0  0  0  0  0
   14.3099   26.2967   -5.1495 C   0  0  0  0  0  0  0  0  0  0  0  0
   15.2115   25.4799   -5.8051 C   0  0  0  0  0  0  0  0  0  0  0  0
   15.6414   24.3395   -5.1799 C   0  0  0  0  0  0  0  0  0  0  0  0
   15.1754   24.0293   -3.9267 C   0  0  0  0  0  0  0  0  0  0  0  0
   14.2780   24.8172   -3.2428 C   0  0  0  0  0  0  0  0  0  0  0  0
   15.6596   25.8641   -7.1176 C   0  0  0  0  0  0  0  0  0  0  0  0
   16.0354   26.1605   -8.1724 N   0  0  0  0  0  0  0  0  0  0  0  0
   10.5712   23.4523   -0.3924 N   0  0  0  0  0  0  0  0  0  0  0  0
    9.6914   23.7103    0.6451 C   0  0  0  0  0  0  0  0  0  0  0  0
   10.0155   24.3015    1.6890 O   0  0  0  0  0  0  0  0  0  0  0  0
   10.1490   22.9324   -1.2327 H   0  0  0  0  0  0  0  0  0  0  0  0
    8.2381   23.2834    0.5853 C   0  0  0  0  0  0  0  0  0  0  0  0
    8.0276   21.7921    0.5858 C   0  0  0  0  0  0  0  0  0  0  0  0
    7.6463   22.6261    1.7529 C   0  0  0  0  0  0  0  0  0  0  0  0
 10 11  1  0  0  0
 11 12  2  0  0  0
 12 13  1  0  0  0
 13 14  2  0  0  0
 14 15  1  0  0  0
 15 16  2  0  0  0
 16  1  1  0  0  0
  1  2  2  0  0  0
  2  3  1  0  0  0
  3 19  1  0  0  0
 19 20  1  0  0  0
 20 21  2  0  0  0
 20 23  1  0  0  0
 23 24  1  0  0  0
 24 25  1  0  0  0
  3  4  2  0  0  0
  4  5  1  0  0  0
  5  6  2  0  0  0
  6  7  1  0  0  0
  7  8  2  0  0  0
  8  9  1  0  0  0
 13 17  1  0  0  0
 17 18  3  0  0  0
 16 11  1  0  0  0
  9  1  1  0  0  0
 25 23  1  0  0  0
  9  5  1  0  0  0
 19 22  1  0  0  0
M  END
> <minimizedAffinity>
-8.54686

> <CNNscore>
0.7363818884

> <CNNaffinity>
7.1878671646

> <CNN_VS>
5.2930150032

> <CNNaffinity_variance>
0.1359919012

$$$$
[H]c1nc2c([H])c(N([H])C(=O)C3([H])C([H])([H])C3([H])[H])c([H])c(-c3c([H])c([H])c(C#N)c([H])c3C([H])([H])[H])n2n1


 25 28  0  0  0  0  0  0  0  0999 V2000
   13.7980   23.8288   -1.5096 C   0  0  0  0  0  0  0  0  0  0  0  0
   13.9621   24.2492   -2.8009 C   0  0  0  0  0  0  0  0  0  0  0  0
   15.1157   24.9090   -3.2676 C   0  0  0  0  0  0  0  0  0  0  0  0
   16.0777   25.0993   -2.3071 C   0  0  0  0  0  0  0  0  0  0  0  0
   15.8763   24.6556   -0.9937 C   0  0  0  0  0  0  0  0  0  0  0  0
   16.6681   24.7344    0.0890 N   0  0  0  0  0  0  0  0  0  0  0  0
   16.0487   24.1654    1.1451 C   0  0  0  0  0  0  0  0  0  0  0  0
   14.8596   23.7318    0.7021 N   0  0  0  0  0  0  0  0  0  0  0  0
   14.7635   24.0349   -0.6021 N   0  0  0  0  0  0  0  0  0  0  0  0
   13.7069   21.0123   -1.4636 C   0  0  0  0  0  0  0  0  0  0  0  0
   12.5046   21.7817   -1.0861 C   0  0  0  0  0  0  0  0  0  0  0  0
   11.3204   21.1344   -0.7059 C   0  0  0  0  0  0  0  0  0  0  0  0
   10.2011   21.8651   -0.3546 C   0  0  0  0  0  0  0  0  0  0  0  0
   10.2717   23.2326   -0.3853 C   0  0  0  0  0  0  0  0  0  0  0  0
   11.4395   23.8489   -0.7602 C   0  0  0  0  0  0  0  0  0  0  0  0
   12.5737   23.1559   -1.1164 C   0  0  0  0  0  0  0  0  0  0  0  0
    9.0089   21.1556    0.0285 C   0  0  0  0  0  0  0  0  0  0  0  0
    8.0487   20.5764    0.3185 N   0  0  0  0  0  0  0  0  0  0  0  0
   15.1929   25.3036   -4.6171 N   0  0  0  0  0  0  0  0  0  0  0  0
   14.5412   26.3513   -5.2454 C   0  0  0  0  0  0  0  0  0  0  0  0
   13.7590   27.1213   -4.6627 O   0  0  0  0  0  0  0  0  0  0  0  0
   15.8395   24.7218   -5.2481 H   0  0  0  0  0  0  0  0  0  0  0  0
   14.7360   26.6443   -6.7198 C   0  0  0  0  0  0  0  0  0  0  0  0
   16.1443   27.0206   -7.0983 C   0  0  0  0  0  0  0  0  0  0  0  0
   15.5505   25.7276   -7.5207 C   0  0  0  0  0  0  0  0  0  0  0  0
 10 11  1  0  0  0
 11 12  2  0  0  0
 12 13  1  0  0  0
 13 14  2  0  0  0
 14 15  1  0  0  0
 15 16  2  0  0  0
 16  1  1  0  0  0
  1  2  2  0  0  0
  2  3  1  0  0  0
  3 19  1  0  0  0
 19 20  1  0  0  0
 20 21  2  0  0  0
 20 23  1  0  0  0
 23 24  1  0  0  0
 24 25  1  0  0  0
  3  4  2  0  0  0
  4  5  1  0  0  0
  5  6  2  0  0  0
  6  7  1  0  0  0
  7  8  2  0  0  0
  8  9  1  0  0  0
 13 17  1  0  0  0
 17 18  3  0  0  0
 16 11  1  0  0  0
  9  1  1  0  0  0
 25 23  1  0  0  0
  9  5  1  0  0  0
 19 22  1  0  0  0
M  END
> <minimizedAffinity>
-8.09373

> <CNNscore>
0.6321403980

> <CNNaffinity>
7.2492384911

> <CNN_VS>
4.5825366974

> <CNNaffinity_variance>
0.1160601377

$$$$
[H]c1nc2c([H])c(N([H])C(=O)C3([H])C([H])([H])C3([H])[H])c([H])c(-c3c([H])c([H])c(C#N)c([H])c3C([H])([H])[H])n2n1


 25 28  0  0  0  0  0  0  0  0999 V2000
   15.7958   24.6863   -3.5377 C   0  0  0  0  0  0  0  0  0  0  0  0
   16.3388   24.7656   -2.2847 C   0  0  0  0  0  0  0  0  0  0  0  0
   16.8335   25.9579   -1.7212 C   0  0  0  0  0  0  0  0  0  0  0  0
   16.7252   27.0516   -2.5435 C   0  0  0  0  0  0  0  0  0  0  0  0
   16.1635   26.9342   -3.8214 C   0  0  0  0  0  0  0  0  0  0  0  0
   15.9616   27.8560   -4.7780 N   0  0  0  0  0  0  0  0  0  0  0  0
   15.3853   27.2751   -5.8518 C   0  0  0  0  0  0  0  0  0  0  0  0
   15.2320   25.9781   -5.5480 N   0  0  0  0  0  0  0  0  0  0  0  0
   15.7090   25.7799   -4.3090 N   0  0  0  0  0  0  0  0  0  0  0  0
   14.2610   23.0214   -1.8597 C   0  0  0  0  0  0  0  0  0  0  0  0
   14.5590   22.5832   -3.2378 C   0  0  0  0  0  0  0  0  0  0  0  0
   14.0913   21.3540   -3.7239 C   0  0  0  0  0  0  0  0  0  0  0  0
   14.3765   20.9541   -5.0157 C   0  0  0  0  0  0  0  0  0  0  0  0
   15.1243   21.7817   -5.8107 C   0  0  0  0  0  0  0  0  0  0  0  0
   15.5737   22.9813   -5.3177 C   0  0  0  0  0  0  0  0  0  0  0  0
   15.3102   23.4133   -4.0380 C   0  0  0  0  0  0  0  0  0  0  0  0
   13.8744   19.6839   -5.4693 C   0  0  0  0  0  0  0  0  0  0  0  0
   13.4641   18.6576   -5.8157 N   0  0  0  0  0  0  0  0  0  0  0  0
   17.3743   25.9404   -0.4211 N   0  0  0  0  0  0  0  0  0  0  0  0
   17.5421   24.8580    0.4260 C   0  0  0  0  0  0  0  0  0  0  0  0
   17.2170   23.6963    0.1279 O   0  0  0  0  0  0  0  0  0  0  0  0
   17.7020   26.8852   -0.0279 H   0  0  0  0  0  0  0  0  0  0  0  0
   18.1468   25.0108    1.8075 C   0  0  0  0  0  0  0  0  0  0  0  0
   18.7208   23.7411    2.3790 C   0  0  0  0  0  0  0  0  0  0  0  0
   19.5959   24.8659    1.9644 C   0  0  0  0  0  0  0  0  0  0  0  0
 10 11  1  0  0  0
 11 12  2  0  0  0
 12 13  1  0  0  0
 13 14  2  0  0  0
 14 15  1  0  0  0
 15 16  2  0  0  0
 16  1  1  0  0  0
  1  2  2  0  0  0
  2  3  1  0  0  0
  3 19  1  0  0  0
 19 20  1  0  0  0
 20 21  2  0  0  0
 20 23  1  0  0  0
 23 24  1  0  0  0
 24 25  1  0  0  0
  3  4  2  0  0  0
  4  5  1  0  0  0
  5  6  2  0  0  0
  6  7  1  0  0  0
  7  8  2  0  0  0
  8  9  1  0  0  0
 13 17  1  0  0  0
 17 18  3  0  0  0
 16 11  1  0  0  0
  9  1  1  0  0  0
 25 23  1  0  0  0
  9  5  1  0  0  0
 19 22  1  0  0  0
M  END
> <minimizedAffinity>
16.61370

> <CNNscore>
0.5922585726

> <CNNaffinity>
6.5492830276

> <CNN_VS>
3.8788690567

> <CNNaffinity_variance>
0.4661090970

$$$$
[H]c1nc2c([H])c(N([H])C(=O)C3([H])C([H])([H])C3([H])[H])c([H])c(-c3c([H])c([H])c(C#N)c([H])c3C([H])([H])[H])n2n1


 25 28  0  0  0  0  0  0  0  0999 V2000
   13.5481   24.7152   -1.4097 C   0  0  0  0  0  0  0  0  0  0  0  0
   14.7034   24.4595   -0.7234 C   0  0  0  0  0  0  0  0  0  0  0  0
   15.9630   24.9677   -1.0964 C   0  0  0  0  0  0  0  0  0  0  0  0
   15.9377   25.7529   -2.2220 C   0  0  0  0  0  0  0  0  0  0  0  0
   14.7361   25.9941   -2.9004 C   0  0  0  0  0  0  0  0  0  0  0  0
   14.4824   26.7186   -4.0032 N   0  0  0  0  0  0  0  0  0  0  0  0
   13.1643   26.6613   -4.2891 C   0  0  0  0  0  0  0  0  0  0  0  0
   12.6024   25.8900   -3.3471 N   0  0  0  0  0  0  0  0  0  0  0  0
   13.5678   25.4881   -2.5054 N   0  0  0  0  0  0  0  0  0  0  0  0
   12.2530   25.8229    0.8351 C   0  0  0  0  0  0  0  0  0  0  0  0
   11.6415   24.6719    0.1414 C   0  0  0  0  0  0  0  0  0  0  0  0
   10.4288   24.1222    0.5810 C   0  0  0  0  0  0  0  0  0  0  0  0
    9.8658   23.0447   -0.0763 C   0  0  0  0  0  0  0  0  0  0  0  0
   10.5153   22.5251   -1.1645 C   0  0  0  0  0  0  0  0  0  0  0  0
   11.7016   23.0762   -1.5804 C   0  0  0  0  0  0  0  0  0  0  0  0
   12.2927   24.1485   -0.9522 C   0  0  0  0  0  0  0  0  0  0  0  0
    8.6199   22.5153    0.4125 C   0  0  0  0  0  0  0  0  0  0  0  0
    7.6185   22.0744    0.7926 N   0  0  0  0  0  0  0  0  0  0  0  0
   17.0973   24.6493   -0.3251 N   0  0  0  0  0  0  0  0  0  0  0  0
   17.1806   23.8188    0.7796 C   0  0  0  0  0  0  0  0  0  0  0  0
   16.2065   23.2137    1.2585 O   0  0  0  0  0  0  0  0  0  0  0  0
   18.0224   25.1055   -0.6263 H   0  0  0  0  0  0  0  0  0  0  0  0
   18.4912   23.5798    1.5027 C   0  0  0  0  0  0  0  0  0  0  0  0
   19.6782   24.2687    0.8824 C   0  0  0  0  0  0  0  0  0  0  0  0
   19.1320   24.7016    2.1929 C   0  0  0  0  0  0  0  0  0  0  0  0
 10 11  1  0  0  0
 11 12  2  0  0  0
 12 13  1  0  0  0
 13 14  2  0  0  0
 14 15  1  0  0  0
 15 16  2  0  0  0
 16  1  1  0  0  0
  1  2  2  0  0  0
  2  3  1  0  0  0
  3 19  1  0  0  0
 19 20  1  0  0  0
 20 21  2  0  0  0
 20 23  1  0  0  0
 23 24  1  0  0  0
 24 25  1  0  0  0
  3  4  2  0  0  0
  4  5  1  0  0  0
  5  6  2  0  0  0
  6  7  1  0  0  0
  7  8  2  0  0  0
  8  9  1  0  0  0
 13 17  1  0  0  0
 17 18  3  0  0  0
 16 11  1  0  0  0
  9  1  1  0  0  0
 25 23  1  0  0  0
  9  5  1  0  0  0
 19 22  1  0  0  0
M  END
> <minimizedAffinity>
0.44458

> <CNNscore>
0.5683768392

> <CNNaffinity>
7.0607223511

> <CNN_VS>
4.0131511688

> <CNNaffinity_variance>
0.7594149709

$$$$
[H]c1nc2c([H])c(N([H])C(=O)C3([H])C([H])([H])C3([H])[H])c([H])c(-c3c([H])c([H])c(C#N)c([H])c3C([H])([H])[H])n2n1


 25 28  0  0  0  0  0  0  0  0999 V2000
   13.2694   25.0718   -2.5198 C   0  0  0  0  0  0  0  0  0  0  0  0
   12.6409   26.2803   -2.6447 C   0  0  0  0  0  0  0  0  0  0  0  0
   12.9030   27.1940   -3.6841 C   0  0  0  0  0  0  0  0  0  0  0  0
   13.8551   26.7674   -4.5762 C   0  0  0  0  0  0  0  0  0  0  0  0
   14.4788   25.5231   -4.4177 C   0  0  0  0  0  0  0  0  0  0  0  0
   15.4214   24.9148   -5.1574 N   0  0  0  0  0  0  0  0  0  0  0  0
   15.7184   23.7150   -4.6144 C   0  0  0  0  0  0  0  0  0  0  0  0
   14.9461   23.5869   -3.5257 N   0  0  0  0  0  0  0  0  0  0  0  0
   14.1943   24.6934   -3.4140 N   0  0  0  0  0  0  0  0  0  0  0  0
   15.0611   24.8021   -0.3609 C   0  0  0  0  0  0  0  0  0  0  0  0
   13.7943   24.0437   -0.3494 C   0  0  0  0  0  0  0  0  0  0  0  0
   13.4692   23.1931    0.7167 C   0  0  0  0  0  0  0  0  0  0  0  0
   12.2804   22.4881    0.7167 C   0  0  0  0  0  0  0  0  0  0  0  0
   11.4272   22.6370   -0.3444 C   0  0  0  0  0  0  0  0  0  0  0  0
   11.7622   23.4742   -1.3792 C   0  0  0  0  0  0  0  0  0  0  0  0
   12.9357   24.1920   -1.4147 C   0  0  0  0  0  0  0  0  0  0  0  0
   11.9911   21.6275    1.8334 C   0  0  0  0  0  0  0  0  0  0  0  0
   11.7776   20.9295    2.7327 N   0  0  0  0  0  0  0  0  0  0  0  0
   12.2034   28.4151   -3.7292 N   0  0  0  0  0  0  0  0  0  0  0  0
   11.0948   28.7436   -4.4910 C   0  0  0  0  0  0  0  0  0  0  0  0
   10.5447   27.9548   -5.2781 O   0  0  0  0  0  0  0  0  0  0  0  0
   12.5706   29.1992   -3.0927 H   0  0  0  0  0  0  0  0  0  0  0  0
   10.4555   30.1162   -4.4213 C   0  0  0  0  0  0  0  0  0  0  0  0
    9.2648   30.2944   -5.3262 C   0  0  0  0  0  0  0  0  0  0  0  0
    9.1123   30.2418   -3.8507 C   0  0  0  0  0  0  0  0  0  0  0  0
 10 11  1  0  0  0
 11 12  2  0  0  0
 12 13  1  0  0  0
 13 14  2  0  0  0
 14 15  1  0  0  0
 15 16  2  0  0  0
 16  1  1  0  0  0
  1  2  2  0  0  0
  2  3  1  0  0  0
  3 19  1  0  0  0
 19 20  1  0  0  0
 20 21  2  0  0  0
 20 23  1  0  0  0
 23 24  1  0  0  0
 24 25  1  0  0  0
  3  4  2  0  0  0
  4  5  1  0  0  0
  5  6  2  0  0  0
  6  7  1  0  0  0
  7  8  2  0  0  0
  8  9  1  0  0  0
 13 17  1  0  0  0
 17 18  3  0  0  0
 16 11  1  0  0  0
  9  1  1  0  0  0
 25 23  1  0  0  0
  9  5  1  0  0  0
 19 22  1  0  0  0
M  END
> <minimizedAffinity>
4.37370

> <CNNscore>
0.5627894402

> <CNNaffinity>
6.7092423439

> <CNN_VS>
3.7758908272

> <CNNaffinity_variance>
0.5610632896

$$$$
[H]c1nc2c([H])c(N([H])C(=O)C3([H])C([H])([H])C3([H])[H])c([H])c(-c3c([H])c([H])c(C#N)c([H])c3C([H])([H])[H])n2n1


 25 28  0  0  0  0  0  0  0  0999 V2000
   13.2312   23.8889   -1.6390 C   0  0  0  0  0  0  0  0  0  0  0  0
   13.8924   24.7529   -2.4682 C   0  0  0  0  0  0  0  0  0  0  0  0
   13.2714   25.8290   -3.1317 C   0  0  0  0  0  0  0  0  0  0  0  0
   11.9278   25.9431   -2.8752 C   0  0  0  0  0  0  0  0  0  0  0  0
   11.2825   25.0404   -2.0204 C   0  0  0  0  0  0  0  0  0  0  0  0
    9.9977   24.9648   -1.6340 N   0  0  0  0  0  0  0  0  0  0  0  0
    9.8382   23.9195   -0.7946 C   0  0  0  0  0  0  0  0  0  0  0  0
   11.0436   23.3465   -0.6651 N   0  0  0  0  0  0  0  0  0  0  0  0
   11.9172   24.0363   -1.4156 N   0  0  0  0  0  0  0  0  0  0  0  0
   14.7504   24.4065    0.6778 C   0  0  0  0  0  0  0  0  0  0  0  0
   14.7012   23.0339    0.1360 C   0  0  0  0  0  0  0  0  0  0  0  0
   15.3972   21.9858    0.7548 C   0  0  0  0  0  0  0  0  0  0  0  0
   15.3439   20.7048    0.2387 C   0  0  0  0  0  0  0  0  0  0  0  0
   14.5984   20.4799   -0.8881 C   0  0  0  0  0  0  0  0  0  0  0  0
   13.9238   21.5183   -1.4804 C   0  0  0  0  0  0  0  0  0  0  0  0
   13.9527   22.8060   -0.9961 C   0  0  0  0  0  0  0  0  0  0  0  0
   16.0752   19.6621    0.9091 C   0  0  0  0  0  0  0  0  0  0  0  0
   16.6589   18.8104    1.4339 N   0  0  0  0  0  0  0  0  0  0  0  0
   14.0368   26.6662   -3.9660 N   0  0  0  0  0  0  0  0  0  0  0  0
   14.9891   26.3066   -4.9047 C   0  0  0  0  0  0  0  0  0  0  0  0
   15.3075   25.1294   -5.1432 O   0  0  0  0  0  0  0  0  0  0  0  0
   13.8658   27.7226   -3.8682 H   0  0  0  0  0  0  0  0  0  0  0  0
   15.7297   27.3414   -5.7285 C   0  0  0  0  0  0  0  0  0  0  0  0
   15.8860   28.6783   -5.0529 C   0  0  0  0  0  0  0  0  0  0  0  0
   17.0510   27.7873   -5.2805 C   0  0  0  0  0  0  0  0  0  0  0  0
 10 11  1  0  0  0
 11 12  2  0  0  0
 12 13  1  0  0  0
 13 14  2  0  0  0
 14 15  1  0  0  0
 15 16  2  0  0  0
 16  1  1  0  0  0
  1  2  2  0  0  0
  2  3  1  0  0  0
  3 19  1  0  0  0
 19 20  1  0  0  0
 20 21  2  0  0  0
 20 23  1  0  0  0
 23 24  1  0  0  0
 24 25  1  0  0  0
  3  4  2  0  0  0
  4  5  1  0  0  0
  5  6  2  0  0  0
  6  7  1  0  0  0
  7  8  2  0  0  0
  8  9  1  0  0  0
 13 17  1  0  0  0
 17 18  3  0  0  0
 16 11  1  0  0  0
  9  1  1  0  0  0
 25 23  1  0  0  0
  9  5  1  0  0  0
 19 22  1  0  0  0
M  END
> <minimizedAffinity>
4.03849

> <CNNscore>
0.5361123085

> <CNNaffinity>
6.8188567162

> <CNN_VS>
3.6556730270

> <CNNaffinity_variance>
0.6461094022

$$$$
[H]c1nc2c([H])c(N([H])C(=O)C3([H])C([H])([H])C3([H])[H])c([H])c(-c3c([H])c([H])c(C#N)c([H])c3C([H])([H])[H])n2n1


 25 28  0  0  0  0  0  0  0  0999 V2000
   11.9481   24.2528   -1.2009 C   0  0  0  0  0  0  0  0  0  0  0  0
   11.3715   23.1061   -1.6740 C   0  0  0  0  0  0  0  0  0  0  0  0
   10.4391   22.3419   -0.9455 C   0  0  0  0  0  0  0  0  0  0  0  0
   10.1507   22.8485    0.2972 C   0  0  0  0  0  0  0  0  0  0  0  0
   10.7599   24.0259    0.7499 C   0  0  0  0  0  0  0  0  0  0  0  0
   10.6285   24.6904    1.9104 N   0  0  0  0  0  0  0  0  0  0  0  0
   11.4211   25.7832    1.8984 C   0  0  0  0  0  0  0  0  0  0  0  0
   12.0473   25.7878    0.7127 N   0  0  0  0  0  0  0  0  0  0  0  0
   11.6381   24.7133    0.0198 N   0  0  0  0  0  0  0  0  0  0  0  0
   14.6905   23.6226   -1.0418 C   0  0  0  0  0  0  0  0  0  0  0  0
   14.2447   24.6877   -1.9620 C   0  0  0  0  0  0  0  0  0  0  0  0
   15.1625   25.3893   -2.7565 C   0  0  0  0  0  0  0  0  0  0  0  0
   14.7336   26.3845   -3.6144 C   0  0  0  0  0  0  0  0  0  0  0  0
   13.3956   26.6712   -3.6728 C   0  0  0  0  0  0  0  0  0  0  0  0
   12.5117   25.9740   -2.8875 C   0  0  0  0  0  0  0  0  0  0  0  0
   12.9006   24.9773   -2.0221 C   0  0  0  0  0  0  0  0  0  0  0  0
   15.7134   27.0765   -4.4096 C   0  0  0  0  0  0  0  0  0  0  0  0
   16.4876   27.6457   -5.0563 N   0  0  0  0  0  0  0  0  0  0  0  0
    9.8986   21.1744   -1.5178 N   0  0  0  0  0  0  0  0  0  0  0  0
    8.5942   20.7133   -1.4612 C   0  0  0  0  0  0  0  0  0  0  0  0
    7.6817   21.3071   -0.8622 O   0  0  0  0  0  0  0  0  0  0  0  0
   10.5798   20.5555   -2.0725 H   0  0  0  0  0  0  0  0  0  0  0  0
    8.1721   19.4246   -2.1387 C   0  0  0  0  0  0  0  0  0  0  0  0
    7.6508   18.3697   -1.1987 C   0  0  0  0  0  0  0  0  0  0  0  0
    6.7520   19.0661   -2.1527 C   0  0  0  0  0  0  0  0  0  0  0  0
 10 11  1  0  0  0
 11 12  2  0  0  0
 12 13  1  0  0  0
 13 14  2  0  0  0
 14 15  1  0  0  0
 15 16  2  0  0  0
 16  1  1  0  0  0
  1  2  2  0  0  0
  2  3  1  0  0  0
  3 19  1  0  0  0
 19 20  1  0  0  0
 20 21  2  0  0  0
 20 23  1  0  0  0
 23 24  1  0  0  0
 24 25  1  0  0  0
  3  4  2  0  0  0
  4  5  1  0  0  0
  5  6  2  0  0  0
  6  7  1  0  0  0
  7  8  2  0  0  0
  8  9  1  0  0  0
 13 17  1  0  0  0
 17 18  3  0  0  0
 16 11  1  0  0  0
  9  1  1  0  0  0
 25 23  1  0  0  0
  9  5  1  0  0  0
 19 22  1  0  0  0
M  END
> <minimizedAffinity>
-4.30060

> <CNNscore>
0.4860790074

> <CNNaffinity>
6.7484121323

> <CNN_VS>
3.2802615166

> <CNNaffinity_variance>
0.8052810431

$$$$
[H]c1nc(C([H])([H])N2C([H])([H])C([H])([H])C3(C(=O)N(c4c([H])c([H])c(-c5c([H])c([H])c([H])c([H])c5[H])c([H])c4[H])C(=O)N3c3c([H])c([H])c([H])c(=O)n3[H])C([H])([H])C2([H])[H])c(C([H])([H])[H])c([H])c1[H]


 40 45  0  0  0  0  0  0  0  0999 V2000
   13.7579   25.2403   -3.0270 N   0  0  0  0  0  0  0  0  0  0  0  0
   12.3347   25.3315   -2.6248 C   0  0  0  0  0  0  0  0  0  0  0  0
   12.0815   24.1884   -1.6994 C   0  0  0  0  0  0  0  0  0  0  0  0
   12.9901   24.1755   -0.5219 C   0  0  0  0  0  0  0  0  0  0  0  0
   14.4115   24.5333   -0.7797 C   0  0  0  0  0  0  0  0  0  0  0  0
   14.4660   25.6542   -1.8039 C   0  0  0  0  0  0  0  0  0  0  0  0
   12.8267   22.9043    0.1471 N   0  0  0  0  0  0  0  0  0  0  0  0
   11.6268   23.0194    0.9023 C   0  0  0  0  0  0  0  0  0  0  0  0
   10.8855   22.0619    1.3100 O   0  0  0  0  0  0  0  0  0  0  0  0
   11.3865   24.4008    1.1317 N   0  0  0  0  0  0  0  0  0  0  0  0
   12.4422   25.1224    0.5139 C   0  0  0  0  0  0  0  0  0  0  0  0
   12.8317   26.2961    0.7786 O   0  0  0  0  0  0  0  0  0  0  0  0
   13.6681   21.7482    0.0945 C   0  0  0  0  0  0  0  0  0  0  0  0
   13.3225   20.5926   -0.5831 C   0  0  0  0  0  0  0  0  0  0  0  0
   14.1371   19.4751   -0.6324 C   0  0  0  0  0  0  0  0  0  0  0  0
   15.3557   19.5108    0.0251 C   0  0  0  0  0  0  0  0  0  0  0  0
   15.6836   20.6704    0.6950 C   0  0  0  0  0  0  0  0  0  0  0  0
   16.7953   20.6862    1.2878 O   0  0  0  0  0  0  0  0  0  0  0  0
   14.8662   21.7206    0.7148 N   0  0  0  0  0  0  0  0  0  0  0  0
   15.1511   22.5778    1.2347 H   0  0  0  0  0  0  0  0  0  0  0  0
   10.3174   25.0247    1.8433 C   0  0  0  0  0  0  0  0  0  0  0  0
   10.5717   26.0354    2.7661 C   0  0  0  0  0  0  0  0  0  0  0  0
    9.5376   26.6359    3.4539 C   0  0  0  0  0  0  0  0  0  0  0  0
    8.2203   26.2624    3.2562 C   0  0  0  0  0  0  0  0  0  0  0  0
    7.9558   25.2682    2.3499 C   0  0  0  0  0  0  0  0  0  0  0  0
    8.9978   24.6611    1.6553 C   0  0  0  0  0  0  0  0  0  0  0  0
    7.1208   26.8839    3.9744 C   0  0  0  0  0  0  0  0  0  0  0  0
    6.2750   26.1184    4.7515 C   0  0  0  0  0  0  0  0  0  0  0  0
    5.2407   26.7246    5.4237 C   0  0  0  0  0  0  0  0  0  0  0  0
    5.0678   28.0681    5.3117 C   0  0  0  0  0  0  0  0  0  0  0  0
    5.9163   28.8266    4.5335 C   0  0  0  0  0  0  0  0  0  0  0  0
    6.9551   28.2520    3.8524 C   0  0  0  0  0  0  0  0  0  0  0  0
   13.9396   26.2770   -4.0157 C   0  0  0  0  0  0  0  0  0  0  0  0
   14.9812   27.1093   -6.4666 C   0  0  0  0  0  0  0  0  0  0  0  0
   15.7817   27.2930   -5.2411 C   0  0  0  0  0  0  0  0  0  0  0  0
   17.0364   27.8632   -5.2863 C   0  0  0  0  0  0  0  0  0  0  0  0
   17.7614   28.0233   -4.1418 C   0  0  0  0  0  0  0  0  0  0  0  0
   17.2458   27.6162   -2.9275 C   0  0  0  0  0  0  0  0  0  0  0  0
   16.0220   27.0672   -2.9312 N   0  0  0  0  0  0  0  0  0  0  0  0
   15.2663   26.8855   -4.0240 C   0  0  0  0  0  0  0  0  0  0  0  0
 34 35  1  0  0  0
 35 36  2  0  0  0
 36 37  1  0  0  0
 37 38  2  0  0  0
 38 39  1  0  0  0
 39 40  2  0  0  0
 40 33  1  0  0  0
 33  1  1  0  0  0
  1  2  1  0  0  0
  2  3  1  0  0  0
  3  4  1  0  0  0
  4  5  1  0  0  0
  5  6  1  0  0  0
  4  7  1  0  0  0
  7  8  1  0  0  0
  8  9  2  0  0  0
  8 10  1  0  0  0
 10 11  1  0  0  0
 11 12  2  0  0  0
 10 21  1  0  0  0
 21 22  2  0  0  0
 22 23  1  0  0  0
 23 24  2  0  0  0
 24 25  1  0  0  0
 25 26  2  0  0  0
 24 27  1  0  0  0
 27 28  2  0  0  0
 28 29  1  0  0  0
 29 30  2  0  0  0
 30 31  1  0  0  0
 31 32  2  0  0  0
  7 13  1  0  0  0
 13 14  2  0  0  0
 14 15  1  0  0  0
 15 16  2  0  0  0
 16 17  1  0  0  0
 17 18  2  0  0  0
 17 19  1  0  0  0
 40 35  1  0  0  0
  6  1  1  0  0  0
 26 21  1  0  0  0
 32 27  1  0  0  0
 19 13  1  0  0  0
 11  4  1  0  0  0
 19 20  1  0  0  0
M  END
> <minimizedAffinity>
-1.74553

> <CNNscore>
0.5774807930

> <CNNaffinity>
7.7640533447

> <CNN_VS>
4.4835915565

> <CNNaffinity_variance>
0.6064437032

$$$$
[H]c1nc(C([H])([H])N2C([H])([H])C([H])([H])C3(C(=O)N(c4c([H])c([H])c(-c5c([H])c([H])c([H])c([H])c5[H])c([H])c4[H])C(=O)N3c3c([H])c([H])c([H])c(=O)n3[H])C([H])([H])C2([H])[H])c(C([H])([H])[H])c([H])c1[H]


 40 45  0  0  0  0  0  0  0  0999 V2000
   16.1644   23.9375   -4.1622 N   0  0  0  0  0  0  0  0  0  0  0  0
   15.1662   22.8896   -3.8441 C   0  0  0  0  0  0  0  0  0  0  0  0
   15.3031   22.6021   -2.3862 C   0  0  0  0  0  0  0  0  0  0  0  0
   15.1314   23.8080   -1.5326 C   0  0  0  0  0  0  0  0  0  0  0  0
   15.7490   25.0660   -2.0336 C   0  0  0  0  0  0  0  0  0  0  0  0
   15.5803   25.1386   -3.5417 C   0  0  0  0  0  0  0  0  0  0  0  0
   15.5388   23.4594   -0.1899 N   0  0  0  0  0  0  0  0  0  0  0  0
   14.4456   22.7406    0.3683 C   0  0  0  0  0  0  0  0  0  0  0  0
   14.4925   21.9104    1.3385 O   0  0  0  0  0  0  0  0  0  0  0  0
   13.2727   23.1067   -0.3450 N   0  0  0  0  0  0  0  0  0  0  0  0
   13.6570   24.0478   -1.3368 C   0  0  0  0  0  0  0  0  0  0  0  0
   12.9224   24.8958   -1.9204 O   0  0  0  0  0  0  0  0  0  0  0  0
   16.7680   23.7554    0.4799 C   0  0  0  0  0  0  0  0  0  0  0  0
   16.8285   24.4465    1.6768 C   0  0  0  0  0  0  0  0  0  0  0  0
   18.0183   24.7326    2.3230 C   0  0  0  0  0  0  0  0  0  0  0  0
   19.2055   24.3089    1.7490 C   0  0  0  0  0  0  0  0  0  0  0  0
   19.1261   23.6216    0.5565 C   0  0  0  0  0  0  0  0  0  0  0  0
   20.2150   23.2435    0.0477 O   0  0  0  0  0  0  0  0  0  0  0  0
   17.9572   23.3704   -0.0285 N   0  0  0  0  0  0  0  0  0  0  0  0
   17.9410   22.8492   -0.9309 H   0  0  0  0  0  0  0  0  0  0  0  0
   11.9280   22.6652   -0.1576 C   0  0  0  0  0  0  0  0  0  0  0  0
   11.1570   23.1588    0.8911 C   0  0  0  0  0  0  0  0  0  0  0  0
    9.8584   22.7298    1.0715 C   0  0  0  0  0  0  0  0  0  0  0  0
    9.2758   21.8022    0.2265 C   0  0  0  0  0  0  0  0  0  0  0  0
   10.0240   21.3082   -0.8107 C   0  0  0  0  0  0  0  0  0  0  0  0
   11.3344   21.7396   -0.9941 C   0  0  0  0  0  0  0  0  0  0  0  0
    7.9103   21.3393    0.4049 C   0  0  0  0  0  0  0  0  0  0  0  0
    6.8505   22.1146   -0.0209 C   0  0  0  0  0  0  0  0  0  0  0  0
    5.5658   21.6595    0.1562 C   0  0  0  0  0  0  0  0  0  0  0  0
    5.3602   20.4533    0.7482 C   0  0  0  0  0  0  0  0  0  0  0  0
    6.4233   19.6842    1.1713 C   0  0  0  0  0  0  0  0  0  0  0  0
    7.7139   20.1102    1.0087 C   0  0  0  0  0  0  0  0  0  0  0  0
   16.0973   24.1027   -5.5953 C   0  0  0  0  0  0  0  0  0  0  0  0
   16.6110   25.0158   -8.1812 C   0  0  0  0  0  0  0  0  0  0  0  0
   15.6835   25.7720   -7.3184 C   0  0  0  0  0  0  0  0  0  0  0  0
   15.0708   26.9238   -7.7652 C   0  0  0  0  0  0  0  0  0  0  0  0
   14.2171   27.6094   -6.9515 C   0  0  0  0  0  0  0  0  0  0  0  0
   13.9582   27.1567   -5.6731 C   0  0  0  0  0  0  0  0  0  0  0  0
   14.5760   26.0324   -5.2813 N   0  0  0  0  0  0  0  0  0  0  0  0
   15.4233   25.3195   -6.0376 C   0  0  0  0  0  0  0  0  0  0  0  0
 34 35  1  0  0  0
 35 36  2  0  0  0
 36 37  1  0  0  0
 37 38  2  0  0  0
 38 39  1  0  0  0
 39 40  2  0  0  0
 40 33  1  0  0  0
 33  1  1  0  0  0
  1  2  1  0  0  0
  2  3  1  0  0  0
  3  4  1  0  0  0
  4  5  1  0  0  0
  5  6  1  0  0  0
  4  7  1  0  0  0
  7  8  1  0  0  0
  8  9  2  0  0  0
  8 10  1  0  0  0
 10 11  1  0  0  0
 11 12  2  0  0  0
 10 21  1  0  0  0
 21 22  2  0  0  0
 22 23  1  0  0  0
 23 24  2  0  0  0
 24 25  1  0  0  0
 25 26  2  0  0  0
 24 27  1  0  0  0
 27 28  2  0  0  0
 28 29  1  0  0  0
 29 30  2  0  0  0
 30 31  1  0  0  0
 31 32  2  0  0  0
  7 13  1  0  0  0
 13 14  2  0  0  0
 14 15  1  0  0  0
 15 16  2  0  0  0
 16 17  1  0  0  0
 17 18  2  0  0  0
 17 19  1  0  0  0
 40 35  1  0  0  0
  6  1  1  0  0  0
 26 21  1  0  0  0
 32 27  1  0  0  0
 19 13  1  0  0  0
 11  4  1  0  0  0
 19 20  1  0  0  0
M  END
> <minimizedAffinity>
15.81544

> <CNNscore>
0.4992412031

> <CNNaffinity>
7.8121004105

> <CNN_VS>
3.9001224041

> <CNNaffinity_variance>
0.8380268812

$$$$
[H]c1nc(C([H])([H])N2C([H])([H])C([H])([H])C3(C(=O)N(c4c([H])c([H])c(-c5c([H])c([H])c([H])c([H])c5[H])c([H])c4[H])C(=O)N3c3c([H])c([H])c([H])c(=O)n3[H])C([H])([H])C2([H])[H])c(C([H])([H])[H])c([H])c1[H]


 40 45  0  0  0  0  0  0  0  0999 V2000
   12.9661   25.8433   -3.0926 N   0  0  0  0  0  0  0  0  0  0  0  0
   12.0908   24.6868   -2.7897 C   0  0  0  0  0  0  0  0  0  0  0  0
   12.8258   23.8467   -1.7992 C   0  0  0  0  0  0  0  0  0  0  0  0
   13.2068   24.5902   -0.5686 C   0  0  0  0  0  0  0  0  0  0  0  0
   13.6899   25.9846   -0.7616 C   0  0  0  0  0  0  0  0  0  0  0  0
   12.8771   26.6465   -1.8614 C   0  0  0  0  0  0  0  0  0  0  0  0
   14.1225   23.7605    0.1821 N   0  0  0  0  0  0  0  0  0  0  0  0
   13.3118   22.8003    0.8486 C   0  0  0  0  0  0  0  0  0  0  0  0
   13.6809   21.6553    1.2790 O   0  0  0  0  0  0  0  0  0  0  0  0
   12.0008   23.3367    0.9581 N   0  0  0  0  0  0  0  0  0  0  0  0
   12.0181   24.6230    0.3563 C   0  0  0  0  0  0  0  0  0  0  0  0
   11.2142   25.5785    0.5565 O   0  0  0  0  0  0  0  0  0  0  0  0
   15.5477   23.8496    0.2699 C   0  0  0  0  0  0  0  0  0  0  0  0
   16.2704   23.3610    1.3438 C   0  0  0  0  0  0  0  0  0  0  0  0
   17.6488   23.4487    1.4276 C   0  0  0  0  0  0  0  0  0  0  0  0
   18.3411   24.0522    0.3908 C   0  0  0  0  0  0  0  0  0  0  0  0
   17.6049   24.5332   -0.6710 C   0  0  0  0  0  0  0  0  0  0  0  0
   18.2499   25.0793   -1.6055 O   0  0  0  0  0  0  0  0  0  0  0  0
   16.2786   24.4263   -0.7068 N   0  0  0  0  0  0  0  0  0  0  0  0
   15.7593   24.8050   -1.5273 H   0  0  0  0  0  0  0  0  0  0  0  0
   10.8368   22.7608    1.5515 C   0  0  0  0  0  0  0  0  0  0  0  0
    9.7173   22.4645    0.7790 C   0  0  0  0  0  0  0  0  0  0  0  0
    8.5931   21.9096    1.3544 C   0  0  0  0  0  0  0  0  0  0  0  0
    8.5334   21.6277    2.7075 C   0  0  0  0  0  0  0  0  0  0  0  0
    9.6293   21.9143    3.4798 C   0  0  0  0  0  0  0  0  0  0  0  0
   10.7643   22.4744    2.9011 C   0  0  0  0  0  0  0  0  0  0  0  0
    7.3559   21.0453    3.3281 C   0  0  0  0  0  0  0  0  0  0  0  0
    6.6807   21.7287    4.3194 C   0  0  0  0  0  0  0  0  0  0  0  0
    5.5686   21.1615    4.8942 C   0  0  0  0  0  0  0  0  0  0  0  0
    5.1523   19.9366    4.4773 C   0  0  0  0  0  0  0  0  0  0  0  0
    5.8316   19.2596    3.4869 C   0  0  0  0  0  0  0  0  0  0  0  0
    6.9421   19.7982    2.8952 C   0  0  0  0  0  0  0  0  0  0  0  0
   12.2885   26.5669   -4.1427 C   0  0  0  0  0  0  0  0  0  0  0  0
   14.8041   27.7737   -4.1397 C   0  0  0  0  0  0  0  0  0  0  0  0
   13.5986   28.6148   -4.0138 C   0  0  0  0  0  0  0  0  0  0  0  0
   13.6934   29.9848   -3.8893 C   0  0  0  0  0  0  0  0  0  0  0  0
   12.5667   30.7450   -3.7728 C   0  0  0  0  0  0  0  0  0  0  0  0
   11.3208   30.1501   -3.7786 C   0  0  0  0  0  0  0  0  0  0  0  0
   11.2766   28.8152   -3.9020 N   0  0  0  0  0  0  0  0  0  0  0  0
   12.3499   28.0200   -4.0193 C   0  0  0  0  0  0  0  0  0  0  0  0
 34 35  1  0  0  0
 35 36  2  0  0  0
 36 37  1  0  0  0
 37 38  2  0  0  0
 38 39  1  0  0  0
 39 40  2  0  0  0
 40 33  1  0  0  0
 33  1  1  0  0  0
  1  2  1  0  0  0
  2  3  1  0  0  0
  3  4  1  0  0  0
  4  5  1  0  0  0
  5  6  1  0  0  0
  4  7  1  0  0  0
  7  8  1  0  0  0
  8  9  2  0  0  0
  8 10  1  0  0  0
 10 11  1  0  0  0
 11 12  2  0  0  0
 10 21  1  0  0  0
 21 22  2  0  0  0
 22 23  1  0  0  0
 23 24  2  0  0  0
 24 25  1  0  0  0
 25 26  2  0  0  0
 24 27  1  0  0  0
 27 28  2  0  0  0
 28 29  1  0  0  0
 29 30  2  0  0  0
 30 31  1  0  0  0
 31 32  2  0  0  0
  7 13  1  0  0  0
 13 14  2  0  0  0
 14 15  1  0  0  0
 15 16  2  0  0  0
 16 17  1  0  0  0
 17 18  2  0  0  0
 17 19  1  0  0  0
 40 35  1  0  0  0
  6  1  1  0  0  0
 26 21  1  0  0  0
 32 27  1  0  0  0
 19 13  1  0  0  0
 11  4  1  0  0  0
 19 20  1  0  0  0
M  END
> <minimizedAffinity>
18.08765

> <CNNscore>
0.4794067740

> <CNNaffinity>
7.5271263123

> <CNN_VS>
3.6085553169

> <CNNaffinity_variance>
1.2035449743

$$$$
[H]c1nc(C([H])([H])N2C([H])([H])C([H])([H])C3(C(=O)N(c4c([H])c([H])c(-c5c([H])c([H])c([H])c([H])c5[H])c([H])c4[H])C(=O)N3c3c([H])c([H])c([H])c(=O)n3[H])C([H])([H])C2([H])[H])c(C([H])([H])[H])c([H])c1[H]


 40 45  0  0  0  0  0  0  0  0999 V2000
   14.9221   24.0709   -3.8544 N   0  0  0  0  0  0  0  0  0  0  0  0
   14.2898   22.8015   -3.4251 C   0  0  0  0  0  0  0  0  0  0  0  0
   14.1509   22.8775   -1.9412 C   0  0  0  0  0  0  0  0  0  0  0  0
   13.3776   24.0634   -1.4852 C   0  0  0  0  0  0  0  0  0  0  0  0
   13.6384   25.3396   -2.2052 C   0  0  0  0  0  0  0  0  0  0  0  0
   13.8333   25.0477   -3.6834 C   0  0  0  0  0  0  0  0  0  0  0  0
   13.5335   24.1668   -0.0516 N   0  0  0  0  0  0  0  0  0  0  0  0
   12.6448   23.2037    0.5016 C   0  0  0  0  0  0  0  0  0  0  0  0
   12.7276   22.6613    1.6555 O   0  0  0  0  0  0  0  0  0  0  0  0
   11.6320   22.9417   -0.4598 N   0  0  0  0  0  0  0  0  0  0  0  0
   11.9089   23.7468   -1.5965 C   0  0  0  0  0  0  0  0  0  0  0  0
   11.0999   24.1138   -2.4965 O   0  0  0  0  0  0  0  0  0  0  0  0
   14.3851   25.0391    0.6976 C   0  0  0  0  0  0  0  0  0  0  0  0
   13.9272   26.1800    1.3322 C   0  0  0  0  0  0  0  0  0  0  0  0
   14.7522   27.0230    2.0557 C   0  0  0  0  0  0  0  0  0  0  0  0
   16.0990   26.7140    2.1521 C   0  0  0  0  0  0  0  0  0  0  0  0
   16.5375   25.5735    1.5136 C   0  0  0  0  0  0  0  0  0  0  0  0
   17.7651   25.3070    1.6111 O   0  0  0  0  0  0  0  0  0  0  0  0
   15.7054   24.7930    0.8279 N   0  0  0  0  0  0  0  0  0  0  0  0
   16.0777   23.9405    0.3581 H   0  0  0  0  0  0  0  0  0  0  0  0
   10.5128   22.0594   -0.3737 C   0  0  0  0  0  0  0  0  0  0  0  0
    9.2622   22.5327    0.0132 C   0  0  0  0  0  0  0  0  0  0  0  0
    8.1824   21.6784    0.0974 C   0  0  0  0  0  0  0  0  0  0  0  0
    8.2971   20.3314   -0.1966 C   0  0  0  0  0  0  0  0  0  0  0  0
    9.5233   19.8522   -0.5792 C   0  0  0  0  0  0  0  0  0  0  0  0
   10.6139   20.7125   -0.6645 C   0  0  0  0  0  0  0  0  0  0  0  0
    7.1697   19.4191   -0.1106 C   0  0  0  0  0  0  0  0  0  0  0  0
    6.2039   19.5946    0.8598 C   0  0  0  0  0  0  0  0  0  0  0  0
    5.1445   18.7214    0.9250 C   0  0  0  0  0  0  0  0  0  0  0  0
    5.0659   17.6990    0.0327 C   0  0  0  0  0  0  0  0  0  0  0  0
    6.0343   17.5295   -0.9338 C   0  0  0  0  0  0  0  0  0  0  0  0
    7.1008   18.3825   -1.0242 C   0  0  0  0  0  0  0  0  0  0  0  0
   15.1593   23.9164   -5.2705 C   0  0  0  0  0  0  0  0  0  0  0  0
   16.1561   26.0612   -3.7904 C   0  0  0  0  0  0  0  0  0  0  0  0
   15.9421   26.2214   -5.2413 C   0  0  0  0  0  0  0  0  0  0  0  0
   16.2207   27.4130   -5.8770 C   0  0  0  0  0  0  0  0  0  0  0  0
   16.0149   27.5414   -7.2194 C   0  0  0  0  0  0  0  0  0  0  0  0
   15.5259   26.4798   -7.9543 C   0  0  0  0  0  0  0  0  0  0  0  0
   15.2694   25.3405   -7.2945 N   0  0  0  0  0  0  0  0  0  0  0  0
   15.4523   25.1587   -5.9785 C   0  0  0  0  0  0  0  0  0  0  0  0
 34 35  1  0  0  0
 35 36  2  0  0  0
 36 37  1  0  0  0
 37 38  2  0  0  0
 38 39  1  0  0  0
 39 40  2  0  0  0
 40 33  1  0  0  0
 33  1  1  0  0  0
  1  2  1  0  0  0
  2  3  1  0  0  0
  3  4  1  0  0  0
  4  5  1  0  0  0
  5  6  1  0  0  0
  4  7  1  0  0  0
  7  8  1  0  0  0
  8  9  2  0  0  0
  8 10  1  0  0  0
 10 11  1  0  0  0
 11 12  2  0  0  0
 10 21  1  0  0  0
 21 22  2  0  0  0
 22 23  1  0  0  0
 23 24  2  0  0  0
 24 25  1  0  0  0
 25 26  2  0  0  0
 24 27  1  0  0  0
 27 28  2  0  0  0
 28 29  1  0  0  0
 29 30  2  0  0  0
 30 31  1  0  0  0
 31 32  2  0  0  0
  7 13  1  0  0  0
 13 14  2  0  0  0
 14 15  1  0  0  0
 15 16  2  0  0  0
 16 17  1  0  0  0
 17 18  2  0  0  0
 17 19  1  0  0  0
 40 35  1  0  0  0
  6  1  1  0  0  0
 26 21  1  0  0  0
 32 27  1  0  0  0
 19 13  1  0  0  0
 11  4  1  0  0  0
 19 20  1  0  0  0
M  END
> <minimizedAffinity>
6.38293

> <CNNscore>
0.4771347046

> <CNNaffinity>
7.7772331238

> <CNN_VS>
3.7107877731

> <CNNaffinity_variance>
0.5438351631

$$$$
[H]c1nc(C([H])([H])N2C([H])([H])C([H])([H])C3(C(=O)N(c4c([H])c([H])c(-c5c([H])c([H])c([H])c([H])c5[H])c([H])c4[H])C(=O)N3c3c([H])c([H])c([H])c(=O)n3[H])C([H])([H])C2([H])[H])c(C([H])([H])[H])c([H])c1[H]


 40 45  0  0  0  0  0  0  0  0999 V2000
    9.9519   23.4237    0.7300 N   0  0  0  0  0  0  0  0  0  0  0  0
   10.8296   24.5409    0.3091 C   0  0  0  0  0  0  0  0  0  0  0  0
   12.2191   23.9977    0.2718 C   0  0  0  0  0  0  0  0  0  0  0  0
   12.3621   22.8151   -0.6188 C   0  0  0  0  0  0  0  0  0  0  0  0
   11.2509   21.8255   -0.5874 C   0  0  0  0  0  0  0  0  0  0  0  0
    9.9287   22.5637   -0.4652 C   0  0  0  0  0  0  0  0  0  0  0  0
   13.6619   22.2320   -0.3722 N   0  0  0  0  0  0  0  0  0  0  0  0
   14.5887   23.0476   -1.0788 C   0  0  0  0  0  0  0  0  0  0  0  0
   15.8375   23.1703   -0.8379 O   0  0  0  0  0  0  0  0  0  0  0  0
   13.8816   23.7140   -2.1154 N   0  0  0  0  0  0  0  0  0  0  0  0
   12.5250   23.3016   -2.0353 C   0  0  0  0  0  0  0  0  0  0  0  0
   11.6537   23.3359   -2.9512 O   0  0  0  0  0  0  0  0  0  0  0  0
   13.9947   21.0789    0.4067 C   0  0  0  0  0  0  0  0  0  0  0  0
   15.1673   20.3647    0.2360 C   0  0  0  0  0  0  0  0  0  0  0  0
   15.4872   19.2492    0.9897 C   0  0  0  0  0  0  0  0  0  0  0  0
   14.5958   18.8248    1.9611 C   0  0  0  0  0  0  0  0  0  0  0  0
   13.4327   19.5484    2.1173 C   0  0  0  0  0  0  0  0  0  0  0  0
   12.6328   19.1490    3.0051 O   0  0  0  0  0  0  0  0  0  0  0  0
   13.1680   20.6156    1.3673 N   0  0  0  0  0  0  0  0  0  0  0  0
   12.2760   21.1339    1.5161 H   0  0  0  0  0  0  0  0  0  0  0  0
   14.3693   24.6307   -3.0954 C   0  0  0  0  0  0  0  0  0  0  0  0
   15.2536   24.2102   -4.0848 C   0  0  0  0  0  0  0  0  0  0  0  0
   15.7250   25.0978   -5.0298 C   0  0  0  0  0  0  0  0  0  0  0  0
   15.3417   26.4271   -5.0328 C   0  0  0  0  0  0  0  0  0  0  0  0
   14.4709   26.8544   -4.0639 C   0  0  0  0  0  0  0  0  0  0  0  0
   13.9945   25.9605   -3.1096 C   0  0  0  0  0  0  0  0  0  0  0  0
   15.8311   27.3741   -6.0200 C   0  0  0  0  0  0  0  0  0  0  0  0
   16.3477   26.9260   -7.2191 C   0  0  0  0  0  0  0  0  0  0  0  0
   16.8053   27.8372   -8.1407 C   0  0  0  0  0  0  0  0  0  0  0  0
   16.7420   29.1647   -7.8556 C   0  0  0  0  0  0  0  0  0  0  0  0
   16.2250   29.6052   -6.6559 C   0  0  0  0  0  0  0  0  0  0  0  0
   15.7613   28.7224   -5.7183 C   0  0  0  0  0  0  0  0  0  0  0  0
    8.6399   24.0081    0.8801 C   0  0  0  0  0  0  0  0  0  0  0  0
    7.0609   21.8392    1.6461 C   0  0  0  0  0  0  0  0  0  0  0  0
    7.3309   22.9158    2.6179 C   0  0  0  0  0  0  0  0  0  0  0  0
    6.8128   22.8716    3.8951 C   0  0  0  0  0  0  0  0  0  0  0  0
    7.0732   23.8777    4.7787 C   0  0  0  0  0  0  0  0  0  0  0  0
    7.8580   24.9497    4.4030 C   0  0  0  0  0  0  0  0  0  0  0  0
    8.3407   24.9505    3.1515 N   0  0  0  0  0  0  0  0  0  0  0  0
    8.1170   23.9901    2.2427 C   0  0  0  0  0  0  0  0  0  0  0  0
 34 35  1  0  0  0
 35 36  2  0  0  0
 36 37  1  0  0  0
 37 38  2  0  0  0
 38 39  1  0  0  0
 39 40  2  0  0  0
 40 33  1  0  0  0
 33  1  1  0  0  0
  1  2  1  0  0  0
  2  3  1  0  0  0
  3  4  1  0  0  0
  4  5  1  0  0  0
  5  6  1  0  0  0
  4  7  1  0  0  0
  7  8  1  0  0  0
  8  9  2  0  0  0
  8 10  1  0  0  0
 10 11  1  0  0  0
 11 12  2  0  0  0
 10 21  1  0  0  0
 21 22  2  0  0  0
 22 23  1  0  0  0
 23 24  2  0  0  0
 24 25  1  0  0  0
 25 26  2  0  0  0
 24 27  1  0  0  0
 27 28  2  0  0  0
 28 29  1  0  0  0
 29 30  2  0  0  0
 30 31  1  0  0  0
 31 32  2  0  0  0
  7 13  1  0  0  0
 13 14  2  0  0  0
 14 15  1  0  0  0
 15 16  2  0  0  0
 16 17  1  0  0  0
 17 18  2  0  0  0
 17 19  1  0  0  0
 40 35  1  0  0  0
  6  1  1  0  0  0
 26 21  1  0  0  0
 32 27  1  0  0  0
 19 13  1  0  0  0
 11  4  1  0  0  0
 19 20  1  0  0  0
M  END
> <minimizedAffinity>
14.65219

> <CNNscore>
0.4705646634

> <CNNaffinity>
7.4801573753

> <CNN_VS>
3.5198976994

> <CNNaffinity_variance>
0.3849968314

$$$$
[H]c1nc(C([H])([H])N2C([H])([H])C([H])([H])C3(C(=O)N(c4c([H])c([H])c(-c5c([H])c([H])c([H])c([H])c5[H])c([H])c4[H])C(=O)N3c3c([H])c([H])c([H])c(=O)n3[H])C([H])([H])C2([H])[H])c(C([H])([H])[H])c([H])c1[H]


 40 45  0  0  0  0  0  0  0  0999 V2000
   13.1544   27.8108   -3.8227 N   0  0  0  0  0  0  0  0  0  0  0  0
   12.2790   26.8005   -3.1836 C   0  0  0  0  0  0  0  0  0  0  0  0
   12.8305   25.4649   -3.5564 C   0  0  0  0  0  0  0  0  0  0  0  0
   14.2550   25.2897   -3.1662 C   0  0  0  0  0  0  0  0  0  0  0  0
   15.1443   26.4665   -3.3641 C   0  0  0  0  0  0  0  0  0  0  0  0
   14.3819   27.7328   -3.0128 C   0  0  0  0  0  0  0  0  0  0  0  0
   14.7412   24.0851   -3.8011 N   0  0  0  0  0  0  0  0  0  0  0  0
   14.2500   23.0095   -3.0104 C   0  0  0  0  0  0  0  0  0  0  0  0
   14.0774   21.8008   -3.3870 O   0  0  0  0  0  0  0  0  0  0  0  0
   13.9794   23.5124   -1.7094 N   0  0  0  0  0  0  0  0  0  0  0  0
   14.3066   24.8944   -1.7133 C   0  0  0  0  0  0  0  0  0  0  0  0
   14.5803   25.6244   -0.7176 O   0  0  0  0  0  0  0  0  0  0  0  0
   15.5499   23.9530   -4.9740 C   0  0  0  0  0  0  0  0  0  0  0  0
   16.4885   22.9495   -5.1352 C   0  0  0  0  0  0  0  0  0  0  0  0
   17.2704   22.8235   -6.2699 C   0  0  0  0  0  0  0  0  0  0  0  0
   17.1089   23.7418   -7.2942 C   0  0  0  0  0  0  0  0  0  0  0  0
   16.1691   24.7348   -7.1164 C   0  0  0  0  0  0  0  0  0  0  0  0
   16.0349   25.5618   -8.0574 O   0  0  0  0  0  0  0  0  0  0  0  0
   15.4402   24.8158   -6.0056 N   0  0  0  0  0  0  0  0  0  0  0  0
   14.7415   25.5833   -5.9100 H   0  0  0  0  0  0  0  0  0  0  0  0
   13.4811   22.8245   -0.5618 C   0  0  0  0  0  0  0  0  0  0  0  0
   14.1078   21.6722   -0.0956 C   0  0  0  0  0  0  0  0  0  0  0  0
   13.6238   21.0081    1.0124 C   0  0  0  0  0  0  0  0  0  0  0  0
   12.5087   21.4556    1.6980 C   0  0  0  0  0  0  0  0  0  0  0  0
   11.8821   22.5896    1.2496 C   0  0  0  0  0  0  0  0  0  0  0  0
   12.3687   23.2609    0.1318 C   0  0  0  0  0  0  0  0  0  0  0  0
   11.9861   20.7659    2.8651 C   0  0  0  0  0  0  0  0  0  0  0  0
   11.2299   21.4481    3.7969 C   0  0  0  0  0  0  0  0  0  0  0  0
   10.7439   20.7782    4.8942 C   0  0  0  0  0  0  0  0  0  0  0  0
   11.0165   19.4550    5.0438 C   0  0  0  0  0  0  0  0  0  0  0  0
   11.7727   18.7800    4.1093 C   0  0  0  0  0  0  0  0  0  0  0  0
   12.2703   19.4194    3.0062 C   0  0  0  0  0  0  0  0  0  0  0  0
   12.5260   29.0826   -3.5522 C   0  0  0  0  0  0  0  0  0  0  0  0
   11.3204   31.5898   -3.3398 C   0  0  0  0  0  0  0  0  0  0  0  0
   10.6495   30.5282   -4.1141 C   0  0  0  0  0  0  0  0  0  0  0  0
    9.4359   30.7515   -4.7296 C   0  0  0  0  0  0  0  0  0  0  0  0
    8.8311   29.7565   -5.4403 C   0  0  0  0  0  0  0  0  0  0  0  0
    9.4282   28.5165   -5.5502 C   0  0  0  0  0  0  0  0  0  0  0  0
   10.6080   28.3447   -4.9356 N   0  0  0  0  0  0  0  0  0  0  0  0
   11.2467   29.2857   -4.2250 C   0  0  0  0  0  0  0  0  0  0  0  0
 34 35  1  0  0  0
 35 36  2  0  0  0
 36 37  1  0  0  0
 37 38  2  0  0  0
 38 39  1  0  0  0
 39 40  2  0  0  0
 40 33  1  0  0  0
 33  1  1  0  0  0
  1  2  1  0  0  0
  2  3  1  0  0  0
  3  4  1  0  0  0
  4  5  1  0  0  0
  5  6  1  0  0  0
  4  7  1  0  0  0
  7  8  1  0  0  0
  8  9  2  0  0  0
  8 10  1  0  0  0
 10 11  1  0  0  0
 11 12  2  0  0  0
 10 21  1  0  0  0
 21 22  2  0  0  0
 22 23  1  0  0  0
 23 24  2  0  0  0
 24 25  1  0  0  0
 25 26  2  0  0  0
 24 27  1  0  0  0
 27 28  2  0  0  0
 28 29  1  0  0  0
 29 30  2  0  0  0
 30 31  1  0  0  0
 31 32  2  0  0  0
  7 13  1  0  0  0
 13 14  2  0  0  0
 14 15  1  0  0  0
 15 16  2  0  0  0
 16 17  1  0  0  0
 17 18  2  0  0  0
 17 19  1  0  0  0
 40 35  1  0  0  0
  6  1  1  0  0  0
 26 21  1  0  0  0
 32 27  1  0  0  0
 19 13  1  0  0  0
 11  4  1  0  0  0
 19 20  1  0  0  0
M  END
> <minimizedAffinity>
23.16602

> <CNNscore>
0.4660347104

> <CNNaffinity>
7.2798538208

> <CNN_VS>
3.3926646709

> <CNNaffinity_variance>
0.7279812694

$$$$
[H]c1nc(C([H])([H])N2C([H])([H])C([H])([H])C3(C(=O)N(c4c([H])c([H])c(-c5c([H])c([H])c([H])c([H])c5[H])c([H])c4[H])C(=O)N3c3c([H])c([H])c([H])c(=O)n3[H])C([H])([H])C2([H])[H])c(C([H])([H])[H])c([H])c1[H]


 40 45  0  0  0  0  0  0  0  0999 V2000
   13.7434   21.2820    1.2709 N   0  0  0  0  0  0  0  0  0  0  0  0
   12.9590   22.5256    1.0873 C   0  0  0  0  0  0  0  0  0  0  0  0
   13.9423   23.6066    0.7854 C   0  0  0  0  0  0  0  0  0  0  0  0
   14.7947   23.3099   -0.3968 C   0  0  0  0  0  0  0  0  0  0  0  0
   15.2712   21.9065   -0.5328 C   0  0  0  0  0  0  0  0  0  0  0  0
   14.1634   20.9596   -0.1034 C   0  0  0  0  0  0  0  0  0  0  0  0
   15.8598   24.2871   -0.4290 N   0  0  0  0  0  0  0  0  0  0  0  0
   15.2809   25.4679   -0.9714 C   0  0  0  0  0  0  0  0  0  0  0  0
   15.6998   26.6650   -0.8167 O   0  0  0  0  0  0  0  0  0  0  0  0
   14.1398   25.0870   -1.7272 N   0  0  0  0  0  0  0  0  0  0  0  0
   14.0276   23.6738   -1.6414 C   0  0  0  0  0  0  0  0  0  0  0  0
   13.4201   22.8993   -2.4352 O   0  0  0  0  0  0  0  0  0  0  0  0
   17.2224   24.1428   -0.0173 C   0  0  0  0  0  0  0  0  0  0  0  0
   17.6248   24.2234    1.3039 C   0  0  0  0  0  0  0  0  0  0  0  0
   18.9433   24.0844    1.7004 C   0  0  0  0  0  0  0  0  0  0  0  0
   19.9077   23.8531    0.7335 C   0  0  0  0  0  0  0  0  0  0  0  0
   19.4886   23.7757   -0.5777 C   0  0  0  0  0  0  0  0  0  0  0  0
   20.3783   23.5651   -1.4446 O   0  0  0  0  0  0  0  0  0  0  0  0
   18.2077   23.9169   -0.9111 N   0  0  0  0  0  0  0  0  0  0  0  0
   17.9328   23.8533   -1.9144 H   0  0  0  0  0  0  0  0  0  0  0  0
   13.2330   25.9052   -2.4666 C   0  0  0  0  0  0  0  0  0  0  0  0
   13.7052   26.8512   -3.3721 C   0  0  0  0  0  0  0  0  0  0  0  0
   12.8276   27.6420   -4.0843 C   0  0  0  0  0  0  0  0  0  0  0  0
   11.4575   27.5279   -3.9298 C   0  0  0  0  0  0  0  0  0  0  0  0
   10.9790   26.5998   -3.0414 C   0  0  0  0  0  0  0  0  0  0  0  0
   11.8629   25.8013   -2.3217 C   0  0  0  0  0  0  0  0  0  0  0  0
   10.5209   28.3549   -4.6712 C   0  0  0  0  0  0  0  0  0  0  0  0
    9.6280   27.7781   -5.5518 C   0  0  0  0  0  0  0  0  0  0  0  0
    8.7494   28.5770   -6.2438 C   0  0  0  0  0  0  0  0  0  0  0  0
    8.7747   29.9221   -6.0497 C   0  0  0  0  0  0  0  0  0  0  0  0
    9.6694   30.4915   -5.1687 C   0  0  0  0  0  0  0  0  0  0  0  0
   10.5564   29.7224   -4.4651 C   0  0  0  0  0  0  0  0  0  0  0  0
   12.7836   20.2859    1.6853 C   0  0  0  0  0  0  0  0  0  0  0  0
   11.5641   20.9488    4.1057 C   0  0  0  0  0  0  0  0  0  0  0  0
   10.7901   21.0520    2.8540 C   0  0  0  0  0  0  0  0  0  0  0  0
    9.4743   21.4649    2.8598 C   0  0  0  0  0  0  0  0  0  0  0  0
    8.7753   21.5527    1.6917 C   0  0  0  0  0  0  0  0  0  0  0  0
    9.3783   21.2293    0.4926 C   0  0  0  0  0  0  0  0  0  0  0  0
   10.6591   20.8332    0.5347 N   0  0  0  0  0  0  0  0  0  0  0  0
   11.3930   20.7284    1.6521 C   0  0  0  0  0  0  0  0  0  0  0  0
 34 35  1  0  0  0
 35 36  2  0  0  0
 36 37  1  0  0  0
 37 38  2  0  0  0
 38 39  1  0  0  0
 39 40  2  0  0  0
 40 33  1  0  0  0
 33  1  1  0  0  0
  1  2  1  0  0  0
  2  3  1  0  0  0
  3  4  1  0  0  0
  4  5  1  0  0  0
  5  6  1  0  0  0
  4  7  1  0  0  0
  7  8  1  0  0  0
  8  9  2  0  0  0
  8 10  1  0  0  0
 10 11  1  0  0  0
 11 12  2  0  0  0
 10 21  1  0  0  0
 21 22  2  0  0  0
 22 23  1  0  0  0
 23 24  2  0  0  0
 24 25  1  0  0  0
 25 26  2  0  0  0
 24 27  1  0  0  0
 27 28  2  0  0  0
 28 29  1  0  0  0
 29 30  2  0  0  0
 30 31  1  0  0  0
 31 32  2  0  0  0
  7 13  1  0  0  0
 13 14  2  0  0  0
 14 15  1  0  0  0
 15 16  2  0  0  0
 16 17  1  0  0  0
 17 18  2  0  0  0
 17 19  1  0  0  0
 40 35  1  0  0  0
  6  1  1  0  0  0
 26 21  1  0  0  0
 32 27  1  0  0  0
 19 13  1  0  0  0
 11  4  1  0  0  0
 19 20  1  0  0  0
M  END
> <minimizedAffinity>
31.91043

> <CNNscore>
0.4655507803

> <CNNaffinity>
7.4781250954

> <CNN_VS>
3.4814469814

> <CNNaffinity_variance>
0.7554746866

$$$$
[H]c1nc(C([H])([H])N2C([H])([H])C([H])([H])C3(C(=O)N(c4c([H])c([H])c(-c5c([H])c([H])c([H])c([H])c5[H])c([H])c4[H])C(=O)N3c3c([H])c([H])c([H])c(=O)n3[H])C([H])([H])C2([H])[H])c(C([H])([H])[H])c([H])c1[H]


 40 45  0  0  0  0  0  0  0  0999 V2000
   14.8994   25.3323   -1.6286 N   0  0  0  0  0  0  0  0  0  0  0  0
   13.5372   24.7580   -1.5278 C   0  0  0  0  0  0  0  0  0  0  0  0
   13.6988   23.3741   -0.9934 C   0  0  0  0  0  0  0  0  0  0  0  0
   14.4166   23.3289    0.3085 C   0  0  0  0  0  0  0  0  0  0  0  0
   15.5767   24.2495    0.4562 C   0  0  0  0  0  0  0  0  0  0  0  0
   15.2537   25.5715   -0.2193 C   0  0  0  0  0  0  0  0  0  0  0  0
   14.7368   21.9470    0.5878 N   0  0  0  0  0  0  0  0  0  0  0  0
   13.5337   21.3653    1.0753 C   0  0  0  0  0  0  0  0  0  0  0  0
   13.2248   20.1256    1.0636 O   0  0  0  0  0  0  0  0  0  0  0  0
   12.7194   22.4112    1.5867 N   0  0  0  0  0  0  0  0  0  0  0  0
   13.4304   23.6274    1.4076 C   0  0  0  0  0  0  0  0  0  0  0  0
   13.2689   24.7140    2.0340 O   0  0  0  0  0  0  0  0  0  0  0  0
   15.9844   21.2651    0.4274 C   0  0  0  0  0  0  0  0  0  0  0  0
   17.2031   21.8336    0.7524 C   0  0  0  0  0  0  0  0  0  0  0  0
   18.4089   21.1730    0.5960 C   0  0  0  0  0  0  0  0  0  0  0  0
   18.4001   19.8830    0.0918 C   0  0  0  0  0  0  0  0  0  0  0  0
   17.1768   19.3324   -0.2264 C   0  0  0  0  0  0  0  0  0  0  0  0
   17.1864   18.1585   -0.6839 O   0  0  0  0  0  0  0  0  0  0  0  0
   16.0421   20.0078   -0.0590 N   0  0  0  0  0  0  0  0  0  0  0  0
   15.1382   19.5557   -0.3139 H   0  0  0  0  0  0  0  0  0  0  0  0
   11.4266   22.3362    2.1881 C   0  0  0  0  0  0  0  0  0  0  0  0
   10.3547   23.0512    1.6612 C   0  0  0  0  0  0  0  0  0  0  0  0
    9.1068   22.9789    2.2447 C   0  0  0  0  0  0  0  0  0  0  0  0
    8.8724   22.2010    3.3644 C   0  0  0  0  0  0  0  0  0  0  0  0
    9.9194   21.4914    3.8933 C   0  0  0  0  0  0  0  0  0  0  0  0
   11.1792   21.5633    3.3062 C   0  0  0  0  0  0  0  0  0  0  0  0
    7.5644   22.1163    3.9911 C   0  0  0  0  0  0  0  0  0  0  0  0
    6.7481   21.0283    3.7556 C   0  0  0  0  0  0  0  0  0  0  0  0
    5.5143   20.9660    4.3579 C   0  0  0  0  0  0  0  0  0  0  0  0
    5.1181   21.9772    5.1754 C   0  0  0  0  0  0  0  0  0  0  0  0
    5.9385   23.0609    5.4060 C   0  0  0  0  0  0  0  0  0  0  0  0
    7.1725   23.1516    4.8209 C   0  0  0  0  0  0  0  0  0  0  0  0
   14.7233   26.6167   -2.2646 C   0  0  0  0  0  0  0  0  0  0  0  0
   12.5464   26.3860   -3.9946 C   0  0  0  0  0  0  0  0  0  0  0  0
   13.9056   26.5081   -4.5551 C   0  0  0  0  0  0  0  0  0  0  0  0
   14.1193   26.5049   -5.9175 C   0  0  0  0  0  0  0  0  0  0  0  0
   15.3840   26.6178   -6.4161 C   0  0  0  0  0  0  0  0  0  0  0  0
   16.4620   26.7365   -5.5617 C   0  0  0  0  0  0  0  0  0  0  0  0
   16.2070   26.7353   -4.2449 N   0  0  0  0  0  0  0  0  0  0  0  0
   14.9863   26.6271   -3.7003 C   0  0  0  0  0  0  0  0  0  0  0  0
 34 35  1  0  0  0
 35 36  2  0  0  0
 36 37  1  0  0  0
 37 38  2  0  0  0
 38 39  1  0  0  0
 39 40  2  0  0  0
 40 33  1  0  0  0
 33  1  1  0  0  0
  1  2  1  0  0  0
  2  3  1  0  0  0
  3  4  1  0  0  0
  4  5  1  0  0  0
  5  6  1  0  0  0
  4  7  1  0  0  0
  7  8  1  0  0  0
  8  9  2  0  0  0
  8 10  1  0  0  0
 10 11  1  0  0  0
 11 12  2  0  0  0
 10 21  1  0  0  0
 21 22  2  0  0  0
 22 23  1  0  0  0
 23 24  2  0  0  0
 24 25  1  0  0  0
 25 26  2  0  0  0
 24 27  1  0  0  0
 27 28  2  0  0  0
 28 29  1  0  0  0
 29 30  2  0  0  0
 30 31  1  0  0  0
 31 32  2  0  0  0
  7 13  1  0  0  0
 13 14  2  0  0  0
 14 15  1  0  0  0
 15 16  2  0  0  0
 16 17  1  0  0  0
 17 18  2  0  0  0
 17 19  1  0  0  0
 40 35  1  0  0  0
  6  1  1  0  0  0
 26 21  1  0  0  0
 32 27  1  0  0  0
 19 13  1  0  0  0
 11  4  1  0  0  0
 19 20  1  0  0  0
M  END
> <minimizedAffinity>
20.43605

> <CNNscore>
0.4580273330

> <CNNaffinity>
7.4395647049

> <CNN_VS>
3.4075238705

> <CNNaffinity_variance>
0.6138437986

$$$$
[H]c1nc(C([H])([H])N2C([H])([H])C([H])([H])C3(C(=O)N(c4c([H])c([H])c(-c5c([H])c([H])c([H])c([H])c5[H])c([H])c4[H])C(=O)N3c3c([H])c([H])c([H])c(=O)n3[H])C([H])([H])C2([H])[H])c(C([H])([H])[H])c([H])c1[H]


 40 45  0  0  0  0  0  0  0  0999 V2000
   14.1303   25.9098   -3.4910 N   0  0  0  0  0  0  0  0  0  0  0  0
   13.4349   24.6558   -3.8644 C   0  0  0  0  0  0  0  0  0  0  0  0
   13.8168   23.6383   -2.8417 C   0  0  0  0  0  0  0  0  0  0  0  0
   13.4959   24.0566   -1.4509 C   0  0  0  0  0  0  0  0  0  0  0  0
   13.7538   25.4829   -1.1133 C   0  0  0  0  0  0  0  0  0  0  0  0
   13.3817   26.3523   -2.3024 C   0  0  0  0  0  0  0  0  0  0  0  0
   14.1382   23.1249   -0.5510 N   0  0  0  0  0  0  0  0  0  0  0  0
   13.3096   21.9687   -0.5402 C   0  0  0  0  0  0  0  0  0  0  0  0
   13.6609   20.7796   -0.2318 O   0  0  0  0  0  0  0  0  0  0  0  0
   12.0036   22.3641   -0.9359 N   0  0  0  0  0  0  0  0  0  0  0  0
   12.0423   23.7613   -1.1873 C   0  0  0  0  0  0  0  0  0  0  0  0
   11.0714   24.5716   -1.1872 O   0  0  0  0  0  0  0  0  0  0  0  0
   15.3481   23.2875    0.1951 C   0  0  0  0  0  0  0  0  0  0  0  0
   16.1142   24.4387    0.1503 C   0  0  0  0  0  0  0  0  0  0  0  0
   17.2846   24.5941    0.8720 C   0  0  0  0  0  0  0  0  0  0  0  0
   17.7124   23.5520    1.6780 C   0  0  0  0  0  0  0  0  0  0  0  0
   16.9366   22.4128    1.7105 C   0  0  0  0  0  0  0  0  0  0  0  0
   17.3398   21.4745    2.4484 O   0  0  0  0  0  0  0  0  0  0  0  0
   15.8175   22.3092    0.9973 N   0  0  0  0  0  0  0  0  0  0  0  0
   15.2606   21.4297    1.0485 H   0  0  0  0  0  0  0  0  0  0  0  0
   10.8234   21.5721   -1.0718 C   0  0  0  0  0  0  0  0  0  0  0  0
   10.3227   20.8509    0.0085 C   0  0  0  0  0  0  0  0  0  0  0  0
    9.1832   20.0850   -0.1252 C   0  0  0  0  0  0  0  0  0  0  0  0
    8.4991   20.0038   -1.3250 C   0  0  0  0  0  0  0  0  0  0  0  0
    8.9814   20.7094   -2.3969 C   0  0  0  0  0  0  0  0  0  0  0  0
   10.1310   21.4825   -2.2640 C   0  0  0  0  0  0  0  0  0  0  0  0
    7.2991   19.1999   -1.4817 C   0  0  0  0  0  0  0  0  0  0  0  0
    6.2143   19.6956   -2.1767 C   0  0  0  0  0  0  0  0  0  0  0  0
    5.0881   18.9199   -2.3147 C   0  0  0  0  0  0  0  0  0  0  0  0
    5.0611   17.6775   -1.7640 C   0  0  0  0  0  0  0  0  0  0  0  0
    6.1481   17.1889   -1.0709 C   0  0  0  0  0  0  0  0  0  0  0  0
    7.2837   17.9372   -0.9167 C   0  0  0  0  0  0  0  0  0  0  0  0
   13.8457   26.8348   -4.5628 C   0  0  0  0  0  0  0  0  0  0  0  0
   16.1810   28.3513   -4.7400 C   0  0  0  0  0  0  0  0  0  0  0  0
   15.8352   27.4256   -5.8355 C   0  0  0  0  0  0  0  0  0  0  0  0
   16.6423   27.3007   -6.9466 C   0  0  0  0  0  0  0  0  0  0  0  0
   16.3044   26.4399   -7.9495 C   0  0  0  0  0  0  0  0  0  0  0  0
   15.1515   25.6854   -7.8616 C   0  0  0  0  0  0  0  0  0  0  0  0
   14.3975   25.8392   -6.7630 N   0  0  0  0  0  0  0  0  0  0  0  0
   14.6806   26.6692   -5.7486 C   0  0  0  0  0  0  0  0  0  0  0  0
 34 35  1  0  0  0
 35 36  2  0  0  0
 36 37  1  0  0  0
 37 38  2  0  0  0
 38 39  1  0  0  0
 39 40  2  0  0  0
 40 33  1  0  0  0
 33  1  1  0  0  0
  1  2  1  0  0  0
  2  3  1  0  0  0
  3  4  1  0  0  0
  4  5  1  0  0  0
  5  6  1  0  0  0
  4  7  1  0  0  0
  7  8  1  0  0  0
  8  9  2  0  0  0
  8 10  1  0  0  0
 10 11  1  0  0  0
 11 12  2  0  0  0
 10 21  1  0  0  0
 21 22  2  0  0  0
 22 23  1  0  0  0
 23 24  2  0  0  0
 24 25  1  0  0  0
 25 26  2  0  0  0
 24 27  1  0  0  0
 27 28  2  0  0  0
 28 29  1  0  0  0
 29 30  2  0  0  0
 30 31  1  0  0  0
 31 32  2  0  0  0
  7 13  1  0  0  0
 13 14  2  0  0  0
 14 15  1  0  0  0
 15 16  2  0  0  0
 16 17  1  0  0  0
 17 18  2  0  0  0
 17 19  1  0  0  0
 40 35  1  0  0  0
  6  1  1  0  0  0
 26 21  1  0  0  0
 32 27  1  0  0  0
 19 13  1  0  0  0
 11  4  1  0  0  0
 19 20  1  0  0  0
M  END
> <minimizedAffinity>
1.47414

> <CNNscore>
0.4522383213

> <CNNaffinity>
7.7629647255

> <CNN_VS>
3.5107102394

> <CNNaffinity_variance>
0.4590181410

$$$$
[H]OC([H])([H])C([H])(O[H])C([H])([H])N([H])c1c([H])c(-c2c([H])c([H])c(C#N)c([H])c2C([H])([H])[H])n2nc([H])nc2c1[H]


 27 29  0  0  0  0  0  0  0  0999 V2000
   13.2759   24.7283   -1.9071 C   0  0  0  0  0  0  0  0  0  0  0  0
   11.9369   24.4571   -1.8176 C   0  0  0  0  0  0  0  0  0  0  0  0
   11.4032   24.0373   -0.6266 C   0  0  0  0  0  0  0  0  0  0  0  0
   12.2201   23.8922    0.4700 C   0  0  0  0  0  0  0  0  0  0  0  0
   13.5656   24.1682    0.3669 C   0  0  0  0  0  0  0  0  0  0  0  0
   14.6035   24.1312    1.2141 N   0  0  0  0  0  0  0  0  0  0  0  0
   15.6995   24.5081    0.5666 C   0  0  0  0  0  0  0  0  0  0  0  0
   15.3576   24.7840   -0.6898 N   0  0  0  0  0  0  0  0  0  0  0  0
   14.0364   24.5728   -0.8107 N   0  0  0  0  0  0  0  0  0  0  0  0
   14.9972   22.9964   -3.2416 C   0  0  0  0  0  0  0  0  0  0  0  0
   14.7298   24.3300   -3.8224 C   0  0  0  0  0  0  0  0  0  0  0  0
   15.3469   24.6906   -5.0274 C   0  0  0  0  0  0  0  0  0  0  0  0
   15.0923   25.9350   -5.5618 C   0  0  0  0  0  0  0  0  0  0  0  0
   14.2455   26.8022   -4.9165 C   0  0  0  0  0  0  0  0  0  0  0  0
   13.6411   26.4191   -3.7141 C   0  0  0  0  0  0  0  0  0  0  0  0
   13.8851   25.1810   -3.1684 C   0  0  0  0  0  0  0  0  0  0  0  0
   15.7137   26.3413   -6.8070 C   0  0  0  0  0  0  0  0  0  0  0  0
   16.2199   26.6522   -7.8023 N   0  0  0  0  0  0  0  0  0  0  0  0
   10.0048   23.7482   -0.5118 N   0  0  0  0  0  0  0  0  0  0  0  0
    9.4145   23.6156   -1.3636 H   0  0  0  0  0  0  0  0  0  0  0  0
    9.4024   23.6386    0.7920 C   0  0  0  0  0  0  0  0  0  0  0  0
    8.5124   22.4167    0.8250 C   0  0  0  0  0  0  0  0  0  0  0  0
    7.3132   22.6780    0.2114 O   0  0  0  0  0  0  0  0  0  0  0  0
    7.3587   23.3331   -0.5073 H   0  0  0  0  0  0  0  0  0  0  0  0
    9.2262   21.2264    0.2402 C   0  0  0  0  0  0  0  0  0  0  0  0
    8.8145   21.1108   -1.0879 O   0  0  0  0  0  0  0  0  0  0  0  0
    9.5843   20.8236   -1.6248 H   0  0  0  0  0  0  0  0  0  0  0  0
 10 11  1  0  0  0
 11 12  2  0  0  0
 12 13  1  0  0  0
 13 14  2  0  0  0
 14 15  1  0  0  0
 15 16  2  0  0  0
 16  1  1  0  0  0
  1  2  2  0  0  0
  2  3  1  0  0  0
  3 19  1  0  0  0
 19 21  1  0  0  0
 21 22  1  0  0  0
 22 23  1  0  0  0
 22 25  1  0  0  0
 25 26  1  0  0  0
  3  4  2  0  0  0
  4  5  1  0  0  0
  5  6  2  0  0  0
  6  7  1  0  0  0
  7  8  2  0  0  0
  8  9  1  0  0  0
 13 17  1  0  0  0
 17 18  3  0  0  0
 16 11  1  0  0  0
  9  1  1  0  0  0
  9  5  1  0  0  0
 19 20  1  0  0  0
 23 24  1  0  0  0
 26 27  1  0  0  0
M  END
> <minimizedAffinity>
-8.95126

> <CNNscore>
0.8142867088

> <CNNaffinity>
7.2163019180

> <CNN_VS>
5.8761386871

> <CNNaffinity_variance>
0.2551045120

$$$$
[H]OC([H])([H])C([H])(O[H])C([H])([H])N([H])c1c([H])c(-c2c([H])c([H])c(C#N)c([H])c2C([H])([H])[H])n2nc([H])nc2c1[H]


 27 29  0  0  0  0  0  0  0  0999 V2000
   13.6845   24.4625   -1.9406 C   0  0  0  0  0  0  0  0  0  0  0  0
   12.3663   24.1313   -1.7751 C   0  0  0  0  0  0  0  0  0  0  0  0
   11.8913   23.8222   -0.5268 C   0  0  0  0  0  0  0  0  0  0  0  0
   12.7456   23.8475    0.5505 C   0  0  0  0  0  0  0  0  0  0  0  0
   14.0695   24.1823    0.3707 C   0  0  0  0  0  0  0  0  0  0  0  0
   15.1312   24.2983    1.1805 N   0  0  0  0  0  0  0  0  0  0  0  0
   16.1851   24.6575    0.4574 C   0  0  0  0  0  0  0  0  0  0  0  0
   15.7928   24.7692   -0.8095 N   0  0  0  0  0  0  0  0  0  0  0  0
   14.4830   24.4745   -0.8604 N   0  0  0  0  0  0  0  0  0  0  0  0
   12.8482   26.8227   -3.1543 C   0  0  0  0  0  0  0  0  0  0  0  0
   13.8197   25.9590   -3.8596 C   0  0  0  0  0  0  0  0  0  0  0  0
   14.2957   26.3469   -5.1189 C   0  0  0  0  0  0  0  0  0  0  0  0
   15.2008   25.5364   -5.7693 C   0  0  0  0  0  0  0  0  0  0  0  0
   15.6242   24.3682   -5.1849 C   0  0  0  0  0  0  0  0  0  0  0  0
   15.1342   24.0023   -3.9264 C   0  0  0  0  0  0  0  0  0  0  0  0
   14.2310   24.8004   -3.2650 C   0  0  0  0  0  0  0  0  0  0  0  0
   15.7143   25.9068   -7.0735 C   0  0  0  0  0  0  0  0  0  0  0  0
   16.1212   26.1874   -8.1219 N   0  0  0  0  0  0  0  0  0  0  0  0
   10.5156   23.4730   -0.3322 N   0  0  0  0  0  0  0  0  0  0  0  0
    9.7554   24.0086   -0.8085 H   0  0  0  0  0  0  0  0  0  0  0  0
   10.1731   22.3711    0.5299 C   0  0  0  0  0  0  0  0  0  0  0  0
   10.5129   21.0730   -0.1671 C   0  0  0  0  0  0  0  0  0  0  0  0
   10.6124   20.0502    0.7421 O   0  0  0  0  0  0  0  0  0  0  0  0
   10.0431   20.1463    1.5259 H   0  0  0  0  0  0  0  0  0  0  0  0
    9.5244   20.7890   -1.2674 C   0  0  0  0  0  0  0  0  0  0  0  0
    9.9589   21.4790   -2.3996 O   0  0  0  0  0  0  0  0  0  0  0  0
    9.7764   20.9230   -3.1876 H   0  0  0  0  0  0  0  0  0  0  0  0
 10 11  1  0  0  0
 11 12  2  0  0  0
 12 13  1  0  0  0
 13 14  2  0  0  0
 14 15  1  0  0  0
 15 16  2  0  0  0
 16  1  1  0  0  0
  1  2  2  0  0  0
  2  3  1  0  0  0
  3 19  1  0  0  0
 19 21  1  0  0  0
 21 22  1  0  0  0
 22 23  1  0  0  0
 22 25  1  0  0  0
 25 26  1  0  0  0
  3  4  2  0  0  0
  4  5  1  0  0  0
  5  6  2  0  0  0
  6  7  1  0  0  0
  7  8  2  0  0  0
  8  9  1  0  0  0
 13 17  1  0  0  0
 17 18  3  0  0  0
 16 11  1  0  0  0
  9  1  1  0  0  0
  9  5  1  0  0  0
 19 20  1  0  0  0
 23 24  1  0  0  0
 26 27  1  0  0  0
M  END
> <minimizedAffinity>
-8.30364

> <CNNscore>
0.7800000906

> <CNNaffinity>
7.2577309608

> <CNN_VS>
5.6610307693

> <CNNaffinity_variance>
0.2881609499

$$$$
[H]OC([H])([H])C([H])(O[H])C([H])([H])N([H])c1c([H])c(-c2c([H])c([H])c(C#N)c([H])c2C([H])([H])[H])n2nc([H])nc2c1[H]


 27 29  0  0  0  0  0  0  0  0999 V2000
   12.9942   22.7690   -1.3475 C   0  0  0  0  0  0  0  0  0  0  0  0
   11.6957   22.3597   -1.4932 C   0  0  0  0  0  0  0  0  0  0  0  0
   11.1919   21.3820   -0.6747 C   0  0  0  0  0  0  0  0  0  0  0  0
   11.9976   20.8199    0.2874 C   0  0  0  0  0  0  0  0  0  0  0  0
   13.3021   21.2403    0.4237 C   0  0  0  0  0  0  0  0  0  0  0  0
   14.3194   20.9112    1.2320 N   0  0  0  0  0  0  0  0  0  0  0  0
   15.3754   21.6511    0.9156 C   0  0  0  0  0  0  0  0  0  0  0  0
   15.0288   22.4485   -0.0920 N   0  0  0  0  0  0  0  0  0  0  0  0
   13.7451   22.1923   -0.3945 N   0  0  0  0  0  0  0  0  0  0  0  0
   11.9369   25.3383   -1.1936 C   0  0  0  0  0  0  0  0  0  0  0  0
   13.0506   25.0763   -2.1307 C   0  0  0  0  0  0  0  0  0  0  0  0
   13.5469   26.1239   -2.9175 C   0  0  0  0  0  0  0  0  0  0  0  0
   14.5848   25.8714   -3.7881 C   0  0  0  0  0  0  0  0  0  0  0  0
   15.1186   24.6092   -3.8768 C   0  0  0  0  0  0  0  0  0  0  0  0
   14.6057   23.5794   -3.0805 C   0  0  0  0  0  0  0  0  0  0  0  0
   13.5705   23.8157   -2.2072 C   0  0  0  0  0  0  0  0  0  0  0  0
   15.1231   26.9317   -4.6174 C   0  0  0  0  0  0  0  0  0  0  0  0
   15.5568   27.7682   -5.2925 N   0  0  0  0  0  0  0  0  0  0  0  0
    9.8361   20.9396   -0.8107 N   0  0  0  0  0  0  0  0  0  0  0  0
    9.4945   20.5311   -1.7097 H   0  0  0  0  0  0  0  0  0  0  0  0
    8.9307   21.0580    0.3032 C   0  0  0  0  0  0  0  0  0  0  0  0
    8.6804   22.5225    0.5843 C   0  0  0  0  0  0  0  0  0  0  0  0
    7.3842   22.8560    0.2821 O   0  0  0  0  0  0  0  0  0  0  0  0
    6.7415   22.1339    0.3967 H   0  0  0  0  0  0  0  0  0  0  0  0
    9.0609   22.8616    2.0015 C   0  0  0  0  0  0  0  0  0  0  0  0
   10.2916   23.5172    1.9520 O   0  0  0  0  0  0  0  0  0  0  0  0
   10.2915   24.2237    2.6334 H   0  0  0  0  0  0  0  0  0  0  0  0
 10 11  1  0  0  0
 11 12  2  0  0  0
 12 13  1  0  0  0
 13 14  2  0  0  0
 14 15  1  0  0  0
 15 16  2  0  0  0
 16  1  1  0  0  0
  1  2  2  0  0  0
  2  3  1  0  0  0
  3 19  1  0  0  0
 19 21  1  0  0  0
 21 22  1  0  0  0
 22 23  1  0  0  0
 22 25  1  0  0  0
 25 26  1  0  0  0
  3  4  2  0  0  0
  4  5  1  0  0  0
  5  6  2  0  0  0
  6  7  1  0  0  0
  7  8  2  0  0  0
  8  9  1  0  0  0
 13 17  1  0  0  0
 17 18  3  0  0  0
 16 11  1  0  0  0
  9  1  1  0  0  0
  9  5  1  0  0  0
 19 20  1  0  0  0
 23 24  1  0  0  0
 26 27  1  0  0  0
M  END
> <minimizedAffinity>
-7.78976

> <CNNscore>
0.7309433222

> <CNNaffinity>
7.1483192444

> <CNN_VS>
5.2250161171

> <CNNaffinity_variance>
0.3508853316

$$$$
[H]OC([H])([H])C([H])(O[H])C([H])([H])N([H])c1c([H])c(-c2c([H])c([H])c(C#N)c([H])c2C([H])([H])[H])n2nc([H])nc2c1[H]


 27 29  0  0  0  0  0  0  0  0999 V2000
   13.0072   22.7697   -1.3358 C   0  0  0  0  0  0  0  0  0  0  0  0
   11.7101   22.3513   -1.4671 C   0  0  0  0  0  0  0  0  0  0  0  0
   11.2170   21.3829   -0.6313 C   0  0  0  0  0  0  0  0  0  0  0  0
   12.0318   20.8393    0.3338 C   0  0  0  0  0  0  0  0  0  0  0  0
   13.3349   21.2688    0.4556 C   0  0  0  0  0  0  0  0  0  0  0  0
   14.3591   20.9571    1.2620 N   0  0  0  0  0  0  0  0  0  0  0  0
   15.4089   21.6981    0.9281 C   0  0  0  0  0  0  0  0  0  0  0  0
   15.0515   22.4789   -0.0888 N   0  0  0  0  0  0  0  0  0  0  0  0
   13.7674   22.2111   -0.3792 N   0  0  0  0  0  0  0  0  0  0  0  0
   11.9218   25.3296   -1.2286 C   0  0  0  0  0  0  0  0  0  0  0  0
   13.0386   25.0629   -2.1608 C   0  0  0  0  0  0  0  0  0  0  0  0
   13.5235   26.1014   -2.9665 C   0  0  0  0  0  0  0  0  0  0  0  0
   14.5644   25.8445   -3.8323 C   0  0  0  0  0  0  0  0  0  0  0  0
   15.1119   24.5869   -3.8980 C   0  0  0  0  0  0  0  0  0  0  0  0
   14.6102   23.5661   -3.0831 C   0  0  0  0  0  0  0  0  0  0  0  0
   13.5722   23.8069   -2.2143 C   0  0  0  0  0  0  0  0  0  0  0  0
   15.0912   26.8954   -4.6807 C   0  0  0  0  0  0  0  0  0  0  0  0
   15.5175   27.7240   -5.3700 N   0  0  0  0  0  0  0  0  0  0  0  0
    9.8629   20.9311   -0.7521 N   0  0  0  0  0  0  0  0  0  0  0  0
    9.5039   20.5535   -1.6578 H   0  0  0  0  0  0  0  0  0  0  0  0
    8.9833   20.9969    0.3866 C   0  0  0  0  0  0  0  0  0  0  0  0
    7.5696   20.7029   -0.0621 C   0  0  0  0  0  0  0  0  0  0  0  0
    6.9357   21.8583   -0.4442 O   0  0  0  0  0  0  0  0  0  0  0  0
    7.5229   22.5406   -0.8146 H   0  0  0  0  0  0  0  0  0  0  0  0
    7.5643   19.6457   -1.1349 C   0  0  0  0  0  0  0  0  0  0  0  0
    7.5510   20.3061   -2.3639 O   0  0  0  0  0  0  0  0  0  0  0  0
    8.1108   19.7998   -2.9913 H   0  0  0  0  0  0  0  0  0  0  0  0
 10 11  1  0  0  0
 11 12  2  0  0  0
 12 13  1  0  0  0
 13 14  2  0  0  0
 14 15  1  0  0  0
 15 16  2  0  0  0
 16  1  1  0  0  0
  1  2  2  0  0  0
  2  3  1  0  0  0
  3 19  1  0  0  0
 19 21  1  0  0  0
 21 22  1  0  0  0
 22 23  1  0  0  0
 22 25  1  0  0  0
 25 26  1  0  0  0
  3  4  2  0  0  0
  4  5  1  0  0  0
  5  6  2  0  0  0
  6  7  1  0  0  0
  7  8  2  0  0  0
  8  9  1  0  0  0
 13 17  1  0  0  0
 17 18  3  0  0  0
 16 11  1  0  0  0
  9  1  1  0  0  0
  9  5  1  0  0  0
 19 20  1  0  0  0
 23 24  1  0  0  0
 26 27  1  0  0  0
M  END
> <minimizedAffinity>
-7.96258

> <CNNscore>
0.6176143289

> <CNNaffinity>
7.1714859009

> <CNN_VS>
4.4292125702

> <CNNaffinity_variance>
0.6453761458

$$$$
[H]OC([H])([H])C([H])(O[H])C([H])([H])N([H])c1c([H])c(-c2c([H])c([H])c(C#N)c([H])c2C([H])([H])[H])n2nc([H])nc2c1[H]


 27 29  0  0  0  0  0  0  0  0999 V2000
   13.8856   22.9861   -1.5942 C   0  0  0  0  0  0  0  0  0  0  0  0
   12.7571   22.2134   -1.6589 C   0  0  0  0  0  0  0  0  0  0  0  0
   12.4770   21.3278   -0.6505 C   0  0  0  0  0  0  0  0  0  0  0  0
   13.3344   21.2236    0.4195 C   0  0  0  0  0  0  0  0  0  0  0  0
   14.4664   22.0066    0.4727 C   0  0  0  0  0  0  0  0  0  0  0  0
   15.4756   22.1473    1.3434 N   0  0  0  0  0  0  0  0  0  0  0  0
   16.3149   23.0669    0.8824 C   0  0  0  0  0  0  0  0  0  0  0  0
   15.8390   23.5091   -0.2792 N   0  0  0  0  0  0  0  0  0  0  0  0
   14.6949   22.8512   -0.5304 N   0  0  0  0  0  0  0  0  0  0  0  0
   12.5734   25.4398   -1.6192 C   0  0  0  0  0  0  0  0  0  0  0  0
   13.5751   25.1517   -2.6685 C   0  0  0  0  0  0  0  0  0  0  0  0
   13.8401   26.1172   -3.6485 C   0  0  0  0  0  0  0  0  0  0  0  0
   14.7748   25.8409   -4.6226 C   0  0  0  0  0  0  0  0  0  0  0  0
   15.4318   24.6350   -4.6253 C   0  0  0  0  0  0  0  0  0  0  0  0
   15.1497   23.6868   -3.6358 C   0  0  0  0  0  0  0  0  0  0  0  0
   14.2198   23.9478   -2.6573 C   0  0  0  0  0  0  0  0  0  0  0  0
   15.0741   26.8168   -5.6521 C   0  0  0  0  0  0  0  0  0  0  0  0
   15.3256   27.5869   -6.4810 N   0  0  0  0  0  0  0  0  0  0  0  0
   11.3017   20.5102   -0.6991 N   0  0  0  0  0  0  0  0  0  0  0  0
   11.0872   19.9317   -1.5423 H   0  0  0  0  0  0  0  0  0  0  0  0
   10.4030   20.4831    0.4263 C   0  0  0  0  0  0  0  0  0  0  0  0
    9.0530   21.0096   -0.0056 C   0  0  0  0  0  0  0  0  0  0  0  0
    9.1443   22.3302   -0.3666 O   0  0  0  0  0  0  0  0  0  0  0  0
   10.0054   22.5913   -0.7382 H   0  0  0  0  0  0  0  0  0  0  0  0
    8.4688   20.1418   -1.0890 C   0  0  0  0  0  0  0  0  0  0  0  0
    8.7825   20.7400   -2.3099 O   0  0  0  0  0  0  0  0  0  0  0  0
    8.9777   20.0302   -2.9592 H   0  0  0  0  0  0  0  0  0  0  0  0
 10 11  1  0  0  0
 11 12  2  0  0  0
 12 13  1  0  0  0
 13 14  2  0  0  0
 14 15  1  0  0  0
 15 16  2  0  0  0
 16  1  1  0  0  0
  1  2  2  0  0  0
  2  3  1  0  0  0
  3 19  1  0  0  0
 19 21  1  0  0  0
 21 22  1  0  0  0
 22 23  1  0  0  0
 22 25  1  0  0  0
 25 26  1  0  0  0
  3  4  2  0  0  0
  4  5  1  0  0  0
  5  6  2  0  0  0
  6  7  1  0  0  0
  7  8  2  0  0  0
  8  9  1  0  0  0
 13 17  1  0  0  0
 17 18  3  0  0  0
 16 11  1  0  0  0
  9  1  1  0  0  0
  9  5  1  0  0  0
 19 20  1  0  0  0
 23 24  1  0  0  0
 26 27  1  0  0  0
M  END
> <minimizedAffinity>
-7.38639

> <CNNscore>
0.5825765133

> <CNNaffinity>
7.1397237778

> <CNN_VS>
4.1594352722

> <CNNaffinity_variance>
0.4528983235

$$$$
[H]OC([H])([H])C([H])(O[H])C([H])([H])N([H])c1c([H])c(-c2c([H])c([H])c(C#N)c([H])c2C([H])([H])[H])n2nc([H])nc2c1[H]


 27 29  0  0  0  0  0  0  0  0999 V2000
   15.0352   24.7302   -1.4633 C   0  0  0  0  0  0  0  0  0  0  0  0
   15.0367   25.5965   -2.5236 C   0  0  0  0  0  0  0  0  0  0  0  0
   13.9683   25.6271   -3.3821 C   0  0  0  0  0  0  0  0  0  0  0  0
   12.9021   24.7851   -3.1697 C   0  0  0  0  0  0  0  0  0  0  0  0
   12.9128   23.9181   -2.0994 C   0  0  0  0  0  0  0  0  0  0  0  0
   12.0634   22.9970   -1.6235 N   0  0  0  0  0  0  0  0  0  0  0  0
   12.5935   22.4443   -0.5389 C   0  0  0  0  0  0  0  0  0  0  0  0
   13.7776   23.0139   -0.3269 N   0  0  0  0  0  0  0  0  0  0  0  0
   13.9727   23.9257   -1.2942 N   0  0  0  0  0  0  0  0  0  0  0  0
   14.6633   25.7157    1.1122 C   0  0  0  0  0  0  0  0  0  0  0  0
   15.9801   25.1526    0.7433 C   0  0  0  0  0  0  0  0  0  0  0  0
   17.0076   25.1279    1.6955 C   0  0  0  0  0  0  0  0  0  0  0  0
   18.2315   24.6014    1.3436 C   0  0  0  0  0  0  0  0  0  0  0  0
   18.4324   24.1107    0.0769 C   0  0  0  0  0  0  0  0  0  0  0  0
   17.3906   24.1465   -0.8564 C   0  0  0  0  0  0  0  0  0  0  0  0
   16.1640   24.6685   -0.5204 C   0  0  0  0  0  0  0  0  0  0  0  0
   19.3171   24.5599    2.3035 C   0  0  0  0  0  0  0  0  0  0  0  0
   20.1899   24.5421    3.0661 N   0  0  0  0  0  0  0  0  0  0  0  0
   13.9502   26.5260   -4.4974 N   0  0  0  0  0  0  0  0  0  0  0  0
   13.0461   26.8717   -4.8910 H   0  0  0  0  0  0  0  0  0  0  0  0
   15.1913   26.9600   -5.0856 C   0  0  0  0  0  0  0  0  0  0  0  0
   15.0668   26.9176   -6.5920 C   0  0  0  0  0  0  0  0  0  0  0  0
   15.7273   27.9780   -7.1595 O   0  0  0  0  0  0  0  0  0  0  0  0
   16.5013   28.2900   -6.6583 H   0  0  0  0  0  0  0  0  0  0  0  0
   15.5256   25.5852   -7.1234 C   0  0  0  0  0  0  0  0  0  0  0  0
   16.0679   25.8111   -8.3890 O   0  0  0  0  0  0  0  0  0  0  0  0
   16.8419   25.2182   -8.5024 H   0  0  0  0  0  0  0  0  0  0  0  0
 10 11  1  0  0  0
 11 12  2  0  0  0
 12 13  1  0  0  0
 13 14  2  0  0  0
 14 15  1  0  0  0
 15 16  2  0  0  0
 16  1  1  0  0  0
  1  2  2  0  0  0
  2  3  1  0  0  0
  3 19  1  0  0  0
 19 21  1  0  0  0
 21 22  1  0  0  0
 22 23  1  0  0  0
 22 25  1  0  0  0
 25 26  1  0  0  0
  3  4  2  0  0  0
  4  5  1  0  0  0
  5  6  2  0  0  0
  6  7  1  0  0  0
  7  8  2  0  0  0
  8  9  1  0  0  0
 13 17  1  0  0  0
 17 18  3  0  0  0
 16 11  1  0  0  0
  9  1  1  0  0  0
  9  5  1  0  0  0
 19 20  1  0  0  0
 23 24  1  0  0  0
 26 27  1  0  0  0
M  END
> <minimizedAffinity>
5.91272

> <CNNscore>
0.5475834012

> <CNNaffinity>
6.9518089294

> <CNN_VS>
3.8066952229

> <CNNaffinity_variance>
0.8560053706

$$$$
[H]OC([H])([H])C([H])(O[H])C([H])([H])N([H])c1c([H])c(-c2c([H])c([H])c(C#N)c([H])c2C([H])([H])[H])n2nc([H])nc2c1[H]


 27 29  0  0  0  0  0  0  0  0999 V2000
   13.3798   24.1908   -1.0457 C   0  0  0  0  0  0  0  0  0  0  0  0
   13.2318   24.6807   -2.3157 C   0  0  0  0  0  0  0  0  0  0  0  0
   14.3085   25.2237   -2.9680 C   0  0  0  0  0  0  0  0  0  0  0  0
   15.5303   25.2715   -2.3390 C   0  0  0  0  0  0  0  0  0  0  0  0
   15.6660   24.7754   -1.0612 C   0  0  0  0  0  0  0  0  0  0  0  0
   16.6817   24.6716   -0.1928 N   0  0  0  0  0  0  0  0  0  0  0  0
   16.2384   24.0978    0.9193 C   0  0  0  0  0  0  0  0  0  0  0  0
   14.9432   23.8378    0.7569 N   0  0  0  0  0  0  0  0  0  0  0  0
   14.5916   24.2582   -0.4697 N   0  0  0  0  0  0  0  0  0  0  0  0
   13.0251   21.4332   -1.1571 C   0  0  0  0  0  0  0  0  0  0  0  0
   12.0744   22.2470   -0.3690 C   0  0  0  0  0  0  0  0  0  0  0  0
   11.0198   21.6137    0.3016 C   0  0  0  0  0  0  0  0  0  0  0  0
   10.1385   22.3793    1.0337 C   0  0  0  0  0  0  0  0  0  0  0  0
   10.2987   23.7416    1.0995 C   0  0  0  0  0  0  0  0  0  0  0  0
   11.3598   24.3509    0.4209 C   0  0  0  0  0  0  0  0  0  0  0  0
   12.2474   23.6006   -0.3135 C   0  0  0  0  0  0  0  0  0  0  0  0
    9.0359   21.7574    1.7403 C   0  0  0  0  0  0  0  0  0  0  0  0
    8.1578   21.2696    2.3187 N   0  0  0  0  0  0  0  0  0  0  0  0
   14.1749   25.7417   -4.2970 N   0  0  0  0  0  0  0  0  0  0  0  0
   13.3476   26.3212   -4.5644 H   0  0  0  0  0  0  0  0  0  0  0  0
   15.1913   25.4621   -5.2785 C   0  0  0  0  0  0  0  0  0  0  0  0
   15.5317   26.7375   -6.0159 C   0  0  0  0  0  0  0  0  0  0  0  0
   14.4212   27.2406   -6.6453 O   0  0  0  0  0  0  0  0  0  0  0  0
   13.5780   27.0455   -6.1996 H   0  0  0  0  0  0  0  0  0  0  0  0
   16.1816   27.7284   -5.0864 C   0  0  0  0  0  0  0  0  0  0  0  0
   15.6782   28.9887   -5.4106 O   0  0  0  0  0  0  0  0  0  0  0  0
   15.5665   29.4986   -4.5794 H   0  0  0  0  0  0  0  0  0  0  0  0
 10 11  1  0  0  0
 11 12  2  0  0  0
 12 13  1  0  0  0
 13 14  2  0  0  0
 14 15  1  0  0  0
 15 16  2  0  0  0
 16  1  1  0  0  0
  1  2  2  0  0  0
  2  3  1  0  0  0
  3 19  1  0  0  0
 19 21  1  0  0  0
 21 22  1  0  0  0
 22 23  1  0  0  0
 22 25  1  0  0  0
 25 26  1  0  0  0
  3  4  2  0  0  0
  4  5  1  0  0  0
  5  6  2  0  0  0
  6  7  1  0  0  0
  7  8  2  0  0  0
  8  9  1  0  0  0
 13 17  1  0  0  0
 17 18  3  0  0  0
 16 11  1  0  0  0
  9  1  1  0  0  0
  9  5  1  0  0  0
 19 20  1  0  0  0
 23 24  1  0  0  0
 26 27  1  0  0  0
M  END
> <minimizedAffinity>
-7.38823

> <CNNscore>
0.5229205489

> <CNNaffinity>
7.1714653969

> <CNN_VS>
3.7501065731

> <CNNaffinity_variance>
0.3299354017

$$$$
[H]OC([H])([H])C([H])(O[H])C([H])([H])N([H])c1c([H])c(-c2c([H])c([H])c(C#N)c([H])c2C([H])([H])[H])n2nc([H])nc2c1[H]


 27 29  0  0  0  0  0  0  0  0999 V2000
   12.9149   24.3409   -0.9221 C   0  0  0  0  0  0  0  0  0  0  0  0
   12.8736   22.9763   -1.0266 C   0  0  0  0  0  0  0  0  0  0  0  0
   12.2854   22.2330   -0.0361 C   0  0  0  0  0  0  0  0  0  0  0  0
   11.7410   22.8666    1.0561 C   0  0  0  0  0  0  0  0  0  0  0  0
   11.7890   24.2400    1.1494 C   0  0  0  0  0  0  0  0  0  0  0  0
   11.3674   25.1394    2.0493 N   0  0  0  0  0  0  0  0  0  0  0  0
   11.6854   26.3555    1.6217 C   0  0  0  0  0  0  0  0  0  0  0  0
   12.3078   26.2279    0.4523 N   0  0  0  0  0  0  0  0  0  0  0  0
   12.3706   24.9176    0.1623 N   0  0  0  0  0  0  0  0  0  0  0  0
   15.6831   24.2670   -1.1956 C   0  0  0  0  0  0  0  0  0  0  0  0
   14.8964   25.1353   -2.0981 C   0  0  0  0  0  0  0  0  0  0  0  0
   15.5600   25.8988   -3.0674 C   0  0  0  0  0  0  0  0  0  0  0  0
   14.8196   26.7052   -3.9044 C   0  0  0  0  0  0  0  0  0  0  0  0
   13.4526   26.7537   -3.7833 C   0  0  0  0  0  0  0  0  0  0  0  0
   12.8127   25.9818   -2.8073 C   0  0  0  0  0  0  0  0  0  0  0  0
   13.5377   25.1724   -1.9650 C   0  0  0  0  0  0  0  0  0  0  0  0
   15.4733   27.5087   -4.9187 C   0  0  0  0  0  0  0  0  0  0  0  0
   15.9869   28.1433   -5.7415 N   0  0  0  0  0  0  0  0  0  0  0  0
   12.2319   20.8042   -0.1261 N   0  0  0  0  0  0  0  0  0  0  0  0
   11.6926   20.2443    0.5719 H   0  0  0  0  0  0  0  0  0  0  0  0
   12.9288   20.1287   -1.1904 C   0  0  0  0  0  0  0  0  0  0  0  0
   14.1240   20.9574   -1.6039 C   0  0  0  0  0  0  0  0  0  0  0  0
   15.2574   20.5188   -0.9670 O   0  0  0  0  0  0  0  0  0  0  0  0
   15.2651   19.5675   -0.7604 H   0  0  0  0  0  0  0  0  0  0  0  0
   14.2610   20.9766   -3.1036 C   0  0  0  0  0  0  0  0  0  0  0  0
   15.2256   21.9348   -3.4169 O   0  0  0  0  0  0  0  0  0  0  0  0
   15.7520   21.6046   -4.1767 H   0  0  0  0  0  0  0  0  0  0  0  0
 10 11  1  0  0  0
 11 12  2  0  0  0
 12 13  1  0  0  0
 13 14  2  0  0  0
 14 15  1  0  0  0
 15 16  2  0  0  0
 16  1  1  0  0  0
  1  2  2  0  0  0
  2  3  1  0  0  0
  3 19  1  0  0  0
 19 21  1  0  0  0
 21 22  1  0  0  0
 22 23  1  0  0  0
 22 25  1  0  0  0
 25 26  1  0  0  0
  3  4  2  0  0  0
  4  5  1  0  0  0
  5  6  2  0  0  0
  6  7  1  0  0  0
  7  8  2  0  0  0
  8  9  1  0  0  0
 13 17  1  0  0  0
 17 18  3  0  0  0
 16 11  1  0  0  0
  9  1  1  0  0  0
  9  5  1  0  0  0
 19 20  1  0  0  0
 23 24  1  0  0  0
 26 27  1  0  0  0
M  END
> <minimizedAffinity>
-0.92319

> <CNNscore>
0.5061182976

> <CNNaffinity>
6.6427431107

> <CNN_VS>
3.3620138168

> <CNNaffinity_variance>
0.8764635921

$$$$
[H]OC([H])([H])C([H])(O[H])C([H])([H])N([H])c1c([H])c(-c2c([H])c([H])c(C#N)c([H])c2C([H])([H])[H])n2nc([H])nc2c1[H]


 27 29  0  0  0  0  0  0  0  0999 V2000
   14.0020   24.4148   -1.6026 C   0  0  0  0  0  0  0  0  0  0  0  0
   13.8861   23.1250   -2.0473 C   0  0  0  0  0  0  0  0  0  0  0  0
   12.9090   22.3112   -1.5351 C   0  0  0  0  0  0  0  0  0  0  0  0
   12.0521   22.7992   -0.5768 C   0  0  0  0  0  0  0  0  0  0  0  0
   12.1792   24.0985   -0.1377 C   0  0  0  0  0  0  0  0  0  0  0  0
   11.5303   24.8603    0.7540 N   0  0  0  0  0  0  0  0  0  0  0  0
   12.0879   26.0650    0.7753 C   0  0  0  0  0  0  0  0  0  0  0  0
   13.0891   26.0677   -0.1017 N   0  0  0  0  0  0  0  0  0  0  0  0
   13.1434   24.8494   -0.6653 N   0  0  0  0  0  0  0  0  0  0  0  0
   13.3479   26.0800   -3.7339 C   0  0  0  0  0  0  0  0  0  0  0  0
   14.7159   26.1350   -3.1747 C   0  0  0  0  0  0  0  0  0  0  0  0
   15.6491   27.0213   -3.7286 C   0  0  0  0  0  0  0  0  0  0  0  0
   16.9216   27.0664   -3.2017 C   0  0  0  0  0  0  0  0  0  0  0  0
   17.2614   26.2516   -2.1499 C   0  0  0  0  0  0  0  0  0  0  0  0
   16.3119   25.3748   -1.6139 C   0  0  0  0  0  0  0  0  0  0  0  0
   15.0383   25.3183   -2.1287 C   0  0  0  0  0  0  0  0  0  0  0  0
   17.9125   27.9714   -3.7501 C   0  0  0  0  0  0  0  0  0  0  0  0
   18.6924   28.7043   -4.1952 N   0  0  0  0  0  0  0  0  0  0  0  0
   12.7708   20.9587   -1.9868 N   0  0  0  0  0  0  0  0  0  0  0  0
   12.5576   20.7484   -2.9878 H   0  0  0  0  0  0  0  0  0  0  0  0
   12.9271   19.8738   -1.0523 C   0  0  0  0  0  0  0  0  0  0  0  0
   14.2540   20.0194   -0.3420 C   0  0  0  0  0  0  0  0  0  0  0  0
   15.1661   20.6495   -1.1505 O   0  0  0  0  0  0  0  0  0  0  0  0
   14.7811   21.2856   -1.7788 H   0  0  0  0  0  0  0  0  0  0  0  0
   14.0705   20.7059    0.9859 C   0  0  0  0  0  0  0  0  0  0  0  0
   15.3010   21.2638    1.3346 O   0  0  0  0  0  0  0  0  0  0  0  0
   15.1347   22.1257    1.7737 H   0  0  0  0  0  0  0  0  0  0  0  0
 10 11  1  0  0  0
 11 12  2  0  0  0
 12 13  1  0  0  0
 13 14  2  0  0  0
 14 15  1  0  0  0
 15 16  2  0  0  0
 16  1  1  0  0  0
  1  2  2  0  0  0
  2  3  1  0  0  0
  3 19  1  0  0  0
 19 21  1  0  0  0
 21 22  1  0  0  0
 22 23  1  0  0  0
 22 25  1  0  0  0
 25 26  1  0  0  0
  3  4  2  0  0  0
  4  5  1  0  0  0
  5  6  2  0  0  0
  6  7  1  0  0  0
  7  8  2  0  0  0
  8  9  1  0  0  0
 13 17  1  0  0  0
 17 18  3  0  0  0
 16 11  1  0  0  0
  9  1  1  0  0  0
  9  5  1  0  0  0
 19 20  1  0  0  0
 23 24  1  0  0  0
 26 27  1  0  0  0
M  END
> <minimizedAffinity>
-4.47938

> <CNNscore>
0.4383392334

> <CNNaffinity>
6.9637274742

> <CNN_VS>
3.0524749756

> <CNNaffinity_variance>
0.6016394496

$$$$
[H]c1nc2c([H])c(N([H])C([H])([H])c3c([H])c([H])c(F)c([H])c3[H])c([H])c(-c3c([H])c([H])c(C#N)c([H])c3[H])n2n1


 27 30  0  0  0  0  0  0  0  0999 V2000
   11.3895   24.0419   -0.7170 C   0  0  0  0  0  0  0  0  0  0  0  0
   11.9906   24.4754   -1.9012 C   0  0  0  0  0  0  0  0  0  0  0  0
   13.3487   24.7058   -1.9891 C   0  0  0  0  0  0  0  0  0  0  0  0
   14.1034   24.5051   -0.9021 N   0  0  0  0  0  0  0  0  0  0  0  0
   15.4125   24.6624   -0.7623 N   0  0  0  0  0  0  0  0  0  0  0  0
   15.7814   24.3537    0.4962 C   0  0  0  0  0  0  0  0  0  0  0  0
   14.6436   24.0010    1.1212 N   0  0  0  0  0  0  0  0  0  0  0  0
   13.5974   24.0869    0.2790 C   0  0  0  0  0  0  0  0  0  0  0  0
   12.2379   23.8595    0.3554 C   0  0  0  0  0  0  0  0  0  0  0  0
   13.9441   25.1558   -3.2333 C   0  0  0  0  0  0  0  0  0  0  0  0
   13.5936   26.3556   -3.7853 C   0  0  0  0  0  0  0  0  0  0  0  0
   14.1909   26.7283   -4.9645 C   0  0  0  0  0  0  0  0  0  0  0  0
   15.1237   25.9199   -5.5868 C   0  0  0  0  0  0  0  0  0  0  0  0
   15.4912   24.6970   -5.0387 C   0  0  0  0  0  0  0  0  0  0  0  0
   14.8860   24.3309   -3.8540 C   0  0  0  0  0  0  0  0  0  0  0  0
   15.7129   26.3593   -6.8128 C   0  0  0  0  0  0  0  0  0  0  0  0
   16.1992   26.7221   -7.8032 N   0  0  0  0  0  0  0  0  0  0  0  0
    9.9889   23.8077   -0.6384 N   0  0  0  0  0  0  0  0  0  0  0  0
    9.3671   24.3108   -1.2951 H   0  0  0  0  0  0  0  0  0  0  0  0
    9.5232   22.8828    0.3465 C   0  0  0  0  0  0  0  0  0  0  0  0
    8.5797   25.0091    5.4243 F   0  0  0  0  0  0  0  0  0  0  0  0
    8.8220   24.4719    4.1983 C   0  0  0  0  0  0  0  0  0  0  0  0
    9.5701   23.3297    4.0551 C   0  0  0  0  0  0  0  0  0  0  0  0
    9.8127   22.7862    2.7871 C   0  0  0  0  0  0  0  0  0  0  0  0
    9.2947   23.4069    1.6844 C   0  0  0  0  0  0  0  0  0  0  0  0
    8.5494   24.5490    1.8586 C   0  0  0  0  0  0  0  0  0  0  0  0
    8.3058   25.0883    3.0866 C   0  0  0  0  0  0  0  0  0  0  0  0
 21 22  1  0  0  0
 22 23  2  0  0  0
 23 24  1  0  0  0
 24 25  2  0  0  0
 25 20  1  0  0  0
 20 18  1  0  0  0
 18  1  1  0  0  0
  1  2  1  0  0  0
  2  3  2  0  0  0
  3 10  1  0  0  0
 10 11  2  0  0  0
 11 12  1  0  0  0
 12 13  2  0  0  0
 13 14  1  0  0  0
 14 15  2  0  0  0
 13 16  1  0  0  0
 16 17  3  0  0  0
  3  4  1  0  0  0
  4  5  1  0  0  0
  5  6  2  0  0  0
  6  7  1  0  0  0
  7  8  2  0  0  0
  8  9  1  0  0  0
 25 26  1  0  0  0
 26 27  2  0  0  0
 27 22  1  0  0  0
  9  1  2  0  0  0
 15 10  1  0  0  0
  8  4  1  0  0  0
 18 19  1  0  0  0
M  END
> <minimizedAffinity>
-9.41011

> <CNNscore>
0.7889298797

> <CNNaffinity>
7.2750787735

> <CNN_VS>
5.7395272255

> <CNNaffinity_variance>
0.1482622325

$$$$
[H]c1nc2c([H])c(N([H])C([H])([H])c3c([H])c([H])c(F)c([H])c3[H])c([H])c(-c3c([H])c([H])c(C#N)c([H])c3[H])n2n1


 27 30  0  0  0  0  0  0  0  0999 V2000
   11.4189   24.1185   -0.6037 C   0  0  0  0  0  0  0  0  0  0  0  0
   12.0034   24.5165   -1.8084 C   0  0  0  0  0  0  0  0  0  0  0  0
   13.3631   24.7224   -1.9277 C   0  0  0  0  0  0  0  0  0  0  0  0
   14.1357   24.5326   -0.8515 N   0  0  0  0  0  0  0  0  0  0  0  0
   15.4497   24.6711   -0.7406 N   0  0  0  0  0  0  0  0  0  0  0  0
   15.8384   24.3834    0.5169 C   0  0  0  0  0  0  0  0  0  0  0  0
   14.7076   24.0631    1.1715 N   0  0  0  0  0  0  0  0  0  0  0  0
   13.6465   24.1483    0.3480 C   0  0  0  0  0  0  0  0  0  0  0  0
   12.2852   23.9452    0.4557 C   0  0  0  0  0  0  0  0  0  0  0  0
   13.9409   25.1357   -3.1927 C   0  0  0  0  0  0  0  0  0  0  0  0
   13.5652   26.3078   -3.7862 C   0  0  0  0  0  0  0  0  0  0  0  0
   14.1468   26.6462   -4.9834 C   0  0  0  0  0  0  0  0  0  0  0  0
   15.0889   25.8313   -5.5829 C   0  0  0  0  0  0  0  0  0  0  0  0
   15.4819   24.6363   -4.9926 C   0  0  0  0  0  0  0  0  0  0  0  0
   14.8923   24.3044   -3.7901 C   0  0  0  0  0  0  0  0  0  0  0  0
   15.6608   26.2346   -6.8292 C   0  0  0  0  0  0  0  0  0  0  0  0
   16.1334   26.5679   -7.8366 N   0  0  0  0  0  0  0  0  0  0  0  0
   10.0165   23.9093   -0.4928 N   0  0  0  0  0  0  0  0  0  0  0  0
    9.3951   24.3514   -1.1924 H   0  0  0  0  0  0  0  0  0  0  0  0
    9.5486   23.0928    0.5826 C   0  0  0  0  0  0  0  0  0  0  0  0
    6.3156   18.7660   -0.8395 F   0  0  0  0  0  0  0  0  0  0  0  0
    7.0835   19.8298   -0.4803 C   0  0  0  0  0  0  0  0  0  0  0  0
    6.5671   20.8654    0.2583 C   0  0  0  0  0  0  0  0  0  0  0  0
    7.3681   21.9554    0.6221 C   0  0  0  0  0  0  0  0  0  0  0  0
    8.6785   21.9802    0.2329 C   0  0  0  0  0  0  0  0  0  0  0  0
    9.1680   20.9291   -0.5059 C   0  0  0  0  0  0  0  0  0  0  0  0
    8.3996   19.8625   -0.8665 C   0  0  0  0  0  0  0  0  0  0  0  0
 21 22  1  0  0  0
 22 23  2  0  0  0
 23 24  1  0  0  0
 24 25  2  0  0  0
 25 20  1  0  0  0
 20 18  1  0  0  0
 18  1  1  0  0  0
  1  2  1  0  0  0
  2  3  2  0  0  0
  3 10  1  0  0  0
 10 11  2  0  0  0
 11 12  1  0  0  0
 12 13  2  0  0  0
 13 14  1  0  0  0
 14 15  2  0  0  0
 13 16  1  0  0  0
 16 17  3  0  0  0
  3  4  1  0  0  0
  4  5  1  0  0  0
  5  6  2  0  0  0
  6  7  1  0  0  0
  7  8  2  0  0  0
  8  9  1  0  0  0
 25 26  1  0  0  0
 26 27  2  0  0  0
 27 22  1  0  0  0
  9  1  2  0  0  0
 15 10  1  0  0  0
  8  4  1  0  0  0
 18 19  1  0  0  0
M  END
> <minimizedAffinity>
-9.27108

> <CNNscore>
0.7296597362

> <CNNaffinity>
7.3151307106

> <CNN_VS>
5.3375563622

> <CNNaffinity_variance>
0.3297318816

$$$$
[H]c1nc2c([H])c(N([H])C([H])([H])c3c([H])c([H])c(F)c([H])c3[H])c([H])c(-c3c([H])c([H])c(C#N)c([H])c3[H])n2n1


 27 30  0  0  0  0  0  0  0  0999 V2000
   11.7350   24.0922   -0.4586 C   0  0  0  0  0  0  0  0  0  0  0  0
   12.2532   24.4609   -1.7024 C   0  0  0  0  0  0  0  0  0  0  0  0
   13.5983   24.7086   -1.8890 C   0  0  0  0  0  0  0  0  0  0  0  0
   14.4222   24.5893   -0.8411 N   0  0  0  0  0  0  0  0  0  0  0  0
   15.7338   24.7774   -0.7933 N   0  0  0  0  0  0  0  0  0  0  0  0
   16.1856   24.5545    0.4563 C   0  0  0  0  0  0  0  0  0  0  0  0
   15.0959   24.2223    1.1717 N   0  0  0  0  0  0  0  0  0  0  0  0
   13.9984   24.2373    0.3928 C   0  0  0  0  0  0  0  0  0  0  0  0
   12.6512   23.9919    0.5678 C   0  0  0  0  0  0  0  0  0  0  0  0
   14.1066   25.0899   -3.1933 C   0  0  0  0  0  0  0  0  0  0  0  0
   13.7026   26.2496   -3.7923 C   0  0  0  0  0  0  0  0  0  0  0  0
   14.2182   26.5577   -5.0274 C   0  0  0  0  0  0  0  0  0  0  0  0
   15.1231   25.7249   -5.6587 C   0  0  0  0  0  0  0  0  0  0  0  0
   15.5442   24.5421   -5.0633 C   0  0  0  0  0  0  0  0  0  0  0  0
   15.0209   24.2408   -3.8227 C   0  0  0  0  0  0  0  0  0  0  0  0
   15.6265   26.0966   -6.9438 C   0  0  0  0  0  0  0  0  0  0  0  0
   16.0398   26.3885   -7.9894 N   0  0  0  0  0  0  0  0  0  0  0  0
   10.3472   23.8394   -0.2784 N   0  0  0  0  0  0  0  0  0  0  0  0
    9.6915   24.6394   -0.3137 H   0  0  0  0  0  0  0  0  0  0  0  0
    9.9398   22.4869   -0.0619 C   0  0  0  0  0  0  0  0  0  0  0  0
   11.5486   20.1742    4.7609 F   0  0  0  0  0  0  0  0  0  0  0  0
   11.1706   20.7203    3.5737 C   0  0  0  0  0  0  0  0  0  0  0  0
   11.6566   20.2427    2.3819 C   0  0  0  0  0  0  0  0  0  0  0  0
   11.2598   20.8136    1.1658 C   0  0  0  0  0  0  0  0  0  0  0  0
   10.3779   21.8583    1.1750 C   0  0  0  0  0  0  0  0  0  0  0  0
    9.9079   22.3152    2.3836 C   0  0  0  0  0  0  0  0  0  0  0  0
   10.2858   21.7688    3.5739 C   0  0  0  0  0  0  0  0  0  0  0  0
 21 22  1  0  0  0
 22 23  2  0  0  0
 23 24  1  0  0  0
 24 25  2  0  0  0
 25 20  1  0  0  0
 20 18  1  0  0  0
 18  1  1  0  0  0
  1  2  1  0  0  0
  2  3  2  0  0  0
  3 10  1  0  0  0
 10 11  2  0  0  0
 11 12  1  0  0  0
 12 13  2  0  0  0
 13 14  1  0  0  0
 14 15  2  0  0  0
 13 16  1  0  0  0
 16 17  3  0  0  0
  3  4  1  0  0  0
  4  5  1  0  0  0
  5  6  2  0  0  0
  6  7  1  0  0  0
  7  8  2  0  0  0
  8  9  1  0  0  0
 25 26  1  0  0  0
 26 27  2  0  0  0
 27 22  1  0  0  0
  9  1  2  0  0  0
 15 10  1  0  0  0
  8  4  1  0  0  0
 18 19  1  0  0  0
M  END
> <minimizedAffinity>
-9.28704

> <CNNscore>
0.7170416713

> <CNNaffinity>
7.3365297318

> <CNN_VS>
5.2605977058

> <CNNaffinity_variance>
0.1002973691

$$$$
[H]c1nc2c([H])c(N([H])C([H])([H])c3c([H])c([H])c(F)c([H])c3[H])c([H])c(-c3c([H])c([H])c(C#N)c([H])c3[H])n2n1


 27 30  0  0  0  0  0  0  0  0999 V2000
   11.5143   24.0658   -0.5769 C   0  0  0  0  0  0  0  0  0  0  0  0
   12.0803   24.4643   -1.7902 C   0  0  0  0  0  0  0  0  0  0  0  0
   13.4333   24.7039   -1.9214 C   0  0  0  0  0  0  0  0  0  0  0  0
   14.2179   24.5471   -0.8485 N   0  0  0  0  0  0  0  0  0  0  0  0
   15.5285   24.7208   -0.7484 N   0  0  0  0  0  0  0  0  0  0  0  0
   15.9329   24.4583    0.5097 C   0  0  0  0  0  0  0  0  0  0  0  0
   14.8152   24.1167    1.1758 N   0  0  0  0  0  0  0  0  0  0  0  0
   13.7467   24.1645    0.3589 C   0  0  0  0  0  0  0  0  0  0  0  0
   12.3920   23.9275    0.4785 C   0  0  0  0  0  0  0  0  0  0  0  0
   13.9917   25.1170   -3.1952 C   0  0  0  0  0  0  0  0  0  0  0  0
   13.6009   26.2848   -3.7872 C   0  0  0  0  0  0  0  0  0  0  0  0
   14.1645   26.6232   -4.9930 C   0  0  0  0  0  0  0  0  0  0  0  0
   15.1036   25.8123   -5.6024 C   0  0  0  0  0  0  0  0  0  0  0  0
   15.5120   24.6217   -5.0138 C   0  0  0  0  0  0  0  0  0  0  0  0
   14.9405   24.2898   -3.8026 C   0  0  0  0  0  0  0  0  0  0  0  0
   15.6565   26.2153   -6.8575 C   0  0  0  0  0  0  0  0  0  0  0  0
   16.1101   26.5326   -7.8786 N   0  0  0  0  0  0  0  0  0  0  0  0
   10.1187   23.8216   -0.4537 N   0  0  0  0  0  0  0  0  0  0  0  0
    9.4638   24.6032   -0.6311 H   0  0  0  0  0  0  0  0  0  0  0  0
    9.7031   22.5025   -0.0940 C   0  0  0  0  0  0  0  0  0  0  0  0
    7.6527   21.8724    5.0630 F   0  0  0  0  0  0  0  0  0  0  0  0
    8.1728   22.0130    3.8140 C   0  0  0  0  0  0  0  0  0  0  0  0
    9.4214   21.5343    3.5031 C   0  0  0  0  0  0  0  0  0  0  0  0
    9.9461   21.6853    2.2131 C   0  0  0  0  0  0  0  0  0  0  0  0
    9.1993   22.3179    1.2585 C   0  0  0  0  0  0  0  0  0  0  0  0
    7.9524   22.7866    1.5987 C   0  0  0  0  0  0  0  0  0  0  0  0
    7.4300   22.6464    2.8499 C   0  0  0  0  0  0  0  0  0  0  0  0
 21 22  1  0  0  0
 22 23  2  0  0  0
 23 24  1  0  0  0
 24 25  2  0  0  0
 25 20  1  0  0  0
 20 18  1  0  0  0
 18  1  1  0  0  0
  1  2  1  0  0  0
  2  3  2  0  0  0
  3 10  1  0  0  0
 10 11  2  0  0  0
 11 12  1  0  0  0
 12 13  2  0  0  0
 13 14  1  0  0  0
 14 15  2  0  0  0
 13 16  1  0  0  0
 16 17  3  0  0  0
  3  4  1  0  0  0
  4  5  1  0  0  0
  5  6  2  0  0  0
  6  7  1  0  0  0
  7  8  2  0  0  0
  8  9  1  0  0  0
 25 26  1  0  0  0
 26 27  2  0  0  0
 27 22  1  0  0  0
  9  1  2  0  0  0
 15 10  1  0  0  0
  8  4  1  0  0  0
 18 19  1  0  0  0
M  END
> <minimizedAffinity>
-8.89972

> <CNNscore>
0.6859076619

> <CNNaffinity>
7.2135038376

> <CNN_VS>
4.9477977753

> <CNNaffinity_variance>
0.1579050720

$$$$
[H]c1nc2c([H])c(N([H])C([H])([H])c3c([H])c([H])c(F)c([H])c3[H])c([H])c(-c3c([H])c([H])c(C#N)c([H])c3[H])n2n1


 27 30  0  0  0  0  0  0  0  0999 V2000
   10.4883   22.7967   -0.0027 C   0  0  0  0  0  0  0  0  0  0  0  0
   11.1534   23.5976   -0.9343 C   0  0  0  0  0  0  0  0  0  0  0  0
   12.5211   23.5329   -1.1087 C   0  0  0  0  0  0  0  0  0  0  0  0
   13.2219   22.6745   -0.3582 N   0  0  0  0  0  0  0  0  0  0  0  0
   14.5286   22.4497   -0.3587 N   0  0  0  0  0  0  0  0  0  0  0  0
   14.8333   21.5033    0.5505 C   0  0  0  0  0  0  0  0  0  0  0  0
   13.6586   21.1580    1.1079 N   0  0  0  0  0  0  0  0  0  0  0  0
   12.6524   21.8669    0.5634 C   0  0  0  0  0  0  0  0  0  0  0  0
   11.2839   21.9399    0.7293 C   0  0  0  0  0  0  0  0  0  0  0  0
   13.1836   24.3779   -2.0845 C   0  0  0  0  0  0  0  0  0  0  0  0
   14.3445   23.9792   -2.6849 C   0  0  0  0  0  0  0  0  0  0  0  0
   14.9256   24.8217   -3.6007 C   0  0  0  0  0  0  0  0  0  0  0  0
   14.3610   26.0436   -3.9157 C   0  0  0  0  0  0  0  0  0  0  0  0
   13.1809   26.4638   -3.3144 C   0  0  0  0  0  0  0  0  0  0  0  0
   12.6043   25.6111   -2.3957 C   0  0  0  0  0  0  0  0  0  0  0  0
   15.0103   26.8793   -4.8766 C   0  0  0  0  0  0  0  0  0  0  0  0
   15.5315   27.5669   -5.6542 N   0  0  0  0  0  0  0  0  0  0  0  0
    9.0784   22.8720    0.1681 N   0  0  0  0  0  0  0  0  0  0  0  0
    8.5010   23.1886   -0.6304 H   0  0  0  0  0  0  0  0  0  0  0  0
    8.5413   22.4996    1.4389 C   0  0  0  0  0  0  0  0  0  0  0  0
    8.7937   26.4041    5.4248 F   0  0  0  0  0  0  0  0  0  0  0  0
    8.7416   25.4362    4.4705 C   0  0  0  0  0  0  0  0  0  0  0  0
    9.1938   24.1640    4.7192 C   0  0  0  0  0  0  0  0  0  0  0  0
    9.1347   23.1759    3.7281 C   0  0  0  0  0  0  0  0  0  0  0  0
    8.6193   23.4906    2.5015 C   0  0  0  0  0  0  0  0  0  0  0  0
    8.1739   24.7726    2.2815 C   0  0  0  0  0  0  0  0  0  0  0  0
    8.2256   25.7434    3.2369 C   0  0  0  0  0  0  0  0  0  0  0  0
 21 22  1  0  0  0
 22 23  2  0  0  0
 23 24  1  0  0  0
 24 25  2  0  0  0
 25 20  1  0  0  0
 20 18  1  0  0  0
 18  1  1  0  0  0
  1  2  1  0  0  0
  2  3  2  0  0  0
  3 10  1  0  0  0
 10 11  2  0  0  0
 11 12  1  0  0  0
 12 13  2  0  0  0
 13 14  1  0  0  0
 14 15  2  0  0  0
 13 16  1  0  0  0
 16 17  3  0  0  0
  3  4  1  0  0  0
  4  5  1  0  0  0
  5  6  2  0  0  0
  6  7  1  0  0  0
  7  8  2  0  0  0
  8  9  1  0  0  0
 25 26  1  0  0  0
 26 27  2  0  0  0
 27 22  1  0  0  0
  9  1  2  0  0  0
 15 10  1  0  0  0
  8  4  1  0  0  0
 18 19  1  0  0  0
M  END
> <minimizedAffinity>
-9.09535

> <CNNscore>
0.5828062296

> <CNNaffinity>
7.0356216431

> <CNN_VS>
4.1004042625

> <CNNaffinity_variance>
0.2096915245

$$$$
[H]c1nc2c([H])c(N([H])C([H])([H])c3c([H])c([H])c(F)c([H])c3[H])c([H])c(-c3c([H])c([H])c(C#N)c([H])c3[H])n2n1


 27 30  0  0  0  0  0  0  0  0999 V2000
   10.6152   23.0120    0.4745 C   0  0  0  0  0  0  0  0  0  0  0  0
   11.2225   23.7515   -0.5432 C   0  0  0  0  0  0  0  0  0  0  0  0
   12.5529   23.5864   -0.8720 C   0  0  0  0  0  0  0  0  0  0  0  0
   13.2739   22.6887   -0.1897 N   0  0  0  0  0  0  0  0  0  0  0  0
   14.5527   22.3703   -0.3356 N   0  0  0  0  0  0  0  0  0  0  0  0
   14.8934   21.4154    0.5518 C   0  0  0  0  0  0  0  0  0  0  0  0
   13.7700   21.1625    1.2471 N   0  0  0  0  0  0  0  0  0  0  0  0
   12.7597   21.9354    0.8074 C   0  0  0  0  0  0  0  0  0  0  0  0
   11.4281   22.1089    1.1276 C   0  0  0  0  0  0  0  0  0  0  0  0
   13.1555   24.3696   -1.9343 C   0  0  0  0  0  0  0  0  0  0  0  0
   14.2687   23.9242   -2.5896 C   0  0  0  0  0  0  0  0  0  0  0  0
   14.7943   24.7092   -3.5865 C   0  0  0  0  0  0  0  0  0  0  0  0
   14.2216   25.9201   -3.9277 C   0  0  0  0  0  0  0  0  0  0  0  0
   13.0894   26.3874   -3.2713 C   0  0  0  0  0  0  0  0  0  0  0  0
   12.5684   25.5923   -2.2713 C   0  0  0  0  0  0  0  0  0  0  0  0
   14.8119   26.6951   -4.9737 C   0  0  0  0  0  0  0  0  0  0  0  0
   15.2916   27.3337   -5.8170 N   0  0  0  0  0  0  0  0  0  0  0  0
    9.2434   23.1908    0.8044 N   0  0  0  0  0  0  0  0  0  0  0  0
    8.8375   24.1398    0.7285 H   0  0  0  0  0  0  0  0  0  0  0  0
    8.5035   22.0408    1.2195 C   0  0  0  0  0  0  0  0  0  0  0  0
    5.8684   19.1838   -2.7917 F   0  0  0  0  0  0  0  0  0  0  0  0
    6.4883   19.8912   -1.8091 C   0  0  0  0  0  0  0  0  0  0  0  0
    5.8113   20.8291   -1.0696 C   0  0  0  0  0  0  0  0  0  0  0  0
    6.4609   21.5512   -0.0602 C   0  0  0  0  0  0  0  0  0  0  0  0
    7.7847   21.3129    0.1848 C   0  0  0  0  0  0  0  0  0  0  0  0
    8.4366   20.3677   -0.5715 C   0  0  0  0  0  0  0  0  0  0  0  0
    7.8166   19.6581   -1.5564 C   0  0  0  0  0  0  0  0  0  0  0  0
 21 22  1  0  0  0
 22 23  2  0  0  0
 23 24  1  0  0  0
 24 25  2  0  0  0
 25 20  1  0  0  0
 20 18  1  0  0  0
 18  1  1  0  0  0
  1  2  1  0  0  0
  2  3  2  0  0  0
  3 10  1  0  0  0
 10 11  2  0  0  0
 11 12  1  0  0  0
 12 13  2  0  0  0
 13 14  1  0  0  0
 14 15  2  0  0  0
 13 16  1  0  0  0
 16 17  3  0  0  0
  3  4  1  0  0  0
  4  5  1  0  0  0
  5  6  2  0  0  0
  6  7  1  0  0  0
  7  8  2  0  0  0
  8  9  1  0  0  0
 25 26  1  0  0  0
 26 27  2  0  0  0
 27 22  1  0  0  0
  9  1  2  0  0  0
 15 10  1  0  0  0
  8  4  1  0  0  0
 18 19  1  0  0  0
M  END
> <minimizedAffinity>
-9.13080

> <CNNscore>
0.4555844367

> <CNNaffinity>
7.0602951050

> <CNN_VS>
3.2165606022

> <CNNaffinity_variance>
0.4504335523

$$$$
[H]c1nc2c([H])c(N([H])C([H])([H])c3c([H])c([H])c(F)c([H])c3[H])c([H])c(-c3c([H])c([H])c(C#N)c([H])c3[H])n2n1


 27 30  0  0  0  0  0  0  0  0999 V2000
   12.8965   23.4775   -0.0577 C   0  0  0  0  0  0  0  0  0  0  0  0
   13.1709   23.8750   -1.3685 C   0  0  0  0  0  0  0  0  0  0  0  0
   14.4095   24.3570   -1.7414 C   0  0  0  0  0  0  0  0  0  0  0  0
   15.3691   24.4422   -0.8125 N   0  0  0  0  0  0  0  0  0  0  0  0
   16.6166   24.8708   -0.9474 N   0  0  0  0  0  0  0  0  0  0  0  0
   17.2596   24.7954    0.2342 C   0  0  0  0  0  0  0  0  0  0  0  0
   16.3538   24.3029    1.0983 N   0  0  0  0  0  0  0  0  0  0  0  0
   15.1822   24.0779    0.4753 C   0  0  0  0  0  0  0  0  0  0  0  0
   13.9396   23.5973    0.8371 C   0  0  0  0  0  0  0  0  0  0  0  0
   14.6642   24.7623   -3.1111 C   0  0  0  0  0  0  0  0  0  0  0  0
   14.2154   25.9637   -3.5824 C   0  0  0  0  0  0  0  0  0  0  0  0
   14.4870   26.2927   -4.8878 C   0  0  0  0  0  0  0  0  0  0  0  0
   15.1949   25.4397   -5.7137 C   0  0  0  0  0  0  0  0  0  0  0  0
   15.6583   24.2145   -5.2501 C   0  0  0  0  0  0  0  0  0  0  0  0
   15.3807   23.8923   -3.9375 C   0  0  0  0  0  0  0  0  0  0  0  0
   15.4481   25.8349   -7.0639 C   0  0  0  0  0  0  0  0  0  0  0  0
   15.6436   26.1602   -8.1617 N   0  0  0  0  0  0  0  0  0  0  0  0
   11.6164   22.9823    0.3149 N   0  0  0  0  0  0  0  0  0  0  0  0
   11.4931   22.6036    1.2702 H   0  0  0  0  0  0  0  0  0  0  0  0
   10.5709   23.0421   -0.6575 C   0  0  0  0  0  0  0  0  0  0  0  0
    6.2741   19.5437    0.0457 F   0  0  0  0  0  0  0  0  0  0  0  0
    7.3324   20.3780   -0.1394 C   0  0  0  0  0  0  0  0  0  0  0  0
    8.4464   19.9743   -0.8329 C   0  0  0  0  0  0  0  0  0  0  0  0
    9.5298   20.8429   -1.0168 C   0  0  0  0  0  0  0  0  0  0  0  0
    9.4690   22.1057   -0.4964 C   0  0  0  0  0  0  0  0  0  0  0  0
    8.3407   22.4821    0.1932 C   0  0  0  0  0  0  0  0  0  0  0  0
    7.2795   21.6471    0.3794 C   0  0  0  0  0  0  0  0  0  0  0  0
 21 22  1  0  0  0
 22 23  2  0  0  0
 23 24  1  0  0  0
 24 25  2  0  0  0
 25 20  1  0  0  0
 20 18  1  0  0  0
 18  1  1  0  0  0
  1  2  1  0  0  0
  2  3  2  0  0  0
  3 10  1  0  0  0
 10 11  2  0  0  0
 11 12  1  0  0  0
 12 13  2  0  0  0
 13 14  1  0  0  0
 14 15  2  0  0  0
 13 16  1  0  0  0
 16 17  3  0  0  0
  3  4  1  0  0  0
  4  5  1  0  0  0
  5  6  2  0  0  0
  6  7  1  0  0  0
  7  8  2  0  0  0
  8  9  1  0  0  0
 25 26  1  0  0  0
 26 27  2  0  0  0
 27 22  1  0  0  0
  9  1  2  0  0  0
 15 10  1  0  0  0
  8  4  1  0  0  0
 18 19  1  0  0  0
M  END
> <minimizedAffinity>
-6.26978

> <CNNscore>
0.4208326638

> <CNNaffinity>
6.8683762550

> <CNN_VS>
2.8904371262

> <CNNaffinity_variance>
0.1984607279

$$$$
[H]c1nc2c([H])c(N([H])C([H])([H])c3c([H])c([H])c(F)c([H])c3[H])c([H])c(-c3c([H])c([H])c(C#N)c([H])c3[H])n2n1


 27 30  0  0  0  0  0  0  0  0999 V2000
   14.3563   22.0940   -2.9720 C   0  0  0  0  0  0  0  0  0  0  0  0
   14.2687   23.2030   -2.1271 C   0  0  0  0  0  0  0  0  0  0  0  0
   13.5844   23.1566   -0.9292 C   0  0  0  0  0  0  0  0  0  0  0  0
   12.9904   22.0105   -0.5758 N   0  0  0  0  0  0  0  0  0  0  0  0
   12.2884   21.7443    0.5171 N   0  0  0  0  0  0  0  0  0  0  0  0
   11.8614   20.4667    0.4901 C   0  0  0  0  0  0  0  0  0  0  0  0
   12.3311   19.9618   -0.6649 N   0  0  0  0  0  0  0  0  0  0  0  0
   13.0294   20.8951   -1.3376 C   0  0  0  0  0  0  0  0  0  0  0  0
   13.7167   20.9530   -2.5335 C   0  0  0  0  0  0  0  0  0  0  0  0
   13.5111   24.3255   -0.0729 C   0  0  0  0  0  0  0  0  0  0  0  0
   12.3185   24.9497    0.1619 C   0  0  0  0  0  0  0  0  0  0  0  0
   12.3116   26.0519    0.9813 C   0  0  0  0  0  0  0  0  0  0  0  0
   13.4736   26.5273    1.5596 C   0  0  0  0  0  0  0  0  0  0  0  0
   14.6944   25.9041    1.3311 C   0  0  0  0  0  0  0  0  0  0  0  0
   14.6918   24.7977    0.5067 C   0  0  0  0  0  0  0  0  0  0  0  0
   13.4061   27.6787    2.4040 C   0  0  0  0  0  0  0  0  0  0  0  0
   13.3602   28.6106    3.0958 N   0  0  0  0  0  0  0  0  0  0  0  0
   15.0643   22.1537   -4.2039 N   0  0  0  0  0  0  0  0  0  0  0  0
   14.7169   21.5912   -5.0002 H   0  0  0  0  0  0  0  0  0  0  0  0
   16.2175   22.9953   -4.2685 C   0  0  0  0  0  0  0  0  0  0  0  0
   15.2633   28.4698   -4.8301 F   0  0  0  0  0  0  0  0  0  0  0  0
   15.5050   27.1407   -4.6700 C   0  0  0  0  0  0  0  0  0  0  0  0
   16.1057   26.6565   -3.5345 C   0  0  0  0  0  0  0  0  0  0  0  0
   16.3492   25.2856   -3.3815 C   0  0  0  0  0  0  0  0  0  0  0  0
   15.9813   24.4267   -4.3796 C   0  0  0  0  0  0  0  0  0  0  0  0
   15.3814   24.9403   -5.5051 C   0  0  0  0  0  0  0  0  0  0  0  0
   15.1387   26.2718   -5.6666 C   0  0  0  0  0  0  0  0  0  0  0  0
 21 22  1  0  0  0
 22 23  2  0  0  0
 23 24  1  0  0  0
 24 25  2  0  0  0
 25 20  1  0  0  0
 20 18  1  0  0  0
 18  1  1  0  0  0
  1  2  1  0  0  0
  2  3  2  0  0  0
  3 10  1  0  0  0
 10 11  2  0  0  0
 11 12  1  0  0  0
 12 13  2  0  0  0
 13 14  1  0  0  0
 14 15  2  0  0  0
 13 16  1  0  0  0
 16 17  3  0  0  0
  3  4  1  0  0  0
  4  5  1  0  0  0
  5  6  2  0  0  0
  6  7  1  0  0  0
  7  8  2  0  0  0
  8  9  1  0  0  0
 25 26  1  0  0  0
 26 27  2  0  0  0
 27 22  1  0  0  0
  9  1  2  0  0  0
 15 10  1  0  0  0
  8  4  1  0  0  0
 18 19  1  0  0  0
M  END
> <minimizedAffinity>
3.30019

> <CNNscore>
0.4122923017

> <CNNaffinity>
6.9081749916

> <CNN_VS>
2.8481874466

> <CNNaffinity_variance>
0.4683624208

$$$$
[H]c1nc2c([H])c(N([H])C([H])([H])c3c([H])c([H])c(F)c([H])c3[H])c([H])c(-c3c([H])c([H])c(C#N)c([H])c3[H])n2n1


 27 30  0  0  0  0  0  0  0  0999 V2000
   10.5347   21.6117    0.5394 C   0  0  0  0  0  0  0  0  0  0  0  0
   11.3259   22.3432   -0.3495 C   0  0  0  0  0  0  0  0  0  0  0  0
   11.5914   23.6841   -0.1576 C   0  0  0  0  0  0  0  0  0  0  0  0
   11.0707   24.2924    0.9148 N   0  0  0  0  0  0  0  0  0  0  0  0
   11.1945   25.5578    1.2907 N   0  0  0  0  0  0  0  0  0  0  0  0
   10.5122   25.7675    2.4334 C   0  0  0  0  0  0  0  0  0  0  0  0
    9.9654   24.5776    2.7415 N   0  0  0  0  0  0  0  0  0  0  0  0
   10.2962   23.6543    1.8199 C   0  0  0  0  0  0  0  0  0  0  0  0
   10.0374   22.3134    1.6179 C   0  0  0  0  0  0  0  0  0  0  0  0
   12.4171   24.4172   -1.0988 C   0  0  0  0  0  0  0  0  0  0  0  0
   13.7084   24.7434   -0.7937 C   0  0  0  0  0  0  0  0  0  0  0  0
   14.4410   25.4383   -1.7246 C   0  0  0  0  0  0  0  0  0  0  0  0
   13.8981   25.8040   -2.9422 C   0  0  0  0  0  0  0  0  0  0  0  0
   12.5867   25.4800   -3.2680 C   0  0  0  0  0  0  0  0  0  0  0  0
   11.8583   24.7820   -2.3268 C   0  0  0  0  0  0  0  0  0  0  0  0
   14.7079   26.5264   -3.8725 C   0  0  0  0  0  0  0  0  0  0  0  0
   15.3598   27.1093   -4.6369 N   0  0  0  0  0  0  0  0  0  0  0  0
   10.2680   20.2303    0.3313 N   0  0  0  0  0  0  0  0  0  0  0  0
    9.3019   19.8876    0.4738 H   0  0  0  0  0  0  0  0  0  0  0  0
   11.3568   19.3952   -0.0681 C   0  0  0  0  0  0  0  0  0  0  0  0
   16.0396   21.9375   -1.7425 F   0  0  0  0  0  0  0  0  0  0  0  0
   14.8883   21.3241   -1.3570 C   0  0  0  0  0  0  0  0  0  0  0  0
   13.7777   21.3191   -2.1641 C   0  0  0  0  0  0  0  0  0  0  0  0
   12.5979   20.6840   -1.7558 C   0  0  0  0  0  0  0  0  0  0  0  0
   12.5605   20.0642   -0.5377 C   0  0  0  0  0  0  0  0  0  0  0  0
   13.6879   20.0854    0.2489 C   0  0  0  0  0  0  0  0  0  0  0  0
   14.8422   20.6996   -0.1362 C   0  0  0  0  0  0  0  0  0  0  0  0
 21 22  1  0  0  0
 22 23  2  0  0  0
 23 24  1  0  0  0
 24 25  2  0  0  0
 25 20  1  0  0  0
 20 18  1  0  0  0
 18  1  1  0  0  0
  1  2  1  0  0  0
  2  3  2  0  0  0
  3 10  1  0  0  0
 10 11  2  0  0  0
 11 12  1  0  0  0
 12 13  2  0  0  0
 13 14  1  0  0  0
 14 15  2  0  0  0
 13 16  1  0  0  0
 16 17  3  0  0  0
  3  4  1  0  0  0
  4  5  1  0  0  0
  5  6  2  0  0  0
  6  7  1  0  0  0
  7  8  2  0  0  0
  8  9  1  0  0  0
 25 26  1  0  0  0
 26 27  2  0  0  0
 27 22  1  0  0  0
  9  1  2  0  0  0
 15 10  1  0  0  0
  8  4  1  0  0  0
 18 19  1  0  0  0
M  END
> <minimizedAffinity>
0.59795

> <CNNscore>
0.4099886417

> <CNNaffinity>
6.7567772865

> <CNN_VS>
2.7702019215

> <CNNaffinity_variance>
0.7395718694

$$$$
[H]c1nc(OC([H])([H])[H])c([H])c(N2C(=O)N(c3c([H])c([H])c(-c4c([H])c([H])c(-c5nn([H])c([H])c5[H])c([H])c4[H])c([H])c3[H])C(=O)C23C([H])([H])C([H])([H])N(C([H])([H])c2nc([H])c([H])c([H])c2C([H])([H])[H])C([H])([H])C3([H])[H])n1


 46 52  0  0  0  0  0  0  0  0999 V2000
   13.3299   23.7645   -1.2284 N   0  0  0  0  0  0  0  0  0  0  0  0
   14.0965   24.4546   -2.2967 C   0  0  0  0  0  0  0  0  0  0  0  0
   15.1706   24.0974   -2.7330 O   0  0  0  0  0  0  0  0  0  0  0  0
   13.3179   25.5787   -2.6398 N   0  0  0  0  0  0  0  0  0  0  0  0
   12.1713   25.5782   -1.8777 C   0  0  0  0  0  0  0  0  0  0  0  0
   11.1338   26.2759   -2.1397 O   0  0  0  0  0  0  0  0  0  0  0  0
   12.3882   24.6112   -0.7100 C   0  0  0  0  0  0  0  0  0  0  0  0
   11.0043   23.9397   -0.5898 C   0  0  0  0  0  0  0  0  0  0  0  0
   11.0231   23.2174    0.6852 C   0  0  0  0  0  0  0  0  0  0  0  0
   10.9925   24.2428    1.7954 N   0  0  0  0  0  0  0  0  0  0  0  0
   12.2763   24.7627    1.8296 C   0  0  0  0  0  0  0  0  0  0  0  0
   12.6922   25.3868    0.5003 C   0  0  0  0  0  0  0  0  0  0  0  0
   12.9672   20.0745   -0.9050 C   0  0  0  0  0  0  0  0  0  0  0  0
   12.7269   21.4439   -0.9459 C   0  0  0  0  0  0  0  0  0  0  0  0
   13.6994   22.4259   -1.0342 C   0  0  0  0  0  0  0  0  0  0  0  0
   14.9849   21.9919   -1.0865 N   0  0  0  0  0  0  0  0  0  0  0  0
   15.2881   20.6657   -1.0494 C   0  0  0  0  0  0  0  0  0  0  0  0
   14.2694   19.6972   -0.9604 N   0  0  0  0  0  0  0  0  0  0  0  0
   10.8173   19.0679   -0.0607 C   0  0  0  0  0  0  0  0  0  0  0  0
   11.9648   19.2623   -0.8116 O   0  0  0  0  0  0  0  0  0  0  0  0
   13.7667   26.6182   -3.5174 C   0  0  0  0  0  0  0  0  0  0  0  0
   14.4849   27.6816   -3.1607 C   0  0  0  0  0  0  0  0  0  0  0  0
   15.0050   28.5126   -4.1473 C   0  0  0  0  0  0  0  0  0  0  0  0
   14.7972   28.2683   -5.4334 C   0  0  0  0  0  0  0  0  0  0  0  0
   13.9932   27.1315   -5.8257 C   0  0  0  0  0  0  0  0  0  0  0  0
   13.5175   26.3622   -4.8574 C   0  0  0  0  0  0  0  0  0  0  0  0
   15.7253   28.6582   -6.4798 C   0  0  0  0  0  0  0  0  0  0  0  0
   16.2868   27.6265   -7.2489 C   0  0  0  0  0  0  0  0  0  0  0  0
   17.1339   27.8369   -8.2947 C   0  0  0  0  0  0  0  0  0  0  0  0
   17.4823   29.1428   -8.6325 C   0  0  0  0  0  0  0  0  0  0  0  0
   16.9521   30.1774   -7.8874 C   0  0  0  0  0  0  0  0  0  0  0  0
   16.0665   29.9755   -6.8094 C   0  0  0  0  0  0  0  0  0  0  0  0
   18.2666   29.3184   -9.8480 C   0  0  0  0  0  0  0  0  0  0  0  0
   17.8029   29.5169  -11.1167 C   0  0  0  0  0  0  0  0  0  0  0  0
   18.9319   29.7145  -11.8823 C   0  0  0  0  0  0  0  0  0  0  0  0
   19.9797   29.6244  -11.0970 N   0  0  0  0  0  0  0  0  0  0  0  0
   19.6220   29.3876   -9.8214 N   0  0  0  0  0  0  0  0  0  0  0  0
   21.0148   29.6538  -11.4353 H   0  0  0  0  0  0  0  0  0  0  0  0
   10.1233   23.8355    2.6846 C   0  0  0  0  0  0  0  0  0  0  0  0
    8.7124   23.8694    2.9862 C   0  0  0  0  0  0  0  0  0  0  0  0
    7.8978   24.7715    3.4257 N   0  0  0  0  0  0  0  0  0  0  0  0
    6.6764   24.5105    3.9867 C   0  0  0  0  0  0  0  0  0  0  0  0
    6.1857   23.2347    4.1327 C   0  0  0  0  0  0  0  0  0  0  0  0
    7.0414   22.2014    3.6634 C   0  0  0  0  0  0  0  0  0  0  0  0
    8.2438   22.4754    3.1162 C   0  0  0  0  0  0  0  0  0  0  0  0
    9.1203   21.5398    2.4038 C   0  0  0  0  0  0  0  0  0  0  0  0
 19 20  1  0  0  0
 20 13  1  0  0  0
 13 14  2  0  0  0
 14 15  1  0  0  0
 15 16  2  0  0  0
 16 17  1  0  0  0
 17 18  2  0  0  0
 15  1  1  0  0  0
  1  2  1  0  0  0
  2  3  2  0  0  0
  2  4  1  0  0  0
  4  5  1  0  0  0
  5  6  2  0  0  0
  5  7  1  0  0  0
  7  8  1  0  0  0
  8  9  1  0  0  0
  9 10  1  0  0  0
 10 39  1  0  0  0
 39 40  1  0  0  0
 40 41  2  0  0  0
 41 42  1  0  0  0
 42 43  2  0  0  0
 43 44  1  0  0  0
 44 45  2  0  0  0
 45 46  1  0  0  0
 10 11  1  0  0  0
 11 12  1  0  0  0
  4 21  1  0  0  0
 21 22  2  0  0  0
 22 23  1  0  0  0
 23 24  2  0  0  0
 24 25  1  0  0  0
 25 26  2  0  0  0
 24 27  1  0  0  0
 27 28  2  0  0  0
 28 29  1  0  0  0
 29 30  2  0  0  0
 30 31  1  0  0  0
 31 32  2  0  0  0
 30 33  1  0  0  0
 33 34  1  0  0  0
 34 35  2  0  0  0
 35 36  1  0  0  0
 36 37  1  0  0  0
 18 13  1  0  0  0
  7  1  1  0  0  0
 12  7  1  0  0  0
 26 21  1  0  0  0
 32 27  1  0  0  0
 37 33  2  0  0  0
 45 40  1  0  0  0
 36 38  1  0  0  0
M  END
> <minimizedAffinity>
45.82917

> <CNNscore>
0.3974616230

> <CNNaffinity>
7.1756210327

> <CNN_VS>
2.8520340919

> <CNNaffinity_variance>
0.3694017529

$$$$
[H]c1nc(OC([H])([H])[H])c([H])c(N2C(=O)N(c3c([H])c([H])c(-c4c([H])c([H])c(-c5nn([H])c([H])c5[H])c([H])c4[H])c([H])c3[H])C(=O)C23C([H])([H])C([H])([H])N(C([H])([H])c2nc([H])c([H])c([H])c2C([H])([H])[H])C([H])([H])C3([H])[H])n1


 46 52  0  0  0  0  0  0  0  0999 V2000
   13.4789   23.2674   -1.7679 N   0  0  0  0  0  0  0  0  0  0  0  0
   13.1342   22.1609   -0.8395 C   0  0  0  0  0  0  0  0  0  0  0  0
   13.1529   20.9801   -1.1165 O   0  0  0  0  0  0  0  0  0  0  0  0
   12.7764   22.7933    0.3687 N   0  0  0  0  0  0  0  0  0  0  0  0
   12.9055   24.1555    0.2161 C   0  0  0  0  0  0  0  0  0  0  0  0
   12.9462   24.9867    1.1852 O   0  0  0  0  0  0  0  0  0  0  0  0
   12.9898   24.4504   -1.2845 C   0  0  0  0  0  0  0  0  0  0  0  0
   14.0420   25.5779   -1.3301 C   0  0  0  0  0  0  0  0  0  0  0  0
   13.9733   26.1303   -2.6857 C   0  0  0  0  0  0  0  0  0  0  0  0
   12.6703   26.8866   -2.8089 N   0  0  0  0  0  0  0  0  0  0  0  0
   11.7029   25.9026   -2.9338 C   0  0  0  0  0  0  0  0  0  0  0  0
   11.6851   24.9433   -1.7467 C   0  0  0  0  0  0  0  0  0  0  0  0
   15.6393   23.5659   -4.7839 C   0  0  0  0  0  0  0  0  0  0  0  0
   14.7461   23.8178   -3.7479 C   0  0  0  0  0  0  0  0  0  0  0  0
   14.2485   22.8690   -2.8702 C   0  0  0  0  0  0  0  0  0  0  0  0
   14.6849   21.5965   -3.0544 N   0  0  0  0  0  0  0  0  0  0  0  0
   15.5578   21.2829   -4.0502 C   0  0  0  0  0  0  0  0  0  0  0  0
   16.0420   22.2775   -4.9221 N   0  0  0  0  0  0  0  0  0  0  0  0
   15.5165   25.6954   -6.1248 C   0  0  0  0  0  0  0  0  0  0  0  0
   16.0184   24.5447   -5.5397 O   0  0  0  0  0  0  0  0  0  0  0  0
   12.2103   22.1034    1.4893 C   0  0  0  0  0  0  0  0  0  0  0  0
   12.1212   22.5773    2.7308 C   0  0  0  0  0  0  0  0  0  0  0  0
   11.3834   21.8726    3.6760 C   0  0  0  0  0  0  0  0  0  0  0  0
   10.7707   20.7389    3.3659 C   0  0  0  0  0  0  0  0  0  0  0  0
   10.8885   20.2043    2.0269 C   0  0  0  0  0  0  0  0  0  0  0  0
   11.5974   20.9054    1.1542 C   0  0  0  0  0  0  0  0  0  0  0  0
    9.5611   20.2793    4.0247 C   0  0  0  0  0  0  0  0  0  0  0  0
    8.3388   20.6823    3.4638 C   0  0  0  0  0  0  0  0  0  0  0  0
    7.1230   20.2932    3.9389 C   0  0  0  0  0  0  0  0  0  0  0  0
    7.0663   19.4535    5.0490 C   0  0  0  0  0  0  0  0  0  0  0  0
    8.2530   19.0483    5.6271 C   0  0  0  0  0  0  0  0  0  0  0  0
    9.5184   19.4345    5.1404 C   0  0  0  0  0  0  0  0  0  0  0  0
    5.7516   18.9474    5.4216 C   0  0  0  0  0  0  0  0  0  0  0  0
    5.0827   17.8880    4.8789 C   0  0  0  0  0  0  0  0  0  0  0  0
    3.9363   17.7652    5.6342 C   0  0  0  0  0  0  0  0  0  0  0  0
    3.9463   18.7063    6.5491 N   0  0  0  0  0  0  0  0  0  0  0  0
    5.0557   19.4635    6.4666 N   0  0  0  0  0  0  0  0  0  0  0  0
    3.1291   18.9106    7.2399 H   0  0  0  0  0  0  0  0  0  0  0  0
   12.9295   28.0251   -3.3994 C   0  0  0  0  0  0  0  0  0  0  0  0
   12.3034   29.2647   -3.7918 C   0  0  0  0  0  0  0  0  0  0  0  0
   12.4525   30.5045   -3.4580 N   0  0  0  0  0  0  0  0  0  0  0  0
   11.5225   31.4859   -3.6737 C   0  0  0  0  0  0  0  0  0  0  0  0
   10.3165   31.2418   -4.2866 C   0  0  0  0  0  0  0  0  0  0  0  0
   10.0999   29.8924   -4.6773 C   0  0  0  0  0  0  0  0  0  0  0  0
   11.0254   28.9363   -4.4541 C   0  0  0  0  0  0  0  0  0  0  0  0
   11.0273   27.5711   -4.9900 C   0  0  0  0  0  0  0  0  0  0  0  0
 19 20  1  0  0  0
 20 13  1  0  0  0
 13 14  2  0  0  0
 14 15  1  0  0  0
 15 16  2  0  0  0
 16 17  1  0  0  0
 17 18  2  0  0  0
 15  1  1  0  0  0
  1  2  1  0  0  0
  2  3  2  0  0  0
  2  4  1  0  0  0
  4  5  1  0  0  0
  5  6  2  0  0  0
  5  7  1  0  0  0
  7  8  1  0  0  0
  8  9  1  0  0  0
  9 10  1  0  0  0
 10 39  1  0  0  0
 39 40  1  0  0  0
 40 41  2  0  0  0
 41 42  1  0  0  0
 42 43  2  0  0  0
 43 44  1  0  0  0
 44 45  2  0  0  0
 45 46  1  0  0  0
 10 11  1  0  0  0
 11 12  1  0  0  0
  4 21  1  0  0  0
 21 22  2  0  0  0
 22 23  1  0  0  0
 23 24  2  0  0  0
 24 25  1  0  0  0
 25 26  2  0  0  0
 24 27  1  0  0  0
 27 28  2  0  0  0
 28 29  1  0  0  0
 29 30  2  0  0  0
 30 31  1  0  0  0
 31 32  2  0  0  0
 30 33  1  0  0  0
 33 34  1  0  0  0
 34 35  2  0  0  0
 35 36  1  0  0  0
 36 37  1  0  0  0
 18 13  1  0  0  0
  7  1  1  0  0  0
 12  7  1  0  0  0
 26 21  1  0  0  0
 32 27  1  0  0  0
 37 33  2  0  0  0
 45 40  1  0  0  0
 36 38  1  0  0  0
M  END
> <minimizedAffinity>
16.21269

> <CNNscore>
0.3966903687

> <CNNaffinity>
7.3010091782

> <CNN_VS>
2.8962399960

> <CNNaffinity_variance>
0.4419243932

$$$$
[H]c1nc(OC([H])([H])[H])c([H])c(N2C(=O)N(c3c([H])c([H])c(-c4c([H])c([H])c(-c5nn([H])c([H])c5[H])c([H])c4[H])c([H])c3[H])C(=O)C23C([H])([H])C([H])([H])N(C([H])([H])c2nc([H])c([H])c([H])c2C([H])([H])[H])C([H])([H])C3([H])[H])n1


 46 52  0  0  0  0  0  0  0  0999 V2000
   13.9960   25.2411   -2.7847 N   0  0  0  0  0  0  0  0  0  0  0  0
   12.6670   24.7032   -2.3981 C   0  0  0  0  0  0  0  0  0  0  0  0
   11.5991   25.1113   -2.8036 O   0  0  0  0  0  0  0  0  0  0  0  0
   12.9420   23.6735   -1.4752 N   0  0  0  0  0  0  0  0  0  0  0  0
   14.3055   23.5657   -1.3182 C   0  0  0  0  0  0  0  0  0  0  0  0
   14.8912   22.5592   -0.7931 O   0  0  0  0  0  0  0  0  0  0  0  0
   14.9416   24.8405   -1.8803 C   0  0  0  0  0  0  0  0  0  0  0  0
   16.2083   24.2895   -2.5675 C   0  0  0  0  0  0  0  0  0  0  0  0
   17.0335   25.4604   -2.8765 C   0  0  0  0  0  0  0  0  0  0  0  0
   17.5719   26.0011   -1.5715 N   0  0  0  0  0  0  0  0  0  0  0  0
   16.4955   26.6505   -0.9890 C   0  0  0  0  0  0  0  0  0  0  0  0
   15.3034   25.7243   -0.7638 C   0  0  0  0  0  0  0  0  0  0  0  0
   14.6829   26.0803   -6.3451 C   0  0  0  0  0  0  0  0  0  0  0  0
   14.7250   25.5308   -5.0680 C   0  0  0  0  0  0  0  0  0  0  0  0
   13.9899   25.9730   -3.9807 C   0  0  0  0  0  0  0  0  0  0  0  0
   13.1659   27.0286   -4.2050 N   0  0  0  0  0  0  0  0  0  0  0  0
   13.0789   27.6128   -5.4310 C   0  0  0  0  0  0  0  0  0  0  0  0
   13.8428   27.1326   -6.5125 N   0  0  0  0  0  0  0  0  0  0  0  0
   16.0003   25.9205   -8.4868 C   0  0  0  0  0  0  0  0  0  0  0  0
   15.4311   25.5761   -7.2720 O   0  0  0  0  0  0  0  0  0  0  0  0
   11.9329   22.9949   -0.7180 C   0  0  0  0  0  0  0  0  0  0  0  0
   10.8963   23.5705   -0.1112 C   0  0  0  0  0  0  0  0  0  0  0  0
    9.8969   22.7705    0.4324 C   0  0  0  0  0  0  0  0  0  0  0  0
    9.9578   21.4484    0.3607 C   0  0  0  0  0  0  0  0  0  0  0  0
   11.0958   20.8172   -0.2711 C   0  0  0  0  0  0  0  0  0  0  0  0
   12.0258   21.6126   -0.7791 C   0  0  0  0  0  0  0  0  0  0  0  0
    8.7829   20.5959    0.3289 C   0  0  0  0  0  0  0  0  0  0  0  0
    8.7691   19.5669   -0.6261 C   0  0  0  0  0  0  0  0  0  0  0  0
    7.7612   18.6585   -0.7457 C   0  0  0  0  0  0  0  0  0  0  0  0
    6.6682   18.7419    0.1140 C   0  0  0  0  0  0  0  0  0  0  0  0
    6.6505   19.7497    1.0576 C   0  0  0  0  0  0  0  0  0  0  0  0
    7.6907   20.6904    1.1998 C   0  0  0  0  0  0  0  0  0  0  0  0
    5.6952   17.6594    0.0440 C   0  0  0  0  0  0  0  0  0  0  0  0
    4.5357   17.5348    0.7541 C   0  0  0  0  0  0  0  0  0  0  0  0
    3.9357   16.3964    0.2605 C   0  0  0  0  0  0  0  0  0  0  0  0
    4.7129   15.8952   -0.6709 N   0  0  0  0  0  0  0  0  0  0  0  0
    5.8152   16.6458   -0.8509 N   0  0  0  0  0  0  0  0  0  0  0  0
    4.5398   14.9492   -1.1827 H   0  0  0  0  0  0  0  0  0  0  0  0
   18.8411   26.2655   -1.7480 C   0  0  0  0  0  0  0  0  0  0  0  0
   19.7425   26.9320   -2.6569 C   0  0  0  0  0  0  0  0  0  0  0  0
   19.5964   27.7591   -3.6394 N   0  0  0  0  0  0  0  0  0  0  0  0
   20.5382   27.9950   -4.6048 C   0  0  0  0  0  0  0  0  0  0  0  0
   21.7600   27.3652   -4.6174 C   0  0  0  0  0  0  0  0  0  0  0  0
   21.9755   26.4443   -3.5564 C   0  0  0  0  0  0  0  0  0  0  0  0
   21.0356   26.2206   -2.6147 C   0  0  0  0  0  0  0  0  0  0  0  0
   21.2035   25.4745   -1.3632 C   0  0  0  0  0  0  0  0  0  0  0  0
 19 20  1  0  0  0
 20 13  1  0  0  0
 13 14  2  0  0  0
 14 15  1  0  0  0
 15 16  2  0  0  0
 16 17  1  0  0  0
 17 18  2  0  0  0
 15  1  1  0  0  0
  1  2  1  0  0  0
  2  3  2  0  0  0
  2  4  1  0  0  0
  4  5  1  0  0  0
  5  6  2  0  0  0
  5  7  1  0  0  0
  7  8  1  0  0  0
  8  9  1  0  0  0
  9 10  1  0  0  0
 10 39  1  0  0  0
 39 40  1  0  0  0
 40 41  2  0  0  0
 41 42  1  0  0  0
 42 43  2  0  0  0
 43 44  1  0  0  0
 44 45  2  0  0  0
 45 46  1  0  0  0
 10 11  1  0  0  0
 11 12  1  0  0  0
  4 21  1  0  0  0
 21 22  2  0  0  0
 22 23  1  0  0  0
 23 24  2  0  0  0
 24 25  1  0  0  0
 25 26  2  0  0  0
 24 27  1  0  0  0
 27 28  2  0  0  0
 28 29  1  0  0  0
 29 30  2  0  0  0
 30 31  1  0  0  0
 31 32  2  0  0  0
 30 33  1  0  0  0
 33 34  1  0  0  0
 34 35  2  0  0  0
 35 36  1  0  0  0
 36 37  1  0  0  0
 18 13  1  0  0  0
  7  1  1  0  0  0
 12  7  1  0  0  0
 26 21  1  0  0  0
 32 27  1  0  0  0
 37 33  2  0  0  0
 45 40  1  0  0  0
 36 38  1  0  0  0
M  END
> <minimizedAffinity>
27.45661

> <CNNscore>
0.3838646412

> <CNNaffinity>
7.5902800560

> <CNN_VS>
2.9136400223

> <CNNaffinity_variance>
0.3941289783

$$$$
[H]c1nc(OC([H])([H])[H])c([H])c(N2C(=O)N(c3c([H])c([H])c(-c4c([H])c([H])c(-c5nn([H])c([H])c5[H])c([H])c4[H])c([H])c3[H])C(=O)C23C([H])([H])C([H])([H])N(C([H])([H])c2nc([H])c([H])c([H])c2C([H])([H])[H])C([H])([H])C3([H])[H])n1


 46 52  0  0  0  0  0  0  0  0999 V2000
    8.2967   21.6634    1.1159 N   0  0  0  0  0  0  0  0  0  0  0  0
    8.9164   22.5405    0.0903 C   0  0  0  0  0  0  0  0  0  0  0  0
    8.8058   22.4042   -1.1100 O   0  0  0  0  0  0  0  0  0  0  0  0
    9.6441   23.5021    0.8206 N   0  0  0  0  0  0  0  0  0  0  0  0
    9.4778   23.2620    2.1661 C   0  0  0  0  0  0  0  0  0  0  0  0
    9.7522   24.1049    3.0859 O   0  0  0  0  0  0  0  0  0  0  0  0
    8.9190   21.8445    2.3210 C   0  0  0  0  0  0  0  0  0  0  0  0
    7.9115   22.0224    3.4759 C   0  0  0  0  0  0  0  0  0  0  0  0
    7.5448   20.6670    3.8952 C   0  0  0  0  0  0  0  0  0  0  0  0
    8.7427   20.0604    4.5897 N   0  0  0  0  0  0  0  0  0  0  0  0
    9.6159   19.7342    3.5646 C   0  0  0  0  0  0  0  0  0  0  0  0
   10.0090   20.9443    2.7214 C   0  0  0  0  0  0  0  0  0  0  0  0
    5.8055   18.9044    0.9287 C   0  0  0  0  0  0  0  0  0  0  0  0
    6.9305   19.6747    1.2038 C   0  0  0  0  0  0  0  0  0  0  0  0
    7.2135   20.9090    0.6429 C   0  0  0  0  0  0  0  0  0  0  0  0
    6.3022   21.3866   -0.2431 N   0  0  0  0  0  0  0  0  0  0  0  0
    5.1810   20.6821   -0.5570 C   0  0  0  0  0  0  0  0  0  0  0  0
    4.9286   19.4299    0.0364 N   0  0  0  0  0  0  0  0  0  0  0  0
    5.8088   17.1808    2.7663 C   0  0  0  0  0  0  0  0  0  0  0  0
    5.6670   17.7606    1.5164 O   0  0  0  0  0  0  0  0  0  0  0  0
   10.5365   24.4480    0.2198 C   0  0  0  0  0  0  0  0  0  0  0  0
   11.2812   25.3386    0.8726 C   0  0  0  0  0  0  0  0  0  0  0  0
   12.2370   26.0682    0.1737 C   0  0  0  0  0  0  0  0  0  0  0  0
   12.4185   25.8963   -1.1279 C   0  0  0  0  0  0  0  0  0  0  0  0
   11.5924   24.9517   -1.8476 C   0  0  0  0  0  0  0  0  0  0  0  0
   10.6950   24.2740   -1.1469 C   0  0  0  0  0  0  0  0  0  0  0  0
   13.6916   26.1132   -1.7917 C   0  0  0  0  0  0  0  0  0  0  0  0
   13.7500   27.1551   -2.7309 C   0  0  0  0  0  0  0  0  0  0  0  0
   14.8832   27.5107   -3.3977 C   0  0  0  0  0  0  0  0  0  0  0  0
   16.0613   26.8081   -3.1544 C   0  0  0  0  0  0  0  0  0  0  0  0
   16.0314   25.7721   -2.2421 C   0  0  0  0  0  0  0  0  0  0  0  0
   14.8689   25.3995   -1.5372 C   0  0  0  0  0  0  0  0  0  0  0  0
   17.2731   27.3245   -3.7775 C   0  0  0  0  0  0  0  0  0  0  0  0
   17.6035   27.3006   -5.1021 C   0  0  0  0  0  0  0  0  0  0  0  0
   18.7947   27.9891   -5.1850 C   0  0  0  0  0  0  0  0  0  0  0  0
   19.1291   28.3753   -3.9761 N   0  0  0  0  0  0  0  0  0  0  0  0
   18.2140   27.9956   -3.0654 N   0  0  0  0  0  0  0  0  0  0  0  0
   20.0653   28.8689   -3.7176 H   0  0  0  0  0  0  0  0  0  0  0  0
    8.3122   19.4715    5.6759 C   0  0  0  0  0  0  0  0  0  0  0  0
    7.8469   18.1950    6.1626 C   0  0  0  0  0  0  0  0  0  0  0  0
    8.3312   16.9968    6.1798 N   0  0  0  0  0  0  0  0  0  0  0  0
    7.5895   15.8600    6.3594 C   0  0  0  0  0  0  0  0  0  0  0  0
    6.2284   15.8859    6.5500 C   0  0  0  0  0  0  0  0  0  0  0  0
    5.6423   17.1808    6.5421 C   0  0  0  0  0  0  0  0  0  0  0  0
    6.3869   18.2910    6.3604 C   0  0  0  0  0  0  0  0  0  0  0  0
    5.9546   19.6805    6.5435 C   0  0  0  0  0  0  0  0  0  0  0  0
 19 20  1  0  0  0
 20 13  1  0  0  0
 13 14  2  0  0  0
 14 15  1  0  0  0
 15 16  2  0  0  0
 16 17  1  0  0  0
 17 18  2  0  0  0
 15  1  1  0  0  0
  1  2  1  0  0  0
  2  3  2  0  0  0
  2  4  1  0  0  0
  4  5  1  0  0  0
  5  6  2  0  0  0
  5  7  1  0  0  0
  7  8  1  0  0  0
  8  9  1  0  0  0
  9 10  1  0  0  0
 10 39  1  0  0  0
 39 40  1  0  0  0
 40 41  2  0  0  0
 41 42  1  0  0  0
 42 43  2  0  0  0
 43 44  1  0  0  0
 44 45  2  0  0  0
 45 46  1  0  0  0
 10 11  1  0  0  0
 11 12  1  0  0  0
  4 21  1  0  0  0
 21 22  2  0  0  0
 22 23  1  0  0  0
 23 24  2  0  0  0
 24 25  1  0  0  0
 25 26  2  0  0  0
 24 27  1  0  0  0
 27 28  2  0  0  0
 28 29  1  0  0  0
 29 30  2  0  0  0
 30 31  1  0  0  0
 31 32  2  0  0  0
 30 33  1  0  0  0
 33 34  1  0  0  0
 34 35  2  0  0  0
 35 36  1  0  0  0
 36 37  1  0  0  0
 18 13  1  0  0  0
  7  1  1  0  0  0
 12  7  1  0  0  0
 26 21  1  0  0  0
 32 27  1  0  0  0
 37 33  2  0  0  0
 45 40  1  0  0  0
 36 38  1  0  0  0
M  END
> <minimizedAffinity>
4.22823

> <CNNscore>
0.3815283477

> <CNNaffinity>
6.5195226669

> <CNN_VS>
2.4873826504

> <CNNaffinity_variance>
0.5417200327

$$$$
[H]c1nc(OC([H])([H])[H])c([H])c(N2C(=O)N(c3c([H])c([H])c(-c4c([H])c([H])c(-c5nn([H])c([H])c5[H])c([H])c4[H])c([H])c3[H])C(=O)C23C([H])([H])C([H])([H])N(C([H])([H])c2nc([H])c([H])c([H])c2C([H])([H])[H])C([H])([H])C3([H])[H])n1


 46 52  0  0  0  0  0  0  0  0999 V2000
   14.3931   25.4921   -2.9500 N   0  0  0  0  0  0  0  0  0  0  0  0
   13.4801   24.6111   -2.1784 C   0  0  0  0  0  0  0  0  0  0  0  0
   12.2713   24.7076   -2.1469 O   0  0  0  0  0  0  0  0  0  0  0  0
   14.3250   23.7013   -1.5106 N   0  0  0  0  0  0  0  0  0  0  0  0
   15.6317   23.9737   -1.8482 C   0  0  0  0  0  0  0  0  0  0  0  0
   16.6059   23.1698   -1.6573 O   0  0  0  0  0  0  0  0  0  0  0  0
   15.6699   25.3715   -2.4729 C   0  0  0  0  0  0  0  0  0  0  0  0
   16.7002   25.1870   -3.6064 C   0  0  0  0  0  0  0  0  0  0  0  0
   17.0261   26.5383   -4.0705 C   0  0  0  0  0  0  0  0  0  0  0  0
   17.8390   27.2127   -2.9890 N   0  0  0  0  0  0  0  0  0  0  0  0
   16.9161   27.5436   -2.0100 C   0  0  0  0  0  0  0  0  0  0  0  0
   16.1680   26.3262   -1.4733 C   0  0  0  0  0  0  0  0  0  0  0  0
   12.2067   27.9846   -4.6410 C   0  0  0  0  0  0  0  0  0  0  0  0
   12.7900   27.1280   -3.7133 C   0  0  0  0  0  0  0  0  0  0  0  0
   13.7677   26.1881   -3.9942 C   0  0  0  0  0  0  0  0  0  0  0  0
   14.1760   26.1176   -5.2872 N   0  0  0  0  0  0  0  0  0  0  0  0
   13.6447   26.9265   -6.2441 C   0  0  0  0  0  0  0  0  0  0  0  0
   12.6522   27.8711   -5.9177 N   0  0  0  0  0  0  0  0  0  0  0  0
   11.1077   30.1659   -4.0229 C   0  0  0  0  0  0  0  0  0  0  0  0
   11.2938   28.8117   -4.2468 O   0  0  0  0  0  0  0  0  0  0  0  0
   13.8686   22.7749   -0.5178 C   0  0  0  0  0  0  0  0  0  0  0  0
   14.4685   22.5210    0.6439 C   0  0  0  0  0  0  0  0  0  0  0  0
   13.8164   21.7352    1.5882 C   0  0  0  0  0  0  0  0  0  0  0  0
   12.6126   21.2328    1.3531 C   0  0  0  0  0  0  0  0  0  0  0  0
   11.9689   21.4808    0.0815 C   0  0  0  0  0  0  0  0  0  0  0  0
   12.6205   22.2357   -0.7909 C   0  0  0  0  0  0  0  0  0  0  0  0
   11.6464   20.9525    2.4001 C   0  0  0  0  0  0  0  0  0  0  0  0
   10.6163   21.8888    2.5825 C   0  0  0  0  0  0  0  0  0  0  0  0
    9.6108   21.7411    3.4893 C   0  0  0  0  0  0  0  0  0  0  0  0
    9.5885   20.6067    4.2977 C   0  0  0  0  0  0  0  0  0  0  0  0
   10.5943   19.6730    4.1465 C   0  0  0  0  0  0  0  0  0  0  0  0
   11.6354   19.8074    3.2056 C   0  0  0  0  0  0  0  0  0  0  0  0
    8.4135   20.4253    5.1403 C   0  0  0  0  0  0  0  0  0  0  0  0
    7.5453   21.3846    5.5761 C   0  0  0  0  0  0  0  0  0  0  0  0
    6.5645   20.6954    6.2566 C   0  0  0  0  0  0  0  0  0  0  0  0
    6.8615   19.4175    6.2192 N   0  0  0  0  0  0  0  0  0  0  0  0
    7.9960   19.1940    5.5308 N   0  0  0  0  0  0  0  0  0  0  0  0
    6.3129   18.6359    6.7436 H   0  0  0  0  0  0  0  0  0  0  0  0
   18.8448   27.8154   -3.5697 C   0  0  0  0  0  0  0  0  0  0  0  0
   20.1960   27.5832   -4.0201 C   0  0  0  0  0  0  0  0  0  0  0  0
   20.7799   27.5647   -5.1731 N   0  0  0  0  0  0  0  0  0  0  0  0
   21.9882   26.9719   -5.4243 C   0  0  0  0  0  0  0  0  0  0  0  0
   22.7158   26.3311   -4.4497 C   0  0  0  0  0  0  0  0  0  0  0  0
   22.1204   26.3226   -3.1591 C   0  0  0  0  0  0  0  0  0  0  0  0
   20.9271   26.9086   -2.9290 C   0  0  0  0  0  0  0  0  0  0  0  0
   20.3079   27.1615   -1.6238 C   0  0  0  0  0  0  0  0  0  0  0  0
 19 20  1  0  0  0
 20 13  1  0  0  0
 13 14  2  0  0  0
 14 15  1  0  0  0
 15 16  2  0  0  0
 16 17  1  0  0  0
 17 18  2  0  0  0
 15  1  1  0  0  0
  1  2  1  0  0  0
  2  3  2  0  0  0
  2  4  1  0  0  0
  4  5  1  0  0  0
  5  6  2  0  0  0
  5  7  1  0  0  0
  7  8  1  0  0  0
  8  9  1  0  0  0
  9 10  1  0  0  0
 10 39  1  0  0  0
 39 40  1  0  0  0
 40 41  2  0  0  0
 41 42  1  0  0  0
 42 43  2  0  0  0
 43 44  1  0  0  0
 44 45  2  0  0  0
 45 46  1  0  0  0
 10 11  1  0  0  0
 11 12  1  0  0  0
  4 21  1  0  0  0
 21 22  2  0  0  0
 22 23  1  0  0  0
 23 24  2  0  0  0
 24 25  1  0  0  0
 25 26  2  0  0  0
 24 27  1  0  0  0
 27 28  2  0  0  0
 28 29  1  0  0  0
 29 30  2  0  0  0
 30 31  1  0  0  0
 31 32  2  0  0  0
 30 33  1  0  0  0
 33 34  1  0  0  0
 34 35  2  0  0  0
 35 36  1  0  0  0
 36 37  1  0  0  0
 18 13  1  0  0  0
  7  1  1  0  0  0
 12  7  1  0  0  0
 26 21  1  0  0  0
 32 27  1  0  0  0
 37 33  2  0  0  0
 45 40  1  0  0  0
 36 38  1  0  0  0
M  END
> <minimizedAffinity>
32.52333

> <CNNscore>
0.3776830733

> <CNNaffinity>
7.5153131485

> <CNN_VS>
2.8384065628

> <CNNaffinity_variance>
0.3771530986

$$$$
[H]c1nc(OC([H])([H])[H])c([H])c(N2C(=O)N(c3c([H])c([H])c(-c4c([H])c([H])c(-c5nn([H])c([H])c5[H])c([H])c4[H])c([H])c3[H])C(=O)C23C([H])([H])C([H])([H])N(C([H])([H])c2nc([H])c([H])c([H])c2C([H])([H])[H])C([H])([H])C3([H])[H])n1


 46 52  0  0  0  0  0  0  0  0999 V2000
   14.1553   24.8232   -3.5656 N   0  0  0  0  0  0  0  0  0  0  0  0
   14.1698   23.4692   -2.9559 C   0  0  0  0  0  0  0  0  0  0  0  0
   14.4142   22.4368   -3.5438 O   0  0  0  0  0  0  0  0  0  0  0  0
   13.8240   23.6715   -1.6042 N   0  0  0  0  0  0  0  0  0  0  0  0
   13.6338   25.0178   -1.3876 C   0  0  0  0  0  0  0  0  0  0  0  0
   13.6031   25.5628   -0.2327 O   0  0  0  0  0  0  0  0  0  0  0  0
   13.4784   25.6923   -2.7539 C   0  0  0  0  0  0  0  0  0  0  0  0
   14.2464   27.0143   -2.5471 C   0  0  0  0  0  0  0  0  0  0  0  0
   13.9031   27.8567   -3.6960 C   0  0  0  0  0  0  0  0  0  0  0  0
   12.4610   28.2822   -3.5401 N   0  0  0  0  0  0  0  0  0  0  0  0
   11.7242   27.1580   -3.8763 C   0  0  0  0  0  0  0  0  0  0  0  0
   12.0532   25.9558   -2.9953 C   0  0  0  0  0  0  0  0  0  0  0  0
   15.8777   26.3834   -6.4729 C   0  0  0  0  0  0  0  0  0  0  0  0
   15.0716   26.1479   -5.3641 C   0  0  0  0  0  0  0  0  0  0  0  0
   14.8613   24.9128   -4.7738 C   0  0  0  0  0  0  0  0  0  0  0  0
   15.5077   23.8614   -5.3397 N   0  0  0  0  0  0  0  0  0  0  0  0
   16.3102   24.0237   -6.4268 C   0  0  0  0  0  0  0  0  0  0  0  0
   16.4993   25.2973   -6.9977 N   0  0  0  0  0  0  0  0  0  0  0  0
   15.7194   28.8964   -6.5587 C   0  0  0  0  0  0  0  0  0  0  0  0
   15.9800   27.5882   -6.9319 O   0  0  0  0  0  0  0  0  0  0  0  0
   13.5551   22.6063   -0.6849 C   0  0  0  0  0  0  0  0  0  0  0  0
   14.3205   22.2579    0.3479 C   0  0  0  0  0  0  0  0  0  0  0  0
   13.8442   21.3247    1.2626 C   0  0  0  0  0  0  0  0  0  0  0  0
   12.6463   20.7745    1.1247 C   0  0  0  0  0  0  0  0  0  0  0  0
   11.8228   21.1271   -0.0111 C   0  0  0  0  0  0  0  0  0  0  0  0
   12.3099   22.0212   -0.8590 C   0  0  0  0  0  0  0  0  0  0  0  0
   11.8481   20.3091    2.2447 C   0  0  0  0  0  0  0  0  0  0  0  0
   10.5101   20.7318    2.2915 C   0  0  0  0  0  0  0  0  0  0  0  0
    9.6257   20.3408    3.2509 C   0  0  0  0  0  0  0  0  0  0  0  0
   10.0549   19.4783    4.2572 C   0  0  0  0  0  0  0  0  0  0  0  0
   11.3686   19.0533    4.2416 C   0  0  0  0  0  0  0  0  0  0  0  0
   12.2921   19.4413    3.2497 C   0  0  0  0  0  0  0  0  0  0  0  0
    9.0347   18.9732    5.1668 C   0  0  0  0  0  0  0  0  0  0  0  0
    8.9096   17.7046    5.6559 C   0  0  0  0  0  0  0  0  0  0  0  0
    7.8510   17.7647    6.5366 C   0  0  0  0  0  0  0  0  0  0  0  0
    7.3927   18.9946    6.5422 N   0  0  0  0  0  0  0  0  0  0  0  0
    8.0976   19.7881    5.7150 N   0  0  0  0  0  0  0  0  0  0  0  0
    6.5049   19.3249    7.0803 H   0  0  0  0  0  0  0  0  0  0  0  0
   12.3954   29.5604   -3.8120 C   0  0  0  0  0  0  0  0  0  0  0  0
   11.5469   30.5403   -4.4462 C   0  0  0  0  0  0  0  0  0  0  0  0
   11.5040   31.8321   -4.4623 N   0  0  0  0  0  0  0  0  0  0  0  0
   10.4105   32.5701   -4.8289 C   0  0  0  0  0  0  0  0  0  0  0  0
    9.2289   31.9940   -5.2309 C   0  0  0  0  0  0  0  0  0  0  0  0
    9.2206   30.5726   -5.2341 C   0  0  0  0  0  0  0  0  0  0  0  0
   10.3057   29.8601   -4.8665 C   0  0  0  0  0  0  0  0  0  0  0  0
   10.5064   28.4162   -5.0274 C   0  0  0  0  0  0  0  0  0  0  0  0
 19 20  1  0  0  0
 20 13  1  0  0  0
 13 14  2  0  0  0
 14 15  1  0  0  0
 15 16  2  0  0  0
 16 17  1  0  0  0
 17 18  2  0  0  0
 15  1  1  0  0  0
  1  2  1  0  0  0
  2  3  2  0  0  0
  2  4  1  0  0  0
  4  5  1  0  0  0
  5  6  2  0  0  0
  5  7  1  0  0  0
  7  8  1  0  0  0
  8  9  1  0  0  0
  9 10  1  0  0  0
 10 39  1  0  0  0
 39 40  1  0  0  0
 40 41  2  0  0  0
 41 42  1  0  0  0
 42 43  2  0  0  0
 43 44  1  0  0  0
 44 45  2  0  0  0
 45 46  1  0  0  0
 10 11  1  0  0  0
 11 12  1  0  0  0
  4 21  1  0  0  0
 21 22  2  0  0  0
 22 23  1  0  0  0
 23 24  2  0  0  0
 24 25  1  0  0  0
 25 26  2  0  0  0
 24 27  1  0  0  0
 27 28  2  0  0  0
 28 29  1  0  0  0
 29 30  2  0  0  0
 30 31  1  0  0  0
 31 32  2  0  0  0
 30 33  1  0  0  0
 33 34  1  0  0  0
 34 35  2  0  0  0
 35 36  1  0  0  0
 36 37  1  0  0  0
 18 13  1  0  0  0
  7  1  1  0  0  0
 12  7  1  0  0  0
 26 21  1  0  0  0
 32 27  1  0  0  0
 37 33  2  0  0  0
 45 40  1  0  0  0
 36 38  1  0  0  0
M  END
> <minimizedAffinity>
21.94576

> <CNNscore>
0.3699344993

> <CNNaffinity>
7.4534034729

> <CNN_VS>
2.7572710514

> <CNNaffinity_variance>
0.4233413637

$$$$
[H]c1nc(OC([H])([H])[H])c([H])c(N2C(=O)N(c3c([H])c([H])c(-c4c([H])c([H])c(-c5nn([H])c([H])c5[H])c([H])c4[H])c([H])c3[H])C(=O)C23C([H])([H])C([H])([H])N(C([H])([H])c2nc([H])c([H])c([H])c2C([H])([H])[H])C([H])([H])C3([H])[H])n1


 46 52  0  0  0  0  0  0  0  0999 V2000
   10.1243   21.6362    2.0154 N   0  0  0  0  0  0  0  0  0  0  0  0
   11.2169   22.1480    1.1497 C   0  0  0  0  0  0  0  0  0  0  0  0
   12.4015   22.0858    1.4033 O   0  0  0  0  0  0  0  0  0  0  0  0
   10.5669   22.7141    0.0341 N   0  0  0  0  0  0  0  0  0  0  0  0
    9.2073   22.5526    0.1788 C   0  0  0  0  0  0  0  0  0  0  0  0
    8.3629   22.6827   -0.7708 O   0  0  0  0  0  0  0  0  0  0  0  0
    8.9334   22.1982    1.6434 C   0  0  0  0  0  0  0  0  0  0  0  0
    7.8096   21.1493    1.5138 C   0  0  0  0  0  0  0  0  0  0  0  0
    7.2758   20.9701    2.8668 C   0  0  0  0  0  0  0  0  0  0  0  0
    6.5178   22.2258    3.2324 N   0  0  0  0  0  0  0  0  0  0  0  0
    7.5008   23.1600    3.5164 C   0  0  0  0  0  0  0  0  0  0  0  0
    8.4435   23.3959    2.3394 C   0  0  0  0  0  0  0  0  0  0  0  0
   12.2654   19.0538    3.6278 C   0  0  0  0  0  0  0  0  0  0  0  0
   11.6696   19.9184    2.7155 C   0  0  0  0  0  0  0  0  0  0  0  0
   10.5400   20.6829    2.9558 C   0  0  0  0  0  0  0  0  0  0  0  0
    9.9887   20.5640    4.1910 N   0  0  0  0  0  0  0  0  0  0  0  0
   10.5220   19.7348    5.1291 C   0  0  0  0  0  0  0  0  0  0  0  0
   11.6731   18.9741    4.8460 N   0  0  0  0  0  0  0  0  0  0  0  0
   14.4929   18.5567    2.5605 C   0  0  0  0  0  0  0  0  0  0  0  0
   13.3157   18.3886    3.2707 O   0  0  0  0  0  0  0  0  0  0  0  0
   11.2397   23.4761   -0.9753 C   0  0  0  0  0  0  0  0  0  0  0  0
   10.8449   24.6551   -1.4528 C   0  0  0  0  0  0  0  0  0  0  0  0
   11.6921   25.3648   -2.2971 C   0  0  0  0  0  0  0  0  0  0  0  0
   12.8817   24.8895   -2.6373 C   0  0  0  0  0  0  0  0  0  0  0  0
   13.3035   23.5961   -2.1454 C   0  0  0  0  0  0  0  0  0  0  0  0
   12.4701   22.9517   -1.3417 C   0  0  0  0  0  0  0  0  0  0  0  0
   14.0146   25.7356   -2.9673 C   0  0  0  0  0  0  0  0  0  0  0  0
   15.0978   25.7255   -2.0741 C   0  0  0  0  0  0  0  0  0  0  0  0
   16.2485   26.4271   -2.2717 C   0  0  0  0  0  0  0  0  0  0  0  0
   16.3756   27.2124   -3.4153 C   0  0  0  0  0  0  0  0  0  0  0  0
   15.3221   27.2486   -4.3072 C   0  0  0  0  0  0  0  0  0  0  0  0
   14.1297   26.5201   -4.1213 C   0  0  0  0  0  0  0  0  0  0  0  0
   17.6791   27.8190   -3.6524 C   0  0  0  0  0  0  0  0  0  0  0  0
   18.9030   27.2185   -3.5772 C   0  0  0  0  0  0  0  0  0  0  0  0
   19.8000   28.1857   -3.9768 C   0  0  0  0  0  0  0  0  0  0  0  0
   19.1272   29.2779   -4.2548 N   0  0  0  0  0  0  0  0  0  0  0  0
   17.8048   29.1019   -4.0781 N   0  0  0  0  0  0  0  0  0  0  0  0
   19.5764   30.2352   -4.5169 H   0  0  0  0  0  0  0  0  0  0  0  0
    5.3883   21.8587    3.7815 C   0  0  0  0  0  0  0  0  0  0  0  0
    4.8308   20.8648    4.6669 C   0  0  0  0  0  0  0  0  0  0  0  0
    4.9125   20.6281    5.9350 N   0  0  0  0  0  0  0  0  0  0  0  0
    4.6038   19.4317    6.5249 C   0  0  0  0  0  0  0  0  0  0  0  0
    4.1605   18.3452    5.8089 C   0  0  0  0  0  0  0  0  0  0  0  0
    4.0498   18.5505    4.4068 C   0  0  0  0  0  0  0  0  0  0  0  0
    4.3614   19.7349    3.8406 C   0  0  0  0  0  0  0  0  0  0  0  0
    4.0915   20.1483    2.4595 C   0  0  0  0  0  0  0  0  0  0  0  0
 19 20  1  0  0  0
 20 13  1  0  0  0
 13 14  2  0  0  0
 14 15  1  0  0  0
 15 16  2  0  0  0
 16 17  1  0  0  0
 17 18  2  0  0  0
 15  1  1  0  0  0
  1  2  1  0  0  0
  2  3  2  0  0  0
  2  4  1  0  0  0
  4  5  1  0  0  0
  5  6  2  0  0  0
  5  7  1  0  0  0
  7  8  1  0  0  0
  8  9  1  0  0  0
  9 10  1  0  0  0
 10 39  1  0  0  0
 39 40  1  0  0  0
 40 41  2  0  0  0
 41 42  1  0  0  0
 42 43  2  0  0  0
 43 44  1  0  0  0
 44 45  2  0  0  0
 45 46  1  0  0  0
 10 11  1  0  0  0
 11 12  1  0  0  0
  4 21  1  0  0  0
 21 22  2  0  0  0
 22 23  1  0  0  0
 23 24  2  0  0  0
 24 25  1  0  0  0
 25 26  2  0  0  0
 24 27  1  0  0  0
 27 28  2  0  0  0
 28 29  1  0  0  0
 29 30  2  0  0  0
 30 31  1  0  0  0
 31 32  2  0  0  0
 30 33  1  0  0  0
 33 34  1  0  0  0
 34 35  2  0  0  0
 35 36  1  0  0  0
 36 37  1  0  0  0
 18 13  1  0  0  0
  7  1  1  0  0  0
 12  7  1  0  0  0
 26 21  1  0  0  0
 32 27  1  0  0  0
 37 33  2  0  0  0
 45 40  1  0  0  0
 36 38  1  0  0  0
M  END
> <minimizedAffinity>
6.24325

> <CNNscore>
0.3685159385

> <CNNaffinity>
6.9980573654

> <CNN_VS>
2.5788955688

> <CNNaffinity_variance>
0.6443373561

$$$$
[H]c1nc(OC([H])([H])[H])c([H])c(N2C(=O)N(c3c([H])c([H])c(-c4c([H])c([H])c(-c5nn([H])c([H])c5[H])c([H])c4[H])c([H])c3[H])C(=O)C23C([H])([H])C([H])([H])N(C([H])([H])c2nc([H])c([H])c([H])c2C([H])([H])[H])C([H])([H])C3([H])[H])n1


 46 52  0  0  0  0  0  0  0  0999 V2000
   12.3924   23.0021   -0.2190 N   0  0  0  0  0  0  0  0  0  0  0  0
   13.2247   23.6328   -1.2746 C   0  0  0  0  0  0  0  0  0  0  0  0
   14.0795   23.0694   -1.9253 O   0  0  0  0  0  0  0  0  0  0  0  0
   12.8120   24.9804   -1.3115 N   0  0  0  0  0  0  0  0  0  0  0  0
   11.8088   25.1665   -0.3871 C   0  0  0  0  0  0  0  0  0  0  0  0
   11.0250   26.1751   -0.3702 O   0  0  0  0  0  0  0  0  0  0  0  0
   11.8260   23.9685    0.5670 C   0  0  0  0  0  0  0  0  0  0  0  0
   10.3206   23.7227    0.7986 C   0  0  0  0  0  0  0  0  0  0  0  0
   10.2396   22.7907    1.9266 C   0  0  0  0  0  0  0  0  0  0  0  0
   10.6495   23.5407    3.1734 N   0  0  0  0  0  0  0  0  0  0  0  0
   12.0284   23.6437    3.0847 C   0  0  0  0  0  0  0  0  0  0  0  0
   12.4824   24.3670    1.8196 C   0  0  0  0  0  0  0  0  0  0  0  0
   10.9857   19.6130   -0.8419 C   0  0  0  0  0  0  0  0  0  0  0  0
   11.1389   20.9725   -0.5910 C   0  0  0  0  0  0  0  0  0  0  0  0
   12.3361   21.6032   -0.2960 C   0  0  0  0  0  0  0  0  0  0  0  0
   13.4368   20.8092   -0.2568 N   0  0  0  0  0  0  0  0  0  0  0  0
   13.3552   19.4712   -0.4915 C   0  0  0  0  0  0  0  0  0  0  0  0
   12.1182   18.8672   -0.7895 N   0  0  0  0  0  0  0  0  0  0  0  0
    8.5063   19.5892   -1.2887 C   0  0  0  0  0  0  0  0  0  0  0  0
    9.8054   19.1491   -1.0960 O   0  0  0  0  0  0  0  0  0  0  0  0
   13.4751   25.9938   -2.0766 C   0  0  0  0  0  0  0  0  0  0  0  0
   14.7505   26.3556   -1.9491 C   0  0  0  0  0  0  0  0  0  0  0  0
   15.3072   27.2241   -2.8819 C   0  0  0  0  0  0  0  0  0  0  0  0
   14.5930   27.6999   -3.8920 C   0  0  0  0  0  0  0  0  0  0  0  0
   13.1992   27.3337   -4.0187 C   0  0  0  0  0  0  0  0  0  0  0  0
   12.7058   26.5026   -3.1123 C   0  0  0  0  0  0  0  0  0  0  0  0
   15.1698   28.0739   -5.1709 C   0  0  0  0  0  0  0  0  0  0  0  0
   16.2775   28.9361   -5.1415 C   0  0  0  0  0  0  0  0  0  0  0  0
   16.9549   29.3365   -6.2533 C   0  0  0  0  0  0  0  0  0  0  0  0
   16.5365   28.8822   -7.5021 C   0  0  0  0  0  0  0  0  0  0  0  0
   15.4439   28.0401   -7.5621 C   0  0  0  0  0  0  0  0  0  0  0  0
   14.7395   27.6093   -6.4196 C   0  0  0  0  0  0  0  0  0  0  0  0
   17.3843   29.2168   -8.6391 C   0  0  0  0  0  0  0  0  0  0  0  0
   16.9937   29.6953   -9.8567 C   0  0  0  0  0  0  0  0  0  0  0  0
   18.1671   29.9344  -10.5391 C   0  0  0  0  0  0  0  0  0  0  0  0
   19.1690   29.6023   -9.7591 N   0  0  0  0  0  0  0  0  0  0  0  0
   18.7385   29.1583   -8.5639 N   0  0  0  0  0  0  0  0  0  0  0  0
   20.2167   29.6035  -10.0579 H   0  0  0  0  0  0  0  0  0  0  0  0
    9.7918   23.2397    4.1146 C   0  0  0  0  0  0  0  0  0  0  0  0
    8.5164   22.5964    4.3197 C   0  0  0  0  0  0  0  0  0  0  0  0
    7.4803   22.3742    3.5794 N   0  0  0  0  0  0  0  0  0  0  0  0
    6.2334   22.0704    4.0567 C   0  0  0  0  0  0  0  0  0  0  0  0
    5.9601   21.9633    5.3996 C   0  0  0  0  0  0  0  0  0  0  0  0
    7.0661   22.1964    6.2613 C   0  0  0  0  0  0  0  0  0  0  0  0
    8.2879   22.4982    5.7750 C   0  0  0  0  0  0  0  0  0  0  0  0
    9.5465   22.5480    6.5262 C   0  0  0  0  0  0  0  0  0  0  0  0
 19 20  1  0  0  0
 20 13  1  0  0  0
 13 14  2  0  0  0
 14 15  1  0  0  0
 15 16  2  0  0  0
 16 17  1  0  0  0
 17 18  2  0  0  0
 15  1  1  0  0  0
  1  2  1  0  0  0
  2  3  2  0  0  0
  2  4  1  0  0  0
  4  5  1  0  0  0
  5  6  2  0  0  0
  5  7  1  0  0  0
  7  8  1  0  0  0
  8  9  1  0  0  0
  9 10  1  0  0  0
 10 39  1  0  0  0
 39 40  1  0  0  0
 40 41  2  0  0  0
 41 42  1  0  0  0
 42 43  2  0  0  0
 43 44  1  0  0  0
 44 45  2  0  0  0
 45 46  1  0  0  0
 10 11  1  0  0  0
 11 12  1  0  0  0
  4 21  1  0  0  0
 21 22  2  0  0  0
 22 23  1  0  0  0
 23 24  2  0  0  0
 24 25  1  0  0  0
 25 26  2  0  0  0
 24 27  1  0  0  0
 27 28  2  0  0  0
 28 29  1  0  0  0
 29 30  2  0  0  0
 30 31  1  0  0  0
 31 32  2  0  0  0
 30 33  1  0  0  0
 33 34  1  0  0  0
 34 35  2  0  0  0
 35 36  1  0  0  0
 36 37  1  0  0  0
 18 13  1  0  0  0
  7  1  1  0  0  0
 12  7  1  0  0  0
 26 21  1  0  0  0
 32 27  1  0  0  0
 37 33  2  0  0  0
 45 40  1  0  0  0
 36 38  1  0  0  0
M  END
> <minimizedAffinity>
49.39038

> <CNNscore>
0.3656394482

> <CNNaffinity>
7.0185685158

> <CNN_VS>
2.5662655830

> <CNNaffinity_variance>
0.6615150571

$$$$
[H]c1nc(OC([H])([H])[H])c([H])c(N2C(=O)N(c3c([H])c([H])c(-c4c([H])c([H])c(-c5nn([H])c([H])c5[H])c([H])c4[H])c([H])c3[H])C(=O)C23C([H])([H])C([H])([H])N(C([H])([H])c2nc([H])c([H])c([H])c2C([H])([H])[H])C([H])([H])C3([H])[H])n1


 46 52  0  0  0  0  0  0  0  0999 V2000
   10.6601   21.8808    0.6355 N   0  0  0  0  0  0  0  0  0  0  0  0
   11.7462   22.8828    0.4893 C   0  0  0  0  0  0  0  0  0  0  0  0
   11.8790   23.8788    1.1688 O   0  0  0  0  0  0  0  0  0  0  0  0
   12.5258   22.4242   -0.5921 N   0  0  0  0  0  0  0  0  0  0  0  0
   11.9924   21.2442   -1.0595 C   0  0  0  0  0  0  0  0  0  0  0  0
   12.6117   20.4276   -1.8221 O   0  0  0  0  0  0  0  0  0  0  0  0
   10.5727   21.1199   -0.4985 C   0  0  0  0  0  0  0  0  0  0  0  0
   10.4845   19.6122   -0.1829 C   0  0  0  0  0  0  0  0  0  0  0  0
    9.0678   19.3436    0.0785 C   0  0  0  0  0  0  0  0  0  0  0  0
    8.3289   19.4518   -1.2359 N   0  0  0  0  0  0  0  0  0  0  0  0
    8.2431   20.8130   -1.4802 C   0  0  0  0  0  0  0  0  0  0  0  0
    9.6121   21.4842   -1.5489 C   0  0  0  0  0  0  0  0  0  0  0  0
    9.9947   21.0879    4.2106 C   0  0  0  0  0  0  0  0  0  0  0  0
   10.4404   21.0547    2.8934 C   0  0  0  0  0  0  0  0  0  0  0  0
   10.0234   21.9070    1.8845 C   0  0  0  0  0  0  0  0  0  0  0  0
    9.1061   22.8448    2.2346 N   0  0  0  0  0  0  0  0  0  0  0  0
    8.6283   22.9301    3.5060 C   0  0  0  0  0  0  0  0  0  0  0  0
    9.0786   22.0448    4.5046 N   0  0  0  0  0  0  0  0  0  0  0  0
   11.3436   19.1598    5.1109 C   0  0  0  0  0  0  0  0  0  0  0  0
   10.4597   20.2246    5.0541 O   0  0  0  0  0  0  0  0  0  0  0  0
   13.5863   23.1829   -1.1852 C   0  0  0  0  0  0  0  0  0  0  0  0
   14.4484   22.7351   -2.0963 C   0  0  0  0  0  0  0  0  0  0  0  0
   15.3089   23.6339   -2.7176 C   0  0  0  0  0  0  0  0  0  0  0  0
   15.2893   24.9250   -2.4185 C   0  0  0  0  0  0  0  0  0  0  0  0
   14.3755   25.4123   -1.4084 C   0  0  0  0  0  0  0  0  0  0  0  0
   13.5701   24.5263   -0.8411 C   0  0  0  0  0  0  0  0  0  0  0  0
   15.6579   25.9679   -3.3592 C   0  0  0  0  0  0  0  0  0  0  0  0
   15.0209   25.9504   -4.6102 C   0  0  0  0  0  0  0  0  0  0  0  0
   15.2252   26.8879   -5.5770 C   0  0  0  0  0  0  0  0  0  0  0  0
   16.1195   27.9282   -5.3340 C   0  0  0  0  0  0  0  0  0  0  0  0
   16.7676   27.9656   -4.1154 C   0  0  0  0  0  0  0  0  0  0  0  0
   16.5585   27.0085   -3.1018 C   0  0  0  0  0  0  0  0  0  0  0  0
   16.1863   28.9828   -6.3373 C   0  0  0  0  0  0  0  0  0  0  0  0
   15.8657   30.3009   -6.1823 C   0  0  0  0  0  0  0  0  0  0  0  0
   16.1869   30.8900   -7.3863 C   0  0  0  0  0  0  0  0  0  0  0  0
   16.6548   29.9597   -8.1852 N   0  0  0  0  0  0  0  0  0  0  0  0
   16.6837   28.7579   -7.5802 N   0  0  0  0  0  0  0  0  0  0  0  0
   16.9131   30.1116   -9.2326 H   0  0  0  0  0  0  0  0  0  0  0  0
    7.5113   18.4332   -1.3136 C   0  0  0  0  0  0  0  0  0  0  0  0
    6.3929   17.8255   -0.6337 C   0  0  0  0  0  0  0  0  0  0  0  0
    6.2674   17.0086    0.3602 N   0  0  0  0  0  0  0  0  0  0  0  0
    5.1449   16.2704    0.6241 C   0  0  0  0  0  0  0  0  0  0  0  0
    4.0156   16.3345   -0.1570 C   0  0  0  0  0  0  0  0  0  0  0  0
    4.0975   17.2206   -1.2653 C   0  0  0  0  0  0  0  0  0  0  0  0
    5.2126   17.9385   -1.5135 C   0  0  0  0  0  0  0  0  0  0  0  0
    5.3574   19.0348   -2.4769 C   0  0  0  0  0  0  0  0  0  0  0  0
 19 20  1  0  0  0
 20 13  1  0  0  0
 13 14  2  0  0  0
 14 15  1  0  0  0
 15 16  2  0  0  0
 16 17  1  0  0  0
 17 18  2  0  0  0
 15  1  1  0  0  0
  1  2  1  0  0  0
  2  3  2  0  0  0
  2  4  1  0  0  0
  4  5  1  0  0  0
  5  6  2  0  0  0
  5  7  1  0  0  0
  7  8  1  0  0  0
  8  9  1  0  0  0
  9 10  1  0  0  0
 10 39  1  0  0  0
 39 40  1  0  0  0
 40 41  2  0  0  0
 41 42  1  0  0  0
 42 43  2  0  0  0
 43 44  1  0  0  0
 44 45  2  0  0  0
 45 46  1  0  0  0
 10 11  1  0  0  0
 11 12  1  0  0  0
  4 21  1  0  0  0
 21 22  2  0  0  0
 22 23  1  0  0  0
 23 24  2  0  0  0
 24 25  1  0  0  0
 25 26  2  0  0  0
 24 27  1  0  0  0
 27 28  2  0  0  0
 28 29  1  0  0  0
 29 30  2  0  0  0
 30 31  1  0  0  0
 31 32  2  0  0  0
 30 33  1  0  0  0
 33 34  1  0  0  0
 34 35  2  0  0  0
 35 36  1  0  0  0
 36 37  1  0  0  0
 18 13  1  0  0  0
  7  1  1  0  0  0
 12  7  1  0  0  0
 26 21  1  0  0  0
 32 27  1  0  0  0
 37 33  2  0  0  0
 45 40  1  0  0  0
 36 38  1  0  0  0
M  END
> <minimizedAffinity>
2.99436

> <CNNscore>
0.3611562848

> <CNNaffinity>
7.4565896988

> <CNN_VS>
2.6929941177

> <CNNaffinity_variance>
0.0886803120

$$$$
[H]c1nc(OC([H])([H])[H])c([H])c(N2C(=O)N(c3c([H])c([H])c(-c4c([H])c([H])c5nc([H])n([H])c5c4[H])c([H])c3[H])C(=O)C23C([H])([H])C([H])([H])N(C([H])([H])c2nc([H])c([H])c([H])c2C([H])([H])[H])C([H])([H])C3([H])[H])n1


 44 50  0  0  0  0  0  0  0  0999 V2000
   13.5192   26.0137   -2.5124 N   0  0  0  0  0  0  0  0  0  0  0  0
   13.0918   25.2704   -1.2888 C   0  0  0  0  0  0  0  0  0  0  0  0
   13.8551   24.9127   -0.3754 O   0  0  0  0  0  0  0  0  0  0  0  0
   11.6945   25.0313   -1.3525 N   0  0  0  0  0  0  0  0  0  0  0  0
   11.2524   25.5627   -2.5766 C   0  0  0  0  0  0  0  0  0  0  0  0
   10.1974   25.2886   -3.1998 O   0  0  0  0  0  0  0  0  0  0  0  0
   12.3257   26.5643   -3.0201 C   0  0  0  0  0  0  0  0  0  0  0  0
   12.1887   26.8032   -4.4548 C   0  0  0  0  0  0  0  0  0  0  0  0
   12.3142   28.2642   -4.9124 C   0  0  0  0  0  0  0  0  0  0  0  0
   11.5643   29.0449   -4.0660 N   0  0  0  0  0  0  0  0  0  0  0  0
   12.1837   29.0903   -2.7512 C   0  0  0  0  0  0  0  0  0  0  0  0
   12.0086   27.7716   -2.1451 C   0  0  0  0  0  0  0  0  0  0  0  0
   17.1376   25.5247   -1.9633 C   0  0  0  0  0  0  0  0  0  0  0  0
   15.7657   25.3099   -1.8919 C   0  0  0  0  0  0  0  0  0  0  0  0
   14.8993   25.9714   -2.6725 C   0  0  0  0  0  0  0  0  0  0  0  0
   15.4339   26.8727   -3.5542 N   0  0  0  0  0  0  0  0  0  0  0  0
   16.7451   27.1062   -3.6438 C   0  0  0  0  0  0  0  0  0  0  0  0
   17.6154   26.4431   -2.8598 N   0  0  0  0  0  0  0  0  0  0  0  0
   17.5678   24.2630    0.0748 C   0  0  0  0  0  0  0  0  0  0  0  0
   18.0155   24.8552   -1.1431 O   0  0  0  0  0  0  0  0  0  0  0  0
   11.0280   24.5176   -0.1790 C   0  0  0  0  0  0  0  0  0  0  0  0
   10.0517   23.5504   -0.4138 C   0  0  0  0  0  0  0  0  0  0  0  0
    9.1860   23.1532    0.5113 C   0  0  0  0  0  0  0  0  0  0  0  0
    9.2187   23.7095    1.8137 C   0  0  0  0  0  0  0  0  0  0  0  0
   10.1728   24.6543    2.0579 C   0  0  0  0  0  0  0  0  0  0  0  0
   11.0880   25.0577    1.0539 C   0  0  0  0  0  0  0  0  0  0  0  0
    8.1846   23.2249    2.7137 C   0  0  0  0  0  0  0  0  0  0  0  0
    8.0798   23.7314    4.0039 C   0  0  0  0  0  0  0  0  0  0  0  0
    7.2130   23.0947    4.8918 C   0  0  0  0  0  0  0  0  0  0  0  0
    6.4467   21.9960    4.5713 C   0  0  0  0  0  0  0  0  0  0  0  0
    5.6150   21.1612    5.3041 N   0  0  0  0  0  0  0  0  0  0  0  0
    5.2599   20.1751    4.3742 C   0  0  0  0  0  0  0  0  0  0  0  0
    5.7710   20.4106    3.2957 N   0  0  0  0  0  0  0  0  0  0  0  0
    6.5833   21.5327    3.2462 C   0  0  0  0  0  0  0  0  0  0  0  0
    7.4027   22.1407    2.4168 C   0  0  0  0  0  0  0  0  0  0  0  0
    5.6844   19.8536    2.3596 H   0  0  0  0  0  0  0  0  0  0  0  0
   10.7117   30.0839   -4.3536 C   0  0  0  0  0  0  0  0  0  0  0  0
    9.3095   29.9659   -4.0726 C   0  0  0  0  0  0  0  0  0  0  0  0
    8.7717   30.2386   -2.8520 N   0  0  0  0  0  0  0  0  0  0  0  0
    7.5048   29.8703   -2.5816 C   0  0  0  0  0  0  0  0  0  0  0  0
    6.6681   29.2147   -3.4513 C   0  0  0  0  0  0  0  0  0  0  0  0
    7.2091   28.9350   -4.6911 C   0  0  0  0  0  0  0  0  0  0  0  0
    8.4945   29.3154   -4.9719 C   0  0  0  0  0  0  0  0  0  0  0  0
    8.9286   29.1115   -6.3871 C   0  0  0  0  0  0  0  0  0  0  0  0
 19 20  1  0  0  0
 20 13  1  0  0  0
 13 14  2  0  0  0
 14 15  1  0  0  0
 15 16  2  0  0  0
 16 17  1  0  0  0
 17 18  2  0  0  0
 15  1  1  0  0  0
  1  2  1  0  0  0
  2  3  2  0  0  0
  2  4  1  0  0  0
  4  5  1  0  0  0
  5  6  2  0  0  0
  5  7  1  0  0  0
  7  8  1  0  0  0
  8  9  1  0  0  0
  9 10  1  0  0  0
 10 37  1  0  0  0
 37 38  1  0  0  0
 38 39  2  0  0  0
 39 40  1  0  0  0
 40 41  2  0  0  0
 41 42  1  0  0  0
 42 43  2  0  0  0
 43 44  1  0  0  0
 10 11  1  0  0  0
 11 12  1  0  0  0
  4 21  1  0  0  0
 21 22  2  0  0  0
 22 23  1  0  0  0
 23 24  2  0  0  0
 24 25  1  0  0  0
 25 26  2  0  0  0
 24 27  1  0  0  0
 27 28  2  0  0  0
 28 29  1  0  0  0
 29 30  2  0  0  0
 30 31  1  0  0  0
 31 32  2  0  0  0
 32 33  1  0  0  0
 33 34  1  0  0  0
 34 35  2  0  0  0
 18 13  1  0  0  0
  7  1  1  0  0  0
 12  7  1  0  0  0
 26 21  1  0  0  0
 35 27  1  0  0  0
 43 38  1  0  0  0
 34 30  1  0  0  0
 33 36  1  0  0  0
M  END
> <minimizedAffinity>
25.92372

> <CNNscore>
0.5664800406

> <CNNaffinity>
7.4125623703

> <CNN_VS>
4.1990685463

> <CNNaffinity_variance>
0.5904957056

$$$$
[H]c1nc(OC([H])([H])[H])c([H])c(N2C(=O)N(c3c([H])c([H])c(-c4c([H])c([H])c5nc([H])n([H])c5c4[H])c([H])c3[H])C(=O)C23C([H])([H])C([H])([H])N(C([H])([H])c2nc([H])c([H])c([H])c2C([H])([H])[H])C([H])([H])C3([H])[H])n1


 44 50  0  0  0  0  0  0  0  0999 V2000
   15.5102   23.7919   -0.4186 N   0  0  0  0  0  0  0  0  0  0  0  0
   14.5179   23.7323    0.6970 C   0  0  0  0  0  0  0  0  0  0  0  0
   14.7803   23.9596    1.8904 O   0  0  0  0  0  0  0  0  0  0  0  0
   13.2511   23.3625    0.1752 N   0  0  0  0  0  0  0  0  0  0  0  0
   13.4302   23.1577   -1.2041 C   0  0  0  0  0  0  0  0  0  0  0  0
   12.6962   22.5076   -1.9885 O   0  0  0  0  0  0  0  0  0  0  0  0
   14.7212   23.8943   -1.5814 C   0  0  0  0  0  0  0  0  0  0  0  0
   15.2199   23.3610   -2.8468 C   0  0  0  0  0  0  0  0  0  0  0  0
   15.7281   24.3946   -3.8632 C   0  0  0  0  0  0  0  0  0  0  0  0
   14.8163   25.4210   -3.9240 N   0  0  0  0  0  0  0  0  0  0  0  0
   14.8418   26.1832   -2.6859 C   0  0  0  0  0  0  0  0  0  0  0  0
   14.2482   25.3420   -1.6481 C   0  0  0  0  0  0  0  0  0  0  0  0
   18.5400   24.4526    1.5857 C   0  0  0  0  0  0  0  0  0  0  0  0
   17.2028   24.2319    1.2752 C   0  0  0  0  0  0  0  0  0  0  0  0
   16.8132   23.8056    0.0652 C   0  0  0  0  0  0  0  0  0  0  0  0
   17.8030   23.5914   -0.8568 N   0  0  0  0  0  0  0  0  0  0  0  0
   19.0949   23.7988   -0.5924 C   0  0  0  0  0  0  0  0  0  0  0  0
   19.4866   24.2277    0.6219 N   0  0  0  0  0  0  0  0  0  0  0  0
   20.1227   24.4321    3.4366 C   0  0  0  0  0  0  0  0  0  0  0  0
   18.9263   24.9097    2.8240 O   0  0  0  0  0  0  0  0  0  0  0  0
   12.0966   23.4519    1.0378 C   0  0  0  0  0  0  0  0  0  0  0  0
   11.7624   22.2841    1.7222 C   0  0  0  0  0  0  0  0  0  0  0  0
   10.6088   22.1208    2.3590 C   0  0  0  0  0  0  0  0  0  0  0  0
    9.6409   23.1553    2.3718 C   0  0  0  0  0  0  0  0  0  0  0  0
    9.9577   24.3055    1.7090 C   0  0  0  0  0  0  0  0  0  0  0  0
   11.1982   24.4561    1.0406 C   0  0  0  0  0  0  0  0  0  0  0  0
    8.4027   22.8282    3.0602 C   0  0  0  0  0  0  0  0  0  0  0  0
    7.5825   23.8369    3.5520 C   0  0  0  0  0  0  0  0  0  0  0  0
    6.5197   23.4754    4.3795 C   0  0  0  0  0  0  0  0  0  0  0  0
    6.2247   22.1788    4.7382 C   0  0  0  0  0  0  0  0  0  0  0  0
    5.3042   21.6109    5.6076 N   0  0  0  0  0  0  0  0  0  0  0  0
    5.6407   20.2512    5.5786 C   0  0  0  0  0  0  0  0  0  0  0  0
    6.5679   20.0636    4.8139 N   0  0  0  0  0  0  0  0  0  0  0  0
    7.0814   21.1957    4.2006 C   0  0  0  0  0  0  0  0  0  0  0  0
    8.0801   21.5472    3.4209 C   0  0  0  0  0  0  0  0  0  0  0  0
    7.0587   19.1241    4.5487 H   0  0  0  0  0  0  0  0  0  0  0  0
   14.3136   26.0858   -5.0169 C   0  0  0  0  0  0  0  0  0  0  0  0
   15.1657   26.9334   -5.8008 C   0  0  0  0  0  0  0  0  0  0  0  0
   15.3220   28.2627   -5.5521 N   0  0  0  0  0  0  0  0  0  0  0  0
   15.9276   29.0474   -6.4639 C   0  0  0  0  0  0  0  0  0  0  0  0
   16.4199   28.6213   -7.6732 C   0  0  0  0  0  0  0  0  0  0  0  0
   16.2634   27.2732   -7.9308 C   0  0  0  0  0  0  0  0  0  0  0  0
   15.6550   26.4711   -7.0021 C   0  0  0  0  0  0  0  0  0  0  0  0
   15.6792   25.0080   -7.3047 C   0  0  0  0  0  0  0  0  0  0  0  0
 19 20  1  0  0  0
 20 13  1  0  0  0
 13 14  2  0  0  0
 14 15  1  0  0  0
 15 16  2  0  0  0
 16 17  1  0  0  0
 17 18  2  0  0  0
 15  1  1  0  0  0
  1  2  1  0  0  0
  2  3  2  0  0  0
  2  4  1  0  0  0
  4  5  1  0  0  0
  5  6  2  0  0  0
  5  7  1  0  0  0
  7  8  1  0  0  0
  8  9  1  0  0  0
  9 10  1  0  0  0
 10 37  1  0  0  0
 37 38  1  0  0  0
 38 39  2  0  0  0
 39 40  1  0  0  0
 40 41  2  0  0  0
 41 42  1  0  0  0
 42 43  2  0  0  0
 43 44  1  0  0  0
 10 11  1  0  0  0
 11 12  1  0  0  0
  4 21  1  0  0  0
 21 22  2  0  0  0
 22 23  1  0  0  0
 23 24  2  0  0  0
 24 25  1  0  0  0
 25 26  2  0  0  0
 24 27  1  0  0  0
 27 28  2  0  0  0
 28 29  1  0  0  0
 29 30  2  0  0  0
 30 31  1  0  0  0
 31 32  2  0  0  0
 32 33  1  0  0  0
 33 34  1  0  0  0
 34 35  2  0  0  0
 18 13  1  0  0  0
  7  1  1  0  0  0
 12  7  1  0  0  0
 26 21  1  0  0  0
 35 27  1  0  0  0
 43 38  1  0  0  0
 34 30  1  0  0  0
 33 36  1  0  0  0
M  END
> <minimizedAffinity>
12.72967

> <CNNscore>
0.4815799296

> <CNNaffinity>
7.9562392235

> <CNN_VS>
3.8315651417

> <CNNaffinity_variance>
0.3857572079

$$$$
[H]c1nc(OC([H])([H])[H])c([H])c(N2C(=O)N(c3c([H])c([H])c(-c4c([H])c([H])c5nc([H])n([H])c5c4[H])c([H])c3[H])C(=O)C23C([H])([H])C([H])([H])N(C([H])([H])c2nc([H])c([H])c([H])c2C([H])([H])[H])C([H])([H])C3([H])[H])n1


 44 50  0  0  0  0  0  0  0  0999 V2000
   13.9063   22.0245   -0.3469 N   0  0  0  0  0  0  0  0  0  0  0  0
   12.8456   22.0888    0.7035 C   0  0  0  0  0  0  0  0  0  0  0  0
   13.0376   21.8948    1.9160 O   0  0  0  0  0  0  0  0  0  0  0  0
   11.6005   22.3872    0.0914 N   0  0  0  0  0  0  0  0  0  0  0  0
   11.8437   22.4730   -1.2905 C   0  0  0  0  0  0  0  0  0  0  0  0
   11.0126   22.3777   -2.2268 O   0  0  0  0  0  0  0  0  0  0  0  0
   13.3509   22.7104   -1.4453 C   0  0  0  0  0  0  0  0  0  0  0  0
   13.7513   22.3515   -2.8036 C   0  0  0  0  0  0  0  0  0  0  0  0
   14.7229   23.3164   -3.4997 C   0  0  0  0  0  0  0  0  0  0  0  0
   14.2782   24.5995   -3.2887 N   0  0  0  0  0  0  0  0  0  0  0  0
   14.4491   24.9617   -1.8909 C   0  0  0  0  0  0  0  0  0  0  0  0
   13.4691   24.1956   -1.1229 C   0  0  0  0  0  0  0  0  0  0  0  0
   16.5006   19.5394    0.5060 C   0  0  0  0  0  0  0  0  0  0  0  0
   15.4942   20.1845   -0.2041 C   0  0  0  0  0  0  0  0  0  0  0  0
   15.0548   21.4056    0.1328 C   0  0  0  0  0  0  0  0  0  0  0  0
   15.6520   21.9944    1.2154 N   0  0  0  0  0  0  0  0  0  0  0  0
   16.6164   21.4001    1.9215 C   0  0  0  0  0  0  0  0  0  0  0  0
   17.0574   20.1738    1.5843 N   0  0  0  0  0  0  0  0  0  0  0  0
   16.0321   17.3382   -0.4245 C   0  0  0  0  0  0  0  0  0  0  0  0
   16.9292   18.2781    0.1637 O   0  0  0  0  0  0  0  0  0  0  0  0
   10.4754   22.7093    0.9372 C   0  0  0  0  0  0  0  0  0  0  0  0
    9.9904   24.0118    0.8270 C   0  0  0  0  0  0  0  0  0  0  0  0
    9.1320   24.5422    1.6900 C   0  0  0  0  0  0  0  0  0  0  0  0
    8.6575   23.7862    2.7901 C   0  0  0  0  0  0  0  0  0  0  0  0
    9.1213   22.5079    2.9069 C   0  0  0  0  0  0  0  0  0  0  0  0
   10.0342   21.9641    1.9694 C   0  0  0  0  0  0  0  0  0  0  0  0
    7.7634   24.5018    3.6861 C   0  0  0  0  0  0  0  0  0  0  0  0
    6.8083   23.8139    4.4255 C   0  0  0  0  0  0  0  0  0  0  0  0
    5.8446   24.5564    5.1075 C   0  0  0  0  0  0  0  0  0  0  0  0
    5.7803   25.9322    5.1011 C   0  0  0  0  0  0  0  0  0  0  0  0
    4.8736   26.8514    5.6097 N   0  0  0  0  0  0  0  0  0  0  0  0
    5.3609   28.0737    5.1287 C   0  0  0  0  0  0  0  0  0  0  0  0
    6.3765   27.8968    4.4828 N   0  0  0  0  0  0  0  0  0  0  0  0
    6.7809   26.5781    4.3456 C   0  0  0  0  0  0  0  0  0  0  0  0
    7.6853   25.8688    3.7069 C   0  0  0  0  0  0  0  0  0  0  0  0
    7.0116   28.6353    3.9877 H   0  0  0  0  0  0  0  0  0  0  0  0
   14.1901   25.6540   -4.1659 C   0  0  0  0  0  0  0  0  0  0  0  0
   15.3059   26.5380   -4.3461 C   0  0  0  0  0  0  0  0  0  0  0  0
   16.1345   26.9040   -3.3298 N   0  0  0  0  0  0  0  0  0  0  0  0
   16.9990   27.9218   -3.5048 C   0  0  0  0  0  0  0  0  0  0  0  0
   17.1294   28.6610   -4.6550 C   0  0  0  0  0  0  0  0  0  0  0  0
   16.2905   28.2941   -5.6893 C   0  0  0  0  0  0  0  0  0  0  0  0
   15.4158   27.2543   -5.5170 C   0  0  0  0  0  0  0  0  0  0  0  0
   14.6703   26.8343   -6.7420 C   0  0  0  0  0  0  0  0  0  0  0  0
 19 20  1  0  0  0
 20 13  1  0  0  0
 13 14  2  0  0  0
 14 15  1  0  0  0
 15 16  2  0  0  0
 16 17  1  0  0  0
 17 18  2  0  0  0
 15  1  1  0  0  0
  1  2  1  0  0  0
  2  3  2  0  0  0
  2  4  1  0  0  0
  4  5  1  0  0  0
  5  6  2  0  0  0
  5  7  1  0  0  0
  7  8  1  0  0  0
  8  9  1  0  0  0
  9 10  1  0  0  0
 10 37  1  0  0  0
 37 38  1  0  0  0
 38 39  2  0  0  0
 39 40  1  0  0  0
 40 41  2  0  0  0
 41 42  1  0  0  0
 42 43  2  0  0  0
 43 44  1  0  0  0
 10 11  1  0  0  0
 11 12  1  0  0  0
  4 21  1  0  0  0
 21 22  2  0  0  0
 22 23  1  0  0  0
 23 24  2  0  0  0
 24 25  1  0  0  0
 25 26  2  0  0  0
 24 27  1  0  0  0
 27 28  2  0  0  0
 28 29  1  0  0  0
 29 30  2  0  0  0
 30 31  1  0  0  0
 31 32  2  0  0  0
 32 33  1  0  0  0
 33 34  1  0  0  0
 34 35  2  0  0  0
 18 13  1  0  0  0
  7  1  1  0  0  0
 12  7  1  0  0  0
 26 21  1  0  0  0
 35 27  1  0  0  0
 43 38  1  0  0  0
 34 30  1  0  0  0
 33 36  1  0  0  0
M  END
> <minimizedAffinity>
8.53522

> <CNNscore>
0.4258278608

> <CNNaffinity>
7.9163484573

> <CNN_VS>
3.3710017204

> <CNNaffinity_variance>
0.3894134164

$$$$
[H]c1nc(OC([H])([H])[H])c([H])c(N2C(=O)N(c3c([H])c([H])c(-c4c([H])c([H])c5nc([H])n([H])c5c4[H])c([H])c3[H])C(=O)C23C([H])([H])C([H])([H])N(C([H])([H])c2nc([H])c([H])c([H])c2C([H])([H])[H])C([H])([H])C3([H])[H])n1


 44 50  0  0  0  0  0  0  0  0999 V2000
   14.9922   23.8818   -0.9203 N   0  0  0  0  0  0  0  0  0  0  0  0
   14.0980   23.1754    0.0462 C   0  0  0  0  0  0  0  0  0  0  0  0
   14.3053   23.0887    1.2686 O   0  0  0  0  0  0  0  0  0  0  0  0
   13.0001   22.6159   -0.6574 N   0  0  0  0  0  0  0  0  0  0  0  0
   13.1997   22.9165   -2.0161 C   0  0  0  0  0  0  0  0  0  0  0  0
   12.6891   22.3506   -3.0139 O   0  0  0  0  0  0  0  0  0  0  0  0
   14.1821   24.0935   -2.0535 C   0  0  0  0  0  0  0  0  0  0  0  0
   14.7915   24.1617   -3.3795 C   0  0  0  0  0  0  0  0  0  0  0  0
   14.9214   25.5640   -3.9930 C   0  0  0  0  0  0  0  0  0  0  0  0
   13.7309   26.2251   -3.8084 N   0  0  0  0  0  0  0  0  0  0  0  0
   13.5457   26.5325   -2.3993 C   0  0  0  0  0  0  0  0  0  0  0  0
   13.2746   25.2703   -1.7136 C   0  0  0  0  0  0  0  0  0  0  0  0
   18.6169   23.9833   -0.2240 C   0  0  0  0  0  0  0  0  0  0  0  0
   17.4261   23.9386   -0.9403 C   0  0  0  0  0  0  0  0  0  0  0  0
   16.2360   24.1443   -0.3580 C   0  0  0  0  0  0  0  0  0  0  0  0
   16.2490   24.4074    0.9859 N   0  0  0  0  0  0  0  0  0  0  0  0
   17.3738   24.4519    1.7033 C   0  0  0  0  0  0  0  0  0  0  0  0
   18.5688   24.2446    1.1194 N   0  0  0  0  0  0  0  0  0  0  0  0
   20.0818   22.5224   -1.5087 C   0  0  0  0  0  0  0  0  0  0  0  0
   19.8304   23.7503   -0.8280 O   0  0  0  0  0  0  0  0  0  0  0  0
   11.8986   22.0722    0.1017 C   0  0  0  0  0  0  0  0  0  0  0  0
   10.9368   22.9933    0.5144 C   0  0  0  0  0  0  0  0  0  0  0  0
    9.9999   22.7116    1.4121 C   0  0  0  0  0  0  0  0  0  0  0  0
    9.9345   21.4266    2.0051 C   0  0  0  0  0  0  0  0  0  0  0  0
   10.8678   20.5142    1.6064 C   0  0  0  0  0  0  0  0  0  0  0  0
   11.8550   20.8391    0.6429 C   0  0  0  0  0  0  0  0  0  0  0  0
    8.8947   21.2666    3.0089 C   0  0  0  0  0  0  0  0  0  0  0  0
    9.2209   21.2161    4.3591 C   0  0  0  0  0  0  0  0  0  0  0  0
    8.2223   20.8565    5.2638 C   0  0  0  0  0  0  0  0  0  0  0  0
    6.9274   20.5526    4.9064 C   0  0  0  0  0  0  0  0  0  0  0  0
    5.8251   20.0832    5.6067 N   0  0  0  0  0  0  0  0  0  0  0  0
    4.8750   19.8777    4.5978 C   0  0  0  0  0  0  0  0  0  0  0  0
    5.3343   20.1944    3.5168 N   0  0  0  0  0  0  0  0  0  0  0  0
    6.6494   20.6322    3.5260 C   0  0  0  0  0  0  0  0  0  0  0  0
    7.5979   20.9729    2.6814 C   0  0  0  0  0  0  0  0  0  0  0  0
    4.8545   20.1738    2.5353 H   0  0  0  0  0  0  0  0  0  0  0  0
   13.0166   27.0087   -4.6830 C   0  0  0  0  0  0  0  0  0  0  0  0
   12.5320   28.2945   -4.2694 C   0  0  0  0  0  0  0  0  0  0  0  0
   11.2072   28.5881   -4.1599 N   0  0  0  0  0  0  0  0  0  0  0  0
   10.8154   29.8686   -4.0154 C   0  0  0  0  0  0  0  0  0  0  0  0
   11.6562   30.9536   -3.9704 C   0  0  0  0  0  0  0  0  0  0  0  0
   13.0016   30.6612   -4.0817 C   0  0  0  0  0  0  0  0  0  0  0  0
   13.4037   29.3593   -4.2208 C   0  0  0  0  0  0  0  0  0  0  0  0
   14.8803   29.1358   -4.1710 C   0  0  0  0  0  0  0  0  0  0  0  0
 19 20  1  0  0  0
 20 13  1  0  0  0
 13 14  2  0  0  0
 14 15  1  0  0  0
 15 16  2  0  0  0
 16 17  1  0  0  0
 17 18  2  0  0  0
 15  1  1  0  0  0
  1  2  1  0  0  0
  2  3  2  0  0  0
  2  4  1  0  0  0
  4  5  1  0  0  0
  5  6  2  0  0  0
  5  7  1  0  0  0
  7  8  1  0  0  0
  8  9  1  0  0  0
  9 10  1  0  0  0
 10 37  1  0  0  0
 37 38  1  0  0  0
 38 39  2  0  0  0
 39 40  1  0  0  0
 40 41  2  0  0  0
 41 42  1  0  0  0
 42 43  2  0  0  0
 43 44  1  0  0  0
 10 11  1  0  0  0
 11 12  1  0  0  0
  4 21  1  0  0  0
 21 22  2  0  0  0
 22 23  1  0  0  0
 23 24  2  0  0  0
 24 25  1  0  0  0
 25 26  2  0  0  0
 24 27  1  0  0  0
 27 28  2  0  0  0
 28 29  1  0  0  0
 29 30  2  0  0  0
 30 31  1  0  0  0
 31 32  2  0  0  0
 32 33  1  0  0  0
 33 34  1  0  0  0
 34 35  2  0  0  0
 18 13  1  0  0  0
  7  1  1  0  0  0
 12  7  1  0  0  0
 26 21  1  0  0  0
 35 27  1  0  0  0
 43 38  1  0  0  0
 34 30  1  0  0  0
 33 36  1  0  0  0
M  END
> <minimizedAffinity>
25.17224

> <CNNscore>
0.4115738869

> <CNNaffinity>
7.8111877441

> <CNN_VS>
3.2148809433

> <CNNaffinity_variance>
0.9002813101

$$$$
[H]c1nc(OC([H])([H])[H])c([H])c(N2C(=O)N(c3c([H])c([H])c(-c4c([H])c([H])c5nc([H])n([H])c5c4[H])c([H])c3[H])C(=O)C23C([H])([H])C([H])([H])N(C([H])([H])c2nc([H])c([H])c([H])c2C([H])([H])[H])C([H])([H])C3([H])[H])n1


 44 50  0  0  0  0  0  0  0  0999 V2000
    8.8381   22.2884    1.6336 N   0  0  0  0  0  0  0  0  0  0  0  0
    9.9008   23.2947    1.3326 C   0  0  0  0  0  0  0  0  0  0  0  0
   10.8926   23.5125    2.0493 O   0  0  0  0  0  0  0  0  0  0  0  0
    9.5833   23.9599    0.1200 N   0  0  0  0  0  0  0  0  0  0  0  0
    8.3558   23.4321   -0.3170 C   0  0  0  0  0  0  0  0  0  0  0  0
    7.5430   23.9406   -1.1277 O   0  0  0  0  0  0  0  0  0  0  0  0
    8.1903   22.0860    0.3989 C   0  0  0  0  0  0  0  0  0  0  0  0
    6.7805   21.7040    0.3724 C   0  0  0  0  0  0  0  0  0  0  0  0
    6.4846   20.2314    0.0507 C   0  0  0  0  0  0  0  0  0  0  0  0
    7.2611   19.8617   -1.0211 N   0  0  0  0  0  0  0  0  0  0  0  0
    8.6595   19.8052   -0.6264 C   0  0  0  0  0  0  0  0  0  0  0  0
    9.1058   21.1816   -0.4183 C   0  0  0  0  0  0  0  0  0  0  0  0
    9.1778   20.2275    4.6785 C   0  0  0  0  0  0  0  0  0  0  0  0
    9.3784   20.6791    3.3789 C   0  0  0  0  0  0  0  0  0  0  0  0
    8.9076   21.8606    2.9544 C   0  0  0  0  0  0  0  0  0  0  0  0
    8.2181   22.6099    3.8700 N   0  0  0  0  0  0  0  0  0  0  0  0
    8.0034   22.2030    5.1231 C   0  0  0  0  0  0  0  0  0  0  0  0
    8.4750   21.0166    5.5496 N   0  0  0  0  0  0  0  0  0  0  0  0
   11.0229   18.6599    4.9408 C   0  0  0  0  0  0  0  0  0  0  0  0
    9.6477   19.0046    5.0970 O   0  0  0  0  0  0  0  0  0  0  0  0
   10.5775   24.8212   -0.4755 C   0  0  0  0  0  0  0  0  0  0  0  0
   10.8140   24.6208   -1.8348 C   0  0  0  0  0  0  0  0  0  0  0  0
   11.8491   25.1490   -2.4772 C   0  0  0  0  0  0  0  0  0  0  0  0
   12.7835   25.9627   -1.7903 C   0  0  0  0  0  0  0  0  0  0  0  0
   12.5609   26.1703   -0.4599 C   0  0  0  0  0  0  0  0  0  0  0  0
   11.4456   25.5983    0.2013 C   0  0  0  0  0  0  0  0  0  0  0  0
   13.8963   26.4347   -2.5983 C   0  0  0  0  0  0  0  0  0  0  0  0
   13.6994   26.7954   -3.9262 C   0  0  0  0  0  0  0  0  0  0  0  0
   14.8234   27.0420   -4.7142 C   0  0  0  0  0  0  0  0  0  0  0  0
   16.1208   26.9569   -4.2597 C   0  0  0  0  0  0  0  0  0  0  0  0
   17.3603   27.0565   -4.8756 N   0  0  0  0  0  0  0  0  0  0  0  0
   18.2520   26.7410   -3.8419 C   0  0  0  0  0  0  0  0  0  0  0  0
   17.6421   26.5244   -2.8119 N   0  0  0  0  0  0  0  0  0  0  0  0
   16.2610   26.5997   -2.9024 C   0  0  0  0  0  0  0  0  0  0  0  0
   15.1947   26.3700   -2.1680 C   0  0  0  0  0  0  0  0  0  0  0  0
   18.0334   26.2700   -1.8239 H   0  0  0  0  0  0  0  0  0  0  0  0
    6.9304   19.1234   -2.1322 C   0  0  0  0  0  0  0  0  0  0  0  0
    6.5107   19.7805   -3.3368 C   0  0  0  0  0  0  0  0  0  0  0  0
    5.2030   19.9218   -3.6881 N   0  0  0  0  0  0  0  0  0  0  0  0
    4.8843   20.3163   -4.9358 C   0  0  0  0  0  0  0  0  0  0  0  0
    5.7868   20.5976   -5.9321 C   0  0  0  0  0  0  0  0  0  0  0  0
    7.1151   20.4554   -5.5809 C   0  0  0  0  0  0  0  0  0  0  0  0
    7.4427   20.0620   -4.3106 C   0  0  0  0  0  0  0  0  0  0  0  0
    8.9008   20.0940   -3.9856 C   0  0  0  0  0  0  0  0  0  0  0  0
 19 20  1  0  0  0
 20 13  1  0  0  0
 13 14  2  0  0  0
 14 15  1  0  0  0
 15 16  2  0  0  0
 16 17  1  0  0  0
 17 18  2  0  0  0
 15  1  1  0  0  0
  1  2  1  0  0  0
  2  3  2  0  0  0
  2  4  1  0  0  0
  4  5  1  0  0  0
  5  6  2  0  0  0
  5  7  1  0  0  0
  7  8  1  0  0  0
  8  9  1  0  0  0
  9 10  1  0  0  0
 10 37  1  0  0  0
 37 38  1  0  0  0
 38 39  2  0  0  0
 39 40  1  0  0  0
 40 41  2  0  0  0
 41 42  1  0  0  0
 42 43  2  0  0  0
 43 44  1  0  0  0
 10 11  1  0  0  0
 11 12  1  0  0  0
  4 21  1  0  0  0
 21 22  2  0  0  0
 22 23  1  0  0  0
 23 24  2  0  0  0
 24 25  1  0  0  0
 25 26  2  0  0  0
 24 27  1  0  0  0
 27 28  2  0  0  0
 28 29  1  0  0  0
 29 30  2  0  0  0
 30 31  1  0  0  0
 31 32  2  0  0  0
 32 33  1  0  0  0
 33 34  1  0  0  0
 34 35  2  0  0  0
 18 13  1  0  0  0
  7  1  1  0  0  0
 12  7  1  0  0  0
 26 21  1  0  0  0
 35 27  1  0  0  0
 43 38  1  0  0  0
 34 30  1  0  0  0
 33 36  1  0  0  0
M  END
> <minimizedAffinity>
22.49145

> <CNNscore>
0.3735371530

> <CNNaffinity>
6.8564820290

> <CNN_VS>
2.5611507893

> <CNNaffinity_variance>
0.4940081537

$$$$
[H]c1nc(OC([H])([H])[H])c([H])c(N2C(=O)N(c3c([H])c([H])c(-c4c([H])c([H])c5nc([H])n([H])c5c4[H])c([H])c3[H])C(=O)C23C([H])([H])C([H])([H])N(C([H])([H])c2nc([H])c([H])c([H])c2C([H])([H])[H])C([H])([H])C3([H])[H])n1


 44 50  0  0  0  0  0  0  0  0999 V2000
   10.9142   22.1919    0.2677 N   0  0  0  0  0  0  0  0  0  0  0  0
   11.3828   22.6733   -1.0669 C   0  0  0  0  0  0  0  0  0  0  0  0
   11.1939   22.0767   -2.1407 O   0  0  0  0  0  0  0  0  0  0  0  0
   12.0823   23.8969   -0.9021 N   0  0  0  0  0  0  0  0  0  0  0  0
   12.0947   24.1688    0.4771 C   0  0  0  0  0  0  0  0  0  0  0  0
   12.8681   24.9328    1.1052 O   0  0  0  0  0  0  0  0  0  0  0  0
   10.9593   23.3375    1.0867 C   0  0  0  0  0  0  0  0  0  0  0  0
   11.1922   23.1956    2.5220 C   0  0  0  0  0  0  0  0  0  0  0  0
    9.9636   23.3709    3.4272 C   0  0  0  0  0  0  0  0  0  0  0  0
    9.2740   24.4817    3.0044 N   0  0  0  0  0  0  0  0  0  0  0  0
    8.6579   24.2232    1.7129 C   0  0  0  0  0  0  0  0  0  0  0  0
    9.7333   24.1678    0.7243 C   0  0  0  0  0  0  0  0  0  0  0  0
    8.9745   19.0665   -0.0536 C   0  0  0  0  0  0  0  0  0  0  0  0
    9.3839   20.3770   -0.2728 C   0  0  0  0  0  0  0  0  0  0  0  0
   10.5364   20.8551    0.2180 C   0  0  0  0  0  0  0  0  0  0  0  0
   11.3001   19.9832    0.9474 N   0  0  0  0  0  0  0  0  0  0  0  0
   10.9333   18.7211    1.1807 C   0  0  0  0  0  0  0  0  0  0  0  0
    9.7759   18.2408    0.6890 N   0  0  0  0  0  0  0  0  0  0  0  0
    6.9377   19.4252   -1.3394 C   0  0  0  0  0  0  0  0  0  0  0  0
    7.7803   18.5928   -0.5447 O   0  0  0  0  0  0  0  0  0  0  0  0
   12.4382   24.6525   -2.0801 C   0  0  0  0  0  0  0  0  0  0  0  0
   13.3928   24.0648   -2.9089 C   0  0  0  0  0  0  0  0  0  0  0  0
   14.0046   24.7188   -3.8892 C   0  0  0  0  0  0  0  0  0  0  0  0
   13.7047   26.0799   -4.1432 C   0  0  0  0  0  0  0  0  0  0  0  0
   12.7684   26.6659   -3.3415 C   0  0  0  0  0  0  0  0  0  0  0  0
   12.1267   25.9441   -2.3044 C   0  0  0  0  0  0  0  0  0  0  0  0
   14.4817   26.6904   -5.2097 C   0  0  0  0  0  0  0  0  0  0  0  0
   15.2227   25.9014   -6.0818 C   0  0  0  0  0  0  0  0  0  0  0  0
   16.1090   26.5365   -6.9514 C   0  0  0  0  0  0  0  0  0  0  0  0
   16.2948   27.9000   -7.0071 C   0  0  0  0  0  0  0  0  0  0  0  0
   17.1723   28.7199   -7.7025 N   0  0  0  0  0  0  0  0  0  0  0  0
   16.8902   29.9919   -7.1874 C   0  0  0  0  0  0  0  0  0  0  0  0
   15.9965   29.9239   -6.3649 N   0  0  0  0  0  0  0  0  0  0  0  0
   15.5085   28.6519   -6.1095 C   0  0  0  0  0  0  0  0  0  0  0  0
   14.6754   28.0434   -5.2943 C   0  0  0  0  0  0  0  0  0  0  0  0
   15.5293   30.7285   -5.7919 H   0  0  0  0  0  0  0  0  0  0  0  0
    8.7041   25.4941    3.7389 C   0  0  0  0  0  0  0  0  0  0  0  0
    7.5343   25.2411    4.5305 C   0  0  0  0  0  0  0  0  0  0  0  0
    7.2251   24.0113    5.0259 N   0  0  0  0  0  0  0  0  0  0  0  0
    6.0007   23.7853    5.5394 C   0  0  0  0  0  0  0  0  0  0  0  0
    4.9890   24.7113    5.6113 C   0  0  0  0  0  0  0  0  0  0  0  0
    5.2973   25.9608    5.1095 C   0  0  0  0  0  0  0  0  0  0  0  0
    6.5442   26.1961    4.5939 C   0  0  0  0  0  0  0  0  0  0  0  0
    6.8284   27.6164    4.2268 C   0  0  0  0  0  0  0  0  0  0  0  0
 19 20  1  0  0  0
 20 13  1  0  0  0
 13 14  2  0  0  0
 14 15  1  0  0  0
 15 16  2  0  0  0
 16 17  1  0  0  0
 17 18  2  0  0  0
 15  1  1  0  0  0
  1  2  1  0  0  0
  2  3  2  0  0  0
  2  4  1  0  0  0
  4  5  1  0  0  0
  5  6  2  0  0  0
  5  7  1  0  0  0
  7  8  1  0  0  0
  8  9  1  0  0  0
  9 10  1  0  0  0
 10 37  1  0  0  0
 37 38  1  0  0  0
 38 39  2  0  0  0
 39 40  1  0  0  0
 40 41  2  0  0  0
 41 42  1  0  0  0
 42 43  2  0  0  0
 43 44  1  0  0  0
 10 11  1  0  0  0
 11 12  1  0  0  0
  4 21  1  0  0  0
 21 22  2  0  0  0
 22 23  1  0  0  0
 23 24  2  0  0  0
 24 25  1  0  0  0
 25 26  2  0  0  0
 24 27  1  0  0  0
 27 28  2  0  0  0
 28 29  1  0  0  0
 29 30  2  0  0  0
 30 31  1  0  0  0
 31 32  2  0  0  0
 32 33  1  0  0  0
 33 34  1  0  0  0
 34 35  2  0  0  0
 18 13  1  0  0  0
  7  1  1  0  0  0
 12  7  1  0  0  0
 26 21  1  0  0  0
 35 27  1  0  0  0
 43 38  1  0  0  0
 34 30  1  0  0  0
 33 36  1  0  0  0
M  END
> <minimizedAffinity>
9.50239

> <CNNscore>
0.3614210784

> <CNNaffinity>
7.1214361191

> <CNN_VS>
2.5738370419

> <CNNaffinity_variance>
0.2464943677

$$$$
[H]c1nc(OC([H])([H])[H])c([H])c(N2C(=O)N(c3c([H])c([H])c(-c4c([H])c([H])c5nc([H])n([H])c5c4[H])c([H])c3[H])C(=O)C23C([H])([H])C([H])([H])N(C([H])([H])c2nc([H])c([H])c([H])c2C([H])([H])[H])C([H])([H])C3([H])[H])n1


 44 50  0  0  0  0  0  0  0  0999 V2000
   13.4785   26.5150   -3.9977 N   0  0  0  0  0  0  0  0  0  0  0  0
   13.7050   25.6503   -2.8004 C   0  0  0  0  0  0  0  0  0  0  0  0
   14.8221   25.3197   -2.3674 O   0  0  0  0  0  0  0  0  0  0  0  0
   12.4510   25.2633   -2.2606 N   0  0  0  0  0  0  0  0  0  0  0  0
   11.4663   25.8220   -3.0940 C   0  0  0  0  0  0  0  0  0  0  0  0
   10.2650   25.4749   -3.2077 O   0  0  0  0  0  0  0  0  0  0  0  0
   12.1499   26.9628   -3.8576 C   0  0  0  0  0  0  0  0  0  0  0  0
   11.3609   27.2789   -5.0459 C   0  0  0  0  0  0  0  0  0  0  0  0
   11.1644   28.7717   -5.3501 C   0  0  0  0  0  0  0  0  0  0  0  0
   10.8285   29.4078   -4.1792 N   0  0  0  0  0  0  0  0  0  0  0  0
   11.9722   29.4346   -3.2817 C   0  0  0  0  0  0  0  0  0  0  0  0
   12.1822   28.0677   -2.8079 C   0  0  0  0  0  0  0  0  0  0  0  0
   16.7606   27.5773   -5.3141 C   0  0  0  0  0  0  0  0  0  0  0  0
   15.7524   27.2851   -4.4023 C   0  0  0  0  0  0  0  0  0  0  0  0
   14.6350   26.6357   -4.7593 C   0  0  0  0  0  0  0  0  0  0  0  0
   14.5347   26.2665   -6.0742 N   0  0  0  0  0  0  0  0  0  0  0  0
   15.4816   26.5365   -6.9755 C   0  0  0  0  0  0  0  0  0  0  0  0
   16.6033   27.1892   -6.6180 N   0  0  0  0  0  0  0  0  0  0  0  0
   18.3997   28.1637   -3.6111 C   0  0  0  0  0  0  0  0  0  0  0  0
   17.8934   28.2622   -4.9409 O   0  0  0  0  0  0  0  0  0  0  0  0
   12.4264   24.6033   -0.9765 C   0  0  0  0  0  0  0  0  0  0  0  0
   12.4154   23.2097   -1.0140 C   0  0  0  0  0  0  0  0  0  0  0  0
   12.1525   22.4569    0.0477 C   0  0  0  0  0  0  0  0  0  0  0  0
   11.8648   23.0539    1.2998 C   0  0  0  0  0  0  0  0  0  0  0  0
   11.8767   24.4177    1.3510 C   0  0  0  0  0  0  0  0  0  0  0  0
   12.1648   25.1982    0.2038 C   0  0  0  0  0  0  0  0  0  0  0  0
   11.5443   22.1187    2.3660 C   0  0  0  0  0  0  0  0  0  0  0  0
   12.3043   20.9689    2.5464 C   0  0  0  0  0  0  0  0  0  0  0  0
   11.8380   20.0062    3.4414 C   0  0  0  0  0  0  0  0  0  0  0  0
   10.6722   20.1230    4.1654 C   0  0  0  0  0  0  0  0  0  0  0  0
    9.9811   19.2690    5.0131 N   0  0  0  0  0  0  0  0  0  0  0  0
    8.8122   19.9866    5.2989 C   0  0  0  0  0  0  0  0  0  0  0  0
    8.8349   21.0670    4.7404 N   0  0  0  0  0  0  0  0  0  0  0  0
    9.9482   21.3146    3.9526 C   0  0  0  0  0  0  0  0  0  0  0  0
   10.3970   22.2162    3.1071 C   0  0  0  0  0  0  0  0  0  0  0  0
    8.0929   21.8687    4.7676 H   0  0  0  0  0  0  0  0  0  0  0  0
    9.8690   30.3631   -3.9425 C   0  0  0  0  0  0  0  0  0  0  0  0
    8.4804   30.0022   -3.9240 C   0  0  0  0  0  0  0  0  0  0  0  0
    7.7175   30.0445   -2.7972 N   0  0  0  0  0  0  0  0  0  0  0  0
    6.5043   29.4596   -2.7882 C   0  0  0  0  0  0  0  0  0  0  0  0
    5.9390   28.7925   -3.8473 C   0  0  0  0  0  0  0  0  0  0  0  0
    6.7092   28.7462   -4.9930 C   0  0  0  0  0  0  0  0  0  0  0  0
    7.9400   29.3469   -5.0079 C   0  0  0  0  0  0  0  0  0  0  0  0
    8.6213   29.3794   -6.3374 C   0  0  0  0  0  0  0  0  0  0  0  0
 19 20  1  0  0  0
 20 13  1  0  0  0
 13 14  2  0  0  0
 14 15  1  0  0  0
 15 16  2  0  0  0
 16 17  1  0  0  0
 17 18  2  0  0  0
 15  1  1  0  0  0
  1  2  1  0  0  0
  2  3  2  0  0  0
  2  4  1  0  0  0
  4  5  1  0  0  0
  5  6  2  0  0  0
  5  7  1  0  0  0
  7  8  1  0  0  0
  8  9  1  0  0  0
  9 10  1  0  0  0
 10 37  1  0  0  0
 37 38  1  0  0  0
 38 39  2  0  0  0
 39 40  1  0  0  0
 40 41  2  0  0  0
 41 42  1  0  0  0
 42 43  2  0  0  0
 43 44  1  0  0  0
 10 11  1  0  0  0
 11 12  1  0  0  0
  4 21  1  0  0  0
 21 22  2  0  0  0
 22 23  1  0  0  0
 23 24  2  0  0  0
 24 25  1  0  0  0
 25 26  2  0  0  0
 24 27  1  0  0  0
 27 28  2  0  0  0
 28 29  1  0  0  0
 29 30  2  0  0  0
 30 31  1  0  0  0
 31 32  2  0  0  0
 32 33  1  0  0  0
 33 34  1  0  0  0
 34 35  2  0  0  0
 18 13  1  0  0  0
  7  1  1  0  0  0
 12  7  1  0  0  0
 26 21  1  0  0  0
 35 27  1  0  0  0
 43 38  1  0  0  0
 34 30  1  0  0  0
 33 36  1  0  0  0
M  END
> <minimizedAffinity>
20.46873

> <CNNscore>
0.3576848507

> <CNNaffinity>
7.2487931252

> <CNN_VS>
2.5927834511

> <CNNaffinity_variance>
0.5190945268

$$$$
[H]c1nc(OC([H])([H])[H])c([H])c(N2C(=O)N(c3c([H])c([H])c(-c4c([H])c([H])c5nc([H])n([H])c5c4[H])c([H])c3[H])C(=O)C23C([H])([H])C([H])([H])N(C([H])([H])c2nc([H])c([H])c([H])c2C([H])([H])[H])C([H])([H])C3([H])[H])n1


 44 50  0  0  0  0  0  0  0  0999 V2000
   13.8150   23.0573   -1.2882 N   0  0  0  0  0  0  0  0  0  0  0  0
   12.9969   23.2245   -0.0491 C   0  0  0  0  0  0  0  0  0  0  0  0
   13.0581   22.4809    0.9449 O   0  0  0  0  0  0  0  0  0  0  0  0
   12.1413   24.3461   -0.2029 N   0  0  0  0  0  0  0  0  0  0  0  0
   12.3722   24.8522   -1.4940 C   0  0  0  0  0  0  0  0  0  0  0  0
   11.6252   25.5972   -2.1748 O   0  0  0  0  0  0  0  0  0  0  0  0
   13.7403   24.3111   -1.9267 C   0  0  0  0  0  0  0  0  0  0  0  0
   13.8449   24.3927   -3.3816 C   0  0  0  0  0  0  0  0  0  0  0  0
   15.1855   24.8975   -3.9362 C   0  0  0  0  0  0  0  0  0  0  0  0
   15.5609   26.0030   -3.2113 N   0  0  0  0  0  0  0  0  0  0  0  0
   15.9264   25.6110   -1.8596 C   0  0  0  0  0  0  0  0  0  0  0  0
   14.6940   25.2301   -1.1718 C   0  0  0  0  0  0  0  0  0  0  0  0
   15.4934   19.8926   -0.3930 C   0  0  0  0  0  0  0  0  0  0  0  0
   14.6753   21.0118   -0.2866 C   0  0  0  0  0  0  0  0  0  0  0  0
   14.4060   21.8001   -1.3372 C   0  0  0  0  0  0  0  0  0  0  0  0
   14.9755   21.4455   -2.5310 N   0  0  0  0  0  0  0  0  0  0  0  0
   15.7696   20.3810   -2.6657 C   0  0  0  0  0  0  0  0  0  0  0  0
   16.0412   19.5897   -1.6111 N   0  0  0  0  0  0  0  0  0  0  0  0
   16.4039   17.8312    0.5302 C   0  0  0  0  0  0  0  0  0  0  0  0
   15.7794   19.1028    0.6960 O   0  0  0  0  0  0  0  0  0  0  0  0
   11.4158   24.8239    0.9505 C   0  0  0  0  0  0  0  0  0  0  0  0
   10.2058   24.1822    1.2113 C   0  0  0  0  0  0  0  0  0  0  0  0
    9.3086   24.6467    2.0728 C   0  0  0  0  0  0  0  0  0  0  0  0
    9.5491   25.8475    2.7850 C   0  0  0  0  0  0  0  0  0  0  0  0
   10.7321   26.4833    2.5421 C   0  0  0  0  0  0  0  0  0  0  0  0
   11.6750   25.9639    1.6204 C   0  0  0  0  0  0  0  0  0  0  0  0
    8.4652   26.2711    3.6567 C   0  0  0  0  0  0  0  0  0  0  0  0
    7.8020   25.3473    4.4560 C   0  0  0  0  0  0  0  0  0  0  0  0
    6.6434   25.7591    5.1141 C   0  0  0  0  0  0  0  0  0  0  0  0
    6.1141   27.0277    5.0282 C   0  0  0  0  0  0  0  0  0  0  0  0
    4.9486   27.6137    5.5015 N   0  0  0  0  0  0  0  0  0  0  0  0
    4.9899   28.8961    4.9388 C   0  0  0  0  0  0  0  0  0  0  0  0
    6.0046   29.0350    4.2824 N   0  0  0  0  0  0  0  0  0  0  0  0
    6.8342   27.9266    4.2142 C   0  0  0  0  0  0  0  0  0  0  0  0
    7.9259   27.5285    3.5987 C   0  0  0  0  0  0  0  0  0  0  0  0
    6.3498   29.9128    3.7309 H   0  0  0  0  0  0  0  0  0  0  0  0
   16.0831   27.1995   -3.6413 C   0  0  0  0  0  0  0  0  0  0  0  0
   15.9976   27.5685   -5.0253 C   0  0  0  0  0  0  0  0  0  0  0  0
   16.7131   26.9494   -6.0041 N   0  0  0  0  0  0  0  0  0  0  0  0
   16.7825   27.4990   -7.2317 C   0  0  0  0  0  0  0  0  0  0  0  0
   16.1807   28.6748   -7.6080 C   0  0  0  0  0  0  0  0  0  0  0  0
   15.4538   29.3074   -6.6183 C   0  0  0  0  0  0  0  0  0  0  0  0
   15.3747   28.7470   -5.3711 C   0  0  0  0  0  0  0  0  0  0  0  0
   14.4372   29.4220   -4.4233 C   0  0  0  0  0  0  0  0  0  0  0  0
 19 20  1  0  0  0
 20 13  1  0  0  0
 13 14  2  0  0  0
 14 15  1  0  0  0
 15 16  2  0  0  0
 16 17  1  0  0  0
 17 18  2  0  0  0
 15  1  1  0  0  0
  1  2  1  0  0  0
  2  3  2  0  0  0
  2  4  1  0  0  0
  4  5  1  0  0  0
  5  6  2  0  0  0
  5  7  1  0  0  0
  7  8  1  0  0  0
  8  9  1  0  0  0
  9 10  1  0  0  0
 10 37  1  0  0  0
 37 38  1  0  0  0
 38 39  2  0  0  0
 39 40  1  0  0  0
 40 41  2  0  0  0
 41 42  1  0  0  0
 42 43  2  0  0  0
 43 44  1  0  0  0
 10 11  1  0  0  0
 11 12  1  0  0  0
  4 21  1  0  0  0
 21 22  2  0  0  0
 22 23  1  0  0  0
 23 24  2  0  0  0
 24 25  1  0  0  0
 25 26  2  0  0  0
 24 27  1  0  0  0
 27 28  2  0  0  0
 28 29  1  0  0  0
 29 30  2  0  0  0
 30 31  1  0  0  0
 31 32  2  0  0  0
 32 33  1  0  0  0
 33 34  1  0  0  0
 34 35  2  0  0  0
 18 13  1  0  0  0
  7  1  1  0  0  0
 12  7  1  0  0  0
 26 21  1  0  0  0
 35 27  1  0  0  0
 43 38  1  0  0  0
 34 30  1  0  0  0
 33 36  1  0  0  0
M  END
> <minimizedAffinity>
24.25168

> <CNNscore>
0.3457681239

> <CNNaffinity>
7.1249914169

> <CNN_VS>
2.4635949135

> <CNNaffinity_variance>
0.3465956151

$$$$
[H]c1nc(OC([H])([H])[H])c([H])c(N2C(=O)N(c3c([H])c([H])c(-c4c([H])c([H])c5nc([H])n([H])c5c4[H])c([H])c3[H])C(=O)C23C([H])([H])C([H])([H])N(C([H])([H])c2nc([H])c([H])c([H])c2C([H])([H])[H])C([H])([H])C3([H])[H])n1


 44 50  0  0  0  0  0  0  0  0999 V2000
   15.6844   23.9819   -0.6774 N   0  0  0  0  0  0  0  0  0  0  0  0
   14.5926   24.0191    0.3419 C   0  0  0  0  0  0  0  0  0  0  0  0
   14.7497   24.3247    1.5363 O   0  0  0  0  0  0  0  0  0  0  0  0
   13.3703   23.6372   -0.2696 N   0  0  0  0  0  0  0  0  0  0  0  0
   13.6703   23.3327   -1.6089 C   0  0  0  0  0  0  0  0  0  0  0  0
   12.9956   22.6430   -2.4123 O   0  0  0  0  0  0  0  0  0  0  0  0
   15.0085   24.0171   -1.9132 C   0  0  0  0  0  0  0  0  0  0  0  0
   15.6081   23.3872   -3.0872 C   0  0  0  0  0  0  0  0  0  0  0  0
   16.2332   24.3373   -4.1196 C   0  0  0  0  0  0  0  0  0  0  0  0
   15.3567   25.3736   -4.3352 N   0  0  0  0  0  0  0  0  0  0  0  0
   15.2873   26.2201   -3.1550 C   0  0  0  0  0  0  0  0  0  0  0  0
   14.5799   25.4650   -2.1223 C   0  0  0  0  0  0  0  0  0  0  0  0
   19.1002   23.1238    0.4316 C   0  0  0  0  0  0  0  0  0  0  0  0
   17.9756   23.2137   -0.3811 C   0  0  0  0  0  0  0  0  0  0  0  0
   16.9374   24.0054   -0.0761 C   0  0  0  0  0  0  0  0  0  0  0  0
   17.0396   24.7309    1.0809 N   0  0  0  0  0  0  0  0  0  0  0  0
   18.1025   24.6633    1.8856 C   0  0  0  0  0  0  0  0  0  0  0  0
   19.1448   23.8680    1.5803 N   0  0  0  0  0  0  0  0  0  0  0  0
   20.3591   21.8545   -1.2221 C   0  0  0  0  0  0  0  0  0  0  0  0
   20.1505   22.2927    0.1191 O   0  0  0  0  0  0  0  0  0  0  0  0
   12.1439   23.8082    0.4732 C   0  0  0  0  0  0  0  0  0  0  0  0
   12.0118   23.0143    1.6116 C   0  0  0  0  0  0  0  0  0  0  0  0
   10.8656   22.8681    2.2657 C   0  0  0  0  0  0  0  0  0  0  0  0
    9.6948   23.5320    1.8235 C   0  0  0  0  0  0  0  0  0  0  0  0
    9.8118   24.3160    0.7125 C   0  0  0  0  0  0  0  0  0  0  0  0
   11.0483   24.4585    0.0350 C   0  0  0  0  0  0  0  0  0  0  0  0
    8.4979   23.2459    2.5979 C   0  0  0  0  0  0  0  0  0  0  0  0
    8.0018   24.1809    3.4990 C   0  0  0  0  0  0  0  0  0  0  0  0
    6.9813   23.7843    4.3629 C   0  0  0  0  0  0  0  0  0  0  0  0
    6.4266   22.5237    4.3781 C   0  0  0  0  0  0  0  0  0  0  0  0
    5.4987   21.8950    5.1963 N   0  0  0  0  0  0  0  0  0  0  0  0
    5.4955   20.5789    4.7157 C   0  0  0  0  0  0  0  0  0  0  0  0
    6.2610   20.4724    3.7762 N   0  0  0  0  0  0  0  0  0  0  0  0
    6.9591   21.6203    3.4350 C   0  0  0  0  0  0  0  0  0  0  0  0
    7.9206   22.0045    2.6245 C   0  0  0  0  0  0  0  0  0  0  0  0
    6.4809   19.5922    3.1673 H   0  0  0  0  0  0  0  0  0  0  0  0
   14.9735   25.9692   -5.5131 C   0  0  0  0  0  0  0  0  0  0  0  0
   15.6929   27.1047   -6.0151 C   0  0  0  0  0  0  0  0  0  0  0  0
   15.8201   28.2689   -5.3209 N   0  0  0  0  0  0  0  0  0  0  0  0
   16.2830   29.3710   -5.9416 C   0  0  0  0  0  0  0  0  0  0  0  0
   16.6506   29.4399   -7.2631 C   0  0  0  0  0  0  0  0  0  0  0  0
   16.5230   28.2614   -7.9722 C   0  0  0  0  0  0  0  0  0  0  0  0
   16.0601   27.1370   -7.3419 C   0  0  0  0  0  0  0  0  0  0  0  0
   16.1115   25.8817   -8.1508 C   0  0  0  0  0  0  0  0  0  0  0  0
 19 20  1  0  0  0
 20 13  1  0  0  0
 13 14  2  0  0  0
 14 15  1  0  0  0
 15 16  2  0  0  0
 16 17  1  0  0  0
 17 18  2  0  0  0
 15  1  1  0  0  0
  1  2  1  0  0  0
  2  3  2  0  0  0
  2  4  1  0  0  0
  4  5  1  0  0  0
  5  6  2  0  0  0
  5  7  1  0  0  0
  7  8  1  0  0  0
  8  9  1  0  0  0
  9 10  1  0  0  0
 10 37  1  0  0  0
 37 38  1  0  0  0
 38 39  2  0  0  0
 39 40  1  0  0  0
 40 41  2  0  0  0
 41 42  1  0  0  0
 42 43  2  0  0  0
 43 44  1  0  0  0
 10 11  1  0  0  0
 11 12  1  0  0  0
  4 21  1  0  0  0
 21 22  2  0  0  0
 22 23  1  0  0  0
 23 24  2  0  0  0
 24 25  1  0  0  0
 25 26  2  0  0  0
 24 27  1  0  0  0
 27 28  2  0  0  0
 28 29  1  0  0  0
 29 30  2  0  0  0
 30 31  1  0  0  0
 31 32  2  0  0  0
 32 33  1  0  0  0
 33 34  1  0  0  0
 34 35  2  0  0  0
 18 13  1  0  0  0
  7  1  1  0  0  0
 12  7  1  0  0  0
 26 21  1  0  0  0
 35 27  1  0  0  0
 43 38  1  0  0  0
 34 30  1  0  0  0
 33 36  1  0  0  0
M  END
> <minimizedAffinity>
20.89389

> <CNNscore>
0.3397265077

> <CNNaffinity>
7.7600660324

> <CNN_VS>
2.6363000870

> <CNNaffinity_variance>
0.2645288110

$$$$
[H]c1nc2c([H])c(N([H])C(=O)C([H])([H])C3([H])C([H])([H])C3([H])[H])c([H])c(-c3c([H])c([H])c(C#N)c(F)c3[H])n2n1


 26 29  0  0  0  0  0  0  0  0999 V2000
   12.6553   23.0877   -1.2125 C   0  0  0  0  0  0  0  0  0  0  0  0
   11.3146   22.8298   -1.2453 C   0  0  0  0  0  0  0  0  0  0  0  0
   10.6752   21.8949   -0.4275 C   0  0  0  0  0  0  0  0  0  0  0  0
   11.5027   21.2296    0.4397 C   0  0  0  0  0  0  0  0  0  0  0  0
   12.8703   21.4847    0.4811 C   0  0  0  0  0  0  0  0  0  0  0  0
   13.8578   20.9650    1.2337 N   0  0  0  0  0  0  0  0  0  0  0  0
   15.0105   21.5501    0.8886 C   0  0  0  0  0  0  0  0  0  0  0  0
   14.7097   22.4319   -0.0835 N   0  0  0  0  0  0  0  0  0  0  0  0
   13.4101   22.3943   -0.3332 N   0  0  0  0  0  0  0  0  0  0  0  0
   16.0884   24.5196   -4.3791 F   0  0  0  0  0  0  0  0  0  0  0  0
   14.9781   24.7735   -3.6653 C   0  0  0  0  0  0  0  0  0  0  0  0
   14.4075   23.8261   -2.8320 C   0  0  0  0  0  0  0  0  0  0  0  0
   13.2683   24.0826   -2.0978 C   0  0  0  0  0  0  0  0  0  0  0  0
   12.6536   25.3149   -2.1749 C   0  0  0  0  0  0  0  0  0  0  0  0
   13.2218   26.2603   -3.0055 C   0  0  0  0  0  0  0  0  0  0  0  0
   14.3499   26.0084   -3.7334 C   0  0  0  0  0  0  0  0  0  0  0  0
   14.9370   27.0085   -4.6018 C   0  0  0  0  0  0  0  0  0  0  0  0
   15.4112   27.7949   -5.3078 N   0  0  0  0  0  0  0  0  0  0  0  0
    9.2841   21.7455   -0.5656 N   0  0  0  0  0  0  0  0  0  0  0  0
    8.3860   21.2882    0.4186 C   0  0  0  0  0  0  0  0  0  0  0  0
    8.7511   20.9572    1.5445 O   0  0  0  0  0  0  0  0  0  0  0  0
    8.8925   22.0220   -1.5325 H   0  0  0  0  0  0  0  0  0  0  0  0
    6.9385   21.1977    0.0953 C   0  0  0  0  0  0  0  0  0  0  0  0
    6.5519   19.8584   -0.4479 C   0  0  0  0  0  0  0  0  0  0  0  0
    7.4416   19.0517   -1.2869 C   0  0  0  0  0  0  0  0  0  0  0  0
    6.3730   19.8630   -1.9902 C   0  0  0  0  0  0  0  0  0  0  0  0
 10 11  1  0  0  0
 11 12  2  0  0  0
 12 13  1  0  0  0
 13 14  2  0  0  0
 14 15  1  0  0  0
 15 16  2  0  0  0
 16 17  1  0  0  0
 17 18  3  0  0  0
 13  1  1  0  0  0
  1  2  2  0  0  0
  2  3  1  0  0  0
  3 19  1  0  0  0
 19 20  1  0  0  0
 20 21  2  0  0  0
 20 23  1  0  0  0
 23 24  1  0  0  0
 24 25  1  0  0  0
 25 26  1  0  0  0
  3  4  2  0  0  0
  4  5  1  0  0  0
  5  6  2  0  0  0
  6  7  1  0  0  0
  7  8  2  0  0  0
  8  9  1  0  0  0
 16 11  1  0  0  0
  9  1  1  0  0  0
 26 24  1  0  0  0
  9  5  1  0  0  0
 19 22  1  0  0  0
M  END
> <minimizedAffinity>
-8.82466

> <CNNscore>
0.7314407825

> <CNNaffinity>
7.4112687111

> <CNN_VS>
5.4209041595

> <CNNaffinity_variance>
0.2857440412

$$$$
[H]c1nc2c([H])c(N([H])C(=O)C([H])([H])C3([H])C([H])([H])C3([H])[H])c([H])c(-c3c([H])c([H])c(C#N)c(F)c3[H])n2n1


 26 29  0  0  0  0  0  0  0  0999 V2000
   13.1724   22.9681   -1.3841 C   0  0  0  0  0  0  0  0  0  0  0  0
   11.8900   22.5145   -1.5049 C   0  0  0  0  0  0  0  0  0  0  0  0
   11.3326   21.5147   -0.7038 C   0  0  0  0  0  0  0  0  0  0  0  0
   12.1794   20.9992    0.2431 C   0  0  0  0  0  0  0  0  0  0  0  0
   13.4881   21.4543    0.3745 C   0  0  0  0  0  0  0  0  0  0  0  0
   14.4801   21.1037    1.2139 N   0  0  0  0  0  0  0  0  0  0  0  0
   15.5585   21.8444    0.9332 C   0  0  0  0  0  0  0  0  0  0  0  0
   15.2079   22.6493   -0.0878 N   0  0  0  0  0  0  0  0  0  0  0  0
   13.9506   22.4144   -0.4293 N   0  0  0  0  0  0  0  0  0  0  0  0
   12.9109   27.3713   -3.4836 F   0  0  0  0  0  0  0  0  0  0  0  0
   13.5526   26.2066   -3.2869 C   0  0  0  0  0  0  0  0  0  0  0  0
   13.0449   25.2182   -2.4607 C   0  0  0  0  0  0  0  0  0  0  0  0
   13.7001   24.0217   -2.2563 C   0  0  0  0  0  0  0  0  0  0  0  0
   14.9036   23.7718   -2.8819 C   0  0  0  0  0  0  0  0  0  0  0  0
   15.4108   24.7568   -3.7060 C   0  0  0  0  0  0  0  0  0  0  0  0
   14.7635   25.9424   -3.9098 C   0  0  0  0  0  0  0  0  0  0  0  0
   15.3056   26.9686   -4.7770 C   0  0  0  0  0  0  0  0  0  0  0  0
   15.7385   27.8010   -5.4563 N   0  0  0  0  0  0  0  0  0  0  0  0
    9.9928   21.1584   -0.9369 N   0  0  0  0  0  0  0  0  0  0  0  0
    8.9992   20.9406    0.0376 C   0  0  0  0  0  0  0  0  0  0  0  0
    9.2207   21.0428    1.2422 O   0  0  0  0  0  0  0  0  0  0  0  0
    9.7262   21.0536   -1.9775 H   0  0  0  0  0  0  0  0  0  0  0  0
    7.6262   20.5721   -0.3947 C   0  0  0  0  0  0  0  0  0  0  0  0
    7.6078   19.8600   -1.7105 C   0  0  0  0  0  0  0  0  0  0  0  0
    6.3765   19.6093   -2.4637 C   0  0  0  0  0  0  0  0  0  0  0  0
    6.9247   18.4679   -1.6322 C   0  0  0  0  0  0  0  0  0  0  0  0
 10 11  1  0  0  0
 11 12  2  0  0  0
 12 13  1  0  0  0
 13 14  2  0  0  0
 14 15  1  0  0  0
 15 16  2  0  0  0
 16 17  1  0  0  0
 17 18  3  0  0  0
 13  1  1  0  0  0
  1  2  2  0  0  0
  2  3  1  0  0  0
  3 19  1  0  0  0
 19 20  1  0  0  0
 20 21  2  0  0  0
 20 23  1  0  0  0
 23 24  1  0  0  0
 24 25  1  0  0  0
 25 26  1  0  0  0
  3  4  2  0  0  0
  4  5  1  0  0  0
  5  6  2  0  0  0
  6  7  1  0  0  0
  7  8  2  0  0  0
  8  9  1  0  0  0
 16 11  1  0  0  0
  9  1  1  0  0  0
 26 24  1  0  0  0
  9  5  1  0  0  0
 19 22  1  0  0  0
M  END
> <minimizedAffinity>
-8.64241

> <CNNscore>
0.7215292454

> <CNNaffinity>
7.4932756424

> <CNN_VS>
5.4066176414

> <CNNaffinity_variance>
0.3558857143

$$$$
[H]c1nc2c([H])c(N([H])C(=O)C([H])([H])C3([H])C([H])([H])C3([H])[H])c([H])c(-c3c([H])c([H])c(C#N)c(F)c3[H])n2n1


 26 29  0  0  0  0  0  0  0  0999 V2000
   13.7459   24.2043   -1.9227 C   0  0  0  0  0  0  0  0  0  0  0  0
   12.4912   23.6869   -1.7712 C   0  0  0  0  0  0  0  0  0  0  0  0
   11.9750   23.2227   -0.5588 C   0  0  0  0  0  0  0  0  0  0  0  0
   12.8330   23.3215    0.5059 C   0  0  0  0  0  0  0  0  0  0  0  0
   14.1137   23.8470    0.3623 C   0  0  0  0  0  0  0  0  0  0  0  0
   15.1098   24.0380    1.2472 N   0  0  0  0  0  0  0  0  0  0  0  0
   16.1519   24.5800    0.6064 C   0  0  0  0  0  0  0  0  0  0  0  0
   15.7751   24.7156   -0.6792 N   0  0  0  0  0  0  0  0  0  0  0  0
   14.5374   24.2710   -0.8304 N   0  0  0  0  0  0  0  0  0  0  0  0
   13.8567   27.4477   -5.5741 F   0  0  0  0  0  0  0  0  0  0  0  0
   14.2720   26.2944   -5.0224 C   0  0  0  0  0  0  0  0  0  0  0  0
   13.8073   25.8586   -3.7929 C   0  0  0  0  0  0  0  0  0  0  0  0
   14.2307   24.6758   -3.2234 C   0  0  0  0  0  0  0  0  0  0  0  0
   15.1474   23.8783   -3.8761 C   0  0  0  0  0  0  0  0  0  0  0  0
   15.6114   24.3120   -5.1021 C   0  0  0  0  0  0  0  0  0  0  0  0
   15.1933   25.4829   -5.6680 C   0  0  0  0  0  0  0  0  0  0  0  0
   15.6874   25.9276   -6.9552 C   0  0  0  0  0  0  0  0  0  0  0  0
   16.0787   26.3005   -7.9797 N   0  0  0  0  0  0  0  0  0  0  0  0
   10.6596   22.7267   -0.5530 N   0  0  0  0  0  0  0  0  0  0  0  0
   10.2710   21.3757   -0.4637 C   0  0  0  0  0  0  0  0  0  0  0  0
   11.0842   20.4577   -0.3819 O   0  0  0  0  0  0  0  0  0  0  0  0
    9.8906   23.4811   -0.6195 H   0  0  0  0  0  0  0  0  0  0  0  0
    8.8250   21.0339   -0.4678 C   0  0  0  0  0  0  0  0  0  0  0  0
    8.4883   19.9643   -1.4583 C   0  0  0  0  0  0  0  0  0  0  0  0
    7.1907   19.8835   -2.1336 C   0  0  0  0  0  0  0  0  0  0  0  0
    7.4066   18.9799   -0.9371 C   0  0  0  0  0  0  0  0  0  0  0  0
 10 11  1  0  0  0
 11 12  2  0  0  0
 12 13  1  0  0  0
 13 14  2  0  0  0
 14 15  1  0  0  0
 15 16  2  0  0  0
 16 17  1  0  0  0
 17 18  3  0  0  0
 13  1  1  0  0  0
  1  2  2  0  0  0
  2  3  1  0  0  0
  3 19  1  0  0  0
 19 20  1  0  0  0
 20 21  2  0  0  0
 20 23  1  0  0  0
 23 24  1  0  0  0
 24 25  1  0  0  0
 25 26  1  0  0  0
  3  4  2  0  0  0
  4  5  1  0  0  0
  5  6  2  0  0  0
  6  7  1  0  0  0
  7  8  2  0  0  0
  8  9  1  0  0  0
 16 11  1  0  0  0
  9  1  1  0  0  0
 26 24  1  0  0  0
  9  5  1  0  0  0
 19 22  1  0  0  0
M  END
> <minimizedAffinity>
-7.83398

> <CNNscore>
0.6815288067

> <CNNaffinity>
7.4235372543

> <CNN_VS>
5.0593543053

> <CNNaffinity_variance>
0.3569694161

$$$$
[H]c1nc2c([H])c(N([H])C(=O)C([H])([H])C3([H])C([H])([H])C3([H])[H])c([H])c(-c3c([H])c([H])c(C#N)c(F)c3[H])n2n1


 26 29  0  0  0  0  0  0  0  0999 V2000
   13.7411   24.4202   -1.9059 C   0  0  0  0  0  0  0  0  0  0  0  0
   12.4517   24.0165   -1.7076 C   0  0  0  0  0  0  0  0  0  0  0  0
   11.9307   23.6348   -0.4688 C   0  0  0  0  0  0  0  0  0  0  0  0
   12.8221   23.6923    0.5712 C   0  0  0  0  0  0  0  0  0  0  0  0
   14.1383   24.1022    0.3799 C   0  0  0  0  0  0  0  0  0  0  0  0
   15.1702   24.2343    1.2340 N   0  0  0  0  0  0  0  0  0  0  0  0
   16.2369   24.6659    0.5510 C   0  0  0  0  0  0  0  0  0  0  0  0
   15.8387   24.7942   -0.7289 N   0  0  0  0  0  0  0  0  0  0  0  0
   14.5642   24.4523   -0.8358 N   0  0  0  0  0  0  0  0  0  0  0  0
   13.8738   27.4366   -5.7463 F   0  0  0  0  0  0  0  0  0  0  0  0
   14.2812   26.3159   -5.1259 C   0  0  0  0  0  0  0  0  0  0  0  0
   13.8136   25.9583   -3.8725 C   0  0  0  0  0  0  0  0  0  0  0  0
   14.2291   24.8091   -3.2326 C   0  0  0  0  0  0  0  0  0  0  0  0
   15.1404   23.9675   -3.8356 C   0  0  0  0  0  0  0  0  0  0  0  0
   15.6073   24.3233   -5.0853 C   0  0  0  0  0  0  0  0  0  0  0  0
   15.1971   25.4608   -5.7210 C   0  0  0  0  0  0  0  0  0  0  0  0
   15.6942   25.8237   -7.0325 C   0  0  0  0  0  0  0  0  0  0  0  0
   16.0750   26.1203   -8.0855 N   0  0  0  0  0  0  0  0  0  0  0  0
   10.5787   23.2532   -0.4153 N   0  0  0  0  0  0  0  0  0  0  0  0
   10.0756   21.9916   -0.0418 C   0  0  0  0  0  0  0  0  0  0  0  0
   10.8060   21.0587    0.2852 O   0  0  0  0  0  0  0  0  0  0  0  0
    9.8781   24.0275   -0.6882 H   0  0  0  0  0  0  0  0  0  0  0  0
    8.6067   21.7671   -0.0392 C   0  0  0  0  0  0  0  0  0  0  0  0
    7.8914   22.6436    0.9399 C   0  0  0  0  0  0  0  0  0  0  0  0
    8.3452   22.8325    2.3200 C   0  0  0  0  0  0  0  0  0  0  0  0
    7.2226   21.8419    2.0891 C   0  0  0  0  0  0  0  0  0  0  0  0
 10 11  1  0  0  0
 11 12  2  0  0  0
 12 13  1  0  0  0
 13 14  2  0  0  0
 14 15  1  0  0  0
 15 16  2  0  0  0
 16 17  1  0  0  0
 17 18  3  0  0  0
 13  1  1  0  0  0
  1  2  2  0  0  0
  2  3  1  0  0  0
  3 19  1  0  0  0
 19 20  1  0  0  0
 20 21  2  0  0  0
 20 23  1  0  0  0
 23 24  1  0  0  0
 24 25  1  0  0  0
 25 26  1  0  0  0
  3  4  2  0  0  0
  4  5  1  0  0  0
  5  6  2  0  0  0
  6  7  1  0  0  0
  7  8  2  0  0  0
  8  9  1  0  0  0
 16 11  1  0  0  0
  9  1  1  0  0  0
 26 24  1  0  0  0
  9  5  1  0  0  0
 19 22  1  0  0  0
M  END
> <minimizedAffinity>
-7.54234

> <CNNscore>
0.6175273657

> <CNNaffinity>
7.2781209946

> <CNN_VS>
4.4944386482

> <CNNaffinity_variance>
0.2639262676

$$$$
[H]c1nc2c([H])c(N([H])C(=O)C([H])([H])C3([H])C([H])([H])C3([H])[H])c([H])c(-c3c([H])c([H])c(C#N)c(F)c3[H])n2n1


 26 29  0  0  0  0  0  0  0  0999 V2000
   13.2330   26.6562   -3.9538 C   0  0  0  0  0  0  0  0  0  0  0  0
   13.2313   25.9079   -2.8114 C   0  0  0  0  0  0  0  0  0  0  0  0
   14.1387   24.8794   -2.5457 C   0  0  0  0  0  0  0  0  0  0  0  0
   15.0625   24.6593   -3.5345 C   0  0  0  0  0  0  0  0  0  0  0  0
   15.0729   25.4160   -4.7025 C   0  0  0  0  0  0  0  0  0  0  0  0
   15.8680   25.3801   -5.7880 N   0  0  0  0  0  0  0  0  0  0  0  0
   15.4626   26.3241   -6.6453 C   0  0  0  0  0  0  0  0  0  0  0  0
   14.4110   26.9335   -6.0658 N   0  0  0  0  0  0  0  0  0  0  0  0
   14.1719   26.3838   -4.8854 N   0  0  0  0  0  0  0  0  0  0  0  0
   11.5836   31.2080   -3.3023 F   0  0  0  0  0  0  0  0  0  0  0  0
   11.4520   29.9831   -3.8399 C   0  0  0  0  0  0  0  0  0  0  0  0
   12.3842   28.9820   -3.6247 C   0  0  0  0  0  0  0  0  0  0  0  0
   12.2527   27.7238   -4.1745 C   0  0  0  0  0  0  0  0  0  0  0  0
   11.1671   27.4219   -4.9699 C   0  0  0  0  0  0  0  0  0  0  0  0
   10.2370   28.4195   -5.1851 C   0  0  0  0  0  0  0  0  0  0  0  0
   10.3652   29.6662   -4.6416 C   0  0  0  0  0  0  0  0  0  0  0  0
    9.3826   30.7050   -4.8745 C   0  0  0  0  0  0  0  0  0  0  0  0
    8.6037   31.5379   -5.0776 N   0  0  0  0  0  0  0  0  0  0  0  0
   14.0219   24.2023   -1.3192 N   0  0  0  0  0  0  0  0  0  0  0  0
   13.0361   23.2584   -0.9707 C   0  0  0  0  0  0  0  0  0  0  0  0
   12.1392   22.9236   -1.7415 O   0  0  0  0  0  0  0  0  0  0  0  0
   14.7816   24.4467   -0.5926 H   0  0  0  0  0  0  0  0  0  0  0  0
   13.0707   22.6364    0.3783 C   0  0  0  0  0  0  0  0  0  0  0  0
   13.4131   21.1806    0.3331 C   0  0  0  0  0  0  0  0  0  0  0  0
   14.6378   20.6314    0.9204 C   0  0  0  0  0  0  0  0  0  0  0  0
   14.6360   20.8776   -0.5743 C   0  0  0  0  0  0  0  0  0  0  0  0
 10 11  1  0  0  0
 11 12  2  0  0  0
 12 13  1  0  0  0
 13 14  2  0  0  0
 14 15  1  0  0  0
 15 16  2  0  0  0
 16 17  1  0  0  0
 17 18  3  0  0  0
 13  1  1  0  0  0
  1  2  2  0  0  0
  2  3  1  0  0  0
  3 19  1  0  0  0
 19 20  1  0  0  0
 20 21  2  0  0  0
 20 23  1  0  0  0
 23 24  1  0  0  0
 24 25  1  0  0  0
 25 26  1  0  0  0
  3  4  2  0  0  0
  4  5  1  0  0  0
  5  6  2  0  0  0
  6  7  1  0  0  0
  7  8  2  0  0  0
  8  9  1  0  0  0
 16 11  1  0  0  0
  9  1  1  0  0  0
 26 24  1  0  0  0
  9  5  1  0  0  0
 19 22  1  0  0  0
M  END
> <minimizedAffinity>
9.50901

> <CNNscore>
0.5918086767

> <CNNaffinity>
6.7277479172

> <CNN_VS>
3.9815394878

> <CNNaffinity_variance>
0.6660108566

$$$$
[H]c1nc2c([H])c(N([H])C(=O)C([H])([H])C3([H])C([H])([H])C3([H])[H])c([H])c(-c3c([H])c([H])c(C#N)c(F)c3[H])n2n1


 26 29  0  0  0  0  0  0  0  0999 V2000
   14.2810   24.6747   -2.4888 C   0  0  0  0  0  0  0  0  0  0  0  0
   14.8022   23.6304   -1.7799 C   0  0  0  0  0  0  0  0  0  0  0  0
   14.4443   23.3174   -0.4662 C   0  0  0  0  0  0  0  0  0  0  0  0
   13.5062   24.1502    0.0870 C   0  0  0  0  0  0  0  0  0  0  0  0
   12.9688   25.2174   -0.6266 C   0  0  0  0  0  0  0  0  0  0  0  0
   12.0549   26.1486   -0.2961 N   0  0  0  0  0  0  0  0  0  0  0  0
   11.8785   26.9637   -1.3424 C   0  0  0  0  0  0  0  0  0  0  0  0
   12.6974   26.5150   -2.3125 N   0  0  0  0  0  0  0  0  0  0  0  0
   13.3612   25.4541   -1.8804 N   0  0  0  0  0  0  0  0  0  0  0  0
   16.7197   23.5581   -6.5718 F   0  0  0  0  0  0  0  0  0  0  0  0
   15.9129   24.3817   -5.8807 C   0  0  0  0  0  0  0  0  0  0  0  0
   15.5255   24.1096   -4.5794 C   0  0  0  0  0  0  0  0  0  0  0  0
   14.6978   24.9522   -3.8667 C   0  0  0  0  0  0  0  0  0  0  0  0
   14.2236   26.1124   -4.4424 C   0  0  0  0  0  0  0  0  0  0  0  0
   14.6093   26.3845   -5.7399 C   0  0  0  0  0  0  0  0  0  0  0  0
   15.4289   25.5516   -6.4474 C   0  0  0  0  0  0  0  0  0  0  0  0
   15.8269   25.8478   -7.8086 C   0  0  0  0  0  0  0  0  0  0  0  0
   16.1304   26.0954   -8.8987 N   0  0  0  0  0  0  0  0  0  0  0  0
   15.0574   22.2032    0.1329 N   0  0  0  0  0  0  0  0  0  0  0  0
   16.1661   22.2198    1.0016 C   0  0  0  0  0  0  0  0  0  0  0  0
   16.7322   23.2597    1.3315 O   0  0  0  0  0  0  0  0  0  0  0  0
   14.6081   21.2528   -0.1116 H   0  0  0  0  0  0  0  0  0  0  0  0
   16.6810   20.9371    1.5469 C   0  0  0  0  0  0  0  0  0  0  0  0
   15.9367   19.7488    1.0249 C   0  0  0  0  0  0  0  0  0  0  0  0
   15.1495   19.7812   -0.2103 C   0  0  0  0  0  0  0  0  0  0  0  0
   14.3957   19.9246    1.0958 C   0  0  0  0  0  0  0  0  0  0  0  0
 10 11  1  0  0  0
 11 12  2  0  0  0
 12 13  1  0  0  0
 13 14  2  0  0  0
 14 15  1  0  0  0
 15 16  2  0  0  0
 16 17  1  0  0  0
 17 18  3  0  0  0
 13  1  1  0  0  0
  1  2  2  0  0  0
  2  3  1  0  0  0
  3 19  1  0  0  0
 19 20  1  0  0  0
 20 21  2  0  0  0
 20 23  1  0  0  0
 23 24  1  0  0  0
 24 25  1  0  0  0
 25 26  1  0  0  0
  3  4  2  0  0  0
  4  5  1  0  0  0
  5  6  2  0  0  0
  6  7  1  0  0  0
  7  8  2  0  0  0
  8  9  1  0  0  0
 16 11  1  0  0  0
  9  1  1  0  0  0
 26 24  1  0  0  0
  9  5  1  0  0  0
 19 22  1  0  0  0
M  END
> <minimizedAffinity>
7.58678

> <CNNscore>
0.5814999342

> <CNNaffinity>
6.9104394913

> <CNN_VS>
4.0184202194

> <CNNaffinity_variance>
1.0061290264

$$$$
[H]c1nc2c([H])c(N([H])C(=O)C([H])([H])C3([H])C([H])([H])C3([H])[H])c([H])c(-c3c([H])c([H])c(C#N)c(F)c3[H])n2n1


 26 29  0  0  0  0  0  0  0  0999 V2000
   12.8475   23.8558   -0.8319 C   0  0  0  0  0  0  0  0  0  0  0  0
   11.8886   24.3797   -0.0128 C   0  0  0  0  0  0  0  0  0  0  0  0
   11.3909   23.7372    1.1236 C   0  0  0  0  0  0  0  0  0  0  0  0
   11.9422   22.5076    1.3756 C   0  0  0  0  0  0  0  0  0  0  0  0
   12.9199   21.9646    0.5472 C   0  0  0  0  0  0  0  0  0  0  0  0
   13.5910   20.7988    0.5956 N   0  0  0  0  0  0  0  0  0  0  0  0
   14.4334   20.7479   -0.4427 C   0  0  0  0  0  0  0  0  0  0  0  0
   14.2648   21.8982   -1.1220 N   0  0  0  0  0  0  0  0  0  0  0  0
   13.3458   22.6393   -0.5230 N   0  0  0  0  0  0  0  0  0  0  0  0
   12.6224   27.5455   -4.0257 F   0  0  0  0  0  0  0  0  0  0  0  0
   13.2017   26.4158   -3.5841 C   0  0  0  0  0  0  0  0  0  0  0  0
   12.7380   25.7397   -2.4681 C   0  0  0  0  0  0  0  0  0  0  0  0
   13.3295   24.5801   -2.0119 C   0  0  0  0  0  0  0  0  0  0  0  0
   14.4215   24.0513   -2.6680 C   0  0  0  0  0  0  0  0  0  0  0  0
   14.8846   24.7247   -3.7808 C   0  0  0  0  0  0  0  0  0  0  0  0
   14.3003   25.8732   -4.2344 C   0  0  0  0  0  0  0  0  0  0  0  0
   14.7953   26.5711   -5.4035 C   0  0  0  0  0  0  0  0  0  0  0  0
   15.2082   27.1256   -6.3329 N   0  0  0  0  0  0  0  0  0  0  0  0
   10.4111   24.4054    1.8786 N   0  0  0  0  0  0  0  0  0  0  0  0
    9.0161   24.2329    1.7860 C   0  0  0  0  0  0  0  0  0  0  0  0
    8.4980   23.4467    0.9961 O   0  0  0  0  0  0  0  0  0  0  0  0
   10.7967   25.1120    2.5975 H   0  0  0  0  0  0  0  0  0  0  0  0
    8.1257   25.0266    2.6720 C   0  0  0  0  0  0  0  0  0  0  0  0
    8.8637   26.0794    3.4372 C   0  0  0  0  0  0  0  0  0  0  0  0
    8.5273   26.4462    4.8151 C   0  0  0  0  0  0  0  0  0  0  0  0
    8.0006   27.3405    3.7117 C   0  0  0  0  0  0  0  0  0  0  0  0
 10 11  1  0  0  0
 11 12  2  0  0  0
 12 13  1  0  0  0
 13 14  2  0  0  0
 14 15  1  0  0  0
 15 16  2  0  0  0
 16 17  1  0  0  0
 17 18  3  0  0  0
 13  1  1  0  0  0
  1  2  2  0  0  0
  2  3  1  0  0  0
  3 19  1  0  0  0
 19 20  1  0  0  0
 20 21  2  0  0  0
 20 23  1  0  0  0
 23 24  1  0  0  0
 24 25  1  0  0  0
 25 26  1  0  0  0
  3  4  2  0  0  0
  4  5  1  0  0  0
  5  6  2  0  0  0
  6  7  1  0  0  0
  7  8  2  0  0  0
  8  9  1  0  0  0
 16 11  1  0  0  0
  9  1  1  0  0  0
 26 24  1  0  0  0
  9  5  1  0  0  0
 19 22  1  0  0  0
M  END
> <minimizedAffinity>
-9.43653

> <CNNscore>
0.5369056463

> <CNNaffinity>
6.8982496262

> <CNN_VS>
3.7037091255

> <CNNaffinity_variance>
0.1529102772

$$$$
[H]c1nc2c([H])c(N([H])C(=O)C([H])([H])C3([H])C([H])([H])C3([H])[H])c([H])c(-c3c([H])c([H])c(C#N)c(F)c3[H])n2n1


 26 29  0  0  0  0  0  0  0  0999 V2000
   13.2032   26.2423   -3.5408 C   0  0  0  0  0  0  0  0  0  0  0  0
   12.8370   25.4691   -2.4764 C   0  0  0  0  0  0  0  0  0  0  0  0
   13.4432   24.2553   -2.1429 C   0  0  0  0  0  0  0  0  0  0  0  0
   14.4626   23.8745   -2.9768 C   0  0  0  0  0  0  0  0  0  0  0  0
   14.8434   24.6551   -4.0644 C   0  0  0  0  0  0  0  0  0  0  0  0
   15.7955   24.4861   -5.0007 N   0  0  0  0  0  0  0  0  0  0  0  0
   15.7606   25.5293   -5.8380 C   0  0  0  0  0  0  0  0  0  0  0  0
   14.7747   26.3337   -5.3975 N   0  0  0  0  0  0  0  0  0  0  0  0
   14.2157   25.8051   -4.3201 N   0  0  0  0  0  0  0  0  0  0  0  0
    9.5382   28.8321   -5.4711 F   0  0  0  0  0  0  0  0  0  0  0  0
   10.7026   28.7742   -4.8019 C   0  0  0  0  0  0  0  0  0  0  0  0
   11.3324   27.5723   -4.5254 C   0  0  0  0  0  0  0  0  0  0  0  0
   12.5272   27.5086   -3.8392 C   0  0  0  0  0  0  0  0  0  0  0  0
   13.1402   28.6637   -3.4005 C   0  0  0  0  0  0  0  0  0  0  0  0
   12.5130   29.8626   -3.6757 C   0  0  0  0  0  0  0  0  0  0  0  0
   11.3297   29.9280   -4.3551 C   0  0  0  0  0  0  0  0  0  0  0  0
   10.6809   31.1921   -4.6380 C   0  0  0  0  0  0  0  0  0  0  0  0
   10.1563   32.2035   -4.8469 N   0  0  0  0  0  0  0  0  0  0  0  0
   12.9664   23.5736   -1.0096 N   0  0  0  0  0  0  0  0  0  0  0  0
   12.6181   24.1447    0.2301 C   0  0  0  0  0  0  0  0  0  0  0  0
   12.7054   25.3507    0.4504 O   0  0  0  0  0  0  0  0  0  0  0  0
   12.8618   22.5066   -1.1333 H   0  0  0  0  0  0  0  0  0  0  0  0
   12.1249   23.2657    1.3218 C   0  0  0  0  0  0  0  0  0  0  0  0
   10.8042   22.6382    1.0044 C   0  0  0  0  0  0  0  0  0  0  0  0
    9.6128   23.4190    0.6620 C   0  0  0  0  0  0  0  0  0  0  0  0
    9.7280   22.9198    2.0875 C   0  0  0  0  0  0  0  0  0  0  0  0
 10 11  1  0  0  0
 11 12  2  0  0  0
 12 13  1  0  0  0
 13 14  2  0  0  0
 14 15  1  0  0  0
 15 16  2  0  0  0
 16 17  1  0  0  0
 17 18  3  0  0  0
 13  1  1  0  0  0
  1  2  2  0  0  0
  2  3  1  0  0  0
  3 19  1  0  0  0
 19 20  1  0  0  0
 20 21  2  0  0  0
 20 23  1  0  0  0
 23 24  1  0  0  0
 24 25  1  0  0  0
 25 26  1  0  0  0
  3  4  2  0  0  0
  4  5  1  0  0  0
  5  6  2  0  0  0
  6  7  1  0  0  0
  7  8  2  0  0  0
  8  9  1  0  0  0
 16 11  1  0  0  0
  9  1  1  0  0  0
 26 24  1  0  0  0
  9  5  1  0  0  0
 19 22  1  0  0  0
M  END
> <minimizedAffinity>
11.51538

> <CNNscore>
0.5145806074

> <CNNaffinity>
6.6655616760

> <CNN_VS>
3.4299688339

> <CNNaffinity_variance>
1.0008400679

$$$$
[H]c1nc2c([H])c(N([H])C(=O)C([H])([H])C3([H])C([H])([H])C3([H])[H])c([H])c(-c3c([H])c([H])c(C#N)c(F)c3[H])n2n1


 26 29  0  0  0  0  0  0  0  0999 V2000
   13.2082   24.5563   -1.3857 C   0  0  0  0  0  0  0  0  0  0  0  0
   12.8512   23.2920   -1.0129 C   0  0  0  0  0  0  0  0  0  0  0  0
   12.2720   22.9708    0.2173 C   0  0  0  0  0  0  0  0  0  0  0  0
   12.0768   24.0376    1.0559 C   0  0  0  0  0  0  0  0  0  0  0  0
   12.4372   25.3300    0.6857 C   0  0  0  0  0  0  0  0  0  0  0  0
   12.3428   26.5075    1.3308 N   0  0  0  0  0  0  0  0  0  0  0  0
   12.8331   27.4684    0.5391 C   0  0  0  0  0  0  0  0  0  0  0  0
   13.2262   26.8585   -0.5952 N   0  0  0  0  0  0  0  0  0  0  0  0
   12.9870   25.5592   -0.5089 N   0  0  0  0  0  0  0  0  0  0  0  0
   16.2420   23.4633   -5.0554 F   0  0  0  0  0  0  0  0  0  0  0  0
   15.3221   24.2715   -4.5008 C   0  0  0  0  0  0  0  0  0  0  0  0
   14.7572   24.0032   -3.2654 C   0  0  0  0  0  0  0  0  0  0  0  0
   13.8131   24.8300   -2.6929 C   0  0  0  0  0  0  0  0  0  0  0  0
   13.3971   25.9698   -3.3486 C   0  0  0  0  0  0  0  0  0  0  0  0
   13.9597   26.2382   -4.5806 C   0  0  0  0  0  0  0  0  0  0  0  0
   14.8949   25.4209   -5.1494 C   0  0  0  0  0  0  0  0  0  0  0  0
   15.4782   25.7130   -6.4429 C   0  0  0  0  0  0  0  0  0  0  0  0
   15.9300   25.9567   -7.4813 N   0  0  0  0  0  0  0  0  0  0  0  0
   11.9464   21.6244    0.4572 N   0  0  0  0  0  0  0  0  0  0  0  0
   12.6776   20.7093    1.2397 C   0  0  0  0  0  0  0  0  0  0  0  0
   13.7217   21.0147    1.8116 O   0  0  0  0  0  0  0  0  0  0  0  0
   11.0358   21.2875   -0.0141 H   0  0  0  0  0  0  0  0  0  0  0  0
   12.1778   19.3178    1.3870 C   0  0  0  0  0  0  0  0  0  0  0  0
   11.2649   19.1545    2.5611 C   0  0  0  0  0  0  0  0  0  0  0  0
   11.2886   20.0509    3.7197 C   0  0  0  0  0  0  0  0  0  0  0  0
   12.0148   18.7281    3.8521 C   0  0  0  0  0  0  0  0  0  0  0  0
 10 11  1  0  0  0
 11 12  2  0  0  0
 12 13  1  0  0  0
 13 14  2  0  0  0
 14 15  1  0  0  0
 15 16  2  0  0  0
 16 17  1  0  0  0
 17 18  3  0  0  0
 13  1  1  0  0  0
  1  2  2  0  0  0
  2  3  1  0  0  0
  3 19  1  0  0  0
 19 20  1  0  0  0
 20 21  2  0  0  0
 20 23  1  0  0  0
 23 24  1  0  0  0
 24 25  1  0  0  0
 25 26  1  0  0  0
  3  4  2  0  0  0
  4  5  1  0  0  0
  5  6  2  0  0  0
  6  7  1  0  0  0
  7  8  2  0  0  0
  8  9  1  0  0  0
 16 11  1  0  0  0
  9  1  1  0  0  0
 26 24  1  0  0  0
  9  5  1  0  0  0
 19 22  1  0  0  0
M  END
> <minimizedAffinity>
2.61887

> <CNNscore>
0.5063284039

> <CNNaffinity>
6.8387594223

> <CNN_VS>
3.4626581669

> <CNNaffinity_variance>
1.2123200893

$$$$
[H]c1nc2c([H])c([H])c([H])c(-c3c([H])nc(C#N)c([H])c3C([H])([H])[H])n2n1


 18 20  0  0  0  0  0  0  0  0999 V2000
   14.9961   23.1477   -3.2583 C   0  0  0  0  0  0  0  0  0  0  0  0
   14.7508   24.4699   -3.8914 C   0  0  0  0  0  0  0  0  0  0  0  0
   15.3185   24.7801   -5.1131 C   0  0  0  0  0  0  0  0  0  0  0  0
   15.0845   26.0035   -5.6870 C   0  0  0  0  0  0  0  0  0  0  0  0
   14.3055   26.8804   -5.0490 N   0  0  0  0  0  0  0  0  0  0  0  0
   13.7495   26.5879   -3.8615 C   0  0  0  0  0  0  0  0  0  0  0  0
   13.9465   25.3757   -3.2332 C   0  0  0  0  0  0  0  0  0  0  0  0
   13.3745   25.0113   -1.9609 C   0  0  0  0  0  0  0  0  0  0  0  0
   12.0093   24.9408   -1.8211 C   0  0  0  0  0  0  0  0  0  0  0  0
   11.4218   24.5899   -0.5992 C   0  0  0  0  0  0  0  0  0  0  0  0
   12.2525   24.3145    0.4689 C   0  0  0  0  0  0  0  0  0  0  0  0
   13.6186   24.3973    0.2845 C   0  0  0  0  0  0  0  0  0  0  0  0
   14.6171   24.1805    1.1548 N   0  0  0  0  0  0  0  0  0  0  0  0
   15.7837   24.3837    0.5172 C   0  0  0  0  0  0  0  0  0  0  0  0
   15.4711   24.7250   -0.7463 N   0  0  0  0  0  0  0  0  0  0  0  0
   14.1640   24.7419   -0.9179 N   0  0  0  0  0  0  0  0  0  0  0  0
   15.6951   26.2849   -6.9591 C   0  0  0  0  0  0  0  0  0  0  0  0
   16.1947   26.5029   -7.9850 N   0  0  0  0  0  0  0  0  0  0  0  0
  1  2  1  0  0  0
  2  3  2  0  0  0
  3  4  1  0  0  0
  4  5  2  0  0  0
  5  6  1  0  0  0
  6  7  2  0  0  0
  7  8  1  0  0  0
  8  9  2  0  0  0
  9 10  1  0  0  0
 10 11  2  0  0  0
 11 12  1  0  0  0
 12 13  2  0  0  0
 13 14  1  0  0  0
 14 15  2  0  0  0
 15 16  1  0  0  0
  4 17  1  0  0  0
 17 18  3  0  0  0
  7  2  1  0  0  0
 16  8  1  0  0  0
 16 12  1  0  0  0
M  END
> <minimizedAffinity>
-8.78107

> <CNNscore>
0.8986373544

> <CNNaffinity>
6.9009184837

> <CNN_VS>
6.2014231682

> <CNNaffinity_variance>
0.1210849509

$$$$
[H]c1nc2c([H])c([H])c([H])c(-c3c([H])nc(C#N)c([H])c3C([H])([H])[H])n2n1


 18 20  0  0  0  0  0  0  0  0999 V2000
   12.0588   25.3733   -1.1638 C   0  0  0  0  0  0  0  0  0  0  0  0
   13.1371   25.0978   -2.1491 C   0  0  0  0  0  0  0  0  0  0  0  0
   13.6269   26.1082   -2.9554 C   0  0  0  0  0  0  0  0  0  0  0  0
   14.6220   25.8416   -3.8606 C   0  0  0  0  0  0  0  0  0  0  0  0
   15.1037   24.5992   -3.9470 N   0  0  0  0  0  0  0  0  0  0  0  0
   14.6340   23.6109   -3.1677 C   0  0  0  0  0  0  0  0  0  0  0  0
   13.6349   23.8154   -2.2387 C   0  0  0  0  0  0  0  0  0  0  0  0
   13.0954   22.7916   -1.3788 C   0  0  0  0  0  0  0  0  0  0  0  0
   11.7985   22.3706   -1.5489 C   0  0  0  0  0  0  0  0  0  0  0  0
   11.2441   21.3783   -0.7308 C   0  0  0  0  0  0  0  0  0  0  0  0
   12.0371   20.8293    0.2574 C   0  0  0  0  0  0  0  0  0  0  0  0
   13.3347   21.2817    0.3935 C   0  0  0  0  0  0  0  0  0  0  0  0
   14.2864   20.9106    1.2642 N   0  0  0  0  0  0  0  0  0  0  0  0
   15.3930   21.6321    1.0120 C   0  0  0  0  0  0  0  0  0  0  0  0
   15.0918   22.4402   -0.0209 N   0  0  0  0  0  0  0  0  0  0  0  0
   13.8491   22.2504   -0.4182 N   0  0  0  0  0  0  0  0  0  0  0  0
   15.1024   26.9223   -4.6800 C   0  0  0  0  0  0  0  0  0  0  0  0
   15.4839   27.8023   -5.3356 N   0  0  0  0  0  0  0  0  0  0  0  0
  1  2  1  0  0  0
  2  3  2  0  0  0
  3  4  1  0  0  0
  4  5  2  0  0  0
  5  6  1  0  0  0
  6  7  2  0  0  0
  7  8  1  0  0  0
  8  9  2  0  0  0
  9 10  1  0  0  0
 10 11  2  0  0  0
 11 12  1  0  0  0
 12 13  2  0  0  0
 13 14  1  0  0  0
 14 15  2  0  0  0
 15 16  1  0  0  0
  4 17  1  0  0  0
 17 18  3  0  0  0
  7  2  1  0  0  0
 16  8  1  0  0  0
 16 12  1  0  0  0
M  END
> <minimizedAffinity>
-6.94698

> <CNNscore>
0.5923816562

> <CNNaffinity>
6.6468605995

> <CNN_VS>
3.9374783039

> <CNNaffinity_variance>
0.4817470014

$$$$
[H]c1nc2c([H])c([H])c([H])c(-c3c([H])nc(C#N)c([H])c3C([H])([H])[H])n2n1


 18 20  0  0  0  0  0  0  0  0999 V2000
   15.1741   22.8172   -3.4493 C   0  0  0  0  0  0  0  0  0  0  0  0
   15.2091   24.1922   -4.0124 C   0  0  0  0  0  0  0  0  0  0  0  0
   15.4110   24.3925   -5.3653 C   0  0  0  0  0  0  0  0  0  0  0  0
   15.4412   25.6661   -5.8729 C   0  0  0  0  0  0  0  0  0  0  0  0
   15.2734   26.6987   -5.0431 N   0  0  0  0  0  0  0  0  0  0  0  0
   15.0766   26.5140   -3.7271 C   0  0  0  0  0  0  0  0  0  0  0  0
   15.0358   25.2587   -3.1563 C   0  0  0  0  0  0  0  0  0  0  0  0
   14.8280   25.0049   -1.7523 C   0  0  0  0  0  0  0  0  0  0  0  0
   15.9087   24.9028   -0.9097 C   0  0  0  0  0  0  0  0  0  0  0  0
   15.7415   24.6569    0.4589 C   0  0  0  0  0  0  0  0  0  0  0  0
   14.4563   24.5186    0.9446 C   0  0  0  0  0  0  0  0  0  0  0  0
   13.3991   24.6286    0.0629 C   0  0  0  0  0  0  0  0  0  0  0  0
   12.0795   24.5342    0.2887 N   0  0  0  0  0  0  0  0  0  0  0  0
   11.4380   24.7115   -0.8800 C   0  0  0  0  0  0  0  0  0  0  0  0
   12.3906   24.9134   -1.8088 N   0  0  0  0  0  0  0  0  0  0  0  0
   13.5915   24.8687   -1.2665 N   0  0  0  0  0  0  0  0  0  0  0  0
   15.6540   25.8291   -7.2865 C   0  0  0  0  0  0  0  0  0  0  0  0
   15.8247   25.9494   -8.4294 N   0  0  0  0  0  0  0  0  0  0  0  0
  1  2  1  0  0  0
  2  3  2  0  0  0
  3  4  1  0  0  0
  4  5  2  0  0  0
  5  6  1  0  0  0
  6  7  2  0  0  0
  7  8  1  0  0  0
  8  9  2  0  0  0
  9 10  1  0  0  0
 10 11  2  0  0  0
 11 12  1  0  0  0
 12 13  2  0  0  0
 13 14  1  0  0  0
 14 15  2  0  0  0
 15 16  1  0  0  0
  4 17  1  0  0  0
 17 18  3  0  0  0
  7  2  1  0  0  0
 16  8  1  0  0  0
 16 12  1  0  0  0
M  END
> <minimizedAffinity>
-7.19067

> <CNNscore>
0.5859692693

> <CNNaffinity>
6.4163155556

> <CNN_VS>
3.7597637177

> <CNNaffinity_variance>
0.1347591877

$$$$
[H]c1nc2c([H])c([H])c([H])c(-c3c([H])nc(C#N)c([H])c3C([H])([H])[H])n2n1


 18 20  0  0  0  0  0  0  0  0999 V2000
   12.8596   25.9706   -2.6752 C   0  0  0  0  0  0  0  0  0  0  0  0
   13.9982   25.4115   -3.4498 C   0  0  0  0  0  0  0  0  0  0  0  0
   14.3145   25.9161   -4.6973 C   0  0  0  0  0  0  0  0  0  0  0  0
   15.3675   25.3918   -5.4023 C   0  0  0  0  0  0  0  0  0  0  0  0
   16.0742   24.3942   -4.8654 N   0  0  0  0  0  0  0  0  0  0  0  0
   15.7744   23.8972   -3.6539 C   0  0  0  0  0  0  0  0  0  0  0  0
   14.7283   24.3815   -2.8961 C   0  0  0  0  0  0  0  0  0  0  0  0
   14.3642   23.8851   -1.5923 C   0  0  0  0  0  0  0  0  0  0  0  0
   14.4223   24.7207   -0.5030 C   0  0  0  0  0  0  0  0  0  0  0  0
   14.0754   24.2701    0.7769 C   0  0  0  0  0  0  0  0  0  0  0  0
   13.6710   22.9575    0.9190 C   0  0  0  0  0  0  0  0  0  0  0  0
   13.6272   22.1524   -0.2021 C   0  0  0  0  0  0  0  0  0  0  0  0
   13.2735   20.8630   -0.3199 N   0  0  0  0  0  0  0  0  0  0  0  0
   13.3898   20.5103   -1.6125 C   0  0  0  0  0  0  0  0  0  0  0  0
   13.8176   21.6052   -2.2675 N   0  0  0  0  0  0  0  0  0  0  0  0
   13.9710   22.6182   -1.4377 N   0  0  0  0  0  0  0  0  0  0  0  0
   15.6619   25.9466   -6.6967 C   0  0  0  0  0  0  0  0  0  0  0  0
   15.8908   26.3887   -7.7465 N   0  0  0  0  0  0  0  0  0  0  0  0
  1  2  1  0  0  0
  2  3  2  0  0  0
  3  4  1  0  0  0
  4  5  2  0  0  0
  5  6  1  0  0  0
  6  7  2  0  0  0
  7  8  1  0  0  0
  8  9  2  0  0  0
  9 10  1  0  0  0
 10 11  2  0  0  0
 11 12  1  0  0  0
 12 13  2  0  0  0
 13 14  1  0  0  0
 14 15  2  0  0  0
 15 16  1  0  0  0
  4 17  1  0  0  0
 17 18  3  0  0  0
  7  2  1  0  0  0
 16  8  1  0  0  0
 16 12  1  0  0  0
M  END
> <minimizedAffinity>
-7.22156

> <CNNscore>
0.5541807413

> <CNNaffinity>
6.3340005875

> <CNN_VS>
3.5101811886

> <CNNaffinity_variance>
0.1101628318

$$$$
[H]c1nc2c([H])c([H])c([H])c(-c3c([H])nc(C#N)c([H])c3C([H])([H])[H])n2n1


 18 20  0  0  0  0  0  0  0  0999 V2000
   14.8097   22.3001   -2.7598 C   0  0  0  0  0  0  0  0  0  0  0  0
   14.1401   22.6624   -1.4833 C   0  0  0  0  0  0  0  0  0  0  0  0
   13.4063   21.7228   -0.7835 C   0  0  0  0  0  0  0  0  0  0  0  0
   12.7931   22.0693    0.3932 C   0  0  0  0  0  0  0  0  0  0  0  0
   12.9176   23.3195    0.8453 N   0  0  0  0  0  0  0  0  0  0  0  0
   13.6286   24.2394    0.1722 C   0  0  0  0  0  0  0  0  0  0  0  0
   14.2683   23.9530   -1.0160 C   0  0  0  0  0  0  0  0  0  0  0  0
   15.0429   24.9013   -1.7773 C   0  0  0  0  0  0  0  0  0  0  0  0
   16.3839   25.0518   -1.5184 C   0  0  0  0  0  0  0  0  0  0  0  0
   17.1646   25.9639   -2.2395 C   0  0  0  0  0  0  0  0  0  0  0  0
   16.5506   26.7132   -3.2235 C   0  0  0  0  0  0  0  0  0  0  0  0
   15.2008   26.5301   -3.4507 C   0  0  0  0  0  0  0  0  0  0  0  0
   14.3904   27.1293   -4.3370 N   0  0  0  0  0  0  0  0  0  0  0  0
   13.1536   26.6228   -4.1869 C   0  0  0  0  0  0  0  0  0  0  0  0
   13.2337   25.7124   -3.1993 N   0  0  0  0  0  0  0  0  0  0  0  0
   14.4642   25.6338   -2.7324 N   0  0  0  0  0  0  0  0  0  0  0  0
   12.0392   21.0606    1.0891 C   0  0  0  0  0  0  0  0  0  0  0  0
   11.4378   20.2469    1.6600 N   0  0  0  0  0  0  0  0  0  0  0  0
  1  2  1  0  0  0
  2  3  2  0  0  0
  3  4  1  0  0  0
  4  5  2  0  0  0
  5  6  1  0  0  0
  6  7  2  0  0  0
  7  8  1  0  0  0
  8  9  2  0  0  0
  9 10  1  0  0  0
 10 11  2  0  0  0
 11 12  1  0  0  0
 12 13  2  0  0  0
 13 14  1  0  0  0
 14 15  2  0  0  0
 15 16  1  0  0  0
  4 17  1  0  0  0
 17 18  3  0  0  0
  7  2  1  0  0  0
 16  8  1  0  0  0
 16 12  1  0  0  0
M  END
> <minimizedAffinity>
-7.17420

> <CNNscore>
0.5284340978

> <CNNaffinity>
6.4245338440

> <CNN_VS>
3.3949427605

> <CNNaffinity_variance>
0.4740622938

$$$$
[H]c1nc2c([H])c([H])c([H])c(-c3c([H])nc(C#N)c([H])c3C([H])([H])[H])n2n1


 18 20  0  0  0  0  0  0  0  0999 V2000
   15.7070   24.7444   -1.1955 C   0  0  0  0  0  0  0  0  0  0  0  0
   14.9209   25.4081   -2.2683 C   0  0  0  0  0  0  0  0  0  0  0  0
   15.5568   26.1294   -3.2614 C   0  0  0  0  0  0  0  0  0  0  0  0
   14.8204   26.7373   -4.2458 C   0  0  0  0  0  0  0  0  0  0  0  0
   13.4905   26.6199   -4.2264 N   0  0  0  0  0  0  0  0  0  0  0  0
   12.8637   25.9210   -3.2654 C   0  0  0  0  0  0  0  0  0  0  0  0
   13.5478   25.2872   -2.2488 C   0  0  0  0  0  0  0  0  0  0  0  0
   12.9253   24.5256   -1.1946 C   0  0  0  0  0  0  0  0  0  0  0  0
   12.2387   25.1751   -0.1971 C   0  0  0  0  0  0  0  0  0  0  0  0
   11.6227   24.4652    0.8411 C   0  0  0  0  0  0  0  0  0  0  0  0
   11.7224   23.0880    0.8386 C   0  0  0  0  0  0  0  0  0  0  0  0
   12.4218   22.4760   -0.1829 C   0  0  0  0  0  0  0  0  0  0  0  0
   12.6557   21.1727   -0.4026 N   0  0  0  0  0  0  0  0  0  0  0  0
   13.3855   21.0591   -1.5266 C   0  0  0  0  0  0  0  0  0  0  0  0
   13.5855   22.3111   -1.9773 N   0  0  0  0  0  0  0  0  0  0  0  0
   13.0124   23.1930   -1.1823 N   0  0  0  0  0  0  0  0  0  0  0  0
   15.5225   27.4781   -5.2599 C   0  0  0  0  0  0  0  0  0  0  0  0
   16.0843   28.0860   -6.0751 N   0  0  0  0  0  0  0  0  0  0  0  0
  1  2  1  0  0  0
  2  3  2  0  0  0
  3  4  1  0  0  0
  4  5  2  0  0  0
  5  6  1  0  0  0
  6  7  2  0  0  0
  7  8  1  0  0  0
  8  9  2  0  0  0
  9 10  1  0  0  0
 10 11  2  0  0  0
 11 12  1  0  0  0
 12 13  2  0  0  0
 13 14  1  0  0  0
 14 15  2  0  0  0
 15 16  1  0  0  0
  4 17  1  0  0  0
 17 18  3  0  0  0
  7  2  1  0  0  0
 16  8  1  0  0  0
 16 12  1  0  0  0
M  END
> <minimizedAffinity>
-7.17884

> <CNNscore>
0.4722031355

> <CNNaffinity>
6.2974195480

> <CNN_VS>
2.9736611843

> <CNNaffinity_variance>
0.1650113761

$$$$
[H]c1nc2c([H])c([H])c([H])c(-c3c([H])nc(C#N)c([H])c3C([H])([H])[H])n2n1


 18 20  0  0  0  0  0  0  0  0999 V2000
   16.3719   24.8453   -0.9060 C   0  0  0  0  0  0  0  0  0  0  0  0
   15.5598   25.2295   -2.0901 C   0  0  0  0  0  0  0  0  0  0  0  0
   15.9887   26.2307   -2.9413 C   0  0  0  0  0  0  0  0  0  0  0  0
   15.2306   26.5760   -4.0307 C   0  0  0  0  0  0  0  0  0  0  0  0
   14.0814   25.9326   -4.2508 N   0  0  0  0  0  0  0  0  0  0  0  0
   13.6564   24.9584   -3.4291 C   0  0  0  0  0  0  0  0  0  0  0  0
   14.3734   24.5655   -2.3179 C   0  0  0  0  0  0  0  0  0  0  0  0
   13.9635   23.5276   -1.4049 C   0  0  0  0  0  0  0  0  0  0  0  0
   14.5446   22.2846   -1.4790 C   0  0  0  0  0  0  0  0  0  0  0  0
   14.1694   21.2547   -0.6073 C   0  0  0  0  0  0  0  0  0  0  0  0
   13.1952   21.5199    0.3348 C   0  0  0  0  0  0  0  0  0  0  0  0
   12.6377   22.7827    0.3742 C   0  0  0  0  0  0  0  0  0  0  0  0
   11.6892   23.2775    1.1848 N   0  0  0  0  0  0  0  0  0  0  0  0
   11.4715   24.5604    0.8451 C   0  0  0  0  0  0  0  0  0  0  0  0
   12.3019   24.8277   -0.1795 N   0  0  0  0  0  0  0  0  0  0  0  0
   13.0226   23.7677   -0.4880 N   0  0  0  0  0  0  0  0  0  0  0  0
   15.7141   27.6234   -4.8904 C   0  0  0  0  0  0  0  0  0  0  0  0
   16.1143   28.4698   -5.5784 N   0  0  0  0  0  0  0  0  0  0  0  0
  1  2  1  0  0  0
  2  3  2  0  0  0
  3  4  1  0  0  0
  4  5  2  0  0  0
  5  6  1  0  0  0
  6  7  2  0  0  0
  7  8  1  0  0  0
  8  9  2  0  0  0
  9 10  1  0  0  0
 10 11  2  0  0  0
 11 12  1  0  0  0
 12 13  2  0  0  0
 13 14  1  0  0  0
 14 15  2  0  0  0
 15 16  1  0  0  0
  4 17  1  0  0  0
 17 18  3  0  0  0
  7  2  1  0  0  0
 16  8  1  0  0  0
 16 12  1  0  0  0
M  END
> <minimizedAffinity>
-6.78440

> <CNNscore>
0.4673739076

> <CNNaffinity>
6.3671789169

> <CNN_VS>
2.9758532047

> <CNNaffinity_variance>
0.2459141910

$$$$
[H]c1nc2c([H])c([H])c([H])c(-c3c([H])nc(C#N)c([H])c3C([H])([H])[H])n2n1


 18 20  0  0  0  0  0  0  0  0999 V2000
   13.3939   25.4992   -3.5855 C   0  0  0  0  0  0  0  0  0  0  0  0
   14.7670   25.6684   -3.0420 C   0  0  0  0  0  0  0  0  0  0  0  0
   15.5927   26.6696   -3.5181 C   0  0  0  0  0  0  0  0  0  0  0  0
   16.8575   26.8156   -3.0086 C   0  0  0  0  0  0  0  0  0  0  0  0
   17.2717   25.9800   -2.0530 N   0  0  0  0  0  0  0  0  0  0  0  0
   16.4764   25.0040   -1.5840 C   0  0  0  0  0  0  0  0  0  0  0  0
   15.1951   24.8060   -2.0554 C   0  0  0  0  0  0  0  0  0  0  0  0
   14.3015   23.7757   -1.5876 C   0  0  0  0  0  0  0  0  0  0  0  0
   14.4672   22.4813   -2.0179 C   0  0  0  0  0  0  0  0  0  0  0  0
   13.6168   21.4571   -1.5828 C   0  0  0  0  0  0  0  0  0  0  0  0
   12.6011   21.7813   -0.7052 C   0  0  0  0  0  0  0  0  0  0  0  0
   12.4706   23.0945   -0.2984 C   0  0  0  0  0  0  0  0  0  0  0  0
   11.5778   23.6503    0.5355 N   0  0  0  0  0  0  0  0  0  0  0  0
   11.8473   24.9648    0.6265 C   0  0  0  0  0  0  0  0  0  0  0  0
   12.9132   25.1891   -0.1637 N   0  0  0  0  0  0  0  0  0  0  0  0
   13.3141   24.0725   -0.7388 N   0  0  0  0  0  0  0  0  0  0  0  0
   17.6835   27.8706   -3.5327 C   0  0  0  0  0  0  0  0  0  0  0  0
   18.3587   28.7199   -3.9483 N   0  0  0  0  0  0  0  0  0  0  0  0
  1  2  1  0  0  0
  2  3  2  0  0  0
  3  4  1  0  0  0
  4  5  2  0  0  0
  5  6  1  0  0  0
  6  7  2  0  0  0
  7  8  1  0  0  0
  8  9  2  0  0  0
  9 10  1  0  0  0
 10 11  2  0  0  0
 11 12  1  0  0  0
 12 13  2  0  0  0
 13 14  1  0  0  0
 14 15  2  0  0  0
 15 16  1  0  0  0
  4 17  1  0  0  0
 17 18  3  0  0  0
  7  2  1  0  0  0
 16  8  1  0  0  0
 16 12  1  0  0  0
M  END
> <minimizedAffinity>
-6.73829

> <CNNscore>
0.4126369953

> <CNNaffinity>
6.3958482742

> <CNN_VS>
2.6391637325

> <CNNaffinity_variance>
0.2495644540

$$$$
[H]c1nc2c([H])c([H])c([H])c(-c3c([H])nc(C#N)c([H])c3C([H])([H])[H])n2n1


 18 20  0  0  0  0  0  0  0  0999 V2000
   12.9680   26.2268   -2.1618 C   0  0  0  0  0  0  0  0  0  0  0  0
   13.4713   24.8282   -2.1512 C   0  0  0  0  0  0  0  0  0  0  0  0
   12.6838   23.8018   -1.6640 C   0  0  0  0  0  0  0  0  0  0  0  0
   13.1594   22.5156   -1.6596 C   0  0  0  0  0  0  0  0  0  0  0  0
   14.3858   22.2764   -2.1305 N   0  0  0  0  0  0  0  0  0  0  0  0
   15.1583   23.2673   -2.6059 C   0  0  0  0  0  0  0  0  0  0  0  0
   14.7373   24.5807   -2.6373 C   0  0  0  0  0  0  0  0  0  0  0  0
   15.5250   25.6805   -3.1361 C   0  0  0  0  0  0  0  0  0  0  0  0
   16.4998   26.2369   -2.3434 C   0  0  0  0  0  0  0  0  0  0  0  0
   17.2823   27.3059   -2.7976 C   0  0  0  0  0  0  0  0  0  0  0  0
   17.0494   27.7906   -4.0695 C   0  0  0  0  0  0  0  0  0  0  0  0
   16.0600   27.2020   -4.8322 C   0  0  0  0  0  0  0  0  0  0  0  0
   15.6509   27.4895   -6.0778 N   0  0  0  0  0  0  0  0  0  0  0  0
   14.6560   26.6440   -6.4004 C   0  0  0  0  0  0  0  0  0  0  0  0
   14.4745   25.8464   -5.3320 N   0  0  0  0  0  0  0  0  0  0  0  0
   15.3124   26.1611   -4.3639 N   0  0  0  0  0  0  0  0  0  0  0  0
   12.3068   21.4778   -1.1435 C   0  0  0  0  0  0  0  0  0  0  0  0
   11.6099   20.6476   -0.7255 N   0  0  0  0  0  0  0  0  0  0  0  0
  1  2  1  0  0  0
  2  3  2  0  0  0
  3  4  1  0  0  0
  4  5  2  0  0  0
  5  6  1  0  0  0
  6  7  2  0  0  0
  7  8  1  0  0  0
  8  9  2  0  0  0
  9 10  1  0  0  0
 10 11  2  0  0  0
 11 12  1  0  0  0
 12 13  2  0  0  0
 13 14  1  0  0  0
 14 15  2  0  0  0
 15 16  1  0  0  0
  4 17  1  0  0  0
 17 18  3  0  0  0
  7  2  1  0  0  0
 16  8  1  0  0  0
 16 12  1  0  0  0
M  END
> <minimizedAffinity>
-7.28274

> <CNNscore>
0.3644230664

> <CNNaffinity>
6.1722860336

> <CNN_VS>
2.2493233681

> <CNNaffinity_variance>
0.3366695046

$$$$
[H]c1nc2c([H])c(N([H])C(=O)C3(C([H])([H])[H])C([H])([H])C3([H])[H])c([H])c(-c3c([H])c([H])c(C#N)c(F)c3[H])n2n1


 26 29  0  0  0  0  0  0  0  0999 V2000
   11.2173   21.8136   -0.5241 C   0  0  0  0  0  0  0  0  0  0  0  0
   11.7964   22.7374   -1.3867 C   0  0  0  0  0  0  0  0  0  0  0  0
   13.1186   23.1101   -1.3615 C   0  0  0  0  0  0  0  0  0  0  0  0
   13.8919   22.5193   -0.4170 N   0  0  0  0  0  0  0  0  0  0  0  0
   15.1675   22.6392   -0.1037 N   0  0  0  0  0  0  0  0  0  0  0  0
   15.4663   21.8426    0.9216 C   0  0  0  0  0  0  0  0  0  0  0  0
   14.3434   21.1983    1.2678 N   0  0  0  0  0  0  0  0  0  0  0  0
   13.3706   21.6230    0.4335 C   0  0  0  0  0  0  0  0  0  0  0  0
   12.0179   21.2374    0.4119 C   0  0  0  0  0  0  0  0  0  0  0  0
   13.6052   24.1126   -2.2991 C   0  0  0  0  0  0  0  0  0  0  0  0
   14.7682   23.8533   -3.0487 C   0  0  0  0  0  0  0  0  0  0  0  0
   15.2902   24.7697   -3.9310 C   0  0  0  0  0  0  0  0  0  0  0  0
   14.6801   25.9905   -4.1116 C   0  0  0  0  0  0  0  0  0  0  0  0
   13.5489   26.2342   -3.3779 C   0  0  0  0  0  0  0  0  0  0  0  0
   12.9079   27.4325   -3.5231 F   0  0  0  0  0  0  0  0  0  0  0  0
   13.0084   25.3296   -2.4871 C   0  0  0  0  0  0  0  0  0  0  0  0
   15.2366   26.9312   -5.0335 C   0  0  0  0  0  0  0  0  0  0  0  0
   15.6741   27.7033   -5.7699 N   0  0  0  0  0  0  0  0  0  0  0  0
    9.2374   20.2296   -0.5660 C   0  0  0  0  0  0  0  0  0  0  0  0
    9.8850   19.1900   -0.3541 O   0  0  0  0  0  0  0  0  0  0  0  0
    9.8504   21.4859   -0.6474 N   0  0  0  0  0  0  0  0  0  0  0  0
    9.2228   22.3539   -0.8369 H   0  0  0  0  0  0  0  0  0  0  0  0
    6.9361   21.2096   -0.0619 C   0  0  0  0  0  0  0  0  0  0  0  0
    7.7381   20.1479   -0.7434 C   0  0  0  0  0  0  0  0  0  0  0  0
    7.1973   18.8146   -1.0535 C   0  0  0  0  0  0  0  0  0  0  0  0
    7.2624   19.8266   -2.1664 C   0  0  0  0  0  0  0  0  0  0  0  0
 23 24  1  0  0  0
 24 25  1  0  0  0
 25 26  1  0  0  0
 24 19  1  0  0  0
 19 20  2  0  0  0
 19 21  1  0  0  0
 21  1  1  0  0  0
  1  2  1  0  0  0
  2  3  2  0  0  0
  3 10  1  0  0  0
 10 11  2  0  0  0
 11 12  1  0  0  0
 12 13  2  0  0  0
 13 17  1  0  0  0
 17 18  3  0  0  0
 13 14  1  0  0  0
 14 15  1  0  0  0
 14 16  2  0  0  0
  3  4  1  0  0  0
  4  5  1  0  0  0
  5  6  2  0  0  0
  6  7  1  0  0  0
  7  8  2  0  0  0
  8  9  1  0  0  0
 26 24  1  0  0  0
  9  1  2  0  0  0
 16 10  1  0  0  0
  8  4  1  0  0  0
 21 22  1  0  0  0
M  END
> <minimizedAffinity>
-8.97295

> <CNNscore>
0.7419685125

> <CNNaffinity>
7.5152602196

> <CNN_VS>
5.5760865211

> <CNNaffinity_variance>
0.4203127921

$$$$
[H]c1nc2c([H])c(N([H])C(=O)C3(C([H])([H])[H])C([H])([H])C3([H])[H])c([H])c(-c3c([H])c([H])c(C#N)c(F)c3[H])n2n1


 26 29  0  0  0  0  0  0  0  0999 V2000
   11.2375   21.7282   -0.5298 C   0  0  0  0  0  0  0  0  0  0  0  0
   11.8474   22.6289   -1.3956 C   0  0  0  0  0  0  0  0  0  0  0  0
   13.1779   22.9697   -1.3607 C   0  0  0  0  0  0  0  0  0  0  0  0
   13.9274   22.3698   -0.4028 N   0  0  0  0  0  0  0  0  0  0  0  0
   15.2024   22.4619   -0.0779 N   0  0  0  0  0  0  0  0  0  0  0  0
   15.4716   21.6687    0.9581 C   0  0  0  0  0  0  0  0  0  0  0  0
   14.3300   21.0553    1.2994 N   0  0  0  0  0  0  0  0  0  0  0  0
   13.3761   21.4950    0.4513 C   0  0  0  0  0  0  0  0  0  0  0  0
   12.0147   21.1422    0.4198 C   0  0  0  0  0  0  0  0  0  0  0  0
   13.6980   23.9506   -2.3032 C   0  0  0  0  0  0  0  0  0  0  0  0
   13.1068   25.2263   -2.3721 C   0  0  0  0  0  0  0  0  0  0  0  0
   13.5369   26.1859   -3.2579 C   0  0  0  0  0  0  0  0  0  0  0  0
   14.5779   25.9237   -4.1198 C   0  0  0  0  0  0  0  0  0  0  0  0
   15.1472   24.6796   -4.0458 C   0  0  0  0  0  0  0  0  0  0  0  0
   16.1840   24.3724   -4.8815 F   0  0  0  0  0  0  0  0  0  0  0  0
   14.7312   23.7020   -3.1653 C   0  0  0  0  0  0  0  0  0  0  0  0
   15.0123   26.9335   -5.0342 C   0  0  0  0  0  0  0  0  0  0  0  0
   15.3559   27.7375   -5.7859 N   0  0  0  0  0  0  0  0  0  0  0  0
    9.2204   20.1921   -0.5776 C   0  0  0  0  0  0  0  0  0  0  0  0
    9.8405   19.1391   -0.3507 O   0  0  0  0  0  0  0  0  0  0  0  0
    9.8644   21.4325   -0.6635 N   0  0  0  0  0  0  0  0  0  0  0  0
    9.2598   22.3138   -0.8664 H   0  0  0  0  0  0  0  0  0  0  0  0
    6.9358   21.2119   -0.0760 C   0  0  0  0  0  0  0  0  0  0  0  0
    7.7213   20.1451   -0.7687 C   0  0  0  0  0  0  0  0  0  0  0  0
    7.1553   18.8289   -1.1060 C   0  0  0  0  0  0  0  0  0  0  0  0
    7.2513   19.8580   -2.2009 C   0  0  0  0  0  0  0  0  0  0  0  0
 23 24  1  0  0  0
 24 25  1  0  0  0
 25 26  1  0  0  0
 24 19  1  0  0  0
 19 20  2  0  0  0
 19 21  1  0  0  0
 21  1  1  0  0  0
  1  2  1  0  0  0
  2  3  2  0  0  0
  3 10  1  0  0  0
 10 11  2  0  0  0
 11 12  1  0  0  0
 12 13  2  0  0  0
 13 17  1  0  0  0
 17 18  3  0  0  0
 13 14  1  0  0  0
 14 15  1  0  0  0
 14 16  2  0  0  0
  3  4  1  0  0  0
  4  5  1  0  0  0
  5  6  2  0  0  0
  6  7  1  0  0  0
  7  8  2  0  0  0
  8  9  1  0  0  0
 26 24  1  0  0  0
  9  1  2  0  0  0
 16 10  1  0  0  0
  8  4  1  0  0  0
 21 22  1  0  0  0
M  END
> <minimizedAffinity>
-8.70530

> <CNNscore>
0.7207909822

> <CNNaffinity>
7.4850606918

> <CNN_VS>
5.3951640129

> <CNNaffinity_variance>
0.3717394471

$$$$
[H]c1nc2c([H])c(N([H])C(=O)C3(C([H])([H])[H])C([H])([H])C3([H])[H])c([H])c(-c3c([H])c([H])c(C#N)c(F)c3[H])n2n1


 26 29  0  0  0  0  0  0  0  0999 V2000
   12.2185   23.4916   -0.3908 C   0  0  0  0  0  0  0  0  0  0  0  0
   12.6942   23.8800   -1.6380 C   0  0  0  0  0  0  0  0  0  0  0  0
   13.9705   24.3245   -1.8854 C   0  0  0  0  0  0  0  0  0  0  0  0
   14.8057   24.3786   -0.8183 N   0  0  0  0  0  0  0  0  0  0  0  0
   16.0634   24.7535   -0.6864 N   0  0  0  0  0  0  0  0  0  0  0  0
   16.4484   24.6335    0.5834 C   0  0  0  0  0  0  0  0  0  0  0  0
   15.4004   24.1679    1.2767 N   0  0  0  0  0  0  0  0  0  0  0  0
   14.3846   24.0123    0.4011 C   0  0  0  0  0  0  0  0  0  0  0  0
   13.0793   23.5561    0.6599 C   0  0  0  0  0  0  0  0  0  0  0  0
   14.3456   24.7330   -3.2320 C   0  0  0  0  0  0  0  0  0  0  0  0
   15.2438   23.9404   -3.9714 C   0  0  0  0  0  0  0  0  0  0  0  0
   15.6546   24.2862   -5.2372 C   0  0  0  0  0  0  0  0  0  0  0  0
   15.1914   25.4387   -5.8308 C   0  0  0  0  0  0  0  0  0  0  0  0
   14.3176   26.2038   -5.1039 C   0  0  0  0  0  0  0  0  0  0  0  0
   13.8303   27.3574   -5.6512 F   0  0  0  0  0  0  0  0  0  0  0  0
   13.8928   25.8761   -3.8327 C   0  0  0  0  0  0  0  0  0  0  0  0
   15.6289   25.7826   -7.1479 C   0  0  0  0  0  0  0  0  0  0  0  0
   15.9783   26.0422   -8.2157 N   0  0  0  0  0  0  0  0  0  0  0  0
   10.4346   21.7244   -0.0371 C   0  0  0  0  0  0  0  0  0  0  0  0
   11.2110   20.7586    0.0594 O   0  0  0  0  0  0  0  0  0  0  0  0
   10.8926   23.0307   -0.2479 N   0  0  0  0  0  0  0  0  0  0  0  0
   10.1570   23.8284   -0.3243 H   0  0  0  0  0  0  0  0  0  0  0  0
    8.3861   20.3826   -0.7541 C   0  0  0  0  0  0  0  0  0  0  0  0
    8.9444   21.4940    0.0752 C   0  0  0  0  0  0  0  0  0  0  0  0
    8.1431   22.6532    0.5000 C   0  0  0  0  0  0  0  0  0  0  0  0
    8.3772   21.5520    1.4998 C   0  0  0  0  0  0  0  0  0  0  0  0
 23 24  1  0  0  0
 24 25  1  0  0  0
 25 26  1  0  0  0
 24 19  1  0  0  0
 19 20  2  0  0  0
 19 21  1  0  0  0
 21  1  1  0  0  0
  1  2  1  0  0  0
  2  3  2  0  0  0
  3 10  1  0  0  0
 10 11  2  0  0  0
 11 12  1  0  0  0
 12 13  2  0  0  0
 13 17  1  0  0  0
 17 18  3  0  0  0
 13 14  1  0  0  0
 14 15  1  0  0  0
 14 16  2  0  0  0
  3  4  1  0  0  0
  4  5  1  0  0  0
  5  6  2  0  0  0
  6  7  1  0  0  0
  7  8  2  0  0  0
  8  9  1  0  0  0
 26 24  1  0  0  0
  9  1  2  0  0  0
 16 10  1  0  0  0
  8  4  1  0  0  0
 21 22  1  0  0  0
M  END
> <minimizedAffinity>
-7.64138

> <CNNscore>
0.6116701961

> <CNNaffinity>
7.3402342796

> <CNN_VS>
4.4898023605

> <CNNaffinity_variance>
0.3155833781

$$$$
[H]c1nc2c([H])c(N([H])C(=O)C3(C([H])([H])[H])C([H])([H])C3([H])[H])c([H])c(-c3c([H])c([H])c(C#N)c(F)c3[H])n2n1


 26 29  0  0  0  0  0  0  0  0999 V2000
   11.2214   23.8205    1.2785 C   0  0  0  0  0  0  0  0  0  0  0  0
   11.7631   24.3588    0.1168 C   0  0  0  0  0  0  0  0  0  0  0  0
   12.7946   23.7995   -0.5981 C   0  0  0  0  0  0  0  0  0  0  0  0
   13.3024   22.6392   -0.1133 N   0  0  0  0  0  0  0  0  0  0  0  0
   14.2755   21.8493   -0.5241 N   0  0  0  0  0  0  0  0  0  0  0  0
   14.4080   20.8138    0.3036 C   0  0  0  0  0  0  0  0  0  0  0  0
   13.4891   20.9535    1.2690 N   0  0  0  0  0  0  0  0  0  0  0  0
   12.8069   22.0880    1.0044 C   0  0  0  0  0  0  0  0  0  0  0  0
   11.7508   22.6561    1.7399 C   0  0  0  0  0  0  0  0  0  0  0  0
   13.2989   24.4729   -1.7869 C   0  0  0  0  0  0  0  0  0  0  0  0
   12.6934   25.6697   -2.2144 C   0  0  0  0  0  0  0  0  0  0  0  0
   13.1083   26.3381   -3.3421 C   0  0  0  0  0  0  0  0  0  0  0  0
   14.1475   25.8486   -4.1009 C   0  0  0  0  0  0  0  0  0  0  0  0
   14.7307   24.6834   -3.6773 C   0  0  0  0  0  0  0  0  0  0  0  0
   15.7664   24.1584   -4.3980 F   0  0  0  0  0  0  0  0  0  0  0  0
   14.3301   23.9963   -2.5497 C   0  0  0  0  0  0  0  0  0  0  0  0
   14.5660   26.5570   -5.2703 C   0  0  0  0  0  0  0  0  0  0  0  0
   14.9041   27.1119   -6.2229 N   0  0  0  0  0  0  0  0  0  0  0  0
    9.5220   24.1322    3.1347 C   0  0  0  0  0  0  0  0  0  0  0  0
    9.8807   23.1581    3.8183 O   0  0  0  0  0  0  0  0  0  0  0  0
   10.1473   24.4659    1.9271 N   0  0  0  0  0  0  0  0  0  0  0  0
    9.7807   25.3311    1.3791 H   0  0  0  0  0  0  0  0  0  0  0  0
    7.1007   24.2759    3.9269 C   0  0  0  0  0  0  0  0  0  0  0  0
    8.3742   24.9929    3.6122 C   0  0  0  0  0  0  0  0  0  0  0  0
    8.4144   26.4062    3.2030 C   0  0  0  0  0  0  0  0  0  0  0  0
    8.7468   26.0755    4.6338 C   0  0  0  0  0  0  0  0  0  0  0  0
 23 24  1  0  0  0
 24 25  1  0  0  0
 25 26  1  0  0  0
 24 19  1  0  0  0
 19 20  2  0  0  0
 19 21  1  0  0  0
 21  1  1  0  0  0
  1  2  1  0  0  0
  2  3  2  0  0  0
  3 10  1  0  0  0
 10 11  2  0  0  0
 11 12  1  0  0  0
 12 13  2  0  0  0
 13 17  1  0  0  0
 17 18  3  0  0  0
 13 14  1  0  0  0
 14 15  1  0  0  0
 14 16  2  0  0  0
  3  4  1  0  0  0
  4  5  1  0  0  0
  5  6  2  0  0  0
  6  7  1  0  0  0
  7  8  2  0  0  0
  8  9  1  0  0  0
 26 24  1  0  0  0
  9  1  2  0  0  0
 16 10  1  0  0  0
  8  4  1  0  0  0
 21 22  1  0  0  0
M  END
> <minimizedAffinity>
-9.76026

> <CNNscore>
0.6019064188

> <CNNaffinity>
6.9061937332

> <CNN_VS>
4.1568822861

> <CNNaffinity_variance>
0.1505826712

$$$$
[H]c1nc2c([H])c(N([H])C(=O)C3(C([H])([H])[H])C([H])([H])C3([H])[H])c([H])c(-c3c([H])c([H])c(C#N)c(F)c3[H])n2n1


 26 29  0  0  0  0  0  0  0  0999 V2000
   13.8294   23.8398   -1.9583 C   0  0  0  0  0  0  0  0  0  0  0  0
   14.5291   23.9681   -3.1527 C   0  0  0  0  0  0  0  0  0  0  0  0
   14.4322   25.0411   -4.0053 C   0  0  0  0  0  0  0  0  0  0  0  0
   13.5858   26.0323   -3.6306 N   0  0  0  0  0  0  0  0  0  0  0  0
   13.2450   27.1759   -4.1924 N   0  0  0  0  0  0  0  0  0  0  0  0
   12.3560   27.8147   -3.4330 C   0  0  0  0  0  0  0  0  0  0  0  0
   12.1272   27.0502   -2.3564 N   0  0  0  0  0  0  0  0  0  0  0  0
   12.8931   25.9459   -2.4855 C   0  0  0  0  0  0  0  0  0  0  0  0
   12.9888   24.8499   -1.6088 C   0  0  0  0  0  0  0  0  0  0  0  0
   15.1944   25.0497   -5.2462 C   0  0  0  0  0  0  0  0  0  0  0  0
   15.0742   26.1425   -6.1255 C   0  0  0  0  0  0  0  0  0  0  0  0
   15.7486   26.1970   -7.3224 C   0  0  0  0  0  0  0  0  0  0  0  0
   16.5771   25.1659   -7.7043 C   0  0  0  0  0  0  0  0  0  0  0  0
   16.6880   24.1066   -6.8424 C   0  0  0  0  0  0  0  0  0  0  0  0
   17.4989   23.0589   -7.1780 F   0  0  0  0  0  0  0  0  0  0  0  0
   16.0203   24.0311   -5.6372 C   0  0  0  0  0  0  0  0  0  0  0  0
   17.2709   25.2395   -8.9523 C   0  0  0  0  0  0  0  0  0  0  0  0
   17.8160   25.3088   -9.9661 N   0  0  0  0  0  0  0  0  0  0  0  0
   13.6322   22.5036    0.1880 C   0  0  0  0  0  0  0  0  0  0  0  0
   13.0335   23.3752    0.8413 O   0  0  0  0  0  0  0  0  0  0  0  0
   14.0164   22.7030   -1.1437 N   0  0  0  0  0  0  0  0  0  0  0  0
   14.5390   21.8976   -1.6551 H   0  0  0  0  0  0  0  0  0  0  0  0
   12.9290   20.6306    1.7717 C   0  0  0  0  0  0  0  0  0  0  0  0
   13.9619   21.1806    0.8414 C   0  0  0  0  0  0  0  0  0  0  0  0
   15.3933   20.8577    0.9571 C   0  0  0  0  0  0  0  0  0  0  0  0
   14.5870   20.1292   -0.0850 C   0  0  0  0  0  0  0  0  0  0  0  0
 23 24  1  0  0  0
 24 25  1  0  0  0
 25 26  1  0  0  0
 24 19  1  0  0  0
 19 20  2  0  0  0
 19 21  1  0  0  0
 21  1  1  0  0  0
  1  2  1  0  0  0
  2  3  2  0  0  0
  3 10  1  0  0  0
 10 11  2  0  0  0
 11 12  1  0  0  0
 12 13  2  0  0  0
 13 17  1  0  0  0
 17 18  3  0  0  0
 13 14  1  0  0  0
 14 15  1  0  0  0
 14 16  2  0  0  0
  3  4  1  0  0  0
  4  5  1  0  0  0
  5  6  2  0  0  0
  6  7  1  0  0  0
  7  8  2  0  0  0
  8  9  1  0  0  0
 26 24  1  0  0  0
  9  1  2  0  0  0
 16 10  1  0  0  0
  8  4  1  0  0  0
 21 22  1  0  0  0
M  END
> <minimizedAffinity>
9.19562

> <CNNscore>
0.5962777734

> <CNNaffinity>
6.9287385941

> <CNN_VS>
4.1314530373

> <CNNaffinity_variance>
0.9366495013

$$$$
[H]c1nc2c([H])c(N([H])C(=O)C3(C([H])([H])[H])C([H])([H])C3([H])[H])c([H])c(-c3c([H])c([H])c(C#N)c(F)c3[H])n2n1


 26 29  0  0  0  0  0  0  0  0999 V2000
   12.1079   23.4935   -0.4476 C   0  0  0  0  0  0  0  0  0  0  0  0
   12.6552   23.8779   -1.6664 C   0  0  0  0  0  0  0  0  0  0  0  0
   13.9376   24.3405   -1.8374 C   0  0  0  0  0  0  0  0  0  0  0  0
   14.7029   24.4179   -0.7205 N   0  0  0  0  0  0  0  0  0  0  0  0
   15.9438   24.8140   -0.5135 N   0  0  0  0  0  0  0  0  0  0  0  0
   16.2498   24.7119    0.7791 C   0  0  0  0  0  0  0  0  0  0  0  0
   15.1674   24.2360    1.4099 N   0  0  0  0  0  0  0  0  0  0  0  0
   14.2114   24.0561    0.4737 C   0  0  0  0  0  0  0  0  0  0  0  0
   12.8995   23.5815    0.6545 C   0  0  0  0  0  0  0  0  0  0  0  0
   14.3905   24.7425   -3.1619 C   0  0  0  0  0  0  0  0  0  0  0  0
   13.9259   25.9504   -3.7158 C   0  0  0  0  0  0  0  0  0  0  0  0
   14.2978   26.3714   -4.9708 C   0  0  0  0  0  0  0  0  0  0  0  0
   15.1516   25.6108   -5.7375 C   0  0  0  0  0  0  0  0  0  0  0  0
   15.5987   24.4369   -5.1904 C   0  0  0  0  0  0  0  0  0  0  0  0
   16.4482   23.6477   -5.9137 F   0  0  0  0  0  0  0  0  0  0  0  0
   15.2380   23.9953   -3.9339 C   0  0  0  0  0  0  0  0  0  0  0  0
   15.5280   26.0641   -7.0403 C   0  0  0  0  0  0  0  0  0  0  0  0
   15.8438   26.4153   -8.0923 N   0  0  0  0  0  0  0  0  0  0  0  0
   10.3320   21.7081   -0.1484 C   0  0  0  0  0  0  0  0  0  0  0  0
   11.1149   20.7634    0.0502 O   0  0  0  0  0  0  0  0  0  0  0  0
   10.7828   23.0128   -0.3837 N   0  0  0  0  0  0  0  0  0  0  0  0
   10.0419   23.7913   -0.5515 H   0  0  0  0  0  0  0  0  0  0  0  0
    8.3581   20.3421   -1.0136 C   0  0  0  0  0  0  0  0  0  0  0  0
    8.8417   21.4529   -0.1378 C   0  0  0  0  0  0  0  0  0  0  0  0
    7.9949   22.5946    0.2443 C   0  0  0  0  0  0  0  0  0  0  0  0
    8.1803   21.4862    1.2463 C   0  0  0  0  0  0  0  0  0  0  0  0
 23 24  1  0  0  0
 24 25  1  0  0  0
 25 26  1  0  0  0
 24 19  1  0  0  0
 19 20  2  0  0  0
 19 21  1  0  0  0
 21  1  1  0  0  0
  1  2  1  0  0  0
  2  3  2  0  0  0
  3 10  1  0  0  0
 10 11  2  0  0  0
 11 12  1  0  0  0
 12 13  2  0  0  0
 13 17  1  0  0  0
 17 18  3  0  0  0
 13 14  1  0  0  0
 14 15  1  0  0  0
 14 16  2  0  0  0
  3  4  1  0  0  0
  4  5  1  0  0  0
  5  6  2  0  0  0
  6  7  1  0  0  0
  7  8  2  0  0  0
  8  9  1  0  0  0
 26 24  1  0  0  0
  9  1  2  0  0  0
 16 10  1  0  0  0
  8  4  1  0  0  0
 21 22  1  0  0  0
M  END
> <minimizedAffinity>
-6.41159

> <CNNscore>
0.5955457687

> <CNNaffinity>
7.3078908920

> <CNN_VS>
4.3521833420

> <CNNaffinity_variance>
0.5455504656

$$$$
[H]c1nc2c([H])c(N([H])C(=O)C3(C([H])([H])[H])C([H])([H])C3([H])[H])c([H])c(-c3c([H])c([H])c(C#N)c(F)c3[H])n2n1


 26 29  0  0  0  0  0  0  0  0999 V2000
   14.8005   23.7697   -3.6420 C   0  0  0  0  0  0  0  0  0  0  0  0
   14.1489   24.9967   -3.5911 C   0  0  0  0  0  0  0  0  0  0  0  0
   14.2038   25.9535   -4.5757 C   0  0  0  0  0  0  0  0  0  0  0  0
   14.9549   25.6536   -5.6643 N   0  0  0  0  0  0  0  0  0  0  0  0
   15.2340   26.3196   -6.7680 N   0  0  0  0  0  0  0  0  0  0  0  0
   16.0363   25.5986   -7.5500 C   0  0  0  0  0  0  0  0  0  0  0  0
   16.2722   24.4394   -6.9203 N   0  0  0  0  0  0  0  0  0  0  0  0
   15.5986   24.4803   -5.7510 C   0  0  0  0  0  0  0  0  0  0  0  0
   15.5455   23.4971   -4.7464 C   0  0  0  0  0  0  0  0  0  0  0  0
   13.5012   27.2165   -4.3964 C   0  0  0  0  0  0  0  0  0  0  0  0
   14.2089   28.3440   -3.9386 C   0  0  0  0  0  0  0  0  0  0  0  0
   13.5965   29.5566   -3.7264 C   0  0  0  0  0  0  0  0  0  0  0  0
   12.2482   29.7078   -3.9599 C   0  0  0  0  0  0  0  0  0  0  0  0
   11.5675   28.6052   -4.4052 C   0  0  0  0  0  0  0  0  0  0  0  0
   10.2269   28.7063   -4.6510 F   0  0  0  0  0  0  0  0  0  0  0  0
   12.1618   27.3793   -4.6242 C   0  0  0  0  0  0  0  0  0  0  0  0
   11.6278   30.9761   -3.7342 C   0  0  0  0  0  0  0  0  0  0  0  0
   11.1409   32.0072   -3.5627 N   0  0  0  0  0  0  0  0  0  0  0  0
   14.3983   23.0957   -1.2305 C   0  0  0  0  0  0  0  0  0  0  0  0
   14.2397   24.2463   -0.7879 O   0  0  0  0  0  0  0  0  0  0  0  0
   14.6625   22.8474   -2.5831 N   0  0  0  0  0  0  0  0  0  0  0  0
   14.7921   21.8154   -2.9015 H   0  0  0  0  0  0  0  0  0  0  0  0
   14.7142   20.5929   -0.8474 C   0  0  0  0  0  0  0  0  0  0  0  0
   14.3053   21.9174   -0.2876 C   0  0  0  0  0  0  0  0  0  0  0  0
   13.3483   22.0538    0.8223 C   0  0  0  0  0  0  0  0  0  0  0  0
   14.8158   22.1748    1.1363 C   0  0  0  0  0  0  0  0  0  0  0  0
 23 24  1  0  0  0
 24 25  1  0  0  0
 25 26  1  0  0  0
 24 19  1  0  0  0
 19 20  2  0  0  0
 19 21  1  0  0  0
 21  1  1  0  0  0
  1  2  1  0  0  0
  2  3  2  0  0  0
  3 10  1  0  0  0
 10 11  2  0  0  0
 11 12  1  0  0  0
 12 13  2  0  0  0
 13 17  1  0  0  0
 17 18  3  0  0  0
 13 14  1  0  0  0
 14 15  1  0  0  0
 14 16  2  0  0  0
  3  4  1  0  0  0
  4  5  1  0  0  0
  5  6  2  0  0  0
  6  7  1  0  0  0
  7  8  2  0  0  0
  8  9  1  0  0  0
 26 24  1  0  0  0
  9  1  2  0  0  0
 16 10  1  0  0  0
  8  4  1  0  0  0
 21 22  1  0  0  0
M  END
> <minimizedAffinity>
13.04389

> <CNNscore>
0.5727561712

> <CNNaffinity>
6.6782059669

> <CNN_VS>
3.8249835968

> <CNNaffinity_variance>
0.7206452489

$$$$
[H]c1nc2c([H])c(N([H])C(=O)C3(C([H])([H])[H])C([H])([H])C3([H])[H])c([H])c(-c3c([H])c([H])c(C#N)c(F)c3[H])n2n1


 26 29  0  0  0  0  0  0  0  0999 V2000
   13.6104   24.1581   -2.6683 C   0  0  0  0  0  0  0  0  0  0  0  0
   14.3658   24.3410   -3.8210 C   0  0  0  0  0  0  0  0  0  0  0  0
   14.4446   25.5171   -4.5268 C   0  0  0  0  0  0  0  0  0  0  0  0
   13.7236   26.5586   -4.0423 N   0  0  0  0  0  0  0  0  0  0  0  0
   13.5591   27.8003   -4.4556 N   0  0  0  0  0  0  0  0  0  0  0  0
   12.7346   28.4522   -3.6370 C   0  0  0  0  0  0  0  0  0  0  0  0
   12.3657   27.5951   -2.6752 N   0  0  0  0  0  0  0  0  0  0  0  0
   12.9826   26.4222   -2.9329 C   0  0  0  0  0  0  0  0  0  0  0  0
   12.8986   25.2206   -2.2062 C   0  0  0  0  0  0  0  0  0  0  0  0
   15.2477   25.5798   -5.7401 C   0  0  0  0  0  0  0  0  0  0  0  0
   15.6351   24.3856   -6.3768 C   0  0  0  0  0  0  0  0  0  0  0  0
   16.4133   24.3792   -7.5103 C   0  0  0  0  0  0  0  0  0  0  0  0
   16.8448   25.5619   -8.0673 C   0  0  0  0  0  0  0  0  0  0  0  0
   16.4630   26.7192   -7.4409 C   0  0  0  0  0  0  0  0  0  0  0  0
   16.8669   27.9185   -7.9569 F   0  0  0  0  0  0  0  0  0  0  0  0
   15.6833   26.7486   -6.3029 C   0  0  0  0  0  0  0  0  0  0  0  0
   17.6532   25.5365   -9.2465 C   0  0  0  0  0  0  0  0  0  0  0  0
   18.3162   25.5293  -10.1899 N   0  0  0  0  0  0  0  0  0  0  0  0
   14.0759   22.6004   -0.7221 C   0  0  0  0  0  0  0  0  0  0  0  0
   14.5650   23.4594    0.0313 O   0  0  0  0  0  0  0  0  0  0  0  0
   13.6138   22.9118   -2.0067 N   0  0  0  0  0  0  0  0  0  0  0  0
   13.1988   22.1099   -2.6133 H   0  0  0  0  0  0  0  0  0  0  0  0
   13.7299   20.1405   -1.3054 C   0  0  0  0  0  0  0  0  0  0  0  0
   13.9708   21.1687   -0.2473 C   0  0  0  0  0  0  0  0  0  0  0  0
   13.5617   20.9826    1.1543 C   0  0  0  0  0  0  0  0  0  0  0  0
   15.0070   20.7483    0.8034 C   0  0  0  0  0  0  0  0  0  0  0  0
 23 24  1  0  0  0
 24 25  1  0  0  0
 25 26  1  0  0  0
 24 19  1  0  0  0
 19 20  2  0  0  0
 19 21  1  0  0  0
 21  1  1  0  0  0
  1  2  1  0  0  0
  2  3  2  0  0  0
  3 10  1  0  0  0
 10 11  2  0  0  0
 11 12  1  0  0  0
 12 13  2  0  0  0
 13 17  1  0  0  0
 17 18  3  0  0  0
 13 14  1  0  0  0
 14 15  1  0  0  0
 14 16  2  0  0  0
  3  4  1  0  0  0
  4  5  1  0  0  0
  5  6  2  0  0  0
  6  7  1  0  0  0
  7  8  2  0  0  0
  8  9  1  0  0  0
 26 24  1  0  0  0
  9  1  2  0  0  0
 16 10  1  0  0  0
  8  4  1  0  0  0
 21 22  1  0  0  0
M  END
> <minimizedAffinity>
11.11516

> <CNNscore>
0.5522655845

> <CNNaffinity>
6.7529106140

> <CNN_VS>
3.7294001579

> <CNNaffinity_variance>
0.8024608493

$$$$
[H]c1nc2c([H])c(N([H])C(=O)C3(C([H])([H])[H])C([H])([H])C3([H])[H])c([H])c(-c3c([H])c([H])c(C#N)c(F)c3[H])n2n1


 26 29  0  0  0  0  0  0  0  0999 V2000
   15.7582   25.2283   -1.5086 C   0  0  0  0  0  0  0  0  0  0  0  0
   14.5493   24.7175   -1.0503 C   0  0  0  0  0  0  0  0  0  0  0  0
   13.3278   24.9558   -1.6324 C   0  0  0  0  0  0  0  0  0  0  0  0
   13.3303   25.7500   -2.7317 N   0  0  0  0  0  0  0  0  0  0  0  0
   12.3676   26.1868   -3.5204 N   0  0  0  0  0  0  0  0  0  0  0  0
   12.8741   26.9606   -4.4795 C   0  0  0  0  0  0  0  0  0  0  0  0
   14.1998   27.0148   -4.2910 N   0  0  0  0  0  0  0  0  0  0  0  0
   14.4759   26.2619   -3.2049 C   0  0  0  0  0  0  0  0  0  0  0  0
   15.7292   26.0208   -2.6132 C   0  0  0  0  0  0  0  0  0  0  0  0
   12.1229   24.3885   -1.0429 C   0  0  0  0  0  0  0  0  0  0  0  0
   11.5851   24.9645    0.1236 C   0  0  0  0  0  0  0  0  0  0  0  0
   10.4648   24.4593    0.7402 C   0  0  0  0  0  0  0  0  0  0  0  0
    9.8232   23.3551    0.2261 C   0  0  0  0  0  0  0  0  0  0  0  0
   10.3536   22.8012   -0.9093 C   0  0  0  0  0  0  0  0  0  0  0  0
    9.7513   21.7034   -1.4570 F   0  0  0  0  0  0  0  0  0  0  0  0
   11.4766   23.2913   -1.5438 C   0  0  0  0  0  0  0  0  0  0  0  0
    8.6592   22.8435    0.8803 C   0  0  0  0  0  0  0  0  0  0  0  0
    7.7099   22.4368    1.3933 N   0  0  0  0  0  0  0  0  0  0  0  0
   17.1450   24.2278    0.3640 C   0  0  0  0  0  0  0  0  0  0  0  0
   16.1891   23.8005    1.0337 O   0  0  0  0  0  0  0  0  0  0  0  0
   16.9623   24.9058   -0.8475 N   0  0  0  0  0  0  0  0  0  0  0  0
   17.8441   25.2541   -1.3809 H   0  0  0  0  0  0  0  0  0  0  0  0
   19.5692   23.6358   -0.1687 C   0  0  0  0  0  0  0  0  0  0  0  0
   18.5562   24.0147    0.8633 C   0  0  0  0  0  0  0  0  0  0  0  0
   18.6897   23.6521    2.2836 C   0  0  0  0  0  0  0  0  0  0  0  0
   19.0580   25.0536    1.8749 C   0  0  0  0  0  0  0  0  0  0  0  0
 23 24  1  0  0  0
 24 25  1  0  0  0
 25 26  1  0  0  0
 24 19  1  0  0  0
 19 20  2  0  0  0
 19 21  1  0  0  0
 21  1  1  0  0  0
  1  2  1  0  0  0
  2  3  2  0  0  0
  3 10  1  0  0  0
 10 11  2  0  0  0
 11 12  1  0  0  0
 12 13  2  0  0  0
 13 17  1  0  0  0
 17 18  3  0  0  0
 13 14  1  0  0  0
 14 15  1  0  0  0
 14 16  2  0  0  0
  3  4  1  0  0  0
  4  5  1  0  0  0
  5  6  2  0  0  0
  6  7  1  0  0  0
  7  8  2  0  0  0
  8  9  1  0  0  0
 26 24  1  0  0  0
  9  1  2  0  0  0
 16 10  1  0  0  0
  8  4  1  0  0  0
 21 22  1  0  0  0
M  END
> <minimizedAffinity>
4.28886

> <CNNscore>
0.5322475433

> <CNNaffinity>
7.0245084763

> <CNN_VS>
3.7387773991

> <CNNaffinity_variance>
0.7419010997

$$$$
[H]OC(=O)c1c([H])c([H])c(-c2c([H])c([H])c(N3C(=O)N(c4nc([H])nc([H])c4[H])C4(C3=O)C([H])([H])C([H])([H])N(C([H])([H])c3nc([H])c([H])c([H])c3C([H])([H])[H])C([H])([H])C4([H])[H])c([H])c2[H])c(C([H])([H])[H])c1[H]


 43 48  0  0  0  0  0  0  0  0999 V2000
   12.8869   21.0247    1.8869 N   0  0  0  0  0  0  0  0  0  0  0  0
   13.4992   21.0060    0.5964 C   0  0  0  0  0  0  0  0  0  0  0  0
   12.9372   22.1887   -0.1587 C   0  0  0  0  0  0  0  0  0  0  0  0
   12.9797   23.4628    0.5958 C   0  0  0  0  0  0  0  0  0  0  0  0
   13.1424   23.3865    2.0679 C   0  0  0  0  0  0  0  0  0  0  0  0
   13.4886   22.0619    2.6481 C   0  0  0  0  0  0  0  0  0  0  0  0
   11.7179   24.1668    0.3427 N   0  0  0  0  0  0  0  0  0  0  0  0
   11.8483   24.8474   -0.9217 C   0  0  0  0  0  0  0  0  0  0  0  0
   10.8590   25.1757   -1.5843 O   0  0  0  0  0  0  0  0  0  0  0  0
   13.2509   25.0062   -1.1477 N   0  0  0  0  0  0  0  0  0  0  0  0
   13.9420   24.4368   -0.0441 C   0  0  0  0  0  0  0  0  0  0  0  0
   15.1049   24.6386    0.3833 O   0  0  0  0  0  0  0  0  0  0  0  0
   13.8354   25.6106   -2.2841 C   0  0  0  0  0  0  0  0  0  0  0  0
   15.1320   26.0493   -2.2992 C   0  0  0  0  0  0  0  0  0  0  0  0
   15.6390   26.6210   -3.4438 C   0  0  0  0  0  0  0  0  0  0  0  0
   14.8946   26.7718   -4.5796 C   0  0  0  0  0  0  0  0  0  0  0  0
   13.5888   26.3362   -4.5814 C   0  0  0  0  0  0  0  0  0  0  0  0
   13.0849   25.7643   -3.4345 C   0  0  0  0  0  0  0  0  0  0  0  0
   15.4643   27.3573   -5.7815 C   0  0  0  0  0  0  0  0  0  0  0  0
   15.9457   26.5629   -6.8106 C   0  0  0  0  0  0  0  0  0  0  0  0
   16.4641   27.0932   -7.9705 C   0  0  0  0  0  0  0  0  0  0  0  0
   16.4956   28.4636   -8.0902 C   0  0  0  0  0  0  0  0  0  0  0  0
   16.0183   29.2682   -7.0700 C   0  0  0  0  0  0  0  0  0  0  0  0
   15.4941   28.7286   -5.8968 C   0  0  0  0  0  0  0  0  0  0  0  0
   15.0028   29.6558   -4.8181 C   0  0  0  0  0  0  0  0  0  0  0  0
   17.0363   29.0349   -9.3044 C   0  0  0  0  0  0  0  0  0  0  0  0
   16.3516   28.9750  -10.4968 O   0  0  0  0  0  0  0  0  0  0  0  0
   18.1531   29.5959   -9.2655 O   0  0  0  0  0  0  0  0  0  0  0  0
   15.6578   29.6614  -10.7800 H   0  0  0  0  0  0  0  0  0  0  0  0
   10.5534   24.2005    1.1621 C   0  0  0  0  0  0  0  0  0  0  0  0
   10.5005   24.9232    2.3312 C   0  0  0  0  0  0  0  0  0  0  0  0
    9.3710   24.9535    3.1298 C   0  0  0  0  0  0  0  0  0  0  0  0
    8.2781   24.2582    2.7658 N   0  0  0  0  0  0  0  0  0  0  0  0
    8.3485   23.5617    1.6270 C   0  0  0  0  0  0  0  0  0  0  0  0
    9.4348   23.5143    0.8301 N   0  0  0  0  0  0  0  0  0  0  0  0
   12.6813   19.7770    2.5160 C   0  0  0  0  0  0  0  0  0  0  0  0
   12.6793   21.8161    4.6171 C   0  0  0  0  0  0  0  0  0  0  0  0
   11.7003   20.6937    4.5945 C   0  0  0  0  0  0  0  0  0  0  0  0
   10.7598   20.6425    5.6340 C   0  0  0  0  0  0  0  0  0  0  0  0
    9.8338   19.6245    5.6516 C   0  0  0  0  0  0  0  0  0  0  0  0
    9.8714   18.6938    4.6405 C   0  0  0  0  0  0  0  0  0  0  0  0
   10.7861   18.7778    3.6646 N   0  0  0  0  0  0  0  0  0  0  0  0
   11.7052   19.7453    3.6030 C   0  0  0  0  0  0  0  0  0  0  0  0
 37 38  1  0  0  0
 38 39  2  0  0  0
 39 40  1  0  0  0
 40 41  2  0  0  0
 41 42  1  0  0  0
 42 43  2  0  0  0
 43 36  1  0  0  0
 36  1  1  0  0  0
  1  2  1  0  0  0
  2  3  1  0  0  0
  3  4  1  0  0  0
  4  5  1  0  0  0
  5  6  1  0  0  0
  4  7  1  0  0  0
  7  8  1  0  0  0
  8  9  2  0  0  0
  8 10  1  0  0  0
 10 11  1  0  0  0
 11 12  2  0  0  0
 10 13  1  0  0  0
 13 14  2  0  0  0
 14 15  1  0  0  0
 15 16  2  0  0  0
 16 17  1  0  0  0
 17 18  2  0  0  0
 16 19  1  0  0  0
 19 20  2  0  0  0
 20 21  1  0  0  0
 21 22  2  0  0  0
 22 23  1  0  0  0
 23 24  2  0  0  0
 24 25  1  0  0  0
 22 26  1  0  0  0
 26 27  1  0  0  0
 26 28  2  0  0  0
  7 30  1  0  0  0
 30 31  2  0  0  0
 31 32  1  0  0  0
 32 33  2  0  0  0
 33 34  1  0  0  0
 34 35  2  0  0  0
 43 38  1  0  0  0
  6  1  1  0  0  0
 18 13  1  0  0  0
 24 19  1  0  0  0
 35 30  1  0  0  0
 11  4  1  0  0  0
 27 29  1  0  0  0
M  END
> <minimizedAffinity>
22.58055

> <CNNscore>
0.5241413713

> <CNNaffinity>
7.5017213821

> <CNN_VS>
3.9319624901

> <CNNaffinity_variance>
0.4772593975

$$$$
[H]OC(=O)c1c([H])c([H])c(-c2c([H])c([H])c(N3C(=O)N(c4nc([H])nc([H])c4[H])C4(C3=O)C([H])([H])C([H])([H])N(C([H])([H])c3nc([H])c([H])c([H])c3C([H])([H])[H])C([H])([H])C4([H])[H])c([H])c2[H])c(C([H])([H])[H])c1[H]


 43 48  0  0  0  0  0  0  0  0999 V2000
   13.1678   26.8953   -4.0278 N   0  0  0  0  0  0  0  0  0  0  0  0
   11.8255   26.5542   -3.6777 C   0  0  0  0  0  0  0  0  0  0  0  0
   11.9005   25.2416   -2.9317 C   0  0  0  0  0  0  0  0  0  0  0  0
   12.9123   25.2184   -1.8500 C   0  0  0  0  0  0  0  0  0  0  0  0
   13.9824   26.2447   -1.8855 C   0  0  0  0  0  0  0  0  0  0  0  0
   13.8269   27.3587   -2.8581 C   0  0  0  0  0  0  0  0  0  0  0  0
   13.5751   23.9106   -1.8949 N   0  0  0  0  0  0  0  0  0  0  0  0
   12.7293   22.9729   -1.1990 C   0  0  0  0  0  0  0  0  0  0  0  0
   12.8024   21.7578   -1.4078 O   0  0  0  0  0  0  0  0  0  0  0  0
   11.9047   23.7491   -0.3266 N   0  0  0  0  0  0  0  0  0  0  0  0
   12.2509   25.1171   -0.4948 C   0  0  0  0  0  0  0  0  0  0  0  0
   12.0823   26.1015    0.2655 O   0  0  0  0  0  0  0  0  0  0  0  0
   10.9096   23.2339    0.5353 C   0  0  0  0  0  0  0  0  0  0  0  0
   10.8950   21.9277    0.9448 C   0  0  0  0  0  0  0  0  0  0  0  0
    9.9002   21.4960    1.7920 C   0  0  0  0  0  0  0  0  0  0  0  0
    8.9142   22.3249    2.2474 C   0  0  0  0  0  0  0  0  0  0  0  0
    8.9139   23.6413    1.8452 C   0  0  0  0  0  0  0  0  0  0  0  0
    9.9110   24.0701    0.9977 C   0  0  0  0  0  0  0  0  0  0  0  0
    7.8902   21.8466    3.1611 C   0  0  0  0  0  0  0  0  0  0  0  0
    7.8962   22.2048    4.5003 C   0  0  0  0  0  0  0  0  0  0  0  0
    6.9223   21.7878    5.3794 C   0  0  0  0  0  0  0  0  0  0  0  0
    5.9166   20.9872    4.8884 C   0  0  0  0  0  0  0  0  0  0  0  0
    5.8989   20.6220    3.5534 C   0  0  0  0  0  0  0  0  0  0  0  0
    6.8864   21.0456    2.6657 C   0  0  0  0  0  0  0  0  0  0  0  0
    6.8194   20.6043    1.2286 C   0  0  0  0  0  0  0  0  0  0  0  0
    4.8853   20.5427    5.8006 C   0  0  0  0  0  0  0  0  0  0  0  0
    4.7203   19.2116    6.1093 O   0  0  0  0  0  0  0  0  0  0  0  0
    4.1276   21.3915    6.3190 O   0  0  0  0  0  0  0  0  0  0  0  0
    5.2300   18.7410    6.8518 H   0  0  0  0  0  0  0  0  0  0  0  0
   14.8205   23.5794   -2.5014 C   0  0  0  0  0  0  0  0  0  0  0  0
   14.8974   22.8668   -3.6754 C   0  0  0  0  0  0  0  0  0  0  0  0
   16.1069   22.5414   -4.2634 C   0  0  0  0  0  0  0  0  0  0  0  0
   17.2568   22.9268   -3.6807 N   0  0  0  0  0  0  0  0  0  0  0  0
   17.1620   23.6180   -2.5405 C   0  0  0  0  0  0  0  0  0  0  0  0
   15.9983   23.9489   -1.9458 N   0  0  0  0  0  0  0  0  0  0  0  0
   13.3519   27.6245   -5.2232 C   0  0  0  0  0  0  0  0  0  0  0  0
   16.1536   28.4688   -5.1214 C   0  0  0  0  0  0  0  0  0  0  0  0
   15.6512   27.4927   -6.1281 C   0  0  0  0  0  0  0  0  0  0  0  0
   16.5813   26.9821   -7.0456 C   0  0  0  0  0  0  0  0  0  0  0  0
   16.1621   26.0748   -7.9917 C   0  0  0  0  0  0  0  0  0  0  0  0
   14.8380   25.7052   -7.9963 C   0  0  0  0  0  0  0  0  0  0  0  0
   13.9802   26.2159   -7.1022 N   0  0  0  0  0  0  0  0  0  0  0  0
   14.3374   27.0987   -6.1653 C   0  0  0  0  0  0  0  0  0  0  0  0
 37 38  1  0  0  0
 38 39  2  0  0  0
 39 40  1  0  0  0
 40 41  2  0  0  0
 41 42  1  0  0  0
 42 43  2  0  0  0
 43 36  1  0  0  0
 36  1  1  0  0  0
  1  2  1  0  0  0
  2  3  1  0  0  0
  3  4  1  0  0  0
  4  5  1  0  0  0
  5  6  1  0  0  0
  4  7  1  0  0  0
  7  8  1  0  0  0
  8  9  2  0  0  0
  8 10  1  0  0  0
 10 11  1  0  0  0
 11 12  2  0  0  0
 10 13  1  0  0  0
 13 14  2  0  0  0
 14 15  1  0  0  0
 15 16  2  0  0  0
 16 17  1  0  0  0
 17 18  2  0  0  0
 16 19  1  0  0  0
 19 20  2  0  0  0
 20 21  1  0  0  0
 21 22  2  0  0  0
 22 23  1  0  0  0
 23 24  2  0  0  0
 24 25  1  0  0  0
 22 26  1  0  0  0
 26 27  1  0  0  0
 26 28  2  0  0  0
  7 30  1  0  0  0
 30 31  2  0  0  0
 31 32  1  0  0  0
 32 33  2  0  0  0
 33 34  1  0  0  0
 34 35  2  0  0  0
 43 38  1  0  0  0
  6  1  1  0  0  0
 18 13  1  0  0  0
 24 19  1  0  0  0
 35 30  1  0  0  0
 11  4  1  0  0  0
 27 29  1  0  0  0
M  END
> <minimizedAffinity>
9.87386

> <CNNscore>
0.4776378572

> <CNNaffinity>
7.4182829857

> <CNN_VS>
3.5432527065

> <CNNaffinity_variance>
0.7295885086

$$$$
[H]OC(=O)c1c([H])c([H])c(-c2c([H])c([H])c(N3C(=O)N(c4nc([H])nc([H])c4[H])C4(C3=O)C([H])([H])C([H])([H])N(C([H])([H])c3nc([H])c([H])c([H])c3C([H])([H])[H])C([H])([H])C4([H])[H])c([H])c2[H])c(C([H])([H])[H])c1[H]


 43 48  0  0  0  0  0  0  0  0999 V2000
   16.0879   25.6835   -3.1231 N   0  0  0  0  0  0  0  0  0  0  0  0
   15.1634   24.7729   -3.7203 C   0  0  0  0  0  0  0  0  0  0  0  0
   14.8455   23.7368   -2.6667 C   0  0  0  0  0  0  0  0  0  0  0  0
   14.4829   24.3071   -1.3485 C   0  0  0  0  0  0  0  0  0  0  0  0
   14.8679   25.7133   -1.0769 C   0  0  0  0  0  0  0  0  0  0  0  0
   15.3712   26.5162   -2.2229 C   0  0  0  0  0  0  0  0  0  0  0  0
   15.1268   23.4831   -0.3199 N   0  0  0  0  0  0  0  0  0  0  0  0
   14.2942   22.3249   -0.1095 C   0  0  0  0  0  0  0  0  0  0  0  0
   14.7472   21.2819    0.3726 O   0  0  0  0  0  0  0  0  0  0  0  0
   12.9855   22.6866   -0.5567 N   0  0  0  0  0  0  0  0  0  0  0  0
   13.0339   24.0290   -1.0206 C   0  0  0  0  0  0  0  0  0  0  0  0
   12.1199   24.8776   -1.1620 O   0  0  0  0  0  0  0  0  0  0  0  0
   11.8531   21.8404   -0.5494 C   0  0  0  0  0  0  0  0  0  0  0  0
   11.6733   20.8439   -1.4707 C   0  0  0  0  0  0  0  0  0  0  0  0
   10.5504   20.0515   -1.3989 C   0  0  0  0  0  0  0  0  0  0  0  0
    9.5953   20.2189   -0.4362 C   0  0  0  0  0  0  0  0  0  0  0  0
    9.7605   21.2166    0.4977 C   0  0  0  0  0  0  0  0  0  0  0  0
   10.8855   22.0073    0.4232 C   0  0  0  0  0  0  0  0  0  0  0  0
    8.4315   19.3510   -0.3706 C   0  0  0  0  0  0  0  0  0  0  0  0
    8.5101   18.0134   -0.7262 C   0  0  0  0  0  0  0  0  0  0  0  0
    7.4292   17.1646   -0.6462 C   0  0  0  0  0  0  0  0  0  0  0  0
    6.2382   17.6849   -0.1944 C   0  0  0  0  0  0  0  0  0  0  0  0
    6.1461   19.0188    0.1637 C   0  0  0  0  0  0  0  0  0  0  0  0
    7.2421   19.8759    0.0816 C   0  0  0  0  0  0  0  0  0  0  0  0
    7.0757   21.3194    0.4729 C   0  0  0  0  0  0  0  0  0  0  0  0
    5.0942   16.8041   -0.1036 C   0  0  0  0  0  0  0  0  0  0  0  0
    4.5489   16.2126   -1.2203 O   0  0  0  0  0  0  0  0  0  0  0  0
    4.5914   16.5770    1.0185 O   0  0  0  0  0  0  0  0  0  0  0  0
    4.8800   15.3331   -1.6071 H   0  0  0  0  0  0  0  0  0  0  0  0
   16.3469   23.7371    0.3698 C   0  0  0  0  0  0  0  0  0  0  0  0
   16.4709   24.7516    1.2903 C   0  0  0  0  0  0  0  0  0  0  0  0
   17.6567   25.0015    1.9580 C   0  0  0  0  0  0  0  0  0  0  0  0
   18.7353   24.2361    1.7108 N   0  0  0  0  0  0  0  0  0  0  0  0
   18.5957   23.2556    0.8131 C   0  0  0  0  0  0  0  0  0  0  0  0
   17.4535   22.9896    0.1484 N   0  0  0  0  0  0  0  0  0  0  0  0
   17.0299   26.2937   -3.9805 C   0  0  0  0  0  0  0  0  0  0  0  0
   15.7166   25.0468   -6.2812 C   0  0  0  0  0  0  0  0  0  0  0  0
   15.8806   26.5223   -6.1599 C   0  0  0  0  0  0  0  0  0  0  0  0
   15.3776   27.3112   -7.2050 C   0  0  0  0  0  0  0  0  0  0  0  0
   15.5041   28.6797   -7.1336 C   0  0  0  0  0  0  0  0  0  0  0  0
   16.1237   29.2188   -6.0312 C   0  0  0  0  0  0  0  0  0  0  0  0
   16.5909   28.4306   -5.0531 N   0  0  0  0  0  0  0  0  0  0  0  0
   16.4929   27.0985   -5.0756 C   0  0  0  0  0  0  0  0  0  0  0  0
 37 38  1  0  0  0
 38 39  2  0  0  0
 39 40  1  0  0  0
 40 41  2  0  0  0
 41 42  1  0  0  0
 42 43  2  0  0  0
 43 36  1  0  0  0
 36  1  1  0  0  0
  1  2  1  0  0  0
  2  3  1  0  0  0
  3  4  1  0  0  0
  4  5  1  0  0  0
  5  6  1  0  0  0
  4  7  1  0  0  0
  7  8  1  0  0  0
  8  9  2  0  0  0
  8 10  1  0  0  0
 10 11  1  0  0  0
 11 12  2  0  0  0
 10 13  1  0  0  0
 13 14  2  0  0  0
 14 15  1  0  0  0
 15 16  2  0  0  0
 16 17  1  0  0  0
 17 18  2  0  0  0
 16 19  1  0  0  0
 19 20  2  0  0  0
 20 21  1  0  0  0
 21 22  2  0  0  0
 22 23  1  0  0  0
 23 24  2  0  0  0
 24 25  1  0  0  0
 22 26  1  0  0  0
 26 27  1  0  0  0
 26 28  2  0  0  0
  7 30  1  0  0  0
 30 31  2  0  0  0
 31 32  1  0  0  0
 32 33  2  0  0  0
 33 34  1  0  0  0
 34 35  2  0  0  0
 43 38  1  0  0  0
  6  1  1  0  0  0
 18 13  1  0  0  0
 24 19  1  0  0  0
 35 30  1  0  0  0
 11  4  1  0  0  0
 27 29  1  0  0  0
M  END
> <minimizedAffinity>
11.51045

> <CNNscore>
0.4163445532

> <CNNaffinity>
7.5809507370

> <CNN_VS>
3.1562874317

> <CNNaffinity_variance>
0.6634556055

$$$$
[H]OC(=O)c1c([H])c([H])c(-c2c([H])c([H])c(N3C(=O)N(c4nc([H])nc([H])c4[H])C4(C3=O)C([H])([H])C([H])([H])N(C([H])([H])c3nc([H])c([H])c([H])c3C([H])([H])[H])C([H])([H])C4([H])[H])c([H])c2[H])c(C([H])([H])[H])c1[H]


 43 48  0  0  0  0  0  0  0  0999 V2000
   11.5640   21.0602    2.2694 N   0  0  0  0  0  0  0  0  0  0  0  0
   11.3762   22.4072    1.8324 C   0  0  0  0  0  0  0  0  0  0  0  0
   12.6821   22.8371    1.2042 C   0  0  0  0  0  0  0  0  0  0  0  0
   13.2256   21.8724    0.2201 C   0  0  0  0  0  0  0  0  0  0  0  0
   12.7152   20.4806    0.2656 C   0  0  0  0  0  0  0  0  0  0  0  0
   11.5332   20.2155    1.1280 C   0  0  0  0  0  0  0  0  0  0  0  0
   14.6759   21.8012    0.4279 N   0  0  0  0  0  0  0  0  0  0  0  0
   15.2672   22.9213   -0.2609 C   0  0  0  0  0  0  0  0  0  0  0  0
   16.3796   23.3581    0.0508 O   0  0  0  0  0  0  0  0  0  0  0  0
   14.3263   23.3174   -1.2616 N   0  0  0  0  0  0  0  0  0  0  0  0
   13.2012   22.4535   -1.1749 C   0  0  0  0  0  0  0  0  0  0  0  0
   12.3207   22.1716   -2.0239 O   0  0  0  0  0  0  0  0  0  0  0  0
   14.4914   24.3943   -2.1625 C   0  0  0  0  0  0  0  0  0  0  0  0
   13.4378   25.1387   -2.6205 C   0  0  0  0  0  0  0  0  0  0  0  0
   13.6727   26.1791   -3.4901 C   0  0  0  0  0  0  0  0  0  0  0  0
   14.9274   26.5048   -3.9218 C   0  0  0  0  0  0  0  0  0  0  0  0
   15.9981   25.7662   -3.4712 C   0  0  0  0  0  0  0  0  0  0  0  0
   15.7595   24.7261   -2.6007 C   0  0  0  0  0  0  0  0  0  0  0  0
   15.1476   27.6245   -4.8216 C   0  0  0  0  0  0  0  0  0  0  0  0
   16.1695   27.6051   -5.7582 C   0  0  0  0  0  0  0  0  0  0  0  0
   16.3811   28.6409   -6.6401 C   0  0  0  0  0  0  0  0  0  0  0  0
   15.5353   29.7240   -6.5707 C   0  0  0  0  0  0  0  0  0  0  0  0
   14.5111   29.7561   -5.6402 C   0  0  0  0  0  0  0  0  0  0  0  0
   14.2993   28.7060   -4.7485 C   0  0  0  0  0  0  0  0  0  0  0  0
   13.1769   28.8054   -3.7511 C   0  0  0  0  0  0  0  0  0  0  0  0
   15.7447   30.8192   -7.4925 C   0  0  0  0  0  0  0  0  0  0  0  0
   16.9299   31.5182   -7.5246 O   0  0  0  0  0  0  0  0  0  0  0  0
   14.8242   31.1354   -8.2774 O   0  0  0  0  0  0  0  0  0  0  0  0
   17.7352   31.2313   -8.0740 H   0  0  0  0  0  0  0  0  0  0  0  0
   15.4089   20.8277    1.1654 C   0  0  0  0  0  0  0  0  0  0  0  0
   15.4857   19.5129    0.7689 C   0  0  0  0  0  0  0  0  0  0  0  0
   16.1945   18.5658    1.4866 C   0  0  0  0  0  0  0  0  0  0  0  0
   16.8362   18.9255    2.6131 N   0  0  0  0  0  0  0  0  0  0  0  0
   16.7498   20.2072    2.9827 C   0  0  0  0  0  0  0  0  0  0  0  0
   16.0672   21.1505    2.3033 N   0  0  0  0  0  0  0  0  0  0  0  0
   10.8435   20.6521    3.4135 C   0  0  0  0  0  0  0  0  0  0  0  0
   11.5427   22.0670    5.8797 C   0  0  0  0  0  0  0  0  0  0  0  0
   10.2584   22.3016    5.1627 C   0  0  0  0  0  0  0  0  0  0  0  0
    9.3758   23.2393    5.7189 C   0  0  0  0  0  0  0  0  0  0  0  0
    8.1786   23.4905    5.0883 C   0  0  0  0  0  0  0  0  0  0  0  0
    7.8974   22.8051    3.9303 C   0  0  0  0  0  0  0  0  0  0  0  0
    8.7675   21.9167    3.4305 N   0  0  0  0  0  0  0  0  0  0  0  0
    9.9410   21.6377    4.0046 C   0  0  0  0  0  0  0  0  0  0  0  0
 37 38  1  0  0  0
 38 39  2  0  0  0
 39 40  1  0  0  0
 40 41  2  0  0  0
 41 42  1  0  0  0
 42 43  2  0  0  0
 43 36  1  0  0  0
 36  1  1  0  0  0
  1  2  1  0  0  0
  2  3  1  0  0  0
  3  4  1  0  0  0
  4  5  1  0  0  0
  5  6  1  0  0  0
  4  7  1  0  0  0
  7  8  1  0  0  0
  8  9  2  0  0  0
  8 10  1  0  0  0
 10 11  1  0  0  0
 11 12  2  0  0  0
 10 13  1  0  0  0
 13 14  2  0  0  0
 14 15  1  0  0  0
 15 16  2  0  0  0
 16 17  1  0  0  0
 17 18  2  0  0  0
 16 19  1  0  0  0
 19 20  2  0  0  0
 20 21  1  0  0  0
 21 22  2  0  0  0
 22 23  1  0  0  0
 23 24  2  0  0  0
 24 25  1  0  0  0
 22 26  1  0  0  0
 26 27  1  0  0  0
 26 28  2  0  0  0
  7 30  1  0  0  0
 30 31  2  0  0  0
 31 32  1  0  0  0
 32 33  2  0  0  0
 33 34  1  0  0  0
 34 35  2  0  0  0
 43 38  1  0  0  0
  6  1  1  0  0  0
 18 13  1  0  0  0
 24 19  1  0  0  0
 35 30  1  0  0  0
 11  4  1  0  0  0
 27 29  1  0  0  0
M  END
> <minimizedAffinity>
40.10714

> <CNNscore>
0.4124128222

> <CNNaffinity>
7.3031682968

> <CNN_VS>
3.0119202137

> <CNNaffinity_variance>
0.8162729144

$$$$
[H]OC(=O)c1c([H])c([H])c(-c2c([H])c([H])c(N3C(=O)N(c4nc([H])nc([H])c4[H])C4(C3=O)C([H])([H])C([H])([H])N(C([H])([H])c3nc([H])c([H])c([H])c3C([H])([H])[H])C([H])([H])C4([H])[H])c([H])c2[H])c(C([H])([H])[H])c1[H]


 43 48  0  0  0  0  0  0  0  0999 V2000
   16.9800   25.0422   -1.5529 N   0  0  0  0  0  0  0  0  0  0  0  0
   16.3819   24.9334   -0.2602 C   0  0  0  0  0  0  0  0  0  0  0  0
   14.8877   25.0130   -0.4744 C   0  0  0  0  0  0  0  0  0  0  0  0
   14.3808   24.1131   -1.5362 C   0  0  0  0  0  0  0  0  0  0  0  0
   15.3593   23.5877   -2.5192 C   0  0  0  0  0  0  0  0  0  0  0  0
   16.8013   23.8063   -2.2295 C   0  0  0  0  0  0  0  0  0  0  0  0
   13.3697   24.8551   -2.2969 N   0  0  0  0  0  0  0  0  0  0  0  0
   12.1315   24.7762   -1.5623 C   0  0  0  0  0  0  0  0  0  0  0  0
   11.2316   25.6073   -1.7207 O   0  0  0  0  0  0  0  0  0  0  0  0
   12.2374   23.6242   -0.7226 N   0  0  0  0  0  0  0  0  0  0  0  0
   13.5068   23.0275   -0.9514 C   0  0  0  0  0  0  0  0  0  0  0  0
   13.9081   21.8566   -0.7430 O   0  0  0  0  0  0  0  0  0  0  0  0
   11.2505   23.1778    0.1859 C   0  0  0  0  0  0  0  0  0  0  0  0
   11.4873   23.0568    1.5288 C   0  0  0  0  0  0  0  0  0  0  0  0
   10.4770   22.6239    2.3570 C   0  0  0  0  0  0  0  0  0  0  0  0
    9.2328   22.3053    1.8909 C   0  0  0  0  0  0  0  0  0  0  0  0
    8.9780   22.4210    0.5431 C   0  0  0  0  0  0  0  0  0  0  0  0
    9.9910   22.8549   -0.2826 C   0  0  0  0  0  0  0  0  0  0  0  0
    8.1781   21.8739    2.7929 C   0  0  0  0  0  0  0  0  0  0  0  0
    7.6882   20.5774    2.7597 C   0  0  0  0  0  0  0  0  0  0  0  0
    6.7095   20.1369    3.6219 C   0  0  0  0  0  0  0  0  0  0  0  0
    6.2147   21.0334    4.5411 C   0  0  0  0  0  0  0  0  0  0  0  0
    6.6951   22.3308    4.5847 C   0  0  0  0  0  0  0  0  0  0  0  0
    7.6859   22.7741    3.7104 C   0  0  0  0  0  0  0  0  0  0  0  0
    8.1576   24.2004    3.7985 C   0  0  0  0  0  0  0  0  0  0  0  0
    5.1870   20.5838    5.4546 C   0  0  0  0  0  0  0  0  0  0  0  0
    5.3498   19.4543    6.2241 O   0  0  0  0  0  0  0  0  0  0  0  0
    4.1265   21.2400    5.5445 O   0  0  0  0  0  0  0  0  0  0  0  0
    5.8055   19.4556    7.1324 H   0  0  0  0  0  0  0  0  0  0  0  0
   13.5330   25.5426   -3.5336 C   0  0  0  0  0  0  0  0  0  0  0  0
   14.4410   25.1363   -4.4836 C   0  0  0  0  0  0  0  0  0  0  0  0
   14.6030   25.8057   -5.6836 C   0  0  0  0  0  0  0  0  0  0  0  0
   13.8554   26.8930   -5.9469 N   0  0  0  0  0  0  0  0  0  0  0  0
   12.9789   27.2728   -5.0119 C   0  0  0  0  0  0  0  0  0  0  0  0
   12.8001   26.6400   -3.8350 N   0  0  0  0  0  0  0  0  0  0  0  0
   18.2506   25.6553   -1.6207 C   0  0  0  0  0  0  0  0  0  0  0  0
   15.9149   27.1456   -2.5672 C   0  0  0  0  0  0  0  0  0  0  0  0
   17.3002   27.4715   -3.0067 C   0  0  0  0  0  0  0  0  0  0  0  0
   17.4531   28.5352   -3.9082 C   0  0  0  0  0  0  0  0  0  0  0  0
   18.7157   28.8738   -4.3389 C   0  0  0  0  0  0  0  0  0  0  0  0
   19.7815   28.1480   -3.8624 C   0  0  0  0  0  0  0  0  0  0  0  0
   19.5937   27.1383   -3.0013 N   0  0  0  0  0  0  0  0  0  0  0  0
   18.3897   26.7710   -2.5540 C   0  0  0  0  0  0  0  0  0  0  0  0
 37 38  1  0  0  0
 38 39  2  0  0  0
 39 40  1  0  0  0
 40 41  2  0  0  0
 41 42  1  0  0  0
 42 43  2  0  0  0
 43 36  1  0  0  0
 36  1  1  0  0  0
  1  2  1  0  0  0
  2  3  1  0  0  0
  3  4  1  0  0  0
  4  5  1  0  0  0
  5  6  1  0  0  0
  4  7  1  0  0  0
  7  8  1  0  0  0
  8  9  2  0  0  0
  8 10  1  0  0  0
 10 11  1  0  0  0
 11 12  2  0  0  0
 10 13  1  0  0  0
 13 14  2  0  0  0
 14 15  1  0  0  0
 15 16  2  0  0  0
 16 17  1  0  0  0
 17 18  2  0  0  0
 16 19  1  0  0  0
 19 20  2  0  0  0
 20 21  1  0  0  0
 21 22  2  0  0  0
 22 23  1  0  0  0
 23 24  2  0  0  0
 24 25  1  0  0  0
 22 26  1  0  0  0
 26 27  1  0  0  0
 26 28  2  0  0  0
  7 30  1  0  0  0
 30 31  2  0  0  0
 31 32  1  0  0  0
 32 33  2  0  0  0
 33 34  1  0  0  0
 34 35  2  0  0  0
 43 38  1  0  0  0
  6  1  1  0  0  0
 18 13  1  0  0  0
 24 19  1  0  0  0
 35 30  1  0  0  0
 11  4  1  0  0  0
 27 29  1  0  0  0
M  END
> <minimizedAffinity>
5.83264

> <CNNscore>
0.4034810364

> <CNNaffinity>
7.5743303299

> <CNN_VS>
3.0560986996

> <CNNaffinity_variance>
0.7967955470

$$$$
[H]OC(=O)c1c([H])c([H])c(-c2c([H])c([H])c(N3C(=O)N(c4nc([H])nc([H])c4[H])C4(C3=O)C([H])([H])C([H])([H])N(C([H])([H])c3nc([H])c([H])c([H])c3C([H])([H])[H])C([H])([H])C4([H])[H])c([H])c2[H])c(C([H])([H])[H])c1[H]


 43 48  0  0  0  0  0  0  0  0999 V2000
   13.9102   26.9121   -4.3674 N   0  0  0  0  0  0  0  0  0  0  0  0
   12.5881   27.0111   -3.8357 C   0  0  0  0  0  0  0  0  0  0  0  0
   12.2824   25.6729   -3.2028 C   0  0  0  0  0  0  0  0  0  0  0  0
   13.3442   25.1762   -2.2972 C   0  0  0  0  0  0  0  0  0  0  0  0
   14.6962   25.7714   -2.4291 C   0  0  0  0  0  0  0  0  0  0  0  0
   14.8290   26.9791   -3.2864 C   0  0  0  0  0  0  0  0  0  0  0  0
   13.4879   23.7360   -2.5351 N   0  0  0  0  0  0  0  0  0  0  0  0
   12.4560   23.0678   -1.7816 C   0  0  0  0  0  0  0  0  0  0  0  0
   12.0664   21.9351   -2.0823 O   0  0  0  0  0  0  0  0  0  0  0  0
   12.0748   23.9690   -0.7395 N   0  0  0  0  0  0  0  0  0  0  0  0
   12.8613   25.1460   -0.8653 C   0  0  0  0  0  0  0  0  0  0  0  0
   13.1481   26.0305   -0.0221 O   0  0  0  0  0  0  0  0  0  0  0  0
   11.0752   23.7260    0.2302 C   0  0  0  0  0  0  0  0  0  0  0  0
   11.3535   23.6365    1.5675 C   0  0  0  0  0  0  0  0  0  0  0  0
   10.3291   23.4066    2.4573 C   0  0  0  0  0  0  0  0  0  0  0  0
    9.0304   23.2615    2.0585 C   0  0  0  0  0  0  0  0  0  0  0  0
    8.7331   23.3484    0.7172 C   0  0  0  0  0  0  0  0  0  0  0  0
    9.7605   23.5790   -0.1703 C   0  0  0  0  0  0  0  0  0  0  0  0
    7.9658   23.0435    3.0234 C   0  0  0  0  0  0  0  0  0  0  0  0
    7.1897   21.8952    2.9919 C   0  0  0  0  0  0  0  0  0  0  0  0
    6.1942   21.6527    3.9114 C   0  0  0  0  0  0  0  0  0  0  0  0
    5.9799   22.5984    4.8877 C   0  0  0  0  0  0  0  0  0  0  0  0
    6.7475   23.7494    4.9303 C   0  0  0  0  0  0  0  0  0  0  0  0
    7.7546   23.9923    3.9980 C   0  0  0  0  0  0  0  0  0  0  0  0
    8.5465   25.2687    4.0890 C   0  0  0  0  0  0  0  0  0  0  0  0
    4.9380   22.3561    5.8618 C   0  0  0  0  0  0  0  0  0  0  0  0
    4.1246   23.3696    6.3151 O   0  0  0  0  0  0  0  0  0  0  0  0
    4.7757   21.1964    6.3000 O   0  0  0  0  0  0  0  0  0  0  0  0
    3.2711   23.6566    5.8440 H   0  0  0  0  0  0  0  0  0  0  0  0
   14.4500   23.0740   -3.3506 C   0  0  0  0  0  0  0  0  0  0  0  0
   15.1633   23.7334   -4.3244 C   0  0  0  0  0  0  0  0  0  0  0  0
   16.0953   23.0904   -5.1196 C   0  0  0  0  0  0  0  0  0  0  0  0
   16.3243   21.7757   -4.9484 N   0  0  0  0  0  0  0  0  0  0  0  0
   15.6215   21.1519   -3.9977 C   0  0  0  0  0  0  0  0  0  0  0  0
   14.7081   21.7528   -3.2090 N   0  0  0  0  0  0  0  0  0  0  0  0
   14.1937   27.6717   -5.5239 C   0  0  0  0  0  0  0  0  0  0  0  0
   13.7305   25.4471   -7.3703 C   0  0  0  0  0  0  0  0  0  0  0  0
   15.0513   26.1259   -7.2554 C   0  0  0  0  0  0  0  0  0  0  0  0
   16.0877   25.6546   -8.0748 C   0  0  0  0  0  0  0  0  0  0  0  0
   17.3244   26.2542   -8.0044 C   0  0  0  0  0  0  0  0  0  0  0  0
   17.4916   27.2984   -7.1260 C   0  0  0  0  0  0  0  0  0  0  0  0
   16.4759   27.7196   -6.3598 N   0  0  0  0  0  0  0  0  0  0  0  0
   15.2581   27.1712   -6.3909 C   0  0  0  0  0  0  0  0  0  0  0  0
 37 38  1  0  0  0
 38 39  2  0  0  0
 39 40  1  0  0  0
 40 41  2  0  0  0
 41 42  1  0  0  0
 42 43  2  0  0  0
 43 36  1  0  0  0
 36  1  1  0  0  0
  1  2  1  0  0  0
  2  3  1  0  0  0
  3  4  1  0  0  0
  4  5  1  0  0  0
  5  6  1  0  0  0
  4  7  1  0  0  0
  7  8  1  0  0  0
  8  9  2  0  0  0
  8 10  1  0  0  0
 10 11  1  0  0  0
 11 12  2  0  0  0
 10 13  1  0  0  0
 13 14  2  0  0  0
 14 15  1  0  0  0
 15 16  2  0  0  0
 16 17  1  0  0  0
 17 18  2  0  0  0
 16 19  1  0  0  0
 19 20  2  0  0  0
 20 21  1  0  0  0
 21 22  2  0  0  0
 22 23  1  0  0  0
 23 24  2  0  0  0
 24 25  1  0  0  0
 22 26  1  0  0  0
 26 27  1  0  0  0
 26 28  2  0  0  0
  7 30  1  0  0  0
 30 31  2  0  0  0
 31 32  1  0  0  0
 32 33  2  0  0  0
 33 34  1  0  0  0
 34 35  2  0  0  0
 43 38  1  0  0  0
  6  1  1  0  0  0
 18 13  1  0  0  0
 24 19  1  0  0  0
 35 30  1  0  0  0
 11  4  1  0  0  0
 27 29  1  0  0  0
M  END
> <minimizedAffinity>
11.34218

> <CNNscore>
0.3270909488

> <CNNaffinity>
7.3046121597

> <CNN_VS>
2.3892724514

> <CNNaffinity_variance>
0.3906233013

$$$$
[H]OC(=O)c1c([H])c([H])c(-c2c([H])c([H])c(N3C(=O)N(c4nc([H])nc([H])c4[H])C4(C3=O)C([H])([H])C([H])([H])N(C([H])([H])c3nc([H])c([H])c([H])c3C([H])([H])[H])C([H])([H])C4([H])[H])c([H])c2[H])c(C([H])([H])[H])c1[H]


 43 48  0  0  0  0  0  0  0  0999 V2000
   16.0328   25.4927   -3.1778 N   0  0  0  0  0  0  0  0  0  0  0  0
   14.8534   24.7075   -3.3600 C   0  0  0  0  0  0  0  0  0  0  0  0
   14.6822   23.8968   -2.0958 C   0  0  0  0  0  0  0  0  0  0  0  0
   14.7844   24.6916   -0.8499 C   0  0  0  0  0  0  0  0  0  0  0  0
   15.4375   26.0205   -0.9321 C   0  0  0  0  0  0  0  0  0  0  0  0
   15.7242   26.5567   -2.2891 C   0  0  0  0  0  0  0  0  0  0  0  0
   15.5521   23.8989    0.1165 N   0  0  0  0  0  0  0  0  0  0  0  0
   14.6431   22.9596    0.7250 C   0  0  0  0  0  0  0  0  0  0  0  0
   15.0470   21.9201    1.2557 O   0  0  0  0  0  0  0  0  0  0  0  0
   13.3326   23.5055    0.5576 N   0  0  0  0  0  0  0  0  0  0  0  0
   13.4554   24.7422   -0.1318 C   0  0  0  0  0  0  0  0  0  0  0  0
   12.6772   25.7253   -0.1902 O   0  0  0  0  0  0  0  0  0  0  0  0
   12.1306   22.9011    0.9915 C   0  0  0  0  0  0  0  0  0  0  0  0
   11.9353   21.5465    0.9611 C   0  0  0  0  0  0  0  0  0  0  0  0
   10.7424   21.0254    1.4076 C   0  0  0  0  0  0  0  0  0  0  0  0
    9.7320   21.8113    1.8852 C   0  0  0  0  0  0  0  0  0  0  0  0
    9.9118   23.1756    1.9224 C   0  0  0  0  0  0  0  0  0  0  0  0
   11.1068   23.6936    1.4753 C   0  0  0  0  0  0  0  0  0  0  0  0
    8.4921   21.2308    2.3727 C   0  0  0  0  0  0  0  0  0  0  0  0
    8.2670   21.0479    3.7283 C   0  0  0  0  0  0  0  0  0  0  0  0
    7.0902   20.5262    4.2165 C   0  0  0  0  0  0  0  0  0  0  0  0
    6.1168   20.1811    3.3072 C   0  0  0  0  0  0  0  0  0  0  0  0
    6.3288   20.3584    1.9509 C   0  0  0  0  0  0  0  0  0  0  0  0
    7.5213   20.8867    1.4596 C   0  0  0  0  0  0  0  0  0  0  0  0
    7.6972   21.0431   -0.0267 C   0  0  0  0  0  0  0  0  0  0  0  0
    4.8742   19.6331    3.8060 C   0  0  0  0  0  0  0  0  0  0  0  0
    4.5001   19.7758    5.1228 O   0  0  0  0  0  0  0  0  0  0  0  0
    4.1246   19.0155    3.0185 O   0  0  0  0  0  0  0  0  0  0  0  0
    3.9961   20.5835    5.4780 H   0  0  0  0  0  0  0  0  0  0  0  0
   16.9381   24.0003    0.4291 C   0  0  0  0  0  0  0  0  0  0  0  0
   17.9167   23.8732   -0.5291 C   0  0  0  0  0  0  0  0  0  0  0  0
   19.2633   23.9678   -0.2258 C   0  0  0  0  0  0  0  0  0  0  0  0
   19.6467   24.1913    1.0444 N   0  0  0  0  0  0  0  0  0  0  0  0
   18.6817   24.3116    1.9615 C   0  0  0  0  0  0  0  0  0  0  0  0
   17.3632   24.2241    1.6945 N   0  0  0  0  0  0  0  0  0  0  0  0
   16.7859   25.7943   -4.3340 C   0  0  0  0  0  0  0  0  0  0  0  0
   15.8679   28.3936   -5.3206 C   0  0  0  0  0  0  0  0  0  0  0  0
   15.6045   27.1242   -6.0540 C   0  0  0  0  0  0  0  0  0  0  0  0
   14.8864   27.2153   -7.2555 C   0  0  0  0  0  0  0  0  0  0  0  0
   14.6228   26.0680   -7.9685 C   0  0  0  0  0  0  0  0  0  0  0  0
   15.0789   24.8719   -7.4673 C   0  0  0  0  0  0  0  0  0  0  0  0
   15.7621   24.8268   -6.3152 N   0  0  0  0  0  0  0  0  0  0  0  0
   16.0429   25.9109   -5.5869 C   0  0  0  0  0  0  0  0  0  0  0  0
 37 38  1  0  0  0
 38 39  2  0  0  0
 39 40  1  0  0  0
 40 41  2  0  0  0
 41 42  1  0  0  0
 42 43  2  0  0  0
 43 36  1  0  0  0
 36  1  1  0  0  0
  1  2  1  0  0  0
  2  3  1  0  0  0
  3  4  1  0  0  0
  4  5  1  0  0  0
  5  6  1  0  0  0
  4  7  1  0  0  0
  7  8  1  0  0  0
  8  9  2  0  0  0
  8 10  1  0  0  0
 10 11  1  0  0  0
 11 12  2  0  0  0
 10 13  1  0  0  0
 13 14  2  0  0  0
 14 15  1  0  0  0
 15 16  2  0  0  0
 16 17  1  0  0  0
 17 18  2  0  0  0
 16 19  1  0  0  0
 19 20  2  0  0  0
 20 21  1  0  0  0
 21 22  2  0  0  0
 22 23  1  0  0  0
 23 24  2  0  0  0
 24 25  1  0  0  0
 22 26  1  0  0  0
 26 27  1  0  0  0
 26 28  2  0  0  0
  7 30  1  0  0  0
 30 31  2  0  0  0
 31 32  1  0  0  0
 32 33  2  0  0  0
 33 34  1  0  0  0
 34 35  2  0  0  0
 43 38  1  0  0  0
  6  1  1  0  0  0
 18 13  1  0  0  0
 24 19  1  0  0  0
 35 30  1  0  0  0
 11  4  1  0  0  0
 27 29  1  0  0  0
M  END
> <minimizedAffinity>
7.49174

> <CNNscore>
0.3193611205

> <CNNaffinity>
7.5822463036

> <CNN_VS>
2.4214746952

> <CNNaffinity_variance>
0.8219947815

$$$$
[H]OC(=O)c1c([H])c([H])c(-c2c([H])c([H])c(N3C(=O)N(c4nc([H])nc([H])c4[H])C4(C3=O)C([H])([H])C([H])([H])N(C([H])([H])c3nc([H])c([H])c([H])c3C([H])([H])[H])C([H])([H])C4([H])[H])c([H])c2[H])c(C([H])([H])[H])c1[H]


 43 48  0  0  0  0  0  0  0  0999 V2000
   14.1580   27.1046   -5.0563 N   0  0  0  0  0  0  0  0  0  0  0  0
   12.8248   27.2324   -4.5593 C   0  0  0  0  0  0  0  0  0  0  0  0
   12.5292   25.9586   -3.8011 C   0  0  0  0  0  0  0  0  0  0  0  0
   13.5820   25.5737   -2.8328 C   0  0  0  0  0  0  0  0  0  0  0  0
   14.9264   26.1769   -3.0008 C   0  0  0  0  0  0  0  0  0  0  0  0
   15.0555   27.2954   -3.9722 C   0  0  0  0  0  0  0  0  0  0  0  0
   13.7534   24.1197   -2.9232 N   0  0  0  0  0  0  0  0  0  0  0  0
   12.7187   23.5115   -2.1241 C   0  0  0  0  0  0  0  0  0  0  0  0
   12.3530   22.3477   -2.3167 O   0  0  0  0  0  0  0  0  0  0  0  0
   12.3038   24.5050   -1.1837 N   0  0  0  0  0  0  0  0  0  0  0  0
   13.0734   25.6775   -1.4133 C   0  0  0  0  0  0  0  0  0  0  0  0
   13.3303   26.6466   -0.6580 O   0  0  0  0  0  0  0  0  0  0  0  0
   11.2906   24.3419   -0.2115 C   0  0  0  0  0  0  0  0  0  0  0  0
   11.3008   23.3183    0.6975 C   0  0  0  0  0  0  0  0  0  0  0  0
   10.2858   23.2252    1.6221 C   0  0  0  0  0  0  0  0  0  0  0  0
    9.2554   24.1211    1.6724 C   0  0  0  0  0  0  0  0  0  0  0  0
    9.2297   25.1563    0.7654 C   0  0  0  0  0  0  0  0  0  0  0  0
   10.2471   25.2467   -0.1582 C   0  0  0  0  0  0  0  0  0  0  0  0
    8.2099   24.0114    2.6759 C   0  0  0  0  0  0  0  0  0  0  0  0
    7.5413   22.8162    2.8911 C   0  0  0  0  0  0  0  0  0  0  0  0
    6.5672   22.6795    3.8542 C   0  0  0  0  0  0  0  0  0  0  0  0
    6.2629   23.7825    4.6185 C   0  0  0  0  0  0  0  0  0  0  0  0
    6.9228   24.9819    4.4137 C   0  0  0  0  0  0  0  0  0  0  0  0
    7.9086   25.1174    3.4378 C   0  0  0  0  0  0  0  0  0  0  0  0
    8.5810   26.4511    3.2543 C   0  0  0  0  0  0  0  0  0  0  0  0
    5.2422   23.6531    5.6356 C   0  0  0  0  0  0  0  0  0  0  0  0
    4.9671   22.4433    6.2314 O   0  0  0  0  0  0  0  0  0  0  0  0
    4.5966   24.6673    5.9791 O   0  0  0  0  0  0  0  0  0  0  0  0
    5.4671   22.0915    7.0432 H   0  0  0  0  0  0  0  0  0  0  0  0
   14.7409   23.3971   -3.6524 C   0  0  0  0  0  0  0  0  0  0  0  0
   15.3504   23.9148   -4.7714 C   0  0  0  0  0  0  0  0  0  0  0  0
   16.3070   23.2122   -5.4825 C   0  0  0  0  0  0  0  0  0  0  0  0
   16.6652   21.9793   -5.0800 N   0  0  0  0  0  0  0  0  0  0  0  0
   16.0618   21.4929   -3.9909 C   0  0  0  0  0  0  0  0  0  0  0  0
   15.1275   22.1547   -3.2793 N   0  0  0  0  0  0  0  0  0  0  0  0
   14.4503   27.7502   -6.2780 C   0  0  0  0  0  0  0  0  0  0  0  0
   15.8055   29.0036   -8.5507 C   0  0  0  0  0  0  0  0  0  0  0  0
   15.7536   27.5260   -8.3694 C   0  0  0  0  0  0  0  0  0  0  0  0
   16.3856   26.7382   -9.3429 C   0  0  0  0  0  0  0  0  0  0  0  0
   16.3656   25.3682   -9.2141 C   0  0  0  0  0  0  0  0  0  0  0  0
   15.7212   24.8266   -8.1272 C   0  0  0  0  0  0  0  0  0  0  0  0
   15.1292   25.6138   -7.2184 N   0  0  0  0  0  0  0  0  0  0  0  0
   15.1206   26.9473   -7.2984 C   0  0  0  0  0  0  0  0  0  0  0  0
 37 38  1  0  0  0
 38 39  2  0  0  0
 39 40  1  0  0  0
 40 41  2  0  0  0
 41 42  1  0  0  0
 42 43  2  0  0  0
 43 36  1  0  0  0
 36  1  1  0  0  0
  1  2  1  0  0  0
  2  3  1  0  0  0
  3  4  1  0  0  0
  4  5  1  0  0  0
  5  6  1  0  0  0
  4  7  1  0  0  0
  7  8  1  0  0  0
  8  9  2  0  0  0
  8 10  1  0  0  0
 10 11  1  0  0  0
 11 12  2  0  0  0
 10 13  1  0  0  0
 13 14  2  0  0  0
 14 15  1  0  0  0
 15 16  2  0  0  0
 16 17  1  0  0  0
 17 18  2  0  0  0
 16 19  1  0  0  0
 19 20  2  0  0  0
 20 21  1  0  0  0
 21 22  2  0  0  0
 22 23  1  0  0  0
 23 24  2  0  0  0
 24 25  1  0  0  0
 22 26  1  0  0  0
 26 27  1  0  0  0
 26 28  2  0  0  0
  7 30  1  0  0  0
 30 31  2  0  0  0
 31 32  1  0  0  0
 32 33  2  0  0  0
 33 34  1  0  0  0
 34 35  2  0  0  0
 43 38  1  0  0  0
  6  1  1  0  0  0
 18 13  1  0  0  0
 24 19  1  0  0  0
 35 30  1  0  0  0
 11  4  1  0  0  0
 27 29  1  0  0  0
M  END
> <minimizedAffinity>
29.81604

> <CNNscore>
0.2954995632

> <CNNaffinity>
7.0812363625

> <CNN_VS>
2.0925023556

> <CNNaffinity_variance>
0.5686363578

$$$$
[H]OC(=O)c1c([H])c([H])c(-c2c([H])c([H])c(N3C(=O)N(c4nc([H])nc([H])c4[H])C4(C3=O)C([H])([H])C([H])([H])N(C([H])([H])c3nc([H])c([H])c([H])c3C([H])([H])[H])C([H])([H])C4([H])[H])c([H])c2[H])c(C([H])([H])[H])c1[H]


 43 48  0  0  0  0  0  0  0  0999 V2000
   13.3564   20.9132   -0.9226 N   0  0  0  0  0  0  0  0  0  0  0  0
   13.9727   21.4196   -2.1076 C   0  0  0  0  0  0  0  0  0  0  0  0
   13.7092   22.9080   -2.1219 C   0  0  0  0  0  0  0  0  0  0  0  0
   14.0263   23.5900   -0.8457 C   0  0  0  0  0  0  0  0  0  0  0  0
   14.1394   22.7527    0.3733 C   0  0  0  0  0  0  0  0  0  0  0  0
   14.1639   21.2776    0.1875 C   0  0  0  0  0  0  0  0  0  0  0  0
   12.9630   24.5684   -0.5931 N   0  0  0  0  0  0  0  0  0  0  0  0
   13.2689   25.7483   -1.3633 C   0  0  0  0  0  0  0  0  0  0  0  0
   12.3931   26.5608   -1.6767 O   0  0  0  0  0  0  0  0  0  0  0  0
   14.6748   25.7060   -1.6184 N   0  0  0  0  0  0  0  0  0  0  0  0
   15.1971   24.5309   -1.0133 C   0  0  0  0  0  0  0  0  0  0  0  0
   16.3670   24.2459   -0.6588 O   0  0  0  0  0  0  0  0  0  0  0  0
   15.4030   26.6639   -2.3603 C   0  0  0  0  0  0  0  0  0  0  0  0
   16.5842   27.1953   -1.9169 C   0  0  0  0  0  0  0  0  0  0  0  0
   17.2448   28.1180   -2.6955 C   0  0  0  0  0  0  0  0  0  0  0  0
   16.7666   28.5319   -3.9066 C   0  0  0  0  0  0  0  0  0  0  0  0
   15.5800   28.0078   -4.3672 C   0  0  0  0  0  0  0  0  0  0  0  0
   14.9218   27.0844   -3.5858 C   0  0  0  0  0  0  0  0  0  0  0  0
   17.4985   29.4899   -4.7181 C   0  0  0  0  0  0  0  0  0  0  0  0
   18.7201   29.9987   -4.3048 C   0  0  0  0  0  0  0  0  0  0  0  0
   19.4456   30.8854   -5.0681 C   0  0  0  0  0  0  0  0  0  0  0  0
   18.9194   31.2662   -6.2812 C   0  0  0  0  0  0  0  0  0  0  0  0
   17.7006   30.7658   -6.7056 C   0  0  0  0  0  0  0  0  0  0  0  0
   16.9682   29.8683   -5.9307 C   0  0  0  0  0  0  0  0  0  0  0  0
   15.6431   29.3698   -6.4407 C   0  0  0  0  0  0  0  0  0  0  0  0
   19.6718   32.1964   -7.0947 C   0  0  0  0  0  0  0  0  0  0  0  0
   19.3870   33.5429   -7.1012 O   0  0  0  0  0  0  0  0  0  0  0  0
   20.6027   31.7625   -7.8079 O   0  0  0  0  0  0  0  0  0  0  0  0
   19.7760   34.2014   -6.4320 H   0  0  0  0  0  0  0  0  0  0  0  0
   11.8214   24.4251    0.2465 C   0  0  0  0  0  0  0  0  0  0  0  0
   11.6033   25.2406    1.3325 C   0  0  0  0  0  0  0  0  0  0  0  0
   10.4965   25.0997    2.1508 C   0  0  0  0  0  0  0  0  0  0  0  0
    9.5928   24.1376    1.8904 N   0  0  0  0  0  0  0  0  0  0  0  0
    9.8219   23.3548    0.8314 C   0  0  0  0  0  0  0  0  0  0  0  0
   10.8905   23.4694    0.0176 N   0  0  0  0  0  0  0  0  0  0  0  0
   12.8601   19.5919   -0.9737 C   0  0  0  0  0  0  0  0  0  0  0  0
   11.9977   19.7484    1.8199 C   0  0  0  0  0  0  0  0  0  0  0  0
   11.0478   19.4704    0.7067 C   0  0  0  0  0  0  0  0  0  0  0  0
    9.7003   19.2800    1.0464 C   0  0  0  0  0  0  0  0  0  0  0  0
    8.7866   19.0238    0.0496 C   0  0  0  0  0  0  0  0  0  0  0  0
    9.2387   18.9650   -1.2473 C   0  0  0  0  0  0  0  0  0  0  0  0
   10.5350   19.1528   -1.5310 N   0  0  0  0  0  0  0  0  0  0  0  0
   11.4599   19.4038   -0.6004 C   0  0  0  0  0  0  0  0  0  0  0  0
 37 38  1  0  0  0
 38 39  2  0  0  0
 39 40  1  0  0  0
 40 41  2  0  0  0
 41 42  1  0  0  0
 42 43  2  0  0  0
 43 36  1  0  0  0
 36  1  1  0  0  0
  1  2  1  0  0  0
  2  3  1  0  0  0
  3  4  1  0  0  0
  4  5  1  0  0  0
  5  6  1  0  0  0
  4  7  1  0  0  0
  7  8  1  0  0  0
  8  9  2  0  0  0
  8 10  1  0  0  0
 10 11  1  0  0  0
 11 12  2  0  0  0
 10 13  1  0  0  0
 13 14  2  0  0  0
 14 15  1  0  0  0
 15 16  2  0  0  0
 16 17  1  0  0  0
 17 18  2  0  0  0
 16 19  1  0  0  0
 19 20  2  0  0  0
 20 21  1  0  0  0
 21 22  2  0  0  0
 22 23  1  0  0  0
 23 24  2  0  0  0
 24 25  1  0  0  0
 22 26  1  0  0  0
 26 27  1  0  0  0
 26 28  2  0  0  0
  7 30  1  0  0  0
 30 31  2  0  0  0
 31 32  1  0  0  0
 32 33  2  0  0  0
 33 34  1  0  0  0
 34 35  2  0  0  0
 43 38  1  0  0  0
  6  1  1  0  0  0
 18 13  1  0  0  0
 24 19  1  0  0  0
 35 30  1  0  0  0
 11  4  1  0  0  0
 27 29  1  0  0  0
M  END
> <minimizedAffinity>
54.67532

> <CNNscore>
0.2576221228

> <CNNaffinity>
7.2531995773

> <CNN_VS>
1.8685846329

> <CNNaffinity_variance>
0.2809632421

$$$$
[H]OC(=O)c1c([H])c([H])c(-c2c([H])c([H])c(N3C(=O)N(c4nc([H])nc(C([H])([H])[H])c4[H])C4(C3=O)C([H])([H])C([H])([H])N(C([H])([H])c3nc([H])c([H])c([H])c3C([H])([H])[H])C([H])([H])C4([H])[H])c([H])c2[H])c(C([H])([H])[H])c1[H]


 44 49  0  0  0  0  0  0  0  0999 V2000
   14.7403   24.3449   -0.5543 N   0  0  0  0  0  0  0  0  0  0  0  0
   14.0056   23.8197    0.5431 C   0  0  0  0  0  0  0  0  0  0  0  0
   14.4644   23.6241    1.7061 O   0  0  0  0  0  0  0  0  0  0  0  0
   12.6840   23.5635    0.0874 N   0  0  0  0  0  0  0  0  0  0  0  0
   12.6167   23.9292   -1.2648 C   0  0  0  0  0  0  0  0  0  0  0  0
   11.7080   23.6437   -2.0784 O   0  0  0  0  0  0  0  0  0  0  0  0
   13.8262   24.7439   -1.6329 C   0  0  0  0  0  0  0  0  0  0  0  0
   13.5314   26.2072   -1.6135 C   0  0  0  0  0  0  0  0  0  0  0  0
   14.0130   26.8391   -2.9008 C   0  0  0  0  0  0  0  0  0  0  0  0
   13.3720   26.1674   -3.9790 N   0  0  0  0  0  0  0  0  0  0  0  0
   13.9212   24.8597   -4.1581 C   0  0  0  0  0  0  0  0  0  0  0  0
   14.3891   24.2110   -2.9040 C   0  0  0  0  0  0  0  0  0  0  0  0
   18.9752   24.1420    1.9195 C   0  0  0  0  0  0  0  0  0  0  0  0
   18.2012   24.3310    0.6610 C   0  0  0  0  0  0  0  0  0  0  0  0
   16.8260   24.2423    0.6665 C   0  0  0  0  0  0  0  0  0  0  0  0
   16.1667   24.4277   -0.5294 C   0  0  0  0  0  0  0  0  0  0  0  0
   16.8783   24.6809   -1.6237 N   0  0  0  0  0  0  0  0  0  0  0  0
   18.1967   24.7613   -1.6057 C   0  0  0  0  0  0  0  0  0  0  0  0
   18.8923   24.5897   -0.4691 N   0  0  0  0  0  0  0  0  0  0  0  0
   11.6739   23.0220    0.9109 C   0  0  0  0  0  0  0  0  0  0  0  0
   10.7431   23.8577    1.5389 C   0  0  0  0  0  0  0  0  0  0  0  0
    9.7618   23.2972    2.3128 C   0  0  0  0  0  0  0  0  0  0  0  0
    9.6799   21.9444    2.4781 C   0  0  0  0  0  0  0  0  0  0  0  0
   10.6062   21.1408    1.8526 C   0  0  0  0  0  0  0  0  0  0  0  0
   11.5903   21.6577    1.0801 C   0  0  0  0  0  0  0  0  0  0  0  0
    8.6137   21.3089    3.2796 C   0  0  0  0  0  0  0  0  0  0  0  0
    8.8360   20.8259    4.5519 C   0  0  0  0  0  0  0  0  0  0  0  0
    7.8004   20.2379    5.2872 C   0  0  0  0  0  0  0  0  0  0  0  0
    6.5331   20.1251    4.7633 C   0  0  0  0  0  0  0  0  0  0  0  0
    6.3112   20.6065    3.4948 C   0  0  0  0  0  0  0  0  0  0  0  0
    7.3525   21.1968    2.7564 C   0  0  0  0  0  0  0  0  0  0  0  0
    7.0519   21.6708    1.4016 C   0  0  0  0  0  0  0  0  0  0  0  0
    5.4345   19.5026    5.5234 C   0  0  0  0  0  0  0  0  0  0  0  0
    5.5788   18.2976    6.1737 O   0  0  0  0  0  0  0  0  0  0  0  0
    4.3118   20.0718    5.5969 O   0  0  0  0  0  0  0  0  0  0  0  0
    4.7981   17.6385    6.2248 H   0  0  0  0  0  0  0  0  0  0  0  0
   13.3521   26.9141   -5.1961 C   0  0  0  0  0  0  0  0  0  0  0  0
   14.4173   26.6582   -6.1553 C   0  0  0  0  0  0  0  0  0  0  0  0
   14.2832   25.7662   -7.1474 N   0  0  0  0  0  0  0  0  0  0  0  0
   15.2813   25.5187   -8.0176 C   0  0  0  0  0  0  0  0  0  0  0  0
   16.4768   26.1917   -7.8988 C   0  0  0  0  0  0  0  0  0  0  0  0
   16.6448   27.1196   -6.8837 C   0  0  0  0  0  0  0  0  0  0  0  0
   15.6044   27.3470   -6.0128 C   0  0  0  0  0  0  0  0  0  0  0  0
   15.7322   28.3213   -4.9234 C   0  0  0  0  0  0  0  0  0  0  0  0
 13 14  1  0  0  0
 14 15  2  0  0  0
 15 16  1  0  0  0
 16 17  2  0  0  0
 17 18  1  0  0  0
 18 19  2  0  0  0
 16  1  1  0  0  0
  1  2  1  0  0  0
  2  3  2  0  0  0
  2  4  1  0  0  0
  4  5  1  0  0  0
  5  6  2  0  0  0
  5  7  1  0  0  0
  7  8  1  0  0  0
  8  9  1  0  0  0
  9 10  1  0  0  0
 10 37  1  0  0  0
 37 38  1  0  0  0
 38 39  2  0  0  0
 39 40  1  0  0  0
 40 41  2  0  0  0
 41 42  1  0  0  0
 42 43  2  0  0  0
 43 44  1  0  0  0
 10 11  1  0  0  0
 11 12  1  0  0  0
  4 20  1  0  0  0
 20 21  2  0  0  0
 21 22  1  0  0  0
 22 23  2  0  0  0
 23 24  1  0  0  0
 24 25  2  0  0  0
 23 26  1  0  0  0
 26 27  2  0  0  0
 27 28  1  0  0  0
 28 29  2  0  0  0
 29 30  1  0  0  0
 30 31  2  0  0  0
 31 32  1  0  0  0
 29 33  1  0  0  0
 33 34  1  0  0  0
 33 35  2  0  0  0
 19 14  1  0  0  0
  7  1  1  0  0  0
 12  7  1  0  0  0
 25 20  1  0  0  0
 31 26  1  0  0  0
 43 38  1  0  0  0
 34 36  1  0  0  0
M  END
> <minimizedAffinity>
4.29884

> <CNNscore>
0.5491638184

> <CNNaffinity>
7.9080457687

> <CNN_VS>
4.3428125381

> <CNNaffinity_variance>
0.8157508969

$$$$
[H]OC(=O)c1c([H])c([H])c(-c2c([H])c([H])c(N3C(=O)N(c4nc([H])nc(C([H])([H])[H])c4[H])C4(C3=O)C([H])([H])C([H])([H])N(C([H])([H])c3nc([H])c([H])c([H])c3C([H])([H])[H])C([H])([H])C4([H])[H])c([H])c2[H])c(C([H])([H])[H])c1[H]


 44 49  0  0  0  0  0  0  0  0999 V2000
   15.0709   23.7383   -0.0117 N   0  0  0  0  0  0  0  0  0  0  0  0
   14.1141   23.3598    0.9687 C   0  0  0  0  0  0  0  0  0  0  0  0
   14.2980   23.3848    2.2205 O   0  0  0  0  0  0  0  0  0  0  0  0
   12.9369   22.9571    0.2819 N   0  0  0  0  0  0  0  0  0  0  0  0
   13.1743   23.0908   -1.0938 C   0  0  0  0  0  0  0  0  0  0  0  0
   12.4814   22.6239   -2.0270 O   0  0  0  0  0  0  0  0  0  0  0  0
   14.4209   23.9015   -1.3189 C   0  0  0  0  0  0  0  0  0  0  0  0
   14.1029   25.3288   -1.6194 C   0  0  0  0  0  0  0  0  0  0  0  0
   14.8549   25.7667   -2.8568 C   0  0  0  0  0  0  0  0  0  0  0  0
   14.4901   24.8913   -3.9176 N   0  0  0  0  0  0  0  0  0  0  0  0
   15.0894   23.6054   -3.7406 C   0  0  0  0  0  0  0  0  0  0  0  0
   15.2695   23.1998   -2.3209 C   0  0  0  0  0  0  0  0  0  0  0  0
   19.7488   24.2351   -1.4136 C   0  0  0  0  0  0  0  0  0  0  0  0
   18.6999   24.1431   -0.3600 C   0  0  0  0  0  0  0  0  0  0  0  0
   17.3751   23.9852   -0.7050 C   0  0  0  0  0  0  0  0  0  0  0  0
   16.4520   23.9055    0.3152 C   0  0  0  0  0  0  0  0  0  0  0  0
   16.8751   23.9839    1.5732 N   0  0  0  0  0  0  0  0  0  0  0  0
   18.1509   24.1356    1.8808 C   0  0  0  0  0  0  0  0  0  0  0  0
   19.0948   24.2189    0.9284 N   0  0  0  0  0  0  0  0  0  0  0  0
   11.7750   22.5017    0.9412 C   0  0  0  0  0  0  0  0  0  0  0  0
   11.4866   21.1338    1.0122 C   0  0  0  0  0  0  0  0  0  0  0  0
   10.3627   20.7249    1.6798 C   0  0  0  0  0  0  0  0  0  0  0  0
    9.5266   21.6269    2.2725 C   0  0  0  0  0  0  0  0  0  0  0  0
    9.8283   22.9675    2.1896 C   0  0  0  0  0  0  0  0  0  0  0  0
   10.9296   23.4100    1.5387 C   0  0  0  0  0  0  0  0  0  0  0  0
    8.3252   21.2142    3.0271 C   0  0  0  0  0  0  0  0  0  0  0  0
    7.0747   21.1567    2.4488 C   0  0  0  0  0  0  0  0  0  0  0  0
    5.9590   20.7521    3.1907 C   0  0  0  0  0  0  0  0  0  0  0  0
    6.0772   20.4004    4.5157 C   0  0  0  0  0  0  0  0  0  0  0  0
    7.3238   20.4578    5.0925 C   0  0  0  0  0  0  0  0  0  0  0  0
    8.4443   20.8648    4.3464 C   0  0  0  0  0  0  0  0  0  0  0  0
    9.7408   20.9232    5.0291 C   0  0  0  0  0  0  0  0  0  0  0  0
    4.9102   19.9786    5.3110 C   0  0  0  0  0  0  0  0  0  0  0  0
    4.3194   18.7448    5.1551 O   0  0  0  0  0  0  0  0  0  0  0  0
    4.4147   20.7556    6.1715 O   0  0  0  0  0  0  0  0  0  0  0  0
    3.3071   18.6376    5.2559 H   0  0  0  0  0  0  0  0  0  0  0  0
   14.7358   25.4251   -5.2190 C   0  0  0  0  0  0  0  0  0  0  0  0
   15.3487   26.7436   -5.2963 C   0  0  0  0  0  0  0  0  0  0  0  0
   14.9346   27.6713   -6.1715 N   0  0  0  0  0  0  0  0  0  0  0  0
   15.5213   28.8813   -6.2523 C   0  0  0  0  0  0  0  0  0  0  0  0
   16.5750   29.1890   -5.4208 C   0  0  0  0  0  0  0  0  0  0  0  0
   17.0249   28.2507   -4.5060 C   0  0  0  0  0  0  0  0  0  0  0  0
   16.4024   27.0251   -4.4510 C   0  0  0  0  0  0  0  0  0  0  0  0
   16.8400   25.9992   -3.4979 C   0  0  0  0  0  0  0  0  0  0  0  0
 13 14  1  0  0  0
 14 15  2  0  0  0
 15 16  1  0  0  0
 16 17  2  0  0  0
 17 18  1  0  0  0
 18 19  2  0  0  0
 16  1  1  0  0  0
  1  2  1  0  0  0
  2  3  2  0  0  0
  2  4  1  0  0  0
  4  5  1  0  0  0
  5  6  2  0  0  0
  5  7  1  0  0  0
  7  8  1  0  0  0
  8  9  1  0  0  0
  9 10  1  0  0  0
 10 37  1  0  0  0
 37 38  1  0  0  0
 38 39  2  0  0  0
 39 40  1  0  0  0
 40 41  2  0  0  0
 41 42  1  0  0  0
 42 43  2  0  0  0
 43 44  1  0  0  0
 10 11  1  0  0  0
 11 12  1  0  0  0
  4 20  1  0  0  0
 20 21  2  0  0  0
 21 22  1  0  0  0
 22 23  2  0  0  0
 23 24  1  0  0  0
 24 25  2  0  0  0
 23 26  1  0  0  0
 26 27  2  0  0  0
 27 28  1  0  0  0
 28 29  2  0  0  0
 29 30  1  0  0  0
 30 31  2  0  0  0
 31 32  1  0  0  0
 29 33  1  0  0  0
 33 34  1  0  0  0
 33 35  2  0  0  0
 19 14  1  0  0  0
  7  1  1  0  0  0
 12  7  1  0  0  0
 25 20  1  0  0  0
 31 26  1  0  0  0
 43 38  1  0  0  0
 34 36  1  0  0  0
M  END
> <minimizedAffinity>
10.13704

> <CNNscore>
0.5433846712

> <CNNaffinity>
7.8939447403

> <CNN_VS>
4.2894487381

> <CNNaffinity_variance>
0.5136238337

$$$$
[H]OC(=O)c1c([H])c([H])c(-c2c([H])c([H])c(N3C(=O)N(c4nc([H])nc(C([H])([H])[H])c4[H])C4(C3=O)C([H])([H])C([H])([H])N(C([H])([H])c3nc([H])c([H])c([H])c3C([H])([H])[H])C([H])([H])C4([H])[H])c([H])c2[H])c(C([H])([H])[H])c1[H]


 44 49  0  0  0  0  0  0  0  0999 V2000
   15.7541   24.2708   -0.2332 N   0  0  0  0  0  0  0  0  0  0  0  0
   14.6913   23.7510    0.5542 C   0  0  0  0  0  0  0  0  0  0  0  0
   14.7675   23.4487    1.7807 O   0  0  0  0  0  0  0  0  0  0  0  0
   13.5519   23.6403   -0.2880 N   0  0  0  0  0  0  0  0  0  0  0  0
   13.9165   24.0877   -1.5661 C   0  0  0  0  0  0  0  0  0  0  0  0
   13.2749   23.9317   -2.6306 O   0  0  0  0  0  0  0  0  0  0  0  0
   15.2332   24.8111   -1.4960 C   0  0  0  0  0  0  0  0  0  0  0  0
   15.0464   26.2914   -1.4448 C   0  0  0  0  0  0  0  0  0  0  0  0
   15.9323   26.9508   -2.4786 C   0  0  0  0  0  0  0  0  0  0  0  0
   15.5984   26.4021   -3.7483 N   0  0  0  0  0  0  0  0  0  0  0  0
   16.0856   25.0631   -3.8644 C   0  0  0  0  0  0  0  0  0  0  0  0
   16.1123   24.3042   -2.5854 C   0  0  0  0  0  0  0  0  0  0  0  0
   20.5344   23.6799   -1.1795 C   0  0  0  0  0  0  0  0  0  0  0  0
   19.4072   23.9393   -0.2409 C   0  0  0  0  0  0  0  0  0  0  0  0
   18.1094   23.9814   -0.7023 C   0  0  0  0  0  0  0  0  0  0  0  0
   17.1103   24.2245    0.2152 C   0  0  0  0  0  0  0  0  0  0  0  0
   17.4385   24.4061    1.4908 N   0  0  0  0  0  0  0  0  0  0  0  0
   18.6902   24.3616    1.9109 C   0  0  0  0  0  0  0  0  0  0  0  0
   19.7049   24.1280    1.0619 N   0  0  0  0  0  0  0  0  0  0  0  0
   12.3075   23.1446    0.1566 C   0  0  0  0  0  0  0  0  0  0  0  0
   11.9307   21.8234   -0.1112 C   0  0  0  0  0  0  0  0  0  0  0  0
   10.7260   21.3679    0.3550 C   0  0  0  0  0  0  0  0  0  0  0  0
    9.8944   22.1791    1.0722 C   0  0  0  0  0  0  0  0  0  0  0  0
   10.2839   23.4754    1.3232 C   0  0  0  0  0  0  0  0  0  0  0  0
   11.4666   23.9616    0.8791 C   0  0  0  0  0  0  0  0  0  0  0  0
    8.6044   21.7067    1.6159 C   0  0  0  0  0  0  0  0  0  0  0  0
    7.4357   21.7508    0.8854 C   0  0  0  0  0  0  0  0  0  0  0  0
    6.2323   21.2859    1.4283 C   0  0  0  0  0  0  0  0  0  0  0  0
    6.1805   20.7723    2.7037 C   0  0  0  0  0  0  0  0  0  0  0  0
    7.3455   20.7283    3.4323 C   0  0  0  0  0  0  0  0  0  0  0  0
    8.5542   21.1960    2.8862 C   0  0  0  0  0  0  0  0  0  0  0  0
    9.7555   21.1390    3.7253 C   0  0  0  0  0  0  0  0  0  0  0  0
    4.9194   20.2850    3.2906 C   0  0  0  0  0  0  0  0  0  0  0  0
    4.3107   19.1242    2.8691 O   0  0  0  0  0  0  0  0  0  0  0  0
    4.3562   20.9348    4.2127 O   0  0  0  0  0  0  0  0  0  0  0  0
    3.2905   19.0526    2.8442 H   0  0  0  0  0  0  0  0  0  0  0  0
   15.9937   27.2163   -4.8528 C   0  0  0  0  0  0  0  0  0  0  0  0
   15.7739   26.6827   -6.1896 C   0  0  0  0  0  0  0  0  0  0  0  0
   16.7888   26.3928   -7.0165 N   0  0  0  0  0  0  0  0  0  0  0  0
   16.5770   25.9203   -8.2601 C   0  0  0  0  0  0  0  0  0  0  0  0
   15.2898   25.7239   -8.7086 C   0  0  0  0  0  0  0  0  0  0  0  0
   14.2206   26.0142   -7.8766 C   0  0  0  0  0  0  0  0  0  0  0  0
   14.4739   26.4954   -6.6129 C   0  0  0  0  0  0  0  0  0  0  0  0
   13.3762   26.8151   -5.6937 C   0  0  0  0  0  0  0  0  0  0  0  0
 13 14  1  0  0  0
 14 15  2  0  0  0
 15 16  1  0  0  0
 16 17  2  0  0  0
 17 18  1  0  0  0
 18 19  2  0  0  0
 16  1  1  0  0  0
  1  2  1  0  0  0
  2  3  2  0  0  0
  2  4  1  0  0  0
  4  5  1  0  0  0
  5  6  2  0  0  0
  5  7  1  0  0  0
  7  8  1  0  0  0
  8  9  1  0  0  0
  9 10  1  0  0  0
 10 37  1  0  0  0
 37 38  1  0  0  0
 38 39  2  0  0  0
 39 40  1  0  0  0
 40 41  2  0  0  0
 41 42  1  0  0  0
 42 43  2  0  0  0
 43 44  1  0  0  0
 10 11  1  0  0  0
 11 12  1  0  0  0
  4 20  1  0  0  0
 20 21  2  0  0  0
 21 22  1  0  0  0
 22 23  2  0  0  0
 23 24  1  0  0  0
 24 25  2  0  0  0
 23 26  1  0  0  0
 26 27  2  0  0  0
 27 28  1  0  0  0
 28 29  2  0  0  0
 29 30  1  0  0  0
 30 31  2  0  0  0
 31 32  1  0  0  0
 29 33  1  0  0  0
 33 34  1  0  0  0
 33 35  2  0  0  0
 19 14  1  0  0  0
  7  1  1  0  0  0
 12  7  1  0  0  0
 25 20  1  0  0  0
 31 26  1  0  0  0
 43 38  1  0  0  0
 34 36  1  0  0  0
M  END
> <minimizedAffinity>
14.65686

> <CNNscore>
0.5364709496

> <CNNaffinity>
8.0553092957

> <CNN_VS>
4.3214392662

> <CNNaffinity_variance>
1.1151864529

$$$$
[H]OC(=O)c1c([H])c([H])c(-c2c([H])c([H])c(N3C(=O)N(c4nc([H])nc(C([H])([H])[H])c4[H])C4(C3=O)C([H])([H])C([H])([H])N(C([H])([H])c3nc([H])c([H])c([H])c3C([H])([H])[H])C([H])([H])C4([H])[H])c([H])c2[H])c(C([H])([H])[H])c1[H]


 44 49  0  0  0  0  0  0  0  0999 V2000
   11.9509   22.0125    0.1264 N   0  0  0  0  0  0  0  0  0  0  0  0
   12.9257   22.6456   -0.6914 C   0  0  0  0  0  0  0  0  0  0  0  0
   14.1293   22.2755   -0.8173 O   0  0  0  0  0  0  0  0  0  0  0  0
   12.2967   23.7509   -1.3259 N   0  0  0  0  0  0  0  0  0  0  0  0
   10.9605   23.7873   -0.9015 C   0  0  0  0  0  0  0  0  0  0  0  0
   10.1494   24.7308   -1.0460 O   0  0  0  0  0  0  0  0  0  0  0  0
   10.6070   22.4936   -0.2207 C   0  0  0  0  0  0  0  0  0  0  0  0
    9.8928   21.5627   -1.1438 C   0  0  0  0  0  0  0  0  0  0  0  0
    8.6404   21.0439   -0.4723 C   0  0  0  0  0  0  0  0  0  0  0  0
    7.8468   22.1675   -0.1088 N   0  0  0  0  0  0  0  0  0  0  0  0
    8.4234   22.8548    1.0043 C   0  0  0  0  0  0  0  0  0  0  0  0
    9.9091   22.8045    1.0571 C   0  0  0  0  0  0  0  0  0  0  0  0
   15.2777   19.0168    2.1398 C   0  0  0  0  0  0  0  0  0  0  0  0
   13.9167   19.6203    2.0931 C   0  0  0  0  0  0  0  0  0  0  0  0
   13.5926   20.5386    1.1181 C   0  0  0  0  0  0  0  0  0  0  0  0
   12.3171   21.0603    1.1272 C   0  0  0  0  0  0  0  0  0  0  0  0
   11.4649   20.6596    2.0657 N   0  0  0  0  0  0  0  0  0  0  0  0
   11.7974   19.7777    2.9914 C   0  0  0  0  0  0  0  0  0  0  0  0
   13.0260   19.2355    3.0314 N   0  0  0  0  0  0  0  0  0  0  0  0
   12.9711   24.6221   -2.2078 C   0  0  0  0  0  0  0  0  0  0  0  0
   14.2629   24.3222   -2.6556 C   0  0  0  0  0  0  0  0  0  0  0  0
   14.8793   25.1780   -3.5295 C   0  0  0  0  0  0  0  0  0  0  0  0
   14.2551   26.3109   -3.9664 C   0  0  0  0  0  0  0  0  0  0  0  0
   12.9853   26.5876   -3.5125 C   0  0  0  0  0  0  0  0  0  0  0  0
   12.3437   25.7662   -2.6488 C   0  0  0  0  0  0  0  0  0  0  0  0
   14.8813   27.2358   -4.9337 C   0  0  0  0  0  0  0  0  0  0  0  0
   15.2272   28.5284   -4.6004 C   0  0  0  0  0  0  0  0  0  0  0  0
   15.8278   29.3750   -5.5391 C   0  0  0  0  0  0  0  0  0  0  0  0
   16.0903   28.9433   -6.8189 C   0  0  0  0  0  0  0  0  0  0  0  0
   15.7454   27.6547   -7.1515 C   0  0  0  0  0  0  0  0  0  0  0  0
   15.1415   26.8047   -6.2078 C   0  0  0  0  0  0  0  0  0  0  0  0
   14.7806   25.4491   -6.6349 C   0  0  0  0  0  0  0  0  0  0  0  0
   16.7164   29.8257   -7.8198 C   0  0  0  0  0  0  0  0  0  0  0  0
   17.4522   29.3366   -8.8757 O   0  0  0  0  0  0  0  0  0  0  0  0
   16.5900   31.0770   -7.7297 O   0  0  0  0  0  0  0  0  0  0  0  0
   18.2688   29.8474   -9.2202 H   0  0  0  0  0  0  0  0  0  0  0  0
    6.4691   21.8584    0.1045 C   0  0  0  0  0  0  0  0  0  0  0  0
    5.8782   20.8246   -0.7334 C   0  0  0  0  0  0  0  0  0  0  0  0
    6.1999   20.6866   -2.0278 N   0  0  0  0  0  0  0  0  0  0  0  0
    5.6323   19.7417   -2.8023 C   0  0  0  0  0  0  0  0  0  0  0  0
    4.6956   18.8870   -2.2652 C   0  0  0  0  0  0  0  0  0  0  0  0
    4.3430   19.0053   -0.9306 C   0  0  0  0  0  0  0  0  0  0  0  0
    4.9426   19.9816   -0.1692 C   0  0  0  0  0  0  0  0  0  0  0  0
    4.6051   20.1453    1.2491 C   0  0  0  0  0  0  0  0  0  0  0  0
 13 14  1  0  0  0
 14 15  2  0  0  0
 15 16  1  0  0  0
 16 17  2  0  0  0
 17 18  1  0  0  0
 18 19  2  0  0  0
 16  1  1  0  0  0
  1  2  1  0  0  0
  2  3  2  0  0  0
  2  4  1  0  0  0
  4  5  1  0  0  0
  5  6  2  0  0  0
  5  7  1  0  0  0
  7  8  1  0  0  0
  8  9  1  0  0  0
  9 10  1  0  0  0
 10 37  1  0  0  0
 37 38  1  0  0  0
 38 39  2  0  0  0
 39 40  1  0  0  0
 40 41  2  0  0  0
 41 42  1  0  0  0
 42 43  2  0  0  0
 43 44  1  0  0  0
 10 11  1  0  0  0
 11 12  1  0  0  0
  4 20  1  0  0  0
 20 21  2  0  0  0
 21 22  1  0  0  0
 22 23  2  0  0  0
 23 24  1  0  0  0
 24 25  2  0  0  0
 23 26  1  0  0  0
 26 27  2  0  0  0
 27 28  1  0  0  0
 28 29  2  0  0  0
 29 30  1  0  0  0
 30 31  2  0  0  0
 31 32  1  0  0  0
 29 33  1  0  0  0
 33 34  1  0  0  0
 33 35  2  0  0  0
 19 14  1  0  0  0
  7  1  1  0  0  0
 12  7  1  0  0  0
 25 20  1  0  0  0
 31 26  1  0  0  0
 43 38  1  0  0  0
 34 36  1  0  0  0
M  END
> <minimizedAffinity>
11.73461

> <CNNscore>
0.4703859687

> <CNNaffinity>
7.8170342445

> <CNN_VS>
3.6770231724

> <CNNaffinity_variance>
0.5930529237

$$$$
[H]OC(=O)c1c([H])c([H])c(-c2c([H])c([H])c(N3C(=O)N(c4nc([H])nc(C([H])([H])[H])c4[H])C4(C3=O)C([H])([H])C([H])([H])N(C([H])([H])c3nc([H])c([H])c([H])c3C([H])([H])[H])C([H])([H])C4([H])[H])c([H])c2[H])c(C([H])([H])[H])c1[H]


 44 49  0  0  0  0  0  0  0  0999 V2000
   12.4284   22.5856    0.2573 N   0  0  0  0  0  0  0  0  0  0  0  0
   13.1646   22.8922   -0.9191 C   0  0  0  0  0  0  0  0  0  0  0  0
   13.9482   22.1012   -1.5205 O   0  0  0  0  0  0  0  0  0  0  0  0
   12.8542   24.2317   -1.2789 N   0  0  0  0  0  0  0  0  0  0  0  0
   11.9424   24.7299   -0.3371 C   0  0  0  0  0  0  0  0  0  0  0  0
   11.6103   25.9260   -0.1693 O   0  0  0  0  0  0  0  0  0  0  0  0
   11.3880   23.5979    0.4834 C   0  0  0  0  0  0  0  0  0  0  0  0
   10.0517   23.1584   -0.0164 C   0  0  0  0  0  0  0  0  0  0  0  0
    9.0771   23.0847    1.1382 C   0  0  0  0  0  0  0  0  0  0  0  0
    9.0353   24.3676    1.7521 N   0  0  0  0  0  0  0  0  0  0  0  0
   10.2336   24.6133    2.4922 C   0  0  0  0  0  0  0  0  0  0  0  0
   11.4513   23.9779    1.9214 C   0  0  0  0  0  0  0  0  0  0  0  0
   11.3034   19.5343    3.9341 C   0  0  0  0  0  0  0  0  0  0  0  0
   12.1906   19.9729    2.8208 C   0  0  0  0  0  0  0  0  0  0  0  0
   11.8708   21.0821    2.0682 C   0  0  0  0  0  0  0  0  0  0  0  0
   12.7319   21.4380    1.0528 C   0  0  0  0  0  0  0  0  0  0  0  0
   13.8209   20.7037    0.8460 N   0  0  0  0  0  0  0  0  0  0  0  0
   14.1077   19.6436    1.5802 C   0  0  0  0  0  0  0  0  0  0  0  0
   13.3052   19.2499    2.5833 N   0  0  0  0  0  0  0  0  0  0  0  0
   13.4172   24.8815   -2.3981 C   0  0  0  0  0  0  0  0  0  0  0  0
   12.7691   25.9727   -2.9884 C   0  0  0  0  0  0  0  0  0  0  0  0
   13.3550   26.5946   -4.0589 C   0  0  0  0  0  0  0  0  0  0  0  0
   14.5537   26.1678   -4.5539 C   0  0  0  0  0  0  0  0  0  0  0  0
   15.1734   25.0919   -3.9592 C   0  0  0  0  0  0  0  0  0  0  0  0
   14.6257   24.4517   -2.8998 C   0  0  0  0  0  0  0  0  0  0  0  0
   15.2256   26.8385   -5.6860 C   0  0  0  0  0  0  0  0  0  0  0  0
   15.3281   26.2570   -6.9321 C   0  0  0  0  0  0  0  0  0  0  0  0
   15.9634   26.9248   -7.9854 C   0  0  0  0  0  0  0  0  0  0  0  0
   16.5027   28.1782   -7.8086 C   0  0  0  0  0  0  0  0  0  0  0  0
   16.4008   28.7581   -6.5663 C   0  0  0  0  0  0  0  0  0  0  0  0
   15.7626   28.0862   -5.5083 C   0  0  0  0  0  0  0  0  0  0  0  0
   15.7072   28.7536   -4.2038 C   0  0  0  0  0  0  0  0  0  0  0  0
   17.1801   28.8907   -8.9068 C   0  0  0  0  0  0  0  0  0  0  0  0
   18.5410   28.8193   -9.1024 O   0  0  0  0  0  0  0  0  0  0  0  0
   16.5138   29.5981   -9.7101 O   0  0  0  0  0  0  0  0  0  0  0  0
   19.0595   29.6317   -9.4455 H   0  0  0  0  0  0  0  0  0  0  0  0
    7.8629   24.5970    2.5344 C   0  0  0  0  0  0  0  0  0  0  0  0
    7.7406   23.8645    3.7868 C   0  0  0  0  0  0  0  0  0  0  0  0
    7.6056   22.5309    3.8216 N   0  0  0  0  0  0  0  0  0  0  0  0
    7.4706   21.8622    4.9833 C   0  0  0  0  0  0  0  0  0  0  0  0
    7.4698   22.5523    6.1751 C   0  0  0  0  0  0  0  0  0  0  0  0
    7.6077   23.9309    6.1708 C   0  0  0  0  0  0  0  0  0  0  0  0
    7.7433   24.5811    4.9660 C   0  0  0  0  0  0  0  0  0  0  0  0
    7.8950   26.0392    4.9090 C   0  0  0  0  0  0  0  0  0  0  0  0
 13 14  1  0  0  0
 14 15  2  0  0  0
 15 16  1  0  0  0
 16 17  2  0  0  0
 17 18  1  0  0  0
 18 19  2  0  0  0
 16  1  1  0  0  0
  1  2  1  0  0  0
  2  3  2  0  0  0
  2  4  1  0  0  0
  4  5  1  0  0  0
  5  6  2  0  0  0
  5  7  1  0  0  0
  7  8  1  0  0  0
  8  9  1  0  0  0
  9 10  1  0  0  0
 10 37  1  0  0  0
 37 38  1  0  0  0
 38 39  2  0  0  0
 39 40  1  0  0  0
 40 41  2  0  0  0
 41 42  1  0  0  0
 42 43  2  0  0  0
 43 44  1  0  0  0
 10 11  1  0  0  0
 11 12  1  0  0  0
  4 20  1  0  0  0
 20 21  2  0  0  0
 21 22  1  0  0  0
 22 23  2  0  0  0
 23 24  1  0  0  0
 24 25  2  0  0  0
 23 26  1  0  0  0
 26 27  2  0  0  0
 27 28  1  0  0  0
 28 29  2  0  0  0
 29 30  1  0  0  0
 30 31  2  0  0  0
 31 32  1  0  0  0
 29 33  1  0  0  0
 33 34  1  0  0  0
 33 35  2  0  0  0
 19 14  1  0  0  0
  7  1  1  0  0  0
 12  7  1  0  0  0
 25 20  1  0  0  0
 31 26  1  0  0  0
 43 38  1  0  0  0
 34 36  1  0  0  0
M  END
> <minimizedAffinity>
12.60948

> <CNNscore>
0.4537771940

> <CNNaffinity>
7.6207704544

> <CNN_VS>
3.4581317902

> <CNNaffinity_variance>
0.2130556554

$$$$
[H]OC(=O)c1c([H])c([H])c(-c2c([H])c([H])c(N3C(=O)N(c4nc([H])nc(C([H])([H])[H])c4[H])C4(C3=O)C([H])([H])C([H])([H])N(C([H])([H])c3nc([H])c([H])c([H])c3C([H])([H])[H])C([H])([H])C4([H])[H])c([H])c2[H])c(C([H])([H])[H])c1[H]


 44 49  0  0  0  0  0  0  0  0999 V2000
   10.5087   22.7103    2.9151 N   0  0  0  0  0  0  0  0  0  0  0  0
   11.4264   22.7682    1.8315 C   0  0  0  0  0  0  0  0  0  0  0  0
   12.1840   21.8247    1.4611 O   0  0  0  0  0  0  0  0  0  0  0  0
   11.3278   24.0652    1.2586 N   0  0  0  0  0  0  0  0  0  0  0  0
   10.3639   24.7827    1.9817 C   0  0  0  0  0  0  0  0  0  0  0  0
   10.1565   26.0174    1.9414 O   0  0  0  0  0  0  0  0  0  0  0  0
    9.5748   23.8424    2.8506 C   0  0  0  0  0  0  0  0  0  0  0  0
    8.2746   23.4691    2.2192 C   0  0  0  0  0  0  0  0  0  0  0  0
    7.1528   23.6608    3.2158 C   0  0  0  0  0  0  0  0  0  0  0  0
    7.1817   25.0172    3.6447 N   0  0  0  0  0  0  0  0  0  0  0  0
    8.2911   25.2482    4.5165 C   0  0  0  0  0  0  0  0  0  0  0  0
    9.4902   24.4194    4.2205 C   0  0  0  0  0  0  0  0  0  0  0  0
   12.1744   18.3273    4.3679 C   0  0  0  0  0  0  0  0  0  0  0  0
   11.3657   19.5592    4.5857 C   0  0  0  0  0  0  0  0  0  0  0  0
   11.3325   20.5512    3.6298 C   0  0  0  0  0  0  0  0  0  0  0  0
   10.5652   21.6662    3.8892 C   0  0  0  0  0  0  0  0  0  0  0  0
    9.8984   21.7352    5.0374 N   0  0  0  0  0  0  0  0  0  0  0  0
    9.9450   20.7717    5.9400 C   0  0  0  0  0  0  0  0  0  0  0  0
   10.6758   19.6620    5.7412 N   0  0  0  0  0  0  0  0  0  0  0  0
   12.1081   24.4865    0.1607 C   0  0  0  0  0  0  0  0  0  0  0  0
   12.6914   23.5490   -0.6996 C   0  0  0  0  0  0  0  0  0  0  0  0
   13.4234   23.9928   -1.7689 C   0  0  0  0  0  0  0  0  0  0  0  0
   13.5901   25.3272   -2.0050 C   0  0  0  0  0  0  0  0  0  0  0  0
   13.0089   26.2321   -1.1457 C   0  0  0  0  0  0  0  0  0  0  0  0
   12.2786   25.8320   -0.0785 C   0  0  0  0  0  0  0  0  0  0  0  0
   14.3463   25.8359   -3.1679 C   0  0  0  0  0  0  0  0  0  0  0  0
   13.7813   25.9551   -4.4202 C   0  0  0  0  0  0  0  0  0  0  0  0
   14.5242   26.4500   -5.4982 C   0  0  0  0  0  0  0  0  0  0  0  0
   15.8367   26.8315   -5.3402 C   0  0  0  0  0  0  0  0  0  0  0  0
   16.4002   26.7127   -4.0920 C   0  0  0  0  0  0  0  0  0  0  0  0
   15.6533   26.2148   -3.0093 C   0  0  0  0  0  0  0  0  0  0  0  0
   16.3220   26.0949   -1.7097 C   0  0  0  0  0  0  0  0  0  0  0  0
   16.6329   27.3484   -6.4677 C   0  0  0  0  0  0  0  0  0  0  0  0
   16.2964   27.1046   -7.7803 O   0  0  0  0  0  0  0  0  0  0  0  0
   17.6641   28.0409   -6.2512 O   0  0  0  0  0  0  0  0  0  0  0  0
   17.0242   26.9710   -8.4866 H   0  0  0  0  0  0  0  0  0  0  0  0
    5.9510   25.4726    4.2076 C   0  0  0  0  0  0  0  0  0  0  0  0
    5.8809   26.8663    4.6235 C   0  0  0  0  0  0  0  0  0  0  0  0
    6.4200   27.2940    5.7743 N   0  0  0  0  0  0  0  0  0  0  0  0
    6.3318   28.5809    6.1631 C   0  0  0  0  0  0  0  0  0  0  0  0
    5.6743   29.4933    5.3685 C   0  0  0  0  0  0  0  0  0  0  0  0
    5.1073   29.0809    4.1735 C   0  0  0  0  0  0  0  0  0  0  0  0
    5.2164   27.7592    3.8079 C   0  0  0  0  0  0  0  0  0  0  0  0
    4.6354   27.2740    2.5511 C   0  0  0  0  0  0  0  0  0  0  0  0
 13 14  1  0  0  0
 14 15  2  0  0  0
 15 16  1  0  0  0
 16 17  2  0  0  0
 17 18  1  0  0  0
 18 19  2  0  0  0
 16  1  1  0  0  0
  1  2  1  0  0  0
  2  3  2  0  0  0
  2  4  1  0  0  0
  4  5  1  0  0  0
  5  6  2  0  0  0
  5  7  1  0  0  0
  7  8  1  0  0  0
  8  9  1  0  0  0
  9 10  1  0  0  0
 10 37  1  0  0  0
 37 38  1  0  0  0
 38 39  2  0  0  0
 39 40  1  0  0  0
 40 41  2  0  0  0
 41 42  1  0  0  0
 42 43  2  0  0  0
 43 44  1  0  0  0
 10 11  1  0  0  0
 11 12  1  0  0  0
  4 20  1  0  0  0
 20 21  2  0  0  0
 21 22  1  0  0  0
 22 23  2  0  0  0
 23 24  1  0  0  0
 24 25  2  0  0  0
 23 26  1  0  0  0
 26 27  2  0  0  0
 27 28  1  0  0  0
 28 29  2  0  0  0
 29 30  1  0  0  0
 30 31  2  0  0  0
 31 32  1  0  0  0
 29 33  1  0  0  0
 33 34  1  0  0  0
 33 35  2  0  0  0
 19 14  1  0  0  0
  7  1  1  0  0  0
 12  7  1  0  0  0
 25 20  1  0  0  0
 31 26  1  0  0  0
 43 38  1  0  0  0
 34 36  1  0  0  0
M  END
> <minimizedAffinity>
-0.10156

> <CNNscore>
0.4512678087

> <CNNaffinity>
7.1243338585

> <CNN_VS>
3.2149825096

> <CNNaffinity_variance>
0.4242009223

$$$$
[H]OC(=O)c1c([H])c([H])c(-c2c([H])c([H])c(N3C(=O)N(c4nc([H])nc(C([H])([H])[H])c4[H])C4(C3=O)C([H])([H])C([H])([H])N(C([H])([H])c3nc([H])c([H])c([H])c3C([H])([H])[H])C([H])([H])C4([H])[H])c([H])c2[H])c(C([H])([H])[H])c1[H]


 44 49  0  0  0  0  0  0  0  0999 V2000
   11.9706   21.8383    0.2621 N   0  0  0  0  0  0  0  0  0  0  0  0
   12.9245   22.4692   -0.5816 C   0  0  0  0  0  0  0  0  0  0  0  0
   14.1007   22.0545   -0.7967 O   0  0  0  0  0  0  0  0  0  0  0  0
   12.3112   23.6308   -1.1242 N   0  0  0  0  0  0  0  0  0  0  0  0
   11.0048   23.7032   -0.6194 C   0  0  0  0  0  0  0  0  0  0  0  0
   10.2307   24.6867   -0.6702 O   0  0  0  0  0  0  0  0  0  0  0  0
   10.6323   22.3934    0.0192 C   0  0  0  0  0  0  0  0  0  0  0  0
    9.8242   21.5414   -0.9026 C   0  0  0  0  0  0  0  0  0  0  0  0
    8.5902   21.0438   -0.1829 C   0  0  0  0  0  0  0  0  0  0  0  0
    7.8712   22.1808    0.2804 N   0  0  0  0  0  0  0  0  0  0  0  0
    8.5418   22.7862    1.3884 C   0  0  0  0  0  0  0  0  0  0  0  0
   10.0242   22.6695    1.3497 C   0  0  0  0  0  0  0  0  0  0  0  0
   15.4134   18.9719    2.2686 C   0  0  0  0  0  0  0  0  0  0  0  0
   14.0054   19.4447    2.1555 C   0  0  0  0  0  0  0  0  0  0  0  0
   13.6692   20.4284    1.2508 C   0  0  0  0  0  0  0  0  0  0  0  0
   12.3499   20.8224    1.1928 C   0  0  0  0  0  0  0  0  0  0  0  0
   11.4693   20.2431    2.0031 N   0  0  0  0  0  0  0  0  0  0  0  0
   11.8142   19.3016    2.8633 C   0  0  0  0  0  0  0  0  0  0  0  0
   13.0851   18.8776    2.9636 N   0  0  0  0  0  0  0  0  0  0  0  0
   12.9728   24.5154   -2.0026 C   0  0  0  0  0  0  0  0  0  0  0  0
   14.3662   24.4812   -2.1315 C   0  0  0  0  0  0  0  0  0  0  0  0
   14.9740   25.3380   -3.0104 C   0  0  0  0  0  0  0  0  0  0  0  0
   14.2444   26.2180   -3.7569 C   0  0  0  0  0  0  0  0  0  0  0  0
   12.8753   26.2359   -3.6137 C   0  0  0  0  0  0  0  0  0  0  0  0
   12.2388   25.4048   -2.7556 C   0  0  0  0  0  0  0  0  0  0  0  0
   14.8685   27.1312   -4.7366 C   0  0  0  0  0  0  0  0  0  0  0  0
   15.0177   28.4807   -4.4958 C   0  0  0  0  0  0  0  0  0  0  0  0
   15.6223   29.3157   -5.4424 C   0  0  0  0  0  0  0  0  0  0  0  0
   16.0847   28.8155   -6.6379 C   0  0  0  0  0  0  0  0  0  0  0  0
   15.9359   27.4702   -6.8782 C   0  0  0  0  0  0  0  0  0  0  0  0
   15.3278   26.6318   -5.9267 C   0  0  0  0  0  0  0  0  0  0  0  0
   15.1823   25.2102   -6.2558 C   0  0  0  0  0  0  0  0  0  0  0  0
   16.7176   29.6839   -7.6466 C   0  0  0  0  0  0  0  0  0  0  0  0
   17.1967   29.1967   -8.8419 O   0  0  0  0  0  0  0  0  0  0  0  0
   16.8381   30.9207   -7.4331 O   0  0  0  0  0  0  0  0  0  0  0  0
   18.0377   29.5963   -9.2657 H   0  0  0  0  0  0  0  0  0  0  0  0
    6.4953   21.9208    0.5608 C   0  0  0  0  0  0  0  0  0  0  0  0
    6.1371   20.5646    0.9514 C   0  0  0  0  0  0  0  0  0  0  0  0
    5.8511   19.6154    0.0486 N   0  0  0  0  0  0  0  0  0  0  0  0
    5.4987   18.3688    0.4182 C   0  0  0  0  0  0  0  0  0  0  0  0
    5.4262   18.0450    1.7548 C   0  0  0  0  0  0  0  0  0  0  0  0
    5.7163   19.0049    2.7109 C   0  0  0  0  0  0  0  0  0  0  0  0
    6.0725   20.2677    2.2975 C   0  0  0  0  0  0  0  0  0  0  0  0
    6.3916   21.3179    3.2710 C   0  0  0  0  0  0  0  0  0  0  0  0
 13 14  1  0  0  0
 14 15  2  0  0  0
 15 16  1  0  0  0
 16 17  2  0  0  0
 17 18  1  0  0  0
 18 19  2  0  0  0
 16  1  1  0  0  0
  1  2  1  0  0  0
  2  3  2  0  0  0
  2  4  1  0  0  0
  4  5  1  0  0  0
  5  6  2  0  0  0
  5  7  1  0  0  0
  7  8  1  0  0  0
  8  9  1  0  0  0
  9 10  1  0  0  0
 10 37  1  0  0  0
 37 38  1  0  0  0
 38 39  2  0  0  0
 39 40  1  0  0  0
 40 41  2  0  0  0
 41 42  1  0  0  0
 42 43  2  0  0  0
 43 44  1  0  0  0
 10 11  1  0  0  0
 11 12  1  0  0  0
  4 20  1  0  0  0
 20 21  2  0  0  0
 21 22  1  0  0  0
 22 23  2  0  0  0
 23 24  1  0  0  0
 24 25  2  0  0  0
 23 26  1  0  0  0
 26 27  2  0  0  0
 27 28  1  0  0  0
 28 29  2  0  0  0
 29 30  1  0  0  0
 30 31  2  0  0  0
 31 32  1  0  0  0
 29 33  1  0  0  0
 33 34  1  0  0  0
 33 35  2  0  0  0
 19 14  1  0  0  0
  7  1  1  0  0  0
 12  7  1  0  0  0
 25 20  1  0  0  0
 31 26  1  0  0  0
 43 38  1  0  0  0
 34 36  1  0  0  0
M  END
> <minimizedAffinity>
13.31511

> <CNNscore>
0.4467793703

> <CNNaffinity>
7.5648374557

> <CNN_VS>
3.3798134327

> <CNNaffinity_variance>
0.6293283701

$$$$
[H]OC(=O)c1c([H])c([H])c(-c2c([H])c([H])c(N3C(=O)N(c4nc([H])nc(C([H])([H])[H])c4[H])C4(C3=O)C([H])([H])C([H])([H])N(C([H])([H])c3nc([H])c([H])c([H])c3C([H])([H])[H])C([H])([H])C4([H])[H])c([H])c2[H])c(C([H])([H])[H])c1[H]


 44 49  0  0  0  0  0  0  0  0999 V2000
   14.6500   24.1359   -3.5399 N   0  0  0  0  0  0  0  0  0  0  0  0
   14.2488   23.2270   -2.5235 C   0  0  0  0  0  0  0  0  0  0  0  0
   14.7733   22.0969   -2.3020 O   0  0  0  0  0  0  0  0  0  0  0  0
   13.1673   23.8241   -1.8208 N   0  0  0  0  0  0  0  0  0  0  0  0
   12.9170   25.0765   -2.4000 C   0  0  0  0  0  0  0  0  0  0  0  0
   11.9098   25.8002   -2.2243 O   0  0  0  0  0  0  0  0  0  0  0  0
   14.0604   25.4596   -3.2988 C   0  0  0  0  0  0  0  0  0  0  0  0
   15.0105   26.3873   -2.6164 C   0  0  0  0  0  0  0  0  0  0  0  0
   15.2849   27.5785   -3.5075 C   0  0  0  0  0  0  0  0  0  0  0  0
   14.0370   28.1952   -3.8024 N   0  0  0  0  0  0  0  0  0  0  0  0
   13.2857   27.4009   -4.7237 C   0  0  0  0  0  0  0  0  0  0  0  0
   13.5062   25.9355   -4.5960 C   0  0  0  0  0  0  0  0  0  0  0  0
   16.6022   24.9533   -7.9689 C   0  0  0  0  0  0  0  0  0  0  0  0
   16.4387   24.1242   -6.7423 C   0  0  0  0  0  0  0  0  0  0  0  0
   15.6123   24.5419   -5.7216 C   0  0  0  0  0  0  0  0  0  0  0  0
   15.5020   23.7305   -4.6131 C   0  0  0  0  0  0  0  0  0  0  0  0
   16.1901   22.5934   -4.5773 N   0  0  0  0  0  0  0  0  0  0  0  0
   16.9769   22.2127   -5.5678 C   0  0  0  0  0  0  0  0  0  0  0  0
   17.1229   22.9629   -6.6728 N   0  0  0  0  0  0  0  0  0  0  0  0
   12.5041   23.1960   -0.7449 C   0  0  0  0  0  0  0  0  0  0  0  0
   12.7756   23.5717    0.5758 C   0  0  0  0  0  0  0  0  0  0  0  0
   12.0969   22.9577    1.5948 C   0  0  0  0  0  0  0  0  0  0  0  0
   11.1659   21.9918    1.3413 C   0  0  0  0  0  0  0  0  0  0  0  0
   10.9151   21.6365    0.0352 C   0  0  0  0  0  0  0  0  0  0  0  0
   11.5655   22.2205   -0.9984 C   0  0  0  0  0  0  0  0  0  0  0  0
   10.3947   21.3352    2.4171 C   0  0  0  0  0  0  0  0  0  0  0  0
    9.0795   21.6543    2.6819 C   0  0  0  0  0  0  0  0  0  0  0  0
    8.3756   21.0055    3.7028 C   0  0  0  0  0  0  0  0  0  0  0  0
    8.9737   20.0326    4.4701 C   0  0  0  0  0  0  0  0  0  0  0  0
   10.2849   19.7144    4.2065 C   0  0  0  0  0  0  0  0  0  0  0  0
   10.9918   20.3670    3.1806 C   0  0  0  0  0  0  0  0  0  0  0  0
   12.3936   19.9938    2.9663 C   0  0  0  0  0  0  0  0  0  0  0  0
    8.2467   19.3455    5.5527 C   0  0  0  0  0  0  0  0  0  0  0  0
    8.5726   18.0738    5.9676 O   0  0  0  0  0  0  0  0  0  0  0  0
    7.2877   19.9194    6.1365 O   0  0  0  0  0  0  0  0  0  0  0  0
    7.8435   17.4246    6.2731 H   0  0  0  0  0  0  0  0  0  0  0  0
   14.1490   29.5532   -4.2293 C   0  0  0  0  0  0  0  0  0  0  0  0
   12.9536   30.3806   -4.1482 C   0  0  0  0  0  0  0  0  0  0  0  0
   13.0058   31.7178   -4.2325 N   0  0  0  0  0  0  0  0  0  0  0  0
   11.8980   32.4780   -4.1342 C   0  0  0  0  0  0  0  0  0  0  0  0
   10.6719   31.8809   -3.9426 C   0  0  0  0  0  0  0  0  0  0  0  0
   10.5865   30.5010   -3.8518 C   0  0  0  0  0  0  0  0  0  0  0  0
   11.7382   29.7559   -3.9563 C   0  0  0  0  0  0  0  0  0  0  0  0
   11.6997   28.2919   -3.8695 C   0  0  0  0  0  0  0  0  0  0  0  0
 13 14  1  0  0  0
 14 15  2  0  0  0
 15 16  1  0  0  0
 16 17  2  0  0  0
 17 18  1  0  0  0
 18 19  2  0  0  0
 16  1  1  0  0  0
  1  2  1  0  0  0
  2  3  2  0  0  0
  2  4  1  0  0  0
  4  5  1  0  0  0
  5  6  2  0  0  0
  5  7  1  0  0  0
  7  8  1  0  0  0
  8  9  1  0  0  0
  9 10  1  0  0  0
 10 37  1  0  0  0
 37 38  1  0  0  0
 38 39  2  0  0  0
 39 40  1  0  0  0
 40 41  2  0  0  0
 41 42  1  0  0  0
 42 43  2  0  0  0
 43 44  1  0  0  0
 10 11  1  0  0  0
 11 12  1  0  0  0
  4 20  1  0  0  0
 20 21  2  0  0  0
 21 22  1  0  0  0
 22 23  2  0  0  0
 23 24  1  0  0  0
 24 25  2  0  0  0
 23 26  1  0  0  0
 26 27  2  0  0  0
 27 28  1  0  0  0
 28 29  2  0  0  0
 29 30  1  0  0  0
 30 31  2  0  0  0
 31 32  1  0  0  0
 29 33  1  0  0  0
 33 34  1  0  0  0
 33 35  2  0  0  0
 19 14  1  0  0  0
  7  1  1  0  0  0
 12  7  1  0  0  0
 25 20  1  0  0  0
 31 26  1  0  0  0
 43 38  1  0  0  0
 34 36  1  0  0  0
M  END
> <minimizedAffinity>
29.15915

> <CNNscore>
0.4282190204

> <CNNaffinity>
7.3621063232

> <CNN_VS>
3.1525938511

> <CNNaffinity_variance>
0.6323192120

$$$$
[H]OC(=O)c1c([H])c([H])c(-c2c([H])c([H])c(N3C(=O)N(c4nc([H])nc(C([H])([H])[H])c4[H])C4(C3=O)C([H])([H])C([H])([H])N(C([H])([H])c3nc([H])c([H])c([H])c3C([H])([H])[H])C([H])([H])C4([H])[H])c([H])c2[H])c(C([H])([H])[H])c1[H]


 44 49  0  0  0  0  0  0  0  0999 V2000
   11.0757   22.1298    1.8845 N   0  0  0  0  0  0  0  0  0  0  0  0
   11.9209   22.2929    0.7537 C   0  0  0  0  0  0  0  0  0  0  0  0
   12.6412   21.3879    0.2401 O   0  0  0  0  0  0  0  0  0  0  0  0
   11.8004   23.6418    0.3228 N   0  0  0  0  0  0  0  0  0  0  0  0
   10.8947   24.2871    1.1772 C   0  0  0  0  0  0  0  0  0  0  0  0
   10.6998   25.5205    1.2760 O   0  0  0  0  0  0  0  0  0  0  0  0
   10.1532   23.2674    1.9972 C   0  0  0  0  0  0  0  0  0  0  0  0
    8.8099   22.9671    1.4191 C   0  0  0  0  0  0  0  0  0  0  0  0
    7.7584   23.0622    2.5024 C   0  0  0  0  0  0  0  0  0  0  0  0
    7.8316   24.3677    3.0635 N   0  0  0  0  0  0  0  0  0  0  0  0
    8.9985   24.5031    3.8784 C   0  0  0  0  0  0  0  0  0  0  0  0
   10.1656   23.7025    3.4209 C   0  0  0  0  0  0  0  0  0  0  0  0
    9.8250   19.7652    6.0004 C   0  0  0  0  0  0  0  0  0  0  0  0
   10.5824   19.8569    4.7210 C   0  0  0  0  0  0  0  0  0  0  0  0
   10.4562   20.9656    3.9123 C   0  0  0  0  0  0  0  0  0  0  0  0
   11.1836   20.9917    2.7421 C   0  0  0  0  0  0  0  0  0  0  0  0
   11.9661   19.9578    2.4478 N   0  0  0  0  0  0  0  0  0  0  0  0
   12.0716   18.9047    3.2383 C   0  0  0  0  0  0  0  0  0  0  0  0
   11.3867   18.8244    4.3914 N   0  0  0  0  0  0  0  0  0  0  0  0
   12.5119   24.1686   -0.7764 C   0  0  0  0  0  0  0  0  0  0  0  0
   13.7340   23.6093   -1.1674 C   0  0  0  0  0  0  0  0  0  0  0  0
   14.3868   24.1304   -2.2530 C   0  0  0  0  0  0  0  0  0  0  0  0
   13.8652   25.1798   -2.9534 C   0  0  0  0  0  0  0  0  0  0  0  0
   12.6627   25.7157   -2.5509 C   0  0  0  0  0  0  0  0  0  0  0  0
   11.9881   25.2280   -1.4835 C   0  0  0  0  0  0  0  0  0  0  0  0
   14.5297   25.7418   -4.1474 C   0  0  0  0  0  0  0  0  0  0  0  0
   14.2384   25.3115   -5.4247 C   0  0  0  0  0  0  0  0  0  0  0  0
   14.8803   25.8726   -6.5346 C   0  0  0  0  0  0  0  0  0  0  0  0
   15.8183   26.8679   -6.3841 C   0  0  0  0  0  0  0  0  0  0  0  0
   16.1090   27.2971   -5.1108 C   0  0  0  0  0  0  0  0  0  0  0  0
   15.4639   26.7324   -3.9959 C   0  0  0  0  0  0  0  0  0  0  0  0
   15.8362   27.2223   -2.6648 C   0  0  0  0  0  0  0  0  0  0  0  0
   16.5068   27.4636   -7.5431 C   0  0  0  0  0  0  0  0  0  0  0  0
   16.5464   28.8230   -7.7578 O   0  0  0  0  0  0  0  0  0  0  0  0
   17.0880   26.7254   -8.3839 O   0  0  0  0  0  0  0  0  0  0  0  0
   16.5181   29.1995   -8.7086 H   0  0  0  0  0  0  0  0  0  0  0  0
    6.6460   24.7700    3.7502 C   0  0  0  0  0  0  0  0  0  0  0  0
    6.3348   26.1923    3.7707 C   0  0  0  0  0  0  0  0  0  0  0  0
    6.5298   26.9794    2.7028 N   0  0  0  0  0  0  0  0  0  0  0  0
    6.2604   28.2990    2.7364 C   0  0  0  0  0  0  0  0  0  0  0  0
    5.7710   28.8693    3.8903 C   0  0  0  0  0  0  0  0  0  0  0  0
    5.5591   28.0812    5.0099 C   0  0  0  0  0  0  0  0  0  0  0  0
    5.8452   26.7374    4.9400 C   0  0  0  0  0  0  0  0  0  0  0  0
    5.6354   25.8605    6.0973 C   0  0  0  0  0  0  0  0  0  0  0  0
 13 14  1  0  0  0
 14 15  2  0  0  0
 15 16  1  0  0  0
 16 17  2  0  0  0
 17 18  1  0  0  0
 18 19  2  0  0  0
 16  1  1  0  0  0
  1  2  1  0  0  0
  2  3  2  0  0  0
  2  4  1  0  0  0
  4  5  1  0  0  0
  5  6  2  0  0  0
  5  7  1  0  0  0
  7  8  1  0  0  0
  8  9  1  0  0  0
  9 10  1  0  0  0
 10 37  1  0  0  0
 37 38  1  0  0  0
 38 39  2  0  0  0
 39 40  1  0  0  0
 40 41  2  0  0  0
 41 42  1  0  0  0
 42 43  2  0  0  0
 43 44  1  0  0  0
 10 11  1  0  0  0
 11 12  1  0  0  0
  4 20  1  0  0  0
 20 21  2  0  0  0
 21 22  1  0  0  0
 22 23  2  0  0  0
 23 24  1  0  0  0
 24 25  2  0  0  0
 23 26  1  0  0  0
 26 27  2  0  0  0
 27 28  1  0  0  0
 28 29  2  0  0  0
 29 30  1  0  0  0
 30 31  2  0  0  0
 31 32  1  0  0  0
 29 33  1  0  0  0
 33 34  1  0  0  0
 33 35  2  0  0  0
 19 14  1  0  0  0
  7  1  1  0  0  0
 12  7  1  0  0  0
 25 20  1  0  0  0
 31 26  1  0  0  0
 43 38  1  0  0  0
 34 36  1  0  0  0
M  END
> <minimizedAffinity>
-4.07585

> <CNNscore>
0.4255492091

> <CNNaffinity>
7.3199348450

> <CNN_VS>
3.1149923801

> <CNNaffinity_variance>
0.2493282855

$$$$
[H]c1nc(C([H])([H])N2C([H])([H])C([H])([H])C3(C(=O)N(c4c([H])c([H])c(N5C(=O)C([H])([H])C5([H])[H])c([H])c4[H])C(=O)N3c3nc([H])n([H])c(=O)c3[H])C([H])([H])C2([H])[H])c(C([H])([H])[H])c([H])c1[H]


 39 44  0  0  0  0  0  0  0  0999 V2000
   11.6868   23.1298   -0.0954 N   0  0  0  0  0  0  0  0  0  0  0  0
   12.9377   22.4420    0.1058 C   0  0  0  0  0  0  0  0  0  0  0  0
   13.9268   22.6924   -1.0137 C   0  0  0  0  0  0  0  0  0  0  0  0
   14.3593   24.1295   -1.0802 C   0  0  0  0  0  0  0  0  0  0  0  0
   13.3529   24.9485   -0.3614 C   0  0  0  0  0  0  0  0  0  0  0  0
   11.9533   24.4598   -0.5964 C   0  0  0  0  0  0  0  0  0  0  0  0
   15.7221   24.3490   -0.6846 N   0  0  0  0  0  0  0  0  0  0  0  0
   16.2411   25.3602   -1.5789 C   0  0  0  0  0  0  0  0  0  0  0  0
   17.2893   26.0522   -1.4045 O   0  0  0  0  0  0  0  0  0  0  0  0
   15.3815   25.4634   -2.7062 N   0  0  0  0  0  0  0  0  0  0  0  0
   14.3493   24.5309   -2.5107 C   0  0  0  0  0  0  0  0  0  0  0  0
   13.5676   24.1327   -3.4381 O   0  0  0  0  0  0  0  0  0  0  0  0
   16.5394   23.7912    0.3247 C   0  0  0  0  0  0  0  0  0  0  0  0
   17.7523   24.2978    0.7078 C   0  0  0  0  0  0  0  0  0  0  0  0
   18.5070   23.7132    1.6997 C   0  0  0  0  0  0  0  0  0  0  0  0
   19.6229   24.1651    2.0638 O   0  0  0  0  0  0  0  0  0  0  0  0
   18.0579   22.5977    2.3347 N   0  0  0  0  0  0  0  0  0  0  0  0
   16.8871   22.1004    1.9723 C   0  0  0  0  0  0  0  0  0  0  0  0
   16.1581   22.6725    1.0078 N   0  0  0  0  0  0  0  0  0  0  0  0
   18.6173   22.1605    3.0727 H   0  0  0  0  0  0  0  0  0  0  0  0
   15.5615   26.3535   -3.8044 C   0  0  0  0  0  0  0  0  0  0  0  0
   15.8835   27.6833   -3.5166 C   0  0  0  0  0  0  0  0  0  0  0  0
   16.0722   28.6060   -4.5262 C   0  0  0  0  0  0  0  0  0  0  0  0
   15.9419   28.2106   -5.8285 C   0  0  0  0  0  0  0  0  0  0  0  0
   15.6236   26.8914   -6.0933 C   0  0  0  0  0  0  0  0  0  0  0  0
   15.4291   25.9486   -5.1120 C   0  0  0  0  0  0  0  0  0  0  0  0
   16.1369   29.1646   -6.8607 N   0  0  0  0  0  0  0  0  0  0  0  0
   15.8429   30.5462   -7.1075 C   0  0  0  0  0  0  0  0  0  0  0  0
   15.9262   30.2074   -8.5893 C   0  0  0  0  0  0  0  0  0  0  0  0
   16.7585   29.0620   -8.1419 C   0  0  0  0  0  0  0  0  0  0  0  0
   17.6439   28.3102   -8.6654 O   0  0  0  0  0  0  0  0  0  0  0  0
   10.7670   22.3693   -0.9118 C   0  0  0  0  0  0  0  0  0  0  0  0
    9.9833   19.6756   -0.7346 C   0  0  0  0  0  0  0  0  0  0  0  0
    9.1047   20.7198   -0.2445 C   0  0  0  0  0  0  0  0  0  0  0  0
    7.8886   20.3520    0.3086 C   0  0  0  0  0  0  0  0  0  0  0  0
    7.0268   21.3319    0.7878 C   0  0  0  0  0  0  0  0  0  0  0  0
    7.4380   22.6365    0.6839 C   0  0  0  0  0  0  0  0  0  0  0  0
    8.6394   22.9607    0.1344 N   0  0  0  0  0  0  0  0  0  0  0  0
    9.4897   22.0419   -0.3350 C   0  0  0  0  0  0  0  0  0  0  0  0
 33 34  1  0  0  0
 34 35  2  0  0  0
 35 36  1  0  0  0
 36 37  2  0  0  0
 37 38  1  0  0  0
 38 39  2  0  0  0
 39 32  1  0  0  0
 32  1  1  0  0  0
  1  2  1  0  0  0
  2  3  1  0  0  0
  3  4  1  0  0  0
  4  5  1  0  0  0
  5  6  1  0  0  0
  4  7  1  0  0  0
  7  8  1  0  0  0
  8  9  2  0  0  0
  8 10  1  0  0  0
 10 11  1  0  0  0
 11 12  2  0  0  0
 10 21  1  0  0  0
 21 22  2  0  0  0
 22 23  1  0  0  0
 23 24  2  0  0  0
 24 25  1  0  0  0
 25 26  2  0  0  0
 24 27  1  0  0  0
 27 28  1  0  0  0
 28 29  1  0  0  0
 29 30  1  0  0  0
 30 31  2  0  0  0
  7 13  1  0  0  0
 13 14  2  0  0  0
 14 15  1  0  0  0
 15 16  2  0  0  0
 15 17  1  0  0  0
 17 18  1  0  0  0
 18 19  2  0  0  0
 39 34  1  0  0  0
  6  1  1  0  0  0
 26 21  1  0  0  0
 30 27  1  0  0  0
 19 13  1  0  0  0
 11  4  1  0  0  0
 17 20  1  0  0  0
M  END
> <minimizedAffinity>
21.79714

> <CNNscore>
0.6671620011

> <CNNaffinity>
7.8336153030

> <CNN_VS>
5.2262902260

> <CNNaffinity_variance>
0.4435369372

$$$$
[H]c1nc(C([H])([H])N2C([H])([H])C([H])([H])C3(C(=O)N(c4c([H])c([H])c(N5C(=O)C([H])([H])C5([H])[H])c([H])c4[H])C(=O)N3c3nc([H])n([H])c(=O)c3[H])C([H])([H])C2([H])[H])c(C([H])([H])[H])c([H])c1[H]


 39 44  0  0  0  0  0  0  0  0999 V2000
   15.3119   24.2852   -4.5039 N   0  0  0  0  0  0  0  0  0  0  0  0
   16.1028   24.9532   -3.5006 C   0  0  0  0  0  0  0  0  0  0  0  0
   15.3352   25.1901   -2.2164 C   0  0  0  0  0  0  0  0  0  0  0  0
   14.9653   23.9063   -1.5293 C   0  0  0  0  0  0  0  0  0  0  0  0
   15.0353   22.8114   -2.5276 C   0  0  0  0  0  0  0  0  0  0  0  0
   14.5334   23.2414   -3.8752 C   0  0  0  0  0  0  0  0  0  0  0  0
   15.6832   23.6683   -0.3088 N   0  0  0  0  0  0  0  0  0  0  0  0
   14.7317   23.0797    0.6076 C   0  0  0  0  0  0  0  0  0  0  0  0
   15.0047   22.4542    1.6763 O   0  0  0  0  0  0  0  0  0  0  0  0
   13.4172   23.3132    0.1197 N   0  0  0  0  0  0  0  0  0  0  0  0
   13.5555   24.0343   -1.0778 C   0  0  0  0  0  0  0  0  0  0  0  0
   12.6010   24.6712   -1.6370 O   0  0  0  0  0  0  0  0  0  0  0  0
   17.0202   23.8970    0.0888 C   0  0  0  0  0  0  0  0  0  0  0  0
   17.4183   24.1135    1.3807 C   0  0  0  0  0  0  0  0  0  0  0  0
   18.7370   24.3302    1.7116 C   0  0  0  0  0  0  0  0  0  0  0  0
   19.1198   24.5307    2.8927 O   0  0  0  0  0  0  0  0  0  0  0  0
   19.6938   24.3348    0.7453 N   0  0  0  0  0  0  0  0  0  0  0  0
   19.3197   24.1264   -0.5061 C   0  0  0  0  0  0  0  0  0  0  0  0
   18.0371   23.9165   -0.8218 N   0  0  0  0  0  0  0  0  0  0  0  0
   20.6754   24.4961    0.9883 H   0  0  0  0  0  0  0  0  0  0  0  0
   12.2132   22.8831    0.7491 C   0  0  0  0  0  0  0  0  0  0  0  0
   11.3933   23.8616    1.3197 C   0  0  0  0  0  0  0  0  0  0  0  0
   10.2115   23.5237    1.9486 C   0  0  0  0  0  0  0  0  0  0  0  0
    9.8384   22.2100    2.0131 C   0  0  0  0  0  0  0  0  0  0  0  0
   10.6619   21.2569    1.4427 C   0  0  0  0  0  0  0  0  0  0  0  0
   11.8441   21.5598    0.8100 C   0  0  0  0  0  0  0  0  0  0  0  0
    8.6227   21.8703    2.6613 N   0  0  0  0  0  0  0  0  0  0  0  0
    8.1577   21.6162    3.9938 C   0  0  0  0  0  0  0  0  0  0  0  0
    7.0354   20.8114    3.3534 C   0  0  0  0  0  0  0  0  0  0  0  0
    7.3085   21.6413    2.1528 C   0  0  0  0  0  0  0  0  0  0  0  0
    6.6593   21.9991    1.1165 O   0  0  0  0  0  0  0  0  0  0  0  0
   14.5258   25.2104   -5.2894 C   0  0  0  0  0  0  0  0  0  0  0  0
   15.6862   25.6031   -7.8194 C   0  0  0  0  0  0  0  0  0  0  0  0
   15.6905   26.6773   -6.8453 C   0  0  0  0  0  0  0  0  0  0  0  0
   16.2717   27.8846   -7.1983 C   0  0  0  0  0  0  0  0  0  0  0  0
   16.2888   28.9325   -6.2850 C   0  0  0  0  0  0  0  0  0  0  0  0
   15.7167   28.7073   -5.0587 C   0  0  0  0  0  0  0  0  0  0  0  0
   15.1553   27.5082   -4.7466 N   0  0  0  0  0  0  0  0  0  0  0  0
   15.1230   26.4818   -5.6027 C   0  0  0  0  0  0  0  0  0  0  0  0
 33 34  1  0  0  0
 34 35  2  0  0  0
 35 36  1  0  0  0
 36 37  2  0  0  0
 37 38  1  0  0  0
 38 39  2  0  0  0
 39 32  1  0  0  0
 32  1  1  0  0  0
  1  2  1  0  0  0
  2  3  1  0  0  0
  3  4  1  0  0  0
  4  5  1  0  0  0
  5  6  1  0  0  0
  4  7  1  0  0  0
  7  8  1  0  0  0
  8  9  2  0  0  0
  8 10  1  0  0  0
 10 11  1  0  0  0
 11 12  2  0  0  0
 10 21  1  0  0  0
 21 22  2  0  0  0
 22 23  1  0  0  0
 23 24  2  0  0  0
 24 25  1  0  0  0
 25 26  2  0  0  0
 24 27  1  0  0  0
 27 28  1  0  0  0
 28 29  1  0  0  0
 29 30  1  0  0  0
 30 31  2  0  0  0
  7 13  1  0  0  0
 13 14  2  0  0  0
 14 15  1  0  0  0
 15 16  2  0  0  0
 15 17  1  0  0  0
 17 18  1  0  0  0
 18 19  2  0  0  0
 39 34  1  0  0  0
  6  1  1  0  0  0
 26 21  1  0  0  0
 30 27  1  0  0  0
 19 13  1  0  0  0
 11  4  1  0  0  0
 17 20  1  0  0  0
M  END
> <minimizedAffinity>
6.71700

> <CNNscore>
0.6334676147

> <CNNaffinity>
8.2044515610

> <CNN_VS>
5.1972541809

> <CNNaffinity_variance>
0.8877480626

$$$$
[H]c1nc(C([H])([H])N2C([H])([H])C([H])([H])C3(C(=O)N(c4c([H])c([H])c(N5C(=O)C([H])([H])C5([H])[H])c([H])c4[H])C(=O)N3c3nc([H])n([H])c(=O)c3[H])C([H])([H])C2([H])[H])c(C([H])([H])[H])c([H])c1[H]


 39 44  0  0  0  0  0  0  0  0999 V2000
   16.8111   25.7792   -3.9806 N   0  0  0  0  0  0  0  0  0  0  0  0
   17.4431   26.1439   -2.7372 C   0  0  0  0  0  0  0  0  0  0  0  0
   16.4877   26.0970   -1.5626 C   0  0  0  0  0  0  0  0  0  0  0  0
   16.0032   24.7038   -1.2782 C   0  0  0  0  0  0  0  0  0  0  0  0
   16.2168   23.8831   -2.4952 C   0  0  0  0  0  0  0  0  0  0  0  0
   15.9344   24.6520   -3.7530 C   0  0  0  0  0  0  0  0  0  0  0  0
   16.5206   24.1414   -0.0626 N   0  0  0  0  0  0  0  0  0  0  0  0
   15.4326   23.3935    0.5278 C   0  0  0  0  0  0  0  0  0  0  0  0
   15.5303   22.5141    1.4361 O   0  0  0  0  0  0  0  0  0  0  0  0
   14.2122   23.8013   -0.0760 N   0  0  0  0  0  0  0  0  0  0  0  0
   14.5417   24.7850   -1.0230 C   0  0  0  0  0  0  0  0  0  0  0  0
   13.6918   25.5840   -1.5416 O   0  0  0  0  0  0  0  0  0  0  0  0
   17.7817   24.2023    0.5728 C   0  0  0  0  0  0  0  0  0  0  0  0
   17.9656   24.4331    1.9097 C   0  0  0  0  0  0  0  0  0  0  0  0
   19.2193   24.4809    2.4765 C   0  0  0  0  0  0  0  0  0  0  0  0
   19.4062   24.6919    3.7022 O   0  0  0  0  0  0  0  0  0  0  0  0
   20.3260   24.2966    1.7079 N   0  0  0  0  0  0  0  0  0  0  0  0
   20.1592   24.0725    0.4151 C   0  0  0  0  0  0  0  0  0  0  0  0
   18.9388   24.0273   -0.1302 N   0  0  0  0  0  0  0  0  0  0  0  0
   21.2598   24.3318    2.1266 H   0  0  0  0  0  0  0  0  0  0  0  0
   12.9209   23.2889    0.2416 C   0  0  0  0  0  0  0  0  0  0  0  0
   12.5886   22.0200   -0.2429 C   0  0  0  0  0  0  0  0  0  0  0  0
   11.3563   21.4561    0.0211 C   0  0  0  0  0  0  0  0  0  0  0  0
   10.4474   22.1513    0.7692 C   0  0  0  0  0  0  0  0  0  0  0  0
   10.7944   23.4043    1.2399 C   0  0  0  0  0  0  0  0  0  0  0  0
   12.0118   23.9939    0.9950 C   0  0  0  0  0  0  0  0  0  0  0  0
    9.1829   21.5655    1.0361 N   0  0  0  0  0  0  0  0  0  0  0  0
    8.1847   20.8133    0.3333 C   0  0  0  0  0  0  0  0  0  0  0  0
    7.1927   21.3364    1.3628 C   0  0  0  0  0  0  0  0  0  0  0  0
    8.3894   21.5213    2.2222 C   0  0  0  0  0  0  0  0  0  0  0  0
    8.6180   21.6046    3.4728 O   0  0  0  0  0  0  0  0  0  0  0  0
   16.1656   26.9043   -4.6194 C   0  0  0  0  0  0  0  0  0  0  0  0
   13.3649   27.1036   -4.7546 C   0  0  0  0  0  0  0  0  0  0  0  0
   14.1252   26.7588   -5.9403 C   0  0  0  0  0  0  0  0  0  0  0  0
   13.4376   26.5387   -7.1230 C   0  0  0  0  0  0  0  0  0  0  0  0
   14.1407   26.2080   -8.2757 C   0  0  0  0  0  0  0  0  0  0  0  0
   15.5058   26.1162   -8.1751 C   0  0  0  0  0  0  0  0  0  0  0  0
   16.1474   26.3388   -6.9965 N   0  0  0  0  0  0  0  0  0  0  0  0
   15.4998   26.6584   -5.8713 C   0  0  0  0  0  0  0  0  0  0  0  0
 33 34  1  0  0  0
 34 35  2  0  0  0
 35 36  1  0  0  0
 36 37  2  0  0  0
 37 38  1  0  0  0
 38 39  2  0  0  0
 39 32  1  0  0  0
 32  1  1  0  0  0
  1  2  1  0  0  0
  2  3  1  0  0  0
  3  4  1  0  0  0
  4  5  1  0  0  0
  5  6  1  0  0  0
  4  7  1  0  0  0
  7  8  1  0  0  0
  8  9  2  0  0  0
  8 10  1  0  0  0
 10 11  1  0  0  0
 11 12  2  0  0  0
 10 21  1  0  0  0
 21 22  2  0  0  0
 22 23  1  0  0  0
 23 24  2  0  0  0
 24 25  1  0  0  0
 25 26  2  0  0  0
 24 27  1  0  0  0
 27 28  1  0  0  0
 28 29  1  0  0  0
 29 30  1  0  0  0
 30 31  2  0  0  0
  7 13  1  0  0  0
 13 14  2  0  0  0
 14 15  1  0  0  0
 15 16  2  0  0  0
 15 17  1  0  0  0
 17 18  1  0  0  0
 18 19  2  0  0  0
 39 34  1  0  0  0
  6  1  1  0  0  0
 26 21  1  0  0  0
 30 27  1  0  0  0
 19 13  1  0  0  0
 11  4  1  0  0  0
 17 20  1  0  0  0
M  END
> <minimizedAffinity>
14.42468

> <CNNscore>
0.6316568255

> <CNNaffinity>
8.1142358780

> <CNN_VS>
5.1254124641

> <CNNaffinity_variance>
0.9189797640

$$$$
[H]c1nc(C([H])([H])N2C([H])([H])C([H])([H])C3(C(=O)N(c4c([H])c([H])c(N5C(=O)C([H])([H])C5([H])[H])c([H])c4[H])C(=O)N3c3nc([H])n([H])c(=O)c3[H])C([H])([H])C2([H])[H])c(C([H])([H])[H])c([H])c1[H]


 39 44  0  0  0  0  0  0  0  0999 V2000
   15.2172   24.2175   -4.2381 N   0  0  0  0  0  0  0  0  0  0  0  0
   15.9315   24.8596   -3.1630 C   0  0  0  0  0  0  0  0  0  0  0  0
   15.0745   25.0551   -1.9294 C   0  0  0  0  0  0  0  0  0  0  0  0
   14.6664   23.7500   -1.3073 C   0  0  0  0  0  0  0  0  0  0  0  0
   14.8135   22.6851   -2.3293 C   0  0  0  0  0  0  0  0  0  0  0  0
   14.4039   23.1519   -3.6959 C   0  0  0  0  0  0  0  0  0  0  0  0
   15.2989   23.4799   -0.0469 N   0  0  0  0  0  0  0  0  0  0  0  0
   14.2898   22.8602    0.7833 C   0  0  0  0  0  0  0  0  0  0  0  0
   14.4918   22.2050    1.8501 O   0  0  0  0  0  0  0  0  0  0  0  0
   13.0110   23.1014    0.2115 N   0  0  0  0  0  0  0  0  0  0  0  0
   13.2277   23.8579   -0.9521 C   0  0  0  0  0  0  0  0  0  0  0  0
   12.3101   24.5063   -1.5581 O   0  0  0  0  0  0  0  0  0  0  0  0
   16.6032   23.7034    0.4498 C   0  0  0  0  0  0  0  0  0  0  0  0
   17.7157   23.8541   -0.3340 C   0  0  0  0  0  0  0  0  0  0  0  0
   18.9639   24.0714    0.2045 C   0  0  0  0  0  0  0  0  0  0  0  0
   19.9959   24.2118   -0.5006 O   0  0  0  0  0  0  0  0  0  0  0  0
   19.1254   24.1426    1.5529 N   0  0  0  0  0  0  0  0  0  0  0  0
   18.0569   23.9986    2.3190 C   0  0  0  0  0  0  0  0  0  0  0  0
   16.8465   23.7876    1.7904 N   0  0  0  0  0  0  0  0  0  0  0  0
   20.0527   24.3038    1.9563 H   0  0  0  0  0  0  0  0  0  0  0  0
   11.7690   22.6472    0.7425 C   0  0  0  0  0  0  0  0  0  0  0  0
   11.7526   22.2047    2.0688 C   0  0  0  0  0  0  0  0  0  0  0  0
   10.5883   21.7484    2.6540 C   0  0  0  0  0  0  0  0  0  0  0  0
    9.4332   21.7302    1.9229 C   0  0  0  0  0  0  0  0  0  0  0  0
    9.4691   22.1722    0.6133 C   0  0  0  0  0  0  0  0  0  0  0  0
   10.6108   22.6320    0.0012 C   0  0  0  0  0  0  0  0  0  0  0  0
    8.2406   21.2596    2.5310 N   0  0  0  0  0  0  0  0  0  0  0  0
    6.8636   21.0725    2.1775 C   0  0  0  0  0  0  0  0  0  0  0  0
    6.5608   21.1655    3.6665 C   0  0  0  0  0  0  0  0  0  0  0  0
    7.9781   20.7590    3.8420 C   0  0  0  0  0  0  0  0  0  0  0  0
    8.6677   20.2043    4.7585 O   0  0  0  0  0  0  0  0  0  0  0  0
   14.4815   25.1614   -5.0497 C   0  0  0  0  0  0  0  0  0  0  0  0
   15.4582   27.7615   -4.6167 C   0  0  0  0  0  0  0  0  0  0  0  0
   15.6855   27.1043   -5.8892 C   0  0  0  0  0  0  0  0  0  0  0  0
   16.3917   27.7871   -6.8665 C   0  0  0  0  0  0  0  0  0  0  0  0
   16.6257   27.1810   -8.0955 C   0  0  0  0  0  0  0  0  0  0  0  0
   16.1335   25.9132   -8.2754 C   0  0  0  0  0  0  0  0  0  0  0  0
   15.4439   25.2733   -7.2930 N   0  0  0  0  0  0  0  0  0  0  0  0
   15.2027   25.8290   -6.1011 C   0  0  0  0  0  0  0  0  0  0  0  0
 33 34  1  0  0  0
 34 35  2  0  0  0
 35 36  1  0  0  0
 36 37  2  0  0  0
 37 38  1  0  0  0
 38 39  2  0  0  0
 39 32  1  0  0  0
 32  1  1  0  0  0
  1  2  1  0  0  0
  2  3  1  0  0  0
  3  4  1  0  0  0
  4  5  1  0  0  0
  5  6  1  0  0  0
  4  7  1  0  0  0
  7  8  1  0  0  0
  8  9  2  0  0  0
  8 10  1  0  0  0
 10 11  1  0  0  0
 11 12  2  0  0  0
 10 21  1  0  0  0
 21 22  2  0  0  0
 22 23  1  0  0  0
 23 24  2  0  0  0
 24 25  1  0  0  0
 25 26  2  0  0  0
 24 27  1  0  0  0
 27 28  1  0  0  0
 28 29  1  0  0  0
 29 30  1  0  0  0
 30 31  2  0  0  0
  7 13  1  0  0  0
 13 14  2  0  0  0
 14 15  1  0  0  0
 15 16  2  0  0  0
 15 17  1  0  0  0
 17 18  1  0  0  0
 18 19  2  0  0  0
 39 34  1  0  0  0
  6  1  1  0  0  0
 26 21  1  0  0  0
 30 27  1  0  0  0
 19 13  1  0  0  0
 11  4  1  0  0  0
 17 20  1  0  0  0
M  END
> <minimizedAffinity>
10.09572

> <CNNscore>
0.5900062919

> <CNNaffinity>
8.0627346039

> <CNN_VS>
4.7570643425

> <CNNaffinity_variance>
0.9788025618

$$$$
[H]c1nc(C([H])([H])N2C([H])([H])C([H])([H])C3(C(=O)N(c4c([H])c([H])c(N5C(=O)C([H])([H])C5([H])[H])c([H])c4[H])C(=O)N3c3nc([H])n([H])c(=O)c3[H])C([H])([H])C2([H])[H])c(C([H])([H])[H])c([H])c1[H]


 39 44  0  0  0  0  0  0  0  0999 V2000
   10.7902   24.2024    0.5117 N   0  0  0  0  0  0  0  0  0  0  0  0
   11.7654   23.1417    0.5582 C   0  0  0  0  0  0  0  0  0  0  0  0
   12.6197   23.0807   -0.6912 C   0  0  0  0  0  0  0  0  0  0  0  0
   13.4818   24.3005   -0.8513 C   0  0  0  0  0  0  0  0  0  0  0  0
   12.9036   25.3867   -0.0229 C   0  0  0  0  0  0  0  0  0  0  0  0
   11.4029   25.3840   -0.0535 C   0  0  0  0  0  0  0  0  0  0  0  0
   14.8825   24.0572   -0.6500 N   0  0  0  0  0  0  0  0  0  0  0  0
   15.5744   24.8635   -1.6312 C   0  0  0  0  0  0  0  0  0  0  0  0
   16.8038   25.1738   -1.6179 O   0  0  0  0  0  0  0  0  0  0  0  0
   14.6494   25.2639   -2.6335 N   0  0  0  0  0  0  0  0  0  0  0  0
   13.4074   24.7133   -2.2767 C   0  0  0  0  0  0  0  0  0  0  0  0
   12.4200   24.6100   -3.0792 O   0  0  0  0  0  0  0  0  0  0  0  0
   15.6042   23.2433    0.2524 C   0  0  0  0  0  0  0  0  0  0  0  0
   16.7154   23.6477    0.9424 C   0  0  0  0  0  0  0  0  0  0  0  0
   17.3796   22.8115    1.8113 C   0  0  0  0  0  0  0  0  0  0  0  0
   18.4015   23.1667    2.4528 O   0  0  0  0  0  0  0  0  0  0  0  0
   16.9401   21.5399    2.0088 N   0  0  0  0  0  0  0  0  0  0  0  0
   15.8671   21.1393    1.3473 C   0  0  0  0  0  0  0  0  0  0  0  0
   15.2258   21.9560    0.5043 N   0  0  0  0  0  0  0  0  0  0  0  0
   17.4322   20.9156    2.6543 H   0  0  0  0  0  0  0  0  0  0  0  0
   14.9569   26.0700   -3.7677 C   0  0  0  0  0  0  0  0  0  0  0  0
   15.9494   27.0441   -3.6223 C   0  0  0  0  0  0  0  0  0  0  0  0
   16.3025   27.8651   -4.6746 C   0  0  0  0  0  0  0  0  0  0  0  0
   15.6702   27.7214   -5.8783 C   0  0  0  0  0  0  0  0  0  0  0  0
   14.6918   26.7524   -6.0029 C   0  0  0  0  0  0  0  0  0  0  0  0
   14.3168   25.9196   -4.9755 C   0  0  0  0  0  0  0  0  0  0  0  0
   16.0382   28.5690   -6.9552 N   0  0  0  0  0  0  0  0  0  0  0  0
   16.5519   28.4408   -8.2877 C   0  0  0  0  0  0  0  0  0  0  0  0
   17.0783   29.8600   -8.1261 C   0  0  0  0  0  0  0  0  0  0  0  0
   16.0202   29.9899   -7.0926 C   0  0  0  0  0  0  0  0  0  0  0  0
   15.3725   30.9472   -6.5566 O   0  0  0  0  0  0  0  0  0  0  0  0
    9.5712   23.7992   -0.1531 C   0  0  0  0  0  0  0  0  0  0  0  0
    8.4696   24.6542    2.2876 C   0  0  0  0  0  0  0  0  0  0  0  0
    8.1422   23.3419    1.7648 C   0  0  0  0  0  0  0  0  0  0  0  0
    7.2797   22.5386    2.4935 C   0  0  0  0  0  0  0  0  0  0  0  0
    6.9471   21.2763    2.0156 C   0  0  0  0  0  0  0  0  0  0  0  0
    7.5038   20.8884    0.8232 C   0  0  0  0  0  0  0  0  0  0  0  0
    8.3473   21.7039    0.1350 N   0  0  0  0  0  0  0  0  0  0  0  0
    8.6863   22.9226    0.5679 C   0  0  0  0  0  0  0  0  0  0  0  0
 33 34  1  0  0  0
 34 35  2  0  0  0
 35 36  1  0  0  0
 36 37  2  0  0  0
 37 38  1  0  0  0
 38 39  2  0  0  0
 39 32  1  0  0  0
 32  1  1  0  0  0
  1  2  1  0  0  0
  2  3  1  0  0  0
  3  4  1  0  0  0
  4  5  1  0  0  0
  5  6  1  0  0  0
  4  7  1  0  0  0
  7  8  1  0  0  0
  8  9  2  0  0  0
  8 10  1  0  0  0
 10 11  1  0  0  0
 11 12  2  0  0  0
 10 21  1  0  0  0
 21 22  2  0  0  0
 22 23  1  0  0  0
 23 24  2  0  0  0
 24 25  1  0  0  0
 25 26  2  0  0  0
 24 27  1  0  0  0
 27 28  1  0  0  0
 28 29  1  0  0  0
 29 30  1  0  0  0
 30 31  2  0  0  0
  7 13  1  0  0  0
 13 14  2  0  0  0
 14 15  1  0  0  0
 15 16  2  0  0  0
 15 17  1  0  0  0
 17 18  1  0  0  0
 18 19  2  0  0  0
 39 34  1  0  0  0
  6  1  1  0  0  0
 26 21  1  0  0  0
 30 27  1  0  0  0
 19 13  1  0  0  0
 11  4  1  0  0  0
 17 20  1  0  0  0
M  END
> <minimizedAffinity>
13.58111

> <CNNscore>
0.5360683799

> <CNNaffinity>
7.6801099777

> <CNN_VS>
4.1170639992

> <CNNaffinity_variance>
0.3571032286

$$$$
[H]c1nc(C([H])([H])N2C([H])([H])C([H])([H])C3(C(=O)N(c4c([H])c([H])c(N5C(=O)C([H])([H])C5([H])[H])c([H])c4[H])C(=O)N3c3nc([H])n([H])c(=O)c3[H])C([H])([H])C2([H])[H])c(C([H])([H])[H])c([H])c1[H]


 39 44  0  0  0  0  0  0  0  0999 V2000
   16.9974   25.6316    0.7070 N   0  0  0  0  0  0  0  0  0  0  0  0
   16.6868   25.3289   -0.6679 C   0  0  0  0  0  0  0  0  0  0  0  0
   15.5939   24.2889   -0.8028 C   0  0  0  0  0  0  0  0  0  0  0  0
   14.2744   24.7785   -0.2776 C   0  0  0  0  0  0  0  0  0  0  0  0
   14.5345   25.9207    0.6323 C   0  0  0  0  0  0  0  0  0  0  0  0
   15.7674   25.7131    1.4630 C   0  0  0  0  0  0  0  0  0  0  0  0
   13.2923   25.0198   -1.2969 N   0  0  0  0  0  0  0  0  0  0  0  0
   12.0292   24.5763   -0.7495 C   0  0  0  0  0  0  0  0  0  0  0  0
   10.8756   24.8697   -1.1866 O   0  0  0  0  0  0  0  0  0  0  0  0
   12.2811   23.7449    0.3755 N   0  0  0  0  0  0  0  0  0  0  0  0
   13.6767   23.6761    0.5195 C   0  0  0  0  0  0  0  0  0  0  0  0
   14.2749   22.7968    1.2257 O   0  0  0  0  0  0  0  0  0  0  0  0
   13.3630   25.5583   -2.6018 C   0  0  0  0  0  0  0  0  0  0  0  0
   12.5633   26.5668   -3.0684 C   0  0  0  0  0  0  0  0  0  0  0  0
   12.6768   27.0544   -4.3509 C   0  0  0  0  0  0  0  0  0  0  0  0
   11.9504   27.9799   -4.7955 O   0  0  0  0  0  0  0  0  0  0  0  0
   13.6030   26.5364   -5.2012 N   0  0  0  0  0  0  0  0  0  0  0  0
   14.3809   25.5618   -4.7601 C   0  0  0  0  0  0  0  0  0  0  0  0
   14.2662   25.0919   -3.5131 N   0  0  0  0  0  0  0  0  0  0  0  0
   13.6896   26.8968   -6.1557 H   0  0  0  0  0  0  0  0  0  0  0  0
   11.2856   23.1189    1.1803 C   0  0  0  0  0  0  0  0  0  0  0  0
   10.7216   23.8696    2.2164 C   0  0  0  0  0  0  0  0  0  0  0  0
    9.7525   23.3327    3.0404 C   0  0  0  0  0  0  0  0  0  0  0  0
    9.3385   22.0455    2.8378 C   0  0  0  0  0  0  0  0  0  0  0  0
    9.9075   21.3192    1.8080 C   0  0  0  0  0  0  0  0  0  0  0  0
   10.8739   21.8236    0.9705 C   0  0  0  0  0  0  0  0  0  0  0  0
    8.3424   21.5004    3.6888 N   0  0  0  0  0  0  0  0  0  0  0  0
    8.0586   20.2543    4.3391 C   0  0  0  0  0  0  0  0  0  0  0  0
    6.6015   20.6951    4.3527 C   0  0  0  0  0  0  0  0  0  0  0  0
    7.1570   22.0681    4.2463 C   0  0  0  0  0  0  0  0  0  0  0  0
    6.7577   23.2447    4.5279 O   0  0  0  0  0  0  0  0  0  0  0  0
   17.9688   24.7174    1.2648 C   0  0  0  0  0  0  0  0  0  0  0  0
   19.6853   23.1386   -0.3045 C   0  0  0  0  0  0  0  0  0  0  0  0
   18.5474   22.5324    0.3591 C   0  0  0  0  0  0  0  0  0  0  0  0
   18.3401   21.1715    0.2003 C   0  0  0  0  0  0  0  0  0  0  0  0
   17.2580   20.5633    0.8261 C   0  0  0  0  0  0  0  0  0  0  0  0
   16.4383   21.3623    1.5822 C   0  0  0  0  0  0  0  0  0  0  0  0
   16.6725   22.6956    1.7154 N   0  0  0  0  0  0  0  0  0  0  0  0
   17.7041   23.3095    1.1267 C   0  0  0  0  0  0  0  0  0  0  0  0
 33 34  1  0  0  0
 34 35  2  0  0  0
 35 36  1  0  0  0
 36 37  2  0  0  0
 37 38  1  0  0  0
 38 39  2  0  0  0
 39 32  1  0  0  0
 32  1  1  0  0  0
  1  2  1  0  0  0
  2  3  1  0  0  0
  3  4  1  0  0  0
  4  5  1  0  0  0
  5  6  1  0  0  0
  4  7  1  0  0  0
  7  8  1  0  0  0
  8  9  2  0  0  0
  8 10  1  0  0  0
 10 11  1  0  0  0
 11 12  2  0  0  0
 10 21  1  0  0  0
 21 22  2  0  0  0
 22 23  1  0  0  0
 23 24  2  0  0  0
 24 25  1  0  0  0
 25 26  2  0  0  0
 24 27  1  0  0  0
 27 28  1  0  0  0
 28 29  1  0  0  0
 29 30  1  0  0  0
 30 31  2  0  0  0
  7 13  1  0  0  0
 13 14  2  0  0  0
 14 15  1  0  0  0
 15 16  2  0  0  0
 15 17  1  0  0  0
 17 18  1  0  0  0
 18 19  2  0  0  0
 39 34  1  0  0  0
  6  1  1  0  0  0
 26 21  1  0  0  0
 30 27  1  0  0  0
 19 13  1  0  0  0
 11  4  1  0  0  0
 17 20  1  0  0  0
M  END
> <minimizedAffinity>
18.56555

> <CNNscore>
0.5326112509

> <CNNaffinity>
7.5862593651

> <CNN_VS>
4.0405268669

> <CNNaffinity_variance>
0.3813016415

$$$$
[H]c1nc(C([H])([H])N2C([H])([H])C([H])([H])C3(C(=O)N(c4c([H])c([H])c(N5C(=O)C([H])([H])C5([H])[H])c([H])c4[H])C(=O)N3c3nc([H])n([H])c(=O)c3[H])C([H])([H])C2([H])[H])c(C([H])([H])[H])c([H])c1[H]


 39 44  0  0  0  0  0  0  0  0999 V2000
   10.7446   24.3282    1.6376 N   0  0  0  0  0  0  0  0  0  0  0  0
   11.2740   23.0476    1.2397 C   0  0  0  0  0  0  0  0  0  0  0  0
   11.7816   23.0452   -0.1875 C   0  0  0  0  0  0  0  0  0  0  0  0
   12.9652   23.9517   -0.3721 C   0  0  0  0  0  0  0  0  0  0  0  0
   12.9845   24.9207    0.7507 C   0  0  0  0  0  0  0  0  0  0  0  0
   11.6049   25.3741    1.1307 C   0  0  0  0  0  0  0  0  0  0  0  0
   14.2016   23.2593   -0.6039 N   0  0  0  0  0  0  0  0  0  0  0  0
   14.9188   24.0385   -1.5888 C   0  0  0  0  0  0  0  0  0  0  0  0
   16.1546   23.9539   -1.8602 O   0  0  0  0  0  0  0  0  0  0  0  0
   14.0108   24.9316   -2.2199 N   0  0  0  0  0  0  0  0  0  0  0  0
   12.7540   24.7068   -1.6342 C   0  0  0  0  0  0  0  0  0  0  0  0
   11.6527   25.1049   -2.1425 O   0  0  0  0  0  0  0  0  0  0  0  0
   14.7586   22.0703   -0.0805 C   0  0  0  0  0  0  0  0  0  0  0  0
   15.6989   22.0271    0.9138 C   0  0  0  0  0  0  0  0  0  0  0  0
   16.2068   20.8383    1.3869 C   0  0  0  0  0  0  0  0  0  0  0  0
   17.0707   20.7805    2.2992 O   0  0  0  0  0  0  0  0  0  0  0  0
   15.7792   19.6560    0.8685 N   0  0  0  0  0  0  0  0  0  0  0  0
   14.8707   19.6867   -0.0923 C   0  0  0  0  0  0  0  0  0  0  0  0
   14.3807   20.8447   -0.5482 N   0  0  0  0  0  0  0  0  0  0  0  0
   16.1554   18.7702    1.2182 H   0  0  0  0  0  0  0  0  0  0  0  0
   14.3455   25.8632   -3.2450 C   0  0  0  0  0  0  0  0  0  0  0  0
   15.7008   26.1262   -3.4663 C   0  0  0  0  0  0  0  0  0  0  0  0
   16.1045   27.0176   -4.4403 C   0  0  0  0  0  0  0  0  0  0  0  0
   15.1618   27.6523   -5.2003 C   0  0  0  0  0  0  0  0  0  0  0  0
   13.8266   27.3790   -4.9670 C   0  0  0  0  0  0  0  0  0  0  0  0
   13.3917   26.4978   -4.0057 C   0  0  0  0  0  0  0  0  0  0  0  0
   15.5842   28.5673   -6.1992 N   0  0  0  0  0  0  0  0  0  0  0  0
   16.2481   28.5301   -7.4696 C   0  0  0  0  0  0  0  0  0  0  0  0
   16.6521   29.9730   -7.2009 C   0  0  0  0  0  0  0  0  0  0  0  0
   15.4810   29.9885   -6.2882 C   0  0  0  0  0  0  0  0  0  0  0  0
   14.7126   30.8771   -5.7951 O   0  0  0  0  0  0  0  0  0  0  0  0
    9.3541   24.4849    1.2733 C   0  0  0  0  0  0  0  0  0  0  0  0
    8.0445   22.2195    2.3002 C   0  0  0  0  0  0  0  0  0  0  0  0
    7.7643   23.5310    2.8518 C   0  0  0  0  0  0  0  0  0  0  0  0
    6.8485   23.6284    3.8871 C   0  0  0  0  0  0  0  0  0  0  0  0
    6.5614   24.8728    4.4362 C   0  0  0  0  0  0  0  0  0  0  0  0
    7.2155   25.9581    3.9106 C   0  0  0  0  0  0  0  0  0  0  0  0
    8.1086   25.8247    2.8934 N   0  0  0  0  0  0  0  0  0  0  0  0
    8.4059   24.6424    2.3444 C   0  0  0  0  0  0  0  0  0  0  0  0
 33 34  1  0  0  0
 34 35  2  0  0  0
 35 36  1  0  0  0
 36 37  2  0  0  0
 37 38  1  0  0  0
 38 39  2  0  0  0
 39 32  1  0  0  0
 32  1  1  0  0  0
  1  2  1  0  0  0
  2  3  1  0  0  0
  3  4  1  0  0  0
  4  5  1  0  0  0
  5  6  1  0  0  0
  4  7  1  0  0  0
  7  8  1  0  0  0
  8  9  2  0  0  0
  8 10  1  0  0  0
 10 11  1  0  0  0
 11 12  2  0  0  0
 10 21  1  0  0  0
 21 22  2  0  0  0
 22 23  1  0  0  0
 23 24  2  0  0  0
 24 25  1  0  0  0
 25 26  2  0  0  0
 24 27  1  0  0  0
 27 28  1  0  0  0
 28 29  1  0  0  0
 29 30  1  0  0  0
 30 31  2  0  0  0
  7 13  1  0  0  0
 13 14  2  0  0  0
 14 15  1  0  0  0
 15 16  2  0  0  0
 15 17  1  0  0  0
 17 18  1  0  0  0
 18 19  2  0  0  0
 39 34  1  0  0  0
  6  1  1  0  0  0
 26 21  1  0  0  0
 30 27  1  0  0  0
 19 13  1  0  0  0
 11  4  1  0  0  0
 17 20  1  0  0  0
M  END
> <minimizedAffinity>
9.55733

> <CNNscore>
0.5065911412

> <CNNaffinity>
7.4592866898

> <CNN_VS>
3.7788085938

> <CNNaffinity_variance>
0.1818900406

$$$$
[H]c1nc(C([H])([H])N2C([H])([H])C([H])([H])C3(C(=O)N(c4c([H])c([H])c(N5C(=O)C([H])([H])C5([H])[H])c([H])c4[H])C(=O)N3c3nc([H])n([H])c(=O)c3[H])C([H])([H])C2([H])[H])c(C([H])([H])[H])c([H])c1[H]


 39 44  0  0  0  0  0  0  0  0999 V2000
   10.6140   24.3128    1.5263 N   0  0  0  0  0  0  0  0  0  0  0  0
   11.1739   23.0326    1.1715 C   0  0  0  0  0  0  0  0  0  0  0  0
   11.7696   23.0231   -0.2211 C   0  0  0  0  0  0  0  0  0  0  0  0
   12.9577   23.9350   -0.3381 C   0  0  0  0  0  0  0  0  0  0  0  0
   12.9017   24.9120    0.7766 C   0  0  0  0  0  0  0  0  0  0  0  0
   11.4987   25.3600    1.0664 C   0  0  0  0  0  0  0  0  0  0  0  0
   14.2097   23.2481   -0.4872 N   0  0  0  0  0  0  0  0  0  0  0  0
   14.9829   24.0245   -1.4311 C   0  0  0  0  0  0  0  0  0  0  0  0
   16.2337   23.9451   -1.6242 O   0  0  0  0  0  0  0  0  0  0  0  0
   14.1115   24.9080   -2.1241 N   0  0  0  0  0  0  0  0  0  0  0  0
   12.8217   24.6801   -1.6164 C   0  0  0  0  0  0  0  0  0  0  0  0
   11.7523   25.0684   -2.1953 O   0  0  0  0  0  0  0  0  0  0  0  0
   14.7392   22.0660    0.0786 C   0  0  0  0  0  0  0  0  0  0  0  0
   15.8015   22.0281    0.9415 C   0  0  0  0  0  0  0  0  0  0  0  0
   16.2756   20.8460    1.4641 C   0  0  0  0  0  0  0  0  0  0  0  0
   17.2500   20.7931    2.2576 O   0  0  0  0  0  0  0  0  0  0  0  0
   15.6896   19.6653    1.1295 N   0  0  0  0  0  0  0  0  0  0  0  0
   14.6623   19.6909    0.2968 C   0  0  0  0  0  0  0  0  0  0  0  0
   14.2060   20.8424   -0.2080 N   0  0  0  0  0  0  0  0  0  0  0  0
   16.0402   18.7844    1.5164 H   0  0  0  0  0  0  0  0  0  0  0  0
   14.5046   25.8344   -3.1331 C   0  0  0  0  0  0  0  0  0  0  0  0
   15.7773   26.4044   -3.0311 C   0  0  0  0  0  0  0  0  0  0  0  0
   16.2298   27.3113   -3.9686 C   0  0  0  0  0  0  0  0  0  0  0  0
   15.4185   27.6561   -5.0137 C   0  0  0  0  0  0  0  0  0  0  0  0
   14.1636   27.0816   -5.0978 C   0  0  0  0  0  0  0  0  0  0  0  0
   13.6832   26.1764   -4.1817 C   0  0  0  0  0  0  0  0  0  0  0  0
   15.8902   28.5891   -5.9731 N   0  0  0  0  0  0  0  0  0  0  0  0
   16.1670   29.9940   -6.0504 C   0  0  0  0  0  0  0  0  0  0  0  0
   15.9653   29.8608   -7.5534 C   0  0  0  0  0  0  0  0  0  0  0  0
   16.2924   28.4291   -7.3336 C   0  0  0  0  0  0  0  0  0  0  0  0
   16.7385   27.4695   -8.0432 O   0  0  0  0  0  0  0  0  0  0  0  0
    9.2482   24.4591    1.0748 C   0  0  0  0  0  0  0  0  0  0  0  0
    8.1793   24.1398    3.6549 C   0  0  0  0  0  0  0  0  0  0  0  0
    7.8192   23.2111    2.6011 C   0  0  0  0  0  0  0  0  0  0  0  0
    6.9425   22.1810    2.9018 C   0  0  0  0  0  0  0  0  0  0  0  0
    6.5786   21.2766    1.9107 C   0  0  0  0  0  0  0  0  0  0  0  0
    7.1199   21.4589    0.6635 C   0  0  0  0  0  0  0  0  0  0  0  0
    7.9783   22.4819    0.4047 N   0  0  0  0  0  0  0  0  0  0  0  0
    8.3473   23.3676    1.3358 C   0  0  0  0  0  0  0  0  0  0  0  0
 33 34  1  0  0  0
 34 35  2  0  0  0
 35 36  1  0  0  0
 36 37  2  0  0  0
 37 38  1  0  0  0
 38 39  2  0  0  0
 39 32  1  0  0  0
 32  1  1  0  0  0
  1  2  1  0  0  0
  2  3  1  0  0  0
  3  4  1  0  0  0
  4  5  1  0  0  0
  5  6  1  0  0  0
  4  7  1  0  0  0
  7  8  1  0  0  0
  8  9  2  0  0  0
  8 10  1  0  0  0
 10 11  1  0  0  0
 11 12  2  0  0  0
 10 21  1  0  0  0
 21 22  2  0  0  0
 22 23  1  0  0  0
 23 24  2  0  0  0
 24 25  1  0  0  0
 25 26  2  0  0  0
 24 27  1  0  0  0
 27 28  1  0  0  0
 28 29  1  0  0  0
 29 30  1  0  0  0
 30 31  2  0  0  0
  7 13  1  0  0  0
 13 14  2  0  0  0
 14 15  1  0  0  0
 15 16  2  0  0  0
 15 17  1  0  0  0
 17 18  1  0  0  0
 18 19  2  0  0  0
 39 34  1  0  0  0
  6  1  1  0  0  0
 26 21  1  0  0  0
 30 27  1  0  0  0
 19 13  1  0  0  0
 11  4  1  0  0  0
 17 20  1  0  0  0
M  END
> <minimizedAffinity>
8.18581

> <CNNscore>
0.4990446270

> <CNNaffinity>
7.5366339684

> <CNN_VS>
3.7611167431

> <CNNaffinity_variance>
0.1941368282

$$$$
[H]c1nc(C([H])([H])N2C([H])([H])C([H])([H])C3(C(=O)N(c4c([H])c([H])c(N5C(=O)C([H])([H])C5([H])[H])c([H])c4[H])C(=O)N3c3nc([H])n([H])c(=O)c3[H])C([H])([H])C2([H])[H])c(C([H])([H])[H])c([H])c1[H]


 39 44  0  0  0  0  0  0  0  0999 V2000
   11.8650   22.1539    1.3470 N   0  0  0  0  0  0  0  0  0  0  0  0
   13.1856   21.6727    1.6676 C   0  0  0  0  0  0  0  0  0  0  0  0
   14.0867   21.5911    0.4528 C   0  0  0  0  0  0  0  0  0  0  0  0
   14.3734   22.9436   -0.1349 C   0  0  0  0  0  0  0  0  0  0  0  0
   13.3304   23.8847    0.3412 C   0  0  0  0  0  0  0  0  0  0  0  0
   11.9747   23.2432    0.4024 C   0  0  0  0  0  0  0  0  0  0  0  0
   15.7269   23.3863    0.0491 N   0  0  0  0  0  0  0  0  0  0  0  0
   16.0983   24.0596   -1.1757 C   0  0  0  0  0  0  0  0  0  0  0  0
   17.0818   24.8443   -1.3342 O   0  0  0  0  0  0  0  0  0  0  0  0
   15.1759   23.7018   -2.1962 N   0  0  0  0  0  0  0  0  0  0  0  0
   14.2508   22.8218   -1.6107 C   0  0  0  0  0  0  0  0  0  0  0  0
   13.4649   22.0701   -2.2794 O   0  0  0  0  0  0  0  0  0  0  0  0
   16.6453   23.2751    1.1177 C   0  0  0  0  0  0  0  0  0  0  0  0
   17.6587   24.1622    1.3641 C   0  0  0  0  0  0  0  0  0  0  0  0
   18.5251   24.0050    2.4223 C   0  0  0  0  0  0  0  0  0  0  0  0
   19.4611   24.8100    2.6630 O   0  0  0  0  0  0  0  0  0  0  0  0
   18.3931   22.9452    3.2641 N   0  0  0  0  0  0  0  0  0  0  0  0
   17.4171   22.0825    3.0351 C   0  0  0  0  0  0  0  0  0  0  0  0
   16.5783   22.2401    2.0053 N   0  0  0  0  0  0  0  0  0  0  0  0
   19.0362   22.8255    4.0520 H   0  0  0  0  0  0  0  0  0  0  0  0
   15.2118   24.1661   -3.5430 C   0  0  0  0  0  0  0  0  0  0  0  0
   14.8446   25.4940   -3.7821 C   0  0  0  0  0  0  0  0  0  0  0  0
   14.8523   26.0170   -5.0599 C   0  0  0  0  0  0  0  0  0  0  0  0
   15.2260   25.2218   -6.1074 C   0  0  0  0  0  0  0  0  0  0  0  0
   15.5862   23.9117   -5.8511 C   0  0  0  0  0  0  0  0  0  0  0  0
   15.5890   23.3605   -4.5917 C   0  0  0  0  0  0  0  0  0  0  0  0
   15.2311   25.7661   -7.4178 N   0  0  0  0  0  0  0  0  0  0  0  0
   14.5308   25.5784   -8.6549 C   0  0  0  0  0  0  0  0  0  0  0  0
   15.7553   26.1737   -9.3359 C   0  0  0  0  0  0  0  0  0  0  0  0
   16.0200   26.7960   -8.0139 C   0  0  0  0  0  0  0  0  0  0  0  0
   16.6668   27.8077   -7.5880 O   0  0  0  0  0  0  0  0  0  0  0  0
   10.9828   21.0919    0.9171 C   0  0  0  0  0  0  0  0  0  0  0  0
    9.9620   21.5600    3.4941 C   0  0  0  0  0  0  0  0  0  0  0  0
    9.0667   21.5320    2.3538 C   0  0  0  0  0  0  0  0  0  0  0  0
    7.7149   21.7443    2.5721 C   0  0  0  0  0  0  0  0  0  0  0  0
    6.8334   21.7244    1.4974 C   0  0  0  0  0  0  0  0  0  0  0  0
    7.3633   21.4907    0.2537 C   0  0  0  0  0  0  0  0  0  0  0  0
    8.6964   21.2861    0.0770 N   0  0  0  0  0  0  0  0  0  0  0  0
    9.5691   21.2991    1.0898 C   0  0  0  0  0  0  0  0  0  0  0  0
 33 34  1  0  0  0
 34 35  2  0  0  0
 35 36  1  0  0  0
 36 37  2  0  0  0
 37 38  1  0  0  0
 38 39  2  0  0  0
 39 32  1  0  0  0
 32  1  1  0  0  0
  1  2  1  0  0  0
  2  3  1  0  0  0
  3  4  1  0  0  0
  4  5  1  0  0  0
  5  6  1  0  0  0
  4  7  1  0  0  0
  7  8  1  0  0  0
  8  9  2  0  0  0
  8 10  1  0  0  0
 10 11  1  0  0  0
 11 12  2  0  0  0
 10 21  1  0  0  0
 21 22  2  0  0  0
 22 23  1  0  0  0
 23 24  2  0  0  0
 24 25  1  0  0  0
 25 26  2  0  0  0
 24 27  1  0  0  0
 27 28  1  0  0  0
 28 29  1  0  0  0
 29 30  1  0  0  0
 30 31  2  0  0  0
  7 13  1  0  0  0
 13 14  2  0  0  0
 14 15  1  0  0  0
 15 16  2  0  0  0
 15 17  1  0  0  0
 17 18  1  0  0  0
 18 19  2  0  0  0
 39 34  1  0  0  0
  6  1  1  0  0  0
 26 21  1  0  0  0
 30 27  1  0  0  0
 19 13  1  0  0  0
 11  4  1  0  0  0
 17 20  1  0  0  0
M  END
> <minimizedAffinity>
19.29714

> <CNNscore>
0.4958790541

> <CNNaffinity>
7.5872101784

> <CNN_VS>
3.7623386383

> <CNNaffinity_variance>
0.2790310979

$$$$
[H]c1nc2c([H])c(N([H])C(=O)C([H])([H])C(F)(F)F)c([H])c(-c3c([H])c([H])c(C#N)c([H])c3[H])n2n1


 26 28  0  0  0  0  0  0  0  0999 V2000
   11.6401   24.1758   -0.3884 C   0  0  0  0  0  0  0  0  0  0  0  0
   12.1588   24.5306   -1.6492 C   0  0  0  0  0  0  0  0  0  0  0  0
   13.4886   24.7098   -1.8189 C   0  0  0  0  0  0  0  0  0  0  0  0
   14.3171   24.5466   -0.7721 N   0  0  0  0  0  0  0  0  0  0  0  0
   15.6396   24.6733   -0.7244 N   0  0  0  0  0  0  0  0  0  0  0  0
   16.0262   24.4178    0.5163 C   0  0  0  0  0  0  0  0  0  0  0  0
   14.9415   24.1286    1.2540 N   0  0  0  0  0  0  0  0  0  0  0  0
   13.8859   24.2142    0.4328 C   0  0  0  0  0  0  0  0  0  0  0  0
   12.5232   24.0222    0.6410 C   0  0  0  0  0  0  0  0  0  0  0  0
   14.0418   25.0845   -3.1485 C   0  0  0  0  0  0  0  0  0  0  0  0
   14.9548   24.2816   -3.7967 C   0  0  0  0  0  0  0  0  0  0  0  0
   15.4826   24.6067   -5.0298 C   0  0  0  0  0  0  0  0  0  0  0  0
   15.1014   25.7722   -5.6624 C   0  0  0  0  0  0  0  0  0  0  0  0
   14.1870   26.5762   -5.0129 C   0  0  0  0  0  0  0  0  0  0  0  0
   13.6617   26.2482   -3.7809 C   0  0  0  0  0  0  0  0  0  0  0  0
   15.6372   26.1380   -6.9533 C   0  0  0  0  0  0  0  0  0  0  0  0
   16.0765   26.4272   -7.9841 N   0  0  0  0  0  0  0  0  0  0  0  0
    9.5848   23.4327    0.8340 C   0  0  0  0  0  0  0  0  0  0  0  0
   10.0849   23.0050    1.8692 O   0  0  0  0  0  0  0  0  0  0  0  0
   10.2582   23.9945   -0.2617 N   0  0  0  0  0  0  0  0  0  0  0  0
    9.6511   24.3148   -1.0822 H   0  0  0  0  0  0  0  0  0  0  0  0
    8.0718   23.3410    0.7339 C   0  0  0  0  0  0  0  0  0  0  0  0
    8.5113   21.1801   -0.1920 F   0  0  0  0  0  0  0  0  0  0  0  0
    7.6355   21.9032    0.5890 C   0  0  0  0  0  0  0  0  0  0  0  0
    7.4228   21.3205    1.8113 F   0  0  0  0  0  0  0  0  0  0  0  0
    6.4140   21.8888   -0.0873 F   0  0  0  0  0  0  0  0  0  0  0  0
 23 24  1  0  0  0
 24 25  1  0  0  0
 24 26  1  0  0  0
 24 22  1  0  0  0
 22 18  1  0  0  0
 18 19  2  0  0  0
 18 20  1  0  0  0
 20  1  1  0  0  0
  1  2  1  0  0  0
  2  3  2  0  0  0
  3 10  1  0  0  0
 10 11  2  0  0  0
 11 12  1  0  0  0
 12 13  2  0  0  0
 13 14  1  0  0  0
 14 15  2  0  0  0
 13 16  1  0  0  0
 16 17  3  0  0  0
  3  4  1  0  0  0
  4  5  1  0  0  0
  5  6  2  0  0  0
  6  7  1  0  0  0
  7  8  2  0  0  0
  8  9  1  0  0  0
  9  1  2  0  0  0
 15 10  1  0  0  0
  8  4  1  0  0  0
 20 21  1  0  0  0
M  END
> <minimizedAffinity>
-8.80175

> <CNNscore>
0.7623727918

> <CNNaffinity>
7.1797881126

> <CNN_VS>
5.4736752510

> <CNNaffinity_variance>
0.2225052565

$$$$
[H]c1nc2c([H])c(N([H])C(=O)C([H])([H])C(F)(F)F)c([H])c(-c3c([H])c([H])c(C#N)c([H])c3[H])n2n1


 26 28  0  0  0  0  0  0  0  0999 V2000
   11.1289   21.7308   -0.6541 C   0  0  0  0  0  0  0  0  0  0  0  0
   11.6447   22.7393   -1.4916 C   0  0  0  0  0  0  0  0  0  0  0  0
   12.9270   23.1497   -1.3626 C   0  0  0  0  0  0  0  0  0  0  0  0
   13.7107   22.5868   -0.4258 N   0  0  0  0  0  0  0  0  0  0  0  0
   14.9831   22.8413   -0.1366 N   0  0  0  0  0  0  0  0  0  0  0  0
   15.3390   22.0443    0.8596 C   0  0  0  0  0  0  0  0  0  0  0  0
   14.2852   21.2839    1.1996 N   0  0  0  0  0  0  0  0  0  0  0  0
   13.2799   21.6370    0.3869 C   0  0  0  0  0  0  0  0  0  0  0  0
   11.9655   21.1920    0.2802 C   0  0  0  0  0  0  0  0  0  0  0  0
   13.4769   24.2146   -2.2446 C   0  0  0  0  0  0  0  0  0  0  0  0
   14.6227   24.0126   -2.9827 C   0  0  0  0  0  0  0  0  0  0  0  0
   15.1527   24.9837   -3.8077 C   0  0  0  0  0  0  0  0  0  0  0  0
   14.5353   26.2127   -3.9187 C   0  0  0  0  0  0  0  0  0  0  0  0
   13.3879   26.4147   -3.1792 C   0  0  0  0  0  0  0  0  0  0  0  0
   12.8610   25.4421   -2.3559 C   0  0  0  0  0  0  0  0  0  0  0  0
   15.0675   27.2480   -4.7744 C   0  0  0  0  0  0  0  0  0  0  0  0
   15.5040   28.0725   -5.4592 N   0  0  0  0  0  0  0  0  0  0  0  0
    8.8627   21.0741    0.1851 C   0  0  0  0  0  0  0  0  0  0  0  0
    9.0440   21.1503    1.3959 O   0  0  0  0  0  0  0  0  0  0  0  0
    9.7982   21.3338   -0.8283 N   0  0  0  0  0  0  0  0  0  0  0  0
    9.4570   21.2142   -1.8352 H   0  0  0  0  0  0  0  0  0  0  0  0
    7.4725   20.6523   -0.2584 C   0  0  0  0  0  0  0  0  0  0  0  0
    7.5936   19.8659   -2.5138 F   0  0  0  0  0  0  0  0  0  0  0  0
    7.5495   19.4703   -1.1941 C   0  0  0  0  0  0  0  0  0  0  0  0
    8.5875   18.6386   -0.8634 F   0  0  0  0  0  0  0  0  0  0  0  0
    6.3737   18.7305   -1.0528 F   0  0  0  0  0  0  0  0  0  0  0  0
 23 24  1  0  0  0
 24 25  1  0  0  0
 24 26  1  0  0  0
 24 22  1  0  0  0
 22 18  1  0  0  0
 18 19  2  0  0  0
 18 20  1  0  0  0
 20  1  1  0  0  0
  1  2  1  0  0  0
  2  3  2  0  0  0
  3 10  1  0  0  0
 10 11  2  0  0  0
 11 12  1  0  0  0
 12 13  2  0  0  0
 13 14  1  0  0  0
 14 15  2  0  0  0
 13 16  1  0  0  0
 16 17  3  0  0  0
  3  4  1  0  0  0
  4  5  1  0  0  0
  5  6  2  0  0  0
  6  7  1  0  0  0
  7  8  2  0  0  0
  8  9  1  0  0  0
  9  1  2  0  0  0
 15 10  1  0  0  0
  8  4  1  0  0  0
 20 21  1  0  0  0
M  END
> <minimizedAffinity>
-8.29746

> <CNNscore>
0.7468866706

> <CNNaffinity>
7.3189454079

> <CNN_VS>
5.4664225578

> <CNNaffinity_variance>
0.3772049546

$$$$
[H]c1nc2c([H])c(N([H])C(=O)C([H])([H])C(F)(F)F)c([H])c(-c3c([H])c([H])c(C#N)c([H])c3[H])n2n1


 26 28  0  0  0  0  0  0  0  0999 V2000
   14.3454   25.2026   -3.0561 C   0  0  0  0  0  0  0  0  0  0  0  0
   13.1488   24.9053   -2.3748 C   0  0  0  0  0  0  0  0  0  0  0  0
   13.1742   24.5211   -1.0782 C   0  0  0  0  0  0  0  0  0  0  0  0
   14.3540   24.4239   -0.4400 N   0  0  0  0  0  0  0  0  0  0  0  0
   14.5978   24.0684    0.8176 N   0  0  0  0  0  0  0  0  0  0  0  0
   15.9081   24.1159    1.0049 C   0  0  0  0  0  0  0  0  0  0  0  0
   16.4926   24.5034   -0.1408 N   0  0  0  0  0  0  0  0  0  0  0  0
   15.5071   24.6904   -1.0294 C   0  0  0  0  0  0  0  0  0  0  0  0
   15.5158   25.0886   -2.3630 C   0  0  0  0  0  0  0  0  0  0  0  0
   11.9132   24.2059   -0.3538 C   0  0  0  0  0  0  0  0  0  0  0  0
   11.5581   24.8813    0.7934 C   0  0  0  0  0  0  0  0  0  0  0  0
   10.3946   24.6079    1.4834 C   0  0  0  0  0  0  0  0  0  0  0  0
    9.5346   23.6275    1.0329 C   0  0  0  0  0  0  0  0  0  0  0  0
    9.8906   22.9511   -0.1161 C   0  0  0  0  0  0  0  0  0  0  0  0
   11.0539   23.2269   -0.8031 C   0  0  0  0  0  0  0  0  0  0  0  0
    8.3097   23.3198    1.7346 C   0  0  0  0  0  0  0  0  0  0  0  0
    7.3279   23.0635    2.2910 N   0  0  0  0  0  0  0  0  0  0  0  0
   14.9706   26.6612   -4.9932 C   0  0  0  0  0  0  0  0  0  0  0  0
   15.7699   27.4181   -4.4520 O   0  0  0  0  0  0  0  0  0  0  0  0
   14.2699   25.6025   -4.3951 N   0  0  0  0  0  0  0  0  0  0  0  0
   13.6111   25.0473   -5.0294 H   0  0  0  0  0  0  0  0  0  0  0  0
   14.7165   26.9018   -6.4714 C   0  0  0  0  0  0  0  0  0  0  0  0
   15.9849   24.8757   -6.5480 F   0  0  0  0  0  0  0  0  0  0  0  0
   15.4833   25.9086   -7.3105 C   0  0  0  0  0  0  0  0  0  0  0  0
   14.7318   25.4613   -8.3658 F   0  0  0  0  0  0  0  0  0  0  0  0
   16.5925   26.5639   -7.8490 F   0  0  0  0  0  0  0  0  0  0  0  0
 23 24  1  0  0  0
 24 25  1  0  0  0
 24 26  1  0  0  0
 24 22  1  0  0  0
 22 18  1  0  0  0
 18 19  2  0  0  0
 18 20  1  0  0  0
 20  1  1  0  0  0
  1  2  1  0  0  0
  2  3  2  0  0  0
  3 10  1  0  0  0
 10 11  2  0  0  0
 11 12  1  0  0  0
 12 13  2  0  0  0
 13 14  1  0  0  0
 14 15  2  0  0  0
 13 16  1  0  0  0
 16 17  3  0  0  0
  3  4  1  0  0  0
  4  5  1  0  0  0
  5  6  2  0  0  0
  6  7  1  0  0  0
  7  8  2  0  0  0
  8  9  1  0  0  0
  9  1  2  0  0  0
 15 10  1  0  0  0
  8  4  1  0  0  0
 20 21  1  0  0  0
M  END
> <minimizedAffinity>
-7.94145

> <CNNscore>
0.6063929796

> <CNNaffinity>
7.0477867126

> <CNN_VS>
4.2737283707

> <CNNaffinity_variance>
0.2491960526

$$$$
[H]c1nc2c([H])c(N([H])C(=O)C([H])([H])C(F)(F)F)c([H])c(-c3c([H])c([H])c(C#N)c([H])c3[H])n2n1


 26 28  0  0  0  0  0  0  0  0999 V2000
   10.8803   23.9520    0.9114 C   0  0  0  0  0  0  0  0  0  0  0  0
   11.4647   24.5349   -0.2302 C   0  0  0  0  0  0  0  0  0  0  0  0
   12.6004   24.0233   -0.7573 C   0  0  0  0  0  0  0  0  0  0  0  0
   13.1715   22.9498   -0.1827 N   0  0  0  0  0  0  0  0  0  0  0  0
   14.2753   22.2994   -0.5373 N   0  0  0  0  0  0  0  0  0  0  0  0
   14.4528   21.3057    0.3202 C   0  0  0  0  0  0  0  0  0  0  0  0
   13.4554   21.3304    1.2197 N   0  0  0  0  0  0  0  0  0  0  0  0
   12.6671   22.3625    0.8891 C   0  0  0  0  0  0  0  0  0  0  0  0
   11.4991   22.8641    1.4561 C   0  0  0  0  0  0  0  0  0  0  0  0
   13.2218   24.6351   -1.9631 C   0  0  0  0  0  0  0  0  0  0  0  0
   14.2895   24.0399   -2.5988 C   0  0  0  0  0  0  0  0  0  0  0  0
   14.8833   24.5869   -3.7182 C   0  0  0  0  0  0  0  0  0  0  0  0
   14.4132   25.7729   -4.2437 C   0  0  0  0  0  0  0  0  0  0  0  0
   13.3439   26.3688   -3.6066 C   0  0  0  0  0  0  0  0  0  0  0  0
   12.7529   25.8195   -2.4884 C   0  0  0  0  0  0  0  0  0  0  0  0
   15.0150   26.3687   -5.4143 C   0  0  0  0  0  0  0  0  0  0  0  0
   15.5032   26.8365   -6.3534 N   0  0  0  0  0  0  0  0  0  0  0  0
    9.2525   24.4563    2.7463 C   0  0  0  0  0  0  0  0  0  0  0  0
    9.8109   23.9128    3.6937 O   0  0  0  0  0  0  0  0  0  0  0  0
    9.7017   24.5114    1.4179 N   0  0  0  0  0  0  0  0  0  0  0  0
    9.0770   25.0337    0.7239 H   0  0  0  0  0  0  0  0  0  0  0  0
    7.9319   25.1422    3.0515 C   0  0  0  0  0  0  0  0  0  0  0  0
    9.5116   26.8013    3.7384 F   0  0  0  0  0  0  0  0  0  0  0  0
    8.1678   26.5317    3.5918 C   0  0  0  0  0  0  0  0  0  0  0  0
    7.5252   27.4772    2.8356 F   0  0  0  0  0  0  0  0  0  0  0  0
    7.6200   26.5948    4.8747 F   0  0  0  0  0  0  0  0  0  0  0  0
 23 24  1  0  0  0
 24 25  1  0  0  0
 24 26  1  0  0  0
 24 22  1  0  0  0
 22 18  1  0  0  0
 18 19  2  0  0  0
 18 20  1  0  0  0
 20  1  1  0  0  0
  1  2  1  0  0  0
  2  3  2  0  0  0
  3 10  1  0  0  0
 10 11  2  0  0  0
 11 12  1  0  0  0
 12 13  2  0  0  0
 13 14  1  0  0  0
 14 15  2  0  0  0
 13 16  1  0  0  0
 16 17  3  0  0  0
  3  4  1  0  0  0
  4  5  1  0  0  0
  5  6  2  0  0  0
  6  7  1  0  0  0
  7  8  2  0  0  0
  8  9  1  0  0  0
  9  1  2  0  0  0
 15 10  1  0  0  0
  8  4  1  0  0  0
 20 21  1  0  0  0
M  END
> <minimizedAffinity>
-9.34412

> <CNNscore>
0.5877166986

> <CNNaffinity>
6.7752013206

> <CNN_VS>
3.9818990231

> <CNNaffinity_variance>
0.1714732051

$$$$
[H]c1nc2c([H])c(N([H])C(=O)C([H])([H])C(F)(F)F)c([H])c(-c3c([H])c([H])c(C#N)c([H])c3[H])n2n1


 26 28  0  0  0  0  0  0  0  0999 V2000
   13.4838   23.9190   -1.9635 C   0  0  0  0  0  0  0  0  0  0  0  0
   14.2219   23.9519   -3.1629 C   0  0  0  0  0  0  0  0  0  0  0  0
   14.2153   25.0567   -3.9431 C   0  0  0  0  0  0  0  0  0  0  0  0
   13.4965   26.1289   -3.5657 N   0  0  0  0  0  0  0  0  0  0  0  0
   13.3556   27.2997   -4.1795 N   0  0  0  0  0  0  0  0  0  0  0  0
   12.5537   28.0506   -3.4398 C   0  0  0  0  0  0  0  0  0  0  0  0
   12.1876   27.3492   -2.3543 N   0  0  0  0  0  0  0  0  0  0  0  0
   12.7857   26.1538   -2.4512 C   0  0  0  0  0  0  0  0  0  0  0  0
   12.7713   25.0332   -1.6258 C   0  0  0  0  0  0  0  0  0  0  0  0
   14.9933   25.0969   -5.2110 C   0  0  0  0  0  0  0  0  0  0  0  0
   15.0132   26.2235   -6.0038 C   0  0  0  0  0  0  0  0  0  0  0  0
   15.7265   26.2861   -7.1837 C   0  0  0  0  0  0  0  0  0  0  0  0
   16.4564   25.1962   -7.6119 C   0  0  0  0  0  0  0  0  0  0  0  0
   16.4361   24.0679   -6.8177 C   0  0  0  0  0  0  0  0  0  0  0  0
   15.7223   24.0090   -5.6393 C   0  0  0  0  0  0  0  0  0  0  0  0
   17.2125   25.2330   -8.8425 C   0  0  0  0  0  0  0  0  0  0  0  0
   17.8245   25.2708   -9.8240 N   0  0  0  0  0  0  0  0  0  0  0  0
   13.7544   22.6833    0.1976 C   0  0  0  0  0  0  0  0  0  0  0  0
   13.9551   23.6192    0.9646 O   0  0  0  0  0  0  0  0  0  0  0  0
   13.5258   22.7567   -1.1851 N   0  0  0  0  0  0  0  0  0  0  0  0
   13.3692   21.8283   -1.6932 H   0  0  0  0  0  0  0  0  0  0  0  0
   13.7549   21.2970    0.8187 C   0  0  0  0  0  0  0  0  0  0  0  0
   12.5206   21.1112    2.8587 F   0  0  0  0  0  0  0  0  0  0  0  0
   12.4312   21.0141    1.4867 C   0  0  0  0  0  0  0  0  0  0  0  0
   11.4338   21.8005    0.9715 F   0  0  0  0  0  0  0  0  0  0  0  0
   12.0857   19.6885    1.2160 F   0  0  0  0  0  0  0  0  0  0  0  0
 23 24  1  0  0  0
 24 25  1  0  0  0
 24 26  1  0  0  0
 24 22  1  0  0  0
 22 18  1  0  0  0
 18 19  2  0  0  0
 18 20  1  0  0  0
 20  1  1  0  0  0
  1  2  1  0  0  0
  2  3  2  0  0  0
  3 10  1  0  0  0
 10 11  2  0  0  0
 11 12  1  0  0  0
 12 13  2  0  0  0
 13 14  1  0  0  0
 14 15  2  0  0  0
 13 16  1  0  0  0
 16 17  3  0  0  0
  3  4  1  0  0  0
  4  5  1  0  0  0
  5  6  2  0  0  0
  6  7  1  0  0  0
  7  8  2  0  0  0
  8  9  1  0  0  0
  9  1  2  0  0  0
 15 10  1  0  0  0
  8  4  1  0  0  0
 20 21  1  0  0  0
M  END
> <minimizedAffinity>
6.44065

> <CNNscore>
0.5640954375

> <CNNaffinity>
6.6535787582

> <CNN_VS>
3.7532534599

> <CNNaffinity_variance>
0.8189390898

$$$$
[H]c1nc2c([H])c(N([H])C(=O)C([H])([H])C(F)(F)F)c([H])c(-c3c([H])c([H])c(C#N)c([H])c3[H])n2n1


 26 28  0  0  0  0  0  0  0  0999 V2000
   14.1848   25.5977   -3.9408 C   0  0  0  0  0  0  0  0  0  0  0  0
   14.6061   24.4388   -3.2598 C   0  0  0  0  0  0  0  0  0  0  0  0
   14.1263   24.1537   -2.0277 C   0  0  0  0  0  0  0  0  0  0  0  0
   13.2404   24.9870   -1.4536 N   0  0  0  0  0  0  0  0  0  0  0  0
   12.6530   24.8935   -0.2647 N   0  0  0  0  0  0  0  0  0  0  0  0
   11.8565   25.9421   -0.1231 C   0  0  0  0  0  0  0  0  0  0  0  0
   11.9425   26.7001   -1.2287 N   0  0  0  0  0  0  0  0  0  0  0  0
   12.8102   26.0879   -2.0462 C   0  0  0  0  0  0  0  0  0  0  0  0
   13.2843   26.4101   -3.3145 C   0  0  0  0  0  0  0  0  0  0  0  0
   14.5679   22.9309   -1.3039 C   0  0  0  0  0  0  0  0  0  0  0  0
   15.2925   23.0129   -0.1348 C   0  0  0  0  0  0  0  0  0  0  0  0
   15.7137   21.8943    0.5551 C   0  0  0  0  0  0  0  0  0  0  0  0
   15.4138   20.6333    0.0820 C   0  0  0  0  0  0  0  0  0  0  0  0
   14.6882   20.5516   -1.0890 C   0  0  0  0  0  0  0  0  0  0  0  0
   14.2689   21.6714   -1.7757 C   0  0  0  0  0  0  0  0  0  0  0  0
   15.8416   19.4447    0.7831 C   0  0  0  0  0  0  0  0  0  0  0  0
   16.1941   18.4977    1.3471 N   0  0  0  0  0  0  0  0  0  0  0  0
   15.5419   26.9115   -5.5849 C   0  0  0  0  0  0  0  0  0  0  0  0
   15.9681   27.8032   -4.8583 O   0  0  0  0  0  0  0  0  0  0  0  0
   14.7032   25.8484   -5.2164 N   0  0  0  0  0  0  0  0  0  0  0  0
   14.4335   25.1621   -5.9916 H   0  0  0  0  0  0  0  0  0  0  0  0
   15.9728   26.9708   -7.0403 C   0  0  0  0  0  0  0  0  0  0  0  0
   14.5685   25.4743   -8.2684 F   0  0  0  0  0  0  0  0  0  0  0  0
   15.8140   25.6207   -7.6964 C   0  0  0  0  0  0  0  0  0  0  0  0
   16.8285   25.3748   -8.5846 F   0  0  0  0  0  0  0  0  0  0  0  0
   15.8981   24.6446   -6.7014 F   0  0  0  0  0  0  0  0  0  0  0  0
 23 24  1  0  0  0
 24 25  1  0  0  0
 24 26  1  0  0  0
 24 22  1  0  0  0
 22 18  1  0  0  0
 18 19  2  0  0  0
 18 20  1  0  0  0
 20  1  1  0  0  0
  1  2  1  0  0  0
  2  3  2  0  0  0
  3 10  1  0  0  0
 10 11  2  0  0  0
 11 12  1  0  0  0
 12 13  2  0  0  0
 13 14  1  0  0  0
 14 15  2  0  0  0
 13 16  1  0  0  0
 16 17  3  0  0  0
  3  4  1  0  0  0
  4  5  1  0  0  0
  5  6  2  0  0  0
  6  7  1  0  0  0
  7  8  2  0  0  0
  8  9  1  0  0  0
  9  1  2  0  0  0
 15 10  1  0  0  0
  8  4  1  0  0  0
 20 21  1  0  0  0
M  END
> <minimizedAffinity>
4.36133

> <CNNscore>
0.5525647998

> <CNNaffinity>
6.6411886215

> <CNN_VS>
3.6696870327

> <CNNaffinity_variance>
0.5862596631

$$$$
[H]c1nc2c([H])c(N([H])C(=O)C([H])([H])C(F)(F)F)c([H])c(-c3c([H])c([H])c(C#N)c([H])c3[H])n2n1


 26 28  0  0  0  0  0  0  0  0999 V2000
   15.2445   24.1102   -4.8009 C   0  0  0  0  0  0  0  0  0  0  0  0
   15.8710   23.9558   -3.5487 C   0  0  0  0  0  0  0  0  0  0  0  0
   16.3245   25.0343   -2.8702 C   0  0  0  0  0  0  0  0  0  0  0  0
   16.1732   26.2611   -3.4003 N   0  0  0  0  0  0  0  0  0  0  0  0
   16.5428   27.4379   -2.9045 N   0  0  0  0  0  0  0  0  0  0  0  0
   16.1891   28.3725   -3.7737 C   0  0  0  0  0  0  0  0  0  0  0  0
   15.5934   27.7812   -4.8226 N   0  0  0  0  0  0  0  0  0  0  0  0
   15.5933   26.4649   -4.5709 C   0  0  0  0  0  0  0  0  0  0  0  0
   15.1154   25.3762   -5.2945 C   0  0  0  0  0  0  0  0  0  0  0  0
   16.9871   24.8769   -1.5471 C   0  0  0  0  0  0  0  0  0  0  0  0
   18.2626   24.3669   -1.4409 C   0  0  0  0  0  0  0  0  0  0  0  0
   18.8988   24.2110   -0.2261 C   0  0  0  0  0  0  0  0  0  0  0  0
   18.2600   24.5700    0.9430 C   0  0  0  0  0  0  0  0  0  0  0  0
   16.9824   25.0807    0.8362 C   0  0  0  0  0  0  0  0  0  0  0  0
   16.3498   25.2352   -0.3792 C   0  0  0  0  0  0  0  0  0  0  0  0
   18.9013   24.4181    2.2287 C   0  0  0  0  0  0  0  0  0  0  0  0
   19.4250   24.2944    3.2532 N   0  0  0  0  0  0  0  0  0  0  0  0
   14.8724   21.6423   -5.0061 C   0  0  0  0  0  0  0  0  0  0  0  0
   15.3621   21.2556   -3.9500 O   0  0  0  0  0  0  0  0  0  0  0  0
   14.7852   22.9662   -5.4635 N   0  0  0  0  0  0  0  0  0  0  0  0
   14.3211   23.1126   -6.4163 H   0  0  0  0  0  0  0  0  0  0  0  0
   14.3001   20.5658   -5.9122 C   0  0  0  0  0  0  0  0  0  0  0  0
   13.7898   18.3481   -5.1765 F   0  0  0  0  0  0  0  0  0  0  0  0
   13.3709   19.6607   -5.1402 C   0  0  0  0  0  0  0  0  0  0  0  0
   13.1824   20.1134   -3.8603 F   0  0  0  0  0  0  0  0  0  0  0  0
   12.1241   19.6848   -5.7686 F   0  0  0  0  0  0  0  0  0  0  0  0
 23 24  1  0  0  0
 24 25  1  0  0  0
 24 26  1  0  0  0
 24 22  1  0  0  0
 22 18  1  0  0  0
 18 19  2  0  0  0
 18 20  1  0  0  0
 20  1  1  0  0  0
  1  2  1  0  0  0
  2  3  2  0  0  0
  3 10  1  0  0  0
 10 11  2  0  0  0
 11 12  1  0  0  0
 12 13  2  0  0  0
 13 14  1  0  0  0
 14 15  2  0  0  0
 13 16  1  0  0  0
 16 17  3  0  0  0
  3  4  1  0  0  0
  4  5  1  0  0  0
  5  6  2  0  0  0
  6  7  1  0  0  0
  7  8  2  0  0  0
  8  9  1  0  0  0
  9  1  2  0  0  0
 15 10  1  0  0  0
  8  4  1  0  0  0
 20 21  1  0  0  0
M  END
> <minimizedAffinity>
18.01747

> <CNNscore>
0.5239803791

> <CNNaffinity>
6.4494705200

> <CNN_VS>
3.3793959618

> <CNNaffinity_variance>
0.9892614484

$$$$
[H]c1nc2c([H])c(N([H])C(=O)C([H])([H])C(F)(F)F)c([H])c(-c3c([H])c([H])c(C#N)c([H])c3[H])n2n1


 26 28  0  0  0  0  0  0  0  0999 V2000
   14.8576   25.2767   -2.6847 C   0  0  0  0  0  0  0  0  0  0  0  0
   13.6584   24.6034   -2.3798 C   0  0  0  0  0  0  0  0  0  0  0  0
   13.5483   23.8771   -1.2441 C   0  0  0  0  0  0  0  0  0  0  0  0
   14.5953   23.8011   -0.4034 N   0  0  0  0  0  0  0  0  0  0  0  0
   14.6953   23.1495    0.7511 N   0  0  0  0  0  0  0  0  0  0  0  0
   15.9120   23.3596    1.2304 C   0  0  0  0  0  0  0  0  0  0  0  0
   16.5818   24.1478    0.3733 N   0  0  0  0  0  0  0  0  0  0  0  0
   15.7439   24.4121   -0.6387 C   0  0  0  0  0  0  0  0  0  0  0  0
   15.8899   25.1677   -1.7984 C   0  0  0  0  0  0  0  0  0  0  0  0
   12.2839   23.1639   -0.9172 C   0  0  0  0  0  0  0  0  0  0  0  0
   12.1403   21.8145   -1.1559 C   0  0  0  0  0  0  0  0  0  0  0  0
   10.9785   21.1301   -0.8618 C   0  0  0  0  0  0  0  0  0  0  0  0
    9.9033   21.7941   -0.3077 C   0  0  0  0  0  0  0  0  0  0  0  0
   10.0474   23.1456   -0.0689 C   0  0  0  0  0  0  0  0  0  0  0  0
   11.2098   23.8262   -0.3639 C   0  0  0  0  0  0  0  0  0  0  0  0
    8.6747   21.1036    0.0106 C   0  0  0  0  0  0  0  0  0  0  0  0
    7.6938   20.5502    0.2764 N   0  0  0  0  0  0  0  0  0  0  0  0
   15.9139   26.9521   -4.2171 C   0  0  0  0  0  0  0  0  0  0  0  0
   16.8928   27.2746   -3.5521 O   0  0  0  0  0  0  0  0  0  0  0  0
   14.9232   26.0214   -3.8678 N   0  0  0  0  0  0  0  0  0  0  0  0
   14.1393   25.8686   -4.5797 H   0  0  0  0  0  0  0  0  0  0  0  0
   15.7639   27.6386   -5.5639 C   0  0  0  0  0  0  0  0  0  0  0  0
   15.7536   25.3520   -6.2648 F   0  0  0  0  0  0  0  0  0  0  0  0
   15.4119   26.6350   -6.6351 C   0  0  0  0  0  0  0  0  0  0  0  0
   14.0958   26.7390   -7.0036 F   0  0  0  0  0  0  0  0  0  0  0  0
   16.1761   26.9258   -7.7669 F   0  0  0  0  0  0  0  0  0  0  0  0
 23 24  1  0  0  0
 24 25  1  0  0  0
 24 26  1  0  0  0
 24 22  1  0  0  0
 22 18  1  0  0  0
 18 19  2  0  0  0
 18 20  1  0  0  0
 20  1  1  0  0  0
  1  2  1  0  0  0
  2  3  2  0  0  0
  3 10  1  0  0  0
 10 11  2  0  0  0
 11 12  1  0  0  0
 12 13  2  0  0  0
 13 14  1  0  0  0
 14 15  2  0  0  0
 13 16  1  0  0  0
 16 17  3  0  0  0
  3  4  1  0  0  0
  4  5  1  0  0  0
  5  6  2  0  0  0
  6  7  1  0  0  0
  7  8  2  0  0  0
  8  9  1  0  0  0
  9  1  2  0  0  0
 15 10  1  0  0  0
  8  4  1  0  0  0
 20 21  1  0  0  0
M  END
> <minimizedAffinity>
-7.73243

> <CNNscore>
0.4876929522

> <CNNaffinity>
7.0664129257

> <CNN_VS>
3.4462397099

> <CNNaffinity_variance>
0.2268550843

$$$$
[H]c1nc2c([H])c(N([H])C(=O)C([H])([H])C(F)(F)F)c([H])c(-c3c([H])c([H])c(C#N)c([H])c3[H])n2n1


 26 28  0  0  0  0  0  0  0  0999 V2000
   11.1082   22.3126    0.2280 C   0  0  0  0  0  0  0  0  0  0  0  0
   11.6032   23.1804   -0.7652 C   0  0  0  0  0  0  0  0  0  0  0  0
   12.9315   23.2600   -1.0075 C   0  0  0  0  0  0  0  0  0  0  0  0
   13.7812   22.5024   -0.2915 N   0  0  0  0  0  0  0  0  0  0  0  0
   15.1063   22.4300   -0.3696 N   0  0  0  0  0  0  0  0  0  0  0  0
   15.5174   21.5495    0.5303 C   0  0  0  0  0  0  0  0  0  0  0  0
   14.4454   21.0647    1.1787 N   0  0  0  0  0  0  0  0  0  0  0  0
   13.3727   21.6710    0.6520 C   0  0  0  0  0  0  0  0  0  0  0  0
   12.0122   21.5653    0.9260 C   0  0  0  0  0  0  0  0  0  0  0  0
   13.4597   24.1750   -2.0554 C   0  0  0  0  0  0  0  0  0  0  0  0
   14.5385   23.8225   -2.8366 C   0  0  0  0  0  0  0  0  0  0  0  0
   15.0472   24.6529   -3.8146 C   0  0  0  0  0  0  0  0  0  0  0  0
   14.4759   25.8881   -4.0423 C   0  0  0  0  0  0  0  0  0  0  0  0
   13.3955   26.2408   -3.2596 C   0  0  0  0  0  0  0  0  0  0  0  0
   12.8898   25.4086   -2.2834 C   0  0  0  0  0  0  0  0  0  0  0  0
   14.9871   26.7781   -5.0592 C   0  0  0  0  0  0  0  0  0  0  0  0
   15.3860   27.4949   -5.8754 N   0  0  0  0  0  0  0  0  0  0  0  0
    8.9995   22.9638    1.4113 C   0  0  0  0  0  0  0  0  0  0  0  0
    9.4448   23.7488    2.2421 O   0  0  0  0  0  0  0  0  0  0  0  0
    9.7257   22.2587    0.4392 N   0  0  0  0  0  0  0  0  0  0  0  0
    9.1630   21.6146   -0.2035 H   0  0  0  0  0  0  0  0  0  0  0  0
    7.4982   22.7347    1.4442 C   0  0  0  0  0  0  0  0  0  0  0  0
    8.2626   21.0463    2.9557 F   0  0  0  0  0  0  0  0  0  0  0  0
    7.1429   21.6900    2.4742 C   0  0  0  0  0  0  0  0  0  0  0  0
    6.3732   22.2193    3.4772 F   0  0  0  0  0  0  0  0  0  0  0  0
    6.3744   20.7081    1.8458 F   0  0  0  0  0  0  0  0  0  0  0  0
 23 24  1  0  0  0
 24 25  1  0  0  0
 24 26  1  0  0  0
 24 22  1  0  0  0
 22 18  1  0  0  0
 18 19  2  0  0  0
 18 20  1  0  0  0
 20  1  1  0  0  0
  1  2  1  0  0  0
  2  3  2  0  0  0
  3 10  1  0  0  0
 10 11  2  0  0  0
 11 12  1  0  0  0
 12 13  2  0  0  0
 13 14  1  0  0  0
 14 15  2  0  0  0
 13 16  1  0  0  0
 16 17  3  0  0  0
  3  4  1  0  0  0
  4  5  1  0  0  0
  5  6  2  0  0  0
  6  7  1  0  0  0
  7  8  2  0  0  0
  8  9  1  0  0  0
  9  1  2  0  0  0
 15 10  1  0  0  0
  8  4  1  0  0  0
 20 21  1  0  0  0
M  END
> <minimizedAffinity>
-7.41035

> <CNNscore>
0.4721072018

> <CNNaffinity>
6.8763322830

> <CNN_VS>
3.2463660240

> <CNNaffinity_variance>
0.4669086039

$$$$
[H]c1nc2c([H])c(N([H])[H])c([H])c(-c3c([H])c([H])c(C#N)c(F)c3C([H])([H])[H])n2n1


 22 24  0  0  0  0  0  0  0  0999 V2000
   13.2536   24.7839   -1.9604 C   0  0  0  0  0  0  0  0  0  0  0  0
   11.9076   24.5055   -1.8295 C   0  0  0  0  0  0  0  0  0  0  0  0
   11.3298   24.1054   -0.6671 C   0  0  0  0  0  0  0  0  0  0  0  0
    9.9448   23.8273   -0.5652 N   0  0  0  0  0  0  0  0  0  0  0  0
   12.1062   23.9608    0.4590 C   0  0  0  0  0  0  0  0  0  0  0  0
   13.4668   24.2424    0.3259 C   0  0  0  0  0  0  0  0  0  0  0  0
   14.4132   24.1737    1.2756 N   0  0  0  0  0  0  0  0  0  0  0  0
   15.5706   24.5315    0.6960 C   0  0  0  0  0  0  0  0  0  0  0  0
   15.2997   24.8077   -0.5866 N   0  0  0  0  0  0  0  0  0  0  0  0
   14.0152   24.6375   -0.8375 N   0  0  0  0  0  0  0  0  0  0  0  0
    9.3553   24.1100    0.2388 H   0  0  0  0  0  0  0  0  0  0  0  0
    9.5099   23.2984   -1.3708 H   0  0  0  0  0  0  0  0  0  0  0  0
   15.0414   23.0313   -3.2387 C   0  0  0  0  0  0  0  0  0  0  0  0
   14.7550   24.3582   -3.8460 C   0  0  0  0  0  0  0  0  0  0  0  0
   15.3271   24.7688   -5.0095 C   0  0  0  0  0  0  0  0  0  0  0  0
   16.1917   23.9209   -5.6273 F   0  0  0  0  0  0  0  0  0  0  0  0
   15.0424   26.0221   -5.5621 C   0  0  0  0  0  0  0  0  0  0  0  0
   14.1640   26.8816   -4.9329 C   0  0  0  0  0  0  0  0  0  0  0  0
   13.5834   26.4657   -3.7529 C   0  0  0  0  0  0  0  0  0  0  0  0
   13.8701   25.2114   -3.2026 C   0  0  0  0  0  0  0  0  0  0  0  0
   15.6738   26.4186   -6.8022 C   0  0  0  0  0  0  0  0  0  0  0  0
   16.1882   26.7255   -7.7995 N   0  0  0  0  0  0  0  0  0  0  0  0
 13 14  1  0  0  0
 14 15  2  0  0  0
 15 16  1  0  0  0
 15 17  1  0  0  0
 17 18  2  0  0  0
 18 19  1  0  0  0
 19 20  2  0  0  0
 20  1  1  0  0  0
  1  2  2  0  0  0
  2  3  1  0  0  0
  3  4  1  0  0  0
  3  5  2  0  0  0
  5  6  1  0  0  0
  6  7  2  0  0  0
  7  8  1  0  0  0
  8  9  2  0  0  0
  9 10  1  0  0  0
 17 21  1  0  0  0
 21 22  3  0  0  0
 20 14  1  0  0  0
 10  1  1  0  0  0
 10  6  1  0  0  0
  4 11  1  0  0  0
  4 12  1  0  0  0
M  END
> <minimizedAffinity>
-8.63873

> <CNNscore>
0.8130844831

> <CNNaffinity>
6.9996681213

> <CNN_VS>
5.6913213730

> <CNNaffinity_variance>
0.1769542247

$$$$
[H]c1nc2c([H])c(N([H])[H])c([H])c(-c3c([H])c([H])c(C#N)c(F)c3C([H])([H])[H])n2n1


 22 24  0  0  0  0  0  0  0  0999 V2000
   13.2305   22.7678   -1.4398 C   0  0  0  0  0  0  0  0  0  0  0  0
   11.9565   22.2447   -1.5373 C   0  0  0  0  0  0  0  0  0  0  0  0
   11.4690   21.2865   -0.7069 C   0  0  0  0  0  0  0  0  0  0  0  0
   10.1562   20.7701   -0.8332 N   0  0  0  0  0  0  0  0  0  0  0  0
   12.2684   20.7911    0.2966 C   0  0  0  0  0  0  0  0  0  0  0  0
   13.5563   21.3204    0.3945 C   0  0  0  0  0  0  0  0  0  0  0  0
   14.5082   20.9971    1.2844 N   0  0  0  0  0  0  0  0  0  0  0  0
   15.5786   21.7567    1.0001 C   0  0  0  0  0  0  0  0  0  0  0  0
   15.2518   22.5196   -0.0515 N   0  0  0  0  0  0  0  0  0  0  0  0
   14.0158   22.2697   -0.4409 N   0  0  0  0  0  0  0  0  0  0  0  0
    9.5329   20.5707   -0.0297 H   0  0  0  0  0  0  0  0  0  0  0  0
    9.8150   20.5855   -1.8167 H   0  0  0  0  0  0  0  0  0  0  0  0
   11.9848   25.2877   -1.4496 C   0  0  0  0  0  0  0  0  0  0  0  0
   13.1469   25.0407   -2.3441 C   0  0  0  0  0  0  0  0  0  0  0  0
   13.6422   25.9928   -3.1794 C   0  0  0  0  0  0  0  0  0  0  0  0
   13.0394   27.2113   -3.1838 F   0  0  0  0  0  0  0  0  0  0  0  0
   14.7369   25.7373   -4.0123 C   0  0  0  0  0  0  0  0  0  0  0  0
   15.3474   24.4991   -4.0061 C   0  0  0  0  0  0  0  0  0  0  0  0
   14.8457   23.5330   -3.1591 C   0  0  0  0  0  0  0  0  0  0  0  0
   13.7505   23.7915   -2.3271 C   0  0  0  0  0  0  0  0  0  0  0  0
   15.2313   26.7796   -4.8857 C   0  0  0  0  0  0  0  0  0  0  0  0
   15.6326   27.6250   -5.5769 N   0  0  0  0  0  0  0  0  0  0  0  0
 13 14  1  0  0  0
 14 15  2  0  0  0
 15 16  1  0  0  0
 15 17  1  0  0  0
 17 18  2  0  0  0
 18 19  1  0  0  0
 19 20  2  0  0  0
 20  1  1  0  0  0
  1  2  2  0  0  0
  2  3  1  0  0  0
  3  4  1  0  0  0
  3  5  2  0  0  0
  5  6  1  0  0  0
  6  7  2  0  0  0
  7  8  1  0  0  0
  8  9  2  0  0  0
  9 10  1  0  0  0
 17 21  1  0  0  0
 21 22  3  0  0  0
 20 14  1  0  0  0
 10  1  1  0  0  0
 10  6  1  0  0  0
  4 11  1  0  0  0
  4 12  1  0  0  0
M  END
> <minimizedAffinity>
-8.14787

> <CNNscore>
0.7141754627

> <CNNaffinity>
7.0915246010

> <CNN_VS>
5.0645928383

> <CNNaffinity_variance>
0.3598273396

$$$$
[H]c1nc2c([H])c(N([H])[H])c([H])c(-c3c([H])c([H])c(C#N)c(F)c3C([H])([H])[H])n2n1


 22 24  0  0  0  0  0  0  0  0999 V2000
   14.0715   22.8269   -1.3225 C   0  0  0  0  0  0  0  0  0  0  0  0
   15.0522   22.5274   -0.3979 C   0  0  0  0  0  0  0  0  0  0  0  0
   14.8834   21.6460    0.6219 C   0  0  0  0  0  0  0  0  0  0  0  0
   15.9099   21.3602    1.5549 N   0  0  0  0  0  0  0  0  0  0  0  0
   13.6770   21.0011    0.7653 C   0  0  0  0  0  0  0  0  0  0  0  0
   12.6861   21.3044   -0.1699 C   0  0  0  0  0  0  0  0  0  0  0  0
   11.4411   20.8061   -0.2335 N   0  0  0  0  0  0  0  0  0  0  0  0
   10.8469   21.3814   -1.2915 C   0  0  0  0  0  0  0  0  0  0  0  0
   11.7422   22.2119   -1.8424 N   0  0  0  0  0  0  0  0  0  0  0  0
   12.8784   22.1818   -1.1716 N   0  0  0  0  0  0  0  0  0  0  0  0
   16.1229   20.4095    1.9080 H   0  0  0  0  0  0  0  0  0  0  0  0
   16.4790   22.1833    1.8962 H   0  0  0  0  0  0  0  0  0  0  0  0
   12.6653   25.2593   -1.2353 C   0  0  0  0  0  0  0  0  0  0  0  0
   13.5658   24.9737   -2.3838 C   0  0  0  0  0  0  0  0  0  0  0  0
   13.7429   25.8489   -3.4096 C   0  0  0  0  0  0  0  0  0  0  0  0
   13.0625   27.0251   -3.3670 F   0  0  0  0  0  0  0  0  0  0  0  0
   14.5955   25.5583   -4.4800 C   0  0  0  0  0  0  0  0  0  0  0  0
   15.2854   24.3631   -4.5212 C   0  0  0  0  0  0  0  0  0  0  0  0
   15.1063   23.4751   -3.4811 C   0  0  0  0  0  0  0  0  0  0  0  0
   14.2527   23.7685   -2.4117 C   0  0  0  0  0  0  0  0  0  0  0  0
   14.7543   26.5186   -5.5507 C   0  0  0  0  0  0  0  0  0  0  0  0
   14.8956   27.2882   -6.4116 N   0  0  0  0  0  0  0  0  0  0  0  0
 13 14  1  0  0  0
 14 15  2  0  0  0
 15 16  1  0  0  0
 15 17  1  0  0  0
 17 18  2  0  0  0
 18 19  1  0  0  0
 19 20  2  0  0  0
 20  1  1  0  0  0
  1  2  2  0  0  0
  2  3  1  0  0  0
  3  4  1  0  0  0
  3  5  2  0  0  0
  5  6  1  0  0  0
  6  7  2  0  0  0
  7  8  1  0  0  0
  8  9  2  0  0  0
  9 10  1  0  0  0
 17 21  1  0  0  0
 21 22  3  0  0  0
 20 14  1  0  0  0
 10  1  1  0  0  0
 10  6  1  0  0  0
  4 11  1  0  0  0
  4 12  1  0  0  0
M  END
> <minimizedAffinity>
-9.02852

> <CNNscore>
0.6525790095

> <CNNaffinity>
6.9529662132

> <CNN_VS>
4.5373597145

> <CNNaffinity_variance>
0.0770180374

$$$$
[H]c1nc2c([H])c(N([H])[H])c([H])c(-c3c([H])c([H])c(C#N)c(F)c3C([H])([H])[H])n2n1


 22 24  0  0  0  0  0  0  0  0999 V2000
   12.7167   23.1710   -1.3308 C   0  0  0  0  0  0  0  0  0  0  0  0
   11.3972   22.7702   -1.4009 C   0  0  0  0  0  0  0  0  0  0  0  0
   10.8536   21.8211   -0.5954 C   0  0  0  0  0  0  0  0  0  0  0  0
    9.4953   21.4318   -0.6922 N   0  0  0  0  0  0  0  0  0  0  0  0
   11.6393   21.2079    0.3525 C   0  0  0  0  0  0  0  0  0  0  0  0
   12.9730   21.6136    0.4227 C   0  0  0  0  0  0  0  0  0  0  0  0
   13.9221   21.1635    1.2587 N   0  0  0  0  0  0  0  0  0  0  0  0
   15.0471   21.8362    0.9662 C   0  0  0  0  0  0  0  0  0  0  0  0
   14.7546   22.6751   -0.0365 N   0  0  0  0  0  0  0  0  0  0  0  0
   13.4878   22.5567   -0.3872 N   0  0  0  0  0  0  0  0  0  0  0  0
    8.8852   21.2510    0.1257 H   0  0  0  0  0  0  0  0  0  0  0  0
    9.1038   21.3262   -1.6687 H   0  0  0  0  0  0  0  0  0  0  0  0
   14.8396   22.4362   -3.0205 C   0  0  0  0  0  0  0  0  0  0  0  0
   14.3453   23.8388   -3.0315 C   0  0  0  0  0  0  0  0  0  0  0  0
   14.8816   24.7969   -3.8340 C   0  0  0  0  0  0  0  0  0  0  0  0
   15.9083   24.4411   -4.6510 F   0  0  0  0  0  0  0  0  0  0  0  0
   14.3999   26.1103   -3.8271 C   0  0  0  0  0  0  0  0  0  0  0  0
   13.3572   26.4694   -2.9966 C   0  0  0  0  0  0  0  0  0  0  0  0
   12.8128   25.4982   -2.1825 C   0  0  0  0  0  0  0  0  0  0  0  0
   13.2967   24.1851   -2.1916 C   0  0  0  0  0  0  0  0  0  0  0  0
   15.0001   27.0982   -4.6976 C   0  0  0  0  0  0  0  0  0  0  0  0
   15.4941   27.8921   -5.3898 N   0  0  0  0  0  0  0  0  0  0  0  0
 13 14  1  0  0  0
 14 15  2  0  0  0
 15 16  1  0  0  0
 15 17  1  0  0  0
 17 18  2  0  0  0
 18 19  1  0  0  0
 19 20  2  0  0  0
 20  1  1  0  0  0
  1  2  2  0  0  0
  2  3  1  0  0  0
  3  4  1  0  0  0
  3  5  2  0  0  0
  5  6  1  0  0  0
  6  7  2  0  0  0
  7  8  1  0  0  0
  8  9  2  0  0  0
  9 10  1  0  0  0
 17 21  1  0  0  0
 21 22  3  0  0  0
 20 14  1  0  0  0
 10  1  1  0  0  0
 10  6  1  0  0  0
  4 11  1  0  0  0
  4 12  1  0  0  0
M  END
> <minimizedAffinity>
-8.28624

> <CNNscore>
0.6268352270

> <CNNaffinity>
7.1158814430

> <CNN_VS>
4.4604849815

> <CNNaffinity_variance>
0.5657305717

$$$$
[H]c1nc2c([H])c(N([H])[H])c([H])c(-c3c([H])c([H])c(C#N)c(F)c3C([H])([H])[H])n2n1


 22 24  0  0  0  0  0  0  0  0999 V2000
   15.6239   25.7329   -2.5703 C   0  0  0  0  0  0  0  0  0  0  0  0
   16.9074   26.2410   -2.5410 C   0  0  0  0  0  0  0  0  0  0  0  0
   17.3470   27.2275   -3.3649 C   0  0  0  0  0  0  0  0  0  0  0  0
   18.6709   27.7275   -3.3101 N   0  0  0  0  0  0  0  0  0  0  0  0
   16.4858   27.7689   -4.2906 C   0  0  0  0  0  0  0  0  0  0  0  0
   15.1884   27.2548   -4.3195 C   0  0  0  0  0  0  0  0  0  0  0  0
   14.1810   27.6211   -5.1280 N   0  0  0  0  0  0  0  0  0  0  0  0
   13.1244   26.8597   -4.8000 C   0  0  0  0  0  0  0  0  0  0  0  0
   13.5146   26.0529   -3.8042 N   0  0  0  0  0  0  0  0  0  0  0  0
   14.7772   26.2767   -3.4921 N   0  0  0  0  0  0  0  0  0  0  0  0
   18.9141   28.7318   -3.3883 H   0  0  0  0  0  0  0  0  0  0  0  0
   19.4395   27.0130   -3.1809 H   0  0  0  0  0  0  0  0  0  0  0  0
   15.2156   23.1701   -3.6507 C   0  0  0  0  0  0  0  0  0  0  0  0
   14.9484   23.4085   -2.2073 C   0  0  0  0  0  0  0  0  0  0  0  0
   14.5089   22.4283   -1.3733 C   0  0  0  0  0  0  0  0  0  0  0  0
   14.3115   21.1890   -1.8963 F   0  0  0  0  0  0  0  0  0  0  0  0
   14.2642   22.6761   -0.0184 C   0  0  0  0  0  0  0  0  0  0  0  0
   14.4653   23.9354    0.5106 C   0  0  0  0  0  0  0  0  0  0  0  0
   14.9111   24.9300   -0.3347 C   0  0  0  0  0  0  0  0  0  0  0  0
   15.1551   24.6791   -1.6897 C   0  0  0  0  0  0  0  0  0  0  0  0
   13.7971   21.6036    0.8333 C   0  0  0  0  0  0  0  0  0  0  0  0
   13.4101   20.7485    1.5205 N   0  0  0  0  0  0  0  0  0  0  0  0
 13 14  1  0  0  0
 14 15  2  0  0  0
 15 16  1  0  0  0
 15 17  1  0  0  0
 17 18  2  0  0  0
 18 19  1  0  0  0
 19 20  2  0  0  0
 20  1  1  0  0  0
  1  2  2  0  0  0
  2  3  1  0  0  0
  3  4  1  0  0  0
  3  5  2  0  0  0
  5  6  1  0  0  0
  6  7  2  0  0  0
  7  8  1  0  0  0
  8  9  2  0  0  0
  9 10  1  0  0  0
 17 21  1  0  0  0
 21 22  3  0  0  0
 20 14  1  0  0  0
 10  1  1  0  0  0
 10  6  1  0  0  0
  4 11  1  0  0  0
  4 12  1  0  0  0
M  END
> <minimizedAffinity>
-6.30625

> <CNNscore>
0.5962543488

> <CNNaffinity>
6.8751935959

> <CNN_VS>
4.0993642807

> <CNNaffinity_variance>
0.3554314971

$$$$
[H]c1nc2c([H])c(N([H])[H])c([H])c(-c3c([H])c([H])c(C#N)c(F)c3C([H])([H])[H])n2n1


 22 24  0  0  0  0  0  0  0  0999 V2000
   14.2732   24.6245   -3.0371 C   0  0  0  0  0  0  0  0  0  0  0  0
   13.2841   25.3101   -2.3603 C   0  0  0  0  0  0  0  0  0  0  0  0
   12.8552   24.9801   -1.1143 C   0  0  0  0  0  0  0  0  0  0  0  0
   11.8376   25.7040   -0.4462 N   0  0  0  0  0  0  0  0  0  0  0  0
   13.4209   23.9065   -0.4669 C   0  0  0  0  0  0  0  0  0  0  0  0
   14.4207   23.2140   -1.1518 C   0  0  0  0  0  0  0  0  0  0  0  0
   15.1121   22.1440   -0.7280 N   0  0  0  0  0  0  0  0  0  0  0  0
   15.9644   21.8181   -1.7133 C   0  0  0  0  0  0  0  0  0  0  0  0
   15.7705   22.6948   -2.7075 N   0  0  0  0  0  0  0  0  0  0  0  0
   14.8281   23.5611   -2.3863 N   0  0  0  0  0  0  0  0  0  0  0  0
   11.8661   25.9473    0.5607 H   0  0  0  0  0  0  0  0  0  0  0  0
   11.0097   26.0028   -1.0321 H   0  0  0  0  0  0  0  0  0  0  0  0
   15.3686   27.1818   -3.4398 C   0  0  0  0  0  0  0  0  0  0  0  0
   15.2741   26.2362   -4.5836 C   0  0  0  0  0  0  0  0  0  0  0  0
   15.6999   26.5569   -5.8348 C   0  0  0  0  0  0  0  0  0  0  0  0
   16.2296   27.7937   -6.0291 F   0  0  0  0  0  0  0  0  0  0  0  0
   15.6007   25.6505   -6.8958 C   0  0  0  0  0  0  0  0  0  0  0  0
   15.0625   24.3949   -6.6962 C   0  0  0  0  0  0  0  0  0  0  0  0
   14.6304   24.0690   -5.4275 C   0  0  0  0  0  0  0  0  0  0  0  0
   14.7309   24.9777   -4.3681 C   0  0  0  0  0  0  0  0  0  0  0  0
   16.0663   26.0334   -8.2113 C   0  0  0  0  0  0  0  0  0  0  0  0
   16.4536   26.3401   -9.2645 N   0  0  0  0  0  0  0  0  0  0  0  0
 13 14  1  0  0  0
 14 15  2  0  0  0
 15 16  1  0  0  0
 15 17  1  0  0  0
 17 18  2  0  0  0
 18 19  1  0  0  0
 19 20  2  0  0  0
 20  1  1  0  0  0
  1  2  2  0  0  0
  2  3  1  0  0  0
  3  4  1  0  0  0
  3  5  2  0  0  0
  5  6  1  0  0  0
  6  7  2  0  0  0
  7  8  1  0  0  0
  8  9  2  0  0  0
  9 10  1  0  0  0
 17 21  1  0  0  0
 21 22  3  0  0  0
 20 14  1  0  0  0
 10  1  1  0  0  0
 10  6  1  0  0  0
  4 11  1  0  0  0
  4 12  1  0  0  0
M  END
> <minimizedAffinity>
5.99230

> <CNNscore>
0.5209840536

> <CNNaffinity>
6.3810420036

> <CNN_VS>
3.3244211674

> <CNNaffinity_variance>
0.7720366120

$$$$
[H]c1nc2c([H])c(N([H])[H])c([H])c(-c3c([H])c([H])c(C#N)c(F)c3C([H])([H])[H])n2n1


 22 24  0  0  0  0  0  0  0  0999 V2000
   14.0180   23.8785   -1.6283 C   0  0  0  0  0  0  0  0  0  0  0  0
   14.4796   22.5784   -1.6851 C   0  0  0  0  0  0  0  0  0  0  0  0
   14.0771   21.5974   -0.8361 C   0  0  0  0  0  0  0  0  0  0  0  0
   14.5699   20.2723   -0.9205 N   0  0  0  0  0  0  0  0  0  0  0  0
   13.1587   21.8878    0.1457 C   0  0  0  0  0  0  0  0  0  0  0  0
   12.6925   23.2023    0.2025 C   0  0  0  0  0  0  0  0  0  0  0  0
   11.8025   23.7181    1.0652 N   0  0  0  0  0  0  0  0  0  0  0  0
   11.6591   25.0145    0.7452 C   0  0  0  0  0  0  0  0  0  0  0  0
   12.4626   25.2533   -0.2998 N   0  0  0  0  0  0  0  0  0  0  0  0
   13.1071   24.1564   -0.6508 N   0  0  0  0  0  0  0  0  0  0  0  0
   13.9808   19.4273   -0.8073 H   0  0  0  0  0  0  0  0  0  0  0  0
   15.6044   20.1655   -1.1112 H   0  0  0  0  0  0  0  0  0  0  0  0
   16.5526   25.0292   -1.2368 C   0  0  0  0  0  0  0  0  0  0  0  0
   15.6966   25.5043   -2.3562 C   0  0  0  0  0  0  0  0  0  0  0  0
   16.0899   26.4850   -3.2123 C   0  0  0  0  0  0  0  0  0  0  0  0
   17.3158   27.0413   -3.0225 F   0  0  0  0  0  0  0  0  0  0  0  0
   15.2672   26.9158   -4.2586 C   0  0  0  0  0  0  0  0  0  0  0  0
   14.0227   26.3495   -4.4494 C   0  0  0  0  0  0  0  0  0  0  0  0
   13.6231   25.3547   -3.5815 C   0  0  0  0  0  0  0  0  0  0  0  0
   14.4483   24.9259   -2.5358 C   0  0  0  0  0  0  0  0  0  0  0  0
   15.7257   27.9626   -5.1463 C   0  0  0  0  0  0  0  0  0  0  0  0
   16.0820   28.8100   -5.8592 N   0  0  0  0  0  0  0  0  0  0  0  0
 13 14  1  0  0  0
 14 15  2  0  0  0
 15 16  1  0  0  0
 15 17  1  0  0  0
 17 18  2  0  0  0
 18 19  1  0  0  0
 19 20  2  0  0  0
 20  1  1  0  0  0
  1  2  2  0  0  0
  2  3  1  0  0  0
  3  4  1  0  0  0
  3  5  2  0  0  0
  5  6  1  0  0  0
  6  7  2  0  0  0
  7  8  1  0  0  0
  8  9  2  0  0  0
  9 10  1  0  0  0
 17 21  1  0  0  0
 21 22  3  0  0  0
 20 14  1  0  0  0
 10  1  1  0  0  0
 10  6  1  0  0  0
  4 11  1  0  0  0
  4 12  1  0  0  0
M  END
> <minimizedAffinity>
-8.11500

> <CNNscore>
0.5045655966

> <CNNaffinity>
6.8027153015

> <CNN_VS>
3.4324162006

> <CNNaffinity_variance>
0.2173554003

$$$$
[H]c1nc2c([H])c(N([H])[H])c([H])c(-c3c([H])c([H])c(C#N)c(F)c3C([H])([H])[H])n2n1


 22 24  0  0  0  0  0  0  0  0999 V2000
   13.2085   23.7366   -0.2856 C   0  0  0  0  0  0  0  0  0  0  0  0
   12.1041   24.1630    0.4248 C   0  0  0  0  0  0  0  0  0  0  0  0
   11.4920   23.4213    1.3843 C   0  0  0  0  0  0  0  0  0  0  0  0
   10.3597   23.8874    2.0959 N   0  0  0  0  0  0  0  0  0  0  0  0
   11.9791   22.1707    1.6853 C   0  0  0  0  0  0  0  0  0  0  0  0
   13.0957   21.7404    0.9666 C   0  0  0  0  0  0  0  0  0  0  0  0
   13.7423   20.5696    1.0833 N   0  0  0  0  0  0  0  0  0  0  0  0
   14.7502   20.5934    0.1961 C   0  0  0  0  0  0  0  0  0  0  0  0
   14.6911   21.7735   -0.4351 N   0  0  0  0  0  0  0  0  0  0  0  0
   13.6841   22.4946    0.0205 N   0  0  0  0  0  0  0  0  0  0  0  0
   10.2199   23.7527    3.1138 H   0  0  0  0  0  0  0  0  0  0  0  0
    9.6273   24.4007    1.5320 H   0  0  0  0  0  0  0  0  0  0  0  0
   11.6036   25.1014   -2.1465 C   0  0  0  0  0  0  0  0  0  0  0  0
   13.0840   25.2094   -2.2366 C   0  0  0  0  0  0  0  0  0  0  0  0
   13.7065   25.9496   -3.1926 C   0  0  0  0  0  0  0  0  0  0  0  0
   12.9299   26.6095   -4.0924 F   0  0  0  0  0  0  0  0  0  0  0  0
   15.1013   26.0363   -3.2577 C   0  0  0  0  0  0  0  0  0  0  0  0
   15.8880   25.3654   -2.3429 C   0  0  0  0  0  0  0  0  0  0  0  0
   15.2573   24.6145   -1.3729 C   0  0  0  0  0  0  0  0  0  0  0  0
   13.8619   24.5296   -1.3103 C   0  0  0  0  0  0  0  0  0  0  0  0
   15.7221   26.8356   -4.2919 C   0  0  0  0  0  0  0  0  0  0  0  0
   16.2233   27.4668   -5.1308 N   0  0  0  0  0  0  0  0  0  0  0  0
 13 14  1  0  0  0
 14 15  2  0  0  0
 15 16  1  0  0  0
 15 17  1  0  0  0
 17 18  2  0  0  0
 18 19  1  0  0  0
 19 20  2  0  0  0
 20  1  1  0  0  0
  1  2  2  0  0  0
  2  3  1  0  0  0
  3  4  1  0  0  0
  3  5  2  0  0  0
  5  6  1  0  0  0
  6  7  2  0  0  0
  7  8  1  0  0  0
  8  9  2  0  0  0
  9 10  1  0  0  0
 17 21  1  0  0  0
 21 22  3  0  0  0
 20 14  1  0  0  0
 10  1  1  0  0  0
 10  6  1  0  0  0
  4 11  1  0  0  0
  4 12  1  0  0  0
M  END
> <minimizedAffinity>
-7.74259

> <CNNscore>
0.4613044858

> <CNNaffinity>
6.6400709152

> <CNN_VS>
3.0630946159

> <CNNaffinity_variance>
0.2772961259

$$$$
[H]c1nc2c([H])c(N([H])[H])c([H])c(-c3c([H])c([H])c(C#N)c(F)c3C([H])([H])[H])n2n1


 22 24  0  0  0  0  0  0  0  0999 V2000
   13.5143   22.9002   -1.2641 C   0  0  0  0  0  0  0  0  0  0  0  0
   14.4443   22.3091   -0.4322 C   0  0  0  0  0  0  0  0  0  0  0  0
   14.1383   21.3507    0.4806 C   0  0  0  0  0  0  0  0  0  0  0  0
   15.1161   20.7634    1.3201 N   0  0  0  0  0  0  0  0  0  0  0  0
   12.8359   20.9264    0.6045 C   0  0  0  0  0  0  0  0  0  0  0  0
   11.8963   21.5245   -0.2369 C   0  0  0  0  0  0  0  0  0  0  0  0
   10.5782   21.2766   -0.2984 N   0  0  0  0  0  0  0  0  0  0  0  0
   10.0763   22.0824   -1.2484 C   0  0  0  0  0  0  0  0  0  0  0  0
   11.0980   22.7971   -1.7385 N   0  0  0  0  0  0  0  0  0  0  0  0
   12.2250   22.4724   -1.1334 N   0  0  0  0  0  0  0  0  0  0  0  0
   15.1545   19.7524    1.5447 H   0  0  0  0  0  0  0  0  0  0  0  0
   15.8393   21.4168    1.7299 H   0  0  0  0  0  0  0  0  0  0  0  0
   15.2811   22.2441   -3.3497 C   0  0  0  0  0  0  0  0  0  0  0  0
   14.7126   23.6162   -3.2746 C   0  0  0  0  0  0  0  0  0  0  0  0
   15.0130   24.5830   -4.1828 C   0  0  0  0  0  0  0  0  0  0  0  0
   15.8675   24.2652   -5.1913 F   0  0  0  0  0  0  0  0  0  0  0  0
   14.4658   25.8673   -4.0918 C   0  0  0  0  0  0  0  0  0  0  0  0
   13.5982   26.1878   -3.0668 C   0  0  0  0  0  0  0  0  0  0  0  0
   13.2931   25.2077   -2.1454 C   0  0  0  0  0  0  0  0  0  0  0  0
   13.8420   23.9239   -2.2390 C   0  0  0  0  0  0  0  0  0  0  0  0
   14.8128   26.8657   -5.0801 C   0  0  0  0  0  0  0  0  0  0  0  0
   15.0967   27.6584   -5.8828 N   0  0  0  0  0  0  0  0  0  0  0  0
 13 14  1  0  0  0
 14 15  2  0  0  0
 15 16  1  0  0  0
 15 17  1  0  0  0
 17 18  2  0  0  0
 18 19  1  0  0  0
 19 20  2  0  0  0
 20  1  1  0  0  0
  1  2  2  0  0  0
  2  3  1  0  0  0
  3  4  1  0  0  0
  3  5  2  0  0  0
  5  6  1  0  0  0
  6  7  2  0  0  0
  7  8  1  0  0  0
  8  9  2  0  0  0
  9 10  1  0  0  0
 17 21  1  0  0  0
 21 22  3  0  0  0
 20 14  1  0  0  0
 10  1  1  0  0  0
 10  6  1  0  0  0
  4 11  1  0  0  0
  4 12  1  0  0  0
M  END
> <minimizedAffinity>
-7.78800

> <CNNscore>
0.4422262907

> <CNNaffinity>
6.7400350571

> <CNN_VS>
2.9806206226

> <CNNaffinity_variance>
0.0981699601

$$$$
[H]OC(=O)c1sc(-c2c([H])c([H])c(N3C(=O)N(c4nc([H])nc(OC([H])([H])[H])c4[H])C4(C3=O)C([H])([H])C([H])([H])N(C([H])([H])c3nc([H])c([H])c([H])c3C([H])([H])[H])C([H])([H])C4([H])[H])c([H])c2[H])c([H])c1[H]


 43 48  0  0  0  0  0  0  0  0999 V2000
   14.3692   22.3595   -0.2744 N   0  0  0  0  0  0  0  0  0  0  0  0
   15.0690   23.3145   -1.1056 C   0  0  0  0  0  0  0  0  0  0  0  0
   16.3067   23.4477   -1.1627 O   0  0  0  0  0  0  0  0  0  0  0  0
   14.1352   24.0802   -1.8487 N   0  0  0  0  0  0  0  0  0  0  0  0
   12.8491   23.5851   -1.4661 C   0  0  0  0  0  0  0  0  0  0  0  0
   11.7783   23.8337   -2.0611 O   0  0  0  0  0  0  0  0  0  0  0  0
   12.9873   22.7325   -0.2553 C   0  0  0  0  0  0  0  0  0  0  0  0
   12.7423   23.5856    0.9789 C   0  0  0  0  0  0  0  0  0  0  0  0
   11.2862   23.7253    1.2746 C   0  0  0  0  0  0  0  0  0  0  0  0
   10.6460   22.4693    1.6789 N   0  0  0  0  0  0  0  0  0  0  0  0
   11.4997   21.4215    1.2123 C   0  0  0  0  0  0  0  0  0  0  0  0
   12.0009   21.6211   -0.2222 C   0  0  0  0  0  0  0  0  0  0  0  0
   15.7842   19.0031    0.4277 C   0  0  0  0  0  0  0  0  0  0  0  0
   15.1347   20.0547   -0.2232 C   0  0  0  0  0  0  0  0  0  0  0  0
   15.0206   21.2839    0.3733 C   0  0  0  0  0  0  0  0  0  0  0  0
   15.5439   21.4561    1.5885 N   0  0  0  0  0  0  0  0  0  0  0  0
   16.1826   20.4344    2.2365 C   0  0  0  0  0  0  0  0  0  0  0  0
   16.2908   19.2317    1.6480 N   0  0  0  0  0  0  0  0  0  0  0  0
   17.0442   17.0346   -0.3252 C   0  0  0  0  0  0  0  0  0  0  0  0
   15.8652   17.7967   -0.2211 O   0  0  0  0  0  0  0  0  0  0  0  0
   14.3973   25.1403   -2.7872 C   0  0  0  0  0  0  0  0  0  0  0  0
   13.3929   25.9230   -3.3319 C   0  0  0  0  0  0  0  0  0  0  0  0
   13.6783   26.9520   -4.2352 C   0  0  0  0  0  0  0  0  0  0  0  0
   14.9766   27.1928   -4.5900 C   0  0  0  0  0  0  0  0  0  0  0  0
   15.9847   26.4221   -4.0567 C   0  0  0  0  0  0  0  0  0  0  0  0
   15.6940   25.3971   -3.1560 C   0  0  0  0  0  0  0  0  0  0  0  0
   15.3486   28.2608   -5.5248 C   0  0  0  0  0  0  0  0  0  0  0  0
   15.9972   28.1358   -6.7296 C   0  0  0  0  0  0  0  0  0  0  0  0
   16.2336   29.2576   -7.4223 C   0  0  0  0  0  0  0  0  0  0  0  0
   15.8127   30.4433   -6.8813 C   0  0  0  0  0  0  0  0  0  0  0  0
   15.0961   29.9439   -5.4100 S   0  0  0  0  0  0  0  0  0  0  0  0
   15.9482   31.7827   -7.4382 C   0  0  0  0  0  0  0  0  0  0  0  0
   17.1870   32.3535   -7.5456 O   0  0  0  0  0  0  0  0  0  0  0  0
   14.9332   32.3907   -7.8100 O   0  0  0  0  0  0  0  0  0  0  0  0
   17.7316   32.3671   -8.4226 H   0  0  0  0  0  0  0  0  0  0  0  0
    9.2890   22.4423    1.2108 C   0  0  0  0  0  0  0  0  0  0  0  0
    8.2437   22.1559    2.1800 C   0  0  0  0  0  0  0  0  0  0  0  0
    7.8097   20.9105    2.3874 N   0  0  0  0  0  0  0  0  0  0  0  0
    6.8464   20.6411    3.2960 C   0  0  0  0  0  0  0  0  0  0  0  0
    6.3031   21.6730    4.0226 C   0  0  0  0  0  0  0  0  0  0  0  0
    6.7425   22.9621    3.8186 C   0  0  0  0  0  0  0  0  0  0  0  0
    7.7151   23.2213    2.8982 C   0  0  0  0  0  0  0  0  0  0  0  0
    8.2202   24.5707    2.6479 C   0  0  0  0  0  0  0  0  0  0  0  0
 19 20  1  0  0  0
 20 13  1  0  0  0
 13 14  2  0  0  0
 14 15  1  0  0  0
 15 16  2  0  0  0
 16 17  1  0  0  0
 17 18  2  0  0  0
 15  1  1  0  0  0
  1  2  1  0  0  0
  2  3  2  0  0  0
  2  4  1  0  0  0
  4  5  1  0  0  0
  5  6  2  0  0  0
  5  7  1  0  0  0
  7  8  1  0  0  0
  8  9  1  0  0  0
  9 10  1  0  0  0
 10 36  1  0  0  0
 36 37  1  0  0  0
 37 38  2  0  0  0
 38 39  1  0  0  0
 39 40  2  0  0  0
 40 41  1  0  0  0
 41 42  2  0  0  0
 42 43  1  0  0  0
 10 11  1  0  0  0
 11 12  1  0  0  0
  4 21  1  0  0  0
 21 22  2  0  0  0
 22 23  1  0  0  0
 23 24  2  0  0  0
 24 25  1  0  0  0
 25 26  2  0  0  0
 24 27  1  0  0  0
 27 28  2  0  0  0
 28 29  1  0  0  0
 29 30  2  0  0  0
 30 31  1  0  0  0
 30 32  1  0  0  0
 32 33  1  0  0  0
 32 34  2  0  0  0
 18 13  1  0  0  0
  7  1  1  0  0  0
 12  7  1  0  0  0
 26 21  1  0  0  0
 31 27  1  0  0  0
 42 37  1  0  0  0
 33 35  1  0  0  0
M  END
> <minimizedAffinity>
29.87216

> <CNNscore>
0.5582706928

> <CNNaffinity>
7.5572814941

> <CNN_VS>
4.2190089226

> <CNNaffinity_variance>
0.2498263121

$$$$
[H]OC(=O)c1sc(-c2c([H])c([H])c(N3C(=O)N(c4nc([H])nc(OC([H])([H])[H])c4[H])C4(C3=O)C([H])([H])C([H])([H])N(C([H])([H])c3nc([H])c([H])c([H])c3C([H])([H])[H])C([H])([H])C4([H])[H])c([H])c2[H])c([H])c1[H]


 43 48  0  0  0  0  0  0  0  0999 V2000
   15.5466   23.9410   -0.5172 N   0  0  0  0  0  0  0  0  0  0  0  0
   15.9454   25.1328   -1.2335 C   0  0  0  0  0  0  0  0  0  0  0  0
   16.8567   25.9093   -0.8873 O   0  0  0  0  0  0  0  0  0  0  0  0
   15.1433   25.2883   -2.3923 N   0  0  0  0  0  0  0  0  0  0  0  0
   14.2440   24.1763   -2.3828 C   0  0  0  0  0  0  0  0  0  0  0  0
   13.5331   23.8200   -3.3472 O   0  0  0  0  0  0  0  0  0  0  0  0
   14.2887   23.5151   -1.0513 C   0  0  0  0  0  0  0  0  0  0  0  0
   13.1835   24.0882   -0.1789 C   0  0  0  0  0  0  0  0  0  0  0  0
   11.8733   23.4221   -0.4373 C   0  0  0  0  0  0  0  0  0  0  0  0
   11.8403   22.0135   -0.0302 N   0  0  0  0  0  0  0  0  0  0  0  0
   13.2043   21.5924    0.0501 C   0  0  0  0  0  0  0  0  0  0  0  0
   14.0655   22.0479   -1.1330 C   0  0  0  0  0  0  0  0  0  0  0  0
   18.2234   23.4082    1.9951 C   0  0  0  0  0  0  0  0  0  0  0  0
   17.4693   23.9788    0.9669 C   0  0  0  0  0  0  0  0  0  0  0  0
   16.3229   23.3738    0.5204 C   0  0  0  0  0  0  0  0  0  0  0  0
   15.9409   22.2287    1.0888 N   0  0  0  0  0  0  0  0  0  0  0  0
   16.6705   21.6597    2.0966 C   0  0  0  0  0  0  0  0  0  0  0  0
   17.7934   22.2561    2.5298 N   0  0  0  0  0  0  0  0  0  0  0  0
   19.7244   24.2569    3.7433 C   0  0  0  0  0  0  0  0  0  0  0  0
   19.3612   24.0612    2.3974 O   0  0  0  0  0  0  0  0  0  0  0  0
   15.1954   26.3357   -3.3789 C   0  0  0  0  0  0  0  0  0  0  0  0
   14.3553   26.3697   -4.4795 C   0  0  0  0  0  0  0  0  0  0  0  0
   14.4230   27.4049   -5.4177 C   0  0  0  0  0  0  0  0  0  0  0  0
   15.3377   28.4067   -5.2468 C   0  0  0  0  0  0  0  0  0  0  0  0
   16.1792   28.3851   -4.1579 C   0  0  0  0  0  0  0  0  0  0  0  0
   16.1070   27.3499   -3.2253 C   0  0  0  0  0  0  0  0  0  0  0  0
   15.4576   29.5273   -6.1865 C   0  0  0  0  0  0  0  0  0  0  0  0
   16.4006   29.7028   -7.1703 C   0  0  0  0  0  0  0  0  0  0  0  0
   16.3142   30.8113   -7.9170 C   0  0  0  0  0  0  0  0  0  0  0  0
   15.2954   31.6859   -7.6469 C   0  0  0  0  0  0  0  0  0  0  0  0
   14.4880   30.9216   -6.3463 S   0  0  0  0  0  0  0  0  0  0  0  0
   14.9917   32.9445   -8.3147 C   0  0  0  0  0  0  0  0  0  0  0  0
   15.9176   33.9517   -8.3234 O   0  0  0  0  0  0  0  0  0  0  0  0
   13.8919   33.0867   -8.8700 O   0  0  0  0  0  0  0  0  0  0  0  0
   16.5440   34.1401   -9.1222 H   0  0  0  0  0  0  0  0  0  0  0  0
   10.9945   21.2695   -0.9205 C   0  0  0  0  0  0  0  0  0  0  0  0
    9.6491   20.9523   -0.4695 C   0  0  0  0  0  0  0  0  0  0  0  0
    9.1195   19.7414   -0.6587 N   0  0  0  0  0  0  0  0  0  0  0  0
    7.8736   19.4415   -0.2300 C   0  0  0  0  0  0  0  0  0  0  0  0
    7.1370   20.4049    0.4157 C   0  0  0  0  0  0  0  0  0  0  0  0
    7.6720   21.6577    0.6177 C   0  0  0  0  0  0  0  0  0  0  0  0
    8.9306   21.9484    0.1797 C   0  0  0  0  0  0  0  0  0  0  0  0
    9.5464   23.2606    0.3742 C   0  0  0  0  0  0  0  0  0  0  0  0
 19 20  1  0  0  0
 20 13  1  0  0  0
 13 14  2  0  0  0
 14 15  1  0  0  0
 15 16  2  0  0  0
 16 17  1  0  0  0
 17 18  2  0  0  0
 15  1  1  0  0  0
  1  2  1  0  0  0
  2  3  2  0  0  0
  2  4  1  0  0  0
  4  5  1  0  0  0
  5  6  2  0  0  0
  5  7  1  0  0  0
  7  8  1  0  0  0
  8  9  1  0  0  0
  9 10  1  0  0  0
 10 36  1  0  0  0
 36 37  1  0  0  0
 37 38  2  0  0  0
 38 39  1  0  0  0
 39 40  2  0  0  0
 40 41  1  0  0  0
 41 42  2  0  0  0
 42 43  1  0  0  0
 10 11  1  0  0  0
 11 12  1  0  0  0
  4 21  1  0  0  0
 21 22  2  0  0  0
 22 23  1  0  0  0
 23 24  2  0  0  0
 24 25  1  0  0  0
 25 26  2  0  0  0
 24 27  1  0  0  0
 27 28  2  0  0  0
 28 29  1  0  0  0
 29 30  2  0  0  0
 30 31  1  0  0  0
 30 32  1  0  0  0
 32 33  1  0  0  0
 32 34  2  0  0  0
 18 13  1  0  0  0
  7  1  1  0  0  0
 12  7  1  0  0  0
 26 21  1  0  0  0
 31 27  1  0  0  0
 42 37  1  0  0  0
 33 35  1  0  0  0
M  END
> <minimizedAffinity>
38.12687

> <CNNscore>
0.5574963093

> <CNNaffinity>
7.6862516403

> <CNN_VS>
4.2850570679

> <CNNaffinity_variance>
0.2342073917

$$$$
[H]OC(=O)c1sc(-c2c([H])c([H])c(N3C(=O)N(c4nc([H])nc(OC([H])([H])[H])c4[H])C4(C3=O)C([H])([H])C([H])([H])N(C([H])([H])c3nc([H])c([H])c([H])c3C([H])([H])[H])C([H])([H])C4([H])[H])c([H])c2[H])c([H])c1[H]


 43 48  0  0  0  0  0  0  0  0999 V2000
   12.6216   25.0954   -2.1101 N   0  0  0  0  0  0  0  0  0  0  0  0
   11.2676   24.7693   -1.7190 C   0  0  0  0  0  0  0  0  0  0  0  0
   10.2451   25.3769   -2.0910 O   0  0  0  0  0  0  0  0  0  0  0  0
   11.2752   23.6520   -0.8461 N   0  0  0  0  0  0  0  0  0  0  0  0
   12.6519   23.2916   -0.7036 C   0  0  0  0  0  0  0  0  0  0  0  0
   13.0660   22.2227   -0.2054 O   0  0  0  0  0  0  0  0  0  0  0  0
   13.5073   24.3841   -1.2390 C   0  0  0  0  0  0  0  0  0  0  0  0
   13.8966   25.3099   -0.0978 C   0  0  0  0  0  0  0  0  0  0  0  0
   15.0750   24.7919    0.6573 C   0  0  0  0  0  0  0  0  0  0  0  0
   16.3160   24.7844   -0.1242 N   0  0  0  0  0  0  0  0  0  0  0  0
   15.9198   24.8302   -1.4972 C   0  0  0  0  0  0  0  0  0  0  0  0
   14.7683   23.8799   -1.8433 C   0  0  0  0  0  0  0  0  0  0  0  0
   14.0352   26.4906   -5.2432 C   0  0  0  0  0  0  0  0  0  0  0  0
   13.7516   25.6076   -4.1986 C   0  0  0  0  0  0  0  0  0  0  0  0
   12.9213   25.9795   -3.1728 C   0  0  0  0  0  0  0  0  0  0  0  0
   12.3882   27.2024   -3.1930 N   0  0  0  0  0  0  0  0  0  0  0  0
   12.6577   28.0766   -4.2103 C   0  0  0  0  0  0  0  0  0  0  0  0
   13.4727   27.7075   -5.2124 N   0  0  0  0  0  0  0  0  0  0  0  0
   16.2299   25.7360   -6.0450 C   0  0  0  0  0  0  0  0  0  0  0  0
   14.8739   26.0600   -6.2401 O   0  0  0  0  0  0  0  0  0  0  0  0
   10.1536   23.0043   -0.2169 C   0  0  0  0  0  0  0  0  0  0  0  0
    9.3440   23.6415    0.7087 C   0  0  0  0  0  0  0  0  0  0  0  0
    8.2557   22.9895    1.2976 C   0  0  0  0  0  0  0  0  0  0  0  0
    7.9826   21.6947    0.9534 C   0  0  0  0  0  0  0  0  0  0  0  0
    8.7794   21.0493    0.0353 C   0  0  0  0  0  0  0  0  0  0  0  0
    9.8636   21.7047   -0.5489 C   0  0  0  0  0  0  0  0  0  0  0  0
    6.8525   20.9535    1.5249 C   0  0  0  0  0  0  0  0  0  0  0  0
    5.6837   20.5894    0.9010 C   0  0  0  0  0  0  0  0  0  0  0  0
    4.7846   19.9088    1.6237 C   0  0  0  0  0  0  0  0  0  0  0  0
    5.0949   19.6259    2.9274 C   0  0  0  0  0  0  0  0  0  0  0  0
    6.6456   20.3285    3.0985 S   0  0  0  0  0  0  0  0  0  0  0  0
    4.2922   18.9030    3.9049 C   0  0  0  0  0  0  0  0  0  0  0  0
    3.9411   19.5094    5.0800 O   0  0  0  0  0  0  0  0  0  0  0  0
    3.9355   17.7413    3.6571 O   0  0  0  0  0  0  0  0  0  0  0  0
    3.0194   19.9463    5.2401 H   0  0  0  0  0  0  0  0  0  0  0  0
   17.1308   23.6691    0.2677 C   0  0  0  0  0  0  0  0  0  0  0  0
   16.4646   22.4050    0.5368 C   0  0  0  0  0  0  0  0  0  0  0  0
   16.3569   21.9260    1.7782 N   0  0  0  0  0  0  0  0  0  0  0  0
   15.7280   20.7570    2.0314 C   0  0  0  0  0  0  0  0  0  0  0  0
   15.1870   20.0472    0.9867 C   0  0  0  0  0  0  0  0  0  0  0  0
   15.2908   20.5307   -0.2986 C   0  0  0  0  0  0  0  0  0  0  0  0
   15.9285   21.7117   -0.5412 C   0  0  0  0  0  0  0  0  0  0  0  0
   16.0607   22.2712   -1.8860 C   0  0  0  0  0  0  0  0  0  0  0  0
 19 20  1  0  0  0
 20 13  1  0  0  0
 13 14  2  0  0  0
 14 15  1  0  0  0
 15 16  2  0  0  0
 16 17  1  0  0  0
 17 18  2  0  0  0
 15  1  1  0  0  0
  1  2  1  0  0  0
  2  3  2  0  0  0
  2  4  1  0  0  0
  4  5  1  0  0  0
  5  6  2  0  0  0
  5  7  1  0  0  0
  7  8  1  0  0  0
  8  9  1  0  0  0
  9 10  1  0  0  0
 10 36  1  0  0  0
 36 37  1  0  0  0
 37 38  2  0  0  0
 38 39  1  0  0  0
 39 40  2  0  0  0
 40 41  1  0  0  0
 41 42  2  0  0  0
 42 43  1  0  0  0
 10 11  1  0  0  0
 11 12  1  0  0  0
  4 21  1  0  0  0
 21 22  2  0  0  0
 22 23  1  0  0  0
 23 24  2  0  0  0
 24 25  1  0  0  0
 25 26  2  0  0  0
 24 27  1  0  0  0
 27 28  2  0  0  0
 28 29  1  0  0  0
 29 30  2  0  0  0
 30 31  1  0  0  0
 30 32  1  0  0  0
 32 33  1  0  0  0
 32 34  2  0  0  0
 18 13  1  0  0  0
  7  1  1  0  0  0
 12  7  1  0  0  0
 26 21  1  0  0  0
 31 27  1  0  0  0
 42 37  1  0  0  0
 33 35  1  0  0  0
M  END
> <minimizedAffinity>
7.45747

> <CNNscore>
0.5527130961

> <CNNaffinity>
7.8433127403

> <CNN_VS>
4.3351016045

> <CNNaffinity_variance>
0.7929530144

$$$$
[H]OC(=O)c1sc(-c2c([H])c([H])c(N3C(=O)N(c4nc([H])nc(OC([H])([H])[H])c4[H])C4(C3=O)C([H])([H])C([H])([H])N(C([H])([H])c3nc([H])c([H])c([H])c3C([H])([H])[H])C([H])([H])C4([H])[H])c([H])c2[H])c([H])c1[H]


 43 48  0  0  0  0  0  0  0  0999 V2000
   14.7057   22.9909   -0.4842 N   0  0  0  0  0  0  0  0  0  0  0  0
   15.4980   23.6829   -1.4772 C   0  0  0  0  0  0  0  0  0  0  0  0
   16.7400   23.6357   -1.5672 O   0  0  0  0  0  0  0  0  0  0  0  0
   14.6497   24.4263   -2.3364 N   0  0  0  0  0  0  0  0  0  0  0  0
   13.3226   24.1838   -1.8615 C   0  0  0  0  0  0  0  0  0  0  0  0
   12.2753   24.4672   -2.4821 O   0  0  0  0  0  0  0  0  0  0  0  0
   13.3862   23.5447   -0.5200 C   0  0  0  0  0  0  0  0  0  0  0  0
   13.2951   24.6251    0.5456 C   0  0  0  0  0  0  0  0  0  0  0  0
   11.8803   25.0096    0.8240 C   0  0  0  0  0  0  0  0  0  0  0  0
   11.0938   23.9415    1.4497 N   0  0  0  0  0  0  0  0  0  0  0  0
   11.7869   22.7228    1.1690 C   0  0  0  0  0  0  0  0  0  0  0  0
   12.2638   22.5997   -0.2823 C   0  0  0  0  0  0  0  0  0  0  0  0
   15.7589   19.6570    0.7554 C   0  0  0  0  0  0  0  0  0  0  0  0
   15.2337   20.6569   -0.0667 C   0  0  0  0  0  0  0  0  0  0  0  0
   15.2305   21.9668    0.3383 C   0  0  0  0  0  0  0  0  0  0  0  0
   15.7406   22.2678    1.5339 N   0  0  0  0  0  0  0  0  0  0  0  0
   16.2581   21.2980    2.3484 C   0  0  0  0  0  0  0  0  0  0  0  0
   16.2580   20.0160    1.9472 N   0  0  0  0  0  0  0  0  0  0  0  0
   16.8568   17.6851   -0.2118 C   0  0  0  0  0  0  0  0  0  0  0  0
   15.7327   18.3650    0.2942 O   0  0  0  0  0  0  0  0  0  0  0  0
   15.0187   25.2612   -3.4499 C   0  0  0  0  0  0  0  0  0  0  0  0
   15.0009   24.8124   -4.7601 C   0  0  0  0  0  0  0  0  0  0  0  0
   15.3566   25.6491   -5.8230 C   0  0  0  0  0  0  0  0  0  0  0  0
   15.7301   26.9390   -5.5658 C   0  0  0  0  0  0  0  0  0  0  0  0
   15.7528   27.3979   -4.2684 C   0  0  0  0  0  0  0  0  0  0  0  0
   15.3970   26.5588   -3.2122 C   0  0  0  0  0  0  0  0  0  0  0  0
   16.1070   27.8734   -6.6326 C   0  0  0  0  0  0  0  0  0  0  0  0
   16.0224   29.2447   -6.6182 C   0  0  0  0  0  0  0  0  0  0  0  0
   16.4287   29.8994   -7.7137 C   0  0  0  0  0  0  0  0  0  0  0  0
   16.8977   29.1569   -8.7647 C   0  0  0  0  0  0  0  0  0  0  0  0
   16.7517   27.5558   -8.1796 S   0  0  0  0  0  0  0  0  0  0  0  0
   17.3951   29.6324  -10.0488 C   0  0  0  0  0  0  0  0  0  0  0  0
   18.7256   29.9118  -10.2028 O   0  0  0  0  0  0  0  0  0  0  0  0
   16.6014   29.7779  -10.9907 O   0  0  0  0  0  0  0  0  0  0  0  0
   19.3963   29.2580  -10.6370 H   0  0  0  0  0  0  0  0  0  0  0  0
    9.7307   24.0169    1.0050 C   0  0  0  0  0  0  0  0  0  0  0  0
    8.7046   23.4548    1.8683 C   0  0  0  0  0  0  0  0  0  0  0  0
    8.3059   24.0845    2.9760 N   0  0  0  0  0  0  0  0  0  0  0  0
    7.3444   23.5691    3.7733 C   0  0  0  0  0  0  0  0  0  0  0  0
    6.7641   22.3706    3.4346 C   0  0  0  0  0  0  0  0  0  0  0  0
    7.1659   21.7114    2.2942 C   0  0  0  0  0  0  0  0  0  0  0  0
    8.1380   22.2416    1.4978 C   0  0  0  0  0  0  0  0  0  0  0  0
    8.5960   21.5847    0.2741 C   0  0  0  0  0  0  0  0  0  0  0  0
 19 20  1  0  0  0
 20 13  1  0  0  0
 13 14  2  0  0  0
 14 15  1  0  0  0
 15 16  2  0  0  0
 16 17  1  0  0  0
 17 18  2  0  0  0
 15  1  1  0  0  0
  1  2  1  0  0  0
  2  3  2  0  0  0
  2  4  1  0  0  0
  4  5  1  0  0  0
  5  6  2  0  0  0
  5  7  1  0  0  0
  7  8  1  0  0  0
  8  9  1  0  0  0
  9 10  1  0  0  0
 10 36  1  0  0  0
 36 37  1  0  0  0
 37 38  2  0  0  0
 38 39  1  0  0  0
 39 40  2  0  0  0
 40 41  1  0  0  0
 41 42  2  0  0  0
 42 43  1  0  0  0
 10 11  1  0  0  0
 11 12  1  0  0  0
  4 21  1  0  0  0
 21 22  2  0  0  0
 22 23  1  0  0  0
 23 24  2  0  0  0
 24 25  1  0  0  0
 25 26  2  0  0  0
 24 27  1  0  0  0
 27 28  2  0  0  0
 28 29  1  0  0  0
 29 30  2  0  0  0
 30 31  1  0  0  0
 30 32  1  0  0  0
 32 33  1  0  0  0
 32 34  2  0  0  0
 18 13  1  0  0  0
  7  1  1  0  0  0
 12  7  1  0  0  0
 26 21  1  0  0  0
 31 27  1  0  0  0
 42 37  1  0  0  0
 33 35  1  0  0  0
M  END
> <minimizedAffinity>
30.33417

> <CNNscore>
0.5438097119

> <CNNaffinity>
7.6601896286

> <CNN_VS>
4.1656856537

> <CNNaffinity_variance>
0.2622434497

$$$$
[H]OC(=O)c1sc(-c2c([H])c([H])c(N3C(=O)N(c4nc([H])nc(OC([H])([H])[H])c4[H])C4(C3=O)C([H])([H])C([H])([H])N(C([H])([H])c3nc([H])c([H])c([H])c3C([H])([H])[H])C([H])([H])C4([H])[H])c([H])c2[H])c([H])c1[H]


 43 48  0  0  0  0  0  0  0  0999 V2000
   14.1579   22.5905   -0.3908 N   0  0  0  0  0  0  0  0  0  0  0  0
   14.9375   23.5352   -1.1606 C   0  0  0  0  0  0  0  0  0  0  0  0
   16.1688   23.7004   -1.0629 O   0  0  0  0  0  0  0  0  0  0  0  0
   14.0906   24.2488   -2.0460 N   0  0  0  0  0  0  0  0  0  0  0  0
   12.7775   23.7318   -1.8137 C   0  0  0  0  0  0  0  0  0  0  0  0
   11.7874   23.9302   -2.5504 O   0  0  0  0  0  0  0  0  0  0  0  0
   12.7770   22.9257   -0.5638 C   0  0  0  0  0  0  0  0  0  0  0  0
   12.3547   23.8138    0.5955 C   0  0  0  0  0  0  0  0  0  0  0  0
   10.8698   23.9234    0.6959 C   0  0  0  0  0  0  0  0  0  0  0  0
   10.2116   22.6649    1.0617 N   0  0  0  0  0  0  0  0  0  0  0  0
   11.1423   21.6256    0.7487 C   0  0  0  0  0  0  0  0  0  0  0  0
   11.8204   21.7894   -0.6159 C   0  0  0  0  0  0  0  0  0  0  0  0
   15.3259   19.2456    0.7085 C   0  0  0  0  0  0  0  0  0  0  0  0
   14.7392   20.2556   -0.0579 C   0  0  0  0  0  0  0  0  0  0  0  0
   14.7444   21.5563    0.3755 C   0  0  0  0  0  0  0  0  0  0  0  0
   15.3225   21.8386    1.5444 N   0  0  0  0  0  0  0  0  0  0  0  0
   15.9006   20.8588    2.3043 C   0  0  0  0  0  0  0  0  0  0  0  0
   15.8920   19.5858    1.8755 N   0  0  0  0  0  0  0  0  0  0  0  0
   16.3817   17.3169   -0.3844 C   0  0  0  0  0  0  0  0  0  0  0  0
   15.2877   17.9635    0.2212 O   0  0  0  0  0  0  0  0  0  0  0  0
   14.4477   25.2826   -2.9824 C   0  0  0  0  0  0  0  0  0  0  0  0
   14.7799   25.0166   -4.3004 C   0  0  0  0  0  0  0  0  0  0  0  0
   15.1146   26.0426   -5.1901 C   0  0  0  0  0  0  0  0  0  0  0  0
   15.1144   27.3377   -4.7517 C   0  0  0  0  0  0  0  0  0  0  0  0
   14.7868   27.6163   -3.4442 C   0  0  0  0  0  0  0  0  0  0  0  0
   14.4538   26.5888   -2.5613 C   0  0  0  0  0  0  0  0  0  0  0  0
   15.4465   28.4634   -5.6324 C   0  0  0  0  0  0  0  0  0  0  0  0
   16.3499   28.4834   -6.6675 C   0  0  0  0  0  0  0  0  0  0  0  0
   16.4895   29.6318   -7.3424 C   0  0  0  0  0  0  0  0  0  0  0  0
   15.7240   30.6988   -6.9533 C   0  0  0  0  0  0  0  0  0  0  0  0
   14.8291   30.0535   -5.6455 S   0  0  0  0  0  0  0  0  0  0  0  0
   15.6927   32.0379   -7.5261 C   0  0  0  0  0  0  0  0  0  0  0  0
   16.8459   32.7692   -7.6117 O   0  0  0  0  0  0  0  0  0  0  0  0
   14.6152   32.4995   -7.9313 O   0  0  0  0  0  0  0  0  0  0  0  0
   17.4064   32.8462   -8.4753 H   0  0  0  0  0  0  0  0  0  0  0  0
    8.9276   22.5844    0.4242 C   0  0  0  0  0  0  0  0  0  0  0  0
    7.8800   21.8388    1.1029 C   0  0  0  0  0  0  0  0  0  0  0  0
    7.2311   22.3492    2.1522 N   0  0  0  0  0  0  0  0  0  0  0  0
    6.2494   21.6623    2.7770 C   0  0  0  0  0  0  0  0  0  0  0  0
    5.9118   20.4111    2.3204 C   0  0  0  0  0  0  0  0  0  0  0  0
    6.5730   19.8736    1.2386 C   0  0  0  0  0  0  0  0  0  0  0  0
    7.5627   20.5767    0.6167 C   0  0  0  0  0  0  0  0  0  0  0  0
    8.2909   20.0536   -0.5386 C   0  0  0  0  0  0  0  0  0  0  0  0
 19 20  1  0  0  0
 20 13  1  0  0  0
 13 14  2  0  0  0
 14 15  1  0  0  0
 15 16  2  0  0  0
 16 17  1  0  0  0
 17 18  2  0  0  0
 15  1  1  0  0  0
  1  2  1  0  0  0
  2  3  2  0  0  0
  2  4  1  0  0  0
  4  5  1  0  0  0
  5  6  2  0  0  0
  5  7  1  0  0  0
  7  8  1  0  0  0
  8  9  1  0  0  0
  9 10  1  0  0  0
 10 36  1  0  0  0
 36 37  1  0  0  0
 37 38  2  0  0  0
 38 39  1  0  0  0
 39 40  2  0  0  0
 40 41  1  0  0  0
 41 42  2  0  0  0
 42 43  1  0  0  0
 10 11  1  0  0  0
 11 12  1  0  0  0
  4 21  1  0  0  0
 21 22  2  0  0  0
 22 23  1  0  0  0
 23 24  2  0  0  0
 24 25  1  0  0  0
 25 26  2  0  0  0
 24 27  1  0  0  0
 27 28  2  0  0  0
 28 29  1  0  0  0
 29 30  2  0  0  0
 30 31  1  0  0  0
 30 32  1  0  0  0
 32 33  1  0  0  0
 32 34  2  0  0  0
 18 13  1  0  0  0
  7  1  1  0  0  0
 12  7  1  0  0  0
 26 21  1  0  0  0
 31 27  1  0  0  0
 42 37  1  0  0  0
 33 35  1  0  0  0
M  END
> <minimizedAffinity>
36.35088

> <CNNscore>
0.5122454166

> <CNNaffinity>
7.4113945961

> <CNN_VS>
3.7964529991

> <CNNaffinity_variance>
0.4684101939

$$$$
[H]OC(=O)c1sc(-c2c([H])c([H])c(N3C(=O)N(c4nc([H])nc(OC([H])([H])[H])c4[H])C4(C3=O)C([H])([H])C([H])([H])N(C([H])([H])c3nc([H])c([H])c([H])c3C([H])([H])[H])C([H])([H])C4([H])[H])c([H])c2[H])c([H])c1[H]


 43 48  0  0  0  0  0  0  0  0999 V2000
   13.8624   24.2716   -1.6719 N   0  0  0  0  0  0  0  0  0  0  0  0
   13.1215   23.2548   -0.9579 C   0  0  0  0  0  0  0  0  0  0  0  0
   13.5081   22.0862   -0.7632 O   0  0  0  0  0  0  0  0  0  0  0  0
   11.8851   23.7857   -0.5106 N   0  0  0  0  0  0  0  0  0  0  0  0
   11.8723   25.1444   -0.9571 C   0  0  0  0  0  0  0  0  0  0  0  0
   11.0674   26.0192   -0.5708 O   0  0  0  0  0  0  0  0  0  0  0  0
   12.9622   25.3499   -1.9480 C   0  0  0  0  0  0  0  0  0  0  0  0
   12.4002   25.1534   -3.3468 C   0  0  0  0  0  0  0  0  0  0  0  0
   11.7387   26.3905   -3.8559 C   0  0  0  0  0  0  0  0  0  0  0  0
   12.6687   27.5005   -4.0883 N   0  0  0  0  0  0  0  0  0  0  0  0
   13.8358   27.2078   -3.3158 C   0  0  0  0  0  0  0  0  0  0  0  0
   13.5336   26.7209   -1.8944 C   0  0  0  0  0  0  0  0  0  0  0  0
   17.5519   24.0191   -1.3825 C   0  0  0  0  0  0  0  0  0  0  0  0
   16.2052   24.1608   -1.0397 C   0  0  0  0  0  0  0  0  0  0  0  0
   15.2304   24.1333   -2.0035 C   0  0  0  0  0  0  0  0  0  0  0  0
   15.5942   23.9672   -3.2764 N   0  0  0  0  0  0  0  0  0  0  0  0
   16.9097   23.8271   -3.6252 C   0  0  0  0  0  0  0  0  0  0  0  0
   17.8608   23.8557   -2.6771 N   0  0  0  0  0  0  0  0  0  0  0  0
   18.1758   24.3573    0.9682 C   0  0  0  0  0  0  0  0  0  0  0  0
   18.4803   24.0559   -0.3727 O   0  0  0  0  0  0  0  0  0  0  0  0
   10.8441   23.1201    0.2286 C   0  0  0  0  0  0  0  0  0  0  0  0
   10.0176   22.1642   -0.3382 C   0  0  0  0  0  0  0  0  0  0  0  0
    9.0196   21.5277    0.4070 C   0  0  0  0  0  0  0  0  0  0  0  0
    8.8544   21.8544    1.7244 C   0  0  0  0  0  0  0  0  0  0  0  0
    9.6684   22.8032    2.3003 C   0  0  0  0  0  0  0  0  0  0  0  0
   10.6622   23.4347    1.5520 C   0  0  0  0  0  0  0  0  0  0  0  0
    7.8341   21.2205    2.5671 C   0  0  0  0  0  0  0  0  0  0  0  0
    7.9086   20.9387    3.9098 C   0  0  0  0  0  0  0  0  0  0  0  0
    6.8461   20.3530    4.4772 C   0  0  0  0  0  0  0  0  0  0  0  0
    5.7662   20.0790    3.6806 C   0  0  0  0  0  0  0  0  0  0  0  0
    6.2794   20.6538    2.1529 S   0  0  0  0  0  0  0  0  0  0  0  0
    4.5049   19.4568    4.0605 C   0  0  0  0  0  0  0  0  0  0  0  0
    3.9633   18.4786    3.2719 O   0  0  0  0  0  0  0  0  0  0  0  0
    3.9362   19.8237    5.0997 O   0  0  0  0  0  0  0  0  0  0  0  0
    4.0606   17.4703    3.4711 H   0  0  0  0  0  0  0  0  0  0  0  0
   12.0159   28.7485   -3.8095 C   0  0  0  0  0  0  0  0  0  0  0  0
   10.7601   29.0226   -4.4891 C   0  0  0  0  0  0  0  0  0  0  0  0
   10.1036   28.0662   -5.1500 N   0  0  0  0  0  0  0  0  0  0  0  0
    8.9306   28.3166   -5.7724 C   0  0  0  0  0  0  0  0  0  0  0  0
    8.4025   29.5840   -5.7224 C   0  0  0  0  0  0  0  0  0  0  0  0
    9.0695   30.5794   -5.0434 C   0  0  0  0  0  0  0  0  0  0  0  0
   10.2531   30.3142   -4.4196 C   0  0  0  0  0  0  0  0  0  0  0  0
   10.9974   31.3338   -3.6811 C   0  0  0  0  0  0  0  0  0  0  0  0
 19 20  1  0  0  0
 20 13  1  0  0  0
 13 14  2  0  0  0
 14 15  1  0  0  0
 15 16  2  0  0  0
 16 17  1  0  0  0
 17 18  2  0  0  0
 15  1  1  0  0  0
  1  2  1  0  0  0
  2  3  2  0  0  0
  2  4  1  0  0  0
  4  5  1  0  0  0
  5  6  2  0  0  0
  5  7  1  0  0  0
  7  8  1  0  0  0
  8  9  1  0  0  0
  9 10  1  0  0  0
 10 36  1  0  0  0
 36 37  1  0  0  0
 37 38  2  0  0  0
 38 39  1  0  0  0
 39 40  2  0  0  0
 40 41  1  0  0  0
 41 42  2  0  0  0
 42 43  1  0  0  0
 10 11  1  0  0  0
 11 12  1  0  0  0
  4 21  1  0  0  0
 21 22  2  0  0  0
 22 23  1  0  0  0
 23 24  2  0  0  0
 24 25  1  0  0  0
 25 26  2  0  0  0
 24 27  1  0  0  0
 27 28  2  0  0  0
 28 29  1  0  0  0
 29 30  2  0  0  0
 30 31  1  0  0  0
 30 32  1  0  0  0
 32 33  1  0  0  0
 32 34  2  0  0  0
 18 13  1  0  0  0
  7  1  1  0  0  0
 12  7  1  0  0  0
 26 21  1  0  0  0
 31 27  1  0  0  0
 42 37  1  0  0  0
 33 35  1  0  0  0
M  END
> <minimizedAffinity>
21.74811

> <CNNscore>
0.5040535927

> <CNNaffinity>
7.5674400330

> <CNN_VS>
3.8143954277

> <CNNaffinity_variance>
1.5153909922

$$$$
[H]OC(=O)c1sc(-c2c([H])c([H])c(N3C(=O)N(c4nc([H])nc(OC([H])([H])[H])c4[H])C4(C3=O)C([H])([H])C([H])([H])N(C([H])([H])c3nc([H])c([H])c([H])c3C([H])([H])[H])C([H])([H])C4([H])[H])c([H])c2[H])c([H])c1[H]


 43 48  0  0  0  0  0  0  0  0999 V2000
   13.5527   25.0679   -2.7162 N   0  0  0  0  0  0  0  0  0  0  0  0
   12.2442   24.8418   -2.1423 C   0  0  0  0  0  0  0  0  0  0  0  0
   11.1912   25.3975   -2.5104 O   0  0  0  0  0  0  0  0  0  0  0  0
   12.3365   23.8911   -1.0944 N   0  0  0  0  0  0  0  0  0  0  0  0
   13.7195   23.5322   -1.0290 C   0  0  0  0  0  0  0  0  0  0  0  0
   14.1785   22.5563   -0.3970 O   0  0  0  0  0  0  0  0  0  0  0  0
   14.5197   24.4986   -1.8275 C   0  0  0  0  0  0  0  0  0  0  0  0
   15.0255   25.5984   -0.9079 C   0  0  0  0  0  0  0  0  0  0  0  0
   16.2727   25.1935   -0.1953 C   0  0  0  0  0  0  0  0  0  0  0  0
   17.4282   25.0264   -1.0828 N   0  0  0  0  0  0  0  0  0  0  0  0
   16.8951   24.8438   -2.3969 C   0  0  0  0  0  0  0  0  0  0  0  0
   15.7114   23.8722   -2.4575 C   0  0  0  0  0  0  0  0  0  0  0  0
   14.7876   25.9587   -6.0988 C   0  0  0  0  0  0  0  0  0  0  0  0
   14.6101   25.2757   -4.8932 C   0  0  0  0  0  0  0  0  0  0  0  0
   13.7459   25.7499   -3.9402 C   0  0  0  0  0  0  0  0  0  0  0  0
   13.0765   26.8771   -4.1881 N   0  0  0  0  0  0  0  0  0  0  0  0
   13.2412   27.5553   -5.3648 C   0  0  0  0  0  0  0  0  0  0  0  0
   14.0898   27.0869   -6.2948 N   0  0  0  0  0  0  0  0  0  0  0  0
   15.7966   25.8937   -8.3364 C   0  0  0  0  0  0  0  0  0  0  0  0
   15.6669   25.4340   -7.0122 O   0  0  0  0  0  0  0  0  0  0  0  0
   11.2824   23.3843   -0.2546 C   0  0  0  0  0  0  0  0  0  0  0  0
   10.6879   22.1507   -0.4619 C   0  0  0  0  0  0  0  0  0  0  0  0
    9.6713   21.6804    0.3757 C   0  0  0  0  0  0  0  0  0  0  0  0
    9.2535   22.4535    1.4233 C   0  0  0  0  0  0  0  0  0  0  0  0
    9.8352   23.6818    1.6406 C   0  0  0  0  0  0  0  0  0  0  0  0
   10.8489   24.1457    0.8017 C   0  0  0  0  0  0  0  0  0  0  0  0
    8.1988   22.0190    2.3462 C   0  0  0  0  0  0  0  0  0  0  0  0
    7.0220   21.3803    2.0379 C   0  0  0  0  0  0  0  0  0  0  0  0
    6.2019   21.0747    3.0518 C   0  0  0  0  0  0  0  0  0  0  0  0
    6.5949   21.4194    4.3178 C   0  0  0  0  0  0  0  0  0  0  0  0
    8.1097   22.1663    4.0433 S   0  0  0  0  0  0  0  0  0  0  0  0
    5.8866   21.1937    5.5706 C   0  0  0  0  0  0  0  0  0  0  0  0
    4.9585   20.1922    5.6574 O   0  0  0  0  0  0  0  0  0  0  0  0
    6.1361   21.9162    6.5473 O   0  0  0  0  0  0  0  0  0  0  0  0
    5.1593   19.2662    6.0674 H   0  0  0  0  0  0  0  0  0  0  0  0
   18.2749   23.9783   -0.5868 C   0  0  0  0  0  0  0  0  0  0  0  0
   18.8377   24.1352    0.7446 C   0  0  0  0  0  0  0  0  0  0  0  0
   20.0004   24.7619    0.9389 N   0  0  0  0  0  0  0  0  0  0  0  0
   20.5192   24.9186    2.1767 C   0  0  0  0  0  0  0  0  0  0  0  0
   19.8332   24.4222    3.2587 C   0  0  0  0  0  0  0  0  0  0  0  0
   18.6324   23.7743    3.0719 C   0  0  0  0  0  0  0  0  0  0  0  0
   18.1194   23.6219    1.8173 C   0  0  0  0  0  0  0  0  0  0  0  0
   16.8465   22.9472    1.5658 C   0  0  0  0  0  0  0  0  0  0  0  0
 19 20  1  0  0  0
 20 13  1  0  0  0
 13 14  2  0  0  0
 14 15  1  0  0  0
 15 16  2  0  0  0
 16 17  1  0  0  0
 17 18  2  0  0  0
 15  1  1  0  0  0
  1  2  1  0  0  0
  2  3  2  0  0  0
  2  4  1  0  0  0
  4  5  1  0  0  0
  5  6  2  0  0  0
  5  7  1  0  0  0
  7  8  1  0  0  0
  8  9  1  0  0  0
  9 10  1  0  0  0
 10 36  1  0  0  0
 36 37  1  0  0  0
 37 38  2  0  0  0
 38 39  1  0  0  0
 39 40  2  0  0  0
 40 41  1  0  0  0
 41 42  2  0  0  0
 42 43  1  0  0  0
 10 11  1  0  0  0
 11 12  1  0  0  0
  4 21  1  0  0  0
 21 22  2  0  0  0
 22 23  1  0  0  0
 23 24  2  0  0  0
 24 25  1  0  0  0
 25 26  2  0  0  0
 24 27  1  0  0  0
 27 28  2  0  0  0
 28 29  1  0  0  0
 29 30  2  0  0  0
 30 31  1  0  0  0
 30 32  1  0  0  0
 32 33  1  0  0  0
 32 34  2  0  0  0
 18 13  1  0  0  0
  7  1  1  0  0  0
 12  7  1  0  0  0
 26 21  1  0  0  0
 31 27  1  0  0  0
 42 37  1  0  0  0
 33 35  1  0  0  0
M  END
> <minimizedAffinity>
15.10660

> <CNNscore>
0.4961236417

> <CNNaffinity>
7.7423410416

> <CNN_VS>
3.8411583900

> <CNNaffinity_variance>
0.5105910301

$$$$
[H]OC(=O)c1sc(-c2c([H])c([H])c(N3C(=O)N(c4nc([H])nc(OC([H])([H])[H])c4[H])C4(C3=O)C([H])([H])C([H])([H])N(C([H])([H])c3nc([H])c([H])c([H])c3C([H])([H])[H])C([H])([H])C4([H])[H])c([H])c2[H])c([H])c1[H]


 43 48  0  0  0  0  0  0  0  0999 V2000
    9.8571   23.7001    0.9830 N   0  0  0  0  0  0  0  0  0  0  0  0
   10.2213   24.5559   -0.1249 C   0  0  0  0  0  0  0  0  0  0  0  0
    9.5032   25.4528   -0.6075 O   0  0  0  0  0  0  0  0  0  0  0  0
   11.5209   24.2222   -0.5832 N   0  0  0  0  0  0  0  0  0  0  0  0
   11.9553   23.1494    0.2569 C   0  0  0  0  0  0  0  0  0  0  0  0
   13.1292   22.7266    0.3319 O   0  0  0  0  0  0  0  0  0  0  0  0
   10.7954   22.6197    1.0225 C   0  0  0  0  0  0  0  0  0  0  0  0
   10.1993   21.4446    0.2643 C   0  0  0  0  0  0  0  0  0  0  0  0
   10.9322   20.1755    0.5460 C   0  0  0  0  0  0  0  0  0  0  0  0
   10.7890   19.7094    1.9291 N   0  0  0  0  0  0  0  0  0  0  0  0
   10.3869   20.8500    2.6919 C   0  0  0  0  0  0  0  0  0  0  0  0
   11.1778   22.1226    2.3700 C   0  0  0  0  0  0  0  0  0  0  0  0
    7.3945   25.4585    3.1287 C   0  0  0  0  0  0  0  0  0  0  0  0
    8.4973   25.2172    2.3060 C   0  0  0  0  0  0  0  0  0  0  0  0
    8.7468   23.9596    1.8200 C   0  0  0  0  0  0  0  0  0  0  0  0
    7.9137   22.9704    2.1480 N   0  0  0  0  0  0  0  0  0  0  0  0
    6.8300   23.1936    2.9528 C   0  0  0  0  0  0  0  0  0  0  0  0
    6.5907   24.4274    3.4269 N   0  0  0  0  0  0  0  0  0  0  0  0
    5.9837   27.4393    3.4688 C   0  0  0  0  0  0  0  0  0  0  0  0
    7.1989   26.7382    3.5838 O   0  0  0  0  0  0  0  0  0  0  0  0
   12.2642   24.8140   -1.6651 C   0  0  0  0  0  0  0  0  0  0  0  0
   11.9240   26.0328   -2.2283 C   0  0  0  0  0  0  0  0  0  0  0  0
   12.6701   26.5875   -3.2733 C   0  0  0  0  0  0  0  0  0  0  0  0
   13.7600   25.9141   -3.7510 C   0  0  0  0  0  0  0  0  0  0  0  0
   14.1090   24.7016   -3.2009 C   0  0  0  0  0  0  0  0  0  0  0  0
   13.3611   24.1532   -2.1587 C   0  0  0  0  0  0  0  0  0  0  0  0
   14.5923   26.4410   -4.8384 C   0  0  0  0  0  0  0  0  0  0  0  0
   15.1479   27.6935   -4.9411 C   0  0  0  0  0  0  0  0  0  0  0  0
   15.8794   27.9564   -6.0318 C   0  0  0  0  0  0  0  0  0  0  0  0
   16.0203   26.9609   -6.9619 C   0  0  0  0  0  0  0  0  0  0  0  0
   15.1162   25.6819   -6.2733 S   0  0  0  0  0  0  0  0  0  0  0  0
   16.7621   27.0014   -8.2152 C   0  0  0  0  0  0  0  0  0  0  0  0
   17.1474   28.2048   -8.7399 O   0  0  0  0  0  0  0  0  0  0  0  0
   17.0362   25.9386   -8.7925 O   0  0  0  0  0  0  0  0  0  0  0  0
   18.0969   28.5947   -8.6285 H   0  0  0  0  0  0  0  0  0  0  0  0
   11.9958   19.0545    2.3491 C   0  0  0  0  0  0  0  0  0  0  0  0
   13.2599   19.5972    1.8785 C   0  0  0  0  0  0  0  0  0  0  0  0
   13.8975   19.0679    0.8318 N   0  0  0  0  0  0  0  0  0  0  0  0
   15.0667   19.5781    0.3860 C   0  0  0  0  0  0  0  0  0  0  0  0
   15.6097   20.6667    1.0247 C   0  0  0  0  0  0  0  0  0  0  0  0
   14.9615   21.2225    2.1052 C   0  0  0  0  0  0  0  0  0  0  0  0
   13.7822   20.6980    2.5460 C   0  0  0  0  0  0  0  0  0  0  0  0
   13.0519   21.2542    3.6845 C   0  0  0  0  0  0  0  0  0  0  0  0
 19 20  1  0  0  0
 20 13  1  0  0  0
 13 14  2  0  0  0
 14 15  1  0  0  0
 15 16  2  0  0  0
 16 17  1  0  0  0
 17 18  2  0  0  0
 15  1  1  0  0  0
  1  2  1  0  0  0
  2  3  2  0  0  0
  2  4  1  0  0  0
  4  5  1  0  0  0
  5  6  2  0  0  0
  5  7  1  0  0  0
  7  8  1  0  0  0
  8  9  1  0  0  0
  9 10  1  0  0  0
 10 36  1  0  0  0
 36 37  1  0  0  0
 37 38  2  0  0  0
 38 39  1  0  0  0
 39 40  2  0  0  0
 40 41  1  0  0  0
 41 42  2  0  0  0
 42 43  1  0  0  0
 10 11  1  0  0  0
 11 12  1  0  0  0
  4 21  1  0  0  0
 21 22  2  0  0  0
 22 23  1  0  0  0
 23 24  2  0  0  0
 24 25  1  0  0  0
 25 26  2  0  0  0
 24 27  1  0  0  0
 27 28  2  0  0  0
 28 29  1  0  0  0
 29 30  2  0  0  0
 30 31  1  0  0  0
 30 32  1  0  0  0
 32 33  1  0  0  0
 32 34  2  0  0  0
 18 13  1  0  0  0
  7  1  1  0  0  0
 12  7  1  0  0  0
 26 21  1  0  0  0
 31 27  1  0  0  0
 42 37  1  0  0  0
 33 35  1  0  0  0
M  END
> <minimizedAffinity>
17.54545

> <CNNscore>
0.4601351321

> <CNNaffinity>
7.2728013992

> <CNN_VS>
3.3464715481

> <CNNaffinity_variance>
0.5161728859

$$$$
[H]OC(=O)c1sc(-c2c([H])c([H])c(N3C(=O)N(c4nc([H])nc(OC([H])([H])[H])c4[H])C4(C3=O)C([H])([H])C([H])([H])N(C([H])([H])c3nc([H])c([H])c([H])c3C([H])([H])[H])C([H])([H])C4([H])[H])c([H])c2[H])c([H])c1[H]


 43 48  0  0  0  0  0  0  0  0999 V2000
   10.7559   24.0177    1.5155 N   0  0  0  0  0  0  0  0  0  0  0  0
   11.1816   25.1368    0.7036 C   0  0  0  0  0  0  0  0  0  0  0  0
   10.6645   26.2706    0.7132 O   0  0  0  0  0  0  0  0  0  0  0  0
   12.2783   24.7519   -0.1085 N   0  0  0  0  0  0  0  0  0  0  0  0
   12.5252   23.3803    0.2131 C   0  0  0  0  0  0  0  0  0  0  0  0
   13.5483   22.7399   -0.1118 O   0  0  0  0  0  0  0  0  0  0  0  0
   11.3781   22.8402    0.9906 C   0  0  0  0  0  0  0  0  0  0  0  0
   10.4032   22.1743    0.0329 C   0  0  0  0  0  0  0  0  0  0  0  0
   10.8115   20.7752   -0.2879 C   0  0  0  0  0  0  0  0  0  0  0  0
   10.7345   19.8636    0.8583 N   0  0  0  0  0  0  0  0  0  0  0  0
   10.7460   20.6913    2.0242 C   0  0  0  0  0  0  0  0  0  0  0  0
   11.7913   21.8112    1.9804 C   0  0  0  0  0  0  0  0  0  0  0  0
    8.3011   25.4399    3.9054 C   0  0  0  0  0  0  0  0  0  0  0  0
    9.1746   25.3189    2.8221 C   0  0  0  0  0  0  0  0  0  0  0  0
    9.8707   24.1569    2.6099 C   0  0  0  0  0  0  0  0  0  0  0  0
    9.6961   23.1427    3.4591 N   0  0  0  0  0  0  0  0  0  0  0  0
    8.8435   23.2484    4.5238 C   0  0  0  0  0  0  0  0  0  0  0  0
    8.1645   24.3894    4.7276 N   0  0  0  0  0  0  0  0  0  0  0  0
    7.8013   27.7455    3.2246 C   0  0  0  0  0  0  0  0  0  0  0  0
    7.6338   26.6283    4.0645 O   0  0  0  0  0  0  0  0  0  0  0  0
   13.0016   25.5478   -1.0659 C   0  0  0  0  0  0  0  0  0  0  0  0
   14.3610   25.7918   -0.9618 C   0  0  0  0  0  0  0  0  0  0  0  0
   15.0391   26.5621   -1.9121 C   0  0  0  0  0  0  0  0  0  0  0  0
   14.3472   27.0868   -2.9683 C   0  0  0  0  0  0  0  0  0  0  0  0
   12.9958   26.8527   -3.0837 C   0  0  0  0  0  0  0  0  0  0  0  0
   12.3247   26.0834   -2.1327 C   0  0  0  0  0  0  0  0  0  0  0  0
   14.9961   27.8962   -4.0060 C   0  0  0  0  0  0  0  0  0  0  0  0
   15.6228   29.1098   -3.8567 C   0  0  0  0  0  0  0  0  0  0  0  0
   16.1508   29.6704   -4.9526 C   0  0  0  0  0  0  0  0  0  0  0  0
   16.0284   28.9953   -6.1379 C   0  0  0  0  0  0  0  0  0  0  0  0
   15.1709   27.5890   -5.6747 S   0  0  0  0  0  0  0  0  0  0  0  0
   16.5169   29.3920   -7.4518 C   0  0  0  0  0  0  0  0  0  0  0  0
   17.3172   30.4947   -7.5765 O   0  0  0  0  0  0  0  0  0  0  0  0
   16.1993   28.7208   -8.4452 O   0  0  0  0  0  0  0  0  0  0  0  0
   18.3457   30.4440   -7.6512 H   0  0  0  0  0  0  0  0  0  0  0  0
   11.7740   18.8774    0.7661 C   0  0  0  0  0  0  0  0  0  0  0  0
   12.8603   19.1236   -0.1683 C   0  0  0  0  0  0  0  0  0  0  0  0
   12.6329   19.2750   -1.4752 N   0  0  0  0  0  0  0  0  0  0  0  0
   13.6401   19.5153   -2.3434 C   0  0  0  0  0  0  0  0  0  0  0  0
   14.9263   19.6066   -1.8691 C   0  0  0  0  0  0  0  0  0  0  0  0
   15.1742   19.4530   -0.5231 C   0  0  0  0  0  0  0  0  0  0  0  0
   14.1491   19.2102    0.3432 C   0  0  0  0  0  0  0  0  0  0  0  0
   14.3583   19.0452    1.7811 C   0  0  0  0  0  0  0  0  0  0  0  0
 19 20  1  0  0  0
 20 13  1  0  0  0
 13 14  2  0  0  0
 14 15  1  0  0  0
 15 16  2  0  0  0
 16 17  1  0  0  0
 17 18  2  0  0  0
 15  1  1  0  0  0
  1  2  1  0  0  0
  2  3  2  0  0  0
  2  4  1  0  0  0
  4  5  1  0  0  0
  5  6  2  0  0  0
  5  7  1  0  0  0
  7  8  1  0  0  0
  8  9  1  0  0  0
  9 10  1  0  0  0
 10 36  1  0  0  0
 36 37  1  0  0  0
 37 38  2  0  0  0
 38 39  1  0  0  0
 39 40  2  0  0  0
 40 41  1  0  0  0
 41 42  2  0  0  0
 42 43  1  0  0  0
 10 11  1  0  0  0
 11 12  1  0  0  0
  4 21  1  0  0  0
 21 22  2  0  0  0
 22 23  1  0  0  0
 23 24  2  0  0  0
 24 25  1  0  0  0
 25 26  2  0  0  0
 24 27  1  0  0  0
 27 28  2  0  0  0
 28 29  1  0  0  0
 29 30  2  0  0  0
 30 31  1  0  0  0
 30 32  1  0  0  0
 32 33  1  0  0  0
 32 34  2  0  0  0
 18 13  1  0  0  0
  7  1  1  0  0  0
 12  7  1  0  0  0
 26 21  1  0  0  0
 31 27  1  0  0  0
 42 37  1  0  0  0
 33 35  1  0  0  0
M  END
> <minimizedAffinity>
36.43203

> <CNNscore>
0.4471123815

> <CNNaffinity>
7.2590265274

> <CNN_VS>
3.2456007004

> <CNNaffinity_variance>
0.7747931480

$$$$
[H]c1nc2c([H])c(N([H])C([H])([H])C([H])([H])OC([H])([H])[H])c([H])c(-c3c([H])c([H])c(C#N)c([H])c3[H])n2n1


 23 25  0  0  0  0  0  0  0  0999 V2000
   11.4683   24.0733   -0.6172 C   0  0  0  0  0  0  0  0  0  0  0  0
   12.0363   24.4530   -1.8158 C   0  0  0  0  0  0  0  0  0  0  0  0
   13.3957   24.6885   -1.9206 C   0  0  0  0  0  0  0  0  0  0  0  0
   14.1940   24.5466   -0.8312 N   0  0  0  0  0  0  0  0  0  0  0  0
   15.4999   24.7062   -0.6582 N   0  0  0  0  0  0  0  0  0  0  0  0
   15.8422   24.4492    0.6139 C   0  0  0  0  0  0  0  0  0  0  0  0
   14.6851   24.1182    1.2392 N   0  0  0  0  0  0  0  0  0  0  0  0
   13.6748   24.1775    0.3548 C   0  0  0  0  0  0  0  0  0  0  0  0
   12.3015   23.9406    0.4561 C   0  0  0  0  0  0  0  0  0  0  0  0
   13.9609   25.0830   -3.1816 C   0  0  0  0  0  0  0  0  0  0  0  0
   14.9329   24.2947   -3.8062 C   0  0  0  0  0  0  0  0  0  0  0  0
   15.4958   24.6316   -5.0028 C   0  0  0  0  0  0  0  0  0  0  0  0
   15.0938   25.7894   -5.6201 C   0  0  0  0  0  0  0  0  0  0  0  0
   14.1451   26.5728   -5.0250 C   0  0  0  0  0  0  0  0  0  0  0  0
   13.5615   26.2454   -3.8072 C   0  0  0  0  0  0  0  0  0  0  0  0
   15.6453   26.2114   -6.8893 C   0  0  0  0  0  0  0  0  0  0  0  0
   16.1007   26.5453   -7.9035 N   0  0  0  0  0  0  0  0  0  0  0  0
   10.0720   23.8480   -0.5782 N   0  0  0  0  0  0  0  0  0  0  0  0
    9.4485   24.1322   -1.3341 H   0  0  0  0  0  0  0  0  0  0  0  0
    9.5310   23.1809    0.6021 C   0  0  0  0  0  0  0  0  0  0  0  0
    9.0451   21.8082    0.2987 C   0  0  0  0  0  0  0  0  0  0  0  0
   10.6978   20.3067   -0.0980 C   0  0  0  0  0  0  0  0  0  0  0  0
    9.8458   20.8496    0.8427 O   0  0  0  0  0  0  0  0  0  0  0  0
 22 23  1  0  0  0
 23 21  1  0  0  0
 21 20  1  0  0  0
 20 18  1  0  0  0
 18  1  1  0  0  0
  1  2  1  0  0  0
  2  3  2  0  0  0
  3 10  1  0  0  0
 10 11  2  0  0  0
 11 12  1  0  0  0
 12 13  2  0  0  0
 13 14  1  0  0  0
 14 15  2  0  0  0
 13 16  1  0  0  0
 16 17  3  0  0  0
  3  4  1  0  0  0
  4  5  1  0  0  0
  5  6  2  0  0  0
  6  7  1  0  0  0
  7  8  2  0  0  0
  8  9  1  0  0  0
  9  1  2  0  0  0
 15 10  1  0  0  0
  8  4  1  0  0  0
 18 19  1  0  0  0
M  END
> <minimizedAffinity>
-8.07651

> <CNNscore>
0.8347622156

> <CNNaffinity>
6.9835457802

> <CNN_VS>
5.8296003342

> <CNNaffinity_variance>
0.0896693990

$$$$
[H]c1nc2c([H])c(N([H])C([H])([H])C([H])([H])OC([H])([H])[H])c([H])c(-c3c([H])c([H])c(C#N)c([H])c3[H])n2n1


 23 25  0  0  0  0  0  0  0  0999 V2000
   10.7025   21.9542   -0.4415 C   0  0  0  0  0  0  0  0  0  0  0  0
   11.2959   22.8908   -1.2625 C   0  0  0  0  0  0  0  0  0  0  0  0
   12.6599   23.1188   -1.2189 C   0  0  0  0  0  0  0  0  0  0  0  0
   13.4376   22.4143   -0.3569 N   0  0  0  0  0  0  0  0  0  0  0  0
   14.7424   22.4340   -0.1162 N   0  0  0  0  0  0  0  0  0  0  0  0
   15.0595   21.5454    0.8385 C   0  0  0  0  0  0  0  0  0  0  0  0
   13.8875   20.9608    1.1910 N   0  0  0  0  0  0  0  0  0  0  0  0
   12.8933   21.4923    0.4593 C   0  0  0  0  0  0  0  0  0  0  0  0
   11.5155   21.2652    0.4120 C   0  0  0  0  0  0  0  0  0  0  0  0
   13.2518   24.1007   -2.0855 C   0  0  0  0  0  0  0  0  0  0  0  0
   12.6617   25.3584   -2.2475 C   0  0  0  0  0  0  0  0  0  0  0  0
   13.1897   26.3196   -3.0598 C   0  0  0  0  0  0  0  0  0  0  0  0
   14.3456   26.0436   -3.7460 C   0  0  0  0  0  0  0  0  0  0  0  0
   14.9368   24.8200   -3.6005 C   0  0  0  0  0  0  0  0  0  0  0  0
   14.4133   23.8298   -2.7781 C   0  0  0  0  0  0  0  0  0  0  0  0
   14.9636   27.0124   -4.6250 C   0  0  0  0  0  0  0  0  0  0  0  0
   15.4721   27.7871   -5.3242 N   0  0  0  0  0  0  0  0  0  0  0  0
    9.3029   21.7699   -0.5361 N   0  0  0  0  0  0  0  0  0  0  0  0
    8.8426   21.4945   -1.4039 H   0  0  0  0  0  0  0  0  0  0  0  0
    8.5124   21.9896    0.6713 C   0  0  0  0  0  0  0  0  0  0  0  0
    8.2810   23.4347    0.9365 C   0  0  0  0  0  0  0  0  0  0  0  0
    9.9508   24.4037    2.1267 C   0  0  0  0  0  0  0  0  0  0  0  0
    8.7089   23.8028    2.1764 O   0  0  0  0  0  0  0  0  0  0  0  0
 22 23  1  0  0  0
 23 21  1  0  0  0
 21 20  1  0  0  0
 20 18  1  0  0  0
 18  1  1  0  0  0
  1  2  1  0  0  0
  2  3  2  0  0  0
  3 10  1  0  0  0
 10 11  2  0  0  0
 11 12  1  0  0  0
 12 13  2  0  0  0
 13 14  1  0  0  0
 14 15  2  0  0  0
 13 16  1  0  0  0
 16 17  3  0  0  0
  3  4  1  0  0  0
  4  5  1  0  0  0
  5  6  2  0  0  0
  6  7  1  0  0  0
  7  8  2  0  0  0
  8  9  1  0  0  0
  9  1  2  0  0  0
 15 10  1  0  0  0
  8  4  1  0  0  0
 18 19  1  0  0  0
M  END
> <minimizedAffinity>
-7.55254

> <CNNscore>
0.7191224694

> <CNNaffinity>
6.9096450806

> <CNN_VS>
4.9688811302

> <CNNaffinity_variance>
0.2934750021

$$$$
[H]c1nc2c([H])c(N([H])C([H])([H])C([H])([H])OC([H])([H])[H])c([H])c(-c3c([H])c([H])c(C#N)c([H])c3[H])n2n1


 23 25  0  0  0  0  0  0  0  0999 V2000
   10.4589   23.3313   -0.0333 C   0  0  0  0  0  0  0  0  0  0  0  0
   11.1298   24.0431   -1.0062 C   0  0  0  0  0  0  0  0  0  0  0  0
   12.4875   23.8714   -1.2102 C   0  0  0  0  0  0  0  0  0  0  0  0
   13.1816   22.9898   -0.4453 N   0  0  0  0  0  0  0  0  0  0  0  0
   14.4614   22.6392   -0.4309 N   0  0  0  0  0  0  0  0  0  0  0  0
   14.6867   21.7150    0.5160 C   0  0  0  0  0  0  0  0  0  0  0  0
   13.4830   21.4974    1.1017 N   0  0  0  0  0  0  0  0  0  0  0  0
   12.5603   22.2778    0.5136 C   0  0  0  0  0  0  0  0  0  0  0  0
   11.1891   22.4543    0.7162 C   0  0  0  0  0  0  0  0  0  0  0  0
   13.1613   24.6261   -2.2309 C   0  0  0  0  0  0  0  0  0  0  0  0
   12.6844   25.8812   -2.6229 C   0  0  0  0  0  0  0  0  0  0  0  0
   13.2929   26.6310   -3.5873 C   0  0  0  0  0  0  0  0  0  0  0  0
   14.4177   26.1362   -4.1981 C   0  0  0  0  0  0  0  0  0  0  0  0
   14.8986   24.9115   -3.8284 C   0  0  0  0  0  0  0  0  0  0  0  0
   14.2921   24.1346   -2.8488 C   0  0  0  0  0  0  0  0  0  0  0  0
   15.1163   26.8735   -5.2283 C   0  0  0  0  0  0  0  0  0  0  0  0
   15.6779   27.4763   -6.0462 N   0  0  0  0  0  0  0  0  0  0  0  0
    9.0705   23.5541    0.1234 N   0  0  0  0  0  0  0  0  0  0  0  0
    8.5611   24.2503   -0.4212 H   0  0  0  0  0  0  0  0  0  0  0  0
    8.3660   22.7412    1.1103 C   0  0  0  0  0  0  0  0  0  0  0  0
    7.5421   21.6771    0.4769 C   0  0  0  0  0  0  0  0  0  0  0  0
    8.5306   20.1311   -0.8558 C   0  0  0  0  0  0  0  0  0  0  0  0
    8.1933   20.4812    0.4362 O   0  0  0  0  0  0  0  0  0  0  0  0
 22 23  1  0  0  0
 23 21  1  0  0  0
 21 20  1  0  0  0
 20 18  1  0  0  0
 18  1  1  0  0  0
  1  2  1  0  0  0
  2  3  2  0  0  0
  3 10  1  0  0  0
 10 11  2  0  0  0
 11 12  1  0  0  0
 12 13  2  0  0  0
 13 14  1  0  0  0
 14 15  2  0  0  0
 13 16  1  0  0  0
 16 17  3  0  0  0
  3  4  1  0  0  0
  4  5  1  0  0  0
  5  6  2  0  0  0
  6  7  1  0  0  0
  7  8  2  0  0  0
  8  9  1  0  0  0
  9  1  2  0  0  0
 15 10  1  0  0  0
  8  4  1  0  0  0
 18 19  1  0  0  0
M  END
> <minimizedAffinity>
-7.91996

> <CNNscore>
0.6038057208

> <CNNaffinity>
6.8783731461

> <CNN_VS>
4.1532011032

> <CNNaffinity_variance>
0.5896945000

$$$$
[H]c1nc2c([H])c(N([H])C([H])([H])C([H])([H])OC([H])([H])[H])c([H])c(-c3c([H])c([H])c(C#N)c([H])c3[H])n2n1


 23 25  0  0  0  0  0  0  0  0999 V2000
   14.1741   25.6800   -3.1829 C   0  0  0  0  0  0  0  0  0  0  0  0
   13.0365   25.2928   -2.5051 C   0  0  0  0  0  0  0  0  0  0  0  0
   13.1118   24.7349   -1.2412 C   0  0  0  0  0  0  0  0  0  0  0  0
   14.3209   24.5606   -0.6482 N   0  0  0  0  0  0  0  0  0  0  0  0
   14.6703   24.0611    0.5305 N   0  0  0  0  0  0  0  0  0  0  0  0
   16.0036   24.0937    0.6804 C   0  0  0  0  0  0  0  0  0  0  0  0
   16.4823   24.6401   -0.4650 N   0  0  0  0  0  0  0  0  0  0  0  0
   15.4523   24.9265   -1.2795 C   0  0  0  0  0  0  0  0  0  0  0  0
   15.3717   25.4896   -2.5557 C   0  0  0  0  0  0  0  0  0  0  0  0
   11.9106   24.3405   -0.5578 C   0  0  0  0  0  0  0  0  0  0  0  0
   11.5977   24.8693    0.6987 C   0  0  0  0  0  0  0  0  0  0  0  0
   10.4686   24.5226    1.3823 C   0  0  0  0  0  0  0  0  0  0  0  0
    9.6041   23.6195    0.8165 C   0  0  0  0  0  0  0  0  0  0  0  0
    9.8930   23.0918   -0.4106 C   0  0  0  0  0  0  0  0  0  0  0  0
   11.0376   23.4333   -1.1207 C   0  0  0  0  0  0  0  0  0  0  0  0
    8.3880   23.2042    1.4813 C   0  0  0  0  0  0  0  0  0  0  0  0
    7.4089   22.8629    2.0032 N   0  0  0  0  0  0  0  0  0  0  0  0
   14.0274   26.2440   -4.4722 N   0  0  0  0  0  0  0  0  0  0  0  0
   13.2745   26.8914   -4.7060 H   0  0  0  0  0  0  0  0  0  0  0  0
   15.0065   25.8663   -5.4869 C   0  0  0  0  0  0  0  0  0  0  0  0
   15.7009   27.0478   -6.0652 C   0  0  0  0  0  0  0  0  0  0  0  0
   15.6556   25.6073   -7.8164 C   0  0  0  0  0  0  0  0  0  0  0  0
   16.0850   26.8355   -7.3549 O   0  0  0  0  0  0  0  0  0  0  0  0
 22 23  1  0  0  0
 23 21  1  0  0  0
 21 20  1  0  0  0
 20 18  1  0  0  0
 18  1  1  0  0  0
  1  2  1  0  0  0
  2  3  2  0  0  0
  3 10  1  0  0  0
 10 11  2  0  0  0
 11 12  1  0  0  0
 12 13  2  0  0  0
 13 14  1  0  0  0
 14 15  2  0  0  0
 13 16  1  0  0  0
 16 17  3  0  0  0
  3  4  1  0  0  0
  4  5  1  0  0  0
  5  6  2  0  0  0
  6  7  1  0  0  0
  7  8  2  0  0  0
  8  9  1  0  0  0
  9  1  2  0  0  0
 15 10  1  0  0  0
  8  4  1  0  0  0
 18 19  1  0  0  0
M  END
> <minimizedAffinity>
-7.17577

> <CNNscore>
0.5906446576

> <CNNaffinity>
6.7257575989

> <CNN_VS>
3.9725327492

> <CNNaffinity_variance>
0.1301297843

$$$$
[H]c1nc2c([H])c(N([H])C([H])([H])C([H])([H])OC([H])([H])[H])c([H])c(-c3c([H])c([H])c(C#N)c([H])c3[H])n2n1


 23 25  0  0  0  0  0  0  0  0999 V2000
   14.1310   25.6153   -3.1891 C   0  0  0  0  0  0  0  0  0  0  0  0
   12.9952   25.2526   -2.4949 C   0  0  0  0  0  0  0  0  0  0  0  0
   13.0751   24.7198   -1.2205 C   0  0  0  0  0  0  0  0  0  0  0  0
   14.2872   24.5462   -0.6332 N   0  0  0  0  0  0  0  0  0  0  0  0
   14.6411   24.0676    0.5527 N   0  0  0  0  0  0  0  0  0  0  0  0
   15.9759   24.0908    0.6918 C   0  0  0  0  0  0  0  0  0  0  0  0
   16.4506   24.6093   -0.4681 N   0  0  0  0  0  0  0  0  0  0  0  0
   15.4170   24.8887   -1.2804 C   0  0  0  0  0  0  0  0  0  0  0  0
   15.3317   25.4265   -2.5672 C   0  0  0  0  0  0  0  0  0  0  0  0
   11.8758   24.3505   -0.5201 C   0  0  0  0  0  0  0  0  0  0  0  0
   11.6075   24.8607    0.7543 C   0  0  0  0  0  0  0  0  0  0  0  0
   10.4817   24.5367    1.4544 C   0  0  0  0  0  0  0  0  0  0  0  0
    9.5752   23.6764    0.8876 C   0  0  0  0  0  0  0  0  0  0  0  0
    9.8201   23.1675   -0.3570 C   0  0  0  0  0  0  0  0  0  0  0  0
   10.9607   23.4863   -1.0839 C   0  0  0  0  0  0  0  0  0  0  0  0
    8.3598   23.2872    1.5692 C   0  0  0  0  0  0  0  0  0  0  0  0
    7.3783   22.9727    2.1034 N   0  0  0  0  0  0  0  0  0  0  0  0
   13.9794   26.1543   -4.4884 N   0  0  0  0  0  0  0  0  0  0  0  0
   13.1718   26.7155   -4.7594 H   0  0  0  0  0  0  0  0  0  0  0  0
   15.0359   25.8801   -5.4578 C   0  0  0  0  0  0  0  0  0  0  0  0
   15.6489   27.1270   -5.9888 C   0  0  0  0  0  0  0  0  0  0  0  0
   16.9119   28.0845   -4.3666 C   0  0  0  0  0  0  0  0  0  0  0  0
   15.7107   28.1089   -5.0465 O   0  0  0  0  0  0  0  0  0  0  0  0
 22 23  1  0  0  0
 23 21  1  0  0  0
 21 20  1  0  0  0
 20 18  1  0  0  0
 18  1  1  0  0  0
  1  2  1  0  0  0
  2  3  2  0  0  0
  3 10  1  0  0  0
 10 11  2  0  0  0
 11 12  1  0  0  0
 12 13  2  0  0  0
 13 14  1  0  0  0
 14 15  2  0  0  0
 13 16  1  0  0  0
 16 17  3  0  0  0
  3  4  1  0  0  0
  4  5  1  0  0  0
  5  6  2  0  0  0
  6  7  1  0  0  0
  7  8  2  0  0  0
  8  9  1  0  0  0
  9  1  2  0  0  0
 15 10  1  0  0  0
  8  4  1  0  0  0
 18 19  1  0  0  0
M  END
> <minimizedAffinity>
-7.17575

> <CNNscore>
0.5445902944

> <CNNaffinity>
6.6699781418

> <CNN_VS>
3.6324052811

> <CNNaffinity_variance>
0.1932228506

$$$$
[H]c1nc2c([H])c(N([H])C([H])([H])C([H])([H])OC([H])([H])[H])c([H])c(-c3c([H])c([H])c(C#N)c([H])c3[H])n2n1


 23 25  0  0  0  0  0  0  0  0999 V2000
   15.3466   24.3803   -3.5314 C   0  0  0  0  0  0  0  0  0  0  0  0
   14.2050   23.7364   -3.1007 C   0  0  0  0  0  0  0  0  0  0  0  0
   13.9370   23.5804   -1.7523 C   0  0  0  0  0  0  0  0  0  0  0  0
   14.8057   24.0653   -0.8281 N   0  0  0  0  0  0  0  0  0  0  0  0
   14.7923   24.0526    0.4988 N   0  0  0  0  0  0  0  0  0  0  0  0
   15.8825   24.6639    0.9876 C   0  0  0  0  0  0  0  0  0  0  0  0
   16.5887   25.0654   -0.0985 N   0  0  0  0  0  0  0  0  0  0  0  0
   15.9299   24.6992   -1.2113 C   0  0  0  0  0  0  0  0  0  0  0  0
   16.1966   24.8546   -2.5740 C   0  0  0  0  0  0  0  0  0  0  0  0
   12.7400   22.9053   -1.3316 C   0  0  0  0  0  0  0  0  0  0  0  0
   11.5529   23.6167   -1.1290 C   0  0  0  0  0  0  0  0  0  0  0  0
   10.3943   23.0160   -0.7299 C   0  0  0  0  0  0  0  0  0  0  0  0
   10.3912   21.6601   -0.5183 C   0  0  0  0  0  0  0  0  0  0  0  0
   11.5418   20.9481   -0.7111 C   0  0  0  0  0  0  0  0  0  0  0  0
   12.7301   21.5430   -1.1171 C   0  0  0  0  0  0  0  0  0  0  0  0
    9.2015   20.9543   -0.0947 C   0  0  0  0  0  0  0  0  0  0  0  0
    8.2521   20.3872    0.2585 N   0  0  0  0  0  0  0  0  0  0  0  0
   15.5607   24.5062   -4.9243 N   0  0  0  0  0  0  0  0  0  0  0  0
   15.6167   23.6997   -5.5464 H   0  0  0  0  0  0  0  0  0  0  0  0
   15.7033   25.8552   -5.4636 C   0  0  0  0  0  0  0  0  0  0  0  0
   14.3929   26.5440   -5.6083 C   0  0  0  0  0  0  0  0  0  0  0  0
   12.9981   26.9547   -3.8678 C   0  0  0  0  0  0  0  0  0  0  0  0
   14.1252   27.3625   -4.5527 O   0  0  0  0  0  0  0  0  0  0  0  0
 22 23  1  0  0  0
 23 21  1  0  0  0
 21 20  1  0  0  0
 20 18  1  0  0  0
 18  1  1  0  0  0
  1  2  1  0  0  0
  2  3  2  0  0  0
  3 10  1  0  0  0
 10 11  2  0  0  0
 11 12  1  0  0  0
 12 13  2  0  0  0
 13 14  1  0  0  0
 14 15  2  0  0  0
 13 16  1  0  0  0
 16 17  3  0  0  0
  3  4  1  0  0  0
  4  5  1  0  0  0
  5  6  2  0  0  0
  6  7  1  0  0  0
  7  8  2  0  0  0
  8  9  1  0  0  0
  9  1  2  0  0  0
 15 10  1  0  0  0
  8  4  1  0  0  0
 18 19  1  0  0  0
M  END
> <minimizedAffinity>
-5.89838

> <CNNscore>
0.4951107800

> <CNNaffinity>
6.8235559464

> <CNN_VS>
3.3784160614

> <CNNaffinity_variance>
0.0614438429

$$$$
[H]c1nc2c([H])c(N([H])C([H])([H])C([H])([H])OC([H])([H])[H])c([H])c(-c3c([H])c([H])c(C#N)c([H])c3[H])n2n1


 23 25  0  0  0  0  0  0  0  0999 V2000
   11.3085   23.9936    0.7954 C   0  0  0  0  0  0  0  0  0  0  0  0
   11.9102   24.6842   -0.2362 C   0  0  0  0  0  0  0  0  0  0  0  0
   12.6953   24.0331   -1.1711 C   0  0  0  0  0  0  0  0  0  0  0  0
   12.8839   22.6912   -1.0812 N   0  0  0  0  0  0  0  0  0  0  0  0
   13.5733   21.8375   -1.8273 N   0  0  0  0  0  0  0  0  0  0  0  0
   13.4634   20.5911   -1.3418 C   0  0  0  0  0  0  0  0  0  0  0  0
   12.6681   20.6984   -0.2484 N   0  0  0  0  0  0  0  0  0  0  0  0
   12.3125   21.9845   -0.0879 C   0  0  0  0  0  0  0  0  0  0  0  0
   11.5203   22.6461    0.8540 C   0  0  0  0  0  0  0  0  0  0  0  0
   13.3103   24.7773   -2.2357 C   0  0  0  0  0  0  0  0  0  0  0  0
   14.5289   24.3644   -2.7841 C   0  0  0  0  0  0  0  0  0  0  0  0
   15.1474   25.0409   -3.7951 C   0  0  0  0  0  0  0  0  0  0  0  0
   14.5520   26.1715   -4.2955 C   0  0  0  0  0  0  0  0  0  0  0  0
   13.3610   26.5906   -3.7723 C   0  0  0  0  0  0  0  0  0  0  0  0
   12.7173   25.9144   -2.7430 C   0  0  0  0  0  0  0  0  0  0  0  0
   15.1480   26.9403   -5.3664 C   0  0  0  0  0  0  0  0  0  0  0  0
   15.6371   27.5481   -6.2260 N   0  0  0  0  0  0  0  0  0  0  0  0
   10.5182   24.7196    1.7176 N   0  0  0  0  0  0  0  0  0  0  0  0
   10.4322   25.7356    1.6865 H   0  0  0  0  0  0  0  0  0  0  0  0
    9.8099   23.9582    2.7420 C   0  0  0  0  0  0  0  0  0  0  0  0
    9.2197   24.8363    3.7875 C   0  0  0  0  0  0  0  0  0  0  0  0
    8.7686   26.9666    4.4214 C   0  0  0  0  0  0  0  0  0  0  0  0
    9.1595   26.1377    3.3890 O   0  0  0  0  0  0  0  0  0  0  0  0
 22 23  1  0  0  0
 23 21  1  0  0  0
 21 20  1  0  0  0
 20 18  1  0  0  0
 18  1  1  0  0  0
  1  2  1  0  0  0
  2  3  2  0  0  0
  3 10  1  0  0  0
 10 11  2  0  0  0
 11 12  1  0  0  0
 12 13  2  0  0  0
 13 14  1  0  0  0
 14 15  2  0  0  0
 13 16  1  0  0  0
 16 17  3  0  0  0
  3  4  1  0  0  0
  4  5  1  0  0  0
  5  6  2  0  0  0
  6  7  1  0  0  0
  7  8  2  0  0  0
  8  9  1  0  0  0
  9  1  2  0  0  0
 15 10  1  0  0  0
  8  4  1  0  0  0
 18 19  1  0  0  0
M  END
> <minimizedAffinity>
-8.28821

> <CNNscore>
0.4633989930

> <CNNaffinity>
6.2886786461

> <CNN_VS>
2.9141674042

> <CNNaffinity_variance>
0.0453969464

$$$$
[H]c1nc2c([H])c(N([H])C([H])([H])C([H])([H])OC([H])([H])[H])c([H])c(-c3c([H])c([H])c(C#N)c([H])c3[H])n2n1


 23 25  0  0  0  0  0  0  0  0999 V2000
   13.0804   20.6324   -2.0230 C   0  0  0  0  0  0  0  0  0  0  0  0
   14.1866   21.2271   -1.4522 C   0  0  0  0  0  0  0  0  0  0  0  0
   14.0749   21.9958   -0.3072 C   0  0  0  0  0  0  0  0  0  0  0  0
   12.8603   22.1747    0.2731 N   0  0  0  0  0  0  0  0  0  0  0  0
   12.4797   22.8484    1.3512 N   0  0  0  0  0  0  0  0  0  0  0  0
   11.1551   22.7344    1.5356 C   0  0  0  0  0  0  0  0  0  0  0  0
   10.7150   21.9531    0.5181 N   0  0  0  0  0  0  0  0  0  0  0  0
   11.7587   21.6097   -0.2559 C   0  0  0  0  0  0  0  0  0  0  0  0
   11.8761   20.8341   -1.4122 C   0  0  0  0  0  0  0  0  0  0  0  0
   15.2440   22.6039    0.2663 C   0  0  0  0  0  0  0  0  0  0  0  0
   15.4889   23.9716    0.1057 C   0  0  0  0  0  0  0  0  0  0  0  0
   16.5857   24.5893    0.6329 C   0  0  0  0  0  0  0  0  0  0  0  0
   17.4854   23.8411    1.3497 C   0  0  0  0  0  0  0  0  0  0  0  0
   17.2630   22.5031    1.5172 C   0  0  0  0  0  0  0  0  0  0  0  0
   16.1522   21.8577    0.9876 C   0  0  0  0  0  0  0  0  0  0  0  0
   18.6706   24.4262    1.9381 C   0  0  0  0  0  0  0  0  0  0  0  0
   19.6176   24.9085    2.4051 N   0  0  0  0  0  0  0  0  0  0  0  0
   13.2636   19.8590   -3.1936 N   0  0  0  0  0  0  0  0  0  0  0  0
   13.4400   18.8546   -3.1662 H   0  0  0  0  0  0  0  0  0  0  0  0
   13.1921   20.5526   -4.4760 C   0  0  0  0  0  0  0  0  0  0  0  0
   14.5320   20.7210   -5.0995 C   0  0  0  0  0  0  0  0  0  0  0  0
   14.8717   22.7466   -4.1377 C   0  0  0  0  0  0  0  0  0  0  0  0
   15.3658   21.4715   -4.3265 O   0  0  0  0  0  0  0  0  0  0  0  0
 22 23  1  0  0  0
 23 21  1  0  0  0
 21 20  1  0  0  0
 20 18  1  0  0  0
 18  1  1  0  0  0
  1  2  1  0  0  0
  2  3  2  0  0  0
  3 10  1  0  0  0
 10 11  2  0  0  0
 11 12  1  0  0  0
 12 13  2  0  0  0
 13 14  1  0  0  0
 14 15  2  0  0  0
 13 16  1  0  0  0
 16 17  3  0  0  0
  3  4  1  0  0  0
  4  5  1  0  0  0
  5  6  2  0  0  0
  6  7  1  0  0  0
  7  8  2  0  0  0
  8  9  1  0  0  0
  9  1  2  0  0  0
 15 10  1  0  0  0
  8  4  1  0  0  0
 18 19  1  0  0  0
M  END
> <minimizedAffinity>
8.61427

> <CNNscore>
0.4241964817

> <CNNaffinity>
6.2821130753

> <CNN_VS>
2.6648502350

> <CNNaffinity_variance>
0.9431613684

$$$$
[H]c1nc2c([H])c(N([H])C([H])([H])C([H])([H])OC([H])([H])[H])c([H])c(-c3c([H])c([H])c(C#N)c([H])c3[H])n2n1


 23 25  0  0  0  0  0  0  0  0999 V2000
   10.0947   23.5316    0.7452 C   0  0  0  0  0  0  0  0  0  0  0  0
   10.9361   23.0082   -0.2147 C   0  0  0  0  0  0  0  0  0  0  0  0
   12.1617   23.5900   -0.4860 C   0  0  0  0  0  0  0  0  0  0  0  0
   12.5533   24.6958    0.1982 N   0  0  0  0  0  0  0  0  0  0  0  0
   13.6527   25.4364    0.1382 N   0  0  0  0  0  0  0  0  0  0  0  0
   13.5910   26.4449    1.0217 C   0  0  0  0  0  0  0  0  0  0  0  0
   12.3949   26.3055    1.6456 N   0  0  0  0  0  0  0  0  0  0  0  0
   11.7584   25.2343    1.1419 C   0  0  0  0  0  0  0  0  0  0  0  0
   10.5215   24.6434    1.4128 C   0  0  0  0  0  0  0  0  0  0  0  0
   13.0185   23.0238   -1.4914 C   0  0  0  0  0  0  0  0  0  0  0  0
   13.1106   21.6375   -1.6527 C   0  0  0  0  0  0  0  0  0  0  0  0
   13.9110   21.0581   -2.5939 C   0  0  0  0  0  0  0  0  0  0  0  0
   14.6562   21.8654   -3.4161 C   0  0  0  0  0  0  0  0  0  0  0  0
   14.5794   23.2225   -3.2734 C   0  0  0  0  0  0  0  0  0  0  0  0
   13.7701   23.8296   -2.3209 C   0  0  0  0  0  0  0  0  0  0  0  0
   15.5270   21.3235   -4.4365 C   0  0  0  0  0  0  0  0  0  0  0  0
   16.2161   20.8783   -5.2578 N   0  0  0  0  0  0  0  0  0  0  0  0
    8.8553   22.8883    0.9737 N   0  0  0  0  0  0  0  0  0  0  0  0
    8.6309   21.9735    0.5819 H   0  0  0  0  0  0  0  0  0  0  0  0
    7.8795   23.5848    1.8065 C   0  0  0  0  0  0  0  0  0  0  0  0
    7.4111   22.7476    2.9431 C   0  0  0  0  0  0  0  0  0  0  0  0
    7.2265   24.8196    3.8466 C   0  0  0  0  0  0  0  0  0  0  0  0
    7.3036   23.4642    4.0968 O   0  0  0  0  0  0  0  0  0  0  0  0
 22 23  1  0  0  0
 23 21  1  0  0  0
 21 20  1  0  0  0
 20 18  1  0  0  0
 18  1  1  0  0  0
  1  2  1  0  0  0
  2  3  2  0  0  0
  3 10  1  0  0  0
 10 11  2  0  0  0
 11 12  1  0  0  0
 12 13  2  0  0  0
 13 14  1  0  0  0
 14 15  2  0  0  0
 13 16  1  0  0  0
 16 17  3  0  0  0
  3  4  1  0  0  0
  4  5  1  0  0  0
  5  6  2  0  0  0
  6  7  1  0  0  0
  7  8  2  0  0  0
  8  9  1  0  0  0
  9  1  2  0  0  0
 15 10  1  0  0  0
  8  4  1  0  0  0
 18 19  1  0  0  0
M  END
> <minimizedAffinity>
4.18726

> <CNNscore>
0.4178312421

> <CNNaffinity>
5.8861784935

> <CNN_VS>
2.4594292641

> <CNNaffinity_variance>
0.9580024481

$$$$
[H]c1nc2c([H])c(N([H])[H])c([H])c(-c3c([H])c(F)c(C#N)c([H])c3C([H])([H])[H])n2n1


 22 24  0  0  0  0  0  0  0  0999 V2000
   13.9242   22.8023   -1.2194 C   0  0  0  0  0  0  0  0  0  0  0  0
   14.9718   22.5550   -0.3622 C   0  0  0  0  0  0  0  0  0  0  0  0
   14.8489   21.6155    0.6697 C   0  0  0  0  0  0  0  0  0  0  0  0
   15.9250   21.3605    1.5515 N   0  0  0  0  0  0  0  0  0  0  0  0
   13.6296   20.9786    0.7534 C   0  0  0  0  0  0  0  0  0  0  0  0
   12.5722   21.2266   -0.1100 C   0  0  0  0  0  0  0  0  0  0  0  0
   11.3220   20.7401   -0.2192 N   0  0  0  0  0  0  0  0  0  0  0  0
   10.7114   21.3400   -1.2516 C   0  0  0  0  0  0  0  0  0  0  0  0
   11.6129   22.1965   -1.7643 N   0  0  0  0  0  0  0  0  0  0  0  0
   12.7542   22.1548   -1.0966 N   0  0  0  0  0  0  0  0  0  0  0  0
   16.2588   22.0498    2.2473 H   0  0  0  0  0  0  0  0  0  0  0  0
   16.4011   20.4423    1.4988 H   0  0  0  0  0  0  0  0  0  0  0  0
   12.4957   25.2969   -1.1803 C   0  0  0  0  0  0  0  0  0  0  0  0
   13.4283   24.9851   -2.2724 C   0  0  0  0  0  0  0  0  0  0  0  0
   13.6001   25.9151   -3.2733 C   0  0  0  0  0  0  0  0  0  0  0  0
   14.4717   25.6815   -4.3406 C   0  0  0  0  0  0  0  0  0  0  0  0
   15.1404   24.4772   -4.3294 C   0  0  0  0  0  0  0  0  0  0  0  0
   16.0096   24.1887   -5.3488 F   0  0  0  0  0  0  0  0  0  0  0  0
   14.9674   23.5365   -3.3180 C   0  0  0  0  0  0  0  0  0  0  0  0
   14.1024   23.7860   -2.2731 C   0  0  0  0  0  0  0  0  0  0  0  0
   14.6574   26.6413   -5.3856 C   0  0  0  0  0  0  0  0  0  0  0  0
   14.8151   27.4028   -6.2306 N   0  0  0  0  0  0  0  0  0  0  0  0
 13 14  1  0  0  0
 14 15  2  0  0  0
 15 16  1  0  0  0
 16 21  1  0  0  0
 21 22  3  0  0  0
 16 17  2  0  0  0
 17 18  1  0  0  0
 17 19  1  0  0  0
 19 20  2  0  0  0
 20  1  1  0  0  0
  1  2  2  0  0  0
  2  3  1  0  0  0
  3  4  1  0  0  0
  3  5  2  0  0  0
  5  6  1  0  0  0
  6  7  2  0  0  0
  7  8  1  0  0  0
  8  9  2  0  0  0
  9 10  1  0  0  0
 20 14  1  0  0  0
 10  1  1  0  0  0
 10  6  1  0  0  0
  4 11  1  0  0  0
  4 12  1  0  0  0
M  END
> <minimizedAffinity>
-8.85850

> <CNNscore>
0.6954046488

> <CNNaffinity>
7.0019197464

> <CNN_VS>
4.8691673279

> <CNNaffinity_variance>
0.1124838144

$$$$
[H]c1nc2c([H])c(N([H])[H])c([H])c(-c3c([H])c(F)c(C#N)c([H])c3C([H])([H])[H])n2n1


 22 24  0  0  0  0  0  0  0  0999 V2000
   13.0486   22.7369   -1.3530 C   0  0  0  0  0  0  0  0  0  0  0  0
   11.7566   22.2999   -1.5352 C   0  0  0  0  0  0  0  0  0  0  0  0
   11.2263   21.2750   -0.7409 C   0  0  0  0  0  0  0  0  0  0  0  0
    9.8984   20.8250   -0.9274 N   0  0  0  0  0  0  0  0  0  0  0  0
   12.0789   20.7560    0.2093 C   0  0  0  0  0  0  0  0  0  0  0  0
   13.3820   21.1953    0.3945 C   0  0  0  0  0  0  0  0  0  0  0  0
   14.3736   20.8484    1.2359 N   0  0  0  0  0  0  0  0  0  0  0  0
   15.4475   21.6093    0.9785 C   0  0  0  0  0  0  0  0  0  0  0  0
   15.0885   22.4215   -0.0318 N   0  0  0  0  0  0  0  0  0  0  0  0
   13.8412   22.1984   -0.4121 N   0  0  0  0  0  0  0  0  0  0  0  0
    9.5929   20.3035   -1.7673 H   0  0  0  0  0  0  0  0  0  0  0  0
    9.1995   21.0264   -0.1902 H   0  0  0  0  0  0  0  0  0  0  0  0
   12.0162   25.4122   -1.1485 C   0  0  0  0  0  0  0  0  0  0  0  0
   13.0702   25.0885   -2.1200 C   0  0  0  0  0  0  0  0  0  0  0  0
   13.5493   26.0959   -2.9275 C   0  0  0  0  0  0  0  0  0  0  0  0
   14.5510   25.8559   -3.8721 C   0  0  0  0  0  0  0  0  0  0  0  0
   15.0238   24.5641   -3.9446 C   0  0  0  0  0  0  0  0  0  0  0  0
   16.0066   24.2646   -4.8513 F   0  0  0  0  0  0  0  0  0  0  0  0
   14.5400   23.5450   -3.1289 C   0  0  0  0  0  0  0  0  0  0  0  0
   13.5510   23.8024   -2.2026 C   0  0  0  0  0  0  0  0  0  0  0  0
   15.0558   26.8957   -4.7158 C   0  0  0  0  0  0  0  0  0  0  0  0
   15.4735   27.7245   -5.3921 N   0  0  0  0  0  0  0  0  0  0  0  0
 13 14  1  0  0  0
 14 15  2  0  0  0
 15 16  1  0  0  0
 16 21  1  0  0  0
 21 22  3  0  0  0
 16 17  2  0  0  0
 17 18  1  0  0  0
 17 19  1  0  0  0
 19 20  2  0  0  0
 20  1  1  0  0  0
  1  2  2  0  0  0
  2  3  1  0  0  0
  3  4  1  0  0  0
  3  5  2  0  0  0
  5  6  1  0  0  0
  6  7  2  0  0  0
  7  8  1  0  0  0
  8  9  2  0  0  0
  9 10  1  0  0  0
 20 14  1  0  0  0
 10  1  1  0  0  0
 10  6  1  0  0  0
  4 11  1  0  0  0
  4 12  1  0  0  0
M  END
> <minimizedAffinity>
-8.06565

> <CNNscore>
0.6863751411

> <CNNaffinity>
7.0977544785

> <CNN_VS>
4.8717222214

> <CNNaffinity_variance>
0.3981888890

$$$$
[H]c1nc2c([H])c(N([H])[H])c([H])c(-c3c([H])c(F)c(C#N)c([H])c3C([H])([H])[H])n2n1


 22 24  0  0  0  0  0  0  0  0999 V2000
   13.5373   24.6377   -1.9328 C   0  0  0  0  0  0  0  0  0  0  0  0
   12.1801   24.4297   -1.8429 C   0  0  0  0  0  0  0  0  0  0  0  0
   11.5817   24.1132   -0.6163 C   0  0  0  0  0  0  0  0  0  0  0  0
   10.1867   23.8992   -0.5227 N   0  0  0  0  0  0  0  0  0  0  0  0
   12.4380   24.0298    0.4603 C   0  0  0  0  0  0  0  0  0  0  0  0
   13.8068   24.2392    0.3716 C   0  0  0  0  0  0  0  0  0  0  0  0
   14.8152   24.2125    1.2627 N   0  0  0  0  0  0  0  0  0  0  0  0
   15.9627   24.4941    0.6283 C   0  0  0  0  0  0  0  0  0  0  0  0
   15.6311   24.6914   -0.6603 N   0  0  0  0  0  0  0  0  0  0  0  0
   14.3306   24.5449   -0.8532 N   0  0  0  0  0  0  0  0  0  0  0  0
    9.7131   23.0799   -0.9412 H   0  0  0  0  0  0  0  0  0  0  0  0
    9.6126   24.5937   -0.0123 H   0  0  0  0  0  0  0  0  0  0  0  0
   15.1228   22.7258   -3.3805 C   0  0  0  0  0  0  0  0  0  0  0  0
   14.8700   24.0626   -3.9358 C   0  0  0  0  0  0  0  0  0  0  0  0
   15.4101   24.3754   -5.1634 C   0  0  0  0  0  0  0  0  0  0  0  0
   15.2082   25.6286   -5.7483 C   0  0  0  0  0  0  0  0  0  0  0  0
   14.4443   26.5211   -5.0290 C   0  0  0  0  0  0  0  0  0  0  0  0
   14.2099   27.7672   -5.5489 F   0  0  0  0  0  0  0  0  0  0  0  0
   13.8980   26.2060   -3.7880 C   0  0  0  0  0  0  0  0  0  0  0  0
   14.1089   24.9634   -3.2277 C   0  0  0  0  0  0  0  0  0  0  0  0
   15.7649   25.9634   -7.0233 C   0  0  0  0  0  0  0  0  0  0  0  0
   16.2149   26.2187   -8.0485 N   0  0  0  0  0  0  0  0  0  0  0  0
 13 14  1  0  0  0
 14 15  2  0  0  0
 15 16  1  0  0  0
 16 21  1  0  0  0
 21 22  3  0  0  0
 16 17  2  0  0  0
 17 18  1  0  0  0
 17 19  1  0  0  0
 19 20  2  0  0  0
 20  1  1  0  0  0
  1  2  2  0  0  0
  2  3  1  0  0  0
  3  4  1  0  0  0
  3  5  2  0  0  0
  5  6  1  0  0  0
  6  7  2  0  0  0
  7  8  1  0  0  0
  8  9  2  0  0  0
  9 10  1  0  0  0
 20 14  1  0  0  0
 10  1  1  0  0  0
 10  6  1  0  0  0
  4 11  1  0  0  0
  4 12  1  0  0  0
M  END
> <minimizedAffinity>
-7.84540

> <CNNscore>
0.6687777638

> <CNNaffinity>
6.7648687363

> <CNN_VS>
4.5241937637

> <CNNaffinity_variance>
0.2939546108

$$$$
[H]c1nc2c([H])c(N([H])[H])c([H])c(-c3c([H])c(F)c(C#N)c([H])c3C([H])([H])[H])n2n1


 22 24  0  0  0  0  0  0  0  0999 V2000
   15.9294   25.9752   -3.0562 C   0  0  0  0  0  0  0  0  0  0  0  0
   17.1725   26.5082   -2.8032 C   0  0  0  0  0  0  0  0  0  0  0  0
   17.7027   27.5141   -3.6215 C   0  0  0  0  0  0  0  0  0  0  0  0
   18.9804   28.0627   -3.3623 N   0  0  0  0  0  0  0  0  0  0  0  0
   16.9015   27.9140   -4.6690 C   0  0  0  0  0  0  0  0  0  0  0  0
   15.6478   27.3778   -4.9257 C   0  0  0  0  0  0  0  0  0  0  0  0
   14.7097   27.6040   -5.8641 N   0  0  0  0  0  0  0  0  0  0  0  0
   13.6671   26.7907   -5.6406 C   0  0  0  0  0  0  0  0  0  0  0  0
   13.9904   26.0696   -4.5521 N   0  0  0  0  0  0  0  0  0  0  0  0
   15.1858   26.3991   -4.0910 N   0  0  0  0  0  0  0  0  0  0  0  0
   19.8583   27.5290   -3.4855 H   0  0  0  0  0  0  0  0  0  0  0  0
   19.0408   29.0431   -3.0343 H   0  0  0  0  0  0  0  0  0  0  0  0
   15.4084   23.3246   -4.0398 C   0  0  0  0  0  0  0  0  0  0  0  0
   15.1693   23.6603   -2.6293 C   0  0  0  0  0  0  0  0  0  0  0  0
   14.6909   22.6762   -1.7933 C   0  0  0  0  0  0  0  0  0  0  0  0
   14.4420   22.9287   -0.4413 C   0  0  0  0  0  0  0  0  0  0  0  0
   14.7020   24.2082   -0.0021 C   0  0  0  0  0  0  0  0  0  0  0  0
   14.4782   24.5189    1.3136 F   0  0  0  0  0  0  0  0  0  0  0  0
   15.1855   25.2037   -0.8465 C   0  0  0  0  0  0  0  0  0  0  0  0
   15.4247   24.9343   -2.1779 C   0  0  0  0  0  0  0  0  0  0  0  0
   13.9450   21.9131    0.4357 C   0  0  0  0  0  0  0  0  0  0  0  0
   13.5423   21.1078    1.1486 N   0  0  0  0  0  0  0  0  0  0  0  0
 13 14  1  0  0  0
 14 15  2  0  0  0
 15 16  1  0  0  0
 16 21  1  0  0  0
 21 22  3  0  0  0
 16 17  2  0  0  0
 17 18  1  0  0  0
 17 19  1  0  0  0
 19 20  2  0  0  0
 20  1  1  0  0  0
  1  2  2  0  0  0
  2  3  1  0  0  0
  3  4  1  0  0  0
  3  5  2  0  0  0
  5  6  1  0  0  0
  6  7  2  0  0  0
  7  8  1  0  0  0
  8  9  2  0  0  0
  9 10  1  0  0  0
 20 14  1  0  0  0
 10  1  1  0  0  0
 10  6  1  0  0  0
  4 11  1  0  0  0
  4 12  1  0  0  0
M  END
> <minimizedAffinity>
-5.99699

> <CNNscore>
0.6240624189

> <CNNaffinity>
6.9928207397

> <CNN_VS>
4.3639564514

> <CNNaffinity_variance>
0.4016971588

$$$$
[H]c1nc2c([H])c(N([H])[H])c([H])c(-c3c([H])c(F)c(C#N)c([H])c3C([H])([H])[H])n2n1


 22 24  0  0  0  0  0  0  0  0999 V2000
   12.6682   23.8143   -0.8531 C   0  0  0  0  0  0  0  0  0  0  0  0
   11.5075   24.2861   -0.2840 C   0  0  0  0  0  0  0  0  0  0  0  0
   10.9478   23.6547    0.8343 C   0  0  0  0  0  0  0  0  0  0  0  0
    9.7548   24.1388    1.4200 N   0  0  0  0  0  0  0  0  0  0  0  0
   11.6341   22.5556    1.3035 C   0  0  0  0  0  0  0  0  0  0  0  0
   12.8044   22.0784    0.7310 C   0  0  0  0  0  0  0  0  0  0  0  0
   13.6280   21.0505    1.0083 N   0  0  0  0  0  0  0  0  0  0  0  0
   14.6318   21.0465    0.1191 C   0  0  0  0  0  0  0  0  0  0  0  0
   14.4014   22.0885   -0.6997 N   0  0  0  0  0  0  0  0  0  0  0  0
   13.3006   22.7379   -0.3583 N   0  0  0  0  0  0  0  0  0  0  0  0
    8.8336   24.0807    0.9524 H   0  0  0  0  0  0  0  0  0  0  0  0
    9.8049   24.5712    2.3597 H   0  0  0  0  0  0  0  0  0  0  0  0
   14.8835   22.7300   -2.3303 C   0  0  0  0  0  0  0  0  0  0  0  0
   14.2670   24.0023   -2.7312 C   0  0  0  0  0  0  0  0  0  0  0  0
   14.7758   24.6600   -3.8289 C   0  0  0  0  0  0  0  0  0  0  0  0
   14.2361   25.8738   -4.2636 C   0  0  0  0  0  0  0  0  0  0  0  0
   13.1761   26.3657   -3.5343 C   0  0  0  0  0  0  0  0  0  0  0  0
   12.6029   27.5523   -3.9101 F   0  0  0  0  0  0  0  0  0  0  0  0
   12.6612   25.7017   -2.4245 C   0  0  0  0  0  0  0  0  0  0  0  0
   13.2079   24.5046   -2.0115 C   0  0  0  0  0  0  0  0  0  0  0  0
   14.7574   26.5650   -5.4030 C   0  0  0  0  0  0  0  0  0  0  0  0
   15.1754   27.1316   -6.3102 N   0  0  0  0  0  0  0  0  0  0  0  0
 13 14  1  0  0  0
 14 15  2  0  0  0
 15 16  1  0  0  0
 16 21  1  0  0  0
 21 22  3  0  0  0
 16 17  2  0  0  0
 17 18  1  0  0  0
 17 19  1  0  0  0
 19 20  2  0  0  0
 20  1  1  0  0  0
  1  2  2  0  0  0
  2  3  1  0  0  0
  3  4  1  0  0  0
  3  5  2  0  0  0
  5  6  1  0  0  0
  6  7  2  0  0  0
  7  8  1  0  0  0
  8  9  2  0  0  0
  9 10  1  0  0  0
 20 14  1  0  0  0
 10  1  1  0  0  0
 10  6  1  0  0  0
  4 11  1  0  0  0
  4 12  1  0  0  0
M  END
> <minimizedAffinity>
-8.94797

> <CNNscore>
0.5568990111

> <CNNaffinity>
6.7375631332

> <CNN_VS>
3.7521421909

> <CNNaffinity_variance>
0.3064320683

$$$$
[H]c1nc2c([H])c(N([H])[H])c([H])c(-c3c([H])c(F)c(C#N)c([H])c3C([H])([H])[H])n2n1


 22 24  0  0  0  0  0  0  0  0999 V2000
   13.0096   23.7386   -0.0819 C   0  0  0  0  0  0  0  0  0  0  0  0
   11.8913   24.2677    0.5208 C   0  0  0  0  0  0  0  0  0  0  0  0
   11.2222   23.5679    1.5332 C   0  0  0  0  0  0  0  0  0  0  0  0
   10.0727   24.1108    2.1534 N   0  0  0  0  0  0  0  0  0  0  0  0
   11.7594   22.3432    1.8661 C   0  0  0  0  0  0  0  0  0  0  0  0
   12.8868   21.8081    1.2596 C   0  0  0  0  0  0  0  0  0  0  0  0
   13.5754   20.6621    1.4146 N   0  0  0  0  0  0  0  0  0  0  0  0
   14.6037   20.6537    0.5537 C   0  0  0  0  0  0  0  0  0  0  0  0
   14.5251   21.8131   -0.1237 N   0  0  0  0  0  0  0  0  0  0  0  0
   13.4950   22.5395    0.2782 N   0  0  0  0  0  0  0  0  0  0  0  0
    9.1685   24.2242    1.6632 H   0  0  0  0  0  0  0  0  0  0  0  0
   10.1383   24.4085    3.1431 H   0  0  0  0  0  0  0  0  0  0  0  0
   11.4937   25.0320   -2.1542 C   0  0  0  0  0  0  0  0  0  0  0  0
   12.9597   25.1301   -2.1265 C   0  0  0  0  0  0  0  0  0  0  0  0
   13.5870   25.8549   -3.1152 C   0  0  0  0  0  0  0  0  0  0  0  0
   14.9779   25.9879   -3.1474 C   0  0  0  0  0  0  0  0  0  0  0  0
   15.6743   25.3564   -2.1406 C   0  0  0  0  0  0  0  0  0  0  0  0
   17.0413   25.4492   -2.1169 F   0  0  0  0  0  0  0  0  0  0  0  0
   15.0411   24.6234   -1.1408 C   0  0  0  0  0  0  0  0  0  0  0  0
   13.6671   24.5041   -1.1266 C   0  0  0  0  0  0  0  0  0  0  0  0
   15.6394   26.7389   -4.1703 C   0  0  0  0  0  0  0  0  0  0  0  0
   16.1592   27.3500   -4.9919 N   0  0  0  0  0  0  0  0  0  0  0  0
 13 14  1  0  0  0
 14 15  2  0  0  0
 15 16  1  0  0  0
 16 21  1  0  0  0
 21 22  3  0  0  0
 16 17  2  0  0  0
 17 18  1  0  0  0
 17 19  1  0  0  0
 19 20  2  0  0  0
 20  1  1  0  0  0
  1  2  2  0  0  0
  2  3  1  0  0  0
  3  4  1  0  0  0
  3  5  2  0  0  0
  5  6  1  0  0  0
  6  7  2  0  0  0
  7  8  1  0  0  0
  8  9  2  0  0  0
  9 10  1  0  0  0
 20 14  1  0  0  0
 10  1  1  0  0  0
 10  6  1  0  0  0
  4 11  1  0  0  0
  4 12  1  0  0  0
M  END
> <minimizedAffinity>
-7.56940

> <CNNscore>
0.4911003709

> <CNNaffinity>
6.6230039597

> <CNN_VS>
3.2525596619

> <CNNaffinity_variance>
0.2939159870

$$$$
[H]c1nc2c([H])c(N([H])[H])c([H])c(-c3c([H])c(F)c(C#N)c([H])c3C([H])([H])[H])n2n1


 22 24  0  0  0  0  0  0  0  0999 V2000
   13.5808   23.4276   -0.4586 C   0  0  0  0  0  0  0  0  0  0  0  0
   14.3065   22.2648   -0.3366 C   0  0  0  0  0  0  0  0  0  0  0  0
   13.9615   21.2999    0.6186 C   0  0  0  0  0  0  0  0  0  0  0  0
   14.7068   20.1043    0.7448 N   0  0  0  0  0  0  0  0  0  0  0  0
   12.8689   21.6014    1.4024 C   0  0  0  0  0  0  0  0  0  0  0  0
   12.1359   22.7733    1.2809 C   0  0  0  0  0  0  0  0  0  0  0  0
   11.0601   23.2720    1.9177 N   0  0  0  0  0  0  0  0  0  0  0  0
   10.7594   24.4679    1.3906 C   0  0  0  0  0  0  0  0  0  0  0  0
   11.6708   24.6835    0.4251 N   0  0  0  0  0  0  0  0  0  0  0  0
   12.5225   23.6757    0.3300 N   0  0  0  0  0  0  0  0  0  0  0  0
   15.6776   20.0806    1.1022 H   0  0  0  0  0  0  0  0  0  0  0  0
   14.2611   19.2117    0.4670 H   0  0  0  0  0  0  0  0  0  0  0  0
   11.6349   24.6987   -2.1506 C   0  0  0  0  0  0  0  0  0  0  0  0
   13.0637   25.0153   -2.2836 C   0  0  0  0  0  0  0  0  0  0  0  0
   13.4458   25.9333   -3.2363 C   0  0  0  0  0  0  0  0  0  0  0  0
   14.7880   26.2796   -3.4149 C   0  0  0  0  0  0  0  0  0  0  0  0
   15.6946   25.6528   -2.5885 C   0  0  0  0  0  0  0  0  0  0  0  0
   17.0264   25.9497   -2.7145 F   0  0  0  0  0  0  0  0  0  0  0  0
   15.3093   24.7246   -1.6253 C   0  0  0  0  0  0  0  0  0  0  0  0
   13.9794   24.3964   -1.4646 C   0  0  0  0  0  0  0  0  0  0  0  0
   15.1954   27.2323   -4.4019 C   0  0  0  0  0  0  0  0  0  0  0  0
   15.5350   27.9913   -5.1940 N   0  0  0  0  0  0  0  0  0  0  0  0
 13 14  1  0  0  0
 14 15  2  0  0  0
 15 16  1  0  0  0
 16 21  1  0  0  0
 21 22  3  0  0  0
 16 17  2  0  0  0
 17 18  1  0  0  0
 17 19  1  0  0  0
 19 20  2  0  0  0
 20  1  1  0  0  0
  1  2  2  0  0  0
  2  3  1  0  0  0
  3  4  1  0  0  0
  3  5  2  0  0  0
  5  6  1  0  0  0
  6  7  2  0  0  0
  7  8  1  0  0  0
  8  9  2  0  0  0
  9 10  1  0  0  0
 20 14  1  0  0  0
 10  1  1  0  0  0
 10  6  1  0  0  0
  4 11  1  0  0  0
  4 12  1  0  0  0
M  END
> <minimizedAffinity>
-7.69593

> <CNNscore>
0.4775403142

> <CNNaffinity>
6.7363419533

> <CNN_VS>
3.2168748379

> <CNNaffinity_variance>
0.2983262539

$$$$
[H]c1nc2c([H])c(N([H])[H])c([H])c(-c3c([H])c(F)c(C#N)c([H])c3C([H])([H])[H])n2n1


 22 24  0  0  0  0  0  0  0  0999 V2000
   14.4234   25.4908   -3.1084 C   0  0  0  0  0  0  0  0  0  0  0  0
   13.4739   26.4654   -2.9032 C   0  0  0  0  0  0  0  0  0  0  0  0
   13.0338   27.2731   -3.9599 C   0  0  0  0  0  0  0  0  0  0  0  0
   12.0579   28.2751   -3.7501 N   0  0  0  0  0  0  0  0  0  0  0  0
   13.6122   27.0192   -5.1847 C   0  0  0  0  0  0  0  0  0  0  0  0
   14.5698   26.0369   -5.3936 C   0  0  0  0  0  0  0  0  0  0  0  0
   15.2578   25.6178   -6.4718 N   0  0  0  0  0  0  0  0  0  0  0  0
   16.0707   24.6161   -6.1056 C   0  0  0  0  0  0  0  0  0  0  0  0
   15.8626   24.4368   -4.7889 N   0  0  0  0  0  0  0  0  0  0  0  0
   14.9578   25.2818   -4.3225 N   0  0  0  0  0  0  0  0  0  0  0  0
   12.2393   29.1318   -3.1988 H   0  0  0  0  0  0  0  0  0  0  0  0
   11.1187   28.1463   -4.1670 H   0  0  0  0  0  0  0  0  0  0  0  0
   12.7874   23.3391   -2.1292 C   0  0  0  0  0  0  0  0  0  0  0  0
   14.0778   23.6464   -1.4967 C   0  0  0  0  0  0  0  0  0  0  0  0
   14.4822   22.8800   -0.4264 C   0  0  0  0  0  0  0  0  0  0  0  0
   15.6978   23.1190    0.2205 C   0  0  0  0  0  0  0  0  0  0  0  0
   16.4575   24.1567   -0.2731 C   0  0  0  0  0  0  0  0  0  0  0  0
   17.6604   24.4413    0.3184 F   0  0  0  0  0  0  0  0  0  0  0  0
   16.0495   24.9320   -1.3549 C   0  0  0  0  0  0  0  0  0  0  0  0
   14.8461   24.6800   -1.9799 C   0  0  0  0  0  0  0  0  0  0  0  0
   16.1272   22.3284    1.3333 C   0  0  0  0  0  0  0  0  0  0  0  0
   16.4606   21.6858    2.2248 N   0  0  0  0  0  0  0  0  0  0  0  0
 13 14  1  0  0  0
 14 15  2  0  0  0
 15 16  1  0  0  0
 16 21  1  0  0  0
 21 22  3  0  0  0
 16 17  2  0  0  0
 17 18  1  0  0  0
 17 19  1  0  0  0
 19 20  2  0  0  0
 20  1  1  0  0  0
  1  2  2  0  0  0
  2  3  1  0  0  0
  3  4  1  0  0  0
  3  5  2  0  0  0
  5  6  1  0  0  0
  6  7  2  0  0  0
  7  8  1  0  0  0
  8  9  2  0  0  0
  9 10  1  0  0  0
 20 14  1  0  0  0
 10  1  1  0  0  0
 10  6  1  0  0  0
  4 11  1  0  0  0
  4 12  1  0  0  0
M  END
> <minimizedAffinity>
1.11485

> <CNNscore>
0.4359438717

> <CNNaffinity>
6.3091592789

> <CNN_VS>
2.7504394054

> <CNNaffinity_variance>
0.3218421340

$$$$
[H]c1nc2c([H])c(N([H])[H])c([H])c(-c3c([H])c(F)c(C#N)c([H])c3C([H])([H])[H])n2n1


 22 24  0  0  0  0  0  0  0  0999 V2000
   15.4578   25.5359   -2.5196 C   0  0  0  0  0  0  0  0  0  0  0  0
   16.7566   25.9904   -2.5131 C   0  0  0  0  0  0  0  0  0  0  0  0
   17.1384   27.0853   -3.2992 C   0  0  0  0  0  0  0  0  0  0  0  0
   18.4731   27.5532   -3.2932 N   0  0  0  0  0  0  0  0  0  0  0  0
   16.1368   27.6528   -4.0567 C   0  0  0  0  0  0  0  0  0  0  0  0
   14.8266   27.1961   -4.0647 C   0  0  0  0  0  0  0  0  0  0  0  0
   13.7076   27.5805   -4.7062 N   0  0  0  0  0  0  0  0  0  0  0  0
   12.6992   26.7754   -4.3406 C   0  0  0  0  0  0  0  0  0  0  0  0
   13.2272   25.8986   -3.4678 N   0  0  0  0  0  0  0  0  0  0  0  0
   14.5167   26.1237   -3.2761 N   0  0  0  0  0  0  0  0  0  0  0  0
   19.2603   27.0160   -3.6965 H   0  0  0  0  0  0  0  0  0  0  0  0
   18.6724   28.4753   -2.8660 H   0  0  0  0  0  0  0  0  0  0  0  0
   15.7539   25.6413    0.3381 C   0  0  0  0  0  0  0  0  0  0  0  0
   15.2474   24.4278   -0.3181 C   0  0  0  0  0  0  0  0  0  0  0  0
   14.9193   23.3459    0.4681 C   0  0  0  0  0  0  0  0  0  0  0  0
   14.4322   22.1616   -0.0920 C   0  0  0  0  0  0  0  0  0  0  0  0
   14.3023   22.1440   -1.4633 C   0  0  0  0  0  0  0  0  0  0  0  0
   13.8298   21.0113   -2.0729 F   0  0  0  0  0  0  0  0  0  0  0  0
   14.6338   23.2372   -2.2588 C   0  0  0  0  0  0  0  0  0  0  0  0
   15.1129   24.3971   -1.6867 C   0  0  0  0  0  0  0  0  0  0  0  0
   14.0883   21.0318    0.7160 C   0  0  0  0  0  0  0  0  0  0  0  0
   13.8093   20.1336    1.3751 N   0  0  0  0  0  0  0  0  0  0  0  0
 13 14  1  0  0  0
 14 15  2  0  0  0
 15 16  1  0  0  0
 16 21  1  0  0  0
 21 22  3  0  0  0
 16 17  2  0  0  0
 17 18  1  0  0  0
 17 19  1  0  0  0
 19 20  2  0  0  0
 20  1  1  0  0  0
  1  2  2  0  0  0
  2  3  1  0  0  0
  3  4  1  0  0  0
  3  5  2  0  0  0
  5  6  1  0  0  0
  6  7  2  0  0  0
  7  8  1  0  0  0
  8  9  2  0  0  0
  9 10  1  0  0  0
 20 14  1  0  0  0
 10  1  1  0  0  0
 10  6  1  0  0  0
  4 11  1  0  0  0
  4 12  1  0  0  0
M  END
> <minimizedAffinity>
-4.94022

> <CNNscore>
0.4298439026

> <CNNaffinity>
6.6162862778

> <CNN_VS>
2.8439702988

> <CNNaffinity_variance>
0.2531913817

$$$$
[H]c1nc2c([H])c([H])c([H])c(-c3c([H])c([H])c(C#N)c([H])c3C([H])([H])[H])n2n1


 18 20  0  0  0  0  0  0  0  0999 V2000
   15.0649   22.9701   -3.2964 C   0  0  0  0  0  0  0  0  0  0  0  0
   14.8004   24.2947   -3.8645 C   0  0  0  0  0  0  0  0  0  0  0  0
   15.3708   24.6473   -5.0666 C   0  0  0  0  0  0  0  0  0  0  0  0
   15.1284   25.9032   -5.6190 C   0  0  0  0  0  0  0  0  0  0  0  0
   14.3170   26.8191   -4.9811 C   0  0  0  0  0  0  0  0  0  0  0  0
   13.7599   26.4358   -3.7779 C   0  0  0  0  0  0  0  0  0  0  0  0
   14.0019   25.1781   -3.2233 C   0  0  0  0  0  0  0  0  0  0  0  0
   13.3485   24.9082   -1.9476 C   0  0  0  0  0  0  0  0  0  0  0  0
   11.9783   24.8837   -1.7897 C   0  0  0  0  0  0  0  0  0  0  0  0
   11.3877   24.6248   -0.5671 C   0  0  0  0  0  0  0  0  0  0  0  0
   12.1791   24.3834    0.5291 C   0  0  0  0  0  0  0  0  0  0  0  0
   13.5399   24.4075    0.3729 C   0  0  0  0  0  0  0  0  0  0  0  0
   14.5710   24.2190    1.2163 N   0  0  0  0  0  0  0  0  0  0  0  0
   15.7056   24.3573    0.5365 C   0  0  0  0  0  0  0  0  0  0  0  0
   15.3936   24.6308   -0.7244 N   0  0  0  0  0  0  0  0  0  0  0  0
   14.0657   24.6634   -0.8331 N   0  0  0  0  0  0  0  0  0  0  0  0
   15.7113   26.2986   -6.8739 C   0  0  0  0  0  0  0  0  0  0  0  0
   16.1847   26.6062   -7.8678 N   0  0  0  0  0  0  0  0  0  0  0  0
  1  2  1  0  0  0
  2  3  2  0  0  0
  3  4  1  0  0  0
  4  5  2  0  0  0
  5  6  1  0  0  0
  6  7  2  0  0  0
  7  8  1  0  0  0
  8  9  2  0  0  0
  9 10  1  0  0  0
 10 11  2  0  0  0
 11 12  1  0  0  0
 12 13  2  0  0  0
 13 14  1  0  0  0
 14 15  2  0  0  0
 15 16  1  0  0  0
  4 17  1  0  0  0
 17 18  3  0  0  0
  7  2  1  0  0  0
 16  8  1  0  0  0
 16 12  1  0  0  0
M  END
> <minimizedAffinity>
-9.18042

> <CNNscore>
0.8252363801

> <CNNaffinity>
6.5771002769

> <CNN_VS>
5.4276623726

> <CNNaffinity_variance>
0.1530031562

$$$$
[H]c1nc2c([H])c([H])c([H])c(-c3c([H])c([H])c(C#N)c([H])c3C([H])([H])[H])n2n1


 18 20  0  0  0  0  0  0  0  0999 V2000
   12.5330   25.4429   -1.7119 C   0  0  0  0  0  0  0  0  0  0  0  0
   13.5500   25.1503   -2.7255 C   0  0  0  0  0  0  0  0  0  0  0  0
   13.8253   26.0794   -3.7032 C   0  0  0  0  0  0  0  0  0  0  0  0
   14.7896   25.8153   -4.6735 C   0  0  0  0  0  0  0  0  0  0  0  0
   15.4884   24.6254   -4.6801 C   0  0  0  0  0  0  0  0  0  0  0  0
   15.1898   23.7146   -3.6869 C   0  0  0  0  0  0  0  0  0  0  0  0
   14.2240   23.9778   -2.7143 C   0  0  0  0  0  0  0  0  0  0  0  0
   14.0118   22.9261   -1.7265 C   0  0  0  0  0  0  0  0  0  0  0  0
   13.0546   21.9421   -1.8629 C   0  0  0  0  0  0  0  0  0  0  0  0
   12.8769   20.9577   -0.9090 C   0  0  0  0  0  0  0  0  0  0  0  0
   13.6714   20.9497    0.2113 C   0  0  0  0  0  0  0  0  0  0  0  0
   14.6222   21.9265    0.3472 C   0  0  0  0  0  0  0  0  0  0  0  0
   15.5382   22.2000    1.2939 N   0  0  0  0  0  0  0  0  0  0  0  0
   16.2192   23.2812    0.9252 C   0  0  0  0  0  0  0  0  0  0  0  0
   15.7373   23.6866   -0.2433 N   0  0  0  0  0  0  0  0  0  0  0  0
   14.7565   22.8600   -0.6051 N   0  0  0  0  0  0  0  0  0  0  0  0
   15.0978   26.7678   -5.7071 C   0  0  0  0  0  0  0  0  0  0  0  0
   15.3516   27.5167   -6.5325 N   0  0  0  0  0  0  0  0  0  0  0  0
  1  2  1  0  0  0
  2  3  2  0  0  0
  3  4  1  0  0  0
  4  5  2  0  0  0
  5  6  1  0  0  0
  6  7  2  0  0  0
  7  8  1  0  0  0
  8  9  2  0  0  0
  9 10  1  0  0  0
 10 11  2  0  0  0
 11 12  1  0  0  0
 12 13  2  0  0  0
 13 14  1  0  0  0
 14 15  2  0  0  0
 15 16  1  0  0  0
  4 17  1  0  0  0
 17 18  3  0  0  0
  7  2  1  0  0  0
 16  8  1  0  0  0
 16 12  1  0  0  0
M  END
> <minimizedAffinity>
-7.40841

> <CNNscore>
0.7950755954

> <CNNaffinity>
6.8403320312

> <CNN_VS>
5.4385809898

> <CNNaffinity_variance>
0.2574471533

$$$$
[H]c1nc2c([H])c([H])c([H])c(-c3c([H])c([H])c(C#N)c([H])c3C([H])([H])[H])n2n1


 18 20  0  0  0  0  0  0  0  0999 V2000
   11.9722   25.1910   -2.3388 C   0  0  0  0  0  0  0  0  0  0  0  0
   13.3686   25.2642   -2.7769 C   0  0  0  0  0  0  0  0  0  0  0  0
   13.7871   26.3264   -3.5460 C   0  0  0  0  0  0  0  0  0  0  0  0
   15.1116   26.4095   -3.9700 C   0  0  0  0  0  0  0  0  0  0  0  0
   16.0313   25.4375   -3.6331 C   0  0  0  0  0  0  0  0  0  0  0  0
   15.5811   24.3856   -2.8612 C   0  0  0  0  0  0  0  0  0  0  0  0
   14.2546   24.3010   -2.4358 C   0  0  0  0  0  0  0  0  0  0  0  0
   13.9184   23.1353   -1.6264 C   0  0  0  0  0  0  0  0  0  0  0  0
   14.2451   21.8443   -1.9869 C   0  0  0  0  0  0  0  0  0  0  0  0
   13.9127   20.7587   -1.1985 C   0  0  0  0  0  0  0  0  0  0  0  0
   13.2375   20.9600   -0.0195 C   0  0  0  0  0  0  0  0  0  0  0  0
   12.9130   22.2417    0.3390 C   0  0  0  0  0  0  0  0  0  0  0  0
   12.2729   22.7721    1.3969 N   0  0  0  0  0  0  0  0  0  0  0  0
   12.2275   24.0927    1.2466 C   0  0  0  0  0  0  0  0  0  0  0  0
   12.8332   24.3932    0.1043 N   0  0  0  0  0  0  0  0  0  0  0  0
   13.2570   23.2622   -0.4590 N   0  0  0  0  0  0  0  0  0  0  0  0
   15.5767   27.5082   -4.7746 C   0  0  0  0  0  0  0  0  0  0  0  0
   15.9345   28.3820   -5.4188 N   0  0  0  0  0  0  0  0  0  0  0  0
  1  2  1  0  0  0
  2  3  2  0  0  0
  3  4  1  0  0  0
  4  5  2  0  0  0
  5  6  1  0  0  0
  6  7  2  0  0  0
  7  8  1  0  0  0
  8  9  2  0  0  0
  9 10  1  0  0  0
 10 11  2  0  0  0
 11 12  1  0  0  0
 12 13  2  0  0  0
 13 14  1  0  0  0
 14 15  2  0  0  0
 15 16  1  0  0  0
  4 17  1  0  0  0
 17 18  3  0  0  0
  7  2  1  0  0  0
 16  8  1  0  0  0
 16 12  1  0  0  0
M  END
> <minimizedAffinity>
-7.68431

> <CNNscore>
0.6523625851

> <CNNaffinity>
6.5023374557

> <CNN_VS>
4.2418818474

> <CNNaffinity_variance>
0.2736234069

$$$$
[H]c1nc2c([H])c([H])c([H])c(-c3c([H])c([H])c(C#N)c([H])c3C([H])([H])[H])n2n1


 18 20  0  0  0  0  0  0  0  0999 V2000
   12.6198   25.3891   -1.5401 C   0  0  0  0  0  0  0  0  0  0  0  0
   13.6651   25.2173   -2.5524 C   0  0  0  0  0  0  0  0  0  0  0  0
   13.6288   25.9696   -3.7046 C   0  0  0  0  0  0  0  0  0  0  0  0
   14.6159   25.8171   -4.6760 C   0  0  0  0  0  0  0  0  0  0  0  0
   15.6473   24.9155   -4.5103 C   0  0  0  0  0  0  0  0  0  0  0  0
   15.6559   24.1763   -3.3447 C   0  0  0  0  0  0  0  0  0  0  0  0
   14.6678   24.3280   -2.3708 C   0  0  0  0  0  0  0  0  0  0  0  0
   14.8020   23.4822   -1.1903 C   0  0  0  0  0  0  0  0  0  0  0  0
   15.5041   23.8603   -0.0645 C   0  0  0  0  0  0  0  0  0  0  0  0
   15.6138   23.0363    1.0398 C   0  0  0  0  0  0  0  0  0  0  0  0
   15.0099   21.8028    1.0265 C   0  0  0  0  0  0  0  0  0  0  0  0
   14.3125   21.4268   -0.0911 C   0  0  0  0  0  0  0  0  0  0  0  0
   13.6235   20.3197   -0.4222 N   0  0  0  0  0  0  0  0  0  0  0  0
   13.1338   20.4760   -1.6488 C   0  0  0  0  0  0  0  0  0  0  0  0
   13.5104   21.6707   -2.0879 N   0  0  0  0  0  0  0  0  0  0  0  0
   14.2345   22.2608   -1.1374 N   0  0  0  0  0  0  0  0  0  0  0  0
   14.6030   26.5900   -5.8898 C   0  0  0  0  0  0  0  0  0  0  0  0
   14.6054   27.2036   -6.8542 N   0  0  0  0  0  0  0  0  0  0  0  0
  1  2  1  0  0  0
  2  3  2  0  0  0
  3  4  1  0  0  0
  4  5  2  0  0  0
  5  6  1  0  0  0
  6  7  2  0  0  0
  7  8  1  0  0  0
  8  9  2  0  0  0
  9 10  1  0  0  0
 10 11  2  0  0  0
 11 12  1  0  0  0
 12 13  2  0  0  0
 13 14  1  0  0  0
 14 15  2  0  0  0
 15 16  1  0  0  0
  4 17  1  0  0  0
 17 18  3  0  0  0
  7  2  1  0  0  0
 16  8  1  0  0  0
 16 12  1  0  0  0
M  END
> <minimizedAffinity>
-6.88883

> <CNNscore>
0.5192617178

> <CNNaffinity>
6.1143808365

> <CNN_VS>
3.1749639511

> <CNNaffinity_variance>
0.0284343418

$$$$
[H]c1nc2c([H])c([H])c([H])c(-c3c([H])c([H])c(C#N)c([H])c3C([H])([H])[H])n2n1


 18 20  0  0  0  0  0  0  0  0999 V2000
   14.7752   24.7308    0.2368 C   0  0  0  0  0  0  0  0  0  0  0  0
   13.3611   24.4880   -0.0606 C   0  0  0  0  0  0  0  0  0  0  0  0
   12.4512   24.4107    0.9695 C   0  0  0  0  0  0  0  0  0  0  0  0
   11.1034   24.1803    0.7020 C   0  0  0  0  0  0  0  0  0  0  0  0
   10.6487   24.0248   -0.5915 C   0  0  0  0  0  0  0  0  0  0  0  0
   11.5852   24.1076   -1.6021 C   0  0  0  0  0  0  0  0  0  0  0  0
   12.9357   24.3384   -1.3357 C   0  0  0  0  0  0  0  0  0  0  0  0
   13.8125   24.4018   -2.4993 C   0  0  0  0  0  0  0  0  0  0  0  0
   14.7390   23.4257   -2.8025 C   0  0  0  0  0  0  0  0  0  0  0  0
   15.5569   23.5137   -3.9133 C   0  0  0  0  0  0  0  0  0  0  0  0
   15.4521   24.6006   -4.7464 C   0  0  0  0  0  0  0  0  0  0  0  0
   14.5322   25.5702   -4.4459 C   0  0  0  0  0  0  0  0  0  0  0  0
   14.1838   26.7287   -5.0346 N   0  0  0  0  0  0  0  0  0  0  0  0
   13.2176   27.2950   -4.3175 C   0  0  0  0  0  0  0  0  0  0  0  0
   12.9585   26.5014   -3.2855 N   0  0  0  0  0  0  0  0  0  0  0  0
   13.7615   25.4401   -3.3571 N   0  0  0  0  0  0  0  0  0  0  0  0
   10.1304   24.0947    1.7588 C   0  0  0  0  0  0  0  0  0  0  0  0
    9.3554   24.0391    2.5972 N   0  0  0  0  0  0  0  0  0  0  0  0
  1  2  1  0  0  0
  2  3  2  0  0  0
  3  4  1  0  0  0
  4  5  2  0  0  0
  5  6  1  0  0  0
  6  7  2  0  0  0
  7  8  1  0  0  0
  8  9  2  0  0  0
  9 10  1  0  0  0
 10 11  2  0  0  0
 11 12  1  0  0  0
 12 13  2  0  0  0
 13 14  1  0  0  0
 14 15  2  0  0  0
 15 16  1  0  0  0
  4 17  1  0  0  0
 17 18  3  0  0  0
  7  2  1  0  0  0
 16  8  1  0  0  0
 16 12  1  0  0  0
M  END
> <minimizedAffinity>
-7.39548

> <CNNscore>
0.4976902306

> <CNNaffinity>
5.8822679520

> <CNN_VS>
2.9275472164

> <CNNaffinity_variance>
0.1115550995

$$$$
[H]c1nc2c([H])c([H])c([H])c(-c3c([H])c([H])c(C#N)c([H])c3C([H])([H])[H])n2n1


 18 20  0  0  0  0  0  0  0  0999 V2000
   14.2076   21.6923   -4.6833 C   0  0  0  0  0  0  0  0  0  0  0  0
   13.5747   21.9160   -3.3809 C   0  0  0  0  0  0  0  0  0  0  0  0
   12.5206   21.1218   -2.9896 C   0  0  0  0  0  0  0  0  0  0  0  0
   11.9089   21.3227   -1.7541 C   0  0  0  0  0  0  0  0  0  0  0  0
   12.3398   22.3147   -0.8970 C   0  0  0  0  0  0  0  0  0  0  0  0
   13.3985   23.0939   -1.3178 C   0  0  0  0  0  0  0  0  0  0  0  0
   14.0122   22.8938   -2.5552 C   0  0  0  0  0  0  0  0  0  0  0  0
   15.1186   23.7904   -2.8697 C   0  0  0  0  0  0  0  0  0  0  0  0
   15.5958   23.9833   -4.1497 C   0  0  0  0  0  0  0  0  0  0  0  0
   16.6468   24.8403   -4.4168 C   0  0  0  0  0  0  0  0  0  0  0  0
   17.2407   25.5250   -3.3849 C   0  0  0  0  0  0  0  0  0  0  0  0
   16.7672   25.3340   -2.1137 C   0  0  0  0  0  0  0  0  0  0  0  0
   17.1128   25.8339   -0.9134 N   0  0  0  0  0  0  0  0  0  0  0  0
   16.3157   25.3063    0.0112 C   0  0  0  0  0  0  0  0  0  0  0  0
   15.4748   24.4807   -0.5999 N   0  0  0  0  0  0  0  0  0  0  0  0
   15.7455   24.4922   -1.9048 N   0  0  0  0  0  0  0  0  0  0  0  0
   10.8053   20.5079   -1.3194 C   0  0  0  0  0  0  0  0  0  0  0  0
    9.9301   19.8651   -0.9623 N   0  0  0  0  0  0  0  0  0  0  0  0
  1  2  1  0  0  0
  2  3  2  0  0  0
  3  4  1  0  0  0
  4  5  2  0  0  0
  5  6  1  0  0  0
  6  7  2  0  0  0
  7  8  1  0  0  0
  8  9  2  0  0  0
  9 10  1  0  0  0
 10 11  2  0  0  0
 11 12  1  0  0  0
 12 13  2  0  0  0
 13 14  1  0  0  0
 14 15  2  0  0  0
 15 16  1  0  0  0
  4 17  1  0  0  0
 17 18  3  0  0  0
  7  2  1  0  0  0
 16  8  1  0  0  0
 16 12  1  0  0  0
M  END
> <minimizedAffinity>
10.27288

> <CNNscore>
0.4527546465

> <CNNaffinity>
5.8417301178

> <CNN_VS>
2.6448705196

> <CNNaffinity_variance>
1.1424432993

$$$$
[H]c1nc2c([H])c([H])c([H])c(-c3c([H])c([H])c(C#N)c([H])c3C([H])([H])[H])n2n1


 18 20  0  0  0  0  0  0  0  0999 V2000
   13.7275   24.3181   -1.8738 C   0  0  0  0  0  0  0  0  0  0  0  0
   14.3715   23.9526   -3.1383 C   0  0  0  0  0  0  0  0  0  0  0  0
   14.8199   22.6649   -3.3279 C   0  0  0  0  0  0  0  0  0  0  0  0
   15.4340   22.3028   -4.5248 C   0  0  0  0  0  0  0  0  0  0  0  0
   15.6077   23.2174   -5.5434 C   0  0  0  0  0  0  0  0  0  0  0  0
   15.1476   24.4999   -5.3230 C   0  0  0  0  0  0  0  0  0  0  0  0
   14.5321   24.8641   -4.1244 C   0  0  0  0  0  0  0  0  0  0  0  0
   14.0953   26.2523   -4.0290 C   0  0  0  0  0  0  0  0  0  0  0  0
   12.8160   26.6196   -3.6661 C   0  0  0  0  0  0  0  0  0  0  0  0
   12.4312   27.9446   -3.5844 C   0  0  0  0  0  0  0  0  0  0  0  0
   13.3413   28.9325   -3.8708 C   0  0  0  0  0  0  0  0  0  0  0  0
   14.6118   28.5684   -4.2312 C   0  0  0  0  0  0  0  0  0  0  0  0
   15.7132   29.2645   -4.5666 N   0  0  0  0  0  0  0  0  0  0  0  0
   16.6933   28.4055   -4.8315 C   0  0  0  0  0  0  0  0  0  0  0  0
   16.2150   27.1786   -4.6650 N   0  0  0  0  0  0  0  0  0  0  0  0
   14.9375   27.2700   -4.2964 N   0  0  0  0  0  0  0  0  0  0  0  0
   15.9123   20.9644   -4.7504 C   0  0  0  0  0  0  0  0  0  0  0  0
   16.2972   19.9051   -4.9407 N   0  0  0  0  0  0  0  0  0  0  0  0
  1  2  1  0  0  0
  2  3  2  0  0  0
  3  4  1  0  0  0
  4  5  2  0  0  0
  5  6  1  0  0  0
  6  7  2  0  0  0
  7  8  1  0  0  0
  8  9  2  0  0  0
  9 10  1  0  0  0
 10 11  2  0  0  0
 11 12  1  0  0  0
 12 13  2  0  0  0
 13 14  1  0  0  0
 14 15  2  0  0  0
 15 16  1  0  0  0
  4 17  1  0  0  0
 17 18  3  0  0  0
  7  2  1  0  0  0
 16  8  1  0  0  0
 16 12  1  0  0  0
M  END
> <minimizedAffinity>
12.34983

> <CNNscore>
0.4341248274

> <CNNaffinity>
5.3981771469

> <CNN_VS>
2.3434827328

> <CNNaffinity_variance>
0.3831684291

$$$$
[H]c1nc2c([H])c([H])c([H])c(-c3c([H])c([H])c(C#N)c([H])c3C([H])([H])[H])n2n1


 18 20  0  0  0  0  0  0  0  0999 V2000
   15.1920   22.6249   -3.5300 C   0  0  0  0  0  0  0  0  0  0  0  0
   15.2207   24.0030   -4.0270 C   0  0  0  0  0  0  0  0  0  0  0  0
   15.4142   24.2399   -5.3692 C   0  0  0  0  0  0  0  0  0  0  0  0
   15.4438   25.5449   -5.8563 C   0  0  0  0  0  0  0  0  0  0  0  0
   15.2813   26.6254   -5.0134 C   0  0  0  0  0  0  0  0  0  0  0  0
   15.0892   26.3551   -3.6736 C   0  0  0  0  0  0  0  0  0  0  0  0
   15.0593   25.0484   -3.1842 C   0  0  0  0  0  0  0  0  0  0  0  0
   14.8483   24.9110   -1.7477 C   0  0  0  0  0  0  0  0  0  0  0  0
   15.8799   24.8558   -0.8334 C   0  0  0  0  0  0  0  0  0  0  0  0
   15.6485   24.7252    0.5230 C   0  0  0  0  0  0  0  0  0  0  0  0
   14.3574   24.6473    0.9848 C   0  0  0  0  0  0  0  0  0  0  0  0
   13.3326   24.7021    0.0774 C   0  0  0  0  0  0  0  0  0  0  0  0
   11.9929   24.6546    0.1916 N   0  0  0  0  0  0  0  0  0  0  0  0
   11.4601   24.7512   -1.0232 C   0  0  0  0  0  0  0  0  0  0  0  0
   12.4544   24.8585   -1.8960 N   0  0  0  0  0  0  0  0  0  0  0  0
   13.6073   24.8293   -1.2282 N   0  0  0  0  0  0  0  0  0  0  0  0
   15.6443   25.8220   -7.2540 C   0  0  0  0  0  0  0  0  0  0  0  0
   15.8134   26.0341   -8.3645 N   0  0  0  0  0  0  0  0  0  0  0  0
  1  2  1  0  0  0
  2  3  2  0  0  0
  3  4  1  0  0  0
  4  5  2  0  0  0
  5  6  1  0  0  0
  6  7  2  0  0  0
  7  8  1  0  0  0
  8  9  2  0  0  0
  9 10  1  0  0  0
 10 11  2  0  0  0
 11 12  1  0  0  0
 12 13  2  0  0  0
 13 14  1  0  0  0
 14 15  2  0  0  0
 15 16  1  0  0  0
  4 17  1  0  0  0
 17 18  3  0  0  0
  7  2  1  0  0  0
 16  8  1  0  0  0
 16 12  1  0  0  0
M  END
> <minimizedAffinity>
-7.52781

> <CNNscore>
0.4278703928

> <CNNaffinity>
6.0775818825

> <CNN_VS>
2.6004173756

> <CNNaffinity_variance>
0.2370823622

$$$$
[H]c1nc2c([H])c([H])c([H])c(-c3c([H])c([H])c(C#N)c([H])c3C([H])([H])[H])n2n1


 18 20  0  0  0  0  0  0  0  0999 V2000
   14.1010   27.3024   -6.0149 C   0  0  0  0  0  0  0  0  0  0  0  0
   13.8361   26.5351   -4.7950 C   0  0  0  0  0  0  0  0  0  0  0  0
   14.4292   25.3051   -4.6208 C   0  0  0  0  0  0  0  0  0  0  0  0
   14.1868   24.5642   -3.4661 C   0  0  0  0  0  0  0  0  0  0  0  0
   13.3527   25.0396   -2.4749 C   0  0  0  0  0  0  0  0  0  0  0  0
   12.7734   26.2756   -2.6789 C   0  0  0  0  0  0  0  0  0  0  0  0
   13.0153   27.0190   -3.8351 C   0  0  0  0  0  0  0  0  0  0  0  0
   12.3369   28.3073   -3.9175 C   0  0  0  0  0  0  0  0  0  0  0  0
   12.8489   29.4680   -3.3755 C   0  0  0  0  0  0  0  0  0  0  0  0
   12.1822   30.6751   -3.4697 C   0  0  0  0  0  0  0  0  0  0  0  0
   10.9738   30.7318   -4.1200 C   0  0  0  0  0  0  0  0  0  0  0  0
   10.4649   29.5796   -4.6585 C   0  0  0  0  0  0  0  0  0  0  0  0
    9.3399   29.2954   -5.3396 N   0  0  0  0  0  0  0  0  0  0  0  0
    9.3380   27.9981   -5.6326 C   0  0  0  0  0  0  0  0  0  0  0  0
   10.4513   27.4684   -5.1408 N   0  0  0  0  0  0  0  0  0  0  0  0
   11.1487   28.4329   -4.5413 N   0  0  0  0  0  0  0  0  0  0  0  0
   14.7930   23.2759   -3.2575 C   0  0  0  0  0  0  0  0  0  0  0  0
   15.2712   22.2530   -3.0796 N   0  0  0  0  0  0  0  0  0  0  0  0
  1  2  1  0  0  0
  2  3  2  0  0  0
  3  4  1  0  0  0
  4  5  2  0  0  0
  5  6  1  0  0  0
  6  7  2  0  0  0
  7  8  1  0  0  0
  8  9  2  0  0  0
  9 10  1  0  0  0
 10 11  2  0  0  0
 11 12  1  0  0  0
 12 13  2  0  0  0
 13 14  1  0  0  0
 14 15  2  0  0  0
 15 16  1  0  0  0
  4 17  1  0  0  0
 17 18  3  0  0  0
  7  2  1  0  0  0
 16  8  1  0  0  0
 16 12  1  0  0  0
M  END
> <minimizedAffinity>
17.16678

> <CNNscore>
0.4237510264

> <CNNaffinity>
5.2000570297

> <CNN_VS>
2.2035295963

> <CNNaffinity_variance>
0.7372665405

$$$$
[H]c1nc2c([H])c([H])c([H])c(-c3c([H])c([H])c(C#N)c(F)c3C([H])([H])[H])n2n1


 19 21  0  0  0  0  0  0  0  0999 V2000
   15.0322   23.0989   -3.2299 C   0  0  0  0  0  0  0  0  0  0  0  0
   14.7304   24.4262   -3.8166 C   0  0  0  0  0  0  0  0  0  0  0  0
   15.3189   24.7374   -5.0234 C   0  0  0  0  0  0  0  0  0  0  0  0
   16.1478   23.8425   -5.6425 F   0  0  0  0  0  0  0  0  0  0  0  0
   15.0951   25.9488   -5.6423 C   0  0  0  0  0  0  0  0  0  0  0  0
   14.2561   26.8359   -5.0007 C   0  0  0  0  0  0  0  0  0  0  0  0
   13.6635   26.5219   -3.7847 C   0  0  0  0  0  0  0  0  0  0  0  0
   13.8942   25.3084   -3.1753 C   0  0  0  0  0  0  0  0  0  0  0  0
   13.2781   24.9739   -1.9046 C   0  0  0  0  0  0  0  0  0  0  0  0
   11.9056   24.9342   -1.8137 C   0  0  0  0  0  0  0  0  0  0  0  0
   11.2673   24.6176   -0.6132 C   0  0  0  0  0  0  0  0  0  0  0  0
   12.0381   24.3432    0.4880 C   0  0  0  0  0  0  0  0  0  0  0  0
   13.4128   24.3876    0.3792 C   0  0  0  0  0  0  0  0  0  0  0  0
   14.4173   24.1735    1.2572 N   0  0  0  0  0  0  0  0  0  0  0  0
   15.6052   24.3439    0.6500 C   0  0  0  0  0  0  0  0  0  0  0  0
   15.3085   24.6690   -0.6265 N   0  0  0  0  0  0  0  0  0  0  0  0
   13.9928   24.6982   -0.8005 N   0  0  0  0  0  0  0  0  0  0  0  0
   15.6794   26.3220   -6.8929 C   0  0  0  0  0  0  0  0  0  0  0  0
   16.1480   26.6096   -7.9168 N   0  0  0  0  0  0  0  0  0  0  0  0
  1  2  1  0  0  0
  2  3  2  0  0  0
  3  4  1  0  0  0
  3  5  1  0  0  0
  5  6  2  0  0  0
  6  7  1  0  0  0
  7  8  2  0  0  0
  8  9  1  0  0  0
  9 10  2  0  0  0
 10 11  1  0  0  0
 11 12  2  0  0  0
 12 13  1  0  0  0
 13 14  2  0  0  0
 14 15  1  0  0  0
 15 16  2  0  0  0
 16 17  1  0  0  0
  5 18  1  0  0  0
 18 19  3  0  0  0
  8  2  1  0  0  0
 17  9  1  0  0  0
 17 13  1  0  0  0
M  END
> <minimizedAffinity>
-8.82568

> <CNNscore>
0.8160973787

> <CNNaffinity>
6.8784933090

> <CNN_VS>
5.6135201454

> <CNNaffinity_variance>
0.2037307918

$$$$
[H]c1nc2c([H])c([H])c([H])c(-c3c([H])c([H])c(C#N)c(F)c3C([H])([H])[H])n2n1


 19 21  0  0  0  0  0  0  0  0999 V2000
   12.1822   25.4535   -1.5215 C   0  0  0  0  0  0  0  0  0  0  0  0
   13.2866   25.0931   -2.4421 C   0  0  0  0  0  0  0  0  0  0  0  0
   13.7214   26.0593   -3.3235 C   0  0  0  0  0  0  0  0  0  0  0  0
   13.1438   27.2993   -3.3343 F   0  0  0  0  0  0  0  0  0  0  0  0
   14.7431   25.8125   -4.2157 C   0  0  0  0  0  0  0  0  0  0  0  0
   15.3111   24.5559   -4.1876 C   0  0  0  0  0  0  0  0  0  0  0  0
   14.8725   23.5827   -3.2994 C   0  0  0  0  0  0  0  0  0  0  0  0
   13.8508   23.8403   -2.4122 C   0  0  0  0  0  0  0  0  0  0  0  0
   13.3876   22.8279   -1.4813 C   0  0  0  0  0  0  0  0  0  0  0  0
   12.1406   22.2736   -1.6578 C   0  0  0  0  0  0  0  0  0  0  0  0
   11.6516   21.2968   -0.7886 C   0  0  0  0  0  0  0  0  0  0  0  0
   12.4425   20.8927    0.2570 C   0  0  0  0  0  0  0  0  0  0  0  0
   13.6902   21.4589    0.4193 C   0  0  0  0  0  0  0  0  0  0  0  0
   14.6771   21.2781    1.3242 N   0  0  0  0  0  0  0  0  0  0  0  0
   15.7149   22.0859    1.0429 C   0  0  0  0  0  0  0  0  0  0  0  0
   15.3435   22.7708   -0.0599 N   0  0  0  0  0  0  0  0  0  0  0  0
   14.1275   22.4017   -0.4436 N   0  0  0  0  0  0  0  0  0  0  0  0
   15.2323   26.7779   -5.1502 C   0  0  0  0  0  0  0  0  0  0  0  0
   15.6252   27.5761   -5.8979 N   0  0  0  0  0  0  0  0  0  0  0  0
  1  2  1  0  0  0
  2  3  2  0  0  0
  3  4  1  0  0  0
  3  5  1  0  0  0
  5  6  2  0  0  0
  6  7  1  0  0  0
  7  8  2  0  0  0
  8  9  1  0  0  0
  9 10  2  0  0  0
 10 11  1  0  0  0
 11 12  2  0  0  0
 12 13  1  0  0  0
 13 14  2  0  0  0
 14 15  1  0  0  0
 15 16  2  0  0  0
 16 17  1  0  0  0
  5 18  1  0  0  0
 18 19  3  0  0  0
  8  2  1  0  0  0
 17  9  1  0  0  0
 17 13  1  0  0  0
M  END
> <minimizedAffinity>
-7.68967

> <CNNscore>
0.7984340787

> <CNNaffinity>
7.0305471420

> <CNN_VS>
5.6134285927

> <CNNaffinity_variance>
0.3952050805

$$$$
[H]c1nc2c([H])c([H])c([H])c(-c3c([H])c([H])c(C#N)c(F)c3C([H])([H])[H])n2n1


 19 21  0  0  0  0  0  0  0  0999 V2000
   11.9721   25.0421   -2.2764 C   0  0  0  0  0  0  0  0  0  0  0  0
   13.3968   25.1438   -2.6726 C   0  0  0  0  0  0  0  0  0  0  0  0
   13.7649   26.2177   -3.4542 C   0  0  0  0  0  0  0  0  0  0  0  0
   12.8368   27.1453   -3.8405 F   0  0  0  0  0  0  0  0  0  0  0  0
   15.0678   26.3925   -3.8696 C   0  0  0  0  0  0  0  0  0  0  0  0
   15.9870   25.4455   -3.4686 C   0  0  0  0  0  0  0  0  0  0  0  0
   15.6155   24.3637   -2.6812 C   0  0  0  0  0  0  0  0  0  0  0  0
   14.3107   24.1989   -2.2718 C   0  0  0  0  0  0  0  0  0  0  0  0
   13.9157   23.0707   -1.4488 C   0  0  0  0  0  0  0  0  0  0  0  0
   14.2793   21.8001   -1.8321 C   0  0  0  0  0  0  0  0  0  0  0  0
   13.9226   20.6839   -1.0733 C   0  0  0  0  0  0  0  0  0  0  0  0
   13.1954   20.8749    0.0742 C   0  0  0  0  0  0  0  0  0  0  0  0
   12.8392   22.1556    0.4437 C   0  0  0  0  0  0  0  0  0  0  0  0
   12.1444   22.6572    1.4883 N   0  0  0  0  0  0  0  0  0  0  0  0
   12.0696   23.9966    1.3924 C   0  0  0  0  0  0  0  0  0  0  0  0
   12.7365   24.3098    0.2610 N   0  0  0  0  0  0  0  0  0  0  0  0
   13.2036   23.2102   -0.3177 N   0  0  0  0  0  0  0  0  0  0  0  0
   15.5031   27.4871   -4.6802 C   0  0  0  0  0  0  0  0  0  0  0  0
   15.8457   28.3709   -5.3526 N   0  0  0  0  0  0  0  0  0  0  0  0
  1  2  1  0  0  0
  2  3  2  0  0  0
  3  4  1  0  0  0
  3  5  1  0  0  0
  5  6  2  0  0  0
  6  7  1  0  0  0
  7  8  2  0  0  0
  8  9  1  0  0  0
  9 10  2  0  0  0
 10 11  1  0  0  0
 11 12  2  0  0  0
 12 13  1  0  0  0
 13 14  2  0  0  0
 14 15  1  0  0  0
 15 16  2  0  0  0
 16 17  1  0  0  0
  5 18  1  0  0  0
 18 19  3  0  0  0
  8  2  1  0  0  0
 17  9  1  0  0  0
 17 13  1  0  0  0
M  END
> <minimizedAffinity>
-7.97152

> <CNNscore>
0.7092364430

> <CNNaffinity>
6.7820138931

> <CNN_VS>
4.8100514412

> <CNNaffinity_variance>
0.2904517055

$$$$
[H]c1nc2c([H])c([H])c([H])c(-c3c([H])c([H])c(C#N)c(F)c3C([H])([H])[H])n2n1


 19 21  0  0  0  0  0  0  0  0999 V2000
   16.6158   25.0081   -1.3010 C   0  0  0  0  0  0  0  0  0  0  0  0
   15.7159   25.4246   -2.4027 C   0  0  0  0  0  0  0  0  0  0  0  0
   16.1381   26.4555   -3.2142 C   0  0  0  0  0  0  0  0  0  0  0  0
   17.3457   27.0601   -2.9964 F   0  0  0  0  0  0  0  0  0  0  0  0
   15.3663   26.9086   -4.2629 C   0  0  0  0  0  0  0  0  0  0  0  0
   14.1527   26.2848   -4.4644 C   0  0  0  0  0  0  0  0  0  0  0  0
   13.7277   25.2462   -3.6464 C   0  0  0  0  0  0  0  0  0  0  0  0
   14.5071   24.8015   -2.6013 C   0  0  0  0  0  0  0  0  0  0  0  0
   14.0690   23.7166   -1.7428 C   0  0  0  0  0  0  0  0  0  0  0  0
   14.5652   22.4507   -1.9543 C   0  0  0  0  0  0  0  0  0  0  0  0
   14.1735   21.3754   -1.1548 C   0  0  0  0  0  0  0  0  0  0  0  0
   13.2757   21.6024   -0.1426 C   0  0  0  0  0  0  0  0  0  0  0  0
   12.7881   22.8778    0.0555 C   0  0  0  0  0  0  0  0  0  0  0  0
   11.9175   23.4075    0.9425 N   0  0  0  0  0  0  0  0  0  0  0  0
   11.7720   24.7252    0.7159 C   0  0  0  0  0  0  0  0  0  0  0  0
   12.5758   24.9960   -0.3347 N   0  0  0  0  0  0  0  0  0  0  0  0
   13.1918   23.8922   -0.7400 N   0  0  0  0  0  0  0  0  0  0  0  0
   15.7562   27.9731   -5.1343 C   0  0  0  0  0  0  0  0  0  0  0  0
   16.0555   28.8446   -5.8425 N   0  0  0  0  0  0  0  0  0  0  0  0
  1  2  1  0  0  0
  2  3  2  0  0  0
  3  4  1  0  0  0
  3  5  1  0  0  0
  5  6  2  0  0  0
  6  7  1  0  0  0
  7  8  2  0  0  0
  8  9  1  0  0  0
  9 10  2  0  0  0
 10 11  1  0  0  0
 11 12  2  0  0  0
 12 13  1  0  0  0
 13 14  2  0  0  0
 14 15  1  0  0  0
 15 16  2  0  0  0
 16 17  1  0  0  0
  5 18  1  0  0  0
 18 19  3  0  0  0
  8  2  1  0  0  0
 17  9  1  0  0  0
 17 13  1  0  0  0
M  END
> <minimizedAffinity>
-8.09688

> <CNNscore>
0.7072145343

> <CNNaffinity>
6.6755881310

> <CNN_VS>
4.7210731506

> <CNNaffinity_variance>
0.1278843284

$$$$
[H]c1nc2c([H])c([H])c([H])c(-c3c([H])c([H])c(C#N)c(F)c3C([H])([H])[H])n2n1


 19 21  0  0  0  0  0  0  0  0999 V2000
   12.8936   26.0711   -2.6893 C   0  0  0  0  0  0  0  0  0  0  0  0
   14.0004   25.4470   -3.4526 C   0  0  0  0  0  0  0  0  0  0  0  0
   14.2615   25.9398   -4.7129 C   0  0  0  0  0  0  0  0  0  0  0  0
   13.5170   26.9670   -5.2244 F   0  0  0  0  0  0  0  0  0  0  0  0
   15.2718   25.4201   -5.4940 C   0  0  0  0  0  0  0  0  0  0  0  0
   16.0098   24.3851   -4.9587 C   0  0  0  0  0  0  0  0  0  0  0  0
   15.7462   23.8889   -3.6888 C   0  0  0  0  0  0  0  0  0  0  0  0
   14.7342   24.4158   -2.9170 C   0  0  0  0  0  0  0  0  0  0  0  0
   14.4535   23.9020   -1.5891 C   0  0  0  0  0  0  0  0  0  0  0  0
   14.6082   24.7310   -0.5018 C   0  0  0  0  0  0  0  0  0  0  0  0
   14.3505   24.2822    0.7947 C   0  0  0  0  0  0  0  0  0  0  0  0
   13.9355   22.9865    0.9708 C   0  0  0  0  0  0  0  0  0  0  0  0
   13.7857   22.1688   -0.1303 C   0  0  0  0  0  0  0  0  0  0  0  0
   13.4035   20.8817   -0.2812 N   0  0  0  0  0  0  0  0  0  0  0  0
   13.4201   20.5448   -1.5831 C   0  0  0  0  0  0  0  0  0  0  0  0
   13.8225   21.6578   -2.2331 N   0  0  0  0  0  0  0  0  0  0  0  0
   14.0452   22.6407   -1.3692 N   0  0  0  0  0  0  0  0  0  0  0  0
   15.5847   25.8935   -6.8065 C   0  0  0  0  0  0  0  0  0  0  0  0
   15.8526   26.2655   -7.8744 N   0  0  0  0  0  0  0  0  0  0  0  0
  1  2  1  0  0  0
  2  3  2  0  0  0
  3  4  1  0  0  0
  3  5  1  0  0  0
  5  6  2  0  0  0
  6  7  1  0  0  0
  7  8  2  0  0  0
  8  9  1  0  0  0
  9 10  2  0  0  0
 10 11  1  0  0  0
 11 12  2  0  0  0
 12 13  1  0  0  0
 13 14  2  0  0  0
 14 15  1  0  0  0
 15 16  2  0  0  0
 16 17  1  0  0  0
  5 18  1  0  0  0
 18 19  3  0  0  0
  8  2  1  0  0  0
 17  9  1  0  0  0
 17 13  1  0  0  0
M  END
> <minimizedAffinity>
-8.05036

> <CNNscore>
0.6120682955

> <CNNaffinity>
6.5304512978

> <CNN_VS>
3.9970822334

> <CNNaffinity_variance>
0.0675084442

$$$$
[H]c1nc2c([H])c([H])c([H])c(-c3c([H])c([H])c(C#N)c(F)c3C([H])([H])[H])n2n1


 19 21  0  0  0  0  0  0  0  0999 V2000
   16.1919   23.6135   -2.5210 C   0  0  0  0  0  0  0  0  0  0  0  0
   15.2097   24.6705   -2.8603 C   0  0  0  0  0  0  0  0  0  0  0  0
   15.6447   25.7144   -3.6479 C   0  0  0  0  0  0  0  0  0  0  0  0
   16.9382   25.7573   -4.0911 F   0  0  0  0  0  0  0  0  0  0  0  0
   14.8003   26.7414   -4.0128 C   0  0  0  0  0  0  0  0  0  0  0  0
   13.5007   26.6781   -3.5550 C   0  0  0  0  0  0  0  0  0  0  0  0
   13.0630   25.6260   -2.7614 C   0  0  0  0  0  0  0  0  0  0  0  0
   13.9154   24.6052   -2.4028 C   0  0  0  0  0  0  0  0  0  0  0  0
   13.4644   23.5028   -1.5737 C   0  0  0  0  0  0  0  0  0  0  0  0
   12.2809   22.8718   -1.8813 C   0  0  0  0  0  0  0  0  0  0  0  0
   11.8060   21.8070   -1.1135 C   0  0  0  0  0  0  0  0  0  0  0  0
   12.5459   21.3939   -0.0346 C   0  0  0  0  0  0  0  0  0  0  0  0
   13.7301   22.0378    0.2596 C   0  0  0  0  0  0  0  0  0  0  0  0
   14.6580   21.8706    1.2275 N   0  0  0  0  0  0  0  0  0  0  0  0
   15.6478   22.7688    1.0781 C   0  0  0  0  0  0  0  0  0  0  0  0
   15.3074   23.4956   -0.0077 N   0  0  0  0  0  0  0  0  0  0  0  0
   14.1558   23.0647   -0.5080 N   0  0  0  0  0  0  0  0  0  0  0  0
   15.1995   27.8469   -4.8272 C   0  0  0  0  0  0  0  0  0  0  0  0
   15.5073   28.7451   -5.4972 N   0  0  0  0  0  0  0  0  0  0  0  0
  1  2  1  0  0  0
  2  3  2  0  0  0
  3  4  1  0  0  0
  3  5  1  0  0  0
  5  6  2  0  0  0
  6  7  1  0  0  0
  7  8  2  0  0  0
  8  9  1  0  0  0
  9 10  2  0  0  0
 10 11  1  0  0  0
 11 12  2  0  0  0
 12 13  1  0  0  0
 13 14  2  0  0  0
 14 15  1  0  0  0
 15 16  2  0  0  0
 16 17  1  0  0  0
  5 18  1  0  0  0
 18 19  3  0  0  0
  8  2  1  0  0  0
 17  9  1  0  0  0
 17 13  1  0  0  0
M  END
> <minimizedAffinity>
-4.61031

> <CNNscore>
0.5654560924

> <CNNaffinity>
6.7162294388

> <CNN_VS>
3.7977328300

> <CNNaffinity_variance>
0.4454902112

$$$$
[H]c1nc2c([H])c([H])c([H])c(-c3c([H])c([H])c(C#N)c(F)c3C([H])([H])[H])n2n1


 19 21  0  0  0  0  0  0  0  0999 V2000
   12.4817   25.2582   -1.1353 C   0  0  0  0  0  0  0  0  0  0  0  0
   13.4439   24.8713   -2.1944 C   0  0  0  0  0  0  0  0  0  0  0  0
   13.6862   25.7839   -3.1984 C   0  0  0  0  0  0  0  0  0  0  0  0
   13.0535   26.9967   -3.2014 F   0  0  0  0  0  0  0  0  0  0  0  0
   14.5656   25.5091   -4.2241 C   0  0  0  0  0  0  0  0  0  0  0  0
   15.1923   24.2806   -4.2014 C   0  0  0  0  0  0  0  0  0  0  0  0
   14.9477   23.3615   -3.1896 C   0  0  0  0  0  0  0  0  0  0  0  0
   14.0670   23.6466   -2.1696 C   0  0  0  0  0  0  0  0  0  0  0  0
   13.8069   22.6907   -1.1091 C   0  0  0  0  0  0  0  0  0  0  0  0
   14.7863   22.4405   -0.1755 C   0  0  0  0  0  0  0  0  0  0  0  0
   14.5828   21.5296    0.8626 C   0  0  0  0  0  0  0  0  0  0  0  0
   13.3771   20.8796    0.9391 C   0  0  0  0  0  0  0  0  0  0  0  0
   12.4062   21.1422   -0.0053 C   0  0  0  0  0  0  0  0  0  0  0  0
   11.1520   20.6774   -0.1961 N   0  0  0  0  0  0  0  0  0  0  0  0
   10.6050   21.2565   -1.2797 C   0  0  0  0  0  0  0  0  0  0  0  0
   11.5542   22.0916   -1.7538 N   0  0  0  0  0  0  0  0  0  0  0  0
   12.6417   22.0310   -0.9950 N   0  0  0  0  0  0  0  0  0  0  0  0
   14.8532   26.4189   -5.2891 C   0  0  0  0  0  0  0  0  0  0  0  0
   15.0762   27.1482   -6.1660 N   0  0  0  0  0  0  0  0  0  0  0  0
  1  2  1  0  0  0
  2  3  2  0  0  0
  3  4  1  0  0  0
  3  5  1  0  0  0
  5  6  2  0  0  0
  6  7  1  0  0  0
  7  8  2  0  0  0
  8  9  1  0  0  0
  9 10  2  0  0  0
 10 11  1  0  0  0
 11 12  2  0  0  0
 12 13  1  0  0  0
 13 14  2  0  0  0
 14 15  1  0  0  0
 15 16  2  0  0  0
 16 17  1  0  0  0
  5 18  1  0  0  0
 18 19  3  0  0  0
  8  2  1  0  0  0
 17  9  1  0  0  0
 17 13  1  0  0  0
M  END
> <minimizedAffinity>
-8.82317

> <CNNscore>
0.4883778393

> <CNNaffinity>
6.4538092613

> <CNN_VS>
3.1518974304

> <CNNaffinity_variance>
0.0951390117

$$$$
[H]c1nc2c([H])c([H])c([H])c(-c3c([H])c([H])c(C#N)c(F)c3C([H])([H])[H])n2n1


 19 21  0  0  0  0  0  0  0  0999 V2000
   15.8476   24.7641   -0.6993 C   0  0  0  0  0  0  0  0  0  0  0  0
   14.8140   23.7117   -0.8451 C   0  0  0  0  0  0  0  0  0  0  0  0
   14.4601   23.0063    0.2847 C   0  0  0  0  0  0  0  0  0  0  0  0
   15.0511   23.2805    1.4876 F   0  0  0  0  0  0  0  0  0  0  0  0
   13.5081   22.0099    0.2426 C   0  0  0  0  0  0  0  0  0  0  0  0
   12.9252   21.7500   -0.9802 C   0  0  0  0  0  0  0  0  0  0  0  0
   13.2822   22.4611   -2.1183 C   0  0  0  0  0  0  0  0  0  0  0  0
   14.2348   23.4546   -2.0646 C   0  0  0  0  0  0  0  0  0  0  0  0
   14.6124   24.2016   -3.2502 C   0  0  0  0  0  0  0  0  0  0  0  0
   15.5844   23.6945   -4.0819 C   0  0  0  0  0  0  0  0  0  0  0  0
   15.9813   24.3766   -5.2335 C   0  0  0  0  0  0  0  0  0  0  0  0
   15.3805   25.5744   -5.5273 C   0  0  0  0  0  0  0  0  0  0  0  0
   14.4079   26.0683   -4.6825 C   0  0  0  0  0  0  0  0  0  0  0  0
   13.6516   27.1878   -4.6974 N   0  0  0  0  0  0  0  0  0  0  0  0
   12.8355   27.2078   -3.6286 C   0  0  0  0  0  0  0  0  0  0  0  0
   13.1074   26.0711   -2.9525 N   0  0  0  0  0  0  0  0  0  0  0  0
   14.0515   25.3781   -3.5773 N   0  0  0  0  0  0  0  0  0  0  0  0
   13.1042   21.2483    1.3834 C   0  0  0  0  0  0  0  0  0  0  0  0
   12.7739   20.6451    2.3202 N   0  0  0  0  0  0  0  0  0  0  0  0
  1  2  1  0  0  0
  2  3  2  0  0  0
  3  4  1  0  0  0
  3  5  1  0  0  0
  5  6  2  0  0  0
  6  7  1  0  0  0
  7  8  2  0  0  0
  8  9  1  0  0  0
  9 10  2  0  0  0
 10 11  1  0  0  0
 11 12  2  0  0  0
 12 13  1  0  0  0
 13 14  2  0  0  0
 14 15  1  0  0  0
 15 16  2  0  0  0
 16 17  1  0  0  0
  5 18  1  0  0  0
 18 19  3  0  0  0
  8  2  1  0  0  0
 17  9  1  0  0  0
 17 13  1  0  0  0
M  END
> <minimizedAffinity>
-5.79388

> <CNNscore>
0.4808058143

> <CNNaffinity>
6.5376205444

> <CNN_VS>
3.1433260441

> <CNNaffinity_variance>
0.2517770827

$$$$
[H]c1nc2c([H])c([H])c([H])c(-c3c([H])c([H])c(C#N)c(F)c3C([H])([H])[H])n2n1


 19 21  0  0  0  0  0  0  0  0999 V2000
   15.6792   24.6653   -0.9099 C   0  0  0  0  0  0  0  0  0  0  0  0
   14.8661   25.2874   -1.9818 C   0  0  0  0  0  0  0  0  0  0  0  0
   15.5292   26.0346   -2.9312 C   0  0  0  0  0  0  0  0  0  0  0  0
   16.8874   26.1859   -2.8710 F   0  0  0  0  0  0  0  0  0  0  0  0
   14.8538   26.6495   -3.9640 C   0  0  0  0  0  0  0  0  0  0  0  0
   13.4851   26.4839   -4.0054 C   0  0  0  0  0  0  0  0  0  0  0  0
   12.8175   25.7309   -3.0485 C   0  0  0  0  0  0  0  0  0  0  0  0
   13.5025   25.1209   -2.0208 C   0  0  0  0  0  0  0  0  0  0  0  0
   12.8110   24.3326   -1.0175 C   0  0  0  0  0  0  0  0  0  0  0  0
   12.0777   24.9754   -0.0467 C   0  0  0  0  0  0  0  0  0  0  0  0
   11.3956   24.2602    0.9393 C   0  0  0  0  0  0  0  0  0  0  0  0
   11.4681   22.8903    0.9257 C   0  0  0  0  0  0  0  0  0  0  0  0
   12.2079   22.2620   -0.0549 C   0  0  0  0  0  0  0  0  0  0  0  0
   12.4664   20.9646   -0.3297 N   0  0  0  0  0  0  0  0  0  0  0  0
   13.2568   20.8710   -1.4138 C   0  0  0  0  0  0  0  0  0  0  0  0
   13.4799   22.1449   -1.8020 N   0  0  0  0  0  0  0  0  0  0  0  0
   12.8539   22.9897   -0.9918 N   0  0  0  0  0  0  0  0  0  0  0  0
   15.4919   27.4349   -4.9742 C   0  0  0  0  0  0  0  0  0  0  0  0
   15.9989   28.0874   -5.7913 N   0  0  0  0  0  0  0  0  0  0  0  0
  1  2  1  0  0  0
  2  3  2  0  0  0
  3  4  1  0  0  0
  3  5  1  0  0  0
  5  6  2  0  0  0
  6  7  1  0  0  0
  7  8  2  0  0  0
  8  9  1  0  0  0
  9 10  2  0  0  0
 10 11  1  0  0  0
 11 12  2  0  0  0
 12 13  1  0  0  0
 13 14  2  0  0  0
 14 15  1  0  0  0
 15 16  2  0  0  0
 16 17  1  0  0  0
  5 18  1  0  0  0
 18 19  3  0  0  0
  8  2  1  0  0  0
 17  9  1  0  0  0
 17 13  1  0  0  0
M  END
> <minimizedAffinity>
-8.43136

> <CNNscore>
0.4506937265

> <CNNaffinity>
6.3507032394

> <CNN_VS>
2.8622221947

> <CNNaffinity_variance>
0.1223577261

$$$$
[H]c1nc(C([H])([H])N2C([H])([H])C([H])([H])C3(C(=O)N(c4c([H])c([H])c(-c5c([H])c([H])c([H])c([H])c5[H])c([H])c4[H])C(=O)N3c3nc([H])c([H])c(=O)n3[H])C([H])([H])C2([H])[H])c(C([H])([H])[H])c([H])c1[H]


 40 45  0  0  0  0  0  0  0  0999 V2000
   12.4554   27.1245   -3.5631 N   0  0  0  0  0  0  0  0  0  0  0  0
   11.7442   27.0020   -2.3027 C   0  0  0  0  0  0  0  0  0  0  0  0
   12.6309   26.1576   -1.4081 C   0  0  0  0  0  0  0  0  0  0  0  0
   12.7885   24.7430   -1.9574 C   0  0  0  0  0  0  0  0  0  0  0  0
   12.4630   24.7060   -3.3988 C   0  0  0  0  0  0  0  0  0  0  0  0
   12.9426   25.9722   -4.1363 C   0  0  0  0  0  0  0  0  0  0  0  0
   14.0295   24.2698   -1.5212 N   0  0  0  0  0  0  0  0  0  0  0  0
   13.8350   22.8890   -1.0615 C   0  0  0  0  0  0  0  0  0  0  0  0
   14.7110   22.0283   -0.9180 O   0  0  0  0  0  0  0  0  0  0  0  0
   12.4241   22.7042   -0.7724 N   0  0  0  0  0  0  0  0  0  0  0  0
   11.7744   23.8596   -1.1471 C   0  0  0  0  0  0  0  0  0  0  0  0
   10.6505   24.2579   -0.9677 O   0  0  0  0  0  0  0  0  0  0  0  0
   15.3637   24.7364   -1.2194 C   0  0  0  0  0  0  0  0  0  0  0  0
   16.1948   25.2547   -2.0800 N   0  0  0  0  0  0  0  0  0  0  0  0
   17.5542   25.3399   -1.7402 C   0  0  0  0  0  0  0  0  0  0  0  0
   18.0322   24.8960   -0.5675 C   0  0  0  0  0  0  0  0  0  0  0  0
   17.1209   24.3520    0.3738 C   0  0  0  0  0  0  0  0  0  0  0  0
   17.5469   23.9473    1.4613 O   0  0  0  0  0  0  0  0  0  0  0  0
   15.8706   24.3253   -0.0132 N   0  0  0  0  0  0  0  0  0  0  0  0
   15.1260   23.9162    0.6349 H   0  0  0  0  0  0  0  0  0  0  0  0
   12.0869   21.6410    0.1239 C   0  0  0  0  0  0  0  0  0  0  0  0
   12.8888   21.2601    1.1276 C   0  0  0  0  0  0  0  0  0  0  0  0
   12.3129   20.6611    2.2852 C   0  0  0  0  0  0  0  0  0  0  0  0
   10.9702   20.5072    2.3473 C   0  0  0  0  0  0  0  0  0  0  0  0
   10.1366   20.8707    1.2902 C   0  0  0  0  0  0  0  0  0  0  0  0
   10.6903   21.4211    0.1848 C   0  0  0  0  0  0  0  0  0  0  0  0
   10.2555   20.1339    3.5507 C   0  0  0  0  0  0  0  0  0  0  0  0
   10.8500   19.4296    4.5782 C   0  0  0  0  0  0  0  0  0  0  0  0
   10.1567   19.0114    5.6868 C   0  0  0  0  0  0  0  0  0  0  0  0
    8.7954   19.3009    5.7912 C   0  0  0  0  0  0  0  0  0  0  0  0
    8.2074   20.0115    4.7932 C   0  0  0  0  0  0  0  0  0  0  0  0
    8.9110   20.4135    3.7039 C   0  0  0  0  0  0  0  0  0  0  0  0
   12.7943   28.4206   -3.8735 C   0  0  0  0  0  0  0  0  0  0  0  0
   13.5123   30.9426   -3.2957 C   0  0  0  0  0  0  0  0  0  0  0  0
   12.1694   30.7650   -3.9397 C   0  0  0  0  0  0  0  0  0  0  0  0
   11.3785   31.8091   -4.2723 C   0  0  0  0  0  0  0  0  0  0  0  0
   10.0819   31.5170   -4.6772 C   0  0  0  0  0  0  0  0  0  0  0  0
    9.6521   30.2264   -4.7118 C   0  0  0  0  0  0  0  0  0  0  0  0
   10.4997   29.1909   -4.3536 N   0  0  0  0  0  0  0  0  0  0  0  0
   11.7490   29.4180   -3.9753 C   0  0  0  0  0  0  0  0  0  0  0  0
 34 35  1  0  0  0
 35 36  2  0  0  0
 36 37  1  0  0  0
 37 38  2  0  0  0
 38 39  1  0  0  0
 39 40  2  0  0  0
 40 33  1  0  0  0
 33  1  1  0  0  0
  1  2  1  0  0  0
  2  3  1  0  0  0
  3  4  1  0  0  0
  4  5  1  0  0  0
  5  6  1  0  0  0
  4  7  1  0  0  0
  7  8  1  0  0  0
  8  9  2  0  0  0
  8 10  1  0  0  0
 10 11  1  0  0  0
 11 12  2  0  0  0
 10 21  1  0  0  0
 21 22  2  0  0  0
 22 23  1  0  0  0
 23 24  2  0  0  0
 24 25  1  0  0  0
 25 26  2  0  0  0
 24 27  1  0  0  0
 27 28  2  0  0  0
 28 29  1  0  0  0
 29 30  2  0  0  0
 30 31  1  0  0  0
 31 32  2  0  0  0
  7 13  1  0  0  0
 13 14  2  0  0  0
 14 15  1  0  0  0
 15 16  2  0  0  0
 16 17  1  0  0  0
 17 18  2  0  0  0
 17 19  1  0  0  0
 40 35  1  0  0  0
  6  1  1  0  0  0
 26 21  1  0  0  0
 32 27  1  0  0  0
 19 13  1  0  0  0
 11  4  1  0  0  0
 19 20  1  0  0  0
M  END
> <minimizedAffinity>
21.38752

> <CNNscore>
0.5647780895

> <CNNaffinity>
7.6398344040

> <CNN_VS>
4.3148112297

> <CNNaffinity_variance>
0.9220029116

$$$$
[H]c1nc(C([H])([H])N2C([H])([H])C([H])([H])C3(C(=O)N(c4c([H])c([H])c(-c5c([H])c([H])c([H])c([H])c5[H])c([H])c4[H])C(=O)N3c3nc([H])c([H])c(=O)n3[H])C([H])([H])C2([H])[H])c(C([H])([H])[H])c([H])c1[H]


 40 45  0  0  0  0  0  0  0  0999 V2000
    9.9653   23.1312    0.3190 N   0  0  0  0  0  0  0  0  0  0  0  0
   10.2195   23.0474   -1.1084 C   0  0  0  0  0  0  0  0  0  0  0  0
   11.7123   22.8221   -1.2501 C   0  0  0  0  0  0  0  0  0  0  0  0
   12.5063   24.0196   -0.7370 C   0  0  0  0  0  0  0  0  0  0  0  0
   11.6802   24.8385    0.1752 C   0  0  0  0  0  0  0  0  0  0  0  0
   10.7606   23.9744    1.0610 C   0  0  0  0  0  0  0  0  0  0  0  0
   13.7410   23.5344   -0.2962 N   0  0  0  0  0  0  0  0  0  0  0  0
   14.7741   24.4546   -0.7877 C   0  0  0  0  0  0  0  0  0  0  0  0
   15.9261   24.5711   -0.3536 O   0  0  0  0  0  0  0  0  0  0  0  0
   14.2205   25.1999   -1.9041 N   0  0  0  0  0  0  0  0  0  0  0  0
   12.8932   24.8483   -2.0133 C   0  0  0  0  0  0  0  0  0  0  0  0
   12.0600   25.0620   -2.8584 O   0  0  0  0  0  0  0  0  0  0  0  0
   14.3321   22.3662    0.3159 C   0  0  0  0  0  0  0  0  0  0  0  0
   15.3177   22.3783    1.1695 N   0  0  0  0  0  0  0  0  0  0  0  0
   16.0154   21.1848    1.4136 C   0  0  0  0  0  0  0  0  0  0  0  0
   15.7139   20.0347    0.7914 C   0  0  0  0  0  0  0  0  0  0  0  0
   14.6275   20.0219   -0.1207 C   0  0  0  0  0  0  0  0  0  0  0  0
   14.3338   18.9670   -0.6942 O   0  0  0  0  0  0  0  0  0  0  0  0
   14.0190   21.1702   -0.2778 N   0  0  0  0  0  0  0  0  0  0  0  0
   13.1999   21.2447   -0.9599 H   0  0  0  0  0  0  0  0  0  0  0  0
   15.1580   25.7719   -2.8214 C   0  0  0  0  0  0  0  0  0  0  0  0
   15.6618   25.0899   -3.8590 C   0  0  0  0  0  0  0  0  0  0  0  0
   16.0866   25.8040   -5.0167 C   0  0  0  0  0  0  0  0  0  0  0  0
   15.9554   27.1502   -5.0441 C   0  0  0  0  0  0  0  0  0  0  0  0
   15.4638   27.8656   -3.9527 C   0  0  0  0  0  0  0  0  0  0  0  0
   15.0801   27.1846   -2.8480 C   0  0  0  0  0  0  0  0  0  0  0  0
   16.1290   27.9538   -6.2367 C   0  0  0  0  0  0  0  0  0  0  0  0
   16.3457   27.3973   -7.4811 C   0  0  0  0  0  0  0  0  0  0  0  0
   16.5831   28.1563   -8.6001 C   0  0  0  0  0  0  0  0  0  0  0  0
   16.6114   29.5473   -8.4893 C   0  0  0  0  0  0  0  0  0  0  0  0
   16.3788   30.1034   -7.2714 C   0  0  0  0  0  0  0  0  0  0  0  0
   16.1486   29.3341   -6.1766 C   0  0  0  0  0  0  0  0  0  0  0  0
    9.1413   22.1339    0.7851 C   0  0  0  0  0  0  0  0  0  0  0  0
    7.6443   24.1661    1.7011 C   0  0  0  0  0  0  0  0  0  0  0  0
    7.8130   22.9962    2.6244 C   0  0  0  0  0  0  0  0  0  0  0  0
    7.2035   22.9263    3.8286 C   0  0  0  0  0  0  0  0  0  0  0  0
    7.5901   21.8942    4.6745 C   0  0  0  0  0  0  0  0  0  0  0  0
    8.5545   21.0170    4.2845 C   0  0  0  0  0  0  0  0  0  0  0  0
    9.1551   21.1357    3.0418 N   0  0  0  0  0  0  0  0  0  0  0  0
    8.8096   22.0939    2.1945 C   0  0  0  0  0  0  0  0  0  0  0  0
 34 35  1  0  0  0
 35 36  2  0  0  0
 36 37  1  0  0  0
 37 38  2  0  0  0
 38 39  1  0  0  0
 39 40  2  0  0  0
 40 33  1  0  0  0
 33  1  1  0  0  0
  1  2  1  0  0  0
  2  3  1  0  0  0
  3  4  1  0  0  0
  4  5  1  0  0  0
  5  6  1  0  0  0
  4  7  1  0  0  0
  7  8  1  0  0  0
  8  9  2  0  0  0
  8 10  1  0  0  0
 10 11  1  0  0  0
 11 12  2  0  0  0
 10 21  1  0  0  0
 21 22  2  0  0  0
 22 23  1  0  0  0
 23 24  2  0  0  0
 24 25  1  0  0  0
 25 26  2  0  0  0
 24 27  1  0  0  0
 27 28  2  0  0  0
 28 29  1  0  0  0
 29 30  2  0  0  0
 30 31  1  0  0  0
 31 32  2  0  0  0
  7 13  1  0  0  0
 13 14  2  0  0  0
 14 15  1  0  0  0
 15 16  2  0  0  0
 16 17  1  0  0  0
 17 18  2  0  0  0
 17 19  1  0  0  0
 40 35  1  0  0  0
  6  1  1  0  0  0
 26 21  1  0  0  0
 32 27  1  0  0  0
 19 13  1  0  0  0
 11  4  1  0  0  0
 19 20  1  0  0  0
M  END
> <minimizedAffinity>
11.66629

> <CNNscore>
0.5607380867

> <CNNaffinity>
7.8064575195

> <CNN_VS>
4.3773779869

> <CNNaffinity_variance>
0.4034468532

$$$$
[H]c1nc(C([H])([H])N2C([H])([H])C([H])([H])C3(C(=O)N(c4c([H])c([H])c(-c5c([H])c([H])c([H])c([H])c5[H])c([H])c4[H])C(=O)N3c3nc([H])c([H])c(=O)n3[H])C([H])([H])C2([H])[H])c(C([H])([H])[H])c([H])c1[H]


 40 45  0  0  0  0  0  0  0  0999 V2000
    9.6097   22.5701    1.7520 N   0  0  0  0  0  0  0  0  0  0  0  0
    9.4689   22.7390    0.3163 C   0  0  0  0  0  0  0  0  0  0  0  0
   10.8720   22.6429   -0.2508 C   0  0  0  0  0  0  0  0  0  0  0  0
   11.7488   23.7919    0.2379 C   0  0  0  0  0  0  0  0  0  0  0  0
   11.1834   24.3916    1.4649 C   0  0  0  0  0  0  0  0  0  0  0  0
   10.5576   23.3329    2.3949 C   0  0  0  0  0  0  0  0  0  0  0  0
   13.0672   23.3269    0.2453 N   0  0  0  0  0  0  0  0  0  0  0  0
   13.9078   24.3839   -0.3306 C   0  0  0  0  0  0  0  0  0  0  0  0
   15.1314   24.5065   -0.2017 O   0  0  0  0  0  0  0  0  0  0  0  0
   13.0559   25.2623   -1.1123 N   0  0  0  0  0  0  0  0  0  0  0  0
   11.7567   24.8430   -0.9285 C   0  0  0  0  0  0  0  0  0  0  0  0
   10.7211   25.1346   -1.4728 O   0  0  0  0  0  0  0  0  0  0  0  0
   13.8277   22.1176    0.4643 C   0  0  0  0  0  0  0  0  0  0  0  0
   14.9016   22.0236    1.1978 N   0  0  0  0  0  0  0  0  0  0  0  0
   15.7266   20.8978    1.0475 C   0  0  0  0  0  0  0  0  0  0  0  0
   15.4578   19.9207    0.1678 C   0  0  0  0  0  0  0  0  0  0  0  0
   14.2772   20.0173   -0.6129 C   0  0  0  0  0  0  0  0  0  0  0  0
   14.0134   19.1198   -1.4209 O   0  0  0  0  0  0  0  0  0  0  0  0
   13.5548   21.0878   -0.3994 N   0  0  0  0  0  0  0  0  0  0  0  0
   12.6579   21.2399   -0.9600 H   0  0  0  0  0  0  0  0  0  0  0  0
   13.6966   26.0399   -2.1284 C   0  0  0  0  0  0  0  0  0  0  0  0
   15.0220   26.2345   -2.1614 C   0  0  0  0  0  0  0  0  0  0  0  0
   15.6552   26.4786   -3.4145 C   0  0  0  0  0  0  0  0  0  0  0  0
   14.9041   26.4916   -4.5396 C   0  0  0  0  0  0  0  0  0  0  0  0
   13.5201   26.3240   -4.5044 C   0  0  0  0  0  0  0  0  0  0  0  0
   12.9208   26.1121   -3.3097 C   0  0  0  0  0  0  0  0  0  0  0  0
   15.4564   26.4941   -5.8787 C   0  0  0  0  0  0  0  0  0  0  0  0
   16.3918   27.4206   -6.2936 C   0  0  0  0  0  0  0  0  0  0  0  0
   16.8626   27.4707   -7.5821 C   0  0  0  0  0  0  0  0  0  0  0  0
   16.3835   26.5560   -8.5211 C   0  0  0  0  0  0  0  0  0  0  0  0
   15.4776   25.6279   -8.1154 C   0  0  0  0  0  0  0  0  0  0  0  0
   15.0231   25.5974   -6.8364 C   0  0  0  0  0  0  0  0  0  0  0  0
    8.9651   21.4557    2.2352 C   0  0  0  0  0  0  0  0  0  0  0  0
    6.4009   21.1130    2.9544 C   0  0  0  0  0  0  0  0  0  0  0  0
    6.7594   20.7034    1.5568 C   0  0  0  0  0  0  0  0  0  0  0  0
    5.8435   20.2424    0.6764 C   0  0  0  0  0  0  0  0  0  0  0  0
    6.3223   19.7098   -0.5141 C   0  0  0  0  0  0  0  0  0  0  0  0
    7.6618   19.6547   -0.7474 C   0  0  0  0  0  0  0  0  0  0  0  0
    8.5613   20.1340    0.1909 N   0  0  0  0  0  0  0  0  0  0  0  0
    8.1527   20.6645    1.3341 C   0  0  0  0  0  0  0  0  0  0  0  0
 34 35  1  0  0  0
 35 36  2  0  0  0
 36 37  1  0  0  0
 37 38  2  0  0  0
 38 39  1  0  0  0
 39 40  2  0  0  0
 40 33  1  0  0  0
 33  1  1  0  0  0
  1  2  1  0  0  0
  2  3  1  0  0  0
  3  4  1  0  0  0
  4  5  1  0  0  0
  5  6  1  0  0  0
  4  7  1  0  0  0
  7  8  1  0  0  0
  8  9  2  0  0  0
  8 10  1  0  0  0
 10 11  1  0  0  0
 11 12  2  0  0  0
 10 21  1  0  0  0
 21 22  2  0  0  0
 22 23  1  0  0  0
 23 24  2  0  0  0
 24 25  1  0  0  0
 25 26  2  0  0  0
 24 27  1  0  0  0
 27 28  2  0  0  0
 28 29  1  0  0  0
 29 30  2  0  0  0
 30 31  1  0  0  0
 31 32  2  0  0  0
  7 13  1  0  0  0
 13 14  2  0  0  0
 14 15  1  0  0  0
 15 16  2  0  0  0
 16 17  1  0  0  0
 17 18  2  0  0  0
 17 19  1  0  0  0
 40 35  1  0  0  0
  6  1  1  0  0  0
 26 21  1  0  0  0
 32 27  1  0  0  0
 19 13  1  0  0  0
 11  4  1  0  0  0
 19 20  1  0  0  0
M  END
> <minimizedAffinity>
-1.10723

> <CNNscore>
0.5348472595

> <CNNaffinity>
8.0092983246

> <CNN_VS>
4.2837514877

> <CNNaffinity_variance>
1.0467412472

$$$$
[H]c1nc(C([H])([H])N2C([H])([H])C([H])([H])C3(C(=O)N(c4c([H])c([H])c(-c5c([H])c([H])c([H])c([H])c5[H])c([H])c4[H])C(=O)N3c3nc([H])c([H])c(=O)n3[H])C([H])([H])C2([H])[H])c(C([H])([H])[H])c([H])c1[H]


 40 45  0  0  0  0  0  0  0  0999 V2000
   16.1952   23.6036   -3.6624 N   0  0  0  0  0  0  0  0  0  0  0  0
   15.4267   22.3726   -3.7207 C   0  0  0  0  0  0  0  0  0  0  0  0
   14.0830   22.6940   -3.0956 C   0  0  0  0  0  0  0  0  0  0  0  0
   14.2275   23.0465   -1.6182 C   0  0  0  0  0  0  0  0  0  0  0  0
   15.6168   23.4488   -1.3133 C   0  0  0  0  0  0  0  0  0  0  0  0
   16.2503   24.2657   -2.4573 C   0  0  0  0  0  0  0  0  0  0  0  0
   13.1763   23.9107   -1.2983 N   0  0  0  0  0  0  0  0  0  0  0  0
   12.6258   23.4729   -0.0095 C   0  0  0  0  0  0  0  0  0  0  0  0
   11.9309   24.1436    0.7626 O   0  0  0  0  0  0  0  0  0  0  0  0
   13.0154   22.0901    0.2012 N   0  0  0  0  0  0  0  0  0  0  0  0
   13.8544   21.7387   -0.8333 C   0  0  0  0  0  0  0  0  0  0  0  0
   14.3064   20.6803   -1.1929 O   0  0  0  0  0  0  0  0  0  0  0  0
   12.3649   24.9533   -1.8844 C   0  0  0  0  0  0  0  0  0  0  0  0
   11.1049   24.8415   -2.2005 N   0  0  0  0  0  0  0  0  0  0  0  0
   10.5385   25.7898   -3.0670 C   0  0  0  0  0  0  0  0  0  0  0  0
   11.2489   26.7998   -3.5921 C   0  0  0  0  0  0  0  0  0  0  0  0
   12.6140   26.9294   -3.2287 C   0  0  0  0  0  0  0  0  0  0  0  0
   13.2776   27.8603   -3.6987 O   0  0  0  0  0  0  0  0  0  0  0  0
   13.0594   26.0159   -2.4035 N   0  0  0  0  0  0  0  0  0  0  0  0
   14.0821   26.0371   -2.0945 H   0  0  0  0  0  0  0  0  0  0  0  0
   12.2139   21.3291    1.1100 C   0  0  0  0  0  0  0  0  0  0  0  0
   12.5473   21.1550    2.3961 C   0  0  0  0  0  0  0  0  0  0  0  0
   11.5170   20.9288    3.3542 C   0  0  0  0  0  0  0  0  0  0  0  0
   10.2283   20.9117    2.9428 C   0  0  0  0  0  0  0  0  0  0  0  0
    9.8808   21.0580    1.6003 C   0  0  0  0  0  0  0  0  0  0  0  0
   10.8643   21.2528    0.6913 C   0  0  0  0  0  0  0  0  0  0  0  0
    9.0936   20.9264    3.8430 C   0  0  0  0  0  0  0  0  0  0  0  0
    8.0800   21.8581    3.7436 C   0  0  0  0  0  0  0  0  0  0  0  0
    7.0413   21.9200    4.6390 C   0  0  0  0  0  0  0  0  0  0  0  0
    6.9969   21.0124    5.6984 C   0  0  0  0  0  0  0  0  0  0  0  0
    7.9803   20.0791    5.7914 C   0  0  0  0  0  0  0  0  0  0  0  0
    9.0002   20.0370    4.8963 C   0  0  0  0  0  0  0  0  0  0  0  0
   16.5333   24.0939   -4.9018 C   0  0  0  0  0  0  0  0  0  0  0  0
   15.6074   24.8862   -7.2945 C   0  0  0  0  0  0  0  0  0  0  0  0
   15.7723   25.9575   -6.2579 C   0  0  0  0  0  0  0  0  0  0  0  0
   15.4225   27.2440   -6.4795 C   0  0  0  0  0  0  0  0  0  0  0  0
   15.8039   28.1771   -5.5235 C   0  0  0  0  0  0  0  0  0  0  0  0
   16.5117   27.7837   -4.4299 C   0  0  0  0  0  0  0  0  0  0  0  0
   16.8528   26.4529   -4.2519 N   0  0  0  0  0  0  0  0  0  0  0  0
   16.4989   25.5241   -5.1281 C   0  0  0  0  0  0  0  0  0  0  0  0
 34 35  1  0  0  0
 35 36  2  0  0  0
 36 37  1  0  0  0
 37 38  2  0  0  0
 38 39  1  0  0  0
 39 40  2  0  0  0
 40 33  1  0  0  0
 33  1  1  0  0  0
  1  2  1  0  0  0
  2  3  1  0  0  0
  3  4  1  0  0  0
  4  5  1  0  0  0
  5  6  1  0  0  0
  4  7  1  0  0  0
  7  8  1  0  0  0
  8  9  2  0  0  0
  8 10  1  0  0  0
 10 11  1  0  0  0
 11 12  2  0  0  0
 10 21  1  0  0  0
 21 22  2  0  0  0
 22 23  1  0  0  0
 23 24  2  0  0  0
 24 25  1  0  0  0
 25 26  2  0  0  0
 24 27  1  0  0  0
 27 28  2  0  0  0
 28 29  1  0  0  0
 29 30  2  0  0  0
 30 31  1  0  0  0
 31 32  2  0  0  0
  7 13  1  0  0  0
 13 14  2  0  0  0
 14 15  1  0  0  0
 15 16  2  0  0  0
 16 17  1  0  0  0
 17 18  2  0  0  0
 17 19  1  0  0  0
 40 35  1  0  0  0
  6  1  1  0  0  0
 26 21  1  0  0  0
 32 27  1  0  0  0
 19 13  1  0  0  0
 11  4  1  0  0  0
 19 20  1  0  0  0
M  END
> <minimizedAffinity>
7.58119

> <CNNscore>
0.5260013342

> <CNNaffinity>
7.7538108826

> <CNN_VS>
4.0785150528

> <CNNaffinity_variance>
0.4491595328

$$$$
[H]c1nc(C([H])([H])N2C([H])([H])C([H])([H])C3(C(=O)N(c4c([H])c([H])c(-c5c([H])c([H])c([H])c([H])c5[H])c([H])c4[H])C(=O)N3c3nc([H])c([H])c(=O)n3[H])C([H])([H])C2([H])[H])c(C([H])([H])[H])c([H])c1[H]


 40 45  0  0  0  0  0  0  0  0999 V2000
   17.1086   25.0850   -1.2227 N   0  0  0  0  0  0  0  0  0  0  0  0
   16.7877   23.7824   -1.7792 C   0  0  0  0  0  0  0  0  0  0  0  0
   15.3249   23.8501   -2.1730 C   0  0  0  0  0  0  0  0  0  0  0  0
   14.4286   24.0337   -0.9520 C   0  0  0  0  0  0  0  0  0  0  0  0
   15.2044   24.5698    0.1863 C   0  0  0  0  0  0  0  0  0  0  0  0
   16.2642   25.5954   -0.2634 C   0  0  0  0  0  0  0  0  0  0  0  0
   13.2835   24.7106   -1.3821 N   0  0  0  0  0  0  0  0  0  0  0  0
   12.1265   24.0508   -0.7643 C   0  0  0  0  0  0  0  0  0  0  0  0
   10.9944   24.5270   -0.6213 O   0  0  0  0  0  0  0  0  0  0  0  0
   12.5291   22.7138   -0.3658 N   0  0  0  0  0  0  0  0  0  0  0  0
   13.8800   22.6025   -0.6115 C   0  0  0  0  0  0  0  0  0  0  0  0
   14.6355   21.6628   -0.6027 O   0  0  0  0  0  0  0  0  0  0  0  0
   12.8644   25.7050   -2.3435 C   0  0  0  0  0  0  0  0  0  0  0  0
   11.6391   26.1139   -2.5213 N   0  0  0  0  0  0  0  0  0  0  0  0
   11.3222   26.8082   -3.6995 C   0  0  0  0  0  0  0  0  0  0  0  0
   12.2308   27.0557   -4.6556 C   0  0  0  0  0  0  0  0  0  0  0  0
   13.5671   26.6272   -4.4481 C   0  0  0  0  0  0  0  0  0  0  0  0
   14.4157   26.8564   -5.3172 O   0  0  0  0  0  0  0  0  0  0  0  0
   13.7826   26.0038   -3.3174 N   0  0  0  0  0  0  0  0  0  0  0  0
   14.7613   25.6371   -3.0949 H   0  0  0  0  0  0  0  0  0  0  0  0
   11.4834   21.7506   -0.2035 C   0  0  0  0  0  0  0  0  0  0  0  0
   10.6854   21.7248    0.8727 C   0  0  0  0  0  0  0  0  0  0  0  0
    9.3699   21.1917    0.7469 C   0  0  0  0  0  0  0  0  0  0  0  0
    8.9557   20.7402   -0.4593 C   0  0  0  0  0  0  0  0  0  0  0  0
    9.7955   20.7339   -1.5725 C   0  0  0  0  0  0  0  0  0  0  0  0
   11.0506   21.2231   -1.4432 C   0  0  0  0  0  0  0  0  0  0  0  0
    7.5815   20.3986   -0.7646 C   0  0  0  0  0  0  0  0  0  0  0  0
    7.2119   19.8025   -1.9535 C   0  0  0  0  0  0  0  0  0  0  0  0
    5.9029   19.5441   -2.2762 C   0  0  0  0  0  0  0  0  0  0  0  0
    4.8950   19.8949   -1.3767 C   0  0  0  0  0  0  0  0  0  0  0  0
    5.2523   20.4636   -0.1954 C   0  0  0  0  0  0  0  0  0  0  0  0
    6.5531   20.7128    0.1030 C   0  0  0  0  0  0  0  0  0  0  0  0
   18.0656   25.7632   -1.9404 C   0  0  0  0  0  0  0  0  0  0  0  0
   20.0807   27.2188   -2.9556 C   0  0  0  0  0  0  0  0  0  0  0  0
   18.7035   27.5607   -3.4414 C   0  0  0  0  0  0  0  0  0  0  0  0
   18.4776   28.5046   -4.3818 C   0  0  0  0  0  0  0  0  0  0  0  0
   17.1563   28.8714   -4.6056 C   0  0  0  0  0  0  0  0  0  0  0  0
   16.1568   28.2978   -3.8819 C   0  0  0  0  0  0  0  0  0  0  0  0
   16.4410   27.3394   -2.9229 N   0  0  0  0  0  0  0  0  0  0  0  0
   17.6834   26.9459   -2.6840 C   0  0  0  0  0  0  0  0  0  0  0  0
 34 35  1  0  0  0
 35 36  2  0  0  0
 36 37  1  0  0  0
 37 38  2  0  0  0
 38 39  1  0  0  0
 39 40  2  0  0  0
 40 33  1  0  0  0
 33  1  1  0  0  0
  1  2  1  0  0  0
  2  3  1  0  0  0
  3  4  1  0  0  0
  4  5  1  0  0  0
  5  6  1  0  0  0
  4  7  1  0  0  0
  7  8  1  0  0  0
  8  9  2  0  0  0
  8 10  1  0  0  0
 10 11  1  0  0  0
 11 12  2  0  0  0
 10 21  1  0  0  0
 21 22  2  0  0  0
 22 23  1  0  0  0
 23 24  2  0  0  0
 24 25  1  0  0  0
 25 26  2  0  0  0
 24 27  1  0  0  0
 27 28  2  0  0  0
 28 29  1  0  0  0
 29 30  2  0  0  0
 30 31  1  0  0  0
 31 32  2  0  0  0
  7 13  1  0  0  0
 13 14  2  0  0  0
 14 15  1  0  0  0
 15 16  2  0  0  0
 16 17  1  0  0  0
 17 18  2  0  0  0
 17 19  1  0  0  0
 40 35  1  0  0  0
  6  1  1  0  0  0
 26 21  1  0  0  0
 32 27  1  0  0  0
 19 13  1  0  0  0
 11  4  1  0  0  0
 19 20  1  0  0  0
M  END
> <minimizedAffinity>
8.16613

> <CNNscore>
0.4664193392

> <CNNaffinity>
7.7363557816

> <CNN_VS>
3.6083860397

> <CNNaffinity_variance>
0.6363190413

$$$$
[H]c1nc(C([H])([H])N2C([H])([H])C([H])([H])C3(C(=O)N(c4c([H])c([H])c(-c5c([H])c([H])c([H])c([H])c5[H])c([H])c4[H])C(=O)N3c3nc([H])c([H])c(=O)n3[H])C([H])([H])C2([H])[H])c(C([H])([H])[H])c([H])c1[H]


 40 45  0  0  0  0  0  0  0  0999 V2000
   15.8945   24.1347   -5.6217 N   0  0  0  0  0  0  0  0  0  0  0  0
   14.8407   23.1376   -5.5557 C   0  0  0  0  0  0  0  0  0  0  0  0
   14.1031   23.4007   -4.2571 C   0  0  0  0  0  0  0  0  0  0  0  0
   15.0033   23.1622   -3.0486 C   0  0  0  0  0  0  0  0  0  0  0  0
   16.4270   23.2166   -3.4422 C   0  0  0  0  0  0  0  0  0  0  0  0
   16.6939   24.2936   -4.5128 C   0  0  0  0  0  0  0  0  0  0  0  0
   14.5419   23.9931   -2.0234 N   0  0  0  0  0  0  0  0  0  0  0  0
   14.5287   23.1993   -0.7884 C   0  0  0  0  0  0  0  0  0  0  0  0
   14.5088   23.6345    0.3688 O   0  0  0  0  0  0  0  0  0  0  0  0
   14.5157   21.7944   -1.1551 N   0  0  0  0  0  0  0  0  0  0  0  0
   14.6372   21.7276   -2.5256 C   0  0  0  0  0  0  0  0  0  0  0  0
   14.5196   20.8206   -3.3113 O   0  0  0  0  0  0  0  0  0  0  0  0
   13.9263   25.2847   -1.8193 C   0  0  0  0  0  0  0  0  0  0  0  0
   13.6343   25.8072   -0.6609 N   0  0  0  0  0  0  0  0  0  0  0  0
   12.7387   26.8872   -0.6128 C   0  0  0  0  0  0  0  0  0  0  0  0
   12.1619   27.3936   -1.7135 C   0  0  0  0  0  0  0  0  0  0  0  0
   12.4988   26.8353   -2.9734 C   0  0  0  0  0  0  0  0  0  0  0  0
   11.9811   27.2980   -3.9960 O   0  0  0  0  0  0  0  0  0  0  0  0
   13.3536   25.8447   -2.9326 N   0  0  0  0  0  0  0  0  0  0  0  0
   13.6457   25.3618   -3.8399 H   0  0  0  0  0  0  0  0  0  0  0  0
   14.0196   20.8797   -0.1729 C   0  0  0  0  0  0  0  0  0  0  0  0
   14.6933   20.5871    0.9478 C   0  0  0  0  0  0  0  0  0  0  0  0
   13.9688   20.1801    2.1054 C   0  0  0  0  0  0  0  0  0  0  0  0
   12.6187   20.1150    2.0471 C   0  0  0  0  0  0  0  0  0  0  0  0
   11.9173   20.3853    0.8726 C   0  0  0  0  0  0  0  0  0  0  0  0
   12.6114   20.7524   -0.2297 C   0  0  0  0  0  0  0  0  0  0  0  0
   11.7682   19.9457    3.2074 C   0  0  0  0  0  0  0  0  0  0  0  0
   11.7311   18.7734    3.9352 C   0  0  0  0  0  0  0  0  0  0  0  0
   10.8736   18.5842    4.9903 C   0  0  0  0  0  0  0  0  0  0  0  0
    9.9972   19.6087    5.3512 C   0  0  0  0  0  0  0  0  0  0  0  0
   10.0417   20.7733    4.6524 C   0  0  0  0  0  0  0  0  0  0  0  0
   10.8960   20.9388    3.6102 C   0  0  0  0  0  0  0  0  0  0  0  0
   15.7692   24.9898   -6.6913 C   0  0  0  0  0  0  0  0  0  0  0  0
   13.8228   26.0185   -5.1540 C   0  0  0  0  0  0  0  0  0  0  0  0
   14.9824   26.9222   -5.4511 C   0  0  0  0  0  0  0  0  0  0  0  0
   15.0865   28.1660   -4.9330 C   0  0  0  0  0  0  0  0  0  0  0  0
   16.0966   28.9777   -5.4341 C   0  0  0  0  0  0  0  0  0  0  0  0
   16.9194   28.5166   -6.4151 C   0  0  0  0  0  0  0  0  0  0  0  0
   16.7669   27.2352   -6.9189 N   0  0  0  0  0  0  0  0  0  0  0  0
   15.8284   26.4188   -6.4627 C   0  0  0  0  0  0  0  0  0  0  0  0
 34 35  1  0  0  0
 35 36  2  0  0  0
 36 37  1  0  0  0
 37 38  2  0  0  0
 38 39  1  0  0  0
 39 40  2  0  0  0
 40 33  1  0  0  0
 33  1  1  0  0  0
  1  2  1  0  0  0
  2  3  1  0  0  0
  3  4  1  0  0  0
  4  5  1  0  0  0
  5  6  1  0  0  0
  4  7  1  0  0  0
  7  8  1  0  0  0
  8  9  2  0  0  0
  8 10  1  0  0  0
 10 11  1  0  0  0
 11 12  2  0  0  0
 10 21  1  0  0  0
 21 22  2  0  0  0
 22 23  1  0  0  0
 23 24  2  0  0  0
 24 25  1  0  0  0
 25 26  2  0  0  0
 24 27  1  0  0  0
 27 28  2  0  0  0
 28 29  1  0  0  0
 29 30  2  0  0  0
 30 31  1  0  0  0
 31 32  2  0  0  0
  7 13  1  0  0  0
 13 14  2  0  0  0
 14 15  1  0  0  0
 15 16  2  0  0  0
 16 17  1  0  0  0
 17 18  2  0  0  0
 17 19  1  0  0  0
 40 35  1  0  0  0
  6  1  1  0  0  0
 26 21  1  0  0  0
 32 27  1  0  0  0
 19 13  1  0  0  0
 11  4  1  0  0  0
 19 20  1  0  0  0
M  END
> <minimizedAffinity>
16.69704

> <CNNscore>
0.4651701748

> <CNNaffinity>
7.4577875137

> <CNN_VS>
3.4691402912

> <CNNaffinity_variance>
0.7727887034

$$$$
[H]c1nc(C([H])([H])N2C([H])([H])C([H])([H])C3(C(=O)N(c4c([H])c([H])c(-c5c([H])c([H])c([H])c([H])c5[H])c([H])c4[H])C(=O)N3c3nc([H])c([H])c(=O)n3[H])C([H])([H])C2([H])[H])c(C([H])([H])[H])c([H])c1[H]


 40 45  0  0  0  0  0  0  0  0999 V2000
   10.7087   21.7069    2.0433 N   0  0  0  0  0  0  0  0  0  0  0  0
   12.0718   21.2712    1.7954 C   0  0  0  0  0  0  0  0  0  0  0  0
   12.8379   22.5171    1.3955 C   0  0  0  0  0  0  0  0  0  0  0  0
   12.3190   23.0904    0.0802 C   0  0  0  0  0  0  0  0  0  0  0  0
   10.9523   22.6004   -0.1970 C   0  0  0  0  0  0  0  0  0  0  0  0
   10.1034   22.4876    1.0852 C   0  0  0  0  0  0  0  0  0  0  0  0
   12.5626   24.4667    0.1085 N   0  0  0  0  0  0  0  0  0  0  0  0
   13.0949   24.8446   -1.2066 C   0  0  0  0  0  0  0  0  0  0  0  0
   13.1228   25.9811   -1.6930 O   0  0  0  0  0  0  0  0  0  0  0  0
   13.6168   23.6483   -1.8428 N   0  0  0  0  0  0  0  0  0  0  0  0
   13.3139   22.5832   -1.0235 C   0  0  0  0  0  0  0  0  0  0  0  0
   13.6607   21.4284   -1.0258 O   0  0  0  0  0  0  0  0  0  0  0  0
   12.6262   25.5747    1.0344 C   0  0  0  0  0  0  0  0  0  0  0  0
   11.8557   26.6262    1.0074 N   0  0  0  0  0  0  0  0  0  0  0  0
   12.2428   27.7667    1.7287 C   0  0  0  0  0  0  0  0  0  0  0  0
   13.3827   27.8193    2.4347 C   0  0  0  0  0  0  0  0  0  0  0  0
   14.2072   26.6657    2.4780 C   0  0  0  0  0  0  0  0  0  0  0  0
   15.2558   26.6980    3.1317 O   0  0  0  0  0  0  0  0  0  0  0  0
   13.7662   25.6404    1.7940 N   0  0  0  0  0  0  0  0  0  0  0  0
   14.3393   24.7389    1.7654 H   0  0  0  0  0  0  0  0  0  0  0  0
   14.5921   23.8425   -2.8718 C   0  0  0  0  0  0  0  0  0  0  0  0
   14.9265   22.8794   -3.7414 C   0  0  0  0  0  0  0  0  0  0  0  0
   15.4090   23.2474   -5.0307 C   0  0  0  0  0  0  0  0  0  0  0  0
   15.5018   24.5592   -5.3486 C   0  0  0  0  0  0  0  0  0  0  0  0
   15.1874   25.5637   -4.4338 C   0  0  0  0  0  0  0  0  0  0  0  0
   14.7483   25.2091   -3.2039 C   0  0  0  0  0  0  0  0  0  0  0  0
   15.7501   25.0491   -6.6890 C   0  0  0  0  0  0  0  0  0  0  0  0
   14.7351   25.4674   -7.5257 C   0  0  0  0  0  0  0  0  0  0  0  0
   14.9596   25.8632   -8.8209 C   0  0  0  0  0  0  0  0  0  0  0  0
   16.2607   25.8447   -9.3257 C   0  0  0  0  0  0  0  0  0  0  0  0
   17.2680   25.4535   -8.5017 C   0  0  0  0  0  0  0  0  0  0  0  0
   17.0238   25.0634   -7.2244 C   0  0  0  0  0  0  0  0  0  0  0  0
   10.3029   21.5137    3.3429 C   0  0  0  0  0  0  0  0  0  0  0  0
    9.0062   20.3505    5.3862 C   0  0  0  0  0  0  0  0  0  0  0  0
    8.5987   21.7552    5.0542 C   0  0  0  0  0  0  0  0  0  0  0  0
    7.6752   22.4333    5.7709 C   0  0  0  0  0  0  0  0  0  0  0  0
    7.2374   23.6458    5.2529 C   0  0  0  0  0  0  0  0  0  0  0  0
    7.7251   24.0965    4.0651 C   0  0  0  0  0  0  0  0  0  0  0  0
    8.6659   23.3601    3.3640 N   0  0  0  0  0  0  0  0  0  0  0  0
    9.1251   22.2057    3.8245 C   0  0  0  0  0  0  0  0  0  0  0  0
 34 35  1  0  0  0
 35 36  2  0  0  0
 36 37  1  0  0  0
 37 38  2  0  0  0
 38 39  1  0  0  0
 39 40  2  0  0  0
 40 33  1  0  0  0
 33  1  1  0  0  0
  1  2  1  0  0  0
  2  3  1  0  0  0
  3  4  1  0  0  0
  4  5  1  0  0  0
  5  6  1  0  0  0
  4  7  1  0  0  0
  7  8  1  0  0  0
  8  9  2  0  0  0
  8 10  1  0  0  0
 10 11  1  0  0  0
 11 12  2  0  0  0
 10 21  1  0  0  0
 21 22  2  0  0  0
 22 23  1  0  0  0
 23 24  2  0  0  0
 24 25  1  0  0  0
 25 26  2  0  0  0
 24 27  1  0  0  0
 27 28  2  0  0  0
 28 29  1  0  0  0
 29 30  2  0  0  0
 30 31  1  0  0  0
 31 32  2  0  0  0
  7 13  1  0  0  0
 13 14  2  0  0  0
 14 15  1  0  0  0
 15 16  2  0  0  0
 16 17  1  0  0  0
 17 18  2  0  0  0
 17 19  1  0  0  0
 40 35  1  0  0  0
  6  1  1  0  0  0
 26 21  1  0  0  0
 32 27  1  0  0  0
 19 13  1  0  0  0
 11  4  1  0  0  0
 19 20  1  0  0  0
M  END
> <minimizedAffinity>
20.00795

> <CNNscore>
0.4359371960

> <CNNaffinity>
7.1697511673

> <CNN_VS>
3.1255612373

> <CNNaffinity_variance>
0.2555069923

$$$$
[H]c1nc(C([H])([H])N2C([H])([H])C([H])([H])C3(C(=O)N(c4c([H])c([H])c(-c5c([H])c([H])c([H])c([H])c5[H])c([H])c4[H])C(=O)N3c3nc([H])c([H])c(=O)n3[H])C([H])([H])C2([H])[H])c(C([H])([H])[H])c([H])c1[H]


 40 45  0  0  0  0  0  0  0  0999 V2000
   14.4551   24.1679   -4.0380 N   0  0  0  0  0  0  0  0  0  0  0  0
   13.5153   25.1744   -3.5763 C   0  0  0  0  0  0  0  0  0  0  0  0
   13.5493   25.1082   -2.0618 C   0  0  0  0  0  0  0  0  0  0  0  0
   13.0334   23.7657   -1.5524 C   0  0  0  0  0  0  0  0  0  0  0  0
   13.0982   22.7452   -2.6199 C   0  0  0  0  0  0  0  0  0  0  0  0
   14.3527   22.9046   -3.5019 C   0  0  0  0  0  0  0  0  0  0  0  0
   13.6647   23.5213   -0.3293 N   0  0  0  0  0  0  0  0  0  0  0  0
   12.6427   23.0222    0.5992 C   0  0  0  0  0  0  0  0  0  0  0  0
   12.8396   22.3921    1.6447 O   0  0  0  0  0  0  0  0  0  0  0  0
   11.3410   23.4200    0.0938 N   0  0  0  0  0  0  0  0  0  0  0  0
   11.5423   24.0187   -1.1304 C   0  0  0  0  0  0  0  0  0  0  0  0
   10.8161   24.6458   -1.8606 O   0  0  0  0  0  0  0  0  0  0  0  0
   14.9173   23.7568    0.3520 C   0  0  0  0  0  0  0  0  0  0  0  0
   15.6802   24.8017    0.1896 N   0  0  0  0  0  0  0  0  0  0  0  0
   17.0101   24.7438    0.6354 C   0  0  0  0  0  0  0  0  0  0  0  0
   17.5292   23.6484    1.2110 C   0  0  0  0  0  0  0  0  0  0  0  0
   16.6894   22.5215    1.4044 C   0  0  0  0  0  0  0  0  0  0  0  0
   17.1528   21.5090    1.9412 O   0  0  0  0  0  0  0  0  0  0  0  0
   15.4601   22.6636    0.9774 N   0  0  0  0  0  0  0  0  0  0  0  0
   14.7707   21.8529    1.0740 H   0  0  0  0  0  0  0  0  0  0  0  0
   10.2735   23.4771    1.0450 C   0  0  0  0  0  0  0  0  0  0  0  0
    8.9836   23.5024    0.6830 C   0  0  0  0  0  0  0  0  0  0  0  0
    8.0028   22.9850    1.5779 C   0  0  0  0  0  0  0  0  0  0  0  0
    8.4012   22.4673    2.7627 C   0  0  0  0  0  0  0  0  0  0  0  0
    9.7388   22.4713    3.1567 C   0  0  0  0  0  0  0  0  0  0  0  0
   10.6643   22.9818    2.3116 C   0  0  0  0  0  0  0  0  0  0  0  0
    7.5370   21.7080    3.6430 C   0  0  0  0  0  0  0  0  0  0  0  0
    6.2691   21.3071    3.2731 C   0  0  0  0  0  0  0  0  0  0  0  0
    5.4208   20.6512    4.1303 C   0  0  0  0  0  0  0  0  0  0  0  0
    5.8434   20.3741    5.4314 C   0  0  0  0  0  0  0  0  0  0  0  0
    7.0978   20.7476    5.7967 C   0  0  0  0  0  0  0  0  0  0  0  0
    7.9200   21.3978    4.9339 C   0  0  0  0  0  0  0  0  0  0  0  0
   15.5106   24.6924   -4.7462 C   0  0  0  0  0  0  0  0  0  0  0  0
   15.7857   26.8087   -6.3758 C   0  0  0  0  0  0  0  0  0  0  0  0
   16.1502   27.0260   -4.9373 C   0  0  0  0  0  0  0  0  0  0  0  0
   16.5394   28.2287   -4.4593 C   0  0  0  0  0  0  0  0  0  0  0  0
   17.0399   28.2629   -3.1637 C   0  0  0  0  0  0  0  0  0  0  0  0
   17.1359   27.1154   -2.4386 C   0  0  0  0  0  0  0  0  0  0  0  0
   16.7303   25.9051   -2.9767 N   0  0  0  0  0  0  0  0  0  0  0  0
   16.2325   25.8240   -4.2019 C   0  0  0  0  0  0  0  0  0  0  0  0
 34 35  1  0  0  0
 35 36  2  0  0  0
 36 37  1  0  0  0
 37 38  2  0  0  0
 38 39  1  0  0  0
 39 40  2  0  0  0
 40 33  1  0  0  0
 33  1  1  0  0  0
  1  2  1  0  0  0
  2  3  1  0  0  0
  3  4  1  0  0  0
  4  5  1  0  0  0
  5  6  1  0  0  0
  4  7  1  0  0  0
  7  8  1  0  0  0
  8  9  2  0  0  0
  8 10  1  0  0  0
 10 11  1  0  0  0
 11 12  2  0  0  0
 10 21  1  0  0  0
 21 22  2  0  0  0
 22 23  1  0  0  0
 23 24  2  0  0  0
 24 25  1  0  0  0
 25 26  2  0  0  0
 24 27  1  0  0  0
 27 28  2  0  0  0
 28 29  1  0  0  0
 29 30  2  0  0  0
 30 31  1  0  0  0
 31 32  2  0  0  0
  7 13  1  0  0  0
 13 14  2  0  0  0
 14 15  1  0  0  0
 15 16  2  0  0  0
 16 17  1  0  0  0
 17 18  2  0  0  0
 17 19  1  0  0  0
 40 35  1  0  0  0
  6  1  1  0  0  0
 26 21  1  0  0  0
 32 27  1  0  0  0
 19 13  1  0  0  0
 11  4  1  0  0  0
 19 20  1  0  0  0
M  END
> <minimizedAffinity>
-3.02156

> <CNNscore>
0.4271561503

> <CNNaffinity>
7.7813987732

> <CNN_VS>
3.3238723278

> <CNNaffinity_variance>
0.1400940567

$$$$
[H]c1nc(C([H])([H])N2C([H])([H])C([H])([H])C3(C(=O)N(c4c([H])c([H])c(-c5c([H])c([H])c([H])c([H])c5[H])c([H])c4[H])C(=O)N3c3nc([H])c([H])c(=O)n3[H])C([H])([H])C2([H])[H])c(C([H])([H])[H])c([H])c1[H]


 40 45  0  0  0  0  0  0  0  0999 V2000
   14.3818   23.8773   -3.8066 N   0  0  0  0  0  0  0  0  0  0  0  0
   13.4973   24.9356   -3.3516 C   0  0  0  0  0  0  0  0  0  0  0  0
   13.5438   24.8906   -1.8366 C   0  0  0  0  0  0  0  0  0  0  0  0
   12.9679   23.5829   -1.3016 C   0  0  0  0  0  0  0  0  0  0  0  0
   12.9715   22.5446   -2.3536 C   0  0  0  0  0  0  0  0  0  0  0  0
   14.2231   22.6288   -3.2501 C   0  0  0  0  0  0  0  0  0  0  0  0
   13.5991   23.3261   -0.0810 N   0  0  0  0  0  0  0  0  0  0  0  0
   12.5636   22.8920    0.8650 C   0  0  0  0  0  0  0  0  0  0  0  0
   12.7402   22.2687    1.9182 O   0  0  0  0  0  0  0  0  0  0  0  0
   11.2777   23.3457    0.3660 N   0  0  0  0  0  0  0  0  0  0  0  0
   11.4955   23.9153   -0.8692 C   0  0  0  0  0  0  0  0  0  0  0  0
   10.7934   24.5663   -1.6021 O   0  0  0  0  0  0  0  0  0  0  0  0
   14.8688   23.5099    0.5845 C   0  0  0  0  0  0  0  0  0  0  0  0
   15.6014   24.5871    0.5287 N   0  0  0  0  0  0  0  0  0  0  0  0
   16.9469   24.5108    0.9219 C   0  0  0  0  0  0  0  0  0  0  0  0
   17.5106   23.3674    1.3411 C   0  0  0  0  0  0  0  0  0  0  0  0
   16.7040   22.2030    1.4199 C   0  0  0  0  0  0  0  0  0  0  0  0
   17.2088   21.1452    1.8125 O   0  0  0  0  0  0  0  0  0  0  0  0
   15.4578   22.3632    1.0525 N   0  0  0  0  0  0  0  0  0  0  0  0
   14.7909   21.5285    1.0698 H   0  0  0  0  0  0  0  0  0  0  0  0
   10.2243   23.4696    1.3264 C   0  0  0  0  0  0  0  0  0  0  0  0
   10.4513   23.7609    2.6145 C   0  0  0  0  0  0  0  0  0  0  0  0
    9.4381   24.4272    3.3629 C   0  0  0  0  0  0  0  0  0  0  0  0
    8.2799   24.7622    2.7492 C   0  0  0  0  0  0  0  0  0  0  0  0
    8.0273   24.4295    1.4188 C   0  0  0  0  0  0  0  0  0  0  0  0
    8.9849   23.7792    0.7178 C   0  0  0  0  0  0  0  0  0  0  0  0
    7.2829   25.6380    3.3299 C   0  0  0  0  0  0  0  0  0  0  0  0
    6.4571   25.2405    4.3620 C   0  0  0  0  0  0  0  0  0  0  0  0
    5.4630   26.0424    4.8652 C   0  0  0  0  0  0  0  0  0  0  0  0
    5.2668   27.3119    4.3194 C   0  0  0  0  0  0  0  0  0  0  0  0
    6.0889   27.7184    3.3166 C   0  0  0  0  0  0  0  0  0  0  0  0
    7.0646   26.9082    2.8318 C   0  0  0  0  0  0  0  0  0  0  0  0
   15.4544   24.3386   -4.5330 C   0  0  0  0  0  0  0  0  0  0  0  0
   15.5308   26.3971   -6.2553 C   0  0  0  0  0  0  0  0  0  0  0  0
   15.9751   26.6876   -4.8526 C   0  0  0  0  0  0  0  0  0  0  0  0
   16.3392   27.9240   -4.4463 C   0  0  0  0  0  0  0  0  0  0  0  0
   16.9182   28.0317   -3.1880 C   0  0  0  0  0  0  0  0  0  0  0  0
   17.1112   26.9195   -2.4280 C   0  0  0  0  0  0  0  0  0  0  0  0
   16.7274   25.6723   -2.8929 N   0  0  0  0  0  0  0  0  0  0  0  0
   16.1576   25.5208   -4.0795 C   0  0  0  0  0  0  0  0  0  0  0  0
 34 35  1  0  0  0
 35 36  2  0  0  0
 36 37  1  0  0  0
 37 38  2  0  0  0
 38 39  1  0  0  0
 39 40  2  0  0  0
 40 33  1  0  0  0
 33  1  1  0  0  0
  1  2  1  0  0  0
  2  3  1  0  0  0
  3  4  1  0  0  0
  4  5  1  0  0  0
  5  6  1  0  0  0
  4  7  1  0  0  0
  7  8  1  0  0  0
  8  9  2  0  0  0
  8 10  1  0  0  0
 10 11  1  0  0  0
 11 12  2  0  0  0
 10 21  1  0  0  0
 21 22  2  0  0  0
 22 23  1  0  0  0
 23 24  2  0  0  0
 24 25  1  0  0  0
 25 26  2  0  0  0
 24 27  1  0  0  0
 27 28  2  0  0  0
 28 29  1  0  0  0
 29 30  2  0  0  0
 30 31  1  0  0  0
 31 32  2  0  0  0
  7 13  1  0  0  0
 13 14  2  0  0  0
 14 15  1  0  0  0
 15 16  2  0  0  0
 16 17  1  0  0  0
 17 18  2  0  0  0
 17 19  1  0  0  0
 40 35  1  0  0  0
  6  1  1  0  0  0
 26 21  1  0  0  0
 32 27  1  0  0  0
 19 13  1  0  0  0
 11  4  1  0  0  0
 19 20  1  0  0  0
M  END
> <minimizedAffinity>
-4.30403

> <CNNscore>
0.4023512304

> <CNNaffinity>
7.7391905785

> <CNN_VS>
3.1138727665

> <CNNaffinity_variance>
0.0899561271

$$$$
[H]c1nc2c([H])c(N([H])C([H])([H])C3([H])C([H])([H])C3([H])[H])c([H])c(-c3c([H])c([H])c(C#N)c([H])c3[H])n2n1


 23 26  0  0  0  0  0  0  0  0999 V2000
   13.5639   24.7393   -1.9533 C   0  0  0  0  0  0  0  0  0  0  0  0
   12.1976   24.5149   -1.7449 C   0  0  0  0  0  0  0  0  0  0  0  0
   11.6501   24.1591   -0.5503 C   0  0  0  0  0  0  0  0  0  0  0  0
   12.4875   24.0106    0.5153 C   0  0  0  0  0  0  0  0  0  0  0  0
   13.8290   24.2236    0.3410 C   0  0  0  0  0  0  0  0  0  0  0  0
   14.8490   24.1439    1.2460 N   0  0  0  0  0  0  0  0  0  0  0  0
   15.9849   24.4471    0.6048 C   0  0  0  0  0  0  0  0  0  0  0  0
   15.6233   24.6990   -0.6572 N   0  0  0  0  0  0  0  0  0  0  0  0
   14.3397   24.5794   -0.8722 N   0  0  0  0  0  0  0  0  0  0  0  0
   15.1420   25.7761   -5.7832 C   0  0  0  0  0  0  0  0  0  0  0  0
   14.2352   26.5986   -5.1920 C   0  0  0  0  0  0  0  0  0  0  0  0
   13.7155   26.2722   -3.9283 C   0  0  0  0  0  0  0  0  0  0  0  0
   14.0798   25.1428   -3.2408 C   0  0  0  0  0  0  0  0  0  0  0  0
   15.0125   24.3420   -3.9010 C   0  0  0  0  0  0  0  0  0  0  0  0
   15.5340   24.6461   -5.1411 C   0  0  0  0  0  0  0  0  0  0  0  0
   16.0972   26.3677   -8.1196 N   0  0  0  0  0  0  0  0  0  0  0  0
   15.6836   26.1045   -7.0863 C   0  0  0  0  0  0  0  0  0  0  0  0
   10.2577   23.9423   -0.3865 N   0  0  0  0  0  0  0  0  0  0  0  0
    9.6134   24.7164   -0.6100 H   0  0  0  0  0  0  0  0  0  0  0  0
    9.7283   22.6908    0.0760 C   0  0  0  0  0  0  0  0  0  0  0  0
   10.1301   21.5706   -0.8525 C   0  0  0  0  0  0  0  0  0  0  0  0
    9.4378   20.2301   -0.6395 C   0  0  0  0  0  0  0  0  0  0  0  0
   10.8728   20.4231   -0.2408 C   0  0  0  0  0  0  0  0  0  0  0  0
 16 17  3  0  0  0
 17 10  1  0  0  0
 10 11  2  0  0  0
 11 12  1  0  0  0
 12 13  2  0  0  0
 13 14  1  0  0  0
 14 15  2  0  0  0
 13  1  1  0  0  0
  1  2  2  0  0  0
  2  3  1  0  0  0
  3 18  1  0  0  0
 18 20  1  0  0  0
 20 21  1  0  0  0
 21 22  1  0  0  0
 22 23  1  0  0  0
  3  4  2  0  0  0
  4  5  1  0  0  0
  5  6  2  0  0  0
  6  7  1  0  0  0
  7  8  2  0  0  0
  8  9  1  0  0  0
 15 10  1  0  0  0
  9  1  1  0  0  0
 23 21  1  0  0  0
  9  5  1  0  0  0
 18 19  1  0  0  0
M  END
> <minimizedAffinity>
-8.23144

> <CNNscore>
0.8137331009

> <CNNaffinity>
7.1748285294

> <CNN_VS>
5.8383955956

> <CNNaffinity_variance>
0.1280864477

$$$$
[H]c1nc2c([H])c(N([H])C([H])([H])C3([H])C([H])([H])C3([H])[H])c([H])c(-c3c([H])c([H])c(C#N)c([H])c3[H])n2n1


 23 26  0  0  0  0  0  0  0  0999 V2000
   13.4590   24.7533   -2.0245 C   0  0  0  0  0  0  0  0  0  0  0  0
   12.0879   24.5228   -1.8583 C   0  0  0  0  0  0  0  0  0  0  0  0
   11.5084   24.1440   -0.6861 C   0  0  0  0  0  0  0  0  0  0  0  0
   12.3162   23.9771    0.3993 C   0  0  0  0  0  0  0  0  0  0  0  0
   13.6615   24.1956    0.2663 C   0  0  0  0  0  0  0  0  0  0  0  0
   14.6563   24.1009    1.1976 N   0  0  0  0  0  0  0  0  0  0  0  0
   15.8089   24.4178    0.5939 C   0  0  0  0  0  0  0  0  0  0  0  0
   15.4817   24.6925   -0.6728 N   0  0  0  0  0  0  0  0  0  0  0  0
   14.2049   24.5747   -0.9255 N   0  0  0  0  0  0  0  0  0  0  0  0
   15.1431   25.8645   -5.7878 C   0  0  0  0  0  0  0  0  0  0  0  0
   14.2007   26.6621   -5.2188 C   0  0  0  0  0  0  0  0  0  0  0  0
   13.6456   26.3112   -3.9768 C   0  0  0  0  0  0  0  0  0  0  0  0
   14.0094   25.1816   -3.2896 C   0  0  0  0  0  0  0  0  0  0  0  0
   14.9796   24.4069   -3.9264 C   0  0  0  0  0  0  0  0  0  0  0  0
   15.5362   24.7353   -5.1450 C   0  0  0  0  0  0  0  0  0  0  0  0
   16.1777   26.4828   -8.0832 N   0  0  0  0  0  0  0  0  0  0  0  0
   15.7213   26.2183   -7.0683 C   0  0  0  0  0  0  0  0  0  0  0  0
   10.1124   23.9218   -0.5650 N   0  0  0  0  0  0  0  0  0  0  0  0
    9.4928   24.2969   -1.2996 H   0  0  0  0  0  0  0  0  0  0  0  0
    9.5465   23.1984    0.5381 C   0  0  0  0  0  0  0  0  0  0  0  0
    8.6981   24.1110    1.3901 C   0  0  0  0  0  0  0  0  0  0  0  0
    9.2727   24.5040    2.7454 C   0  0  0  0  0  0  0  0  0  0  0  0
    8.1366   23.5266    2.6494 C   0  0  0  0  0  0  0  0  0  0  0  0
 16 17  3  0  0  0
 17 10  1  0  0  0
 10 11  2  0  0  0
 11 12  1  0  0  0
 12 13  2  0  0  0
 13 14  1  0  0  0
 14 15  2  0  0  0
 13  1  1  0  0  0
  1  2  2  0  0  0
  2  3  1  0  0  0
  3 18  1  0  0  0
 18 20  1  0  0  0
 20 21  1  0  0  0
 21 22  1  0  0  0
 22 23  1  0  0  0
  3  4  2  0  0  0
  4  5  1  0  0  0
  5  6  2  0  0  0
  6  7  1  0  0  0
  7  8  2  0  0  0
  8  9  1  0  0  0
 15 10  1  0  0  0
  9  1  1  0  0  0
 23 21  1  0  0  0
  9  5  1  0  0  0
 18 19  1  0  0  0
M  END
> <minimizedAffinity>
-8.26262

> <CNNscore>
0.8029321432

> <CNNaffinity>
7.0634069443

> <CNN_VS>
5.6714363098

> <CNNaffinity_variance>
0.1718426794

$$$$
[H]c1nc2c([H])c(N([H])C([H])([H])C3([H])C([H])([H])C3([H])[H])c([H])c(-c3c([H])c([H])c(C#N)c([H])c3[H])n2n1


 23 26  0  0  0  0  0  0  0  0999 V2000
   12.6819   23.1916   -1.2981 C   0  0  0  0  0  0  0  0  0  0  0  0
   11.3149   22.8893   -1.3198 C   0  0  0  0  0  0  0  0  0  0  0  0
   10.7231   21.9470   -0.5354 C   0  0  0  0  0  0  0  0  0  0  0  0
   11.5135   21.2501    0.3295 C   0  0  0  0  0  0  0  0  0  0  0  0
   12.8545   21.5245    0.3725 C   0  0  0  0  0  0  0  0  0  0  0  0
   13.8329   20.9721    1.1494 N   0  0  0  0  0  0  0  0  0  0  0  0
   14.9877   21.5732    0.8360 C   0  0  0  0  0  0  0  0  0  0  0  0
   14.6782   22.4633   -0.1122 N   0  0  0  0  0  0  0  0  0  0  0  0
   13.4105   22.4767   -0.4297 N   0  0  0  0  0  0  0  0  0  0  0  0
   14.4390   26.1271   -3.8532 C   0  0  0  0  0  0  0  0  0  0  0  0
   13.2898   26.4238   -3.1904 C   0  0  0  0  0  0  0  0  0  0  0  0
   12.7071   25.4690   -2.3403 C   0  0  0  0  0  0  0  0  0  0  0  0
   13.2450   24.2240   -2.1370 C   0  0  0  0  0  0  0  0  0  0  0  0
   14.4227   23.9824   -2.8452 C   0  0  0  0  0  0  0  0  0  0  0  0
   15.0096   24.9071   -3.6837 C   0  0  0  0  0  0  0  0  0  0  0  0
   15.5210   27.8708   -5.4377 N   0  0  0  0  0  0  0  0  0  0  0  0
   15.0473   27.1054   -4.7320 C   0  0  0  0  0  0  0  0  0  0  0  0
    9.3319   21.6750   -0.5921 N   0  0  0  0  0  0  0  0  0  0  0  0
    8.6961   22.4382   -0.8708 H   0  0  0  0  0  0  0  0  0  0  0  0
    8.7923   20.3830   -0.2761 C   0  0  0  0  0  0  0  0  0  0  0  0
    7.4292   20.2112   -0.9015 C   0  0  0  0  0  0  0  0  0  0  0  0
    7.0341   18.7920   -1.2905 C   0  0  0  0  0  0  0  0  0  0  0  0
    7.3962   19.8016   -2.3415 C   0  0  0  0  0  0  0  0  0  0  0  0
 16 17  3  0  0  0
 17 10  1  0  0  0
 10 11  2  0  0  0
 11 12  1  0  0  0
 12 13  2  0  0  0
 13 14  1  0  0  0
 14 15  2  0  0  0
 13  1  1  0  0  0
  1  2  2  0  0  0
  2  3  1  0  0  0
  3 18  1  0  0  0
 18 20  1  0  0  0
 20 21  1  0  0  0
 21 22  1  0  0  0
 22 23  1  0  0  0
  3  4  2  0  0  0
  4  5  1  0  0  0
  5  6  2  0  0  0
  6  7  1  0  0  0
  7  8  2  0  0  0
  8  9  1  0  0  0
 15 10  1  0  0  0
  9  1  1  0  0  0
 23 21  1  0  0  0
  9  5  1  0  0  0
 18 19  1  0  0  0
M  END
> <minimizedAffinity>
-8.16914

> <CNNscore>
0.6838271022

> <CNNaffinity>
7.0316720009

> <CNN_VS>
4.8084478378

> <CNNaffinity_variance>
0.3543038368

$$$$
[H]c1nc2c([H])c(N([H])C([H])([H])C3([H])C([H])([H])C3([H])[H])c([H])c(-c3c([H])c([H])c(C#N)c([H])c3[H])n2n1


 23 26  0  0  0  0  0  0  0  0999 V2000
   14.1202   23.8245   -2.0684 C   0  0  0  0  0  0  0  0  0  0  0  0
   12.9354   23.0993   -1.8924 C   0  0  0  0  0  0  0  0  0  0  0  0
   12.4840   22.6431   -0.6918 C   0  0  0  0  0  0  0  0  0  0  0  0
   13.2354   22.9094    0.4142 C   0  0  0  0  0  0  0  0  0  0  0  0
   14.3993   23.6169    0.2723 C   0  0  0  0  0  0  0  0  0  0  0  0
   15.3035   24.0064    1.2192 N   0  0  0  0  0  0  0  0  0  0  0  0
   16.2768   24.6834    0.5966 C   0  0  0  0  0  0  0  0  0  0  0  0
   15.9370   24.6841   -0.6963 N   0  0  0  0  0  0  0  0  0  0  0  0
   14.8182   24.0574   -0.9482 N   0  0  0  0  0  0  0  0  0  0  0  0
   15.2919   25.4009   -5.8599 C   0  0  0  0  0  0  0  0  0  0  0  0
   15.7247   24.1665   -5.4897 C   0  0  0  0  0  0  0  0  0  0  0  0
   15.3387   23.6339   -4.2483 C   0  0  0  0  0  0  0  0  0  0  0  0
   14.5307   24.3056   -3.3671 C   0  0  0  0  0  0  0  0  0  0  0  0
   14.1213   25.5653   -3.8059 C   0  0  0  0  0  0  0  0  0  0  0  0
   14.4895   26.1044   -5.0209 C   0  0  0  0  0  0  0  0  0  0  0  0
   15.9803   26.4031   -8.1496 N   0  0  0  0  0  0  0  0  0  0  0  0
   15.6846   25.9584   -7.1382 C   0  0  0  0  0  0  0  0  0  0  0  0
   11.2755   21.9115   -0.5620 N   0  0  0  0  0  0  0  0  0  0  0  0
   10.9879   21.3012   -1.3424 H   0  0  0  0  0  0  0  0  0  0  0  0
   10.4528   21.9967    0.6112 C   0  0  0  0  0  0  0  0  0  0  0  0
    9.4317   23.0984    0.4628 C   0  0  0  0  0  0  0  0  0  0  0  0
    9.5907   24.3010    1.3847 C   0  0  0  0  0  0  0  0  0  0  0  0
    8.4911   23.3033    1.6099 C   0  0  0  0  0  0  0  0  0  0  0  0
 16 17  3  0  0  0
 17 10  1  0  0  0
 10 11  2  0  0  0
 11 12  1  0  0  0
 12 13  2  0  0  0
 13 14  1  0  0  0
 14 15  2  0  0  0
 13  1  1  0  0  0
  1  2  2  0  0  0
  2  3  1  0  0  0
  3 18  1  0  0  0
 18 20  1  0  0  0
 20 21  1  0  0  0
 21 22  1  0  0  0
 22 23  1  0  0  0
  3  4  2  0  0  0
  4  5  1  0  0  0
  5  6  2  0  0  0
  6  7  1  0  0  0
  7  8  2  0  0  0
  8  9  1  0  0  0
 15 10  1  0  0  0
  9  1  1  0  0  0
 23 21  1  0  0  0
  9  5  1  0  0  0
 18 19  1  0  0  0
M  END
> <minimizedAffinity>
-6.23356

> <CNNscore>
0.5679069757

> <CNNaffinity>
6.8594603539

> <CNN_VS>
3.8955354691

> <CNNaffinity_variance>
0.2164866179

$$$$
[H]c1nc2c([H])c(N([H])C([H])([H])C3([H])C([H])([H])C3([H])[H])c([H])c(-c3c([H])c([H])c(C#N)c([H])c3[H])n2n1


 23 26  0  0  0  0  0  0  0  0999 V2000
   13.1533   23.9538   -1.1260 C   0  0  0  0  0  0  0  0  0  0  0  0
   12.1394   24.6088   -0.4162 C   0  0  0  0  0  0  0  0  0  0  0  0
   11.5919   24.1497    0.7426 C   0  0  0  0  0  0  0  0  0  0  0  0
   12.0611   22.9731    1.2466 C   0  0  0  0  0  0  0  0  0  0  0  0
   13.0526   22.3103    0.5736 C   0  0  0  0  0  0  0  0  0  0  0  0
   13.6798   21.1362    0.8803 N   0  0  0  0  0  0  0  0  0  0  0  0
   14.5858   20.8981   -0.0767 C   0  0  0  0  0  0  0  0  0  0  0  0
   14.4820   21.9248   -0.9265 N   0  0  0  0  0  0  0  0  0  0  0  0
   13.5762   22.8028   -0.5851 N   0  0  0  0  0  0  0  0  0  0  0  0
   14.7370   25.7384   -4.6672 C   0  0  0  0  0  0  0  0  0  0  0  0
   15.2664   24.5702   -4.2165 C   0  0  0  0  0  0  0  0  0  0  0  0
   14.7479   23.9692   -3.0573 C   0  0  0  0  0  0  0  0  0  0  0  0
   13.7129   24.5081   -2.3369 C   0  0  0  0  0  0  0  0  0  0  0  0
   13.2147   25.7057   -2.8513 C   0  0  0  0  0  0  0  0  0  0  0  0
   13.7104   26.3102   -3.9876 C   0  0  0  0  0  0  0  0  0  0  0  0
   15.6954   26.8537   -6.8024 N   0  0  0  0  0  0  0  0  0  0  0  0
   15.2651   26.3655   -5.8618 C   0  0  0  0  0  0  0  0  0  0  0  0
   10.5650   24.8489    1.4277 N   0  0  0  0  0  0  0  0  0  0  0  0
   10.3788   25.8278    1.1607 H   0  0  0  0  0  0  0  0  0  0  0  0
    9.7883   24.2385    2.4691 C   0  0  0  0  0  0  0  0  0  0  0  0
    8.3510   24.0822    2.0351 C   0  0  0  0  0  0  0  0  0  0  0  0
    7.7055   22.7272    2.2973 C   0  0  0  0  0  0  0  0  0  0  0  0
    8.0885   23.1364    0.9041 C   0  0  0  0  0  0  0  0  0  0  0  0
 16 17  3  0  0  0
 17 10  1  0  0  0
 10 11  2  0  0  0
 11 12  1  0  0  0
 12 13  2  0  0  0
 13 14  1  0  0  0
 14 15  2  0  0  0
 13  1  1  0  0  0
  1  2  2  0  0  0
  2  3  1  0  0  0
  3 18  1  0  0  0
 18 20  1  0  0  0
 20 21  1  0  0  0
 21 22  1  0  0  0
 22 23  1  0  0  0
  3  4  2  0  0  0
  4  5  1  0  0  0
  5  6  2  0  0  0
  6  7  1  0  0  0
  7  8  2  0  0  0
  8  9  1  0  0  0
 15 10  1  0  0  0
  9  1  1  0  0  0
 23 21  1  0  0  0
  9  5  1  0  0  0
 18 19  1  0  0  0
M  END
> <minimizedAffinity>
-8.49685

> <CNNscore>
0.5323194265

> <CNNaffinity>
6.7316312790

> <CNN_VS>
3.5833780766

> <CNNaffinity_variance>
0.2699134648

$$$$
[H]c1nc2c([H])c(N([H])C([H])([H])C3([H])C([H])([H])C3([H])[H])c([H])c(-c3c([H])c([H])c(C#N)c([H])c3[H])n2n1


 23 26  0  0  0  0  0  0  0  0999 V2000
   12.5953   23.4323   -0.6361 C   0  0  0  0  0  0  0  0  0  0  0  0
   11.2964   23.1579   -0.1907 C   0  0  0  0  0  0  0  0  0  0  0  0
   10.1791   23.7923   -0.6406 C   0  0  0  0  0  0  0  0  0  0  0  0
   10.3339   24.7602   -1.5882 C   0  0  0  0  0  0  0  0  0  0  0  0
   11.5928   25.0499   -2.0427 C   0  0  0  0  0  0  0  0  0  0  0  0
   11.9936   25.9600   -2.9791 N   0  0  0  0  0  0  0  0  0  0  0  0
   13.3253   25.8710   -3.0877 C   0  0  0  0  0  0  0  0  0  0  0  0
   13.6887   24.9190   -2.2224 N   0  0  0  0  0  0  0  0  0  0  0  0
   12.6883   24.3917   -1.5672 N   0  0  0  0  0  0  0  0  0  0  0  0
   16.0272   21.4159    0.9095 C   0  0  0  0  0  0  0  0  0  0  0  0
   14.9770   20.6854    0.4496 C   0  0  0  0  0  0  0  0  0  0  0  0
   13.8460   21.3376   -0.0691 C   0  0  0  0  0  0  0  0  0  0  0  0
   13.7388   22.7031   -0.1389 C   0  0  0  0  0  0  0  0  0  0  0  0
   14.8489   23.3939    0.3484 C   0  0  0  0  0  0  0  0  0  0  0  0
   15.9678   22.7712    0.8608 C   0  0  0  0  0  0  0  0  0  0  0  0
   18.1269   20.2413    1.8756 N   0  0  0  0  0  0  0  0  0  0  0  0
   17.1980   20.7521    1.4461 C   0  0  0  0  0  0  0  0  0  0  0  0
    8.8816   23.4800   -0.1594 N   0  0  0  0  0  0  0  0  0  0  0  0
    8.1289   24.1712   -0.3006 H   0  0  0  0  0  0  0  0  0  0  0  0
    8.5919   22.2439    0.5103 C   0  0  0  0  0  0  0  0  0  0  0  0
    7.4392   22.4188    1.4692 C   0  0  0  0  0  0  0  0  0  0  0  0
    7.7355   22.1629    2.9417 C   0  0  0  0  0  0  0  0  0  0  0  0
    6.9288   21.1815    2.1408 C   0  0  0  0  0  0  0  0  0  0  0  0
 16 17  3  0  0  0
 17 10  1  0  0  0
 10 11  2  0  0  0
 11 12  1  0  0  0
 12 13  2  0  0  0
 13 14  1  0  0  0
 14 15  2  0  0  0
 13  1  1  0  0  0
  1  2  2  0  0  0
  2  3  1  0  0  0
  3 18  1  0  0  0
 18 20  1  0  0  0
 20 21  1  0  0  0
 21 22  1  0  0  0
 22 23  1  0  0  0
  3  4  2  0  0  0
  4  5  1  0  0  0
  5  6  2  0  0  0
  6  7  1  0  0  0
  7  8  2  0  0  0
  8  9  1  0  0  0
 15 10  1  0  0  0
  9  1  1  0  0  0
 23 21  1  0  0  0
  9  5  1  0  0  0
 18 19  1  0  0  0
M  END
> <minimizedAffinity>
5.48523

> <CNNscore>
0.4137793779

> <CNNaffinity>
6.0869517326

> <CNN_VS>
2.5186550617

> <CNNaffinity_variance>
0.6682330370

$$$$
[H]c1nc2c([H])c(N([H])C([H])([H])C3([H])C([H])([H])C3([H])[H])c([H])c(-c3c([H])c([H])c(C#N)c([H])c3[H])n2n1


 23 26  0  0  0  0  0  0  0  0999 V2000
   14.4447   23.9559   -1.6892 C   0  0  0  0  0  0  0  0  0  0  0  0
   15.0899   24.3903   -2.8536 C   0  0  0  0  0  0  0  0  0  0  0  0
   15.3890   23.5880   -3.9120 C   0  0  0  0  0  0  0  0  0  0  0  0
   15.0377   22.2731   -3.8340 C   0  0  0  0  0  0  0  0  0  0  0  0
   14.4053   21.8199   -2.7069 C   0  0  0  0  0  0  0  0  0  0  0  0
   13.9563   20.5659   -2.4038 N   0  0  0  0  0  0  0  0  0  0  0  0
   13.3985   20.6176   -1.1875 C   0  0  0  0  0  0  0  0  0  0  0  0
   13.5247   21.8888   -0.7934 N   0  0  0  0  0  0  0  0  0  0  0  0
   14.1224   22.6553   -1.6670 N   0  0  0  0  0  0  0  0  0  0  0  0
   13.6752   26.6808    1.5070 C   0  0  0  0  0  0  0  0  0  0  0  0
   12.6440   26.2626    0.7261 C   0  0  0  0  0  0  0  0  0  0  0  0
   12.8837   25.3596   -0.3231 C   0  0  0  0  0  0  0  0  0  0  0  0
   14.1297   24.8645   -0.6113 C   0  0  0  0  0  0  0  0  0  0  0  0
   15.1433   25.3320    0.2259 C   0  0  0  0  0  0  0  0  0  0  0  0
   14.9273   26.2179    1.2608 C   0  0  0  0  0  0  0  0  0  0  0  0
   13.2647   28.3451    3.4521 N   0  0  0  0  0  0  0  0  0  0  0  0
   13.4378   27.6119    2.5914 C   0  0  0  0  0  0  0  0  0  0  0  0
   16.0446   24.0734   -5.0727 N   0  0  0  0  0  0  0  0  0  0  0  0
   17.0202   23.7829   -5.2400 H   0  0  0  0  0  0  0  0  0  0  0  0
   15.3949   24.9468   -6.0084 C   0  0  0  0  0  0  0  0  0  0  0  0
   15.1073   26.2849   -5.3717 C   0  0  0  0  0  0  0  0  0  0  0  0
   15.6431   27.5123   -6.0983 C   0  0  0  0  0  0  0  0  0  0  0  0
   16.2816   27.0365   -4.8251 C   0  0  0  0  0  0  0  0  0  0  0  0
 16 17  3  0  0  0
 17 10  1  0  0  0
 10 11  2  0  0  0
 11 12  1  0  0  0
 12 13  2  0  0  0
 13 14  1  0  0  0
 14 15  2  0  0  0
 13  1  1  0  0  0
  1  2  2  0  0  0
  2  3  1  0  0  0
  3 18  1  0  0  0
 18 20  1  0  0  0
 20 21  1  0  0  0
 21 22  1  0  0  0
 22 23  1  0  0  0
  3  4  2  0  0  0
  4  5  1  0  0  0
  5  6  2  0  0  0
  6  7  1  0  0  0
  7  8  2  0  0  0
  8  9  1  0  0  0
 15 10  1  0  0  0
  9  1  1  0  0  0
 23 21  1  0  0  0
  9  5  1  0  0  0
 18 19  1  0  0  0
M  END
> <minimizedAffinity>
3.90472

> <CNNscore>
0.3982836604

> <CNNaffinity>
6.6034421921

> <CNN_VS>
2.6300430298

> <CNNaffinity_variance>
0.4933344722

$$$$
[H]c1nc2c([H])c(N([H])C([H])([H])C3([H])C([H])([H])C3([H])[H])c([H])c(-c3c([H])c([H])c(C#N)c([H])c3[H])n2n1


 23 26  0  0  0  0  0  0  0  0999 V2000
   12.3390   23.9833    0.0294 C   0  0  0  0  0  0  0  0  0  0  0  0
   11.2233   24.6027    0.6059 C   0  0  0  0  0  0  0  0  0  0  0  0
   10.5181   24.0954    1.6541 C   0  0  0  0  0  0  0  0  0  0  0  0
   10.9244   22.9043    2.1785 C   0  0  0  0  0  0  0  0  0  0  0  0
   12.0127   22.2756    1.6348 C   0  0  0  0  0  0  0  0  0  0  0  0
   12.6041   21.0958    1.9873 N   0  0  0  0  0  0  0  0  0  0  0  0
   13.6437   20.9016    1.1659 C   0  0  0  0  0  0  0  0  0  0  0  0
   13.6516   21.9590    0.3480 N   0  0  0  0  0  0  0  0  0  0  0  0
   12.6937   22.8161    0.5843 N   0  0  0  0  0  0  0  0  0  0  0  0
   14.3504   25.8757   -3.2273 C   0  0  0  0  0  0  0  0  0  0  0  0
   15.0606   25.0977   -2.3680 C   0  0  0  0  0  0  0  0  0  0  0  0
   14.4082   24.4631   -1.2979 C   0  0  0  0  0  0  0  0  0  0  0  0
   13.0624   24.5877   -1.0651 C   0  0  0  0  0  0  0  0  0  0  0  0
   12.3918   25.3985   -1.9815 C   0  0  0  0  0  0  0  0  0  0  0  0
   13.0150   26.0291   -3.0381 C   0  0  0  0  0  0  0  0  0  0  0  0
   15.5503   27.0437   -5.2066 N   0  0  0  0  0  0  0  0  0  0  0  0
   15.0146   26.5341   -4.3339 C   0  0  0  0  0  0  0  0  0  0  0  0
    9.3926   24.7597    2.2059 N   0  0  0  0  0  0  0  0  0  0  0  0
    8.7334   25.2215    1.5606 H   0  0  0  0  0  0  0  0  0  0  0  0
    9.1498   24.8059    3.6199 C   0  0  0  0  0  0  0  0  0  0  0  0
    7.7099   24.4672    3.9210 C   0  0  0  0  0  0  0  0  0  0  0  0
    7.4426   23.7437    5.2351 C   0  0  0  0  0  0  0  0  0  0  0  0
    7.3472   23.0143    3.9259 C   0  0  0  0  0  0  0  0  0  0  0  0
 16 17  3  0  0  0
 17 10  1  0  0  0
 10 11  2  0  0  0
 11 12  1  0  0  0
 12 13  2  0  0  0
 13 14  1  0  0  0
 14 15  2  0  0  0
 13  1  1  0  0  0
  1  2  2  0  0  0
  2  3  1  0  0  0
  3 18  1  0  0  0
 18 20  1  0  0  0
 20 21  1  0  0  0
 21 22  1  0  0  0
 22 23  1  0  0  0
  3  4  2  0  0  0
  4  5  1  0  0  0
  5  6  2  0  0  0
  6  7  1  0  0  0
  7  8  2  0  0  0
  8  9  1  0  0  0
 15 10  1  0  0  0
  9  1  1  0  0  0
 23 21  1  0  0  0
  9  5  1  0  0  0
 18 19  1  0  0  0
M  END
> <minimizedAffinity>
-7.30124

> <CNNscore>
0.3885228932

> <CNNaffinity>
6.3941407204

> <CNN_VS>
2.4842700958

> <CNNaffinity_variance>
0.2699943185

$$$$
[H]c1nc2c([H])c(N([H])C([H])([H])C3([H])C([H])([H])C3([H])[H])c([H])c(-c3c([H])c([H])c(C#N)c([H])c3[H])n2n1


 23 26  0  0  0  0  0  0  0  0999 V2000
   14.7930   24.1922   -2.0627 C   0  0  0  0  0  0  0  0  0  0  0  0
   14.2633   22.9290   -2.3529 C   0  0  0  0  0  0  0  0  0  0  0  0
   13.9889   21.9771   -1.4192 C   0  0  0  0  0  0  0  0  0  0  0  0
   14.2471   22.2722   -0.1135 C   0  0  0  0  0  0  0  0  0  0  0  0
   14.7656   23.5004    0.2002 C   0  0  0  0  0  0  0  0  0  0  0  0
   15.0962   24.0216    1.4187 N   0  0  0  0  0  0  0  0  0  0  0  0
   15.5588   25.2620    1.2175 C   0  0  0  0  0  0  0  0  0  0  0  0
   15.4955   25.4540   -0.1039 N   0  0  0  0  0  0  0  0  0  0  0  0
   15.0269   24.4281   -0.7643 N   0  0  0  0  0  0  0  0  0  0  0  0
   15.4645   27.2027   -5.0155 C   0  0  0  0  0  0  0  0  0  0  0  0
   16.0123   25.9702   -5.1851 C   0  0  0  0  0  0  0  0  0  0  0  0
   15.7912   24.9691   -4.2245 C   0  0  0  0  0  0  0  0  0  0  0  0
   15.0359   25.1702   -3.0977 C   0  0  0  0  0  0  0  0  0  0  0  0
   14.5027   26.4546   -2.9830 C   0  0  0  0  0  0  0  0  0  0  0  0
   14.7083   27.4498   -3.9155 C   0  0  0  0  0  0  0  0  0  0  0  0
   15.8473   29.0636   -6.7796 N   0  0  0  0  0  0  0  0  0  0  0  0
   15.6868   28.2414   -6.0008 C   0  0  0  0  0  0  0  0  0  0  0  0
   13.4516   20.7093   -1.7609 N   0  0  0  0  0  0  0  0  0  0  0  0
   14.0048   20.0947   -2.3778 H   0  0  0  0  0  0  0  0  0  0  0  0
   12.1752   20.2648   -1.2776 C   0  0  0  0  0  0  0  0  0  0  0  0
   11.9347   20.7703    0.1242 C   0  0  0  0  0  0  0  0  0  0  0  0
   10.8945   20.0210    0.9476 C   0  0  0  0  0  0  0  0  0  0  0  0
   10.5973   21.3862    0.3973 C   0  0  0  0  0  0  0  0  0  0  0  0
 16 17  3  0  0  0
 17 10  1  0  0  0
 10 11  2  0  0  0
 11 12  1  0  0  0
 12 13  2  0  0  0
 13 14  1  0  0  0
 14 15  2  0  0  0
 13  1  1  0  0  0
  1  2  2  0  0  0
  2  3  1  0  0  0
  3 18  1  0  0  0
 18 20  1  0  0  0
 20 21  1  0  0  0
 21 22  1  0  0  0
 22 23  1  0  0  0
  3  4  2  0  0  0
  4  5  1  0  0  0
  5  6  2  0  0  0
  6  7  1  0  0  0
  7  8  2  0  0  0
  8  9  1  0  0  0
 15 10  1  0  0  0
  9  1  1  0  0  0
 23 21  1  0  0  0
  9  5  1  0  0  0
 18 19  1  0  0  0
M  END
> <minimizedAffinity>
-2.28791

> <CNNscore>
0.3837907016

> <CNNaffinity>
6.6560583115

> <CNN_VS>
2.5545332432

> <CNNaffinity_variance>
0.2400774062

$$$$
[H]OC(=O)c1c([H])c([H])c(-c2c([H])c([H])c(N3C(=O)N(c4nc([H])nc(OC([H])([H])[H])c4[H])C4(C3=O)C([H])([H])C([H])([H])N(C([H])([H])c3nc([H])c([H])c([H])c3C([H])([H])[H])C([H])([H])C4([H])[H])c([H])c2[H])c([H])c1Cl


 45 50  0  0  0  0  0  0  0  0999 V2000
   12.8136   25.1733   -2.2396 N   0  0  0  0  0  0  0  0  0  0  0  0
   11.5294   24.7024   -1.7668 C   0  0  0  0  0  0  0  0  0  0  0  0
   10.4337   24.8618   -2.3955 O   0  0  0  0  0  0  0  0  0  0  0  0
   11.7275   24.0564   -0.5192 N   0  0  0  0  0  0  0  0  0  0  0  0
   13.1135   24.1312   -0.2383 C   0  0  0  0  0  0  0  0  0  0  0  0
   13.7012   23.8888    0.8624 O   0  0  0  0  0  0  0  0  0  0  0  0
   13.8542   24.5522   -1.4508 C   0  0  0  0  0  0  0  0  0  0  0  0
   14.8503   25.5985   -1.0479 C   0  0  0  0  0  0  0  0  0  0  0  0
   15.9617   25.7491   -2.0084 C   0  0  0  0  0  0  0  0  0  0  0  0
   16.7045   24.5075   -2.1068 N   0  0  0  0  0  0  0  0  0  0  0  0
   15.8735   23.4241   -2.5144 C   0  0  0  0  0  0  0  0  0  0  0  0
   14.4637   23.3743   -2.1078 C   0  0  0  0  0  0  0  0  0  0  0  0
   13.9194   26.7201   -5.3941 C   0  0  0  0  0  0  0  0  0  0  0  0
   13.8185   25.8620   -4.3144 C   0  0  0  0  0  0  0  0  0  0  0  0
   12.9137   26.0909   -3.3071 C   0  0  0  0  0  0  0  0  0  0  0  0
   12.1258   27.1868   -3.4077 N   0  0  0  0  0  0  0  0  0  0  0  0
   12.2220   28.0226   -4.4550 C   0  0  0  0  0  0  0  0  0  0  0  0
   13.0976   27.8103   -5.4408 N   0  0  0  0  0  0  0  0  0  0  0  0
   16.0025   27.2249   -6.5974 C   0  0  0  0  0  0  0  0  0  0  0  0
   14.8307   26.4625   -6.3823 O   0  0  0  0  0  0  0  0  0  0  0  0
   10.7000   23.4701    0.2684 C   0  0  0  0  0  0  0  0  0  0  0  0
    9.8432   24.2674    0.9855 C   0  0  0  0  0  0  0  0  0  0  0  0
    8.8710   23.6110    1.7574 C   0  0  0  0  0  0  0  0  0  0  0  0
    8.7685   22.2433    1.8030 C   0  0  0  0  0  0  0  0  0  0  0  0
    9.6653   21.4771    1.0518 C   0  0  0  0  0  0  0  0  0  0  0  0
   10.6207   22.0749    0.2918 C   0  0  0  0  0  0  0  0  0  0  0  0
    7.7675   21.5705    2.6105 C   0  0  0  0  0  0  0  0  0  0  0  0
    7.9724   21.3349    3.9494 C   0  0  0  0  0  0  0  0  0  0  0  0
    6.9956   20.6597    4.6885 C   0  0  0  0  0  0  0  0  0  0  0  0
    5.8194   20.2162    4.1141 C   0  0  0  0  0  0  0  0  0  0  0  0
    5.6155   20.4540    2.7719 C   0  0  0  0  0  0  0  0  0  0  0  0
    4.1241   19.8836    2.0654 Cl  0  0  0  0  0  0  0  0  0  0  0  0
    6.5806   21.1249    2.0279 C   0  0  0  0  0  0  0  0  0  0  0  0
    4.8717   19.5042    4.9545 C   0  0  0  0  0  0  0  0  0  0  0  0
    4.7185   18.1380    5.0168 O   0  0  0  0  0  0  0  0  0  0  0  0
    4.1249   20.2196    5.6920 O   0  0  0  0  0  0  0  0  0  0  0  0
    4.2196   17.6896    5.7742 H   0  0  0  0  0  0  0  0  0  0  0  0
   17.5050   24.2507   -0.9511 C   0  0  0  0  0  0  0  0  0  0  0  0
   16.8994   23.1920   -0.1144 C   0  0  0  0  0  0  0  0  0  0  0  0
   16.0313   22.2676   -0.5220 N   0  0  0  0  0  0  0  0  0  0  0  0
   15.5260   21.2853    0.2278 C   0  0  0  0  0  0  0  0  0  0  0  0
   15.8979   21.1644    1.5508 C   0  0  0  0  0  0  0  0  0  0  0  0
   16.7986   22.1086    2.0087 C   0  0  0  0  0  0  0  0  0  0  0  0
   17.3012   23.1082    1.2137 C   0  0  0  0  0  0  0  0  0  0  0  0
   18.2748   24.1189    1.7430 C   0  0  0  0  0  0  0  0  0  0  0  0
 19 20  1  0  0  0
 20 13  1  0  0  0
 13 14  2  0  0  0
 14 15  1  0  0  0
 15 16  2  0  0  0
 16 17  1  0  0  0
 17 18  2  0  0  0
 15  1  1  0  0  0
  1  2  1  0  0  0
  2  3  2  0  0  0
  2  4  1  0  0  0
  4  5  1  0  0  0
  5  6  2  0  0  0
  5  7  1  0  0  0
  7  8  1  0  0  0
  8  9  1  0  0  0
  9 10  1  0  0  0
 10 38  1  0  0  0
 38 39  1  0  0  0
 39 40  2  0  0  0
 40 41  1  0  0  0
 41 42  2  0  0  0
 42 43  1  0  0  0
 43 44  2  0  0  0
 44 45  1  0  0  0
 10 11  1  0  0  0
 11 12  1  0  0  0
  4 21  1  0  0  0
 21 22  2  0  0  0
 22 23  1  0  0  0
 23 24  2  0  0  0
 24 25  1  0  0  0
 25 26  2  0  0  0
 24 27  1  0  0  0
 27 28  2  0  0  0
 28 29  1  0  0  0
 29 30  2  0  0  0
 30 34  1  0  0  0
 34 35  1  0  0  0
 34 36  2  0  0  0
 30 31  1  0  0  0
 31 32  1  0  0  0
 31 33  2  0  0  0
 18 13  1  0  0  0
  7  1  1  0  0  0
 12  7  1  0  0  0
 26 21  1  0  0  0
 33 27  1  0  0  0
 44 39  1  0  0  0
 35 37  1  0  0  0
M  END
> <minimizedAffinity>
7.03970

> <CNNscore>
0.5623891354

> <CNNaffinity>
7.7553434372

> <CNN_VS>
4.3615207672

> <CNNaffinity_variance>
0.4592878222

$$$$
[H]OC(=O)c1c([H])c([H])c(-c2c([H])c([H])c(N3C(=O)N(c4nc([H])nc(OC([H])([H])[H])c4[H])C4(C3=O)C([H])([H])C([H])([H])N(C([H])([H])c3nc([H])c([H])c([H])c3C([H])([H])[H])C([H])([H])C4([H])[H])c([H])c2[H])c([H])c1Cl


 45 50  0  0  0  0  0  0  0  0999 V2000
   10.1288   24.1400    1.9190 N   0  0  0  0  0  0  0  0  0  0  0  0
   10.7596   24.9156    0.8726 C   0  0  0  0  0  0  0  0  0  0  0  0
   10.6489   26.1784    0.7530 O   0  0  0  0  0  0  0  0  0  0  0  0
   11.4933   24.0270    0.0449 N   0  0  0  0  0  0  0  0  0  0  0  0
   11.3131   22.7290    0.5820 C   0  0  0  0  0  0  0  0  0  0  0  0
   11.5965   21.6141    0.0413 O   0  0  0  0  0  0  0  0  0  0  0  0
   10.7168   22.8191    1.9356 C   0  0  0  0  0  0  0  0  0  0  0  0
    9.6213   21.7992    2.0305 C   0  0  0  0  0  0  0  0  0  0  0  0
    9.2806   21.4339    3.4201 C   0  0  0  0  0  0  0  0  0  0  0  0
   10.4325   20.8447    4.0751 N   0  0  0  0  0  0  0  0  0  0  0  0
   11.5487   21.7303    4.0813 C   0  0  0  0  0  0  0  0  0  0  0  0
   11.7680   22.6584    2.9650 C   0  0  0  0  0  0  0  0  0  0  0  0
    8.1340   26.6087    3.7878 C   0  0  0  0  0  0  0  0  0  0  0  0
    9.1314   26.0299    3.0245 C   0  0  0  0  0  0  0  0  0  0  0  0
    9.1138   24.6884    2.7318 C   0  0  0  0  0  0  0  0  0  0  0  0
    8.0870   23.9528    3.2182 N   0  0  0  0  0  0  0  0  0  0  0  0
    7.1171   24.5122    3.9605 C   0  0  0  0  0  0  0  0  0  0  0  0
    7.1231   25.8156    4.2515 N   0  0  0  0  0  0  0  0  0  0  0  0
    7.0989   28.8372    3.8541 C   0  0  0  0  0  0  0  0  0  0  0  0
    8.1803   27.9493    4.0604 O   0  0  0  0  0  0  0  0  0  0  0  0
   12.2425   24.4095   -1.1005 C   0  0  0  0  0  0  0  0  0  0  0  0
   13.3396   23.6776   -1.4810 C   0  0  0  0  0  0  0  0  0  0  0  0
   14.0402   24.1346   -2.6088 C   0  0  0  0  0  0  0  0  0  0  0  0
   13.6604   25.2534   -3.3070 C   0  0  0  0  0  0  0  0  0  0  0  0
   12.5336   25.9622   -2.8785 C   0  0  0  0  0  0  0  0  0  0  0  0
   11.8286   25.5519   -1.7911 C   0  0  0  0  0  0  0  0  0  0  0  0
   14.3945   25.7262   -4.4664 C   0  0  0  0  0  0  0  0  0  0  0  0
   14.7868   24.8633   -5.4622 C   0  0  0  0  0  0  0  0  0  0  0  0
   15.5162   25.3522   -6.5509 C   0  0  0  0  0  0  0  0  0  0  0  0
   15.8601   26.6861   -6.6619 C   0  0  0  0  0  0  0  0  0  0  0  0
   15.4653   27.5497   -5.6629 C   0  0  0  0  0  0  0  0  0  0  0  0
   15.9120   29.2303   -5.8214 Cl  0  0  0  0  0  0  0  0  0  0  0  0
   14.7394   27.0737   -4.5760 C   0  0  0  0  0  0  0  0  0  0  0  0
   16.6384   27.0999   -7.8171 C   0  0  0  0  0  0  0  0  0  0  0  0
   17.0966   26.2733   -8.8176 O   0  0  0  0  0  0  0  0  0  0  0  0
   16.9123   28.3375   -7.8976 O   0  0  0  0  0  0  0  0  0  0  0  0
   17.4248   26.6363   -9.7031 H   0  0  0  0  0  0  0  0  0  0  0  0
   10.7150   19.5230    3.6105 C   0  0  0  0  0  0  0  0  0  0  0  0
   11.7186   19.5488    2.5243 C   0  0  0  0  0  0  0  0  0  0  0  0
   13.0296   19.7352    2.6690 N   0  0  0  0  0  0  0  0  0  0  0  0
   13.9356   19.7090    1.6887 C   0  0  0  0  0  0  0  0  0  0  0  0
   13.5404   19.4724    0.3883 C   0  0  0  0  0  0  0  0  0  0  0  0
   12.1846   19.2747    0.2007 C   0  0  0  0  0  0  0  0  0  0  0  0
   11.2759   19.3078    1.2289 C   0  0  0  0  0  0  0  0  0  0  0  0
    9.8109   19.0923    0.9903 C   0  0  0  0  0  0  0  0  0  0  0  0
 19 20  1  0  0  0
 20 13  1  0  0  0
 13 14  2  0  0  0
 14 15  1  0  0  0
 15 16  2  0  0  0
 16 17  1  0  0  0
 17 18  2  0  0  0
 15  1  1  0  0  0
  1  2  1  0  0  0
  2  3  2  0  0  0
  2  4  1  0  0  0
  4  5  1  0  0  0
  5  6  2  0  0  0
  5  7  1  0  0  0
  7  8  1  0  0  0
  8  9  1  0  0  0
  9 10  1  0  0  0
 10 38  1  0  0  0
 38 39  1  0  0  0
 39 40  2  0  0  0
 40 41  1  0  0  0
 41 42  2  0  0  0
 42 43  1  0  0  0
 43 44  2  0  0  0
 44 45  1  0  0  0
 10 11  1  0  0  0
 11 12  1  0  0  0
  4 21  1  0  0  0
 21 22  2  0  0  0
 22 23  1  0  0  0
 23 24  2  0  0  0
 24 25  1  0  0  0
 25 26  2  0  0  0
 24 27  1  0  0  0
 27 28  2  0  0  0
 28 29  1  0  0  0
 29 30  2  0  0  0
 30 34  1  0  0  0
 34 35  1  0  0  0
 34 36  2  0  0  0
 30 31  1  0  0  0
 31 32  1  0  0  0
 31 33  2  0  0  0
 18 13  1  0  0  0
  7  1  1  0  0  0
 12  7  1  0  0  0
 26 21  1  0  0  0
 33 27  1  0  0  0
 44 39  1  0  0  0
 35 37  1  0  0  0
M  END
> <minimizedAffinity>
11.42012

> <CNNscore>
0.5523961782

> <CNNaffinity>
7.5304250717

> <CNN_VS>
4.1597781181

> <CNNaffinity_variance>
0.8103532791

$$$$
[H]OC(=O)c1c([H])c([H])c(-c2c([H])c([H])c(N3C(=O)N(c4nc([H])nc(OC([H])([H])[H])c4[H])C4(C3=O)C([H])([H])C([H])([H])N(C([H])([H])c3nc([H])c([H])c([H])c3C([H])([H])[H])C([H])([H])C4([H])[H])c([H])c2[H])c([H])c1Cl


 45 50  0  0  0  0  0  0  0  0999 V2000
   10.7958   24.1046    1.0486 N   0  0  0  0  0  0  0  0  0  0  0  0
   11.3565   25.1142    0.1762 C   0  0  0  0  0  0  0  0  0  0  0  0
   11.1248   26.3615    0.2847 O   0  0  0  0  0  0  0  0  0  0  0  0
   12.1791   24.4647   -0.7801 N   0  0  0  0  0  0  0  0  0  0  0  0
   12.1215   23.0793   -0.4918 C   0  0  0  0  0  0  0  0  0  0  0  0
   12.5157   22.1137   -1.2183 O   0  0  0  0  0  0  0  0  0  0  0  0
   11.5090   22.8641    0.8403 C   0  0  0  0  0  0  0  0  0  0  0  0
   10.5168   21.7457    0.7212 C   0  0  0  0  0  0  0  0  0  0  0  0
   10.2026   21.1022    2.0125 C   0  0  0  0  0  0  0  0  0  0  0  0
   11.4011   20.5140    2.5786 N   0  0  0  0  0  0  0  0  0  0  0  0
   12.4261   21.4844    2.7733 C   0  0  0  0  0  0  0  0  0  0  0  0
   12.5629   22.6173    1.8496 C   0  0  0  0  0  0  0  0  0  0  0  0
    8.9645   25.2654    4.0260 C   0  0  0  0  0  0  0  0  0  0  0  0
    9.9888   24.9326    3.1585 C   0  0  0  0  0  0  0  0  0  0  0  0
    9.7263   24.3974    1.9215 C   0  0  0  0  0  0  0  0  0  0  0  0
    8.4301   24.2057    1.5822 N   0  0  0  0  0  0  0  0  0  0  0  0
    7.4330   24.5274    2.4231 C   0  0  0  0  0  0  0  0  0  0  0  0
    7.6758   25.0488    3.6284 N   0  0  0  0  0  0  0  0  0  0  0  0
    8.8163   27.0674    5.6912 C   0  0  0  0  0  0  0  0  0  0  0  0
    9.2601   25.7985    5.2515 O   0  0  0  0  0  0  0  0  0  0  0  0
   12.8963   25.1188   -1.8180 C   0  0  0  0  0  0  0  0  0  0  0  0
   14.2689   25.1144   -1.8143 C   0  0  0  0  0  0  0  0  0  0  0  0
   14.9029   25.8032   -2.8609 C   0  0  0  0  0  0  0  0  0  0  0  0
   14.2011   26.4522   -3.8456 C   0  0  0  0  0  0  0  0  0  0  0  0
   12.8036   26.4244   -3.8038 C   0  0  0  0  0  0  0  0  0  0  0  0
   12.1525   25.7684   -2.8070 C   0  0  0  0  0  0  0  0  0  0  0  0
   14.8623   27.1707   -4.9194 C   0  0  0  0  0  0  0  0  0  0  0  0
   15.5358   26.5030   -5.9149 C   0  0  0  0  0  0  0  0  0  0  0  0
   16.1833   27.2314   -6.9181 C   0  0  0  0  0  0  0  0  0  0  0  0
   16.1701   28.6131   -6.9440 C   0  0  0  0  0  0  0  0  0  0  0  0
   15.4939   29.2805   -5.9456 C   0  0  0  0  0  0  0  0  0  0  0  0
   15.4913   31.0259   -5.9958 Cl  0  0  0  0  0  0  0  0  0  0  0  0
   14.8463   28.5656   -4.9434 C   0  0  0  0  0  0  0  0  0  0  0  0
   16.8891   29.2858   -8.0126 C   0  0  0  0  0  0  0  0  0  0  0  0
   17.3544   28.6964   -9.1659 O   0  0  0  0  0  0  0  0  0  0  0  0
   17.0994   30.5285   -7.8545 O   0  0  0  0  0  0  0  0  0  0  0  0
   17.6354   29.2424   -9.9699 H   0  0  0  0  0  0  0  0  0  0  0  0
   11.8139   19.3320    1.8895 C   0  0  0  0  0  0  0  0  0  0  0  0
   12.5064   19.6717    0.6274 C   0  0  0  0  0  0  0  0  0  0  0  0
   11.9586   19.7031   -0.5865 N   0  0  0  0  0  0  0  0  0  0  0  0
   12.5783   20.0577   -1.7146 C   0  0  0  0  0  0  0  0  0  0  0  0
   13.9049   20.4356   -1.6851 C   0  0  0  0  0  0  0  0  0  0  0  0
   14.5064   20.4143   -0.4401 C   0  0  0  0  0  0  0  0  0  0  0  0
   13.8433   20.0445    0.7033 C   0  0  0  0  0  0  0  0  0  0  0  0
   14.5267   20.0293    2.0383 C   0  0  0  0  0  0  0  0  0  0  0  0
 19 20  1  0  0  0
 20 13  1  0  0  0
 13 14  2  0  0  0
 14 15  1  0  0  0
 15 16  2  0  0  0
 16 17  1  0  0  0
 17 18  2  0  0  0
 15  1  1  0  0  0
  1  2  1  0  0  0
  2  3  2  0  0  0
  2  4  1  0  0  0
  4  5  1  0  0  0
  5  6  2  0  0  0
  5  7  1  0  0  0
  7  8  1  0  0  0
  8  9  1  0  0  0
  9 10  1  0  0  0
 10 38  1  0  0  0
 38 39  1  0  0  0
 39 40  2  0  0  0
 40 41  1  0  0  0
 41 42  2  0  0  0
 42 43  1  0  0  0
 43 44  2  0  0  0
 44 45  1  0  0  0
 10 11  1  0  0  0
 11 12  1  0  0  0
  4 21  1  0  0  0
 21 22  2  0  0  0
 22 23  1  0  0  0
 23 24  2  0  0  0
 24 25  1  0  0  0
 25 26  2  0  0  0
 24 27  1  0  0  0
 27 28  2  0  0  0
 28 29  1  0  0  0
 29 30  2  0  0  0
 30 34  1  0  0  0
 34 35  1  0  0  0
 34 36  2  0  0  0
 30 31  1  0  0  0
 31 32  1  0  0  0
 31 33  2  0  0  0
 18 13  1  0  0  0
  7  1  1  0  0  0
 12  7  1  0  0  0
 26 21  1  0  0  0
 33 27  1  0  0  0
 44 39  1  0  0  0
 35 37  1  0  0  0
M  END
> <minimizedAffinity>
19.36061

> <CNNscore>
0.5397239327

> <CNNaffinity>
7.6450433731

> <CNN_VS>
4.1262130737

> <CNNaffinity_variance>
0.8233751059

$$$$
[H]OC(=O)c1c([H])c([H])c(-c2c([H])c([H])c(N3C(=O)N(c4nc([H])nc(OC([H])([H])[H])c4[H])C4(C3=O)C([H])([H])C([H])([H])N(C([H])([H])c3nc([H])c([H])c([H])c3C([H])([H])[H])C([H])([H])C4([H])[H])c([H])c2[H])c([H])c1Cl


 45 50  0  0  0  0  0  0  0  0999 V2000
   12.7500   22.6595   -0.0973 N   0  0  0  0  0  0  0  0  0  0  0  0
   13.5687   23.0665   -1.2193 C   0  0  0  0  0  0  0  0  0  0  0  0
   14.4825   22.3461   -1.7360 O   0  0  0  0  0  0  0  0  0  0  0  0
   13.1665   24.3697   -1.6103 N   0  0  0  0  0  0  0  0  0  0  0  0
   12.1159   24.7492   -0.7397 C   0  0  0  0  0  0  0  0  0  0  0  0
   11.6154   25.9063   -0.5781 O   0  0  0  0  0  0  0  0  0  0  0  0
   11.6314   23.5689    0.0142 C   0  0  0  0  0  0  0  0  0  0  0  0
   11.4697   23.9685    1.4508 C   0  0  0  0  0  0  0  0  0  0  0  0
   10.5553   23.0870    2.2039 C   0  0  0  0  0  0  0  0  0  0  0  0
    9.2273   23.1373    1.6236 N   0  0  0  0  0  0  0  0  0  0  0  0
    9.2333   22.7484    0.2529 C   0  0  0  0  0  0  0  0  0  0  0  0
   10.3896   23.0489   -0.6004 C   0  0  0  0  0  0  0  0  0  0  0  0
   12.4306   19.8801    2.2983 C   0  0  0  0  0  0  0  0  0  0  0  0
   12.1486   21.0002    1.5378 C   0  0  0  0  0  0  0  0  0  0  0  0
   13.0860   21.5381    0.6907 C   0  0  0  0  0  0  0  0  0  0  0  0
   14.2959   20.9345    0.6281 N   0  0  0  0  0  0  0  0  0  0  0  0
   14.5730   19.8468    1.3662 C   0  0  0  0  0  0  0  0  0  0  0  0
   13.6695   19.3143    2.1931 N   0  0  0  0  0  0  0  0  0  0  0  0
   11.0599   19.9837    4.3360 C   0  0  0  0  0  0  0  0  0  0  0  0
   11.4735   19.3678    3.1318 O   0  0  0  0  0  0  0  0  0  0  0  0
   13.7436   25.1177   -2.6719 C   0  0  0  0  0  0  0  0  0  0  0  0
   13.7987   26.4872   -2.5981 C   0  0  0  0  0  0  0  0  0  0  0  0
   14.3618   27.1542   -3.6980 C   0  0  0  0  0  0  0  0  0  0  0  0
   14.8382   26.4862   -4.7980 C   0  0  0  0  0  0  0  0  0  0  0  0
   14.7599   25.0902   -4.8220 C   0  0  0  0  0  0  0  0  0  0  0  0
   14.2217   24.4078   -3.7768 C   0  0  0  0  0  0  0  0  0  0  0  0
   15.4103   27.1820   -5.9360 C   0  0  0  0  0  0  0  0  0  0  0  0
   15.9987   26.4934   -6.9703 C   0  0  0  0  0  0  0  0  0  0  0  0
   16.5630   27.2005   -8.0371 C   0  0  0  0  0  0  0  0  0  0  0  0
   16.5500   28.5815   -8.0884 C   0  0  0  0  0  0  0  0  0  0  0  0
   15.9589   29.2700   -7.0509 C   0  0  0  0  0  0  0  0  0  0  0  0
   15.9551   31.0141   -7.1342 Cl  0  0  0  0  0  0  0  0  0  0  0  0
   15.3946   28.5763   -5.9854 C   0  0  0  0  0  0  0  0  0  0  0  0
   17.1800   29.2315   -9.2250 C   0  0  0  0  0  0  0  0  0  0  0  0
   18.4628   29.7287   -9.2593 O   0  0  0  0  0  0  0  0  0  0  0  0
   16.4717   29.3435  -10.2734 O   0  0  0  0  0  0  0  0  0  0  0  0
   18.9256   29.9555  -10.1299 H   0  0  0  0  0  0  0  0  0  0  0  0
    8.5516   24.3664    1.8980 C   0  0  0  0  0  0  0  0  0  0  0  0
    7.9222   24.3352    3.2361 C   0  0  0  0  0  0  0  0  0  0  0  0
    7.0879   23.4018    3.6913 N   0  0  0  0  0  0  0  0  0  0  0  0
    6.5617   23.3548    4.9174 C   0  0  0  0  0  0  0  0  0  0  0  0
    6.8718   24.3319    5.8406 C   0  0  0  0  0  0  0  0  0  0  0  0
    7.7359   25.3184    5.4017 C   0  0  0  0  0  0  0  0  0  0  0  0
    8.2613   25.3408    4.1339 C   0  0  0  0  0  0  0  0  0  0  0  0
    9.1938   26.4278    3.6886 C   0  0  0  0  0  0  0  0  0  0  0  0
 19 20  1  0  0  0
 20 13  1  0  0  0
 13 14  2  0  0  0
 14 15  1  0  0  0
 15 16  2  0  0  0
 16 17  1  0  0  0
 17 18  2  0  0  0
 15  1  1  0  0  0
  1  2  1  0  0  0
  2  3  2  0  0  0
  2  4  1  0  0  0
  4  5  1  0  0  0
  5  6  2  0  0  0
  5  7  1  0  0  0
  7  8  1  0  0  0
  8  9  1  0  0  0
  9 10  1  0  0  0
 10 38  1  0  0  0
 38 39  1  0  0  0
 39 40  2  0  0  0
 40 41  1  0  0  0
 41 42  2  0  0  0
 42 43  1  0  0  0
 43 44  2  0  0  0
 44 45  1  0  0  0
 10 11  1  0  0  0
 11 12  1  0  0  0
  4 21  1  0  0  0
 21 22  2  0  0  0
 22 23  1  0  0  0
 23 24  2  0  0  0
 24 25  1  0  0  0
 25 26  2  0  0  0
 24 27  1  0  0  0
 27 28  2  0  0  0
 28 29  1  0  0  0
 29 30  2  0  0  0
 30 34  1  0  0  0
 34 35  1  0  0  0
 34 36  2  0  0  0
 30 31  1  0  0  0
 31 32  1  0  0  0
 31 33  2  0  0  0
 18 13  1  0  0  0
  7  1  1  0  0  0
 12  7  1  0  0  0
 26 21  1  0  0  0
 33 27  1  0  0  0
 44 39  1  0  0  0
 35 37  1  0  0  0
M  END
> <minimizedAffinity>
14.43497

> <CNNscore>
0.4975543320

> <CNNaffinity>
7.6157555580

> <CNN_VS>
3.7892522812

> <CNNaffinity_variance>
0.1502436996

$$$$
[H]OC(=O)c1c([H])c([H])c(-c2c([H])c([H])c(N3C(=O)N(c4nc([H])nc(OC([H])([H])[H])c4[H])C4(C3=O)C([H])([H])C([H])([H])N(C([H])([H])c3nc([H])c([H])c([H])c3C([H])([H])[H])C([H])([H])C4([H])[H])c([H])c2[H])c([H])c1Cl


 45 50  0  0  0  0  0  0  0  0999 V2000
   13.2840   24.7498   -1.6072 N   0  0  0  0  0  0  0  0  0  0  0  0
   11.9685   24.3677   -1.1402 C   0  0  0  0  0  0  0  0  0  0  0  0
   10.8981   24.5244   -1.8116 O   0  0  0  0  0  0  0  0  0  0  0  0
   12.1050   23.8083    0.1565 N   0  0  0  0  0  0  0  0  0  0  0  0
   13.4849   23.8474    0.4729 C   0  0  0  0  0  0  0  0  0  0  0  0
   14.0316   23.6636    1.6056 O   0  0  0  0  0  0  0  0  0  0  0  0
   14.2754   24.1471   -0.7442 C   0  0  0  0  0  0  0  0  0  0  0  0
   15.3040   25.1790   -0.3888 C   0  0  0  0  0  0  0  0  0  0  0  0
   16.4464   25.2128   -1.3237 C   0  0  0  0  0  0  0  0  0  0  0  0
   17.1379   23.9382   -1.3089 N   0  0  0  0  0  0  0  0  0  0  0  0
   16.2728   22.8623   -1.6613 C   0  0  0  0  0  0  0  0  0  0  0  0
   14.8516   22.9000   -1.2949 C   0  0  0  0  0  0  0  0  0  0  0  0
   12.7573   27.4977   -4.0025 C   0  0  0  0  0  0  0  0  0  0  0  0
   12.6009   26.6411   -2.9282 C   0  0  0  0  0  0  0  0  0  0  0  0
   13.4521   25.5809   -2.7352 C   0  0  0  0  0  0  0  0  0  0  0  0
   14.4481   25.4034   -3.6343 N   0  0  0  0  0  0  0  0  0  0  0  0
   14.6021   26.2335   -4.6792 C   0  0  0  0  0  0  0  0  0  0  0  0
   13.7810   27.2680   -4.8772 N   0  0  0  0  0  0  0  0  0  0  0  0
   10.6524   28.4524   -4.8391 C   0  0  0  0  0  0  0  0  0  0  0  0
   11.8925   28.5460   -4.1654 O   0  0  0  0  0  0  0  0  0  0  0  0
   11.0325   23.3242    0.9534 C   0  0  0  0  0  0  0  0  0  0  0  0
   10.3733   24.1719    1.8083 C   0  0  0  0  0  0  0  0  0  0  0  0
    9.3416   23.6114    2.5784 C   0  0  0  0  0  0  0  0  0  0  0  0
    8.9967   22.2859    2.4924 C   0  0  0  0  0  0  0  0  0  0  0  0
    9.6989   21.4655    1.6039 C   0  0  0  0  0  0  0  0  0  0  0  0
   10.7042   21.9703    0.8409 C   0  0  0  0  0  0  0  0  0  0  0  0
    7.9356   21.7103    3.2983 C   0  0  0  0  0  0  0  0  0  0  0  0
    7.9771   21.7595    4.6717 C   0  0  0  0  0  0  0  0  0  0  0  0
    6.9489   21.1699    5.4144 C   0  0  0  0  0  0  0  0  0  0  0  0
    5.8819   20.5327    4.8100 C   0  0  0  0  0  0  0  0  0  0  0  0
    5.8418   20.4851    3.4332 C   0  0  0  0  0  0  0  0  0  0  0  0
    4.4862   19.6736    2.6897 Cl  0  0  0  0  0  0  0  0  0  0  0  0
    6.8591   21.0686    2.6852 C   0  0  0  0  0  0  0  0  0  0  0  0
    4.8713   19.9294    5.6622 C   0  0  0  0  0  0  0  0  0  0  0  0
    4.6421   18.5803    5.8086 O   0  0  0  0  0  0  0  0  0  0  0  0
    4.1422   20.7308    6.3252 O   0  0  0  0  0  0  0  0  0  0  0  0
    4.0964   18.2105    6.5761 H   0  0  0  0  0  0  0  0  0  0  0  0
   17.8952   23.7354   -0.1140 C   0  0  0  0  0  0  0  0  0  0  0  0
   19.2304   24.3624   -0.2227 C   0  0  0  0  0  0  0  0  0  0  0  0
   19.8177   24.7724   -1.3458 N   0  0  0  0  0  0  0  0  0  0  0  0
   21.0027   25.3815   -1.4308 C   0  0  0  0  0  0  0  0  0  0  0  0
   21.7320   25.6371   -0.2879 C   0  0  0  0  0  0  0  0  0  0  0  0
   21.1522   25.2241    0.8977 C   0  0  0  0  0  0  0  0  0  0  0  0
   19.9314   24.5993    0.9540 C   0  0  0  0  0  0  0  0  0  0  0  0
   19.3321   24.1610    2.2571 C   0  0  0  0  0  0  0  0  0  0  0  0
 19 20  1  0  0  0
 20 13  1  0  0  0
 13 14  2  0  0  0
 14 15  1  0  0  0
 15 16  2  0  0  0
 16 17  1  0  0  0
 17 18  2  0  0  0
 15  1  1  0  0  0
  1  2  1  0  0  0
  2  3  2  0  0  0
  2  4  1  0  0  0
  4  5  1  0  0  0
  5  6  2  0  0  0
  5  7  1  0  0  0
  7  8  1  0  0  0
  8  9  1  0  0  0
  9 10  1  0  0  0
 10 38  1  0  0  0
 38 39  1  0  0  0
 39 40  2  0  0  0
 40 41  1  0  0  0
 41 42  2  0  0  0
 42 43  1  0  0  0
 43 44  2  0  0  0
 44 45  1  0  0  0
 10 11  1  0  0  0
 11 12  1  0  0  0
  4 21  1  0  0  0
 21 22  2  0  0  0
 22 23  1  0  0  0
 23 24  2  0  0  0
 24 25  1  0  0  0
 25 26  2  0  0  0
 24 27  1  0  0  0
 27 28  2  0  0  0
 28 29  1  0  0  0
 29 30  2  0  0  0
 30 34  1  0  0  0
 34 35  1  0  0  0
 34 36  2  0  0  0
 30 31  1  0  0  0
 31 32  1  0  0  0
 31 33  2  0  0  0
 18 13  1  0  0  0
  7  1  1  0  0  0
 12  7  1  0  0  0
 26 21  1  0  0  0
 33 27  1  0  0  0
 44 39  1  0  0  0
 35 37  1  0  0  0
M  END
> <minimizedAffinity>
27.21137

> <CNNscore>
0.4349766672

> <CNNaffinity>
7.4811210632

> <CNN_VS>
3.2541131973

> <CNNaffinity_variance>
0.2113008946

$$$$
[H]OC(=O)c1c([H])c([H])c(-c2c([H])c([H])c(N3C(=O)N(c4nc([H])nc(OC([H])([H])[H])c4[H])C4(C3=O)C([H])([H])C([H])([H])N(C([H])([H])c3nc([H])c([H])c([H])c3C([H])([H])[H])C([H])([H])C4([H])[H])c([H])c2[H])c([H])c1Cl


 45 50  0  0  0  0  0  0  0  0999 V2000
   12.2359   21.7510   -0.0967 N   0  0  0  0  0  0  0  0  0  0  0  0
   13.2329   22.4737   -0.8572 C   0  0  0  0  0  0  0  0  0  0  0  0
   14.4854   22.2582   -0.7807 O   0  0  0  0  0  0  0  0  0  0  0  0
   12.5647   23.4268   -1.6685 N   0  0  0  0  0  0  0  0  0  0  0  0
   11.1802   23.2840   -1.4070 C   0  0  0  0  0  0  0  0  0  0  0  0
   10.2385   24.0725   -1.7342 O   0  0  0  0  0  0  0  0  0  0  0  0
   10.9329   22.0292   -0.6584 C   0  0  0  0  0  0  0  0  0  0  0  0
    9.9766   22.3330    0.4564 C   0  0  0  0  0  0  0  0  0  0  0  0
    9.2694   21.1396    0.9623 C   0  0  0  0  0  0  0  0  0  0  0  0
    8.4739   20.5481   -0.0961 N   0  0  0  0  0  0  0  0  0  0  0  0
    9.2729   20.1817   -1.2175 C   0  0  0  0  0  0  0  0  0  0  0  0
   10.4543   20.9745   -1.5798 C   0  0  0  0  0  0  0  0  0  0  0  0
   14.2748   19.6894    2.1746 C   0  0  0  0  0  0  0  0  0  0  0  0
   13.8789   20.4620    1.0981 C   0  0  0  0  0  0  0  0  0  0  0  0
   12.5936   20.9348    0.9975 C   0  0  0  0  0  0  0  0  0  0  0  0
   11.7279   20.6164    1.9880 N   0  0  0  0  0  0  0  0  0  0  0  0
   12.1094   19.8656    3.0347 C   0  0  0  0  0  0  0  0  0  0  0  0
   13.3565   19.4004    3.1437 N   0  0  0  0  0  0  0  0  0  0  0  0
   16.5839   19.6009    1.3367 C   0  0  0  0  0  0  0  0  0  0  0  0
   15.5639   19.2350    2.2456 O   0  0  0  0  0  0  0  0  0  0  0  0
   13.2043   24.3379   -2.5520 C   0  0  0  0  0  0  0  0  0  0  0  0
   14.3508   23.9682   -3.2100 C   0  0  0  0  0  0  0  0  0  0  0  0
   14.9351   24.9333   -4.0460 C   0  0  0  0  0  0  0  0  0  0  0  0
   14.3998   26.1864   -4.2089 C   0  0  0  0  0  0  0  0  0  0  0  0
   13.2289   26.5117   -3.5168 C   0  0  0  0  0  0  0  0  0  0  0  0
   12.6330   25.6051   -2.6978 C   0  0  0  0  0  0  0  0  0  0  0  0
   15.0139   27.1828   -5.0670 C   0  0  0  0  0  0  0  0  0  0  0  0
   14.9970   28.5170   -4.7354 C   0  0  0  0  0  0  0  0  0  0  0  0
   15.5760   29.4504   -5.6014 C   0  0  0  0  0  0  0  0  0  0  0  0
   16.1705   29.0749   -6.7911 C   0  0  0  0  0  0  0  0  0  0  0  0
   16.1871   27.7369   -7.1213 C   0  0  0  0  0  0  0  0  0  0  0  0
   16.9411   27.2839   -8.6298 Cl  0  0  0  0  0  0  0  0  0  0  0  0
   15.6143   26.8004   -6.2671 C   0  0  0  0  0  0  0  0  0  0  0  0
   16.7269   30.1160   -7.6384 C   0  0  0  0  0  0  0  0  0  0  0  0
   16.7433   31.4625   -7.3543 O   0  0  0  0  0  0  0  0  0  0  0  0
   17.2406   29.7345   -8.7356 O   0  0  0  0  0  0  0  0  0  0  0  0
   17.3397   32.1078   -7.8558 H   0  0  0  0  0  0  0  0  0  0  0  0
    7.3128   21.3199   -0.4104 C   0  0  0  0  0  0  0  0  0  0  0  0
    6.2099   20.4494   -0.8725 C   0  0  0  0  0  0  0  0  0  0  0  0
    5.1434   20.0869   -0.1615 N   0  0  0  0  0  0  0  0  0  0  0  0
    4.1277   19.3403   -0.6014 C   0  0  0  0  0  0  0  0  0  0  0  0
    4.1252   18.8724   -1.8992 C   0  0  0  0  0  0  0  0  0  0  0  0
    5.2186   19.2295   -2.6670 C   0  0  0  0  0  0  0  0  0  0  0  0
    6.2489   19.9987   -2.1868 C   0  0  0  0  0  0  0  0  0  0  0  0
    7.4224   20.3655   -3.0457 C   0  0  0  0  0  0  0  0  0  0  0  0
 19 20  1  0  0  0
 20 13  1  0  0  0
 13 14  2  0  0  0
 14 15  1  0  0  0
 15 16  2  0  0  0
 16 17  1  0  0  0
 17 18  2  0  0  0
 15  1  1  0  0  0
  1  2  1  0  0  0
  2  3  2  0  0  0
  2  4  1  0  0  0
  4  5  1  0  0  0
  5  6  2  0  0  0
  5  7  1  0  0  0
  7  8  1  0  0  0
  8  9  1  0  0  0
  9 10  1  0  0  0
 10 38  1  0  0  0
 38 39  1  0  0  0
 39 40  2  0  0  0
 40 41  1  0  0  0
 41 42  2  0  0  0
 42 43  1  0  0  0
 43 44  2  0  0  0
 44 45  1  0  0  0
 10 11  1  0  0  0
 11 12  1  0  0  0
  4 21  1  0  0  0
 21 22  2  0  0  0
 22 23  1  0  0  0
 23 24  2  0  0  0
 24 25  1  0  0  0
 25 26  2  0  0  0
 24 27  1  0  0  0
 27 28  2  0  0  0
 28 29  1  0  0  0
 29 30  2  0  0  0
 30 34  1  0  0  0
 34 35  1  0  0  0
 34 36  2  0  0  0
 30 31  1  0  0  0
 31 32  1  0  0  0
 31 33  2  0  0  0
 18 13  1  0  0  0
  7  1  1  0  0  0
 12  7  1  0  0  0
 26 21  1  0  0  0
 33 27  1  0  0  0
 44 39  1  0  0  0
 35 37  1  0  0  0
M  END
> <minimizedAffinity>
16.40182

> <CNNscore>
0.4249292612

> <CNNaffinity>
7.4658823013

> <CNN_VS>
3.1724717617

> <CNNaffinity_variance>
0.3479610682

$$$$
[H]OC(=O)c1c([H])c([H])c(-c2c([H])c([H])c(N3C(=O)N(c4nc([H])nc(OC([H])([H])[H])c4[H])C4(C3=O)C([H])([H])C([H])([H])N(C([H])([H])c3nc([H])c([H])c([H])c3C([H])([H])[H])C([H])([H])C4([H])[H])c([H])c2[H])c([H])c1Cl


 45 50  0  0  0  0  0  0  0  0999 V2000
   15.2562   24.0086   -0.3231 N   0  0  0  0  0  0  0  0  0  0  0  0
   14.4483   23.4737    0.7520 C   0  0  0  0  0  0  0  0  0  0  0  0
   14.8704   23.2865    1.9386 O   0  0  0  0  0  0  0  0  0  0  0  0
   13.1505   23.2122    0.2417 N   0  0  0  0  0  0  0  0  0  0  0  0
   13.1682   23.5853   -1.1244 C   0  0  0  0  0  0  0  0  0  0  0  0
   12.3053   23.3167   -2.0182 O   0  0  0  0  0  0  0  0  0  0  0  0
   14.3862   24.3768   -1.4177 C   0  0  0  0  0  0  0  0  0  0  0  0
   14.9745   23.8677   -2.7000 C   0  0  0  0  0  0  0  0  0  0  0  0
   15.8671   24.8406   -3.3612 C   0  0  0  0  0  0  0  0  0  0  0  0
   15.1260   26.0374   -3.7093 N   0  0  0  0  0  0  0  0  0  0  0  0
   14.5330   26.6448   -2.5648 C   0  0  0  0  0  0  0  0  0  0  0  0
   14.0590   25.8199   -1.4467 C   0  0  0  0  0  0  0  0  0  0  0  0
   18.6157   24.1459    1.1808 C   0  0  0  0  0  0  0  0  0  0  0  0
   17.2419   24.0865    1.0333 C   0  0  0  0  0  0  0  0  0  0  0  0
   16.6593   24.1083   -0.2100 C   0  0  0  0  0  0  0  0  0  0  0  0
   17.4770   24.1919   -1.2854 N   0  0  0  0  0  0  0  0  0  0  0  0
   18.8118   24.2504   -1.1452 C   0  0  0  0  0  0  0  0  0  0  0  0
   19.3899   24.2295    0.0585 N   0  0  0  0  0  0  0  0  0  0  0  0
   19.3917   25.2724    3.2230 C   0  0  0  0  0  0  0  0  0  0  0  0
   19.1649   24.1205    2.4342 O   0  0  0  0  0  0  0  0  0  0  0  0
   12.0728   22.6690    0.9920 C   0  0  0  0  0  0  0  0  0  0  0  0
   11.9236   21.3084    1.0957 C   0  0  0  0  0  0  0  0  0  0  0  0
   10.8201   20.8513    1.8340 C   0  0  0  0  0  0  0  0  0  0  0  0
    9.9274   21.7073    2.4286 C   0  0  0  0  0  0  0  0  0  0  0  0
   10.1264   23.0850    2.2940 C   0  0  0  0  0  0  0  0  0  0  0  0
   11.1827   23.5672    1.5872 C   0  0  0  0  0  0  0  0  0  0  0  0
    8.7833   21.2285    3.1824 C   0  0  0  0  0  0  0  0  0  0  0  0
    8.7946   21.2045    4.5570 C   0  0  0  0  0  0  0  0  0  0  0  0
    7.6830   20.7108    5.2476 C   0  0  0  0  0  0  0  0  0  0  0  0
    6.5620   20.2411    4.5899 C   0  0  0  0  0  0  0  0  0  0  0  0
    6.5523   20.2666    3.2119 C   0  0  0  0  0  0  0  0  0  0  0  0
    5.1273   19.6666    2.4005 Cl  0  0  0  0  0  0  0  0  0  0  0  0
    7.6525   20.7558    2.5155 C   0  0  0  0  0  0  0  0  0  0  0  0
    5.4633   19.7262    5.3893 C   0  0  0  0  0  0  0  0  0  0  0  0
    4.2210   20.3040    5.5181 O   0  0  0  0  0  0  0  0  0  0  0  0
    5.6836   18.6456    6.0196 O   0  0  0  0  0  0  0  0  0  0  0  0
    3.4298   19.7945    5.8894 H   0  0  0  0  0  0  0  0  0  0  0  0
   14.2391   25.8359   -4.8117 C   0  0  0  0  0  0  0  0  0  0  0  0
   14.9949   25.6324   -6.0666 C   0  0  0  0  0  0  0  0  0  0  0  0
   15.9476   24.7245   -6.2726 N   0  0  0  0  0  0  0  0  0  0  0  0
   16.5917   24.5147   -7.4231 C   0  0  0  0  0  0  0  0  0  0  0  0
   16.2879   25.2744   -8.5338 C   0  0  0  0  0  0  0  0  0  0  0  0
   15.3025   26.2283   -8.3560 C   0  0  0  0  0  0  0  0  0  0  0  0
   14.6574   26.4214   -7.1601 C   0  0  0  0  0  0  0  0  0  0  0  0
   13.5948   27.4678   -7.0002 C   0  0  0  0  0  0  0  0  0  0  0  0
 19 20  1  0  0  0
 20 13  1  0  0  0
 13 14  2  0  0  0
 14 15  1  0  0  0
 15 16  2  0  0  0
 16 17  1  0  0  0
 17 18  2  0  0  0
 15  1  1  0  0  0
  1  2  1  0  0  0
  2  3  2  0  0  0
  2  4  1  0  0  0
  4  5  1  0  0  0
  5  6  2  0  0  0
  5  7  1  0  0  0
  7  8  1  0  0  0
  8  9  1  0  0  0
  9 10  1  0  0  0
 10 38  1  0  0  0
 38 39  1  0  0  0
 39 40  2  0  0  0
 40 41  1  0  0  0
 41 42  2  0  0  0
 42 43  1  0  0  0
 43 44  2  0  0  0
 44 45  1  0  0  0
 10 11  1  0  0  0
 11 12  1  0  0  0
  4 21  1  0  0  0
 21 22  2  0  0  0
 22 23  1  0  0  0
 23 24  2  0  0  0
 24 25  1  0  0  0
 25 26  2  0  0  0
 24 27  1  0  0  0
 27 28  2  0  0  0
 28 29  1  0  0  0
 29 30  2  0  0  0
 30 34  1  0  0  0
 34 35  1  0  0  0
 34 36  2  0  0  0
 30 31  1  0  0  0
 31 32  1  0  0  0
 31 33  2  0  0  0
 18 13  1  0  0  0
  7  1  1  0  0  0
 12  7  1  0  0  0
 26 21  1  0  0  0
 33 27  1  0  0  0
 44 39  1  0  0  0
 35 37  1  0  0  0
M  END
> <minimizedAffinity>
16.04531

> <CNNscore>
0.4232273400

> <CNNaffinity>
7.6069307327

> <CNN_VS>
3.2194609642

> <CNNaffinity_variance>
0.6537027359

$$$$
[H]OC(=O)c1c([H])c([H])c(-c2c([H])c([H])c(N3C(=O)N(c4nc([H])nc(OC([H])([H])[H])c4[H])C4(C3=O)C([H])([H])C([H])([H])N(C([H])([H])c3nc([H])c([H])c([H])c3C([H])([H])[H])C([H])([H])C4([H])[H])c([H])c2[H])c([H])c1Cl


 45 50  0  0  0  0  0  0  0  0999 V2000
   15.6511   24.4701   -0.1619 N   0  0  0  0  0  0  0  0  0  0  0  0
   14.6316   24.7306    0.8318 C   0  0  0  0  0  0  0  0  0  0  0  0
   14.8757   25.0462    2.0409 O   0  0  0  0  0  0  0  0  0  0  0  0
   13.3633   24.5716    0.2160 N   0  0  0  0  0  0  0  0  0  0  0  0
   13.6081   24.2216   -1.1343 C   0  0  0  0  0  0  0  0  0  0  0  0
   12.7803   23.7680   -1.9856 O   0  0  0  0  0  0  0  0  0  0  0  0
   15.0323   24.4578   -1.4687 C   0  0  0  0  0  0  0  0  0  0  0  0
   15.5339   23.2695   -2.2341 C   0  0  0  0  0  0  0  0  0  0  0  0
   16.7370   23.5580   -3.0402 C   0  0  0  0  0  0  0  0  0  0  0  0
   16.4389   24.5742   -4.0308 N   0  0  0  0  0  0  0  0  0  0  0  0
   15.9747   25.7798   -3.4296 C   0  0  0  0  0  0  0  0  0  0  0  0
   15.1769   25.7375   -2.1979 C   0  0  0  0  0  0  0  0  0  0  0  0
   19.2851   23.9495   -0.4604 C   0  0  0  0  0  0  0  0  0  0  0  0
   17.9483   24.1065   -0.7778 C   0  0  0  0  0  0  0  0  0  0  0  0
   17.0008   24.2758    0.2015 C   0  0  0  0  0  0  0  0  0  0  0  0
   17.4213   24.2817    1.4880 N   0  0  0  0  0  0  0  0  0  0  0  0
   18.7191   24.1288    1.7995 C   0  0  0  0  0  0  0  0  0  0  0  0
   19.6497   23.9638    0.8559 N   0  0  0  0  0  0  0  0  0  0  0  0
   20.2918   22.6305   -2.2739 C   0  0  0  0  0  0  0  0  0  0  0  0
   20.2047   23.7843   -1.4606 O   0  0  0  0  0  0  0  0  0  0  0  0
   12.1123   24.7321    0.8709 C   0  0  0  0  0  0  0  0  0  0  0  0
   10.9438   24.5037    0.1879 C   0  0  0  0  0  0  0  0  0  0  0  0
    9.7499   24.7075    0.8984 C   0  0  0  0  0  0  0  0  0  0  0  0
    9.7344   25.1133    2.2092 C   0  0  0  0  0  0  0  0  0  0  0  0
   10.9532   25.3303    2.8597 C   0  0  0  0  0  0  0  0  0  0  0  0
   12.1306   25.1440    2.2064 C   0  0  0  0  0  0  0  0  0  0  0  0
    8.4967   25.3317    2.9353 C   0  0  0  0  0  0  0  0  0  0  0  0
    8.1964   24.6089    4.0656 C   0  0  0  0  0  0  0  0  0  0  0  0
    6.9815   24.8291    4.7228 C   0  0  0  0  0  0  0  0  0  0  0  0
    6.0626   25.7572    4.2709 C   0  0  0  0  0  0  0  0  0  0  0  0
    6.3658   26.4812    3.1380 C   0  0  0  0  0  0  0  0  0  0  0  0
    5.1903   27.6470    2.5828 Cl  0  0  0  0  0  0  0  0  0  0  0  0
    7.5714   26.2701    2.4772 C   0  0  0  0  0  0  0  0  0  0  0  0
    4.8170   25.9025    5.0049 C   0  0  0  0  0  0  0  0  0  0  0  0
    4.3291   27.0730    5.5397 O   0  0  0  0  0  0  0  0  0  0  0  0
    4.1276   24.8469    5.1587 O   0  0  0  0  0  0  0  0  0  0  0  0
    3.3648   27.1670    5.8309 H   0  0  0  0  0  0  0  0  0  0  0  0
   15.6263   24.0821   -5.0985 C   0  0  0  0  0  0  0  0  0  0  0  0
   14.9134   25.1890   -5.7724 C   0  0  0  0  0  0  0  0  0  0  0  0
   13.9507   25.9423   -5.2430 N   0  0  0  0  0  0  0  0  0  0  0  0
   13.3455   26.9711   -5.8410 C   0  0  0  0  0  0  0  0  0  0  0  0
   13.7055   27.3354   -7.1220 C   0  0  0  0  0  0  0  0  0  0  0  0
   14.7028   26.5739   -7.7034 C   0  0  0  0  0  0  0  0  0  0  0  0
   15.3071   25.5207   -7.0636 C   0  0  0  0  0  0  0  0  0  0  0  0
   16.3841   24.7128   -7.7246 C   0  0  0  0  0  0  0  0  0  0  0  0
 19 20  1  0  0  0
 20 13  1  0  0  0
 13 14  2  0  0  0
 14 15  1  0  0  0
 15 16  2  0  0  0
 16 17  1  0  0  0
 17 18  2  0  0  0
 15  1  1  0  0  0
  1  2  1  0  0  0
  2  3  2  0  0  0
  2  4  1  0  0  0
  4  5  1  0  0  0
  5  6  2  0  0  0
  5  7  1  0  0  0
  7  8  1  0  0  0
  8  9  1  0  0  0
  9 10  1  0  0  0
 10 38  1  0  0  0
 38 39  1  0  0  0
 39 40  2  0  0  0
 40 41  1  0  0  0
 41 42  2  0  0  0
 42 43  1  0  0  0
 43 44  2  0  0  0
 44 45  1  0  0  0
 10 11  1  0  0  0
 11 12  1  0  0  0
  4 21  1  0  0  0
 21 22  2  0  0  0
 22 23  1  0  0  0
 23 24  2  0  0  0
 24 25  1  0  0  0
 25 26  2  0  0  0
 24 27  1  0  0  0
 27 28  2  0  0  0
 28 29  1  0  0  0
 29 30  2  0  0  0
 30 34  1  0  0  0
 34 35  1  0  0  0
 34 36  2  0  0  0
 30 31  1  0  0  0
 31 32  1  0  0  0
 31 33  2  0  0  0
 18 13  1  0  0  0
  7  1  1  0  0  0
 12  7  1  0  0  0
 26 21  1  0  0  0
 33 27  1  0  0  0
 44 39  1  0  0  0
 35 37  1  0  0  0
M  END
> <minimizedAffinity>
27.20350

> <CNNscore>
0.4092571139

> <CNNaffinity>
7.2011580467

> <CNN_VS>
2.9471251965

> <CNNaffinity_variance>
0.8210986853

$$$$
[H]OC(=O)c1c([H])c([H])c(-c2c([H])c([H])c(N3C(=O)N(c4nc([H])nc(OC([H])([H])[H])c4[H])C4(C3=O)C([H])([H])C([H])([H])N(C([H])([H])c3nc([H])c([H])c([H])c3C([H])([H])[H])C([H])([H])C4([H])[H])c([H])c2[H])c([H])c1Cl


 45 50  0  0  0  0  0  0  0  0999 V2000
   16.0086   23.8683   -0.1268 N   0  0  0  0  0  0  0  0  0  0  0  0
   15.0190   23.3811    0.8102 C   0  0  0  0  0  0  0  0  0  0  0  0
   15.2475   23.1663    2.0442 O   0  0  0  0  0  0  0  0  0  0  0  0
   13.7986   23.1997    0.1097 N   0  0  0  0  0  0  0  0  0  0  0  0
   14.0419   23.5738   -1.2344 C   0  0  0  0  0  0  0  0  0  0  0  0
   13.3075   23.3598   -2.2495 O   0  0  0  0  0  0  0  0  0  0  0  0
   15.3350   24.2907   -1.3345 C   0  0  0  0  0  0  0  0  0  0  0  0
   16.0765   23.7496   -2.5206 C   0  0  0  0  0  0  0  0  0  0  0  0
   17.1141   24.6681   -3.0308 C   0  0  0  0  0  0  0  0  0  0  0  0
   16.5058   25.9083   -3.4721 N   0  0  0  0  0  0  0  0  0  0  0  0
   15.7859   26.5480   -2.4219 C   0  0  0  0  0  0  0  0  0  0  0  0
   15.1023   25.7510   -1.3958 C   0  0  0  0  0  0  0  0  0  0  0  0
   19.1143   24.2525    1.8157 C   0  0  0  0  0  0  0  0  0  0  0  0
   17.7796   24.2606    1.4539 C   0  0  0  0  0  0  0  0  0  0  0  0
   17.3825   23.8827    0.1948 C   0  0  0  0  0  0  0  0  0  0  0  0
   18.3437   23.5039   -0.6796 N   0  0  0  0  0  0  0  0  0  0  0  0
   19.6411   23.4956   -0.3312 C   0  0  0  0  0  0  0  0  0  0  0  0
   20.0393   23.8605    0.8903 N   0  0  0  0  0  0  0  0  0  0  0  0
   19.7448   25.9699    3.4573 C   0  0  0  0  0  0  0  0  0  0  0  0
   19.4766   24.6336    3.0794 O   0  0  0  0  0  0  0  0  0  0  0  0
   12.5906   22.7211    0.6853 C   0  0  0  0  0  0  0  0  0  0  0  0
   12.3015   21.3795    0.6618 C   0  0  0  0  0  0  0  0  0  0  0  0
   11.0777   20.9898    1.2295 C   0  0  0  0  0  0  0  0  0  0  0  0
   10.2042   21.8912    1.7844 C   0  0  0  0  0  0  0  0  0  0  0  0
   10.5479   23.2468    1.7843 C   0  0  0  0  0  0  0  0  0  0  0  0
   11.7235   23.6640    1.2444 C   0  0  0  0  0  0  0  0  0  0  0  0
    8.9363   21.4832    2.3609 C   0  0  0  0  0  0  0  0  0  0  0  0
    8.8217   21.1973    3.7008 C   0  0  0  0  0  0  0  0  0  0  0  0
    7.5890   20.7813    4.2144 C   0  0  0  0  0  0  0  0  0  0  0  0
    6.4706   20.6458    3.4140 C   0  0  0  0  0  0  0  0  0  0  0  0
    6.5874   20.9336    2.0712 C   0  0  0  0  0  0  0  0  0  0  0  0
    5.1630   20.7539    1.0772 Cl  0  0  0  0  0  0  0  0  0  0  0  0
    7.8087   21.3484    1.5503 C   0  0  0  0  0  0  0  0  0  0  0  0
    5.2376   20.1864    4.0305 C   0  0  0  0  0  0  0  0  0  0  0  0
    4.1603   20.9758    4.3625 O   0  0  0  0  0  0  0  0  0  0  0  0
    5.1615   18.9431    4.2790 O   0  0  0  0  0  0  0  0  0  0  0  0
    3.2515   20.5817    4.5686 H   0  0  0  0  0  0  0  0  0  0  0  0
   15.7827   25.7630   -4.6963 C   0  0  0  0  0  0  0  0  0  0  0  0
   14.4381   26.3701   -4.5901 C   0  0  0  0  0  0  0  0  0  0  0  0
   13.3733   25.8253   -4.0039 N   0  0  0  0  0  0  0  0  0  0  0  0
   12.1757   26.3998   -3.8695 C   0  0  0  0  0  0  0  0  0  0  0  0
   11.9595   27.6705   -4.3613 C   0  0  0  0  0  0  0  0  0  0  0  0
   13.0444   28.2670   -4.9775 C   0  0  0  0  0  0  0  0  0  0  0  0
   14.2647   27.6510   -5.1012 C   0  0  0  0  0  0  0  0  0  0  0  0
   15.4205   28.3253   -5.7786 C   0  0  0  0  0  0  0  0  0  0  0  0
 19 20  1  0  0  0
 20 13  1  0  0  0
 13 14  2  0  0  0
 14 15  1  0  0  0
 15 16  2  0  0  0
 16 17  1  0  0  0
 17 18  2  0  0  0
 15  1  1  0  0  0
  1  2  1  0  0  0
  2  3  2  0  0  0
  2  4  1  0  0  0
  4  5  1  0  0  0
  5  6  2  0  0  0
  5  7  1  0  0  0
  7  8  1  0  0  0
  8  9  1  0  0  0
  9 10  1  0  0  0
 10 38  1  0  0  0
 38 39  1  0  0  0
 39 40  2  0  0  0
 40 41  1  0  0  0
 41 42  2  0  0  0
 42 43  1  0  0  0
 43 44  2  0  0  0
 44 45  1  0  0  0
 10 11  1  0  0  0
 11 12  1  0  0  0
  4 21  1  0  0  0
 21 22  2  0  0  0
 22 23  1  0  0  0
 23 24  2  0  0  0
 24 25  1  0  0  0
 25 26  2  0  0  0
 24 27  1  0  0  0
 27 28  2  0  0  0
 28 29  1  0  0  0
 29 30  2  0  0  0
 30 34  1  0  0  0
 34 35  1  0  0  0
 34 36  2  0  0  0
 30 31  1  0  0  0
 31 32  1  0  0  0
 31 33  2  0  0  0
 18 13  1  0  0  0
  7  1  1  0  0  0
 12  7  1  0  0  0
 26 21  1  0  0  0
 33 27  1  0  0  0
 44 39  1  0  0  0
 35 37  1  0  0  0
M  END
> <minimizedAffinity>
18.92881

> <CNNscore>
0.4088810980

> <CNNaffinity>
7.6928381920

> <CNN_VS>
3.1454560757

> <CNNaffinity_variance>
0.5178095102

$$$$
[H]OC(=O)C([H])([H])N([H])C(=O)c1c(O[H])c2c([H])c(C([H])([H])N([H])C(=O)[C@]([H])(N([H])C(=O)[C@]([H])(N([H])C(=O)C(C([H])([H])[H])(C([H])([H])[H])C([H])([H])[H])C([H])([H])C([H])(C([H])([H])[H])C([H])([H])[H])C([H])([H])c3c([H])c([H])c([H])c([H])c3[H])c([H])c([H])c2n(C([H])([H])[H])c1=O


 53 55  0  0  0  0  0  0  0  0999 V2000
   11.4933   21.4794    0.8066 C   0  0  0  0  0  0  0  0  0  0  0  0
   11.4660   20.2298    0.7170 O   0  0  0  0  0  0  0  0  0  0  0  0
   12.5332   22.2599    0.2682 N   0  0  0  0  0  0  0  0  0  0  0  0
   12.4844   23.2964    0.3984 H   0  0  0  0  0  0  0  0  0  0  0  0
   10.2933   22.1295    1.5230 C   0  0  0  0  0  0  0  0  0  0  0  0
    8.1338   21.0491    0.2574 C   0  0  0  0  0  0  0  0  0  0  0  0
    8.3077   20.1578   -0.6703 O   0  0  0  0  0  0  0  0  0  0  0  0
    9.1180   21.6429    0.9484 N   0  0  0  0  0  0  0  0  0  0  0  0
   10.0286   20.8578    0.1856 H   0  0  0  0  0  0  0  0  0  0  0  0
    6.6252   21.2764    0.4027 C   0  0  0  0  0  0  0  0  0  0  0  0
    6.3324   21.2478    1.8241 N   0  0  0  0  0  0  0  0  0  0  0  0
    6.0775   20.1265    2.6149 C   0  0  0  0  0  0  0  0  0  0  0  0
    6.1079   18.9746    2.1583 O   0  0  0  0  0  0  0  0  0  0  0  0
    6.3132   22.1968    2.3070 H   0  0  0  0  0  0  0  0  0  0  0  0
    5.7369   20.2607    4.0747 C   0  0  0  0  0  0  0  0  0  0  0  0
    6.1094   21.6277    4.5881 C   0  0  0  0  0  0  0  0  0  0  0  0
    4.3060   19.9721    4.3686 C   0  0  0  0  0  0  0  0  0  0  0  0
    6.5868   19.2176    4.8449 C   0  0  0  0  0  0  0  0  0  0  0  0
    6.0651   19.9123   -0.1231 C   0  0  0  0  0  0  0  0  0  0  0  0
    4.8351   21.5124   -1.4837 C   0  0  0  0  0  0  0  0  0  0  0  0
    4.8201   20.1007   -0.9191 C   0  0  0  0  0  0  0  0  0  0  0  0
    4.9318   19.1479   -2.1429 C   0  0  0  0  0  0  0  0  0  0  0  0
   10.5086   23.5094    1.9371 C   0  0  0  0  0  0  0  0  0  0  0  0
    9.7876   24.1050    3.0491 C   0  0  0  0  0  0  0  0  0  0  0  0
    9.3622   25.4283    2.9581 C   0  0  0  0  0  0  0  0  0  0  0  0
    8.6880   26.0283    3.9854 C   0  0  0  0  0  0  0  0  0  0  0  0
    8.4016   25.3448    5.1668 C   0  0  0  0  0  0  0  0  0  0  0  0
    8.8214   24.0417    5.2592 C   0  0  0  0  0  0  0  0  0  0  0  0
    9.5107   23.4257    4.2044 C   0  0  0  0  0  0  0  0  0  0  0  0
   13.6835   21.7387   -0.4550 C   0  0  0  0  0  0  0  0  0  0  0  0
   14.0910   22.7410   -1.5016 C   0  0  0  0  0  0  0  0  0  0  0  0
   15.0498   22.4928   -2.4319 C   0  0  0  0  0  0  0  0  0  0  0  0
   15.3192   23.3380   -3.5002 C   0  0  0  0  0  0  0  0  0  0  0  0
   14.5738   24.5264   -3.6488 C   0  0  0  0  0  0  0  0  0  0  0  0
   14.7641   25.3164   -4.7122 N   0  0  0  0  0  0  0  0  0  0  0  0
   15.7993   24.9682   -5.6878 C   0  0  0  0  0  0  0  0  0  0  0  0
   14.0215   26.4396   -4.9412 C   0  0  0  0  0  0  0  0  0  0  0  0
   14.2617   27.1275   -5.9688 O   0  0  0  0  0  0  0  0  0  0  0  0
   13.0543   26.7389   -4.0169 C   0  0  0  0  0  0  0  0  0  0  0  0
   12.8504   25.9015   -2.8892 C   0  0  0  0  0  0  0  0  0  0  0  0
   11.8851   26.2061   -1.9722 O   0  0  0  0  0  0  0  0  0  0  0  0
   13.6222   24.7686   -2.6973 C   0  0  0  0  0  0  0  0  0  0  0  0
   13.3602   23.9184   -1.6370 C   0  0  0  0  0  0  0  0  0  0  0  0
   11.6073   25.7629   -1.1574 H   0  0  0  0  0  0  0  0  0  0  0  0
   12.2636   27.9127   -4.0877 C   0  0  0  0  0  0  0  0  0  0  0  0
   12.7596   29.0114   -3.5700 O   0  0  0  0  0  0  0  0  0  0  0  0
   10.9816   28.1219   -4.6318 N   0  0  0  0  0  0  0  0  0  0  0  0
   10.4516   27.3254   -5.0318 H   0  0  0  0  0  0  0  0  0  0  0  0
   10.3923   29.4530   -4.6279 C   0  0  0  0  0  0  0  0  0  0  0  0
    8.9937   29.4438   -5.0302 C   0  0  0  0  0  0  0  0  0  0  0  0
    8.6071   28.8098   -6.2321 O   0  0  0  0  0  0  0  0  0  0  0  0
    8.0528   29.9616   -4.3925 O   0  0  0  0  0  0  0  0  0  0  0  0
    9.3316   28.7976   -6.9723 H   0  0  0  0  0  0  0  0  0  0  0  0
 20 21  1  0  0  0
 21 22  1  0  0  0
 21 19  1  0  0  0
 19 10  1  0  0  0
 10 11  1  0  0  0
 11 12  1  0  0  0
 12 13  2  0  0  0
 12 15  1  0  0  0
 15 16  1  0  0  0
 15 17  1  0  0  0
 15 18  1  0  0  0
 10  6  1  0  0  0
  6  7  2  0  0  0
  6  8  1  0  0  0
  8  5  1  0  0  0
  5 23  1  0  0  0
 23 24  1  0  0  0
 24 25  2  0  0  0
 25 26  1  0  0  0
 26 27  2  0  0  0
 27 28  1  0  0  0
 28 29  2  0  0  0
  5  1  1  0  0  0
  1  2  2  0  0  0
  1  3  1  0  0  0
  3 30  1  0  0  0
 30 31  1  0  0  0
 31 32  2  0  0  0
 32 33  1  0  0  0
 33 34  2  0  0  0
 34 35  1  0  0  0
 35 36  1  0  0  0
 35 37  1  0  0  0
 37 38  2  0  0  0
 37 39  1  0  0  0
 39 45  1  0  0  0
 45 46  2  0  0  0
 45 47  1  0  0  0
 47 49  1  0  0  0
 49 50  1  0  0  0
 50 51  1  0  0  0
 50 52  2  0  0  0
 39 40  2  0  0  0
 40 41  1  0  0  0
 40 42  1  0  0  0
 42 43  2  0  0  0
 29 24  1  0  0  0
 43 31  1  0  0  0
 42 34  1  0  0  0
 11 14  1  0  0  0
  8  9  1  0  0  0
  3  4  1  0  0  0
 47 48  1  0  0  0
 51 53  1  0  0  0
 41 44  1  0  0  0
M  END
> <minimizedAffinity>
-2.41826

> <CNNscore>
0.4107616842

> <CNNaffinity>
7.6521568298

> <CNN_VS>
3.1432127953

> <CNNaffinity_variance>
0.8956115842

$$$$
[H]OC(=O)C([H])([H])N([H])C(=O)c1c(O[H])c2c([H])c(C([H])([H])N([H])C(=O)[C@]([H])(N([H])C(=O)[C@]([H])(N([H])C(=O)C(C([H])([H])[H])(C([H])([H])[H])C([H])([H])[H])C([H])([H])C([H])(C([H])([H])[H])C([H])([H])[H])C([H])([H])c3c([H])c([H])c([H])c([H])c3[H])c([H])c([H])c2n(C([H])([H])[H])c1=O


 53 55  0  0  0  0  0  0  0  0999 V2000
   13.1784   24.5925   -2.3900 C   0  0  0  0  0  0  0  0  0  0  0  0
   13.0732   25.6890   -2.9875 O   0  0  0  0  0  0  0  0  0  0  0  0
   12.1515   24.0590   -1.5892 N   0  0  0  0  0  0  0  0  0  0  0  0
   12.3264   23.1431   -1.1158 H   0  0  0  0  0  0  0  0  0  0  0  0
   14.5019   23.8323   -2.6058 C   0  0  0  0  0  0  0  0  0  0  0  0
   14.4746   21.5992   -1.0421 C   0  0  0  0  0  0  0  0  0  0  0  0
   14.0004   20.4863   -1.5132 O   0  0  0  0  0  0  0  0  0  0  0  0
   14.5429   22.7546   -1.7196 N   0  0  0  0  0  0  0  0  0  0  0  0
   13.9582   22.0615   -2.8174 H   0  0  0  0  0  0  0  0  0  0  0  0
   14.9303   21.3348    0.3970 C   0  0  0  0  0  0  0  0  0  0  0  0
   13.8521   20.6174    1.0525 N   0  0  0  0  0  0  0  0  0  0  0  0
   12.7728   21.1613    1.7503 C   0  0  0  0  0  0  0  0  0  0  0  0
   12.6045   22.3845    1.8588 O   0  0  0  0  0  0  0  0  0  0  0  0
   13.9013   19.5556    0.9858 H   0  0  0  0  0  0  0  0  0  0  0  0
   11.7546   20.2817    2.4244 C   0  0  0  0  0  0  0  0  0  0  0  0
   10.6729   19.8760    1.4567 C   0  0  0  0  0  0  0  0  0  0  0  0
   12.3549   19.0769    3.0611 C   0  0  0  0  0  0  0  0  0  0  0  0
   11.0940   21.1189    3.5497 C   0  0  0  0  0  0  0  0  0  0  0  0
   14.8476   22.7746    1.0063 C   0  0  0  0  0  0  0  0  0  0  0  0
   15.4301   25.1179    0.7002 C   0  0  0  0  0  0  0  0  0  0  0  0
   15.8485   23.6895    0.3898 C   0  0  0  0  0  0  0  0  0  0  0  0
   17.1840   23.4584    1.1521 C   0  0  0  0  0  0  0  0  0  0  0  0
   15.6394   24.6777   -2.9421 C   0  0  0  0  0  0  0  0  0  0  0  0
   15.6689   25.4929   -4.1445 C   0  0  0  0  0  0  0  0  0  0  0  0
   15.9991   26.8426   -4.0477 C   0  0  0  0  0  0  0  0  0  0  0  0
   16.0303   27.6458   -5.1541 C   0  0  0  0  0  0  0  0  0  0  0  0
   15.7296   27.1509   -6.4227 C   0  0  0  0  0  0  0  0  0  0  0  0
   15.4021   25.8219   -6.5199 C   0  0  0  0  0  0  0  0  0  0  0  0
   15.3727   24.9977   -5.3854 C   0  0  0  0  0  0  0  0  0  0  0  0
   10.8581   24.6850   -1.3587 C   0  0  0  0  0  0  0  0  0  0  0  0
   10.3213   24.2116   -0.0344 C   0  0  0  0  0  0  0  0  0  0  0  0
   10.6596   24.7850    1.1501 C   0  0  0  0  0  0  0  0  0  0  0  0
   10.0495   24.4697    2.3570 C   0  0  0  0  0  0  0  0  0  0  0  0
    9.0222   23.5033    2.3825 C   0  0  0  0  0  0  0  0  0  0  0  0
    8.3686   23.2399    3.5204 N   0  0  0  0  0  0  0  0  0  0  0  0
    8.7736   23.9188    4.7532 C   0  0  0  0  0  0  0  0  0  0  0  0
    7.3205   22.3667    3.5859 C   0  0  0  0  0  0  0  0  0  0  0  0
    6.7562   22.1772    4.6961 O   0  0  0  0  0  0  0  0  0  0  0  0
    6.9568   21.7504    2.4165 C   0  0  0  0  0  0  0  0  0  0  0  0
    7.6481   22.0294    1.2088 C   0  0  0  0  0  0  0  0  0  0  0  0
    7.2805   21.4114    0.0476 O   0  0  0  0  0  0  0  0  0  0  0  0
    8.7026   22.9259    1.1851 C   0  0  0  0  0  0  0  0  0  0  0  0
    9.3159   23.2485   -0.0130 C   0  0  0  0  0  0  0  0  0  0  0  0
    7.6279   21.4742   -0.8540 H   0  0  0  0  0  0  0  0  0  0  0  0
    5.9395   20.7660    2.3533 C   0  0  0  0  0  0  0  0  0  0  0  0
    4.9423   20.9750    1.5268 O   0  0  0  0  0  0  0  0  0  0  0  0
    5.7949   19.5522    3.0529 N   0  0  0  0  0  0  0  0  0  0  0  0
    6.4887   19.2841    3.7754 H   0  0  0  0  0  0  0  0  0  0  0  0
    4.6688   18.6738    2.7710 C   0  0  0  0  0  0  0  0  0  0  0  0
    5.0861   17.3934    2.2195 C   0  0  0  0  0  0  0  0  0  0  0  0
    6.0050   17.3503    1.1472 O   0  0  0  0  0  0  0  0  0  0  0  0
    4.6994   16.2734    2.6147 O   0  0  0  0  0  0  0  0  0  0  0  0
    5.9804   18.1723    0.5174 H   0  0  0  0  0  0  0  0  0  0  0  0
 20 21  1  0  0  0
 21 22  1  0  0  0
 21 19  1  0  0  0
 19 10  1  0  0  0
 10 11  1  0  0  0
 11 12  1  0  0  0
 12 13  2  0  0  0
 12 15  1  0  0  0
 15 16  1  0  0  0
 15 17  1  0  0  0
 15 18  1  0  0  0
 10  6  1  0  0  0
  6  7  2  0  0  0
  6  8  1  0  0  0
  8  5  1  0  0  0
  5 23  1  0  0  0
 23 24  1  0  0  0
 24 25  2  0  0  0
 25 26  1  0  0  0
 26 27  2  0  0  0
 27 28  1  0  0  0
 28 29  2  0  0  0
  5  1  1  0  0  0
  1  2  2  0  0  0
  1  3  1  0  0  0
  3 30  1  0  0  0
 30 31  1  0  0  0
 31 32  2  0  0  0
 32 33  1  0  0  0
 33 34  2  0  0  0
 34 35  1  0  0  0
 35 36  1  0  0  0
 35 37  1  0  0  0
 37 38  2  0  0  0
 37 39  1  0  0  0
 39 45  1  0  0  0
 45 46  2  0  0  0
 45 47  1  0  0  0
 47 49  1  0  0  0
 49 50  1  0  0  0
 50 51  1  0  0  0
 50 52  2  0  0  0
 39 40  2  0  0  0
 40 41  1  0  0  0
 40 42  1  0  0  0
 42 43  2  0  0  0
 29 24  1  0  0  0
 43 31  1  0  0  0
 42 34  1  0  0  0
 11 14  1  0  0  0
  8  9  1  0  0  0
  3  4  1  0  0  0
 47 48  1  0  0  0
 51 53  1  0  0  0
 41 44  1  0  0  0
M  END
> <minimizedAffinity>
-8.04593

> <CNNscore>
0.3100416362

> <CNNaffinity>
7.5802640915

> <CNN_VS>
2.3501975536

> <CNNaffinity_variance>
0.2371669561

$$$$
[H]OC(=O)C([H])([H])N([H])C(=O)c1c(O[H])c2c([H])c(C([H])([H])N([H])C(=O)[C@]([H])(N([H])C(=O)[C@]([H])(N([H])C(=O)C(C([H])([H])[H])(C([H])([H])[H])C([H])([H])[H])C([H])([H])C([H])(C([H])([H])[H])C([H])([H])[H])C([H])([H])c3c([H])c([H])c([H])c([H])c3[H])c([H])c([H])c2n(C([H])([H])[H])c1=O


 53 55  0  0  0  0  0  0  0  0999 V2000
   14.0323   20.7993    0.9063 C   0  0  0  0  0  0  0  0  0  0  0  0
   14.8549   19.8577    0.8218 O   0  0  0  0  0  0  0  0  0  0  0  0
   13.0045   20.8299    1.8671 N   0  0  0  0  0  0  0  0  0  0  0  0
   12.3532   21.6481    1.8605 H   0  0  0  0  0  0  0  0  0  0  0  0
   14.2269   21.9554   -0.0945 C   0  0  0  0  0  0  0  0  0  0  0  0
   11.9902   23.4996    0.1178 C   0  0  0  0  0  0  0  0  0  0  0  0
   10.8168   22.9568    0.0008 O   0  0  0  0  0  0  0  0  0  0  0  0
   13.1550   22.8397    0.0368 N   0  0  0  0  0  0  0  0  0  0  0  0
   12.3879   21.6586   -0.1726 H   0  0  0  0  0  0  0  0  0  0  0  0
   11.7836   24.9982    0.3634 C   0  0  0  0  0  0  0  0  0  0  0  0
   10.4933   25.1422    1.0124 N   0  0  0  0  0  0  0  0  0  0  0  0
   10.0613   24.5247    2.1870 C   0  0  0  0  0  0  0  0  0  0  0  0
   10.7927   23.7710    2.8453 O   0  0  0  0  0  0  0  0  0  0  0  0
    9.8072   25.7968    0.5276 H   0  0  0  0  0  0  0  0  0  0  0  0
    8.6669   24.7343    2.7130 C   0  0  0  0  0  0  0  0  0  0  0  0
    8.4969   24.0746    4.0573 C   0  0  0  0  0  0  0  0  0  0  0  0
    8.2831   26.1708    2.7916 C   0  0  0  0  0  0  0  0  0  0  0  0
    7.6917   24.0484    1.7220 C   0  0  0  0  0  0  0  0  0  0  0  0
   11.5290   25.5080   -1.0948 C   0  0  0  0  0  0  0  0  0  0  0  0
   12.5870   26.2945   -3.1408 C   0  0  0  0  0  0  0  0  0  0  0  0
   12.7445   25.3692   -1.9446 C   0  0  0  0  0  0  0  0  0  0  0  0
   13.9293   25.9393   -1.1143 C   0  0  0  0  0  0  0  0  0  0  0  0
   14.8358   21.5669   -1.3595 C   0  0  0  0  0  0  0  0  0  0  0  0
   15.2244   22.5429   -2.3632 C   0  0  0  0  0  0  0  0  0  0  0  0
   15.9151   23.6877   -1.9725 C   0  0  0  0  0  0  0  0  0  0  0  0
   16.2918   24.6343   -2.8847 C   0  0  0  0  0  0  0  0  0  0  0  0
   15.9977   24.4971   -4.2410 C   0  0  0  0  0  0  0  0  0  0  0  0
   15.3156   23.3710   -4.6277 C   0  0  0  0  0  0  0  0  0  0  0  0
   14.9316   22.3990   -3.6923 C   0  0  0  0  0  0  0  0  0  0  0  0
   12.7677   19.8055    2.8732 C   0  0  0  0  0  0  0  0  0  0  0  0
   11.3675   19.9632    3.4032 C   0  0  0  0  0  0  0  0  0  0  0  0
   11.0915   20.1692    4.7176 C   0  0  0  0  0  0  0  0  0  0  0  0
    9.8256   20.4803    5.1960 C   0  0  0  0  0  0  0  0  0  0  0  0
    8.7502   20.5915    4.2898 C   0  0  0  0  0  0  0  0  0  0  0  0
    7.5390   20.9654    4.7192 N   0  0  0  0  0  0  0  0  0  0  0  0
    7.3251   21.1960    6.1495 C   0  0  0  0  0  0  0  0  0  0  0  0
    6.4821   21.1569    3.8755 C   0  0  0  0  0  0  0  0  0  0  0  0
    5.3750   21.5128    4.3599 O   0  0  0  0  0  0  0  0  0  0  0  0
    6.7109   20.9417    2.5410 C   0  0  0  0  0  0  0  0  0  0  0  0
    7.9951   20.5463    2.0840 C   0  0  0  0  0  0  0  0  0  0  0  0
    8.2157   20.3333    0.7530 O   0  0  0  0  0  0  0  0  0  0  0  0
    9.0413   20.3681    2.9727 C   0  0  0  0  0  0  0  0  0  0  0  0
   10.3074   20.0602    2.5058 C   0  0  0  0  0  0  0  0  0  0  0  0
    9.0083   20.0649    0.2659 H   0  0  0  0  0  0  0  0  0  0  0  0
    5.6879   21.0280    1.5644 C   0  0  0  0  0  0  0  0  0  0  0  0
    4.4633   20.7450    1.9407 O   0  0  0  0  0  0  0  0  0  0  0  0
    5.7508   21.3718    0.2001 N   0  0  0  0  0  0  0  0  0  0  0  0
    6.6668   21.5726   -0.2425 H   0  0  0  0  0  0  0  0  0  0  0  0
    4.5335   21.4389   -0.5955 C   0  0  0  0  0  0  0  0  0  0  0  0
    4.7898   21.2826   -2.0194 C   0  0  0  0  0  0  0  0  0  0  0  0
    5.9450   20.5987   -2.4597 O   0  0  0  0  0  0  0  0  0  0  0  0
    4.0594   21.7092   -2.9384 O   0  0  0  0  0  0  0  0  0  0  0  0
    6.7557   20.6517   -1.8172 H   0  0  0  0  0  0  0  0  0  0  0  0
 20 21  1  0  0  0
 21 22  1  0  0  0
 21 19  1  0  0  0
 19 10  1  0  0  0
 10 11  1  0  0  0
 11 12  1  0  0  0
 12 13  2  0  0  0
 12 15  1  0  0  0
 15 16  1  0  0  0
 15 17  1  0  0  0
 15 18  1  0  0  0
 10  6  1  0  0  0
  6  7  2  0  0  0
  6  8  1  0  0  0
  8  5  1  0  0  0
  5 23  1  0  0  0
 23 24  1  0  0  0
 24 25  2  0  0  0
 25 26  1  0  0  0
 26 27  2  0  0  0
 27 28  1  0  0  0
 28 29  2  0  0  0
  5  1  1  0  0  0
  1  2  2  0  0  0
  1  3  1  0  0  0
  3 30  1  0  0  0
 30 31  1  0  0  0
 31 32  2  0  0  0
 32 33  1  0  0  0
 33 34  2  0  0  0
 34 35  1  0  0  0
 35 36  1  0  0  0
 35 37  1  0  0  0
 37 38  2  0  0  0
 37 39  1  0  0  0
 39 45  1  0  0  0
 45 46  2  0  0  0
 45 47  1  0  0  0
 47 49  1  0  0  0
 49 50  1  0  0  0
 50 51  1  0  0  0
 50 52  2  0  0  0
 39 40  2  0  0  0
 40 41  1  0  0  0
 40 42  1  0  0  0
 42 43  2  0  0  0
 29 24  1  0  0  0
 43 31  1  0  0  0
 42 34  1  0  0  0
 11 14  1  0  0  0
  8  9  1  0  0  0
  3  4  1  0  0  0
 47 48  1  0  0  0
 51 53  1  0  0  0
 41 44  1  0  0  0
M  END
> <minimizedAffinity>
-2.65723

> <CNNscore>
0.2958054245

> <CNNaffinity>
7.3017859459

> <CNN_VS>
2.1599078178

> <CNNaffinity_variance>
0.4198521674

$$$$
[H]OC(=O)C([H])([H])N([H])C(=O)c1c(O[H])c2c([H])c(C([H])([H])N([H])C(=O)[C@]([H])(N([H])C(=O)[C@]([H])(N([H])C(=O)C(C([H])([H])[H])(C([H])([H])[H])C([H])([H])[H])C([H])([H])C([H])(C([H])([H])[H])C([H])([H])[H])C([H])([H])c3c([H])c([H])c([H])c([H])c3[H])c([H])c([H])c2n(C([H])([H])[H])c1=O


 53 55  0  0  0  0  0  0  0  0999 V2000
    8.1920   22.6594    1.8550 C   0  0  0  0  0  0  0  0  0  0  0  0
    7.5547   23.1170    2.8322 O   0  0  0  0  0  0  0  0  0  0  0  0
    7.8017   22.8773    0.5207 N   0  0  0  0  0  0  0  0  0  0  0  0
    8.3837   22.4489   -0.2353 H   0  0  0  0  0  0  0  0  0  0  0  0
    9.4634   21.8575    2.1962 C   0  0  0  0  0  0  0  0  0  0  0  0
   10.1103   20.0310    0.2783 C   0  0  0  0  0  0  0  0  0  0  0  0
   10.7030   18.9254    0.6126 O   0  0  0  0  0  0  0  0  0  0  0  0
    9.7416   20.9958    1.1339 N   0  0  0  0  0  0  0  0  0  0  0  0
   10.2778   20.1805    2.1708 H   0  0  0  0  0  0  0  0  0  0  0  0
    9.9189   20.0112   -1.2421 C   0  0  0  0  0  0  0  0  0  0  0  0
   10.7411   21.0787   -1.7816 N   0  0  0  0  0  0  0  0  0  0  0  0
   11.3500   21.1285   -3.0363 C   0  0  0  0  0  0  0  0  0  0  0  0
   11.2147   20.2244   -3.8733 O   0  0  0  0  0  0  0  0  0  0  0  0
   10.8886   21.9137   -1.1371 H   0  0  0  0  0  0  0  0  0  0  0  0
   12.2212   22.2885   -3.4369 C   0  0  0  0  0  0  0  0  0  0  0  0
   11.8815   23.5164   -2.6319 C   0  0  0  0  0  0  0  0  0  0  0  0
   13.6760   21.9891   -3.3311 C   0  0  0  0  0  0  0  0  0  0  0  0
   11.9200   22.5997   -4.9255 C   0  0  0  0  0  0  0  0  0  0  0  0
    8.4589   20.5625   -1.3670 C   0  0  0  0  0  0  0  0  0  0  0  0
    8.2017   18.1442   -1.4669 C   0  0  0  0  0  0  0  0  0  0  0  0
    7.4826   19.4721   -1.6441 C   0  0  0  0  0  0  0  0  0  0  0  0
    6.4173   19.5374   -0.5132 C   0  0  0  0  0  0  0  0  0  0  0  0
    9.6054   21.5155    3.6050 C   0  0  0  0  0  0  0  0  0  0  0  0
    9.2649   20.2003    4.1201 C   0  0  0  0  0  0  0  0  0  0  0  0
    8.4205   19.3743    3.3817 C   0  0  0  0  0  0  0  0  0  0  0  0
    8.0693   18.1328    3.8350 C   0  0  0  0  0  0  0  0  0  0  0  0
    8.5363   17.6431    5.0543 C   0  0  0  0  0  0  0  0  0  0  0  0
    9.3666   18.4560    5.7841 C   0  0  0  0  0  0  0  0  0  0  0  0
    9.7289   19.7282    5.3179 C   0  0  0  0  0  0  0  0  0  0  0  0
    6.6417   23.6505    0.1029 C   0  0  0  0  0  0  0  0  0  0  0  0
    7.1018   25.0180   -0.3267 C   0  0  0  0  0  0  0  0  0  0  0  0
    6.4127   26.1544   -0.0438 C   0  0  0  0  0  0  0  0  0  0  0  0
    6.9042   27.4302   -0.2868 C   0  0  0  0  0  0  0  0  0  0  0  0
    8.1840   27.5821   -0.8605 C   0  0  0  0  0  0  0  0  0  0  0  0
    8.7085   28.8014   -1.0323 N   0  0  0  0  0  0  0  0  0  0  0  0
    7.9143   29.9797   -0.6781 C   0  0  0  0  0  0  0  0  0  0  0  0
    9.9696   29.0023   -1.5166 C   0  0  0  0  0  0  0  0  0  0  0  0
   10.3901   30.1828   -1.6450 O   0  0  0  0  0  0  0  0  0  0  0  0
   10.6946   27.8826   -1.8334 C   0  0  0  0  0  0  0  0  0  0  0  0
   10.1403   26.5889   -1.6506 C   0  0  0  0  0  0  0  0  0  0  0  0
   10.8683   25.4778   -1.9687 O   0  0  0  0  0  0  0  0  0  0  0  0
    8.8590   26.4293   -1.1517 C   0  0  0  0  0  0  0  0  0  0  0  0
    8.3607   25.1621   -0.9038 C   0  0  0  0  0  0  0  0  0  0  0  0
   10.6607   24.5337   -1.9136 H   0  0  0  0  0  0  0  0  0  0  0  0
   11.9846   27.9445   -2.4163 C   0  0  0  0  0  0  0  0  0  0  0  0
   12.8142   28.8532   -1.9610 O   0  0  0  0  0  0  0  0  0  0  0  0
   12.5618   27.1772   -3.4467 N   0  0  0  0  0  0  0  0  0  0  0  0
   11.9997   26.4528   -3.9311 H   0  0  0  0  0  0  0  0  0  0  0  0
   13.9449   27.4022   -3.8410 C   0  0  0  0  0  0  0  0  0  0  0  0
   14.0737   27.7422   -5.2501 C   0  0  0  0  0  0  0  0  0  0  0  0
   15.0282   28.6986   -5.6630 O   0  0  0  0  0  0  0  0  0  0  0  0
   13.3970   27.2524   -6.1786 O   0  0  0  0  0  0  0  0  0  0  0  0
   15.2510   29.4255   -4.9596 H   0  0  0  0  0  0  0  0  0  0  0  0
 20 21  1  0  0  0
 21 22  1  0  0  0
 21 19  1  0  0  0
 19 10  1  0  0  0
 10 11  1  0  0  0
 11 12  1  0  0  0
 12 13  2  0  0  0
 12 15  1  0  0  0
 15 16  1  0  0  0
 15 17  1  0  0  0
 15 18  1  0  0  0
 10  6  1  0  0  0
  6  7  2  0  0  0
  6  8  1  0  0  0
  8  5  1  0  0  0
  5 23  1  0  0  0
 23 24  1  0  0  0
 24 25  2  0  0  0
 25 26  1  0  0  0
 26 27  2  0  0  0
 27 28  1  0  0  0
 28 29  2  0  0  0
  5  1  1  0  0  0
  1  2  2  0  0  0
  1  3  1  0  0  0
  3 30  1  0  0  0
 30 31  1  0  0  0
 31 32  2  0  0  0
 32 33  1  0  0  0
 33 34  2  0  0  0
 34 35  1  0  0  0
 35 36  1  0  0  0
 35 37  1  0  0  0
 37 38  2  0  0  0
 37 39  1  0  0  0
 39 45  1  0  0  0
 45 46  2  0  0  0
 45 47  1  0  0  0
 47 49  1  0  0  0
 49 50  1  0  0  0
 50 51  1  0  0  0
 50 52  2  0  0  0
 39 40  2  0  0  0
 40 41  1  0  0  0
 40 42  1  0  0  0
 42 43  2  0  0  0
 29 24  1  0  0  0
 43 31  1  0  0  0
 42 34  1  0  0  0
 11 14  1  0  0  0
  8  9  1  0  0  0
  3  4  1  0  0  0
 47 48  1  0  0  0
 51 53  1  0  0  0
 41 44  1  0  0  0
M  END
> <minimizedAffinity>
129.02748

> <CNNscore>
0.1945194602

> <CNNaffinity>
5.1617674828

> <CNN_VS>
1.0040642023

> <CNNaffinity_variance>
2.8255996704

$$$$
[H]OC(=O)C([H])([H])N([H])C(=O)c1c(O[H])c2c([H])c(C([H])([H])N([H])C(=O)[C@]([H])(N([H])C(=O)[C@]([H])(N([H])C(=O)C(C([H])([H])[H])(C([H])([H])[H])C([H])([H])[H])C([H])([H])C([H])(C([H])([H])[H])C([H])([H])[H])C([H])([H])c3c([H])c([H])c([H])c([H])c3[H])c([H])c([H])c2n(C([H])([H])[H])c1=O


 53 55  0  0  0  0  0  0  0  0999 V2000
   13.4843   24.8701   -1.8221 C   0  0  0  0  0  0  0  0  0  0  0  0
   12.9956   25.7108   -2.6126 O   0  0  0  0  0  0  0  0  0  0  0  0
   13.1373   24.8133   -0.4595 N   0  0  0  0  0  0  0  0  0  0  0  0
   13.6017   24.0876    0.1335 H   0  0  0  0  0  0  0  0  0  0  0  0
   14.4792   23.8662   -2.4373 C   0  0  0  0  0  0  0  0  0  0  0  0
   14.2332   21.4642   -1.1713 C   0  0  0  0  0  0  0  0  0  0  0  0
   13.5597   20.5053   -1.7301 O   0  0  0  0  0  0  0  0  0  0  0  0
   14.4240   22.6812   -1.7017 N   0  0  0  0  0  0  0  0  0  0  0  0
   13.6572   22.2361   -2.8158 H   0  0  0  0  0  0  0  0  0  0  0  0
   14.7535   20.9415    0.1721 C   0  0  0  0  0  0  0  0  0  0  0  0
   13.6242   20.3313    0.8497 N   0  0  0  0  0  0  0  0  0  0  0  0
   12.7073   20.9534    1.6982 C   0  0  0  0  0  0  0  0  0  0  0  0
   12.7540   22.1668    1.9465 O   0  0  0  0  0  0  0  0  0  0  0  0
   13.4905   19.2900    0.6705 H   0  0  0  0  0  0  0  0  0  0  0  0
   11.6114   20.1725    2.3720 C   0  0  0  0  0  0  0  0  0  0  0  0
   10.6398   19.6280    1.3568 C   0  0  0  0  0  0  0  0  0  0  0  0
   12.1246   19.0732    3.2354 C   0  0  0  0  0  0  0  0  0  0  0  0
   10.8385   21.1569    3.2870 C   0  0  0  0  0  0  0  0  0  0  0  0
   14.9769   22.2824    0.9486 C   0  0  0  0  0  0  0  0  0  0  0  0
   17.1218   21.1368    1.0545 C   0  0  0  0  0  0  0  0  0  0  0  0
   16.3578   22.3735    1.5000 C   0  0  0  0  0  0  0  0  0  0  0  0
   17.0374   23.5773    0.7879 C   0  0  0  0  0  0  0  0  0  0  0  0
   15.6992   24.4649   -2.9617 C   0  0  0  0  0  0  0  0  0  0  0  0
   15.6807   25.4484   -4.0310 C   0  0  0  0  0  0  0  0  0  0  0  0
   15.2833   25.0618   -5.3089 C   0  0  0  0  0  0  0  0  0  0  0  0
   15.2597   25.9548   -6.3443 C   0  0  0  0  0  0  0  0  0  0  0  0
   15.6354   27.2861   -6.1673 C   0  0  0  0  0  0  0  0  0  0  0  0
   16.0290   27.6685   -4.9097 C   0  0  0  0  0  0  0  0  0  0  0  0
   16.0507   26.7531   -3.8472 C   0  0  0  0  0  0  0  0  0  0  0  0
   12.1827   25.6922    0.1992 C   0  0  0  0  0  0  0  0  0  0  0  0
   11.1015   24.8505    0.8229 C   0  0  0  0  0  0  0  0  0  0  0  0
   10.5068   25.1640    2.0037 C   0  0  0  0  0  0  0  0  0  0  0  0
    9.4003   24.4930    2.5073 C   0  0  0  0  0  0  0  0  0  0  0  0
    8.8462   23.4226    1.7744 C   0  0  0  0  0  0  0  0  0  0  0  0
    7.7347   22.8123    2.2030 N   0  0  0  0  0  0  0  0  0  0  0  0
    7.1353   23.2245    3.4739 C   0  0  0  0  0  0  0  0  0  0  0  0
    7.1175   21.8193    1.4971 C   0  0  0  0  0  0  0  0  0  0  0  0
    6.0720   21.2984    1.9688 O   0  0  0  0  0  0  0  0  0  0  0  0
    7.6946   21.4576    0.3073 C   0  0  0  0  0  0  0  0  0  0  0  0
    8.8726   22.1045   -0.1491 C   0  0  0  0  0  0  0  0  0  0  0  0
    9.4423   21.7387   -1.3353 O   0  0  0  0  0  0  0  0  0  0  0  0
    9.4639   23.1107    0.5952 C   0  0  0  0  0  0  0  0  0  0  0  0
   10.5657   23.7872    0.1011 C   0  0  0  0  0  0  0  0  0  0  0  0
   10.2299   22.0596   -1.7982 H   0  0  0  0  0  0  0  0  0  0  0  0
    7.2058   20.3923   -0.4890 C   0  0  0  0  0  0  0  0  0  0  0  0
    7.3111   19.1762   -0.0080 O   0  0  0  0  0  0  0  0  0  0  0  0
    6.6062   20.4018   -1.7634 N   0  0  0  0  0  0  0  0  0  0  0  0
    6.5045   21.2939   -2.2821 H   0  0  0  0  0  0  0  0  0  0  0  0
    6.1346   19.1607   -2.3605 C   0  0  0  0  0  0  0  0  0  0  0  0
    4.7250   18.9155   -2.0945 C   0  0  0  0  0  0  0  0  0  0  0  0
    3.7504   19.8378   -2.5368 O   0  0  0  0  0  0  0  0  0  0  0  0
    4.2635   17.9262   -1.4878 O   0  0  0  0  0  0  0  0  0  0  0  0
    4.0750   20.8193   -2.6012 H   0  0  0  0  0  0  0  0  0  0  0  0
 20 21  1  0  0  0
 21 22  1  0  0  0
 21 19  1  0  0  0
 19 10  1  0  0  0
 10 11  1  0  0  0
 11 12  1  0  0  0
 12 13  2  0  0  0
 12 15  1  0  0  0
 15 16  1  0  0  0
 15 17  1  0  0  0
 15 18  1  0  0  0
 10  6  1  0  0  0
  6  7  2  0  0  0
  6  8  1  0  0  0
  8  5  1  0  0  0
  5 23  1  0  0  0
 23 24  1  0  0  0
 24 25  2  0  0  0
 25 26  1  0  0  0
 26 27  2  0  0  0
 27 28  1  0  0  0
 28 29  2  0  0  0
  5  1  1  0  0  0
  1  2  2  0  0  0
  1  3  1  0  0  0
  3 30  1  0  0  0
 30 31  1  0  0  0
 31 32  2  0  0  0
 32 33  1  0  0  0
 33 34  2  0  0  0
 34 35  1  0  0  0
 35 36  1  0  0  0
 35 37  1  0  0  0
 37 38  2  0  0  0
 37 39  1  0  0  0
 39 45  1  0  0  0
 45 46  2  0  0  0
 45 47  1  0  0  0
 47 49  1  0  0  0
 49 50  1  0  0  0
 50 51  1  0  0  0
 50 52  2  0  0  0
 39 40  2  0  0  0
 40 41  1  0  0  0
 40 42  1  0  0  0
 42 43  2  0  0  0
 29 24  1  0  0  0
 43 31  1  0  0  0
 42 34  1  0  0  0
 11 14  1  0  0  0
  8  9  1  0  0  0
  3  4  1  0  0  0
 47 48  1  0  0  0
 51 53  1  0  0  0
 41 44  1  0  0  0
M  END
> <minimizedAffinity>
-6.97392

> <CNNscore>
0.1762807369

> <CNNaffinity>
7.5905141830

> <CNN_VS>
1.3380614519

> <CNNaffinity_variance>
0.1187716573

$$$$
[H]OC(=O)C([H])([H])N([H])C(=O)c1c(O[H])c2c([H])c(C([H])([H])N([H])C(=O)[C@]([H])(N([H])C(=O)[C@]([H])(N([H])C(=O)C(C([H])([H])[H])(C([H])([H])[H])C([H])([H])[H])C([H])([H])C([H])(C([H])([H])[H])C([H])([H])[H])C([H])([H])c3c([H])c([H])c([H])c([H])c3[H])c([H])c([H])c2n(C([H])([H])[H])c1=O


 53 55  0  0  0  0  0  0  0  0999 V2000
   11.2660   20.9674    4.0745 C   0  0  0  0  0  0  0  0  0  0  0  0
   11.7860   19.8628    4.3573 O   0  0  0  0  0  0  0  0  0  0  0  0
   10.2979   21.5848    4.8882 N   0  0  0  0  0  0  0  0  0  0  0  0
    9.9061   22.5015    4.5720 H   0  0  0  0  0  0  0  0  0  0  0  0
   11.7725   21.6392    2.7830 C   0  0  0  0  0  0  0  0  0  0  0  0
   10.1570   23.6998    2.0235 C   0  0  0  0  0  0  0  0  0  0  0  0
   10.6754   24.8538    1.7324 O   0  0  0  0  0  0  0  0  0  0  0  0
   10.8522   22.6174    2.4026 N   0  0  0  0  0  0  0  0  0  0  0  0
   12.0248   23.4143    2.2716 H   0  0  0  0  0  0  0  0  0  0  0  0
    8.6391   23.8179    1.8486 C   0  0  0  0  0  0  0  0  0  0  0  0
    8.0758   23.9790    3.1766 N   0  0  0  0  0  0  0  0  0  0  0  0
    7.5548   25.1441    3.7411 C   0  0  0  0  0  0  0  0  0  0  0  0
    7.4917   26.2115    3.1143 O   0  0  0  0  0  0  0  0  0  0  0  0
    8.0639   23.1007    3.7788 H   0  0  0  0  0  0  0  0  0  0  0  0
    7.0495   25.1676    5.1585 C   0  0  0  0  0  0  0  0  0  0  0  0
    7.7926   26.1934    5.9750 C   0  0  0  0  0  0  0  0  0  0  0  0
    5.5817   25.4006    5.2505 C   0  0  0  0  0  0  0  0  0  0  0  0
    7.3362   23.7739    5.7741 C   0  0  0  0  0  0  0  0  0  0  0  0
    8.2675   22.3477    1.4594 C   0  0  0  0  0  0  0  0  0  0  0  0
    8.7270   20.8711   -0.4202 C   0  0  0  0  0  0  0  0  0  0  0  0
    8.1007   22.1954   -0.0130 C   0  0  0  0  0  0  0  0  0  0  0  0
    6.5744   22.0451   -0.2697 C   0  0  0  0  0  0  0  0  0  0  0  0
   12.4644   20.7448    1.8648 C   0  0  0  0  0  0  0  0  0  0  0  0
   13.0992   21.2240    0.6489 C   0  0  0  0  0  0  0  0  0  0  0  0
   12.8672   20.5576   -0.5521 C   0  0  0  0  0  0  0  0  0  0  0  0
   13.4517   20.9717   -1.7169 C   0  0  0  0  0  0  0  0  0  0  0  0
   14.3063   22.0732   -1.7521 C   0  0  0  0  0  0  0  0  0  0  0  0
   14.5377   22.7299   -0.5697 C   0  0  0  0  0  0  0  0  0  0  0  0
   13.9361   22.3066    0.6245 C   0  0  0  0  0  0  0  0  0  0  0  0
    9.7884   21.0455    6.1400 C   0  0  0  0  0  0  0  0  0  0  0  0
    8.7754   19.9763    5.8288 C   0  0  0  0  0  0  0  0  0  0  0  0
    8.3793   19.0444    6.7350 C   0  0  0  0  0  0  0  0  0  0  0  0
    7.3310   18.1600    6.5176 C   0  0  0  0  0  0  0  0  0  0  0  0
    6.6249   18.2088    5.2973 C   0  0  0  0  0  0  0  0  0  0  0  0
    5.5634   17.4185    5.0974 N   0  0  0  0  0  0  0  0  0  0  0  0
    5.1807   16.4566    6.1332 C   0  0  0  0  0  0  0  0  0  0  0  0
    4.8025   17.4750    3.9646 C   0  0  0  0  0  0  0  0  0  0  0  0
    3.8167   16.6983    3.8556 O   0  0  0  0  0  0  0  0  0  0  0  0
    5.1778   18.3890    3.0141 C   0  0  0  0  0  0  0  0  0  0  0  0
    6.3025   19.2286    3.2252 C   0  0  0  0  0  0  0  0  0  0  0  0
    6.6708   20.1367    2.2737 O   0  0  0  0  0  0  0  0  0  0  0  0
    7.0441   19.1425    4.3908 C   0  0  0  0  0  0  0  0  0  0  0  0
    8.0894   20.0208    4.6180 C   0  0  0  0  0  0  0  0  0  0  0  0
    7.3940   20.7797    2.2420 H   0  0  0  0  0  0  0  0  0  0  0  0
    4.5269   18.5022    1.7606 C   0  0  0  0  0  0  0  0  0  0  0  0
    3.7540   17.5106    1.3856 O   0  0  0  0  0  0  0  0  0  0  0  0
    4.5658   19.5294    0.7979 N   0  0  0  0  0  0  0  0  0  0  0  0
    5.1770   20.3543    0.9440 H   0  0  0  0  0  0  0  0  0  0  0  0
    3.7557   19.4346   -0.4080 C   0  0  0  0  0  0  0  0  0  0  0  0
    4.5492   19.1287   -1.5889 C   0  0  0  0  0  0  0  0  0  0  0  0
    4.0703   19.4744   -2.8723 O   0  0  0  0  0  0  0  0  0  0  0  0
    5.6645   18.5664   -1.5870 O   0  0  0  0  0  0  0  0  0  0  0  0
    3.0387   19.4909   -2.9640 H   0  0  0  0  0  0  0  0  0  0  0  0
 20 21  1  0  0  0
 21 22  1  0  0  0
 21 19  1  0  0  0
 19 10  1  0  0  0
 10 11  1  0  0  0
 11 12  1  0  0  0
 12 13  2  0  0  0
 12 15  1  0  0  0
 15 16  1  0  0  0
 15 17  1  0  0  0
 15 18  1  0  0  0
 10  6  1  0  0  0
  6  7  2  0  0  0
  6  8  1  0  0  0
  8  5  1  0  0  0
  5 23  1  0  0  0
 23 24  1  0  0  0
 24 25  2  0  0  0
 25 26  1  0  0  0
 26 27  2  0  0  0
 27 28  1  0  0  0
 28 29  2  0  0  0
  5  1  1  0  0  0
  1  2  2  0  0  0
  1  3  1  0  0  0
  3 30  1  0  0  0
 30 31  1  0  0  0
 31 32  2  0  0  0
 32 33  1  0  0  0
 33 34  2  0  0  0
 34 35  1  0  0  0
 35 36  1  0  0  0
 35 37  1  0  0  0
 37 38  2  0  0  0
 37 39  1  0  0  0
 39 45  1  0  0  0
 45 46  2  0  0  0
 45 47  1  0  0  0
 47 49  1  0  0  0
 49 50  1  0  0  0
 50 51  1  0  0  0
 50 52  2  0  0  0
 39 40  2  0  0  0
 40 41  1  0  0  0
 40 42  1  0  0  0
 42 43  2  0  0  0
 29 24  1  0  0  0
 43 31  1  0  0  0
 42 34  1  0  0  0
 11 14  1  0  0  0
  8  9  1  0  0  0
  3  4  1  0  0  0
 47 48  1  0  0  0
 51 53  1  0  0  0
 41 44  1  0  0  0
M  END
> <minimizedAffinity>
-6.13451

> <CNNscore>
0.1428801715

> <CNNaffinity>
6.2811675072

> <CNN_VS>
0.8974542618

> <CNNaffinity_variance>
0.3531098962

$$$$
[H]OC(=O)C([H])([H])N([H])C(=O)c1c(O[H])c2c([H])c(C([H])([H])N([H])C(=O)[C@]([H])(N([H])C(=O)[C@]([H])(N([H])C(=O)C(C([H])([H])[H])(C([H])([H])[H])C([H])([H])[H])C([H])([H])C([H])(C([H])([H])[H])C([H])([H])[H])C([H])([H])c3c([H])c([H])c([H])c([H])c3[H])c([H])c([H])c2n(C([H])([H])[H])c1=O


 53 55  0  0  0  0  0  0  0  0999 V2000
    9.1474   22.0999    1.6510 C   0  0  0  0  0  0  0  0  0  0  0  0
    9.1448   21.0791    0.9241 O   0  0  0  0  0  0  0  0  0  0  0  0
    9.4704   23.3807    1.1656 N   0  0  0  0  0  0  0  0  0  0  0  0
    9.4600   24.1774    1.8431 H   0  0  0  0  0  0  0  0  0  0  0  0
    8.7427   21.8801    3.1221 C   0  0  0  0  0  0  0  0  0  0  0  0
    6.2720   20.7475    3.3358 C   0  0  0  0  0  0  0  0  0  0  0  0
    5.3815   21.2819    4.1147 O   0  0  0  0  0  0  0  0  0  0  0  0
    7.5136   21.2192    3.1490 N   0  0  0  0  0  0  0  0  0  0  0  0
    7.1769   22.2604    4.0599 H   0  0  0  0  0  0  0  0  0  0  0  0
    5.6384   19.5107    2.6897 C   0  0  0  0  0  0  0  0  0  0  0  0
    5.3863   19.8468    1.3003 N   0  0  0  0  0  0  0  0  0  0  0  0
    5.8938   19.2081    0.1680 C   0  0  0  0  0  0  0  0  0  0  0  0
    6.6296   18.2135    0.2437 O   0  0  0  0  0  0  0  0  0  0  0  0
    4.7385   20.6767    1.1399 H   0  0  0  0  0  0  0  0  0  0  0  0
    5.5808   19.7070   -1.2170 C   0  0  0  0  0  0  0  0  0  0  0  0
    4.8820   21.0410   -1.1604 C   0  0  0  0  0  0  0  0  0  0  0  0
    6.7827   19.7916   -2.0919 C   0  0  0  0  0  0  0  0  0  0  0  0
    4.6074   18.6893   -1.8653 C   0  0  0  0  0  0  0  0  0  0  0  0
    4.2159   19.5273    3.3435 C   0  0  0  0  0  0  0  0  0  0  0  0
    3.7480   17.2522    2.6158 C   0  0  0  0  0  0  0  0  0  0  0  0
    3.8167   18.1745    3.8227 C   0  0  0  0  0  0  0  0  0  0  0  0
    4.9928   17.6520    4.6955 C   0  0  0  0  0  0  0  0  0  0  0  0
    9.1300   22.9554    4.0251 C   0  0  0  0  0  0  0  0  0  0  0  0
    8.4384   24.2330    4.0484 C   0  0  0  0  0  0  0  0  0  0  0  0
    9.1679   25.4086    3.8867 C   0  0  0  0  0  0  0  0  0  0  0  0
    8.5561   26.6314    3.9105 C   0  0  0  0  0  0  0  0  0  0  0  0
    7.1801   26.7543    4.1014 C   0  0  0  0  0  0  0  0  0  0  0  0
    6.4600   25.5975    4.2629 C   0  0  0  0  0  0  0  0  0  0  0  0
    7.0872   24.3433    4.2359 C   0  0  0  0  0  0  0  0  0  0  0  0
    9.8266   23.6894   -0.2112 C   0  0  0  0  0  0  0  0  0  0  0  0
   11.2780   24.0863   -0.2575 C   0  0  0  0  0  0  0  0  0  0  0  0
   12.1714   23.7425    0.7069 C   0  0  0  0  0  0  0  0  0  0  0  0
   13.5389   23.9572    0.5974 C   0  0  0  0  0  0  0  0  0  0  0  0
   14.0538   24.5662   -0.5662 C   0  0  0  0  0  0  0  0  0  0  0  0
   15.3746   24.7128   -0.7257 N   0  0  0  0  0  0  0  0  0  0  0  0
   16.2773   24.2930    0.3483 C   0  0  0  0  0  0  0  0  0  0  0  0
   15.9292   25.2302   -1.8615 C   0  0  0  0  0  0  0  0  0  0  0  0
   17.1827   25.3315   -1.9337 O   0  0  0  0  0  0  0  0  0  0  0  0
   15.0627   25.6084   -2.8544 C   0  0  0  0  0  0  0  0  0  0  0  0
   13.6619   25.4525   -2.6872 C   0  0  0  0  0  0  0  0  0  0  0  0
   12.8046   25.8318   -3.6805 O   0  0  0  0  0  0  0  0  0  0  0  0
   13.1410   24.9185   -1.5212 C   0  0  0  0  0  0  0  0  0  0  0  0
   11.7796   24.6983   -1.4031 C   0  0  0  0  0  0  0  0  0  0  0  0
   11.8388   25.8026   -3.7445 H   0  0  0  0  0  0  0  0  0  0  0  0
   15.4942   26.2301   -4.0524 C   0  0  0  0  0  0  0  0  0  0  0  0
   16.4699   27.1029   -3.9666 O   0  0  0  0  0  0  0  0  0  0  0  0
   15.0410   26.0790   -5.3772 N   0  0  0  0  0  0  0  0  0  0  0  0
   14.2391   25.4545   -5.5831 H   0  0  0  0  0  0  0  0  0  0  0  0
   15.6897   26.8033   -6.4606 C   0  0  0  0  0  0  0  0  0  0  0  0
   15.8074   26.0051   -7.6718 C   0  0  0  0  0  0  0  0  0  0  0  0
   14.6599   25.4088   -8.2407 O   0  0  0  0  0  0  0  0  0  0  0  0
   16.8681   25.7819   -8.2924 O   0  0  0  0  0  0  0  0  0  0  0  0
   13.9111   25.1706   -7.5658 H   0  0  0  0  0  0  0  0  0  0  0  0
 20 21  1  0  0  0
 21 22  1  0  0  0
 21 19  1  0  0  0
 19 10  1  0  0  0
 10 11  1  0  0  0
 11 12  1  0  0  0
 12 13  2  0  0  0
 12 15  1  0  0  0
 15 16  1  0  0  0
 15 17  1  0  0  0
 15 18  1  0  0  0
 10  6  1  0  0  0
  6  7  2  0  0  0
  6  8  1  0  0  0
  8  5  1  0  0  0
  5 23  1  0  0  0
 23 24  1  0  0  0
 24 25  2  0  0  0
 25 26  1  0  0  0
 26 27  2  0  0  0
 27 28  1  0  0  0
 28 29  2  0  0  0
  5  1  1  0  0  0
  1  2  2  0  0  0
  1  3  1  0  0  0
  3 30  1  0  0  0
 30 31  1  0  0  0
 31 32  2  0  0  0
 32 33  1  0  0  0
 33 34  2  0  0  0
 34 35  1  0  0  0
 35 36  1  0  0  0
 35 37  1  0  0  0
 37 38  2  0  0  0
 37 39  1  0  0  0
 39 45  1  0  0  0
 45 46  2  0  0  0
 45 47  1  0  0  0
 47 49  1  0  0  0
 49 50  1  0  0  0
 50 51  1  0  0  0
 50 52  2  0  0  0
 39 40  2  0  0  0
 40 41  1  0  0  0
 40 42  1  0  0  0
 42 43  2  0  0  0
 29 24  1  0  0  0
 43 31  1  0  0  0
 42 34  1  0  0  0
 11 14  1  0  0  0
  8  9  1  0  0  0
  3  4  1  0  0  0
 47 48  1  0  0  0
 51 53  1  0  0  0
 41 44  1  0  0  0
M  END
> <minimizedAffinity>
-8.61542

> <CNNscore>
0.1177152619

> <CNNaffinity>
6.9586014748

> <CNN_VS>
0.8191335797

> <CNNaffinity_variance>
0.2840258777

$$$$
[H]OC(=O)C([H])([H])N([H])C(=O)c1c(O[H])c2c([H])c(C([H])([H])N([H])C(=O)[C@]([H])(N([H])C(=O)[C@]([H])(N([H])C(=O)C(C([H])([H])[H])(C([H])([H])[H])C([H])([H])[H])C([H])([H])C([H])(C([H])([H])[H])C([H])([H])[H])C([H])([H])c3c([H])c([H])c([H])c([H])c3[H])c([H])c([H])c2n(C([H])([H])[H])c1=O


 53 55  0  0  0  0  0  0  0  0999 V2000
    9.1864   21.4034    0.7214 C   0  0  0  0  0  0  0  0  0  0  0  0
    9.4904   20.5404    1.5777 O   0  0  0  0  0  0  0  0  0  0  0  0
    9.9841   21.6726   -0.4063 N   0  0  0  0  0  0  0  0  0  0  0  0
    9.6630   22.4181   -1.0657 H   0  0  0  0  0  0  0  0  0  0  0  0
    7.8561   22.1458    0.9564 C   0  0  0  0  0  0  0  0  0  0  0  0
    7.5923   22.1378    3.6699 C   0  0  0  0  0  0  0  0  0  0  0  0
    8.5482   21.6656    4.4106 O   0  0  0  0  0  0  0  0  0  0  0  0
    7.6144   22.1969    2.3302 N   0  0  0  0  0  0  0  0  0  0  0  0
    8.9093   21.6086    2.3981 H   0  0  0  0  0  0  0  0  0  0  0  0
    6.4706   22.6034    4.6045 C   0  0  0  0  0  0  0  0  0  0  0  0
    6.8962   23.8702    5.1710 N   0  0  0  0  0  0  0  0  0  0  0  0
    6.9874   25.1017    4.5211 C   0  0  0  0  0  0  0  0  0  0  0  0
    6.6657   25.2478    3.3330 O   0  0  0  0  0  0  0  0  0  0  0  0
    7.1666   23.8437    6.2008 H   0  0  0  0  0  0  0  0  0  0  0  0
    7.4980   26.3254    5.2331 C   0  0  0  0  0  0  0  0  0  0  0  0
    8.1557   25.9512    6.5364 C   0  0  0  0  0  0  0  0  0  0  0  0
    8.4277   27.1386    4.4015 C   0  0  0  0  0  0  0  0  0  0  0  0
    6.2711   27.2151    5.5599 C   0  0  0  0  0  0  0  0  0  0  0  0
    6.6282   21.5912    5.7885 C   0  0  0  0  0  0  0  0  0  0  0  0
    4.2588   21.8655    6.2729 C   0  0  0  0  0  0  0  0  0  0  0  0
    5.3640   20.8464    6.0455 C   0  0  0  0  0  0  0  0  0  0  0  0
    5.0071   20.1149    4.7205 C   0  0  0  0  0  0  0  0  0  0  0  0
    6.8401   21.9066   -0.0596 C   0  0  0  0  0  0  0  0  0  0  0  0
    6.3844   20.5692   -0.3983 C   0  0  0  0  0  0  0  0  0  0  0  0
    6.2712   20.2040   -1.7378 C   0  0  0  0  0  0  0  0  0  0  0  0
    5.8385   18.9580   -2.0987 C   0  0  0  0  0  0  0  0  0  0  0  0
    5.4887   18.0033   -1.1443 C   0  0  0  0  0  0  0  0  0  0  0  0
    5.5975   18.3616    0.1757 C   0  0  0  0  0  0  0  0  0  0  0  0
    6.0439   19.6388    0.5457 C   0  0  0  0  0  0  0  0  0  0  0  0
   11.2324   20.9981   -0.7296 C   0  0  0  0  0  0  0  0  0  0  0  0
   12.3658   21.9757   -0.5686 C   0  0  0  0  0  0  0  0  0  0  0  0
   13.1489   22.0261    0.5407 C   0  0  0  0  0  0  0  0  0  0  0  0
   14.2949   22.8045    0.6358 C   0  0  0  0  0  0  0  0  0  0  0  0
   14.6876   23.5971   -0.4631 C   0  0  0  0  0  0  0  0  0  0  0  0
   15.8289   24.2949   -0.4211 N   0  0  0  0  0  0  0  0  0  0  0  0
   16.6345   24.2784    0.8018 C   0  0  0  0  0  0  0  0  0  0  0  0
   16.2910   25.0210   -1.4815 C   0  0  0  0  0  0  0  0  0  0  0  0
   17.3773   25.6475   -1.3615 O   0  0  0  0  0  0  0  0  0  0  0  0
   15.5220   25.0136   -2.6165 C   0  0  0  0  0  0  0  0  0  0  0  0
   14.3120   24.2732   -2.6630 C   0  0  0  0  0  0  0  0  0  0  0  0
   13.5507   24.2708   -3.7970 O   0  0  0  0  0  0  0  0  0  0  0  0
   13.8820   23.5458   -1.5667 C   0  0  0  0  0  0  0  0  0  0  0  0
   12.7423   22.7650   -1.6520 C   0  0  0  0  0  0  0  0  0  0  0  0
   12.7129   23.8346   -4.0100 H   0  0  0  0  0  0  0  0  0  0  0  0
   15.8405   25.7829   -3.7630 C   0  0  0  0  0  0  0  0  0  0  0  0
   16.1662   25.1363   -4.8572 O   0  0  0  0  0  0  0  0  0  0  0  0
   15.8789   27.1785   -3.9478 N   0  0  0  0  0  0  0  0  0  0  0  0
   15.6899   27.8128   -3.1496 H   0  0  0  0  0  0  0  0  0  0  0  0
   16.1914   27.7361   -5.2558 C   0  0  0  0  0  0  0  0  0  0  0  0
   15.4048   27.1320   -6.3208 C   0  0  0  0  0  0  0  0  0  0  0  0
   16.0497   26.5689   -7.4447 O   0  0  0  0  0  0  0  0  0  0  0  0
   14.1586   27.0537   -6.3463 O   0  0  0  0  0  0  0  0  0  0  0  0
   16.9583   27.0018   -7.6896 H   0  0  0  0  0  0  0  0  0  0  0  0
 20 21  1  0  0  0
 21 22  1  0  0  0
 21 19  1  0  0  0
 19 10  1  0  0  0
 10 11  1  0  0  0
 11 12  1  0  0  0
 12 13  2  0  0  0
 12 15  1  0  0  0
 15 16  1  0  0  0
 15 17  1  0  0  0
 15 18  1  0  0  0
 10  6  1  0  0  0
  6  7  2  0  0  0
  6  8  1  0  0  0
  8  5  1  0  0  0
  5 23  1  0  0  0
 23 24  1  0  0  0
 24 25  2  0  0  0
 25 26  1  0  0  0
 26 27  2  0  0  0
 27 28  1  0  0  0
 28 29  2  0  0  0
  5  1  1  0  0  0
  1  2  2  0  0  0
  1  3  1  0  0  0
  3 30  1  0  0  0
 30 31  1  0  0  0
 31 32  2  0  0  0
 32 33  1  0  0  0
 33 34  2  0  0  0
 34 35  1  0  0  0
 35 36  1  0  0  0
 35 37  1  0  0  0
 37 38  2  0  0  0
 37 39  1  0  0  0
 39 45  1  0  0  0
 45 46  2  0  0  0
 45 47  1  0  0  0
 47 49  1  0  0  0
 49 50  1  0  0  0
 50 51  1  0  0  0
 50 52  2  0  0  0
 39 40  2  0  0  0
 40 41  1  0  0  0
 40 42  1  0  0  0
 42 43  2  0  0  0
 29 24  1  0  0  0
 43 31  1  0  0  0
 42 34  1  0  0  0
 11 14  1  0  0  0
  8  9  1  0  0  0
  3  4  1  0  0  0
 47 48  1  0  0  0
 51 53  1  0  0  0
 41 44  1  0  0  0
M  END
> <minimizedAffinity>
-6.78903

> <CNNscore>
0.1138020009

> <CNNaffinity>
7.2134552002

> <CNN_VS>
0.8209056258

> <CNNaffinity_variance>
0.0702156425

$$$$
[H]OC(=O)C([H])([H])N([H])C(=O)c1c(O[H])c2c([H])c(C([H])([H])N([H])C(=O)[C@]([H])(N([H])C(=O)[C@]([H])(N([H])C(=O)C(C([H])([H])[H])(C([H])([H])[H])C([H])([H])[H])C([H])([H])C([H])(C([H])([H])[H])C([H])([H])[H])C([H])([H])c3c([H])c([H])c([H])c([H])c3[H])c([H])c([H])c2n(C([H])([H])[H])c1=O


 53 55  0  0  0  0  0  0  0  0999 V2000
   11.5651   20.4676    1.9169 C   0  0  0  0  0  0  0  0  0  0  0  0
   12.5993   20.6744    2.5937 O   0  0  0  0  0  0  0  0  0  0  0  0
   11.6038   20.0762    0.5657 N   0  0  0  0  0  0  0  0  0  0  0  0
   10.6931   19.9362    0.0709 H   0  0  0  0  0  0  0  0  0  0  0  0
   10.2269   20.6383    2.6627 C   0  0  0  0  0  0  0  0  0  0  0  0
    8.4633   21.3114    0.6956 C   0  0  0  0  0  0  0  0  0  0  0  0
    8.7055   20.9709   -0.5335 O   0  0  0  0  0  0  0  0  0  0  0  0
    9.2540   21.0309    1.7420 N   0  0  0  0  0  0  0  0  0  0  0  0
   10.1212   20.3797    0.8193 H   0  0  0  0  0  0  0  0  0  0  0  0
    7.1323   22.0708    0.7110 C   0  0  0  0  0  0  0  0  0  0  0  0
    7.1984   23.0094    1.8163 N   0  0  0  0  0  0  0  0  0  0  0  0
    8.0301   24.1239    1.9337 C   0  0  0  0  0  0  0  0  0  0  0  0
    8.8193   24.4572    1.0380 O   0  0  0  0  0  0  0  0  0  0  0  0
    6.5311   22.8147    2.6231 H   0  0  0  0  0  0  0  0  0  0  0  0
    8.0202   24.9796    3.1717 C   0  0  0  0  0  0  0  0  0  0  0  0
    9.3496   24.9141    3.8785 C   0  0  0  0  0  0  0  0  0  0  0  0
    7.6509   26.3960    2.8987 C   0  0  0  0  0  0  0  0  0  0  0  0
    6.9467   24.3974    4.1268 C   0  0  0  0  0  0  0  0  0  0  0  0
    6.1582   20.9570    1.2226 C   0  0  0  0  0  0  0  0  0  0  0  0
    5.1598   21.3837   -0.9558 C   0  0  0  0  0  0  0  0  0  0  0  0
    4.8677   20.9729    0.4787 C   0  0  0  0  0  0  0  0  0  0  0  0
    4.3802   19.4978    0.4118 C   0  0  0  0  0  0  0  0  0  0  0  0
   10.3495   21.1589    4.0177 C   0  0  0  0  0  0  0  0  0  0  0  0
    9.1964   21.3475    4.8813 C   0  0  0  0  0  0  0  0  0  0  0  0
    9.2498   22.3015    5.8949 C   0  0  0  0  0  0  0  0  0  0  0  0
    8.1893   22.5042    6.7341 C   0  0  0  0  0  0  0  0  0  0  0  0
    7.0135   21.7639    6.6146 C   0  0  0  0  0  0  0  0  0  0  0  0
    6.9595   20.8223    5.6181 C   0  0  0  0  0  0  0  0  0  0  0  0
    8.0464   20.6162    4.7558 C   0  0  0  0  0  0  0  0  0  0  0  0
   12.8164   19.8544   -0.2077 C   0  0  0  0  0  0  0  0  0  0  0  0
   13.6493   21.1078   -0.1704 C   0  0  0  0  0  0  0  0  0  0  0  0
   14.5510   21.3694    0.8119 C   0  0  0  0  0  0  0  0  0  0  0  0
   15.4403   22.4351    0.7730 C   0  0  0  0  0  0  0  0  0  0  0  0
   15.4254   23.3101   -0.3335 C   0  0  0  0  0  0  0  0  0  0  0  0
   16.3241   24.2973   -0.4280 N   0  0  0  0  0  0  0  0  0  0  0  0
   17.2829   24.5004    0.6601 C   0  0  0  0  0  0  0  0  0  0  0  0
   16.3993   25.1275   -1.5099 C   0  0  0  0  0  0  0  0  0  0  0  0
   17.2774   26.0307   -1.5226 O   0  0  0  0  0  0  0  0  0  0  0  0
   15.4953   24.9114   -2.5177 C   0  0  0  0  0  0  0  0  0  0  0  0
   14.5424   23.8641   -2.4194 C   0  0  0  0  0  0  0  0  0  0  0  0
   13.6445   23.6548   -3.4272 O   0  0  0  0  0  0  0  0  0  0  0  0
   14.5036   23.0414   -1.3069 C   0  0  0  0  0  0  0  0  0  0  0  0
   13.6225   21.9751   -1.2593 C   0  0  0  0  0  0  0  0  0  0  0  0
   12.9357   23.0039   -3.5341 H   0  0  0  0  0  0  0  0  0  0  0  0
   15.4090   25.7435   -3.6613 C   0  0  0  0  0  0  0  0  0  0  0  0
   15.8562   25.2631   -4.7973 O   0  0  0  0  0  0  0  0  0  0  0  0
   14.9139   27.0541   -3.8051 N   0  0  0  0  0  0  0  0  0  0  0  0
   14.5726   27.5736   -2.9751 H   0  0  0  0  0  0  0  0  0  0  0  0
   14.8864   27.6873   -5.1157 C   0  0  0  0  0  0  0  0  0  0  0  0
   16.0254   28.5666   -5.3331 C   0  0  0  0  0  0  0  0  0  0  0  0
   15.9675   29.5666   -6.3295 O   0  0  0  0  0  0  0  0  0  0  0  0
   17.1010   28.5295   -4.6993 O   0  0  0  0  0  0  0  0  0  0  0  0
   15.3567   29.3449   -7.1361 H   0  0  0  0  0  0  0  0  0  0  0  0
 20 21  1  0  0  0
 21 22  1  0  0  0
 21 19  1  0  0  0
 19 10  1  0  0  0
 10 11  1  0  0  0
 11 12  1  0  0  0
 12 13  2  0  0  0
 12 15  1  0  0  0
 15 16  1  0  0  0
 15 17  1  0  0  0
 15 18  1  0  0  0
 10  6  1  0  0  0
  6  7  2  0  0  0
  6  8  1  0  0  0
  8  5  1  0  0  0
  5 23  1  0  0  0
 23 24  1  0  0  0
 24 25  2  0  0  0
 25 26  1  0  0  0
 26 27  2  0  0  0
 27 28  1  0  0  0
 28 29  2  0  0  0
  5  1  1  0  0  0
  1  2  2  0  0  0
  1  3  1  0  0  0
  3 30  1  0  0  0
 30 31  1  0  0  0
 31 32  2  0  0  0
 32 33  1  0  0  0
 33 34  2  0  0  0
 34 35  1  0  0  0
 35 36  1  0  0  0
 35 37  1  0  0  0
 37 38  2  0  0  0
 37 39  1  0  0  0
 39 45  1  0  0  0
 45 46  2  0  0  0
 45 47  1  0  0  0
 47 49  1  0  0  0
 49 50  1  0  0  0
 50 51  1  0  0  0
 50 52  2  0  0  0
 39 40  2  0  0  0
 40 41  1  0  0  0
 40 42  1  0  0  0
 42 43  2  0  0  0
 29 24  1  0  0  0
 43 31  1  0  0  0
 42 34  1  0  0  0
 11 14  1  0  0  0
  8  9  1  0  0  0
  3  4  1  0  0  0
 47 48  1  0  0  0
 51 53  1  0  0  0
 41 44  1  0  0  0
M  END
> <minimizedAffinity>
-3.88752

> <CNNscore>
0.1116414070

> <CNNaffinity>
7.1125450134

> <CNN_VS>
0.7940545082

> <CNNaffinity_variance>
0.2615228295

$$$$
[H]c1nc(-n2c(=O)c(-n3nnc([H])c3[H])c([H])n2[H])c([H])c([H])c1C(=O)OC(C([H])([H])[H])(C([H])([H])[H])C([H])([H])[H]


 25 27  0  0  0  0  0  0  0  0999 V2000
   12.1407   27.8870   -3.9352 C   0  0  0  0  0  0  0  0  0  0  0  0
   11.8452   27.3289   -2.7104 C   0  0  0  0  0  0  0  0  0  0  0  0
   12.4589   26.1645   -2.3629 C   0  0  0  0  0  0  0  0  0  0  0  0
   13.3619   25.5240   -3.1862 C   0  0  0  0  0  0  0  0  0  0  0  0
   13.6318   26.0892   -4.3738 N   0  0  0  0  0  0  0  0  0  0  0  0
   13.0365   27.2392   -4.7365 C   0  0  0  0  0  0  0  0  0  0  0  0
   13.9990   24.3046   -2.8124 N   0  0  0  0  0  0  0  0  0  0  0  0
   14.8921   23.5957   -3.4686 N   0  0  0  0  0  0  0  0  0  0  0  0
   15.2572   22.4884   -2.7720 C   0  0  0  0  0  0  0  0  0  0  0  0
   14.5405   22.5095   -1.5995 C   0  0  0  0  0  0  0  0  0  0  0  0
   13.7722   23.6473   -1.6579 C   0  0  0  0  0  0  0  0  0  0  0  0
   12.9756   23.9975   -0.7399 O   0  0  0  0  0  0  0  0  0  0  0  0
   15.2686   23.8673   -4.4180 H   0  0  0  0  0  0  0  0  0  0  0  0
   14.6255   21.5103   -0.5624 N   0  0  0  0  0  0  0  0  0  0  0  0
   15.7379   21.1522    0.0917 C   0  0  0  0  0  0  0  0  0  0  0  0
   15.3739   20.1754    0.9888 C   0  0  0  0  0  0  0  0  0  0  0  0
   14.0607   19.9871    0.8371 N   0  0  0  0  0  0  0  0  0  0  0  0
   13.6302   20.7916   -0.0923 N   0  0  0  0  0  0  0  0  0  0  0  0
   11.4894   29.1389   -4.3244 C   0  0  0  0  0  0  0  0  0  0  0  0
   11.9284   30.2317   -3.9469 O   0  0  0  0  0  0  0  0  0  0  0  0
   10.3778   29.0880   -5.1187 O   0  0  0  0  0  0  0  0  0  0  0  0
    9.5864   31.2204   -5.7214 C   0  0  0  0  0  0  0  0  0  0  0  0
    9.2468   29.9264   -4.9711 C   0  0  0  0  0  0  0  0  0  0  0  0
    8.0175   29.3244   -5.6176 C   0  0  0  0  0  0  0  0  0  0  0  0
    8.9281   30.2163   -3.5309 C   0  0  0  0  0  0  0  0  0  0  0  0
 22 23  1  0  0  0
 23 24  1  0  0  0
 23 25  1  0  0  0
 23 21  1  0  0  0
 21 19  1  0  0  0
 19 20  2  0  0  0
 19  1  1  0  0  0
  1  2  2  0  0  0
  2  3  1  0  0  0
  3  4  2  0  0  0
  4  5  1  0  0  0
  5  6  2  0  0  0
  4  7  1  0  0  0
  7  8  1  0  0  0
  8  9  1  0  0  0
  9 10  2  0  0  0
 10 14  1  0  0  0
 14 15  1  0  0  0
 15 16  2  0  0  0
 16 17  1  0  0  0
 17 18  2  0  0  0
 10 11  1  0  0  0
 11 12  2  0  0  0
  6  1  1  0  0  0
 11  7  1  0  0  0
 18 14  1  0  0  0
  8 13  1  0  0  0
M  END
> <minimizedAffinity>
11.48778

> <CNNscore>
0.5680279136

> <CNNaffinity>
6.0166964531

> <CNN_VS>
3.4176514149

> <CNNaffinity_variance>
0.4170265198

$$$$
[H]c1nc(-n2c(=O)c(-n3nnc([H])c3[H])c([H])n2[H])c([H])c([H])c1C(=O)OC(C([H])([H])[H])(C([H])([H])[H])C([H])([H])[H]


 25 27  0  0  0  0  0  0  0  0999 V2000
   15.3833   24.4705   -1.6048 C   0  0  0  0  0  0  0  0  0  0  0  0
   14.5362   23.5296   -2.1487 C   0  0  0  0  0  0  0  0  0  0  0  0
   13.7885   22.7653   -1.3060 C   0  0  0  0  0  0  0  0  0  0  0  0
   13.8458   22.8958    0.0663 C   0  0  0  0  0  0  0  0  0  0  0  0
   14.6792   23.8201    0.5699 N   0  0  0  0  0  0  0  0  0  0  0  0
   15.4266   24.5855   -0.2449 C   0  0  0  0  0  0  0  0  0  0  0  0
   13.0583   22.0900    0.9398 N   0  0  0  0  0  0  0  0  0  0  0  0
   13.3516   20.9365    1.5003 N   0  0  0  0  0  0  0  0  0  0  0  0
   12.3295   20.4848    2.2723 C   0  0  0  0  0  0  0  0  0  0  0  0
   11.3294   21.4236    2.1862 C   0  0  0  0  0  0  0  0  0  0  0  0
   11.8145   22.4032    1.3535 C   0  0  0  0  0  0  0  0  0  0  0  0
   11.1590   23.4388    1.0410 O   0  0  0  0  0  0  0  0  0  0  0  0
   14.2717   20.4365    1.3577 H   0  0  0  0  0  0  0  0  0  0  0  0
   10.0559   21.3363    2.8583 N   0  0  0  0  0  0  0  0  0  0  0  0
    9.8472   21.5178    4.1687 C   0  0  0  0  0  0  0  0  0  0  0  0
    8.4998   21.3447    4.3838 C   0  0  0  0  0  0  0  0  0  0  0  0
    7.9557   21.0668    3.1965 N   0  0  0  0  0  0  0  0  0  0  0  0
    8.8981   21.0659    2.2975 N   0  0  0  0  0  0  0  0  0  0  0  0
   16.1944   25.3006   -2.4970 C   0  0  0  0  0  0  0  0  0  0  0  0
   17.1082   26.0078   -2.0565 O   0  0  0  0  0  0  0  0  0  0  0  0
   15.9289   25.2864   -3.8381 O   0  0  0  0  0  0  0  0  0  0  0  0
   15.2406   25.8860   -6.0069 C   0  0  0  0  0  0  0  0  0  0  0  0
   15.3472   26.3613   -4.5524 C   0  0  0  0  0  0  0  0  0  0  0  0
   13.9486   26.6665   -4.0604 C   0  0  0  0  0  0  0  0  0  0  0  0
   16.1633   27.6207   -4.4644 C   0  0  0  0  0  0  0  0  0  0  0  0
 22 23  1  0  0  0
 23 24  1  0  0  0
 23 25  1  0  0  0
 23 21  1  0  0  0
 21 19  1  0  0  0
 19 20  2  0  0  0
 19  1  1  0  0  0
  1  2  2  0  0  0
  2  3  1  0  0  0
  3  4  2  0  0  0
  4  5  1  0  0  0
  5  6  2  0  0  0
  4  7  1  0  0  0
  7  8  1  0  0  0
  8  9  1  0  0  0
  9 10  2  0  0  0
 10 14  1  0  0  0
 14 15  1  0  0  0
 15 16  2  0  0  0
 16 17  1  0  0  0
 17 18  2  0  0  0
 10 11  1  0  0  0
 11 12  2  0  0  0
  6  1  1  0  0  0
 11  7  1  0  0  0
 18 14  1  0  0  0
  8 13  1  0  0  0
M  END
> <minimizedAffinity>
-8.52427

> <CNNscore>
0.4738625586

> <CNNaffinity>
6.8034071922

> <CNN_VS>
3.2238800526

> <CNNaffinity_variance>
0.5081666708

$$$$
[H]c1nc(-n2c(=O)c(-n3nnc([H])c3[H])c([H])n2[H])c([H])c([H])c1C(=O)OC(C([H])([H])[H])(C([H])([H])[H])C([H])([H])[H]


 25 27  0  0  0  0  0  0  0  0999 V2000
   13.1084   26.2522   -3.1200 C   0  0  0  0  0  0  0  0  0  0  0  0
   12.1209   26.1384   -2.1658 C   0  0  0  0  0  0  0  0  0  0  0  0
   12.0048   24.9628   -1.4892 C   0  0  0  0  0  0  0  0  0  0  0  0
   12.8344   23.8851   -1.7210 C   0  0  0  0  0  0  0  0  0  0  0  0
   13.7881   24.0228   -2.6559 N   0  0  0  0  0  0  0  0  0  0  0  0
   13.9199   25.1755   -3.3357 C   0  0  0  0  0  0  0  0  0  0  0  0
   12.7041   22.6582   -1.0066 N   0  0  0  0  0  0  0  0  0  0  0  0
   13.0318   21.4392   -1.3772 N   0  0  0  0  0  0  0  0  0  0  0  0
   12.7486   20.5317   -0.4072 C   0  0  0  0  0  0  0  0  0  0  0  0
   12.2063   21.2357    0.6412 C   0  0  0  0  0  0  0  0  0  0  0  0
   12.1938   22.5486    0.2360 C   0  0  0  0  0  0  0  0  0  0  0  0
   11.7577   23.4947    0.9533 O   0  0  0  0  0  0  0  0  0  0  0  0
   13.4608   21.2109   -2.3157 H   0  0  0  0  0  0  0  0  0  0  0  0
   11.7622   20.6533    1.8841 N   0  0  0  0  0  0  0  0  0  0  0  0
   12.4561   19.7903    2.6374 C   0  0  0  0  0  0  0  0  0  0  0  0
   11.6694   19.4913    3.7252 C   0  0  0  0  0  0  0  0  0  0  0  0
   10.5379   20.1854    3.5811 N   0  0  0  0  0  0  0  0  0  0  0  0
   10.6100   20.8732    2.4774 N   0  0  0  0  0  0  0  0  0  0  0  0
   13.2468   27.5097   -3.8567 C   0  0  0  0  0  0  0  0  0  0  0  0
   14.3370   27.8598   -4.3239 O   0  0  0  0  0  0  0  0  0  0  0  0
   12.1461   28.3028   -4.0256 O   0  0  0  0  0  0  0  0  0  0  0  0
   13.3720   30.2971   -4.2640 C   0  0  0  0  0  0  0  0  0  0  0  0
   12.0894   29.6780   -3.6945 C   0  0  0  0  0  0  0  0  0  0  0  0
   10.9113   30.3627   -4.3539 C   0  0  0  0  0  0  0  0  0  0  0  0
   12.0008   29.9109   -2.2120 C   0  0  0  0  0  0  0  0  0  0  0  0
 22 23  1  0  0  0
 23 24  1  0  0  0
 23 25  1  0  0  0
 23 21  1  0  0  0
 21 19  1  0  0  0
 19 20  2  0  0  0
 19  1  1  0  0  0
  1  2  2  0  0  0
  2  3  1  0  0  0
  3  4  2  0  0  0
  4  5  1  0  0  0
  5  6  2  0  0  0
  4  7  1  0  0  0
  7  8  1  0  0  0
  8  9  1  0  0  0
  9 10  2  0  0  0
 10 14  1  0  0  0
 14 15  1  0  0  0
 15 16  2  0  0  0
 16 17  1  0  0  0
 17 18  2  0  0  0
 10 11  1  0  0  0
 11 12  2  0  0  0
  6  1  1  0  0  0
 11  7  1  0  0  0
 18 14  1  0  0  0
  8 13  1  0  0  0
M  END
> <minimizedAffinity>
7.60602

> <CNNscore>
0.4667179286

> <CNNaffinity>
6.3341135979

> <CNN_VS>
2.9562444687

> <CNNaffinity_variance>
0.8308497667

$$$$
[H]c1nc(-n2c(=O)c(-n3nnc([H])c3[H])c([H])n2[H])c([H])c([H])c1C(=O)OC(C([H])([H])[H])(C([H])([H])[H])C([H])([H])[H]


 25 27  0  0  0  0  0  0  0  0999 V2000
   15.0599   24.4499   -1.7134 C   0  0  0  0  0  0  0  0  0  0  0  0
   13.9299   23.8092   -2.1731 C   0  0  0  0  0  0  0  0  0  0  0  0
   13.0534   23.3055   -1.2614 C   0  0  0  0  0  0  0  0  0  0  0  0
   13.2519   23.4112    0.0999 C   0  0  0  0  0  0  0  0  0  0  0  0
   14.3609   24.0402    0.5207 N   0  0  0  0  0  0  0  0  0  0  0  0
   15.2396   24.5450   -0.3633 C   0  0  0  0  0  0  0  0  0  0  0  0
   12.3275   22.8799    1.0462 N   0  0  0  0  0  0  0  0  0  0  0  0
   11.1658   23.3589    1.4360 N   0  0  0  0  0  0  0  0  0  0  0  0
   10.5813   22.5543    2.3609 C   0  0  0  0  0  0  0  0  0  0  0  0
   11.4400   21.4999    2.5611 C   0  0  0  0  0  0  0  0  0  0  0  0
   12.5101   21.7337    1.7314 C   0  0  0  0  0  0  0  0  0  0  0  0
   13.5082   20.9614    1.6479 O   0  0  0  0  0  0  0  0  0  0  0  0
   10.7528   24.2587    1.0661 H   0  0  0  0  0  0  0  0  0  0  0  0
   11.2043   20.4053    3.4707 N   0  0  0  0  0  0  0  0  0  0  0  0
   10.4524   20.4543    4.5779 C   0  0  0  0  0  0  0  0  0  0  0  0
   10.4978   19.2018    5.1444 C   0  0  0  0  0  0  0  0  0  0  0  0
   11.2734   18.4535    4.3560 N   0  0  0  0  0  0  0  0  0  0  0  0
   11.6865   19.1872    3.3622 N   0  0  0  0  0  0  0  0  0  0  0  0
   16.0127   24.9973   -2.6806 C   0  0  0  0  0  0  0  0  0  0  0  0
   17.1214   25.4110   -2.3213 O   0  0  0  0  0  0  0  0  0  0  0  0
   15.6611   25.0474   -4.0009 O   0  0  0  0  0  0  0  0  0  0  0  0
   15.3339   25.8903   -6.1733 C   0  0  0  0  0  0  0  0  0  0  0  0
   15.2496   26.2206   -4.6779 C   0  0  0  0  0  0  0  0  0  0  0  0
   13.8119   26.5727   -4.3609 C   0  0  0  0  0  0  0  0  0  0  0  0
   16.1097   27.4085   -4.3476 C   0  0  0  0  0  0  0  0  0  0  0  0
 22 23  1  0  0  0
 23 24  1  0  0  0
 23 25  1  0  0  0
 23 21  1  0  0  0
 21 19  1  0  0  0
 19 20  2  0  0  0
 19  1  1  0  0  0
  1  2  2  0  0  0
  2  3  1  0  0  0
  3  4  2  0  0  0
  4  5  1  0  0  0
  5  6  2  0  0  0
  4  7  1  0  0  0
  7  8  1  0  0  0
  8  9  1  0  0  0
  9 10  2  0  0  0
 10 14  1  0  0  0
 14 15  1  0  0  0
 15 16  2  0  0  0
 16 17  1  0  0  0
 17 18  2  0  0  0
 10 11  1  0  0  0
 11 12  2  0  0  0
  6  1  1  0  0  0
 11  7  1  0  0  0
 18 14  1  0  0  0
  8 13  1  0  0  0
M  END
> <minimizedAffinity>
-9.09761

> <CNNscore>
0.4645705819

> <CNNaffinity>
6.6476273537

> <CNN_VS>
3.0882921219

> <CNNaffinity_variance>
0.4572736621

$$$$
[H]c1nc(-n2c(=O)c(-n3nnc([H])c3[H])c([H])n2[H])c([H])c([H])c1C(=O)OC(C([H])([H])[H])(C([H])([H])[H])C([H])([H])[H]


 25 27  0  0  0  0  0  0  0  0999 V2000
   10.9410   28.5949   -4.2699 C   0  0  0  0  0  0  0  0  0  0  0  0
   12.1493   29.2520   -4.1855 C   0  0  0  0  0  0  0  0  0  0  0  0
   13.2549   28.5356   -3.8425 C   0  0  0  0  0  0  0  0  0  0  0  0
   13.2127   27.1823   -3.5772 C   0  0  0  0  0  0  0  0  0  0  0  0
   12.0229   26.5667   -3.6667 N   0  0  0  0  0  0  0  0  0  0  0  0
   10.9185   27.2559   -4.0040 C   0  0  0  0  0  0  0  0  0  0  0  0
   14.3768   26.4415   -3.2187 N   0  0  0  0  0  0  0  0  0  0  0  0
   15.4138   26.1097   -3.9573 N   0  0  0  0  0  0  0  0  0  0  0  0
   16.3239   25.3966   -3.2446 C   0  0  0  0  0  0  0  0  0  0  0  0
   15.8175   25.2759   -1.9726 C   0  0  0  0  0  0  0  0  0  0  0  0
   14.6115   25.9343   -1.9923 C   0  0  0  0  0  0  0  0  0  0  0  0
   13.8544   26.0309   -0.9837 O   0  0  0  0  0  0  0  0  0  0  0  0
   15.5116   26.3728   -4.9762 H   0  0  0  0  0  0  0  0  0  0  0  0
   16.4704   24.5862   -0.8867 N   0  0  0  0  0  0  0  0  0  0  0  0
   17.6600   24.9030   -0.3594 C   0  0  0  0  0  0  0  0  0  0  0  0
   17.9033   23.9957    0.6451 C   0  0  0  0  0  0  0  0  0  0  0  0
   16.8522   23.1729    0.6800 N   0  0  0  0  0  0  0  0  0  0  0  0
   16.0068   23.5395   -0.2405 N   0  0  0  0  0  0  0  0  0  0  0  0
    9.7423   29.3506   -4.6374 C   0  0  0  0  0  0  0  0  0  0  0  0
    9.5289   30.4762   -4.1719 O   0  0  0  0  0  0  0  0  0  0  0  0
    8.8502   28.7934   -5.5109 O   0  0  0  0  0  0  0  0  0  0  0  0
    7.3231   30.0818   -6.7537 C   0  0  0  0  0  0  0  0  0  0  0  0
    7.4738   29.1192   -5.5691 C   0  0  0  0  0  0  0  0  0  0  0  0
    6.6230   27.8994   -5.8514 C   0  0  0  0  0  0  0  0  0  0  0  0
    6.9781   29.7567   -4.3011 C   0  0  0  0  0  0  0  0  0  0  0  0
 22 23  1  0  0  0
 23 24  1  0  0  0
 23 25  1  0  0  0
 23 21  1  0  0  0
 21 19  1  0  0  0
 19 20  2  0  0  0
 19  1  1  0  0  0
  1  2  2  0  0  0
  2  3  1  0  0  0
  3  4  2  0  0  0
  4  5  1  0  0  0
  5  6  2  0  0  0
  4  7  1  0  0  0
  7  8  1  0  0  0
  8  9  1  0  0  0
  9 10  2  0  0  0
 10 14  1  0  0  0
 14 15  1  0  0  0
 15 16  2  0  0  0
 16 17  1  0  0  0
 17 18  2  0  0  0
 10 11  1  0  0  0
 11 12  2  0  0  0
  6  1  1  0  0  0
 11  7  1  0  0  0
 18 14  1  0  0  0
  8 13  1  0  0  0
M  END
> <minimizedAffinity>
23.12403

> <CNNscore>
0.4389214218

> <CNNaffinity>
5.3205347061

> <CNN_VS>
2.3352966309

> <CNNaffinity_variance>
0.2464832366

$$$$
[H]c1nc(-n2c(=O)c(-n3nnc([H])c3[H])c([H])n2[H])c([H])c([H])c1C(=O)OC(C([H])([H])[H])(C([H])([H])[H])C([H])([H])[H]


 25 27  0  0  0  0  0  0  0  0999 V2000
   14.3636   22.5009   -2.5320 C   0  0  0  0  0  0  0  0  0  0  0  0
   14.1266   23.8395   -2.3062 C   0  0  0  0  0  0  0  0  0  0  0  0
   14.4597   24.7306   -3.2800 C   0  0  0  0  0  0  0  0  0  0  0  0
   15.0232   24.3470   -4.4794 C   0  0  0  0  0  0  0  0  0  0  0  0
   15.2435   23.0369   -4.6736 N   0  0  0  0  0  0  0  0  0  0  0  0
   14.9218   22.1400   -3.7247 C   0  0  0  0  0  0  0  0  0  0  0  0
   15.3685   25.2888   -5.4926 N   0  0  0  0  0  0  0  0  0  0  0  0
   15.6678   25.0808   -6.7567 N   0  0  0  0  0  0  0  0  0  0  0  0
   15.9408   26.2448   -7.4009 C   0  0  0  0  0  0  0  0  0  0  0  0
   15.8017   27.2483   -6.4720 C   0  0  0  0  0  0  0  0  0  0  0  0
   15.4468   26.6207   -5.3022 C   0  0  0  0  0  0  0  0  0  0  0  0
   15.2318   27.2370   -4.2189 O   0  0  0  0  0  0  0  0  0  0  0  0
   15.6888   24.1218   -7.2004 H   0  0  0  0  0  0  0  0  0  0  0  0
   16.0019   28.6520   -6.7378 N   0  0  0  0  0  0  0  0  0  0  0  0
   15.6324   29.6614   -5.9389 C   0  0  0  0  0  0  0  0  0  0  0  0
   16.0106   30.8245   -6.5681 C   0  0  0  0  0  0  0  0  0  0  0  0
   16.5904   30.4668   -7.7165 N   0  0  0  0  0  0  0  0  0  0  0  0
   16.5768   29.1672   -7.8017 N   0  0  0  0  0  0  0  0  0  0  0  0
   14.0113   21.5294   -1.4951 C   0  0  0  0  0  0  0  0  0  0  0  0
   13.5795   20.4087   -1.7899 O   0  0  0  0  0  0  0  0  0  0  0  0
   14.1661   21.8770   -0.1819 O   0  0  0  0  0  0  0  0  0  0  0  0
   15.3172   19.8405    0.0726 C   0  0  0  0  0  0  0  0  0  0  0  0
   14.6814   21.0196    0.8198 C   0  0  0  0  0  0  0  0  0  0  0  0
   15.7674   21.6961    1.6288 C   0  0  0  0  0  0  0  0  0  0  0  0
   13.6192   20.5364    1.7674 C   0  0  0  0  0  0  0  0  0  0  0  0
 22 23  1  0  0  0
 23 24  1  0  0  0
 23 25  1  0  0  0
 23 21  1  0  0  0
 21 19  1  0  0  0
 19 20  2  0  0  0
 19  1  1  0  0  0
  1  2  2  0  0  0
  2  3  1  0  0  0
  3  4  2  0  0  0
  4  5  1  0  0  0
  5  6  2  0  0  0
  4  7  1  0  0  0
  7  8  1  0  0  0
  8  9  1  0  0  0
  9 10  2  0  0  0
 10 14  1  0  0  0
 14 15  1  0  0  0
 15 16  2  0  0  0
 16 17  1  0  0  0
 17 18  2  0  0  0
 10 11  1  0  0  0
 11 12  2  0  0  0
  6  1  1  0  0  0
 11  7  1  0  0  0
 18 14  1  0  0  0
  8 13  1  0  0  0
M  END
> <minimizedAffinity>
7.45465

> <CNNscore>
0.4347692728

> <CNNaffinity>
6.1745162010

> <CNN_VS>
2.6844899654

> <CNNaffinity_variance>
0.5467259884

$$$$
[H]c1nc(-n2c(=O)c(-n3nnc([H])c3[H])c([H])n2[H])c([H])c([H])c1C(=O)OC(C([H])([H])[H])(C([H])([H])[H])C([H])([H])[H]


 25 27  0  0  0  0  0  0  0  0999 V2000
   10.1540   23.4924    0.4838 C   0  0  0  0  0  0  0  0  0  0  0  0
   11.0864   24.4675    0.7644 C   0  0  0  0  0  0  0  0  0  0  0  0
   12.1138   24.6533   -0.1092 C   0  0  0  0  0  0  0  0  0  0  0  0
   12.2572   23.9061   -1.2601 C   0  0  0  0  0  0  0  0  0  0  0  0
   11.3348   22.9629   -1.5095 N   0  0  0  0  0  0  0  0  0  0  0  0
   10.3120   22.7630   -0.6595 C   0  0  0  0  0  0  0  0  0  0  0  0
   13.3372   24.1090   -2.1683 N   0  0  0  0  0  0  0  0  0  0  0  0
   14.3540   23.3208   -2.4434 N   0  0  0  0  0  0  0  0  0  0  0  0
   15.1759   23.8753   -3.3717 C   0  0  0  0  0  0  0  0  0  0  0  0
   14.6322   25.0949   -3.6973 C   0  0  0  0  0  0  0  0  0  0  0  0
   13.4951   25.2069   -2.9340 C   0  0  0  0  0  0  0  0  0  0  0  0
   12.7284   26.2122   -2.9700 O   0  0  0  0  0  0  0  0  0  0  0  0
   14.4991   22.3771   -1.9902 H   0  0  0  0  0  0  0  0  0  0  0  0
   15.1920   26.0190   -4.6533 N   0  0  0  0  0  0  0  0  0  0  0  0
   15.7520   27.2010   -4.3656 C   0  0  0  0  0  0  0  0  0  0  0  0
   16.1508   27.7527   -5.5606 C   0  0  0  0  0  0  0  0  0  0  0  0
   15.8149   26.8814   -6.5150 N   0  0  0  0  0  0  0  0  0  0  0  0
   15.2439   25.8527   -5.9562 N   0  0  0  0  0  0  0  0  0  0  0  0
    9.0429   23.2796    1.4129 C   0  0  0  0  0  0  0  0  0  0  0  0
    8.6222   22.1424    1.6560 O   0  0  0  0  0  0  0  0  0  0  0  0
    8.4678   24.3631    2.0167 O   0  0  0  0  0  0  0  0  0  0  0  0
    8.9400   26.0557    3.5816 C   0  0  0  0  0  0  0  0  0  0  0  0
    8.4770   24.6033    3.4117 C   0  0  0  0  0  0  0  0  0  0  0  0
    7.0903   24.4858    4.0074 C   0  0  0  0  0  0  0  0  0  0  0  0
    9.3893   23.6656    4.1522 C   0  0  0  0  0  0  0  0  0  0  0  0
 22 23  1  0  0  0
 23 24  1  0  0  0
 23 25  1  0  0  0
 23 21  1  0  0  0
 21 19  1  0  0  0
 19 20  2  0  0  0
 19  1  1  0  0  0
  1  2  2  0  0  0
  2  3  1  0  0  0
  3  4  2  0  0  0
  4  5  1  0  0  0
  5  6  2  0  0  0
  4  7  1  0  0  0
  7  8  1  0  0  0
  8  9  1  0  0  0
  9 10  2  0  0  0
 10 14  1  0  0  0
 14 15  1  0  0  0
 15 16  2  0  0  0
 16 17  1  0  0  0
 17 18  2  0  0  0
 10 11  1  0  0  0
 11 12  2  0  0  0
  6  1  1  0  0  0
 11  7  1  0  0  0
 18 14  1  0  0  0
  8 13  1  0  0  0
M  END
> <minimizedAffinity>
-7.71861

> <CNNscore>
0.4030988812

> <CNNaffinity>
6.1033716202

> <CNN_VS>
2.4602622986

> <CNNaffinity_variance>
0.2507575154

$$$$
[H]c1nc(-n2c(=O)c(-n3nnc([H])c3[H])c([H])n2[H])c([H])c([H])c1C(=O)OC(C([H])([H])[H])(C([H])([H])[H])C([H])([H])[H]


 25 27  0  0  0  0  0  0  0  0999 V2000
   13.1759   25.3810   -2.7819 C   0  0  0  0  0  0  0  0  0  0  0  0
   11.9990   25.4776   -2.0717 C   0  0  0  0  0  0  0  0  0  0  0  0
   11.5937   24.4045   -1.3385 C   0  0  0  0  0  0  0  0  0  0  0  0
   12.3128   23.2286   -1.2793 C   0  0  0  0  0  0  0  0  0  0  0  0
   13.4557   23.1612   -1.9806 N   0  0  0  0  0  0  0  0  0  0  0  0
   13.8741   24.2097   -2.7113 C   0  0  0  0  0  0  0  0  0  0  0  0
   11.8791   22.1106   -0.5082 N   0  0  0  0  0  0  0  0  0  0  0  0
   11.2630   21.0164   -0.9004 N   0  0  0  0  0  0  0  0  0  0  0  0
   11.0180   20.1825    0.1433 C   0  0  0  0  0  0  0  0  0  0  0  0
   11.5170   20.8016    1.2644 C   0  0  0  0  0  0  0  0  0  0  0  0
   12.0427   21.9925    0.8244 C   0  0  0  0  0  0  0  0  0  0  0  0
   12.5946   22.8350    1.5894 O   0  0  0  0  0  0  0  0  0  0  0  0
   10.9985   20.8249   -1.9056 H   0  0  0  0  0  0  0  0  0  0  0  0
   11.4662   20.2568    2.5993 N   0  0  0  0  0  0  0  0  0  0  0  0
   10.9433   20.8621    3.6734 C   0  0  0  0  0  0  0  0  0  0  0  0
   11.1021   19.9987    4.7322 C   0  0  0  0  0  0  0  0  0  0  0  0
   11.7126   18.9127    4.2516 N   0  0  0  0  0  0  0  0  0  0  0  0
   11.9224   19.0835    2.9776 N   0  0  0  0  0  0  0  0  0  0  0  0
   13.6260   26.5258   -3.5756 C   0  0  0  0  0  0  0  0  0  0  0  0
   12.9244   26.9905   -4.4817 O   0  0  0  0  0  0  0  0  0  0  0  0
   14.8442   27.0831   -3.3021 O   0  0  0  0  0  0  0  0  0  0  0  0
   15.8694   28.0575   -5.1826 C   0  0  0  0  0  0  0  0  0  0  0  0
   15.9889   26.9534   -4.1247 C   0  0  0  0  0  0  0  0  0  0  0  0
   17.2653   27.1925   -3.3468 C   0  0  0  0  0  0  0  0  0  0  0  0
   16.0803   25.6018   -4.7766 C   0  0  0  0  0  0  0  0  0  0  0  0
 22 23  1  0  0  0
 23 24  1  0  0  0
 23 25  1  0  0  0
 23 21  1  0  0  0
 21 19  1  0  0  0
 19 20  2  0  0  0
 19  1  1  0  0  0
  1  2  2  0  0  0
  2  3  1  0  0  0
  3  4  2  0  0  0
  4  5  1  0  0  0
  5  6  2  0  0  0
  4  7  1  0  0  0
  7  8  1  0  0  0
  8  9  1  0  0  0
  9 10  2  0  0  0
 10 14  1  0  0  0
 14 15  1  0  0  0
 15 16  2  0  0  0
 16 17  1  0  0  0
 17 18  2  0  0  0
 10 11  1  0  0  0
 11 12  2  0  0  0
  6  1  1  0  0  0
 11  7  1  0  0  0
 18 14  1  0  0  0
  8 13  1  0  0  0
M  END
> <minimizedAffinity>
-7.95274

> <CNNscore>
0.3553546667

> <CNNaffinity>
6.3816819191

> <CNN_VS>
2.2677605152

> <CNNaffinity_variance>
0.3743481040

$$$$
[H]c1nc(-n2c(=O)c(-n3nnc([H])c3[H])c([H])n2[H])c([H])c([H])c1C(=O)OC(C([H])([H])[H])(C([H])([H])[H])C([H])([H])[H]


 25 27  0  0  0  0  0  0  0  0999 V2000
   10.0789   23.5162    0.4850 C   0  0  0  0  0  0  0  0  0  0  0  0
   11.0034   24.4956    0.7762 C   0  0  0  0  0  0  0  0  0  0  0  0
   12.0312   24.6969   -0.0935 C   0  0  0  0  0  0  0  0  0  0  0  0
   12.1823   23.9612   -1.2508 C   0  0  0  0  0  0  0  0  0  0  0  0
   11.2676   23.0134   -1.5105 N   0  0  0  0  0  0  0  0  0  0  0  0
   10.2446   22.7983   -0.6645 C   0  0  0  0  0  0  0  0  0  0  0  0
   13.2627   24.1803   -2.1550 N   0  0  0  0  0  0  0  0  0  0  0  0
   14.2983   23.4126   -2.4177 N   0  0  0  0  0  0  0  0  0  0  0  0
   15.1128   23.9773   -3.3463 C   0  0  0  0  0  0  0  0  0  0  0  0
   14.5439   25.1816   -3.6855 C   0  0  0  0  0  0  0  0  0  0  0  0
   13.4004   25.2748   -2.9293 C   0  0  0  0  0  0  0  0  0  0  0  0
   12.6117   26.2624   -2.9783 O   0  0  0  0  0  0  0  0  0  0  0  0
   14.4618   22.4763   -1.9555 H   0  0  0  0  0  0  0  0  0  0  0  0
   15.0883   26.1097   -4.6465 N   0  0  0  0  0  0  0  0  0  0  0  0
   15.3085   25.8563   -5.9430 C   0  0  0  0  0  0  0  0  0  0  0  0
   15.8303   27.0057   -6.4891 C   0  0  0  0  0  0  0  0  0  0  0  0
   15.9020   27.9003   -5.5004 N   0  0  0  0  0  0  0  0  0  0  0  0
   15.4553   27.3492   -4.4081 N   0  0  0  0  0  0  0  0  0  0  0  0
    8.9676   23.2868    1.4099 C   0  0  0  0  0  0  0  0  0  0  0  0
    8.0339   24.0927    1.4992 O   0  0  0  0  0  0  0  0  0  0  0  0
    8.9717   22.1593    2.1833 O   0  0  0  0  0  0  0  0  0  0  0  0
    8.7677   21.0171    4.2304 C   0  0  0  0  0  0  0  0  0  0  0  0
    9.5817   22.0621    3.4570 C   0  0  0  0  0  0  0  0  0  0  0  0
   11.0060   21.5594    3.3568 C   0  0  0  0  0  0  0  0  0  0  0  0
    9.5951   23.3738    4.1914 C   0  0  0  0  0  0  0  0  0  0  0  0
 22 23  1  0  0  0
 23 24  1  0  0  0
 23 25  1  0  0  0
 23 21  1  0  0  0
 21 19  1  0  0  0
 19 20  2  0  0  0
 19  1  1  0  0  0
  1  2  2  0  0  0
  2  3  1  0  0  0
  3  4  2  0  0  0
  4  5  1  0  0  0
  5  6  2  0  0  0
  4  7  1  0  0  0
  7  8  1  0  0  0
  8  9  1  0  0  0
  9 10  2  0  0  0
 10 14  1  0  0  0
 14 15  1  0  0  0
 15 16  2  0  0  0
 16 17  1  0  0  0
 17 18  2  0  0  0
 10 11  1  0  0  0
 11 12  2  0  0  0
  6  1  1  0  0  0
 11  7  1  0  0  0
 18 14  1  0  0  0
  8 13  1  0  0  0
M  END
> <minimizedAffinity>
-7.55391

> <CNNscore>
0.3511509299

> <CNNaffinity>
6.1805486679

> <CNN_VS>
2.1703054905

> <CNNaffinity_variance>
0.1443075836

$$$$
[H]c1nc2c([H])c([H])c([H])c(-c3c([H])nc(C#N)c(F)c3[H])n2n1


 18 20  0  0  0  0  0  0  0  0999 V2000
   16.2778   24.0050   -5.4606 F   0  0  0  0  0  0  0  0  0  0  0  0
   15.3496   24.8393   -4.9171 C   0  0  0  0  0  0  0  0  0  0  0  0
   14.7627   24.4838   -3.7249 C   0  0  0  0  0  0  0  0  0  0  0  0
   13.8266   25.3300   -3.1813 C   0  0  0  0  0  0  0  0  0  0  0  0
   13.5234   26.4918   -3.8579 C   0  0  0  0  0  0  0  0  0  0  0  0
   14.0944   26.8222   -5.0028 N   0  0  0  0  0  0  0  0  0  0  0  0
   15.0081   26.0153   -5.5520 C   0  0  0  0  0  0  0  0  0  0  0  0
   13.1720   25.0012   -1.9166 C   0  0  0  0  0  0  0  0  0  0  0  0
   11.8073   25.0239   -1.7427 C   0  0  0  0  0  0  0  0  0  0  0  0
   11.2406   24.7010   -0.5145 C   0  0  0  0  0  0  0  0  0  0  0  0
   12.0453   24.3529    0.5471 C   0  0  0  0  0  0  0  0  0  0  0  0
   13.4237   24.3412    0.3321 C   0  0  0  0  0  0  0  0  0  0  0  0
   14.4477   24.0483    1.1611 N   0  0  0  0  0  0  0  0  0  0  0  0
   15.6020   24.1796    0.4902 C   0  0  0  0  0  0  0  0  0  0  0  0
   15.2575   24.5553   -0.7524 N   0  0  0  0  0  0  0  0  0  0  0  0
   13.9425   24.6593   -0.8702 N   0  0  0  0  0  0  0  0  0  0  0  0
   15.6198   26.3983   -6.8065 C   0  0  0  0  0  0  0  0  0  0  0  0
   16.1242   26.6998   -7.8109 N   0  0  0  0  0  0  0  0  0  0  0  0
  1  2  1  0  0  0
  2  3  2  0  0  0
  3  4  1  0  0  0
  4  5  2  0  0  0
  5  6  1  0  0  0
  6  7  2  0  0  0
  7 17  1  0  0  0
 17 18  3  0  0  0
  4  8  1  0  0  0
  8  9  2  0  0  0
  9 10  1  0  0  0
 10 11  2  0  0  0
 11 12  1  0  0  0
 12 13  2  0  0  0
 13 14  1  0  0  0
 14 15  2  0  0  0
 15 16  1  0  0  0
  7  2  1  0  0  0
 16  8  1  0  0  0
 16 12  1  0  0  0
M  END
> <minimizedAffinity>
-8.33582

> <CNNscore>
0.8940693736

> <CNNaffinity>
6.9648256302

> <CNN_VS>
6.2270374298

> <CNNaffinity_variance>
0.1043478400

$$$$
[H]c1nc2c([H])c([H])c([H])c(-c3c([H])nc(C#N)c(F)c3[H])n2n1


 18 20  0  0  0  0  0  0  0  0999 V2000
   16.2854   24.0357   -4.9913 F   0  0  0  0  0  0  0  0  0  0  0  0
   15.2629   24.7496   -4.4456 C   0  0  0  0  0  0  0  0  0  0  0  0
   14.6757   24.2823   -3.2926 C   0  0  0  0  0  0  0  0  0  0  0  0
   13.6442   25.0073   -2.7465 C   0  0  0  0  0  0  0  0  0  0  0  0
   13.2503   26.1654   -3.3813 C   0  0  0  0  0  0  0  0  0  0  0  0
   13.8226   26.6039   -4.4887 N   0  0  0  0  0  0  0  0  0  0  0  0
   14.8282   25.9162   -5.0395 C   0  0  0  0  0  0  0  0  0  0  0  0
   12.9847   24.5566   -1.5226 C   0  0  0  0  0  0  0  0  0  0  0  0
   12.3775   25.4113   -0.6315 C   0  0  0  0  0  0  0  0  0  0  0  0
   11.7650   24.9239    0.5180 C   0  0  0  0  0  0  0  0  0  0  0  0
   11.7603   23.5718    0.7776 C   0  0  0  0  0  0  0  0  0  0  0  0
   12.3858   22.7372   -0.1490 C   0  0  0  0  0  0  0  0  0  0  0  0
   12.5424   21.3968   -0.1706 N   0  0  0  0  0  0  0  0  0  0  0  0
   13.2192   21.0555   -1.2775 C   0  0  0  0  0  0  0  0  0  0  0  0
   13.4670   22.2086   -1.9200 N   0  0  0  0  0  0  0  0  0  0  0  0
   12.9708   23.2401   -1.2539 N   0  0  0  0  0  0  0  0  0  0  0  0
   15.4393   26.4161   -6.2524 C   0  0  0  0  0  0  0  0  0  0  0  0
   15.9319   26.8042   -7.2327 N   0  0  0  0  0  0  0  0  0  0  0  0
  1  2  1  0  0  0
  2  3  2  0  0  0
  3  4  1  0  0  0
  4  5  2  0  0  0
  5  6  1  0  0  0
  6  7  2  0  0  0
  7 17  1  0  0  0
 17 18  3  0  0  0
  4  8  1  0  0  0
  8  9  2  0  0  0
  9 10  1  0  0  0
 10 11  2  0  0  0
 11 12  1  0  0  0
 12 13  2  0  0  0
 13 14  1  0  0  0
 14 15  2  0  0  0
 15 16  1  0  0  0
  7  2  1  0  0  0
 16  8  1  0  0  0
 16 12  1  0  0  0
M  END
> <minimizedAffinity>
-8.33986

> <CNNscore>
0.6375867724

> <CNNaffinity>
6.4796929359

> <CNN_VS>
4.1313667297

> <CNNaffinity_variance>
0.0540821068

$$$$
[H]c1nc2c([H])c([H])c([H])c(-c3c([H])nc(C#N)c(F)c3[H])n2n1


 18 20  0  0  0  0  0  0  0  0999 V2000
   15.9283   24.3766   -4.3710 F   0  0  0  0  0  0  0  0  0  0  0  0
   14.8406   24.8328   -3.6914 C   0  0  0  0  0  0  0  0  0  0  0  0
   14.2234   23.9908   -2.7956 C   0  0  0  0  0  0  0  0  0  0  0  0
   13.1261   24.4570   -2.1126 C   0  0  0  0  0  0  0  0  0  0  0  0
   12.6997   25.7441   -2.3596 C   0  0  0  0  0  0  0  0  0  0  0  0
   13.3015   26.5434   -3.2228 N   0  0  0  0  0  0  0  0  0  0  0  0
   14.3711   26.1129   -3.8998 C   0  0  0  0  0  0  0  0  0  0  0  0
   12.4322   23.6047   -1.1493 C   0  0  0  0  0  0  0  0  0  0  0  0
   11.0664   23.6078   -0.9824 C   0  0  0  0  0  0  0  0  0  0  0  0
   10.4614   22.7735   -0.0486 C   0  0  0  0  0  0  0  0  0  0  0  0
   11.2285   21.9302    0.7234 C   0  0  0  0  0  0  0  0  0  0  0  0
   12.6093   21.9554    0.5253 C   0  0  0  0  0  0  0  0  0  0  0  0
   13.6025   21.2595    1.1175 N   0  0  0  0  0  0  0  0  0  0  0  0
   14.7749   21.6354    0.5846 C   0  0  0  0  0  0  0  0  0  0  0  0
   14.4724   22.5662   -0.3352 N   0  0  0  0  0  0  0  0  0  0  0  0
   13.1657   22.7755   -0.3877 N   0  0  0  0  0  0  0  0  0  0  0  0
   15.0134   27.0063   -4.8399 C   0  0  0  0  0  0  0  0  0  0  0  0
   15.5386   27.7137   -5.6001 N   0  0  0  0  0  0  0  0  0  0  0  0
  1  2  1  0  0  0
  2  3  2  0  0  0
  3  4  1  0  0  0
  4  5  2  0  0  0
  5  6  1  0  0  0
  6  7  2  0  0  0
  7 17  1  0  0  0
 17 18  3  0  0  0
  4  8  1  0  0  0
  8  9  2  0  0  0
  9 10  1  0  0  0
 10 11  2  0  0  0
 11 12  1  0  0  0
 12 13  2  0  0  0
 13 14  1  0  0  0
 14 15  2  0  0  0
 15 16  1  0  0  0
  7  2  1  0  0  0
 16  8  1  0  0  0
 16 12  1  0  0  0
M  END
> <minimizedAffinity>
-7.22099

> <CNNscore>
0.6238396764

> <CNNaffinity>
6.7465476990

> <CNN_VS>
4.2087640762

> <CNNaffinity_variance>
0.4767616391

$$$$
[H]c1nc2c([H])c([H])c([H])c(-c3c([H])nc(C#N)c(F)c3[H])n2n1


 18 20  0  0  0  0  0  0  0  0999 V2000
   12.8556   27.3945   -3.9542 F   0  0  0  0  0  0  0  0  0  0  0  0
   13.3091   26.2181   -3.4410 C   0  0  0  0  0  0  0  0  0  0  0  0
   12.6883   25.7033   -2.3266 C   0  0  0  0  0  0  0  0  0  0  0  0
   13.1505   24.5156   -1.8133 C   0  0  0  0  0  0  0  0  0  0  0  0
   14.2123   23.9004   -2.4408 C   0  0  0  0  0  0  0  0  0  0  0  0
   14.8002   24.4053   -3.5111 N   0  0  0  0  0  0  0  0  0  0  0  0
   14.3688   25.5598   -4.0294 C   0  0  0  0  0  0  0  0  0  0  0  0
   12.5278   23.9237   -0.6309 C   0  0  0  0  0  0  0  0  0  0  0  0
   11.3717   24.4069   -0.0626 C   0  0  0  0  0  0  0  0  0  0  0  0
   10.8250   23.8016    1.0638 C   0  0  0  0  0  0  0  0  0  0  0  0
   11.4396   22.7050    1.6253 C   0  0  0  0  0  0  0  0  0  0  0  0
   12.6097   22.2443    1.0209 C   0  0  0  0  0  0  0  0  0  0  0  0
   13.4219   21.2127    1.3335 N   0  0  0  0  0  0  0  0  0  0  0  0
   14.4300   21.1691    0.4494 C   0  0  0  0  0  0  0  0  0  0  0  0
   14.2123   22.1881   -0.3980 N   0  0  0  0  0  0  0  0  0  0  0  0
   13.1147   22.8528   -0.0702 N   0  0  0  0  0  0  0  0  0  0  0  0
   15.0286   26.0931   -5.2019 C   0  0  0  0  0  0  0  0  0  0  0  0
   15.5565   26.5093   -6.1518 N   0  0  0  0  0  0  0  0  0  0  0  0
  1  2  1  0  0  0
  2  3  2  0  0  0
  3  4  1  0  0  0
  4  5  2  0  0  0
  5  6  1  0  0  0
  6  7  2  0  0  0
  7 17  1  0  0  0
 17 18  3  0  0  0
  4  8  1  0  0  0
  8  9  2  0  0  0
  9 10  1  0  0  0
 10 11  2  0  0  0
 11 12  1  0  0  0
 12 13  2  0  0  0
 13 14  1  0  0  0
 14 15  2  0  0  0
 15 16  1  0  0  0
  7  2  1  0  0  0
 16  8  1  0  0  0
 16 12  1  0  0  0
M  END
> <minimizedAffinity>
-7.90231

> <CNNscore>
0.6122906804

> <CNNaffinity>
6.5797777176

> <CNN_VS>
4.0287365913

> <CNNaffinity_variance>
0.3627761006

$$$$
[H]c1nc2c([H])c([H])c([H])c(-c3c([H])nc(C#N)c(F)c3[H])n2n1


 18 20  0  0  0  0  0  0  0  0999 V2000
   13.1447   20.8157   -1.6718 F   0  0  0  0  0  0  0  0  0  0  0  0
   13.5106   21.9875   -1.0835 C   0  0  0  0  0  0  0  0  0  0  0  0
   14.2012   22.9123   -1.8320 C   0  0  0  0  0  0  0  0  0  0  0  0
   14.5677   24.0931   -1.2327 C   0  0  0  0  0  0  0  0  0  0  0  0
   14.2249   24.2910    0.0874 C   0  0  0  0  0  0  0  0  0  0  0  0
   13.5611   23.3946    0.7958 N   0  0  0  0  0  0  0  0  0  0  0  0
   13.1933   22.2378    0.2353 C   0  0  0  0  0  0  0  0  0  0  0  0
   15.3028   25.1105   -1.9815 C   0  0  0  0  0  0  0  0  0  0  0  0
   16.6339   25.3893   -1.7728 C   0  0  0  0  0  0  0  0  0  0  0  0
   17.2811   26.3699   -2.5169 C   0  0  0  0  0  0  0  0  0  0  0  0
   16.5913   27.0763   -3.4765 C   0  0  0  0  0  0  0  0  0  0  0  0
   15.2436   26.7651   -3.6591 C   0  0  0  0  0  0  0  0  0  0  0  0
   14.3233   27.2736   -4.5053 N   0  0  0  0  0  0  0  0  0  0  0  0
   13.1546   26.6459   -4.3055 C   0  0  0  0  0  0  0  0  0  0  0  0
   13.3855   25.7539   -3.3282 N   0  0  0  0  0  0  0  0  0  0  0  0
   14.6448   25.8092   -2.9219 N   0  0  0  0  0  0  0  0  0  0  0  0
   12.4672   21.2715    1.0311 C   0  0  0  0  0  0  0  0  0  0  0  0
   11.8712   20.4969    1.6628 N   0  0  0  0  0  0  0  0  0  0  0  0
  1  2  1  0  0  0
  2  3  2  0  0  0
  3  4  1  0  0  0
  4  5  2  0  0  0
  5  6  1  0  0  0
  6  7  2  0  0  0
  7 17  1  0  0  0
 17 18  3  0  0  0
  4  8  1  0  0  0
  8  9  2  0  0  0
  9 10  1  0  0  0
 10 11  2  0  0  0
 11 12  1  0  0  0
 12 13  2  0  0  0
 13 14  1  0  0  0
 14 15  2  0  0  0
 15 16  1  0  0  0
  7  2  1  0  0  0
 16  8  1  0  0  0
 16 12  1  0  0  0
M  END
> <minimizedAffinity>
-7.23947

> <CNNscore>
0.5865249634

> <CNNaffinity>
6.6189317703

> <CNN_VS>
3.8821687698

> <CNNaffinity_variance>
0.5172759295

$$$$
[H]c1nc2c([H])c([H])c([H])c(-c3c([H])nc(C#N)c(F)c3[H])n2n1


 18 20  0  0  0  0  0  0  0  0999 V2000
   12.8515   26.9859   -4.3289 F   0  0  0  0  0  0  0  0  0  0  0  0
   13.7806   26.1788   -3.7471 C   0  0  0  0  0  0  0  0  0  0  0  0
   13.3472   25.1313   -2.9680 C   0  0  0  0  0  0  0  0  0  0  0  0
   14.2896   24.3202   -2.3835 C   0  0  0  0  0  0  0  0  0  0  0  0
   15.6210   24.5972   -2.6075 C   0  0  0  0  0  0  0  0  0  0  0  0
   16.0247   25.6069   -3.3582 N   0  0  0  0  0  0  0  0  0  0  0  0
   15.1269   26.4104   -3.9378 C   0  0  0  0  0  0  0  0  0  0  0  0
   13.8846   23.1930   -1.5460 C   0  0  0  0  0  0  0  0  0  0  0  0
   14.3579   21.9128   -1.7196 C   0  0  0  0  0  0  0  0  0  0  0  0
   13.9358   20.8791   -0.8906 C   0  0  0  0  0  0  0  0  0  0  0  0
   13.0338   21.1283    0.1192 C   0  0  0  0  0  0  0  0  0  0  0  0
   12.5768   22.4385    0.2640 C   0  0  0  0  0  0  0  0  0  0  0  0
   11.7081   22.9823    1.1423 N   0  0  0  0  0  0  0  0  0  0  0  0
   11.5881   24.2927    0.8809 C   0  0  0  0  0  0  0  0  0  0  0  0
   12.3960   24.5283   -0.1658 N   0  0  0  0  0  0  0  0  0  0  0  0
   13.0048   23.4187   -0.5557 N   0  0  0  0  0  0  0  0  0  0  0  0
   15.5930   27.5098   -4.7555 C   0  0  0  0  0  0  0  0  0  0  0  0
   15.9554   28.3929   -5.4211 N   0  0  0  0  0  0  0  0  0  0  0  0
  1  2  1  0  0  0
  2  3  2  0  0  0
  3  4  1  0  0  0
  4  5  2  0  0  0
  5  6  1  0  0  0
  6  7  2  0  0  0
  7 17  1  0  0  0
 17 18  3  0  0  0
  4  8  1  0  0  0
  8  9  2  0  0  0
  9 10  1  0  0  0
 10 11  2  0  0  0
 11 12  1  0  0  0
 12 13  2  0  0  0
 13 14  1  0  0  0
 14 15  2  0  0  0
 15 16  1  0  0  0
  7  2  1  0  0  0
 16  8  1  0  0  0
 16 12  1  0  0  0
M  END
> <minimizedAffinity>
-7.75759

> <CNNscore>
0.5820493698

> <CNNaffinity>
6.4928560257

> <CNN_VS>
3.7791626453

> <CNNaffinity_variance>
0.1236194223

$$$$
[H]c1nc2c([H])c([H])c([H])c(-c3c([H])nc(C#N)c(F)c3[H])n2n1


 18 20  0  0  0  0  0  0  0  0999 V2000
    9.6410   23.9545   -0.2232 F   0  0  0  0  0  0  0  0  0  0  0  0
   10.9864   23.7503   -0.1861 C   0  0  0  0  0  0  0  0  0  0  0  0
   11.7249   24.0233   -1.3141 C   0  0  0  0  0  0  0  0  0  0  0  0
   13.0823   23.8153   -1.2706 C   0  0  0  0  0  0  0  0  0  0  0  0
   13.6350   23.3439   -0.0993 C   0  0  0  0  0  0  0  0  0  0  0  0
   12.9145   23.0854    0.9778 N   0  0  0  0  0  0  0  0  0  0  0  0
   11.5918   23.2796    0.9604 C   0  0  0  0  0  0  0  0  0  0  0  0
   13.9147   24.0889   -2.4403 C   0  0  0  0  0  0  0  0  0  0  0  0
   14.9044   23.2403   -2.8800 C   0  0  0  0  0  0  0  0  0  0  0  0
   15.6654   23.5541   -4.0009 C   0  0  0  0  0  0  0  0  0  0  0  0
   15.4342   24.7254   -4.6866 C   0  0  0  0  0  0  0  0  0  0  0  0
   14.4225   25.5599   -4.2107 C   0  0  0  0  0  0  0  0  0  0  0  0
   13.9704   26.7497   -4.6597 N   0  0  0  0  0  0  0  0  0  0  0  0
   12.9746   27.1656   -3.8627 C   0  0  0  0  0  0  0  0  0  0  0  0
   12.8350   26.2100   -2.9293 N   0  0  0  0  0  0  0  0  0  0  0  0
   13.7023   25.2277   -3.1212 N   0  0  0  0  0  0  0  0  0  0  0  0
   10.8237   22.9894    2.1522 C   0  0  0  0  0  0  0  0  0  0  0  0
   10.2148   22.7444    3.1131 N   0  0  0  0  0  0  0  0  0  0  0  0
  1  2  1  0  0  0
  2  3  2  0  0  0
  3  4  1  0  0  0
  4  5  2  0  0  0
  5  6  1  0  0  0
  6  7  2  0  0  0
  7 17  1  0  0  0
 17 18  3  0  0  0
  4  8  1  0  0  0
  8  9  2  0  0  0
  9 10  1  0  0  0
 10 11  2  0  0  0
 11 12  1  0  0  0
 12 13  2  0  0  0
 13 14  1  0  0  0
 14 15  2  0  0  0
 15 16  1  0  0  0
  7  2  1  0  0  0
 16  8  1  0  0  0
 16 12  1  0  0  0
M  END
> <minimizedAffinity>
-7.40408

> <CNNscore>
0.5060296059

> <CNNaffinity>
6.1315522194

> <CNN_VS>
3.1027469635

> <CNNaffinity_variance>
0.1545499861

$$$$
[H]c1nc2c([H])c([H])c([H])c(-c3c([H])nc(C#N)c(F)c3[H])n2n1


 18 20  0  0  0  0  0  0  0  0999 V2000
   16.8759   26.4286   -8.0710 F   0  0  0  0  0  0  0  0  0  0  0  0
   16.0827   26.1828   -6.9924 C   0  0  0  0  0  0  0  0  0  0  0  0
   16.5745   26.4577   -5.7374 C   0  0  0  0  0  0  0  0  0  0  0  0
   15.7692   26.2076   -4.6527 C   0  0  0  0  0  0  0  0  0  0  0  0
   14.5099   25.6942   -4.8769 C   0  0  0  0  0  0  0  0  0  0  0  0
   14.0490   25.4344   -6.0878 N   0  0  0  0  0  0  0  0  0  0  0  0
   14.8135   25.6691   -7.1592 C   0  0  0  0  0  0  0  0  0  0  0  0
   16.2414   26.4811   -3.2969 C   0  0  0  0  0  0  0  0  0  0  0  0
   16.9744   27.5961   -2.9615 C   0  0  0  0  0  0  0  0  0  0  0  0
   17.3968   27.8033   -1.6528 C   0  0  0  0  0  0  0  0  0  0  0  0
   17.0834   26.8883   -0.6729 C   0  0  0  0  0  0  0  0  0  0  0  0
   16.3389   25.7707   -1.0515 C   0  0  0  0  0  0  0  0  0  0  0  0
   15.8868   24.7218   -0.3325 N   0  0  0  0  0  0  0  0  0  0  0  0
   15.2133   23.8946   -1.1461 C   0  0  0  0  0  0  0  0  0  0  0  0
   15.2671   24.4607   -2.3628 N   0  0  0  0  0  0  0  0  0  0  0  0
   15.9443   25.5983   -2.3284 N   0  0  0  0  0  0  0  0  0  0  0  0
   14.2871   25.3765   -8.4752 C   0  0  0  0  0  0  0  0  0  0  0  0
   13.8665   25.1270   -9.5311 N   0  0  0  0  0  0  0  0  0  0  0  0
  1  2  1  0  0  0
  2  3  2  0  0  0
  3  4  1  0  0  0
  4  5  2  0  0  0
  5  6  1  0  0  0
  6  7  2  0  0  0
  7 17  1  0  0  0
 17 18  3  0  0  0
  4  8  1  0  0  0
  8  9  2  0  0  0
  9 10  1  0  0  0
 10 11  2  0  0  0
 11 12  1  0  0  0
 12 13  2  0  0  0
 13 14  1  0  0  0
 14 15  2  0  0  0
 15 16  1  0  0  0
  7  2  1  0  0  0
 16  8  1  0  0  0
 16 12  1  0  0  0
M  END
> <minimizedAffinity>
17.00175

> <CNNscore>
0.4766426980

> <CNNaffinity>
5.6239042282

> <CNN_VS>
2.6805927753

> <CNNaffinity_variance>
0.4407278895

$$$$
[H]c1nc2c([H])c([H])c([H])c(-c3c([H])nc(C#N)c(F)c3[H])n2n1


 18 20  0  0  0  0  0  0  0  0999 V2000
   15.4923   27.9278   -5.5339 F   0  0  0  0  0  0  0  0  0  0  0  0
   15.4136   26.6584   -5.0487 C   0  0  0  0  0  0  0  0  0  0  0  0
   15.2451   26.4804   -3.6951 C   0  0  0  0  0  0  0  0  0  0  0  0
   15.1663   25.1968   -3.2113 C   0  0  0  0  0  0  0  0  0  0  0  0
   15.2600   24.1531   -4.1066 C   0  0  0  0  0  0  0  0  0  0  0  0
   15.4219   24.3373   -5.4050 N   0  0  0  0  0  0  0  0  0  0  0  0
   15.5014   25.5767   -5.9001 C   0  0  0  0  0  0  0  0  0  0  0  0
   14.9875   24.9502   -1.7819 C   0  0  0  0  0  0  0  0  0  0  0  0
   16.0353   24.8123   -0.9010 C   0  0  0  0  0  0  0  0  0  0  0  0
   15.8034   24.5784    0.4502 C   0  0  0  0  0  0  0  0  0  0  0  0
   14.5140   24.4820    0.9230 C   0  0  0  0  0  0  0  0  0  0  0  0
   13.4782   24.6274   -0.0004 C   0  0  0  0  0  0  0  0  0  0  0  0
   12.1384   24.5844    0.1564 N   0  0  0  0  0  0  0  0  0  0  0  0
   11.5543   24.7811   -1.0352 C   0  0  0  0  0  0  0  0  0  0  0  0
   12.5610   24.9427   -1.9093 N   0  0  0  0  0  0  0  0  0  0  0  0
   13.7354   24.8533   -1.3038 N   0  0  0  0  0  0  0  0  0  0  0  0
   15.6787   25.7535   -7.3255 C   0  0  0  0  0  0  0  0  0  0  0  0
   15.8309   25.8844   -8.4717 N   0  0  0  0  0  0  0  0  0  0  0  0
  1  2  1  0  0  0
  2  3  2  0  0  0
  3  4  1  0  0  0
  4  5  2  0  0  0
  5  6  1  0  0  0
  6  7  2  0  0  0
  7 17  1  0  0  0
 17 18  3  0  0  0
  4  8  1  0  0  0
  8  9  2  0  0  0
  9 10  1  0  0  0
 10 11  2  0  0  0
 11 12  1  0  0  0
 12 13  2  0  0  0
 13 14  1  0  0  0
 14 15  2  0  0  0
 15 16  1  0  0  0
  7  2  1  0  0  0
 16  8  1  0  0  0
 16 12  1  0  0  0
M  END
> <minimizedAffinity>
-7.09529

> <CNNscore>
0.4619187117

> <CNNaffinity>
6.1923303604

> <CNN_VS>
2.8603532314

> <CNNaffinity_variance>
0.3573036492

$$$$
[H]c1nc2c([H])c(N([H])C([H])([H])C([H])([H])C([H])([H])N3C([H])([H])C([H])([H])OC([H])([H])C3([H])[H])c([H])c(-c3c([H])c([H])c(C#N)c([H])c3[H])n2n1


 28 31  0  0  0  0  0  0  0  0999 V2000
   13.5412   24.7443   -1.9590 C   0  0  0  0  0  0  0  0  0  0  0  0
   12.1526   24.5442   -1.8381 C   0  0  0  0  0  0  0  0  0  0  0  0
   11.5471   24.1922   -0.6594 C   0  0  0  0  0  0  0  0  0  0  0  0
   12.3497   24.0299    0.4509 C   0  0  0  0  0  0  0  0  0  0  0  0
   13.7075   24.2286    0.3196 C   0  0  0  0  0  0  0  0  0  0  0  0
   14.6853   24.1361    1.2507 N   0  0  0  0  0  0  0  0  0  0  0  0
   15.8443   24.4260    0.6450 C   0  0  0  0  0  0  0  0  0  0  0  0
   15.5560   24.6884   -0.6367 N   0  0  0  0  0  0  0  0  0  0  0  0
   14.2698   24.5759   -0.8610 N   0  0  0  0  0  0  0  0  0  0  0  0
   15.1422   25.7898   -5.7986 C   0  0  0  0  0  0  0  0  0  0  0  0
   15.5244   24.6494   -5.1342 C   0  0  0  0  0  0  0  0  0  0  0  0
   14.9852   24.3367   -3.9045 C   0  0  0  0  0  0  0  0  0  0  0  0
   14.0341   25.1385   -3.2605 C   0  0  0  0  0  0  0  0  0  0  0  0
   13.6567   26.2802   -3.9339 C   0  0  0  0  0  0  0  0  0  0  0  0
   14.2084   26.5771   -5.1668 C   0  0  0  0  0  0  0  0  0  0  0  0
   16.1264   26.4060   -8.1223 N   0  0  0  0  0  0  0  0  0  0  0  0
   15.6899   26.1432   -7.0898 C   0  0  0  0  0  0  0  0  0  0  0  0
   10.1358   24.0031   -0.5926 N   0  0  0  0  0  0  0  0  0  0  0  0
    9.5263   24.6999   -1.0338 H   0  0  0  0  0  0  0  0  0  0  0  0
    9.5404   22.8707    0.0725 C   0  0  0  0  0  0  0  0  0  0  0  0
    8.7776   23.3368    1.2647 C   0  0  0  0  0  0  0  0  0  0  0  0
    9.4198   23.0385    2.5789 C   0  0  0  0  0  0  0  0  0  0  0  0
    9.6577   24.1264    3.4337 N   0  0  0  0  0  0  0  0  0  0  0  0
    9.3950   25.4280    2.9774 C   0  0  0  0  0  0  0  0  0  0  0  0
    8.9012   26.3644    4.0897 C   0  0  0  0  0  0  0  0  0  0  0  0
    7.6875   25.9296    4.6083 O   0  0  0  0  0  0  0  0  0  0  0  0
    7.5888   24.5313    4.5384 C   0  0  0  0  0  0  0  0  0  0  0  0
    8.9720   23.9055    4.6998 C   0  0  0  0  0  0  0  0  0  0  0  0
 16 17  3  0  0  0
 17 10  1  0  0  0
 10 11  2  0  0  0
 11 12  1  0  0  0
 12 13  2  0  0  0
 13 14  1  0  0  0
 14 15  2  0  0  0
 13  1  1  0  0  0
  1  2  2  0  0  0
  2  3  1  0  0  0
  3 18  1  0  0  0
 18 20  1  0  0  0
 20 21  1  0  0  0
 21 22  1  0  0  0
 22 23  1  0  0  0
 23 24  1  0  0  0
 24 25  1  0  0  0
 25 26  1  0  0  0
 26 27  1  0  0  0
 27 28  1  0  0  0
  3  4  2  0  0  0
  4  5  1  0  0  0
  5  6  2  0  0  0
  6  7  1  0  0  0
  7  8  2  0  0  0
  8  9  1  0  0  0
 15 10  1  0  0  0
  9  1  1  0  0  0
 28 23  1  0  0  0
  9  5  1  0  0  0
 18 19  1  0  0  0
M  END
> <minimizedAffinity>
-8.47711

> <CNNscore>
0.7712827921

> <CNNaffinity>
7.1498718262

> <CNN_VS>
5.5145730972

> <CNNaffinity_variance>
0.2129637301

$$$$
[H]c1nc2c([H])c(N([H])C([H])([H])C([H])([H])C([H])([H])N3C([H])([H])C([H])([H])OC([H])([H])C3([H])[H])c([H])c(-c3c([H])c([H])c(C#N)c([H])c3[H])n2n1


 28 31  0  0  0  0  0  0  0  0999 V2000
   13.6483   24.6282   -2.0215 C   0  0  0  0  0  0  0  0  0  0  0  0
   12.2550   24.4306   -1.9721 C   0  0  0  0  0  0  0  0  0  0  0  0
   11.5798   24.1484   -0.8126 C   0  0  0  0  0  0  0  0  0  0  0  0
   12.3143   24.0567    0.3516 C   0  0  0  0  0  0  0  0  0  0  0  0
   13.6775   24.2521    0.2901 C   0  0  0  0  0  0  0  0  0  0  0  0
   14.5977   24.2198    1.2820 N   0  0  0  0  0  0  0  0  0  0  0  0
   15.7910   24.4768    0.7303 C   0  0  0  0  0  0  0  0  0  0  0  0
   15.5801   24.6600   -0.5798 N   0  0  0  0  0  0  0  0  0  0  0  0
   14.3097   24.5293   -0.8736 N   0  0  0  0  0  0  0  0  0  0  0  0
   15.2051   25.6951   -5.8734 C   0  0  0  0  0  0  0  0  0  0  0  0
   14.3057   26.4894   -5.2040 C   0  0  0  0  0  0  0  0  0  0  0  0
   13.8298   26.1229   -3.9630 C   0  0  0  0  0  0  0  0  0  0  0  0
   14.2185   24.9446   -3.3126 C   0  0  0  0  0  0  0  0  0  0  0  0
   15.1206   24.1542   -3.9913 C   0  0  0  0  0  0  0  0  0  0  0  0
   15.5870   24.5385   -5.2352 C   0  0  0  0  0  0  0  0  0  0  0  0
   16.1180   26.3508   -8.2153 N   0  0  0  0  0  0  0  0  0  0  0  0
   15.7220   26.0543   -7.1756 C   0  0  0  0  0  0  0  0  0  0  0  0
   10.1671   23.9584   -0.8192 N   0  0  0  0  0  0  0  0  0  0  0  0
    9.6594   24.0854   -1.7011 H   0  0  0  0  0  0  0  0  0  0  0  0
    9.4324   23.5966    0.3676 C   0  0  0  0  0  0  0  0  0  0  0  0
    9.3048   22.1139    0.4427 C   0  0  0  0  0  0  0  0  0  0  0  0
    7.9025   21.6019    0.4412 C   0  0  0  0  0  0  0  0  0  0  0  0
    7.7254   20.2290    0.2077 N   0  0  0  0  0  0  0  0  0  0  0  0
    6.4274   19.7257    0.0253 C   0  0  0  0  0  0  0  0  0  0  0  0
    6.3737   18.5517   -0.9630 C   0  0  0  0  0  0  0  0  0  0  0  0
    6.7712   18.9485   -2.2341 O   0  0  0  0  0  0  0  0  0  0  0  0
    7.7174   19.9824   -2.1595 C   0  0  0  0  0  0  0  0  0  0  0  0
    8.5703   19.8147   -0.9043 C   0  0  0  0  0  0  0  0  0  0  0  0
 16 17  3  0  0  0
 17 10  1  0  0  0
 10 11  2  0  0  0
 11 12  1  0  0  0
 12 13  2  0  0  0
 13 14  1  0  0  0
 14 15  2  0  0  0
 13  1  1  0  0  0
  1  2  2  0  0  0
  2  3  1  0  0  0
  3 18  1  0  0  0
 18 20  1  0  0  0
 20 21  1  0  0  0
 21 22  1  0  0  0
 22 23  1  0  0  0
 23 24  1  0  0  0
 24 25  1  0  0  0
 25 26  1  0  0  0
 26 27  1  0  0  0
 27 28  1  0  0  0
  3  4  2  0  0  0
  4  5  1  0  0  0
  5  6  2  0  0  0
  6  7  1  0  0  0
  7  8  2  0  0  0
  8  9  1  0  0  0
 15 10  1  0  0  0
  9  1  1  0  0  0
 28 23  1  0  0  0
  9  5  1  0  0  0
 18 19  1  0  0  0
M  END
> <minimizedAffinity>
-8.12949

> <CNNscore>
0.7668341398

> <CNNaffinity>
7.5201721191

> <CNN_VS>
5.7667245865

> <CNNaffinity_variance>
0.4996596873

$$$$
[H]c1nc2c([H])c(N([H])C([H])([H])C([H])([H])C([H])([H])N3C([H])([H])C([H])([H])OC([H])([H])C3([H])[H])c([H])c(-c3c([H])c([H])c(C#N)c([H])c3[H])n2n1


 28 31  0  0  0  0  0  0  0  0999 V2000
   13.5270   24.7568   -2.0004 C   0  0  0  0  0  0  0  0  0  0  0  0
   12.1361   24.5653   -1.8932 C   0  0  0  0  0  0  0  0  0  0  0  0
   11.5179   24.2084   -0.7225 C   0  0  0  0  0  0  0  0  0  0  0  0
   12.3096   24.0320    0.3934 C   0  0  0  0  0  0  0  0  0  0  0  0
   13.6698   24.2224    0.2755 C   0  0  0  0  0  0  0  0  0  0  0  0
   14.6388   24.1160    1.2143 N   0  0  0  0  0  0  0  0  0  0  0  0
   15.8050   24.4026    0.6210 C   0  0  0  0  0  0  0  0  0  0  0  0
   15.5297   24.6769   -0.6610 N   0  0  0  0  0  0  0  0  0  0  0  0
   14.2448   24.5749   -0.8974 N   0  0  0  0  0  0  0  0  0  0  0  0
   15.1689   25.8211   -5.8175 C   0  0  0  0  0  0  0  0  0  0  0  0
   15.5389   24.6740   -5.1579 C   0  0  0  0  0  0  0  0  0  0  0  0
   14.9867   24.3553   -3.9355 C   0  0  0  0  0  0  0  0  0  0  0  0
   14.0340   25.1576   -3.2944 C   0  0  0  0  0  0  0  0  0  0  0  0
   13.6689   26.3061   -3.9631 C   0  0  0  0  0  0  0  0  0  0  0  0
   14.2335   26.6089   -5.1887 C   0  0  0  0  0  0  0  0  0  0  0  0
   16.1635   26.4571   -8.1314 N   0  0  0  0  0  0  0  0  0  0  0  0
   15.7304   26.1807   -7.1010 C   0  0  0  0  0  0  0  0  0  0  0  0
   10.1048   24.0284   -0.6695 N   0  0  0  0  0  0  0  0  0  0  0  0
    9.5100   24.6524   -1.2249 H   0  0  0  0  0  0  0  0  0  0  0  0
    9.4879   23.0039    0.1360 C   0  0  0  0  0  0  0  0  0  0  0  0
    8.3357   23.5829    0.8828 C   0  0  0  0  0  0  0  0  0  0  0  0
    8.6657   24.1084    2.2405 C   0  0  0  0  0  0  0  0  0  0  0  0
    8.2428   23.3446    3.3398 N   0  0  0  0  0  0  0  0  0  0  0  0
    7.4222   22.2260    3.1234 C   0  0  0  0  0  0  0  0  0  0  0  0
    7.6871   21.0873    4.1188 C   0  0  0  0  0  0  0  0  0  0  0  0
    8.9804   20.5966    3.9858 O   0  0  0  0  0  0  0  0  0  0  0  0
    9.8566   21.6101    3.5676 C   0  0  0  0  0  0  0  0  0  0  0  0
    9.4014   22.9540    4.1316 C   0  0  0  0  0  0  0  0  0  0  0  0
 16 17  3  0  0  0
 17 10  1  0  0  0
 10 11  2  0  0  0
 11 12  1  0  0  0
 12 13  2  0  0  0
 13 14  1  0  0  0
 14 15  2  0  0  0
 13  1  1  0  0  0
  1  2  2  0  0  0
  2  3  1  0  0  0
  3 18  1  0  0  0
 18 20  1  0  0  0
 20 21  1  0  0  0
 21 22  1  0  0  0
 22 23  1  0  0  0
 23 24  1  0  0  0
 24 25  1  0  0  0
 25 26  1  0  0  0
 26 27  1  0  0  0
 27 28  1  0  0  0
  3  4  2  0  0  0
  4  5  1  0  0  0
  5  6  2  0  0  0
  6  7  1  0  0  0
  7  8  2  0  0  0
  8  9  1  0  0  0
 15 10  1  0  0  0
  9  1  1  0  0  0
 28 23  1  0  0  0
  9  5  1  0  0  0
 18 19  1  0  0  0
M  END
> <minimizedAffinity>
-8.32372

> <CNNscore>
0.7592711449

> <CNNaffinity>
7.1693177223

> <CNN_VS>
5.4434561729

> <CNNaffinity_variance>
0.1335253268

$$$$
[H]c1nc2c([H])c(N([H])C([H])([H])C([H])([H])C([H])([H])N3C([H])([H])C([H])([H])OC([H])([H])C3([H])[H])c([H])c(-c3c([H])c([H])c(C#N)c([H])c3[H])n2n1


 28 31  0  0  0  0  0  0  0  0999 V2000
   13.6884   24.9011   -2.0057 C   0  0  0  0  0  0  0  0  0  0  0  0
   12.2965   24.7887   -1.8254 C   0  0  0  0  0  0  0  0  0  0  0  0
   11.7180   24.5269   -0.6101 C   0  0  0  0  0  0  0  0  0  0  0  0
   12.5525   24.3684    0.4769 C   0  0  0  0  0  0  0  0  0  0  0  0
   13.9133   24.4807    0.2874 C   0  0  0  0  0  0  0  0  0  0  0  0
   14.9197   24.3733    1.1859 N   0  0  0  0  0  0  0  0  0  0  0  0
   16.0690   24.5668    0.5256 C   0  0  0  0  0  0  0  0  0  0  0  0
   15.7465   24.7871   -0.7558 N   0  0  0  0  0  0  0  0  0  0  0  0
   14.4483   24.7403   -0.9279 N   0  0  0  0  0  0  0  0  0  0  0  0
   15.1974   25.6762   -5.9454 C   0  0  0  0  0  0  0  0  0  0  0  0
   15.5479   24.5519   -5.2376 C   0  0  0  0  0  0  0  0  0  0  0  0
   15.0393   24.3270   -3.9760 C   0  0  0  0  0  0  0  0  0  0  0  0
   14.1522   25.2060   -3.3415 C   0  0  0  0  0  0  0  0  0  0  0  0
   13.8062   26.3309   -4.0586 C   0  0  0  0  0  0  0  0  0  0  0  0
   14.3264   26.5392   -5.3230 C   0  0  0  0  0  0  0  0  0  0  0  0
   16.1180   26.1639   -8.3250 N   0  0  0  0  0  0  0  0  0  0  0  0
   15.7142   25.9380   -7.2706 C   0  0  0  0  0  0  0  0  0  0  0  0
   10.3019   24.4242   -0.4835 N   0  0  0  0  0  0  0  0  0  0  0  0
    9.7185   25.1628   -0.8906 H   0  0  0  0  0  0  0  0  0  0  0  0
    9.6665   23.3223    0.1956 C   0  0  0  0  0  0  0  0  0  0  0  0
    9.7941   22.0878   -0.6289 C   0  0  0  0  0  0  0  0  0  0  0  0
    9.9175   20.8204    0.1503 C   0  0  0  0  0  0  0  0  0  0  0  0
   11.1901   20.2310    0.2112 N   0  0  0  0  0  0  0  0  0  0  0  0
   12.2669   20.8537   -0.4402 C   0  0  0  0  0  0  0  0  0  0  0  0
   13.6010   20.6684    0.2969 C   0  0  0  0  0  0  0  0  0  0  0  0
   13.5666   21.2641    1.5520 O   0  0  0  0  0  0  0  0  0  0  0  0
   12.2671   21.2349    2.0812 C   0  0  0  0  0  0  0  0  0  0  0  0
   11.5407   19.9801    1.6026 C   0  0  0  0  0  0  0  0  0  0  0  0
 16 17  3  0  0  0
 17 10  1  0  0  0
 10 11  2  0  0  0
 11 12  1  0  0  0
 12 13  2  0  0  0
 13 14  1  0  0  0
 14 15  2  0  0  0
 13  1  1  0  0  0
  1  2  2  0  0  0
  2  3  1  0  0  0
  3 18  1  0  0  0
 18 20  1  0  0  0
 20 21  1  0  0  0
 21 22  1  0  0  0
 22 23  1  0  0  0
 23 24  1  0  0  0
 24 25  1  0  0  0
 25 26  1  0  0  0
 26 27  1  0  0  0
 27 28  1  0  0  0
  3  4  2  0  0  0
  4  5  1  0  0  0
  5  6  2  0  0  0
  6  7  1  0  0  0
  7  8  2  0  0  0
  8  9  1  0  0  0
 15 10  1  0  0  0
  9  1  1  0  0  0
 28 23  1  0  0  0
  9  5  1  0  0  0
 18 19  1  0  0  0
M  END
> <minimizedAffinity>
-8.08193

> <CNNscore>
0.7323069572

> <CNNaffinity>
7.5817651749

> <CNN_VS>
5.5521793365

> <CNNaffinity_variance>
0.1965576410

$$$$
[H]c1nc2c([H])c(N([H])C([H])([H])C([H])([H])C([H])([H])N3C([H])([H])C([H])([H])OC([H])([H])C3([H])[H])c([H])c(-c3c([H])c([H])c(C#N)c([H])c3[H])n2n1


 28 31  0  0  0  0  0  0  0  0999 V2000
   12.8823   23.1798   -1.2809 C   0  0  0  0  0  0  0  0  0  0  0  0
   11.4768   23.0968   -1.2940 C   0  0  0  0  0  0  0  0  0  0  0  0
   10.7679   22.2738   -0.4573 C   0  0  0  0  0  0  0  0  0  0  0  0
   11.4797   21.4966    0.4329 C   0  0  0  0  0  0  0  0  0  0  0  0
   12.8553   21.5868    0.4359 C   0  0  0  0  0  0  0  0  0  0  0  0
   13.7590   20.9398    1.2080 N   0  0  0  0  0  0  0  0  0  0  0  0
   14.9756   21.3654    0.8434 C   0  0  0  0  0  0  0  0  0  0  0  0
   14.7948   22.2585   -0.1385 N   0  0  0  0  0  0  0  0  0  0  0  0
   13.5210   22.4113   -0.4053 N   0  0  0  0  0  0  0  0  0  0  0  0
   14.5291   26.0451   -4.0154 C   0  0  0  0  0  0  0  0  0  0  0  0
   13.3996   26.3055   -3.2776 C   0  0  0  0  0  0  0  0  0  0  0  0
   12.8993   25.3667   -2.4006 C   0  0  0  0  0  0  0  0  0  0  0  0
   13.4909   24.1122   -2.2042 C   0  0  0  0  0  0  0  0  0  0  0  0
   14.6231   23.8596   -2.9482 C   0  0  0  0  0  0  0  0  0  0  0  0
   15.1103   24.8138   -3.8227 C   0  0  0  0  0  0  0  0  0  0  0  0
   15.5252   27.7858   -5.6663 N   0  0  0  0  0  0  0  0  0  0  0  0
   15.0772   27.0108   -4.9422 C   0  0  0  0  0  0  0  0  0  0  0  0
    9.3441   22.2296   -0.5120 N   0  0  0  0  0  0  0  0  0  0  0  0
    8.8486   22.9840   -0.9989 H   0  0  0  0  0  0  0  0  0  0  0  0
    8.5821   21.1652    0.0925 C   0  0  0  0  0  0  0  0  0  0  0  0
    7.5380   21.7437    0.9846 C   0  0  0  0  0  0  0  0  0  0  0  0
    8.0204   22.1484    2.3381 C   0  0  0  0  0  0  0  0  0  0  0  0
    8.8562   23.2741    2.4067 N   0  0  0  0  0  0  0  0  0  0  0  0
    8.2823   24.5556    2.4162 C   0  0  0  0  0  0  0  0  0  0  0  0
    9.0750   25.5605    3.2645 C   0  0  0  0  0  0  0  0  0  0  0  0
    9.0945   25.1818    4.6014 O   0  0  0  0  0  0  0  0  0  0  0  0
    9.0471   23.7844    4.7235 C   0  0  0  0  0  0  0  0  0  0  0  0
    9.7612   23.1363    3.5398 C   0  0  0  0  0  0  0  0  0  0  0  0
 16 17  3  0  0  0
 17 10  1  0  0  0
 10 11  2  0  0  0
 11 12  1  0  0  0
 12 13  2  0  0  0
 13 14  1  0  0  0
 14 15  2  0  0  0
 13  1  1  0  0  0
  1  2  2  0  0  0
  2  3  1  0  0  0
  3 18  1  0  0  0
 18 20  1  0  0  0
 20 21  1  0  0  0
 21 22  1  0  0  0
 22 23  1  0  0  0
 23 24  1  0  0  0
 24 25  1  0  0  0
 25 26  1  0  0  0
 26 27  1  0  0  0
 27 28  1  0  0  0
  3  4  2  0  0  0
  4  5  1  0  0  0
  5  6  2  0  0  0
  6  7  1  0  0  0
  7  8  2  0  0  0
  8  9  1  0  0  0
 15 10  1  0  0  0
  9  1  1  0  0  0
 28 23  1  0  0  0
  9  5  1  0  0  0
 18 19  1  0  0  0
M  END
> <minimizedAffinity>
-8.34868

> <CNNscore>
0.6103594303

> <CNNaffinity>
7.0885267258

> <CNN_VS>
4.3265490532

> <CNNaffinity_variance>
0.2301916182

$$$$
[H]c1nc2c([H])c(N([H])C([H])([H])C([H])([H])C([H])([H])N3C([H])([H])C([H])([H])OC([H])([H])C3([H])[H])c([H])c(-c3c([H])c([H])c(C#N)c([H])c3[H])n2n1


 28 31  0  0  0  0  0  0  0  0999 V2000
   13.6833   24.3915   -1.4014 C   0  0  0  0  0  0  0  0  0  0  0  0
   12.3012   24.1819   -1.2326 C   0  0  0  0  0  0  0  0  0  0  0  0
   11.3500   24.8191   -1.9870 C   0  0  0  0  0  0  0  0  0  0  0  0
   11.7835   25.7043   -2.9522 C   0  0  0  0  0  0  0  0  0  0  0  0
   13.1390   25.9009   -3.1076 C   0  0  0  0  0  0  0  0  0  0  0  0
   13.7990   26.7015   -3.9766 N   0  0  0  0  0  0  0  0  0  0  0  0
   15.1097   26.5463   -3.7484 C   0  0  0  0  0  0  0  0  0  0  0  0
   15.2265   25.6599   -2.7508 N   0  0  0  0  0  0  0  0  0  0  0  0
   14.0490   25.2534   -2.3440 N   0  0  0  0  0  0  0  0  0  0  0  0
   16.1824   21.9930    1.1284 C   0  0  0  0  0  0  0  0  0  0  0  0
   15.1030   21.4682    0.4596 C   0  0  0  0  0  0  0  0  0  0  0  0
   14.3235   22.2637   -0.3530 C   0  0  0  0  0  0  0  0  0  0  0  0
   14.5692   23.6287   -0.5496 C   0  0  0  0  0  0  0  0  0  0  0  0
   15.6536   24.1465    0.1251 C   0  0  0  0  0  0  0  0  0  0  0  0
   16.4241   23.3328    0.9356 C   0  0  0  0  0  0  0  0  0  0  0  0
   17.6824   20.5511    2.6837 N   0  0  0  0  0  0  0  0  0  0  0  0
   17.0184   21.1828    1.9868 C   0  0  0  0  0  0  0  0  0  0  0  0
    9.9628   24.5688   -1.7747 N   0  0  0  0  0  0  0  0  0  0  0  0
    9.2967   24.8516   -2.5014 H   0  0  0  0  0  0  0  0  0  0  0  0
    9.4681   23.9357   -0.5774 C   0  0  0  0  0  0  0  0  0  0  0  0
    9.7266   22.4698   -0.6450 C   0  0  0  0  0  0  0  0  0  0  0  0
    8.9985   21.6547    0.3719 C   0  0  0  0  0  0  0  0  0  0  0  0
    9.7778   20.8710    1.2375 N   0  0  0  0  0  0  0  0  0  0  0  0
   11.1120   20.5942    0.8989 C   0  0  0  0  0  0  0  0  0  0  0  0
   12.0335   20.4999    2.1235 C   0  0  0  0  0  0  0  0  0  0  0  0
   12.0940   21.7128    2.7992 O   0  0  0  0  0  0  0  0  0  0  0  0
   10.8861   22.4155    2.6695 C   0  0  0  0  0  0  0  0  0  0  0  0
    9.7215   21.4322    2.5806 C   0  0  0  0  0  0  0  0  0  0  0  0
 16 17  3  0  0  0
 17 10  1  0  0  0
 10 11  2  0  0  0
 11 12  1  0  0  0
 12 13  2  0  0  0
 13 14  1  0  0  0
 14 15  2  0  0  0
 13  1  1  0  0  0
  1  2  2  0  0  0
  2  3  1  0  0  0
  3 18  1  0  0  0
 18 20  1  0  0  0
 20 21  1  0  0  0
 21 22  1  0  0  0
 22 23  1  0  0  0
 23 24  1  0  0  0
 24 25  1  0  0  0
 25 26  1  0  0  0
 26 27  1  0  0  0
 27 28  1  0  0  0
  3  4  2  0  0  0
  4  5  1  0  0  0
  5  6  2  0  0  0
  6  7  1  0  0  0
  7  8  2  0  0  0
  8  9  1  0  0  0
 15 10  1  0  0  0
  9  1  1  0  0  0
 28 23  1  0  0  0
  9  5  1  0  0  0
 18 19  1  0  0  0
M  END
> <minimizedAffinity>
3.46649

> <CNNscore>
0.6058226824

> <CNNaffinity>
7.1693496704

> <CNN_VS>
4.3433547020

> <CNNaffinity_variance>
0.8453823328

$$$$
[H]c1nc2c([H])c(N([H])C([H])([H])C([H])([H])C([H])([H])N3C([H])([H])C([H])([H])OC([H])([H])C3([H])[H])c([H])c(-c3c([H])c([H])c(C#N)c([H])c3[H])n2n1


 28 31  0  0  0  0  0  0  0  0999 V2000
   12.7745   23.7021   -1.2389 C   0  0  0  0  0  0  0  0  0  0  0  0
   11.4036   23.9455   -1.0287 C   0  0  0  0  0  0  0  0  0  0  0  0
   10.6680   23.3017   -0.0672 C   0  0  0  0  0  0  0  0  0  0  0  0
   11.3159   22.3746    0.7227 C   0  0  0  0  0  0  0  0  0  0  0  0
   12.6579   22.1451    0.5069 C   0  0  0  0  0  0  0  0  0  0  0  0
   13.5010   21.3013    1.1463 N   0  0  0  0  0  0  0  0  0  0  0  0
   14.7085   21.4377    0.5828 C   0  0  0  0  0  0  0  0  0  0  0  0
   14.5825   22.3560   -0.3844 N   0  0  0  0  0  0  0  0  0  0  0  0
   13.3516   22.8004   -0.4522 N   0  0  0  0  0  0  0  0  0  0  0  0
   14.5517   26.1069   -4.3142 C   0  0  0  0  0  0  0  0  0  0  0  0
   13.4504   26.5240   -3.6062 C   0  0  0  0  0  0  0  0  0  0  0  0
   12.9071   25.7313   -2.6177 C   0  0  0  0  0  0  0  0  0  0  0  0
   13.4249   24.4761   -2.2734 C   0  0  0  0  0  0  0  0  0  0  0  0
   14.5292   24.0658   -2.9885 C   0  0  0  0  0  0  0  0  0  0  0  0
   15.0604   24.8748   -3.9764 C   0  0  0  0  0  0  0  0  0  0  0  0
   15.6266   27.5700   -6.1721 N   0  0  0  0  0  0  0  0  0  0  0  0
   15.1437   26.9172   -5.3558 C   0  0  0  0  0  0  0  0  0  0  0  0
    9.2820   23.5874    0.1036 N   0  0  0  0  0  0  0  0  0  0  0  0
    8.9005   24.4383   -0.3232 H   0  0  0  0  0  0  0  0  0  0  0  0
    8.4037   22.7242    0.8537 C   0  0  0  0  0  0  0  0  0  0  0  0
    7.9295   23.4346    2.0747 C   0  0  0  0  0  0  0  0  0  0  0  0
    8.7827   23.2446    3.2848 C   0  0  0  0  0  0  0  0  0  0  0  0
    9.2889   24.4026    3.8960 N   0  0  0  0  0  0  0  0  0  0  0  0
    9.1382   25.6409    3.2514 C   0  0  0  0  0  0  0  0  0  0  0  0
    8.9457   26.8069    4.2317 C   0  0  0  0  0  0  0  0  0  0  0  0
    7.7754   26.6560    4.9658 O   0  0  0  0  0  0  0  0  0  0  0  0
    7.4808   25.2974    5.1588 C   0  0  0  0  0  0  0  0  0  0  0  0
    8.7761   24.4950    5.2564 C   0  0  0  0  0  0  0  0  0  0  0  0
 16 17  3  0  0  0
 17 10  1  0  0  0
 10 11  2  0  0  0
 11 12  1  0  0  0
 12 13  2  0  0  0
 13 14  1  0  0  0
 14 15  2  0  0  0
 13  1  1  0  0  0
  1  2  2  0  0  0
  2  3  1  0  0  0
  3 18  1  0  0  0
 18 20  1  0  0  0
 20 21  1  0  0  0
 21 22  1  0  0  0
 22 23  1  0  0  0
 23 24  1  0  0  0
 24 25  1  0  0  0
 25 26  1  0  0  0
 26 27  1  0  0  0
 27 28  1  0  0  0
  3  4  2  0  0  0
  4  5  1  0  0  0
  5  6  2  0  0  0
  6  7  1  0  0  0
  7  8  2  0  0  0
  8  9  1  0  0  0
 15 10  1  0  0  0
  9  1  1  0  0  0
 28 23  1  0  0  0
  9  5  1  0  0  0
 18 19  1  0  0  0
M  END
> <minimizedAffinity>
-8.63420

> <CNNscore>
0.5841674805

> <CNNaffinity>
6.8824143410

> <CNN_VS>
4.0204825401

> <CNNaffinity_variance>
0.1344027370

$$$$
[H]c1nc2c([H])c(N([H])C([H])([H])C([H])([H])C([H])([H])N3C([H])([H])C([H])([H])OC([H])([H])C3([H])[H])c([H])c(-c3c([H])c([H])c(C#N)c([H])c3[H])n2n1


 28 31  0  0  0  0  0  0  0  0999 V2000
   12.8532   23.1993   -1.3091 C   0  0  0  0  0  0  0  0  0  0  0  0
   11.4670   22.9616   -1.3762 C   0  0  0  0  0  0  0  0  0  0  0  0
   10.8270   22.0389   -0.5893 C   0  0  0  0  0  0  0  0  0  0  0  0
   11.5911   21.3176    0.3045 C   0  0  0  0  0  0  0  0  0  0  0  0
   12.9471   21.5595    0.3606 C   0  0  0  0  0  0  0  0  0  0  0  0
   13.8912   20.9925    1.1473 N   0  0  0  0  0  0  0  0  0  0  0  0
   15.0640   21.5617    0.8396 C   0  0  0  0  0  0  0  0  0  0  0  0
   14.8174   22.4600   -0.1231 N   0  0  0  0  0  0  0  0  0  0  0  0
   13.5441   22.4790   -0.4322 N   0  0  0  0  0  0  0  0  0  0  0  0
   14.5893   26.1382   -3.9068 C   0  0  0  0  0  0  0  0  0  0  0  0
   15.1528   24.8979   -3.7280 C   0  0  0  0  0  0  0  0  0  0  0  0
   14.5660   23.9717   -2.8921 C   0  0  0  0  0  0  0  0  0  0  0  0
   13.3842   24.2222   -2.1831 C   0  0  0  0  0  0  0  0  0  0  0  0
   12.8261   25.4686   -2.3683 C   0  0  0  0  0  0  0  0  0  0  0  0
   13.4290   26.3845   -3.2111 C   0  0  0  0  0  0  0  0  0  0  0  0
   15.6358   27.9243   -5.4760 N   0  0  0  0  0  0  0  0  0  0  0  0
   15.1816   27.1295   -4.7776 C   0  0  0  0  0  0  0  0  0  0  0  0
    9.4198   21.8389   -0.6976 N   0  0  0  0  0  0  0  0  0  0  0  0
    8.9052   22.3559   -1.4185 H   0  0  0  0  0  0  0  0  0  0  0  0
    8.7000   20.9393    0.1693 C   0  0  0  0  0  0  0  0  0  0  0  0
    7.6504   21.6938    0.9105 C   0  0  0  0  0  0  0  0  0  0  0  0
    7.8204   23.1769    0.9068 C   0  0  0  0  0  0  0  0  0  0  0  0
    7.8517   23.8180    2.1553 N   0  0  0  0  0  0  0  0  0  0  0  0
    7.4411   23.1143    3.2988 C   0  0  0  0  0  0  0  0  0  0  0  0
    8.2236   23.5105    4.5591 C   0  0  0  0  0  0  0  0  0  0  0  0
    9.5721   23.2004    4.4294 O   0  0  0  0  0  0  0  0  0  0  0  0
    9.9765   23.2896    3.0884 C   0  0  0  0  0  0  0  0  0  0  0  0
    9.1774   24.3793    2.3776 C   0  0  0  0  0  0  0  0  0  0  0  0
 16 17  3  0  0  0
 17 10  1  0  0  0
 10 11  2  0  0  0
 11 12  1  0  0  0
 12 13  2  0  0  0
 13 14  1  0  0  0
 14 15  2  0  0  0
 13  1  1  0  0  0
  1  2  2  0  0  0
  2  3  1  0  0  0
  3 18  1  0  0  0
 18 20  1  0  0  0
 20 21  1  0  0  0
 21 22  1  0  0  0
 22 23  1  0  0  0
 23 24  1  0  0  0
 24 25  1  0  0  0
 25 26  1  0  0  0
 26 27  1  0  0  0
 27 28  1  0  0  0
  3  4  2  0  0  0
  4  5  1  0  0  0
  5  6  2  0  0  0
  6  7  1  0  0  0
  7  8  2  0  0  0
  8  9  1  0  0  0
 15 10  1  0  0  0
  9  1  1  0  0  0
 28 23  1  0  0  0
  9  5  1  0  0  0
 18 19  1  0  0  0
M  END
> <minimizedAffinity>
-8.15837

> <CNNscore>
0.5804913640

> <CNNaffinity>
7.0925588608

> <CNN_VS>
4.1171693802

> <CNNaffinity_variance>
0.2228338420

$$$$
[H]c1nc2c([H])c(N([H])C([H])([H])C([H])([H])C([H])([H])N3C([H])([H])C([H])([H])OC([H])([H])C3([H])[H])c([H])c(-c3c([H])c([H])c(C#N)c([H])c3[H])n2n1


 28 31  0  0  0  0  0  0  0  0999 V2000
   14.5244   24.0363   -1.9500 C   0  0  0  0  0  0  0  0  0  0  0  0
   13.3900   23.2195   -1.7812 C   0  0  0  0  0  0  0  0  0  0  0  0
   13.0403   22.6638   -0.5775 C   0  0  0  0  0  0  0  0  0  0  0  0
   13.8483   22.9264    0.5094 C   0  0  0  0  0  0  0  0  0  0  0  0
   14.9560   23.7274    0.3312 C   0  0  0  0  0  0  0  0  0  0  0  0
   15.8833   24.1274    1.2322 N   0  0  0  0  0  0  0  0  0  0  0  0
   16.7633   24.9023    0.5846 C   0  0  0  0  0  0  0  0  0  0  0  0
   16.3608   24.9614   -0.6918 N   0  0  0  0  0  0  0  0  0  0  0  0
   15.2696   24.2589   -0.8729 N   0  0  0  0  0  0  0  0  0  0  0  0
   15.3452   25.5118   -5.8931 C   0  0  0  0  0  0  0  0  0  0  0  0
   15.8844   24.3374   -5.4262 C   0  0  0  0  0  0  0  0  0  0  0  0
   15.5948   23.8854   -4.1563 C   0  0  0  0  0  0  0  0  0  0  0  0
   14.7524   24.5733   -3.2736 C   0  0  0  0  0  0  0  0  0  0  0  0
   14.2162   25.7501   -3.7501 C   0  0  0  0  0  0  0  0  0  0  0  0
   14.5180   26.1873   -5.0269 C   0  0  0  0  0  0  0  0  0  0  0  0
   15.8744   26.3987   -8.2766 N   0  0  0  0  0  0  0  0  0  0  0  0
   15.6303   26.0101   -7.2206 C   0  0  0  0  0  0  0  0  0  0  0  0
   11.8795   21.8444   -0.4623 N   0  0  0  0  0  0  0  0  0  0  0  0
   10.9671   22.2517   -0.6931 H   0  0  0  0  0  0  0  0  0  0  0  0
   11.9459   20.4696   -0.0329 C   0  0  0  0  0  0  0  0  0  0  0  0
   11.5909   20.3804    1.4116 C   0  0  0  0  0  0  0  0  0  0  0  0
   10.3547   21.1201    1.8027 C   0  0  0  0  0  0  0  0  0  0  0  0
    9.2843   21.0977    0.8947 N   0  0  0  0  0  0  0  0  0  0  0  0
    7.9929   20.8069    1.3629 C   0  0  0  0  0  0  0  0  0  0  0  0
    6.8949   21.5610    0.5991 C   0  0  0  0  0  0  0  0  0  0  0  0
    7.0211   22.9347    0.7673 O   0  0  0  0  0  0  0  0  0  0  0  0
    8.3671   23.2935    0.9387 C   0  0  0  0  0  0  0  0  0  0  0  0
    9.2614   22.3455    0.1433 C   0  0  0  0  0  0  0  0  0  0  0  0
 16 17  3  0  0  0
 17 10  1  0  0  0
 10 11  2  0  0  0
 11 12  1  0  0  0
 12 13  2  0  0  0
 13 14  1  0  0  0
 14 15  2  0  0  0
 13  1  1  0  0  0
  1  2  2  0  0  0
  2  3  1  0  0  0
  3 18  1  0  0  0
 18 20  1  0  0  0
 20 21  1  0  0  0
 21 22  1  0  0  0
 22 23  1  0  0  0
 23 24  1  0  0  0
 24 25  1  0  0  0
 25 26  1  0  0  0
 26 27  1  0  0  0
 27 28  1  0  0  0
  3  4  2  0  0  0
  4  5  1  0  0  0
  5  6  2  0  0  0
  6  7  1  0  0  0
  7  8  2  0  0  0
  8  9  1  0  0  0
 15 10  1  0  0  0
  9  1  1  0  0  0
 28 23  1  0  0  0
  9  5  1  0  0  0
 18 19  1  0  0  0
M  END
> <minimizedAffinity>
-5.86871

> <CNNscore>
0.5216213465

> <CNNaffinity>
7.0977616310

> <CNN_VS>
3.7023439407

> <CNNaffinity_variance>
0.2867227197

$$$$
[H]c1nc2c([H])c(N([H])C([H])([H])C3([H])OC([H])([H])C([H])([H])C3([H])[H])c([H])c(-c3c([H])c([H])c(C#N)c([H])c3[H])n2n1


 25 28  0  0  0  0  0  0  0  0999 V2000
   13.2482   24.7542   -1.9127 C   0  0  0  0  0  0  0  0  0  0  0  0
   11.8905   24.5400   -1.7872 C   0  0  0  0  0  0  0  0  0  0  0  0
   11.3563   24.1165   -0.5890 C   0  0  0  0  0  0  0  0  0  0  0  0
   12.2398   23.9256    0.4479 C   0  0  0  0  0  0  0  0  0  0  0  0
   13.5983   24.1318    0.3498 C   0  0  0  0  0  0  0  0  0  0  0  0
   14.6433   24.0205    1.1882 N   0  0  0  0  0  0  0  0  0  0  0  0
   15.7447   24.3667    0.5024 C   0  0  0  0  0  0  0  0  0  0  0  0
   15.3620   24.6847   -0.7436 N   0  0  0  0  0  0  0  0  0  0  0  0
   14.0497   24.5459   -0.8532 N   0  0  0  0  0  0  0  0  0  0  0  0
   15.0312   25.9549   -5.5979 C   0  0  0  0  0  0  0  0  0  0  0  0
   15.3986   24.7768   -4.9819 C   0  0  0  0  0  0  0  0  0  0  0  0
   14.8011   24.4156   -3.7868 C   0  0  0  0  0  0  0  0  0  0  0  0
   13.8357   25.2052   -3.1805 C   0  0  0  0  0  0  0  0  0  0  0  0
   13.4748   26.3688   -3.7913 C   0  0  0  0  0  0  0  0  0  0  0  0
   14.0726   26.7348   -4.9916 C   0  0  0  0  0  0  0  0  0  0  0  0
   16.1935   26.5895   -7.8430 N   0  0  0  0  0  0  0  0  0  0  0  0
   15.6651   26.3079   -6.8366 C   0  0  0  0  0  0  0  0  0  0  0  0
    9.9491   23.8893   -0.4411 N   0  0  0  0  0  0  0  0  0  0  0  0
    9.2886   24.5259   -0.9562 H   0  0  0  0  0  0  0  0  0  0  0  0
    9.4373   22.8323    0.3790 C   0  0  0  0  0  0  0  0  0  0  0  0
    8.4970   23.3997    1.4203 C   0  0  0  0  0  0  0  0  0  0  0  0
    8.3179   22.3817    2.5033 C   0  0  0  0  0  0  0  0  0  0  0  0
    8.9168   23.0077    3.7479 C   0  0  0  0  0  0  0  0  0  0  0  0
    9.6455   24.1992    3.1653 C   0  0  0  0  0  0  0  0  0  0  0  0
    9.0085   24.5351    1.9976 O   0  0  0  0  0  0  0  0  0  0  0  0
 16 17  3  0  0  0
 17 10  1  0  0  0
 10 11  2  0  0  0
 11 12  1  0  0  0
 12 13  2  0  0  0
 13 14  1  0  0  0
 14 15  2  0  0  0
 13  1  1  0  0  0
  1  2  2  0  0  0
  2  3  1  0  0  0
  3 18  1  0  0  0
 18 20  1  0  0  0
 20 21  1  0  0  0
 21 22  1  0  0  0
 22 23  1  0  0  0
 23 24  1  0  0  0
 24 25  1  0  0  0
  3  4  2  0  0  0
  4  5  1  0  0  0
  5  6  2  0  0  0
  6  7  1  0  0  0
  7  8  2  0  0  0
  8  9  1  0  0  0
 15 10  1  0  0  0
  9  1  1  0  0  0
 25 21  1  0  0  0
  9  5  1  0  0  0
 18 19  1  0  0  0
M  END
> <minimizedAffinity>
-8.79734

> <CNNscore>
0.8230598569

> <CNNaffinity>
7.0720281601

> <CNN_VS>
5.8207025528

> <CNNaffinity_variance>
0.1320812404

$$$$
[H]c1nc2c([H])c(N([H])C([H])([H])C3([H])OC([H])([H])C([H])([H])C3([H])[H])c([H])c(-c3c([H])c([H])c(C#N)c([H])c3[H])n2n1


 25 28  0  0  0  0  0  0  0  0999 V2000
   13.3186   24.7086   -1.9121 C   0  0  0  0  0  0  0  0  0  0  0  0
   11.9724   24.4321   -1.7854 C   0  0  0  0  0  0  0  0  0  0  0  0
   11.4554   24.0062   -0.5804 C   0  0  0  0  0  0  0  0  0  0  0  0
   12.3439   23.8774    0.4617 C   0  0  0  0  0  0  0  0  0  0  0  0
   13.6913   24.1464    0.3625 C   0  0  0  0  0  0  0  0  0  0  0  0
   14.7380   24.1010    1.2051 N   0  0  0  0  0  0  0  0  0  0  0  0
   15.8236   24.4864    0.5151 C   0  0  0  0  0  0  0  0  0  0  0  0
   15.4299   24.7623   -0.7374 N   0  0  0  0  0  0  0  0  0  0  0  0
   14.1260   24.5588   -0.8472 N   0  0  0  0  0  0  0  0  0  0  0  0
   15.0483   25.9200   -5.6191 C   0  0  0  0  0  0  0  0  0  0  0  0
   15.4262   24.7413   -5.0108 C   0  0  0  0  0  0  0  0  0  0  0  0
   14.8460   24.3765   -3.8083 C   0  0  0  0  0  0  0  0  0  0  0  0
   13.8878   25.1632   -3.1869 C   0  0  0  0  0  0  0  0  0  0  0  0
   13.5164   26.3274   -3.7903 C   0  0  0  0  0  0  0  0  0  0  0  0
   14.0969   26.6969   -4.9980 C   0  0  0  0  0  0  0  0  0  0  0  0
   16.1768   26.5586   -7.8803 N   0  0  0  0  0  0  0  0  0  0  0  0
   15.6643   26.2766   -6.8658 C   0  0  0  0  0  0  0  0  0  0  0  0
   10.0603   23.7148   -0.4312 N   0  0  0  0  0  0  0  0  0  0  0  0
    9.4318   23.8670   -1.2612 H   0  0  0  0  0  0  0  0  0  0  0  0
    9.5182   23.2302    0.8028 C   0  0  0  0  0  0  0  0  0  0  0  0
    9.2262   21.7495    0.6892 C   0  0  0  0  0  0  0  0  0  0  0  0
    9.7464   21.2627   -0.6275 C   0  0  0  0  0  0  0  0  0  0  0  0
   10.8529   20.2834   -0.2863 C   0  0  0  0  0  0  0  0  0  0  0  0
   11.0449   20.5481    1.1912 C   0  0  0  0  0  0  0  0  0  0  0  0
    9.8566   21.0332    1.6758 O   0  0  0  0  0  0  0  0  0  0  0  0
 16 17  3  0  0  0
 17 10  1  0  0  0
 10 11  2  0  0  0
 11 12  1  0  0  0
 12 13  2  0  0  0
 13 14  1  0  0  0
 14 15  2  0  0  0
 13  1  1  0  0  0
  1  2  2  0  0  0
  2  3  1  0  0  0
  3 18  1  0  0  0
 18 20  1  0  0  0
 20 21  1  0  0  0
 21 22  1  0  0  0
 22 23  1  0  0  0
 23 24  1  0  0  0
 24 25  1  0  0  0
  3  4  2  0  0  0
  4  5  1  0  0  0
  5  6  2  0  0  0
  6  7  1  0  0  0
  7  8  2  0  0  0
  8  9  1  0  0  0
 15 10  1  0  0  0
  9  1  1  0  0  0
 25 21  1  0  0  0
  9  5  1  0  0  0
 18 19  1  0  0  0
M  END
> <minimizedAffinity>
-9.07920

> <CNNscore>
0.8151668906

> <CNNaffinity>
7.3773565292

> <CNN_VS>
6.0137767792

> <CNNaffinity_variance>
0.2146319151

$$$$
[H]c1nc2c([H])c(N([H])C([H])([H])C3([H])OC([H])([H])C([H])([H])C3([H])[H])c([H])c(-c3c([H])c([H])c(C#N)c([H])c3[H])n2n1


 25 28  0  0  0  0  0  0  0  0999 V2000
   12.5265   23.4372   -1.0833 C   0  0  0  0  0  0  0  0  0  0  0  0
   11.1563   23.4717   -0.9205 C   0  0  0  0  0  0  0  0  0  0  0  0
   10.5414   22.6639    0.0122 C   0  0  0  0  0  0  0  0  0  0  0  0
   11.3593   21.8417    0.7519 C   0  0  0  0  0  0  0  0  0  0  0  0
   12.7284   21.7874    0.6097 C   0  0  0  0  0  0  0  0  0  0  0  0
   13.7214   21.0922    1.1913 N   0  0  0  0  0  0  0  0  0  0  0  0
   14.8714   21.4817    0.6177 C   0  0  0  0  0  0  0  0  0  0  0  0
   14.5697   22.4076   -0.3052 N   0  0  0  0  0  0  0  0  0  0  0  0
   13.2605   22.6062   -0.3224 N   0  0  0  0  0  0  0  0  0  0  0  0
   14.3884   26.0076   -3.9342 C   0  0  0  0  0  0  0  0  0  0  0  0
   13.2421   26.3941   -3.2718 C   0  0  0  0  0  0  0  0  0  0  0  0
   12.6624   25.5370   -2.3525 C   0  0  0  0  0  0  0  0  0  0  0  0
   13.1994   24.2897   -2.0713 C   0  0  0  0  0  0  0  0  0  0  0  0
   14.3321   23.9104   -2.7274 C   0  0  0  0  0  0  0  0  0  0  0  0
   14.9171   24.7685   -3.6512 C   0  0  0  0  0  0  0  0  0  0  0  0
   15.4577   27.6534   -5.6494 N   0  0  0  0  0  0  0  0  0  0  0  0
   14.9710   26.9138   -4.8829 C   0  0  0  0  0  0  0  0  0  0  0  0
    9.1202   22.6870    0.1945 N   0  0  0  0  0  0  0  0  0  0  0  0
    8.5707   21.8377   -0.0945 H   0  0  0  0  0  0  0  0  0  0  0  0
    8.4491   23.8232    0.7516 C   0  0  0  0  0  0  0  0  0  0  0  0
    8.5617   23.7971    2.2607 C   0  0  0  0  0  0  0  0  0  0  0  0
    9.6407   24.7493    2.6729 C   0  0  0  0  0  0  0  0  0  0  0  0
    8.9388   25.8354    3.4651 C   0  0  0  0  0  0  0  0  0  0  0  0
    7.4863   25.5401    3.1601 C   0  0  0  0  0  0  0  0  0  0  0  0
    7.3964   24.2041    2.8611 O   0  0  0  0  0  0  0  0  0  0  0  0
 16 17  3  0  0  0
 17 10  1  0  0  0
 10 11  2  0  0  0
 11 12  1  0  0  0
 12 13  2  0  0  0
 13 14  1  0  0  0
 14 15  2  0  0  0
 13  1  1  0  0  0
  1  2  2  0  0  0
  2  3  1  0  0  0
  3 18  1  0  0  0
 18 20  1  0  0  0
 20 21  1  0  0  0
 21 22  1  0  0  0
 22 23  1  0  0  0
 23 24  1  0  0  0
 24 25  1  0  0  0
  3  4  2  0  0  0
  4  5  1  0  0  0
  5  6  2  0  0  0
  6  7  1  0  0  0
  7  8  2  0  0  0
  8  9  1  0  0  0
 15 10  1  0  0  0
  9  1  1  0  0  0
 25 21  1  0  0  0
  9  5  1  0  0  0
 18 19  1  0  0  0
M  END
> <minimizedAffinity>
-8.97460

> <CNNscore>
0.7110331655

> <CNNaffinity>
7.0550870895

> <CNN_VS>
5.0164008141

> <CNNaffinity_variance>
0.2961927950

$$$$
[H]c1nc2c([H])c(N([H])C([H])([H])C3([H])OC([H])([H])C([H])([H])C3([H])[H])c([H])c(-c3c([H])c([H])c(C#N)c([H])c3[H])n2n1


 25 28  0  0  0  0  0  0  0  0999 V2000
   13.8467   22.9172   -1.4250 C   0  0  0  0  0  0  0  0  0  0  0  0
   12.7250   22.1143   -1.4702 C   0  0  0  0  0  0  0  0  0  0  0  0
   12.5074   21.1599   -0.4993 C   0  0  0  0  0  0  0  0  0  0  0  0
   13.4552   21.0610    0.4925 C   0  0  0  0  0  0  0  0  0  0  0  0
   14.5830   21.8490    0.5613 C   0  0  0  0  0  0  0  0  0  0  0  0
   15.6286   21.9474    1.4007 N   0  0  0  0  0  0  0  0  0  0  0  0
   16.4249   22.9232    0.9348 C   0  0  0  0  0  0  0  0  0  0  0  0
   15.8590   23.4089   -0.1805 N   0  0  0  0  0  0  0  0  0  0  0  0
   14.7298   22.7612   -0.4229 N   0  0  0  0  0  0  0  0  0  0  0  0
   14.6631   25.8065   -4.4560 C   0  0  0  0  0  0  0  0  0  0  0  0
   15.3455   24.6087   -4.4145 C   0  0  0  0  0  0  0  0  0  0  0  0
   15.0571   23.6922   -3.4182 C   0  0  0  0  0  0  0  0  0  0  0  0
   14.0957   23.9389   -2.4496 C   0  0  0  0  0  0  0  0  0  0  0  0
   13.4231   25.1233   -2.4930 C   0  0  0  0  0  0  0  0  0  0  0  0
   13.7100   26.0461   -3.4921 C   0  0  0  0  0  0  0  0  0  0  0  0
   15.2283   27.4978   -6.3571 N   0  0  0  0  0  0  0  0  0  0  0  0
   14.9800   26.7407   -5.4988 C   0  0  0  0  0  0  0  0  0  0  0  0
   11.3482   20.3180   -0.5308 N   0  0  0  0  0  0  0  0  0  0  0  0
   11.4922   19.2766   -0.4891 H   0  0  0  0  0  0  0  0  0  0  0  0
   10.0246   20.8588   -0.6164 C   0  0  0  0  0  0  0  0  0  0  0  0
    9.6059   21.4074    0.7305 C   0  0  0  0  0  0  0  0  0  0  0  0
    9.5178   22.8984    0.6293 C   0  0  0  0  0  0  0  0  0  0  0  0
    8.0543   23.2313    0.8466 C   0  0  0  0  0  0  0  0  0  0  0  0
    7.4160   21.8627    0.7483 C   0  0  0  0  0  0  0  0  0  0  0  0
    8.3694   20.9422    1.1030 O   0  0  0  0  0  0  0  0  0  0  0  0
 16 17  3  0  0  0
 17 10  1  0  0  0
 10 11  2  0  0  0
 11 12  1  0  0  0
 12 13  2  0  0  0
 13 14  1  0  0  0
 14 15  2  0  0  0
 13  1  1  0  0  0
  1  2  2  0  0  0
  2  3  1  0  0  0
  3 18  1  0  0  0
 18 20  1  0  0  0
 20 21  1  0  0  0
 21 22  1  0  0  0
 22 23  1  0  0  0
 23 24  1  0  0  0
 24 25  1  0  0  0
  3  4  2  0  0  0
  4  5  1  0  0  0
  5  6  2  0  0  0
  6  7  1  0  0  0
  7  8  2  0  0  0
  8  9  1  0  0  0
 15 10  1  0  0  0
  9  1  1  0  0  0
 25 21  1  0  0  0
  9  5  1  0  0  0
 18 19  1  0  0  0
M  END
> <minimizedAffinity>
-7.39481

> <CNNscore>
0.6289047003

> <CNNaffinity>
7.2240781784

> <CNN_VS>
4.5432567596

> <CNNaffinity_variance>
0.3659115732

$$$$
[H]c1nc2c([H])c(N([H])C([H])([H])C3([H])OC([H])([H])C([H])([H])C3([H])[H])c([H])c(-c3c([H])c([H])c(C#N)c([H])c3[H])n2n1


 25 28  0  0  0  0  0  0  0  0999 V2000
   12.7809   23.6546   -0.7436 C   0  0  0  0  0  0  0  0  0  0  0  0
   11.5078   23.8091   -0.2333 C   0  0  0  0  0  0  0  0  0  0  0  0
   11.0883   23.0552    0.8421 C   0  0  0  0  0  0  0  0  0  0  0  0
   11.9959   22.1617    1.3614 C   0  0  0  0  0  0  0  0  0  0  0  0
   13.2717   21.9875    0.8716 C   0  0  0  0  0  0  0  0  0  0  0  0
   14.3178   21.2055    1.1906 N   0  0  0  0  0  0  0  0  0  0  0  0
   15.3091   21.4943    0.3320 C   0  0  0  0  0  0  0  0  0  0  0  0
   14.8595   22.4464   -0.4995 N   0  0  0  0  0  0  0  0  0  0  0  0
   13.6127   22.7595   -0.1820 N   0  0  0  0  0  0  0  0  0  0  0  0
   14.2222   25.8656   -4.0955 C   0  0  0  0  0  0  0  0  0  0  0  0
   14.7761   24.6490   -3.7560 C   0  0  0  0  0  0  0  0  0  0  0  0
   14.2857   23.9563   -2.6627 C   0  0  0  0  0  0  0  0  0  0  0  0
   13.2459   24.4480   -1.8881 C   0  0  0  0  0  0  0  0  0  0  0  0
   12.7005   25.6505   -2.2258 C   0  0  0  0  0  0  0  0  0  0  0  0
   13.1903   26.3489   -3.3232 C   0  0  0  0  0  0  0  0  0  0  0  0
   15.1806   27.1457   -6.1539 N   0  0  0  0  0  0  0  0  0  0  0  0
   14.7478   26.5650   -5.2336 C   0  0  0  0  0  0  0  0  0  0  0  0
    9.7702   23.2028    1.3846 N   0  0  0  0  0  0  0  0  0  0  0  0
    9.6783   23.5540    2.3721 H   0  0  0  0  0  0  0  0  0  0  0  0
    8.6000   22.8869    0.6212 C   0  0  0  0  0  0  0  0  0  0  0  0
    8.2373   21.4306    0.8163 C   0  0  0  0  0  0  0  0  0  0  0  0
    7.3127   21.0197   -0.2871 C   0  0  0  0  0  0  0  0  0  0  0  0
    8.0733   19.9765   -1.0827 C   0  0  0  0  0  0  0  0  0  0  0  0
    9.4699   20.1270   -0.5198 C   0  0  0  0  0  0  0  0  0  0  0  0
    9.3445   20.6216    0.7538 O   0  0  0  0  0  0  0  0  0  0  0  0
 16 17  3  0  0  0
 17 10  1  0  0  0
 10 11  2  0  0  0
 11 12  1  0  0  0
 12 13  2  0  0  0
 13 14  1  0  0  0
 14 15  2  0  0  0
 13  1  1  0  0  0
  1  2  2  0  0  0
  2  3  1  0  0  0
  3 18  1  0  0  0
 18 20  1  0  0  0
 20 21  1  0  0  0
 21 22  1  0  0  0
 22 23  1  0  0  0
 23 24  1  0  0  0
 24 25  1  0  0  0
  3  4  2  0  0  0
  4  5  1  0  0  0
  5  6  2  0  0  0
  6  7  1  0  0  0
  7  8  2  0  0  0
  8  9  1  0  0  0
 15 10  1  0  0  0
  9  1  1  0  0  0
 25 21  1  0  0  0
  9  5  1  0  0  0
 18 19  1  0  0  0
M  END
> <minimizedAffinity>
-8.04383

> <CNNscore>
0.5749779344

> <CNNaffinity>
7.0235443115

> <CNN_VS>
4.0383830070

> <CNNaffinity_variance>
0.4182534218

$$$$
[H]c1nc2c([H])c(N([H])C([H])([H])C3([H])OC([H])([H])C([H])([H])C3([H])[H])c([H])c(-c3c([H])c([H])c(C#N)c([H])c3[H])n2n1


 25 28  0  0  0  0  0  0  0  0999 V2000
   13.1408   24.0043   -1.2368 C   0  0  0  0  0  0  0  0  0  0  0  0
   12.2039   24.7017   -0.5014 C   0  0  0  0  0  0  0  0  0  0  0  0
   11.6518   24.1483    0.6342 C   0  0  0  0  0  0  0  0  0  0  0  0
   12.0831   22.8886    0.9796 C   0  0  0  0  0  0  0  0  0  0  0  0
   13.0161   22.1710    0.2640 C   0  0  0  0  0  0  0  0  0  0  0  0
   13.5880   20.9604    0.3868 N   0  0  0  0  0  0  0  0  0  0  0  0
   14.4412   20.8155   -0.6400 C   0  0  0  0  0  0  0  0  0  0  0  0
   14.3817   21.9352   -1.3766 N   0  0  0  0  0  0  0  0  0  0  0  0
   13.5129   22.7758   -0.8359 N   0  0  0  0  0  0  0  0  0  0  0  0
   14.7941   25.7679   -4.7521 C   0  0  0  0  0  0  0  0  0  0  0  0
   13.7360   26.3572   -4.0923 C   0  0  0  0  0  0  0  0  0  0  0  0
   13.2224   25.7598   -2.9543 C   0  0  0  0  0  0  0  0  0  0  0  0
   13.7399   24.5767   -2.4489 C   0  0  0  0  0  0  0  0  0  0  0  0
   14.7854   23.9965   -3.1029 C   0  0  0  0  0  0  0  0  0  0  0  0
   15.3038   24.5936   -4.2461 C   0  0  0  0  0  0  0  0  0  0  0  0
   15.7419   26.9281   -6.8851 N   0  0  0  0  0  0  0  0  0  0  0  0
   15.3093   26.4065   -5.9300 C   0  0  0  0  0  0  0  0  0  0  0  0
   10.6780   24.8583    1.4095 N   0  0  0  0  0  0  0  0  0  0  0  0
   10.5874   25.8958    1.2596 H   0  0  0  0  0  0  0  0  0  0  0  0
    9.8435   24.1936    2.3652 C   0  0  0  0  0  0  0  0  0  0  0  0
    8.4142   24.1666    1.8680 C   0  0  0  0  0  0  0  0  0  0  0  0
    8.3608   23.3402    0.6209 C   0  0  0  0  0  0  0  0  0  0  0  0
    7.5011   22.1405    0.9690 C   0  0  0  0  0  0  0  0  0  0  0  0
    7.4061   22.2641    2.4742 C   0  0  0  0  0  0  0  0  0  0  0  0
    7.5713   23.5901    2.7852 O   0  0  0  0  0  0  0  0  0  0  0  0
 16 17  3  0  0  0
 17 10  1  0  0  0
 10 11  2  0  0  0
 11 12  1  0  0  0
 12 13  2  0  0  0
 13 14  1  0  0  0
 14 15  2  0  0  0
 13  1  1  0  0  0
  1  2  2  0  0  0
  2  3  1  0  0  0
  3 18  1  0  0  0
 18 20  1  0  0  0
 20 21  1  0  0  0
 21 22  1  0  0  0
 22 23  1  0  0  0
 23 24  1  0  0  0
 24 25  1  0  0  0
  3  4  2  0  0  0
  4  5  1  0  0  0
  5  6  2  0  0  0
  6  7  1  0  0  0
  7  8  2  0  0  0
  8  9  1  0  0  0
 15 10  1  0  0  0
  9  1  1  0  0  0
 25 21  1  0  0  0
  9  5  1  0  0  0
 18 19  1  0  0  0
M  END
> <minimizedAffinity>
-8.96442

> <CNNscore>
0.5078597665

> <CNNaffinity>
6.7268590927

> <CNN_VS>
3.4163010120

> <CNNaffinity_variance>
0.1669888049

$$$$
[H]c1nc2c([H])c(N([H])C([H])([H])C3([H])OC([H])([H])C([H])([H])C3([H])[H])c([H])c(-c3c([H])c([H])c(C#N)c([H])c3[H])n2n1


 25 28  0  0  0  0  0  0  0  0999 V2000
   13.0083   24.1322   -0.9770 C   0  0  0  0  0  0  0  0  0  0  0  0
   12.0492   24.6864   -0.1537 C   0  0  0  0  0  0  0  0  0  0  0  0
   11.4273   23.9218    0.8104 C   0  0  0  0  0  0  0  0  0  0  0  0
   11.8135   22.6045    0.8976 C   0  0  0  0  0  0  0  0  0  0  0  0
   12.7673   22.0264    0.0891 C   0  0  0  0  0  0  0  0  0  0  0  0
   13.3065   20.8000   -0.0237 N   0  0  0  0  0  0  0  0  0  0  0  0
   14.2088   20.8499   -1.0170 C   0  0  0  0  0  0  0  0  0  0  0  0
   14.2112   22.1021   -1.4988 N   0  0  0  0  0  0  0  0  0  0  0  0
   13.3333   22.8354   -0.8316 N   0  0  0  0  0  0  0  0  0  0  0  0
   14.8464   26.5016   -4.0116 C   0  0  0  0  0  0  0  0  0  0  0  0
   13.4837   26.5469   -3.8033 C   0  0  0  0  0  0  0  0  0  0  0  0
   12.9181   25.7658   -2.8105 C   0  0  0  0  0  0  0  0  0  0  0  0
   13.6816   24.9301   -2.0093 C   0  0  0  0  0  0  0  0  0  0  0  0
   15.0278   24.8873   -2.2175 C   0  0  0  0  0  0  0  0  0  0  0  0
   15.5993   25.6703   -3.2136 C   0  0  0  0  0  0  0  0  0  0  0  0
   15.8716   27.9988   -5.8827 N   0  0  0  0  0  0  0  0  0  0  0  0
   15.4095   27.3208   -5.0471 C   0  0  0  0  0  0  0  0  0  0  0  0
   10.4295   24.4810    1.6736 N   0  0  0  0  0  0  0  0  0  0  0  0
   10.7276   25.2210    2.3595 H   0  0  0  0  0  0  0  0  0  0  0  0
    9.0620   24.0584    1.6197 C   0  0  0  0  0  0  0  0  0  0  0  0
    8.4124   24.2470    2.9736 C   0  0  0  0  0  0  0  0  0  0  0  0
    9.4000   24.9044    3.8866 C   0  0  0  0  0  0  0  0  0  0  0  0
    8.8045   26.2597    4.2157 C   0  0  0  0  0  0  0  0  0  0  0  0
    7.6786   26.3470    3.2084 C   0  0  0  0  0  0  0  0  0  0  0  0
    7.3111   25.0626    2.8960 O   0  0  0  0  0  0  0  0  0  0  0  0
 16 17  3  0  0  0
 17 10  1  0  0  0
 10 11  2  0  0  0
 11 12  1  0  0  0
 12 13  2  0  0  0
 13 14  1  0  0  0
 14 15  2  0  0  0
 13  1  1  0  0  0
  1  2  2  0  0  0
  2  3  1  0  0  0
  3 18  1  0  0  0
 18 20  1  0  0  0
 20 21  1  0  0  0
 21 22  1  0  0  0
 22 23  1  0  0  0
 23 24  1  0  0  0
 24 25  1  0  0  0
  3  4  2  0  0  0
  4  5  1  0  0  0
  5  6  2  0  0  0
  6  7  1  0  0  0
  7  8  2  0  0  0
  8  9  1  0  0  0
 15 10  1  0  0  0
  9  1  1  0  0  0
 25 21  1  0  0  0
  9  5  1  0  0  0
 18 19  1  0  0  0
M  END
> <minimizedAffinity>
-8.75510

> <CNNscore>
0.4248582423

> <CNNaffinity>
6.5041832924

> <CNN_VS>
2.7633559704

> <CNNaffinity_variance>
0.0925111622

$$$$
[H]c1nc2c([H])c(N([H])C([H])([H])C3([H])OC([H])([H])C([H])([H])C3([H])[H])c([H])c(-c3c([H])c([H])c(C#N)c([H])c3[H])n2n1


 25 28  0  0  0  0  0  0  0  0999 V2000
   12.3561   23.2887   -0.5147 C   0  0  0  0  0  0  0  0  0  0  0  0
   11.1085   22.9684   -0.0188 C   0  0  0  0  0  0  0  0  0  0  0  0
    9.9878   23.6438   -0.4531 C   0  0  0  0  0  0  0  0  0  0  0  0
   10.1866   24.6324   -1.3886 C   0  0  0  0  0  0  0  0  0  0  0  0
   11.4199   24.9721   -1.8998 C   0  0  0  0  0  0  0  0  0  0  0  0
   11.8676   25.8709   -2.7938 N   0  0  0  0  0  0  0  0  0  0  0  0
   13.1998   25.7234   -2.8761 C   0  0  0  0  0  0  0  0  0  0  0  0
   13.5505   24.7392   -2.0343 N   0  0  0  0  0  0  0  0  0  0  0  0
   12.4712   24.2685   -1.4285 N   0  0  0  0  0  0  0  0  0  0  0  0
   15.9127   21.3496    0.8239 C   0  0  0  0  0  0  0  0  0  0  0  0
   15.7944   22.7231    0.8647 C   0  0  0  0  0  0  0  0  0  0  0  0
   14.6272   23.3217    0.4231 C   0  0  0  0  0  0  0  0  0  0  0  0
   13.5611   22.5809   -0.0645 C   0  0  0  0  0  0  0  0  0  0  0  0
   13.6808   21.2239   -0.1037 C   0  0  0  0  0  0  0  0  0  0  0  0
   14.8515   20.6193    0.3390 C   0  0  0  0  0  0  0  0  0  0  0  0
   18.1224   20.2526    1.6652 N   0  0  0  0  0  0  0  0  0  0  0  0
   17.1329   20.7522    1.2875 C   0  0  0  0  0  0  0  0  0  0  0  0
    8.6851   23.3242    0.0511 N   0  0  0  0  0  0  0  0  0  0  0  0
    8.0802   22.6769   -0.5166 H   0  0  0  0  0  0  0  0  0  0  0  0
    8.2024   23.8598    1.2887 C   0  0  0  0  0  0  0  0  0  0  0  0
    7.6000   22.7531    2.1271 C   0  0  0  0  0  0  0  0  0  0  0  0
    8.5679   21.6119    2.1733 C   0  0  0  0  0  0  0  0  0  0  0  0
    8.9894   21.4996    3.6257 C   0  0  0  0  0  0  0  0  0  0  0  0
    8.4418   22.7886    4.1992 C   0  0  0  0  0  0  0  0  0  0  0  0
    7.3773   23.1618    3.4184 O   0  0  0  0  0  0  0  0  0  0  0  0
 16 17  3  0  0  0
 17 10  1  0  0  0
 10 11  2  0  0  0
 11 12  1  0  0  0
 12 13  2  0  0  0
 13 14  1  0  0  0
 14 15  2  0  0  0
 13  1  1  0  0  0
  1  2  2  0  0  0
  2  3  1  0  0  0
  3 18  1  0  0  0
 18 20  1  0  0  0
 20 21  1  0  0  0
 21 22  1  0  0  0
 22 23  1  0  0  0
 23 24  1  0  0  0
 24 25  1  0  0  0
  3  4  2  0  0  0
  4  5  1  0  0  0
  5  6  2  0  0  0
  6  7  1  0  0  0
  7  8  2  0  0  0
  8  9  1  0  0  0
 15 10  1  0  0  0
  9  1  1  0  0  0
 25 21  1  0  0  0
  9  5  1  0  0  0
 18 19  1  0  0  0
M  END
> <minimizedAffinity>
4.42166

> <CNNscore>
0.3968843520

> <CNNaffinity>
6.1651883125

> <CNN_VS>
2.4468667507

> <CNNaffinity_variance>
0.6564601064

$$$$
[H]c1nc2c([H])c(N([H])C([H])([H])C3([H])OC([H])([H])C([H])([H])C3([H])[H])c([H])c(-c3c([H])c([H])c(C#N)c([H])c3[H])n2n1


 25 28  0  0  0  0  0  0  0  0999 V2000
   13.2429   23.8470   -1.5917 C   0  0  0  0  0  0  0  0  0  0  0  0
   12.9936   22.4974   -1.4455 C   0  0  0  0  0  0  0  0  0  0  0  0
   12.3843   22.0174   -0.3057 C   0  0  0  0  0  0  0  0  0  0  0  0
   12.0491   22.9453    0.6527 C   0  0  0  0  0  0  0  0  0  0  0  0
   12.2864   24.2969    0.5323 C   0  0  0  0  0  0  0  0  0  0  0  0
   12.0625   25.3773    1.3006 N   0  0  0  0  0  0  0  0  0  0  0  0
   12.5246   26.4462    0.6318 C   0  0  0  0  0  0  0  0  0  0  0  0
   13.0243   26.0088   -0.5340 N   0  0  0  0  0  0  0  0  0  0  0  0
   12.8859   24.6941   -0.6102 N   0  0  0  0  0  0  0  0  0  0  0  0
   15.0410   25.4908   -5.0940 C   0  0  0  0  0  0  0  0  0  0  0  0
   13.9887   26.1279   -4.4703 C   0  0  0  0  0  0  0  0  0  0  0  0
   13.4273   25.5685   -3.3355 C   0  0  0  0  0  0  0  0  0  0  0  0
   13.8906   24.3771   -2.7980 C   0  0  0  0  0  0  0  0  0  0  0  0
   14.9305   23.7498   -3.4164 C   0  0  0  0  0  0  0  0  0  0  0  0
   15.4969   24.3086   -4.5562 C   0  0  0  0  0  0  0  0  0  0  0  0
   16.0713   26.5675   -7.2325 N   0  0  0  0  0  0  0  0  0  0  0  0
   15.6065   26.0906   -6.2692 C   0  0  0  0  0  0  0  0  0  0  0  0
   12.1179   20.6195   -0.1374 N   0  0  0  0  0  0  0  0  0  0  0  0
   12.4506   19.9591   -0.8858 H   0  0  0  0  0  0  0  0  0  0  0  0
   11.4208   20.1165    1.0084 C   0  0  0  0  0  0  0  0  0  0  0  0
   12.1753   20.4801    2.2690 C   0  0  0  0  0  0  0  0  0  0  0  0
   11.2345   21.1790    3.2005 C   0  0  0  0  0  0  0  0  0  0  0  0
   11.1062   20.2653    4.4040 C   0  0  0  0  0  0  0  0  0  0  0  0
   11.7564   18.9985    3.8916 C   0  0  0  0  0  0  0  0  0  0  0  0
   12.6473   19.3645    2.9146 O   0  0  0  0  0  0  0  0  0  0  0  0
 16 17  3  0  0  0
 17 10  1  0  0  0
 10 11  2  0  0  0
 11 12  1  0  0  0
 12 13  2  0  0  0
 13 14  1  0  0  0
 14 15  2  0  0  0
 13  1  1  0  0  0
  1  2  2  0  0  0
  2  3  1  0  0  0
  3 18  1  0  0  0
 18 20  1  0  0  0
 20 21  1  0  0  0
 21 22  1  0  0  0
 22 23  1  0  0  0
 23 24  1  0  0  0
 24 25  1  0  0  0
  3  4  2  0  0  0
  4  5  1  0  0  0
  5  6  2  0  0  0
  6  7  1  0  0  0
  7  8  2  0  0  0
  8  9  1  0  0  0
 15 10  1  0  0  0
  9  1  1  0  0  0
 25 21  1  0  0  0
  9  5  1  0  0  0
 18 19  1  0  0  0
M  END
> <minimizedAffinity>
-5.50685

> <CNNscore>
0.3736472726

> <CNNaffinity>
6.5224075317

> <CNN_VS>
2.4370796680

> <CNNaffinity_variance>
0.4606317878

$$$$
[H]c1nc2c([H])c([H])c([H])c(-c3c([H])c(F)c(C#N)c(F)c3[H])n2n1


 19 21  0  0  0  0  0  0  0  0999 V2000
   15.9368   23.9069   -4.3809 F   0  0  0  0  0  0  0  0  0  0  0  0
   14.8918   24.5466   -3.7569 C   0  0  0  0  0  0  0  0  0  0  0  0
   14.3378   24.0008   -2.6027 C   0  0  0  0  0  0  0  0  0  0  0  0
   13.2999   24.5523   -1.9060 C   0  0  0  0  0  0  0  0  0  0  0  0
   12.7994   25.7401   -2.4273 C   0  0  0  0  0  0  0  0  0  0  0  0
   13.3349   26.3146   -3.5860 C   0  0  0  0  0  0  0  0  0  0  0  0
   12.8492   27.4721   -4.0960 F   0  0  0  0  0  0  0  0  0  0  0  0
   14.3777   25.7130   -4.2426 C   0  0  0  0  0  0  0  0  0  0  0  0
   12.6977   23.9785   -0.7197 C   0  0  0  0  0  0  0  0  0  0  0  0
   11.5560   24.5391   -0.1416 C   0  0  0  0  0  0  0  0  0  0  0  0
   10.9149   24.0518    0.9497 C   0  0  0  0  0  0  0  0  0  0  0  0
   11.3988   22.9281    1.5524 C   0  0  0  0  0  0  0  0  0  0  0  0
   12.5221   22.3595    1.0000 C   0  0  0  0  0  0  0  0  0  0  0  0
   13.1676   21.2555    1.4150 N   0  0  0  0  0  0  0  0  0  0  0  0
   14.1907   21.0849    0.5723 C   0  0  0  0  0  0  0  0  0  0  0  0
   14.1484   22.0638   -0.3158 N   0  0  0  0  0  0  0  0  0  0  0  0
   13.1502   22.8628   -0.0942 N   0  0  0  0  0  0  0  0  0  0  0  0
   14.9276   26.2886   -5.4194 C   0  0  0  0  0  0  0  0  0  0  0  0
   15.3749   26.7761   -6.3709 N   0  0  0  0  0  0  0  0  0  0  0  0
  1  2  1  0  0  0
  2  3  2  0  0  0
  3  4  1  0  0  0
  4  5  2  0  0  0
  5  6  1  0  0  0
  6  7  1  0  0  0
  6  8  2  0  0  0
  8 18  1  0  0  0
 18 19  3  0  0  0
  4  9  1  0  0  0
  9 10  2  0  0  0
 10 11  1  0  0  0
 11 12  2  0  0  0
 12 13  1  0  0  0
 13 14  2  0  0  0
 14 15  1  0  0  0
 15 16  2  0  0  0
 16 17  1  0  0  0
  8  2  1  0  0  0
 17  9  1  0  0  0
 17 13  1  0  0  0
M  END
> <minimizedAffinity>
-9.02826

> <CNNscore>
0.7156963348

> <CNNaffinity>
6.7496047020

> <CNN_VS>
4.8306674957

> <CNNaffinity_variance>
0.2034979314

$$$$
[H]c1nc2c([H])c([H])c([H])c(-c3c([H])c(F)c(C#N)c(F)c3[H])n2n1


 19 21  0  0  0  0  0  0  0  0999 V2000
   12.7339   27.3888   -4.1003 F   0  0  0  0  0  0  0  0  0  0  0  0
   13.2737   26.2435   -3.5639 C   0  0  0  0  0  0  0  0  0  0  0  0
   12.7002   25.6745   -2.4307 C   0  0  0  0  0  0  0  0  0  0  0  0
   13.1554   24.5413   -1.8179 C   0  0  0  0  0  0  0  0  0  0  0  0
   14.2702   23.9549   -2.4066 C   0  0  0  0  0  0  0  0  0  0  0  0
   14.8698   24.5026   -3.5467 C   0  0  0  0  0  0  0  0  0  0  0  0
   15.9561   23.9330   -4.1224 F   0  0  0  0  0  0  0  0  0  0  0  0
   14.3667   25.6436   -4.1171 C   0  0  0  0  0  0  0  0  0  0  0  0
   12.5831   23.9562   -0.6224 C   0  0  0  0  0  0  0  0  0  0  0  0
   11.4481   24.5032   -0.0184 C   0  0  0  0  0  0  0  0  0  0  0  0
   10.8341   24.0046    1.0834 C   0  0  0  0  0  0  0  0  0  0  0  0
   11.3408   22.8826    1.6704 C   0  0  0  0  0  0  0  0  0  0  0  0
   12.4578   22.3274    1.0924 C   0  0  0  0  0  0  0  0  0  0  0  0
   13.1220   21.2275    1.4887 N   0  0  0  0  0  0  0  0  0  0  0  0
   14.1292   21.0707    0.6244 C   0  0  0  0  0  0  0  0  0  0  0  0
   14.0595   22.0534   -0.2578 N   0  0  0  0  0  0  0  0  0  0  0  0
   13.0586   22.8418   -0.0119 N   0  0  0  0  0  0  0  0  0  0  0  0
   14.9687   26.2068   -5.2743 C   0  0  0  0  0  0  0  0  0  0  0  0
   15.4424   26.6741   -6.2231 N   0  0  0  0  0  0  0  0  0  0  0  0
  1  2  1  0  0  0
  2  3  2  0  0  0
  3  4  1  0  0  0
  4  5  2  0  0  0
  5  6  1  0  0  0
  6  7  1  0  0  0
  6  8  2  0  0  0
  8 18  1  0  0  0
 18 19  3  0  0  0
  4  9  1  0  0  0
  9 10  2  0  0  0
 10 11  1  0  0  0
 11 12  2  0  0  0
 12 13  1  0  0  0
 13 14  2  0  0  0
 14 15  1  0  0  0
 15 16  2  0  0  0
 16 17  1  0  0  0
  8  2  1  0  0  0
 17  9  1  0  0  0
 17 13  1  0  0  0
M  END
> <minimizedAffinity>
-8.94176

> <CNNscore>
0.6807116270

> <CNNaffinity>
6.7235131264

> <CNN_VS>
4.5767736435

> <CNNaffinity_variance>
0.2209676057

$$$$
[H]c1nc2c([H])c([H])c([H])c(-c3c([H])c(F)c(C#N)c(F)c3[H])n2n1


 19 21  0  0  0  0  0  0  0  0999 V2000
   17.4145   26.5902   -2.7321 F   0  0  0  0  0  0  0  0  0  0  0  0
   16.1430   26.0957   -2.9034 C   0  0  0  0  0  0  0  0  0  0  0  0
   15.7009   25.0380   -2.1143 C   0  0  0  0  0  0  0  0  0  0  0  0
   14.4606   24.4717   -2.2020 C   0  0  0  0  0  0  0  0  0  0  0  0
   13.6205   25.0273   -3.1606 C   0  0  0  0  0  0  0  0  0  0  0  0
   14.0352   26.0917   -3.9695 C   0  0  0  0  0  0  0  0  0  0  0  0
   13.2186   26.6351   -4.9042 F   0  0  0  0  0  0  0  0  0  0  0  0
   15.2943   26.6182   -3.8348 C   0  0  0  0  0  0  0  0  0  0  0  0
   13.9999   23.3529   -1.4050 C   0  0  0  0  0  0  0  0  0  0  0  0
   14.5428   22.0755   -1.5649 C   0  0  0  0  0  0  0  0  0  0  0  0
   14.1894   20.9821   -0.8445 C   0  0  0  0  0  0  0  0  0  0  0  0
   13.2317   21.1075    0.1185 C   0  0  0  0  0  0  0  0  0  0  0  0
   12.6836   22.3562    0.2930 C   0  0  0  0  0  0  0  0  0  0  0  0
   11.7377   22.7171    1.1779 N   0  0  0  0  0  0  0  0  0  0  0  0
   11.5285   24.0229    0.9855 C   0  0  0  0  0  0  0  0  0  0  0  0
   12.3307   24.4202    0.0121 N   0  0  0  0  0  0  0  0  0  0  0  0
   13.0512   23.4398   -0.4390 N   0  0  0  0  0  0  0  0  0  0  0  0
   15.7240   27.6984   -4.6515 C   0  0  0  0  0  0  0  0  0  0  0  0
   16.0574   28.5787   -5.3275 N   0  0  0  0  0  0  0  0  0  0  0  0
  1  2  1  0  0  0
  2  3  2  0  0  0
  3  4  1  0  0  0
  4  5  2  0  0  0
  5  6  1  0  0  0
  6  7  1  0  0  0
  6  8  2  0  0  0
  8 18  1  0  0  0
 18 19  3  0  0  0
  4  9  1  0  0  0
  9 10  2  0  0  0
 10 11  1  0  0  0
 11 12  2  0  0  0
 12 13  1  0  0  0
 13 14  2  0  0  0
 14 15  1  0  0  0
 15 16  2  0  0  0
 16 17  1  0  0  0
  8  2  1  0  0  0
 17  9  1  0  0  0
 17 13  1  0  0  0
M  END
> <minimizedAffinity>
-8.15626

> <CNNscore>
0.6077563763

> <CNNaffinity>
6.5830969810

> <CNN_VS>
4.0009193420

> <CNNaffinity_variance>
0.1053916663

$$$$
[H]c1nc2c([H])c([H])c([H])c(-c3c([H])c(F)c(C#N)c(F)c3[H])n2n1


 19 21  0  0  0  0  0  0  0  0999 V2000
   13.2134   26.6004   -4.9948 F   0  0  0  0  0  0  0  0  0  0  0  0
   14.0747   26.0815   -4.0570 C   0  0  0  0  0  0  0  0  0  0  0  0
   13.6688   25.0136   -3.2622 C   0  0  0  0  0  0  0  0  0  0  0  0
   14.4425   24.4242   -2.3026 C   0  0  0  0  0  0  0  0  0  0  0  0
   15.7141   24.9654   -2.1499 C   0  0  0  0  0  0  0  0  0  0  0  0
   16.1521   26.0391   -2.9338 C   0  0  0  0  0  0  0  0  0  0  0  0
   17.3908   26.5683   -2.7871 F   0  0  0  0  0  0  0  0  0  0  0  0
   15.3285   26.5896   -3.8820 C   0  0  0  0  0  0  0  0  0  0  0  0
   14.0203   23.3306   -1.4511 C   0  0  0  0  0  0  0  0  0  0  0  0
   14.5920   22.0607   -1.5636 C   0  0  0  0  0  0  0  0  0  0  0  0
   14.2754   20.9917   -0.7913 C   0  0  0  0  0  0  0  0  0  0  0  0
   13.3284   21.1362    0.1795 C   0  0  0  0  0  0  0  0  0  0  0  0
   12.7524   22.3779    0.3079 C   0  0  0  0  0  0  0  0  0  0  0  0
   11.8103   22.7545    1.1903 N   0  0  0  0  0  0  0  0  0  0  0  0
   11.5667   24.0454    0.9447 C   0  0  0  0  0  0  0  0  0  0  0  0
   12.3454   24.4188   -0.0569 N   0  0  0  0  0  0  0  0  0  0  0  0
   13.0833   23.4369   -0.4757 N   0  0  0  0  0  0  0  0  0  0  0  0
   15.7643   27.6796   -4.6822 C   0  0  0  0  0  0  0  0  0  0  0  0
   16.1012   28.5719   -5.3406 N   0  0  0  0  0  0  0  0  0  0  0  0
  1  2  1  0  0  0
  2  3  2  0  0  0
  3  4  1  0  0  0
  4  5  2  0  0  0
  5  6  1  0  0  0
  6  7  1  0  0  0
  6  8  2  0  0  0
  8 18  1  0  0  0
 18 19  3  0  0  0
  4  9  1  0  0  0
  9 10  2  0  0  0
 10 11  1  0  0  0
 11 12  2  0  0  0
 12 13  1  0  0  0
 13 14  2  0  0  0
 14 15  1  0  0  0
 15 16  2  0  0  0
 16 17  1  0  0  0
  8  2  1  0  0  0
 17  9  1  0  0  0
 17 13  1  0  0  0
M  END
> <minimizedAffinity>
-8.08482

> <CNNscore>
0.6039972901

> <CNNaffinity>
6.5893297195

> <CNN_VS>
3.9799373150

> <CNNaffinity_variance>
0.1070075482

$$$$
[H]c1nc2c([H])c([H])c([H])c(-c3c([H])c(F)c(C#N)c(F)c3[H])n2n1


 19 21  0  0  0  0  0  0  0  0999 V2000
   13.0859   25.3899   -4.7496 F   0  0  0  0  0  0  0  0  0  0  0  0
   13.1923   25.3572   -3.3791 C   0  0  0  0  0  0  0  0  0  0  0  0
   13.5810   24.1812   -2.7443 C   0  0  0  0  0  0  0  0  0  0  0  0
   13.7174   24.0394   -1.3922 C   0  0  0  0  0  0  0  0  0  0  0  0
   13.4374   25.1777   -0.6445 C   0  0  0  0  0  0  0  0  0  0  0  0
   13.0445   26.3754   -1.2530 C   0  0  0  0  0  0  0  0  0  0  0  0
   12.7712   27.4862   -0.5268 F   0  0  0  0  0  0  0  0  0  0  0  0
   12.9247   26.4562   -2.6167 C   0  0  0  0  0  0  0  0  0  0  0  0
   14.0945   22.8129   -0.7194 C   0  0  0  0  0  0  0  0  0  0  0  0
   13.4595   21.6022   -1.0076 C   0  0  0  0  0  0  0  0  0  0  0  0
   13.7673   20.4069   -0.4455 C   0  0  0  0  0  0  0  0  0  0  0  0
   14.7704   20.3502    0.4769 C   0  0  0  0  0  0  0  0  0  0  0  0
   15.4091   21.5304    0.7759 C   0  0  0  0  0  0  0  0  0  0  0  0
   16.4219   21.7151    1.6409 N   0  0  0  0  0  0  0  0  0  0  0  0
   16.7172   23.0176    1.5937 C   0  0  0  0  0  0  0  0  0  0  0  0
   15.8990   23.5848    0.7232 N   0  0  0  0  0  0  0  0  0  0  0  0
   15.0862   22.7182    0.2016 N   0  0  0  0  0  0  0  0  0  0  0  0
   12.5263   27.6675   -3.2432 C   0  0  0  0  0  0  0  0  0  0  0  0
   12.1991   28.6459   -3.7712 N   0  0  0  0  0  0  0  0  0  0  0  0
  1  2  1  0  0  0
  2  3  2  0  0  0
  3  4  1  0  0  0
  4  5  2  0  0  0
  5  6  1  0  0  0
  6  7  1  0  0  0
  6  8  2  0  0  0
  8 18  1  0  0  0
 18 19  3  0  0  0
  4  9  1  0  0  0
  9 10  2  0  0  0
 10 11  1  0  0  0
 11 12  2  0  0  0
 12 13  1  0  0  0
 13 14  2  0  0  0
 14 15  1  0  0  0
 15 16  2  0  0  0
 16 17  1  0  0  0
  8  2  1  0  0  0
 17  9  1  0  0  0
 17 13  1  0  0  0
M  END
> <minimizedAffinity>
5.81522

> <CNNscore>
0.5792877078

> <CNNaffinity>
6.2482452393

> <CNN_VS>
3.6195316315

> <CNNaffinity_variance>
0.4972960055

$$$$
[H]c1nc2c([H])c([H])c([H])c(-c3c([H])c(F)c(C#N)c(F)c3[H])n2n1


 19 21  0  0  0  0  0  0  0  0999 V2000
   12.9246   27.3167   -3.5736 F   0  0  0  0  0  0  0  0  0  0  0  0
   13.5527   26.1035   -3.4177 C   0  0  0  0  0  0  0  0  0  0  0  0
   13.1740   25.2579   -2.3791 C   0  0  0  0  0  0  0  0  0  0  0  0
   13.7310   24.0346   -2.1340 C   0  0  0  0  0  0  0  0  0  0  0  0
   14.7407   23.6552   -3.0114 C   0  0  0  0  0  0  0  0  0  0  0  0
   15.1441   24.4829   -4.0656 C   0  0  0  0  0  0  0  0  0  0  0  0
   16.1275   24.1155   -4.9222 F   0  0  0  0  0  0  0  0  0  0  0  0
   14.5467   25.7017   -4.2609 C   0  0  0  0  0  0  0  0  0  0  0  0
   13.3636   23.1588   -1.0398 C   0  0  0  0  0  0  0  0  0  0  0  0
   14.0035   21.9320   -0.8459 C   0  0  0  0  0  0  0  0  0  0  0  0
   13.7406   21.0664    0.1646 C   0  0  0  0  0  0  0  0  0  0  0  0
   12.7818   21.3907    1.0788 C   0  0  0  0  0  0  0  0  0  0  0  0
   12.1391   22.5939    0.9072 C   0  0  0  0  0  0  0  0  0  0  0  0
   11.1733   23.1220    1.6794 N   0  0  0  0  0  0  0  0  0  0  0  0
   10.8619   24.3000    1.1305 C   0  0  0  0  0  0  0  0  0  0  0  0
   11.6249   24.4609    0.0624 N   0  0  0  0  0  0  0  0  0  0  0  0
   12.4169   23.4478   -0.1120 N   0  0  0  0  0  0  0  0  0  0  0  0
   14.9497   26.5485   -5.3282 C   0  0  0  0  0  0  0  0  0  0  0  0
   15.2856   27.2521   -6.1856 N   0  0  0  0  0  0  0  0  0  0  0  0
  1  2  1  0  0  0
  2  3  2  0  0  0
  3  4  1  0  0  0
  4  5  2  0  0  0
  5  6  1  0  0  0
  6  7  1  0  0  0
  6  8  2  0  0  0
  8 18  1  0  0  0
 18 19  3  0  0  0
  4  9  1  0  0  0
  9 10  2  0  0  0
 10 11  1  0  0  0
 11 12  2  0  0  0
 12 13  1  0  0  0
 13 14  2  0  0  0
 14 15  1  0  0  0
 15 16  2  0  0  0
 16 17  1  0  0  0
  8  2  1  0  0  0
 17  9  1  0  0  0
 17 13  1  0  0  0
M  END
> <minimizedAffinity>
-8.66510

> <CNNscore>
0.5697232485

> <CNNaffinity>
6.4964799881

> <CNN_VS>
3.7011957169

> <CNNaffinity_variance>
0.0856452659

$$$$
[H]c1nc2c([H])c([H])c([H])c(-c3c([H])c(F)c(C#N)c(F)c3[H])n2n1


 19 21  0  0  0  0  0  0  0  0999 V2000
   16.1400   24.0888   -5.0237 F   0  0  0  0  0  0  0  0  0  0  0  0
   15.1786   24.3599   -4.0787 C   0  0  0  0  0  0  0  0  0  0  0  0
   14.8834   23.4131   -3.1023 C   0  0  0  0  0  0  0  0  0  0  0  0
   13.9487   23.5793   -2.1197 C   0  0  0  0  0  0  0  0  0  0  0  0
   13.2748   24.7952   -2.1407 C   0  0  0  0  0  0  0  0  0  0  0  0
   13.5489   25.7679   -3.1091 C   0  0  0  0  0  0  0  0  0  0  0  0
   12.8938   26.9538   -3.1317 F   0  0  0  0  0  0  0  0  0  0  0  0
   14.4994   25.5427   -4.0716 C   0  0  0  0  0  0  0  0  0  0  0  0
   13.6141   22.5898   -1.1156 C   0  0  0  0  0  0  0  0  0  0  0  0
   14.5420   22.1941   -0.1489 C   0  0  0  0  0  0  0  0  0  0  0  0
   14.3037   21.2970    0.8399 C   0  0  0  0  0  0  0  0  0  0  0  0
   13.0714   20.7185    0.9232 C   0  0  0  0  0  0  0  0  0  0  0  0
   12.1423   21.0934   -0.0184 C   0  0  0  0  0  0  0  0  0  0  0  0
   10.8726   20.6651   -0.1294 N   0  0  0  0  0  0  0  0  0  0  0  0
   10.3554   21.3062   -1.1818 C   0  0  0  0  0  0  0  0  0  0  0  0
   11.2969   22.0916   -1.6774 N   0  0  0  0  0  0  0  0  0  0  0  0
   12.4003   21.9944   -1.0016 N   0  0  0  0  0  0  0  0  0  0  0  0
   14.7842   26.5241   -5.0587 C   0  0  0  0  0  0  0  0  0  0  0  0
   15.0145   27.3387   -5.8502 N   0  0  0  0  0  0  0  0  0  0  0  0
  1  2  1  0  0  0
  2  3  2  0  0  0
  3  4  1  0  0  0
  4  5  2  0  0  0
  5  6  1  0  0  0
  6  7  1  0  0  0
  6  8  2  0  0  0
  8 18  1  0  0  0
 18 19  3  0  0  0
  4  9  1  0  0  0
  9 10  2  0  0  0
 10 11  1  0  0  0
 11 12  2  0  0  0
 12 13  1  0  0  0
 13 14  2  0  0  0
 14 15  1  0  0  0
 15 16  2  0  0  0
 16 17  1  0  0  0
  8  2  1  0  0  0
 17  9  1  0  0  0
 17 13  1  0  0  0
M  END
> <minimizedAffinity>
-8.44393

> <CNNscore>
0.4819574654

> <CNNaffinity>
6.4711771011

> <CNN_VS>
3.1188321114

> <CNNaffinity_variance>
0.0536803231

$$$$
[H]c1nc2c([H])c([H])c([H])c(-c3c([H])c(F)c(C#N)c(F)c3[H])n2n1


 19 21  0  0  0  0  0  0  0  0999 V2000
   12.9355   27.0742   -3.1883 F   0  0  0  0  0  0  0  0  0  0  0  0
   13.5927   25.8665   -3.1989 C   0  0  0  0  0  0  0  0  0  0  0  0
   13.2752   24.8988   -2.2505 C   0  0  0  0  0  0  0  0  0  0  0  0
   13.8654   23.6691   -2.1708 C   0  0  0  0  0  0  0  0  0  0  0  0
   14.8435   23.4169   -3.1262 C   0  0  0  0  0  0  0  0  0  0  0  0
   15.1855   24.3692   -4.0934 C   0  0  0  0  0  0  0  0  0  0  0  0
   16.1382   24.1259   -5.0257 F   0  0  0  0  0  0  0  0  0  0  0  0
   14.5572   25.5877   -4.1224 C   0  0  0  0  0  0  0  0  0  0  0  0
   13.5621   22.6653   -1.1710 C   0  0  0  0  0  0  0  0  0  0  0  0
   14.5116   22.2744   -0.2235 C   0  0  0  0  0  0  0  0  0  0  0  0
   14.3029   21.3644    0.7602 C   0  0  0  0  0  0  0  0  0  0  0  0
   13.0809   20.7666    0.8579 C   0  0  0  0  0  0  0  0  0  0  0  0
   12.1311   21.1364   -0.0647 C   0  0  0  0  0  0  0  0  0  0  0  0
   10.8662   20.6901   -0.1592 N   0  0  0  0  0  0  0  0  0  0  0  0
   10.3223   21.3334   -1.1966 C   0  0  0  0  0  0  0  0  0  0  0  0
   11.2436   22.1376   -1.6999 N   0  0  0  0  0  0  0  0  0  0  0  0
   12.3594   22.0505   -1.0431 N   0  0  0  0  0  0  0  0  0  0  0  0
   14.8977   26.5606   -5.1003 C   0  0  0  0  0  0  0  0  0  0  0  0
   15.1854   27.3642   -5.8841 N   0  0  0  0  0  0  0  0  0  0  0  0
  1  2  1  0  0  0
  2  3  2  0  0  0
  3  4  1  0  0  0
  4  5  2  0  0  0
  5  6  1  0  0  0
  6  7  1  0  0  0
  6  8  2  0  0  0
  8 18  1  0  0  0
 18 19  3  0  0  0
  4  9  1  0  0  0
  9 10  2  0  0  0
 10 11  1  0  0  0
 11 12  2  0  0  0
 12 13  1  0  0  0
 13 14  2  0  0  0
 14 15  1  0  0  0
 15 16  2  0  0  0
 16 17  1  0  0  0
  8  2  1  0  0  0
 17  9  1  0  0  0
 17 13  1  0  0  0
M  END
> <minimizedAffinity>
-8.45087

> <CNNscore>
0.4605060518

> <CNNaffinity>
6.4361748695

> <CNN_VS>
2.9638974667

> <CNNaffinity_variance>
0.0460775085

$$$$
[H]c1nc2c([H])c([H])c([H])c(-c3c([H])c(F)c(C#N)c(F)c3[H])n2n1


 19 21  0  0  0  0  0  0  0  0999 V2000
   16.6320   25.3456   -3.1674 F   0  0  0  0  0  0  0  0  0  0  0  0
   15.2752   25.5046   -3.0111 C   0  0  0  0  0  0  0  0  0  0  0  0
   14.6045   24.7872   -2.0250 C   0  0  0  0  0  0  0  0  0  0  0  0
   13.2620   24.8692   -1.7852 C   0  0  0  0  0  0  0  0  0  0  0  0
   12.5637   25.7439   -2.6101 C   0  0  0  0  0  0  0  0  0  0  0  0
   13.2092   26.4798   -3.6106 C   0  0  0  0  0  0  0  0  0  0  0  0
   12.5312   27.3331   -4.4157 F   0  0  0  0  0  0  0  0  0  0  0  0
   14.5610   26.3544   -3.8038 C   0  0  0  0  0  0  0  0  0  0  0  0
   12.5495   24.1067   -0.7801 C   0  0  0  0  0  0  0  0  0  0  0  0
   11.7839   24.7387    0.2030 C   0  0  0  0  0  0  0  0  0  0  0  0
   11.0665   24.1022    1.1619 C   0  0  0  0  0  0  0  0  0  0  0  0
   11.0733   22.7387    1.1953 C   0  0  0  0  0  0  0  0  0  0  0  0
   11.8204   22.0958    0.2368 C   0  0  0  0  0  0  0  0  0  0  0  0
   11.9704   20.7700    0.0707 N   0  0  0  0  0  0  0  0  0  0  0  0
   12.7749   20.6169   -0.9853 C   0  0  0  0  0  0  0  0  0  0  0  0
   13.0904   21.8220   -1.4292 N   0  0  0  0  0  0  0  0  0  0  0  0
   12.5325   22.7516   -0.7160 N   0  0  0  0  0  0  0  0  0  0  0  0
   15.2247   27.0972   -4.8169 C   0  0  0  0  0  0  0  0  0  0  0  0
   15.7506   27.7003   -5.6553 N   0  0  0  0  0  0  0  0  0  0  0  0
  1  2  1  0  0  0
  2  3  2  0  0  0
  3  4  1  0  0  0
  4  5  2  0  0  0
  5  6  1  0  0  0
  6  7  1  0  0  0
  6  8  2  0  0  0
  8 18  1  0  0  0
 18 19  3  0  0  0
  4  9  1  0  0  0
  9 10  2  0  0  0
 10 11  1  0  0  0
 11 12  2  0  0  0
 12 13  1  0  0  0
 13 14  2  0  0  0
 14 15  1  0  0  0
 15 16  2  0  0  0
 16 17  1  0  0  0
  8  2  1  0  0  0
 17  9  1  0  0  0
 17 13  1  0  0  0
M  END
> <minimizedAffinity>
-8.50379

> <CNNscore>
0.4064372778

> <CNNaffinity>
6.2897081375

> <CNN_VS>
2.5563719273

> <CNNaffinity_variance>
0.0628158003

$$$$
[H]c1nc(OC([H])([H])[H])c([H])c(N2C(=O)N(c3c([H])c([H])c(-c4c([H])c([H])c(C(=O)N([H])C([H])([H])[H])c([H])c4[H])c([H])c3[H])C(=O)C23C([H])([H])C([H])([H])N(C([H])([H])c2nc([H])c([H])c([H])c2C([H])([H])[H])C([H])([H])C3([H])[H])n1


 45 50  0  0  0  0  0  0  0  0999 V2000
   11.8730   23.5811    0.7343 N   0  0  0  0  0  0  0  0  0  0  0  0
   12.0037   22.1408    0.6246 C   0  0  0  0  0  0  0  0  0  0  0  0
   11.0835   21.3433    0.8402 O   0  0  0  0  0  0  0  0  0  0  0  0
   13.3812   21.9026    0.2208 N   0  0  0  0  0  0  0  0  0  0  0  0
   13.7334   23.0362   -0.5338 C   0  0  0  0  0  0  0  0  0  0  0  0
   15.1478   23.3446   -0.8131 C   0  0  0  0  0  0  0  0  0  0  0  0
   15.1700   24.5215   -1.8565 C   0  0  0  0  0  0  0  0  0  0  0  0
   14.9113   23.9475   -3.0686 N   0  0  0  0  0  0  0  0  0  0  0  0
   13.8041   22.9505   -3.0242 C   0  0  0  0  0  0  0  0  0  0  0  0
   12.9528   23.1253   -1.8215 C   0  0  0  0  0  0  0  0  0  0  0  0
   13.1305   24.1128    0.3758 C   0  0  0  0  0  0  0  0  0  0  0  0
   13.6412   25.2038    0.7169 O   0  0  0  0  0  0  0  0  0  0  0  0
    8.5288   25.3386    2.4334 C   0  0  0  0  0  0  0  0  0  0  0  0
    9.4118   24.7046    3.2167 C   0  0  0  0  0  0  0  0  0  0  0  0
   10.5456   24.1226    2.6165 C   0  0  0  0  0  0  0  0  0  0  0  0
   10.7055   24.2163    1.2239 C   0  0  0  0  0  0  0  0  0  0  0  0
    9.8134   24.8529    0.4250 C   0  0  0  0  0  0  0  0  0  0  0  0
    8.7270   25.4141    1.0353 C   0  0  0  0  0  0  0  0  0  0  0  0
    5.8535   28.1668    4.1359 C   0  0  0  0  0  0  0  0  0  0  0  0
    6.3249   28.3174    2.8304 C   0  0  0  0  0  0  0  0  0  0  0  0
    7.0938   27.3236    2.2512 C   0  0  0  0  0  0  0  0  0  0  0  0
    7.4149   26.1722    2.9279 C   0  0  0  0  0  0  0  0  0  0  0  0
    6.9518   25.9910    4.2053 C   0  0  0  0  0  0  0  0  0  0  0  0
    6.1696   27.0006    4.7965 C   0  0  0  0  0  0  0  0  0  0  0  0
    4.5264   31.0187    6.3491 C   0  0  0  0  0  0  0  0  0  0  0  0
    4.9075   29.5926    6.1209 N   0  0  0  0  0  0  0  0  0  0  0  0
    5.3336   29.3029    4.8610 C   0  0  0  0  0  0  0  0  0  0  0  0
    5.2681   30.3683    4.0111 O   0  0  0  0  0  0  0  0  0  0  0  0
    4.8082   28.9576    6.9020 H   0  0  0  0  0  0  0  0  0  0  0  0
   14.0459   20.7314    0.7121 C   0  0  0  0  0  0  0  0  0  0  0  0
   13.5233   19.9778    1.7404 C   0  0  0  0  0  0  0  0  0  0  0  0
   14.1912   18.8981    2.3383 C   0  0  0  0  0  0  0  0  0  0  0  0
   15.4135   18.5750    1.8825 N   0  0  0  0  0  0  0  0  0  0  0  0
   15.9310   19.3096    0.8655 C   0  0  0  0  0  0  0  0  0  0  0  0
   15.2634   20.3317    0.3240 N   0  0  0  0  0  0  0  0  0  0  0  0
   13.5679   18.2129    3.3432 O   0  0  0  0  0  0  0  0  0  0  0  0
   12.1961   18.3849    3.6254 C   0  0  0  0  0  0  0  0  0  0  0  0
   15.1941   24.2827   -4.3573 C   0  0  0  0  0  0  0  0  0  0  0  0
   15.1431   25.6153   -4.9232 C   0  0  0  0  0  0  0  0  0  0  0  0
   15.7260   26.0114   -6.0670 N   0  0  0  0  0  0  0  0  0  0  0  0
   15.8687   27.3229   -6.3889 C   0  0  0  0  0  0  0  0  0  0  0  0
   15.4214   28.3395   -5.5710 C   0  0  0  0  0  0  0  0  0  0  0  0
   14.8082   27.9697   -4.3865 C   0  0  0  0  0  0  0  0  0  0  0  0
   14.6937   26.6550   -4.1084 C   0  0  0  0  0  0  0  0  0  0  0  0
   13.9043   26.1921   -2.9137 C   0  0  0  0  0  0  0  0  0  0  0  0
 25 26  1  0  0  0
 26 27  1  0  0  0
 27 28  2  0  0  0
 27 19  1  0  0  0
 19 20  2  0  0  0
 20 21  1  0  0  0
 21 22  2  0  0  0
 22 23  1  0  0  0
 23 24  2  0  0  0
 22 13  1  0  0  0
 13 14  2  0  0  0
 14 15  1  0  0  0
 15 16  2  0  0  0
 16 17  1  0  0  0
 17 18  2  0  0  0
 16  1  1  0  0  0
  1  2  1  0  0  0
  2  3  2  0  0  0
  2  4  1  0  0  0
  4 30  1  0  0  0
 30 31  2  0  0  0
 31 32  1  0  0  0
 32 36  1  0  0  0
 36 37  1  0  0  0
 32 33  2  0  0  0
 33 34  1  0  0  0
 34 35  2  0  0  0
  4  5  1  0  0  0
  5  6  1  0  0  0
  6  7  1  0  0  0
  7  8  1  0  0  0
  8 38  1  0  0  0
 38 39  1  0  0  0
 39 40  2  0  0  0
 40 41  1  0  0  0
 41 42  2  0  0  0
 42 43  1  0  0  0
 43 44  2  0  0  0
 44 45  1  0  0  0
  8  9  1  0  0  0
  9 10  1  0  0  0
  5 11  1  0  0  0
 11 12  2  0  0  0
 24 19  1  0  0  0
 18 13  1  0  0  0
 11  1  1  0  0  0
 35 30  1  0  0  0
 10  5  1  0  0  0
 44 39  1  0  0  0
 26 29  1  0  0  0
M  END
> <minimizedAffinity>
17.16438

> <CNNscore>
0.4038898051

> <CNNaffinity>
7.1930642128

> <CNN_VS>
2.9052052498

> <CNNaffinity_variance>
0.9034237862

$$$$
[H]c1nc(OC([H])([H])[H])c([H])c(N2C(=O)N(c3c([H])c([H])c(-c4c([H])c([H])c(C(=O)N([H])C([H])([H])[H])c([H])c4[H])c([H])c3[H])C(=O)C23C([H])([H])C([H])([H])N(C([H])([H])c2nc([H])c([H])c([H])c2C([H])([H])[H])C([H])([H])C3([H])[H])n1


 45 50  0  0  0  0  0  0  0  0999 V2000
   11.3436   24.0453    0.4518 N   0  0  0  0  0  0  0  0  0  0  0  0
   11.7640   23.6056    1.7684 C   0  0  0  0  0  0  0  0  0  0  0  0
   12.9387   23.6020    2.1552 O   0  0  0  0  0  0  0  0  0  0  0  0
   10.5444   23.2121    2.4575 N   0  0  0  0  0  0  0  0  0  0  0  0
    9.5433   24.0343    1.9096 C   0  0  0  0  0  0  0  0  0  0  0  0
    8.1177   23.6989    2.0792 C   0  0  0  0  0  0  0  0  0  0  0  0
    7.2856   24.9273    1.5569 C   0  0  0  0  0  0  0  0  0  0  0  0
    7.3292   25.8569    2.5567 N   0  0  0  0  0  0  0  0  0  0  0  0
    8.6855   26.0167    3.1539 C   0  0  0  0  0  0  0  0  0  0  0  0
    9.7465   25.4868    2.2622 C   0  0  0  0  0  0  0  0  0  0  0  0
    9.9376   23.9213    0.4325 C   0  0  0  0  0  0  0  0  0  0  0  0
    9.1834   23.7561   -0.5530 O   0  0  0  0  0  0  0  0  0  0  0  0
   14.1152   24.8053   -2.5314 C   0  0  0  0  0  0  0  0  0  0  0  0
   14.0139   23.5698   -2.0230 C   0  0  0  0  0  0  0  0  0  0  0  0
   13.0579   23.3342   -1.0157 C   0  0  0  0  0  0  0  0  0  0  0  0
   12.2553   24.3990   -0.5729 C   0  0  0  0  0  0  0  0  0  0  0  0
   12.3557   25.6526   -1.0804 C   0  0  0  0  0  0  0  0  0  0  0  0
   13.2865   25.8502   -2.0612 C   0  0  0  0  0  0  0  0  0  0  0  0
   15.8953   25.4374   -6.3375 C   0  0  0  0  0  0  0  0  0  0  0  0
   14.9431   26.3245   -5.8322 C   0  0  0  0  0  0  0  0  0  0  0  0
   14.4681   26.1717   -4.5417 C   0  0  0  0  0  0  0  0  0  0  0  0
   14.9094   25.1595   -3.7248 C   0  0  0  0  0  0  0  0  0  0  0  0
   15.8560   24.2838   -4.1897 C   0  0  0  0  0  0  0  0  0  0  0  0
   16.3405   24.4372   -5.5022 C   0  0  0  0  0  0  0  0  0  0  0  0
   16.8905   25.1265  -10.0396 C   0  0  0  0  0  0  0  0  0  0  0  0
   17.2091   25.1042   -8.5805 N   0  0  0  0  0  0  0  0  0  0  0  0
   16.1619   25.3812   -7.7561 C   0  0  0  0  0  0  0  0  0  0  0  0
   15.0169   25.6987   -8.4267 O   0  0  0  0  0  0  0  0  0  0  0  0
   18.1655   24.9027   -8.3199 H   0  0  0  0  0  0  0  0  0  0  0  0
   10.6021   22.1157    3.3792 C   0  0  0  0  0  0  0  0  0  0  0  0
   11.4637   21.0565    3.1940 C   0  0  0  0  0  0  0  0  0  0  0  0
   11.4730   19.9048    3.9960 C   0  0  0  0  0  0  0  0  0  0  0  0
   10.5916   19.8268    5.0075 N   0  0  0  0  0  0  0  0  0  0  0  0
    9.7447   20.8698    5.1988 C   0  0  0  0  0  0  0  0  0  0  0  0
    9.7665   21.9486    4.4118 N   0  0  0  0  0  0  0  0  0  0  0  0
   12.3840   18.9222    3.7268 O   0  0  0  0  0  0  0  0  0  0  0  0
   12.0024   17.5730    3.5685 C   0  0  0  0  0  0  0  0  0  0  0  0
    6.5246   26.8904    2.9276 C   0  0  0  0  0  0  0  0  0  0  0  0
    5.8586   27.0372    4.2056 C   0  0  0  0  0  0  0  0  0  0  0  0
    5.3027   26.0485    4.9257 N   0  0  0  0  0  0  0  0  0  0  0  0
    4.4631   26.2949    5.9641 C   0  0  0  0  0  0  0  0  0  0  0  0
    4.1263   27.5734    6.3575 C   0  0  0  0  0  0  0  0  0  0  0  0
    4.6861   28.6187    5.6435 C   0  0  0  0  0  0  0  0  0  0  0  0
    5.5105   28.3241    4.6176 C   0  0  0  0  0  0  0  0  0  0  0  0
    6.2646   29.4142    3.9053 C   0  0  0  0  0  0  0  0  0  0  0  0
 25 26  1  0  0  0
 26 27  1  0  0  0
 27 28  2  0  0  0
 27 19  1  0  0  0
 19 20  2  0  0  0
 20 21  1  0  0  0
 21 22  2  0  0  0
 22 23  1  0  0  0
 23 24  2  0  0  0
 22 13  1  0  0  0
 13 14  2  0  0  0
 14 15  1  0  0  0
 15 16  2  0  0  0
 16 17  1  0  0  0
 17 18  2  0  0  0
 16  1  1  0  0  0
  1  2  1  0  0  0
  2  3  2  0  0  0
  2  4  1  0  0  0
  4 30  1  0  0  0
 30 31  2  0  0  0
 31 32  1  0  0  0
 32 36  1  0  0  0
 36 37  1  0  0  0
 32 33  2  0  0  0
 33 34  1  0  0  0
 34 35  2  0  0  0
  4  5  1  0  0  0
  5  6  1  0  0  0
  6  7  1  0  0  0
  7  8  1  0  0  0
  8 38  1  0  0  0
 38 39  1  0  0  0
 39 40  2  0  0  0
 40 41  1  0  0  0
 41 42  2  0  0  0
 42 43  1  0  0  0
 43 44  2  0  0  0
 44 45  1  0  0  0
  8  9  1  0  0  0
  9 10  1  0  0  0
  5 11  1  0  0  0
 11 12  2  0  0  0
 24 19  1  0  0  0
 18 13  1  0  0  0
 11  1  1  0  0  0
 35 30  1  0  0  0
 10  5  1  0  0  0
 44 39  1  0  0  0
 26 29  1  0  0  0
M  END
> <minimizedAffinity>
3.90658

> <CNNscore>
0.3706877828

> <CNNaffinity>
7.0837264061

> <CNN_VS>
2.6258509159

> <CNNaffinity_variance>
0.1926133335

$$$$
[H]c1nc(OC([H])([H])[H])c([H])c(N2C(=O)N(c3c([H])c([H])c(-c4c([H])c([H])c(C(=O)N([H])C([H])([H])[H])c([H])c4[H])c([H])c3[H])C(=O)C23C([H])([H])C([H])([H])N(C([H])([H])c2nc([H])c([H])c([H])c2C([H])([H])[H])C([H])([H])C3([H])[H])n1


 45 50  0  0  0  0  0  0  0  0999 V2000
   14.1666   24.7632   -1.2938 N   0  0  0  0  0  0  0  0  0  0  0  0
   15.2192   25.0145   -0.3282 C   0  0  0  0  0  0  0  0  0  0  0  0
   15.4609   26.1250    0.1596 O   0  0  0  0  0  0  0  0  0  0  0  0
   15.8550   23.7261   -0.0983 N   0  0  0  0  0  0  0  0  0  0  0  0
   14.8305   22.7823   -0.2932 C   0  0  0  0  0  0  0  0  0  0  0  0
   15.1494   21.3589   -0.5071 C   0  0  0  0  0  0  0  0  0  0  0  0
   13.7924   20.5652   -0.4550 C   0  0  0  0  0  0  0  0  0  0  0  0
   13.4860   20.4410    0.8702 N   0  0  0  0  0  0  0  0  0  0  0  0
   13.6979   21.6971    1.6443 C   0  0  0  0  0  0  0  0  0  0  0  0
   13.7553   22.8869    0.7595 C   0  0  0  0  0  0  0  0  0  0  0  0
   14.2091   23.3779   -1.5617 C   0  0  0  0  0  0  0  0  0  0  0  0
   13.8323   22.7711   -2.5898 O   0  0  0  0  0  0  0  0  0  0  0  0
   12.0152   27.7179   -3.2433 C   0  0  0  0  0  0  0  0  0  0  0  0
   12.8450   26.9335   -3.9443 C   0  0  0  0  0  0  0  0  0  0  0  0
   13.5589   25.9301   -3.2603 C   0  0  0  0  0  0  0  0  0  0  0  0
   13.3862   25.7939   -1.8727 C   0  0  0  0  0  0  0  0  0  0  0  0
   12.5511   26.5871   -1.1568 C   0  0  0  0  0  0  0  0  0  0  0  0
   11.8663   27.5470   -1.8475 C   0  0  0  0  0  0  0  0  0  0  0  0
    9.7678   30.5704   -5.4494 C   0  0  0  0  0  0  0  0  0  0  0  0
    9.7208   29.2127   -5.7711 C   0  0  0  0  0  0  0  0  0  0  0  0
   10.3589   28.2862   -4.9656 C   0  0  0  0  0  0  0  0  0  0  0  0
   11.0490   28.6622   -3.8392 C   0  0  0  0  0  0  0  0  0  0  0  0
   11.0978   29.9871   -3.4908 C   0  0  0  0  0  0  0  0  0  0  0  0
   10.4495   30.9314   -4.3087 C   0  0  0  0  0  0  0  0  0  0  0  0
    8.9516   33.4432   -7.8729 C   0  0  0  0  0  0  0  0  0  0  0  0
    9.4240   32.9212   -6.5556 N   0  0  0  0  0  0  0  0  0  0  0  0
    9.3930   31.5665   -6.4261 C   0  0  0  0  0  0  0  0  0  0  0  0
    8.8653   30.9327   -7.5131 O   0  0  0  0  0  0  0  0  0  0  0  0
    9.7127   33.6024   -5.8658 H   0  0  0  0  0  0  0  0  0  0  0  0
   17.2660   23.6941    0.1531 C   0  0  0  0  0  0  0  0  0  0  0  0
   17.7806   23.8445    1.4224 C   0  0  0  0  0  0  0  0  0  0  0  0
   19.1516   23.9436    1.7052 C   0  0  0  0  0  0  0  0  0  0  0  0
   20.0184   23.8871    0.6796 N   0  0  0  0  0  0  0  0  0  0  0  0
   19.5178   23.7326   -0.5723 C   0  0  0  0  0  0  0  0  0  0  0  0
   18.2048   23.6437   -0.8000 N   0  0  0  0  0  0  0  0  0  0  0  0
   19.5478   24.0765    3.0064 O   0  0  0  0  0  0  0  0  0  0  0  0
   20.6711   24.8491    3.3699 C   0  0  0  0  0  0  0  0  0  0  0  0
   12.7432   19.5594    1.5942 C   0  0  0  0  0  0  0  0  0  0  0  0
   11.7910   19.8966    2.6325 C   0  0  0  0  0  0  0  0  0  0  0  0
   11.8011   19.4359    3.8945 N   0  0  0  0  0  0  0  0  0  0  0  0
   10.7337   19.5733    4.7225 C   0  0  0  0  0  0  0  0  0  0  0  0
    9.5682   20.1990    4.3315 C   0  0  0  0  0  0  0  0  0  0  0  0
    9.5233   20.6937    3.0395 C   0  0  0  0  0  0  0  0  0  0  0  0
   10.6065   20.5292    2.2532 C   0  0  0  0  0  0  0  0  0  0  0  0
   10.6720   21.1769    0.8964 C   0  0  0  0  0  0  0  0  0  0  0  0
 25 26  1  0  0  0
 26 27  1  0  0  0
 27 28  2  0  0  0
 27 19  1  0  0  0
 19 20  2  0  0  0
 20 21  1  0  0  0
 21 22  2  0  0  0
 22 23  1  0  0  0
 23 24  2  0  0  0
 22 13  1  0  0  0
 13 14  2  0  0  0
 14 15  1  0  0  0
 15 16  2  0  0  0
 16 17  1  0  0  0
 17 18  2  0  0  0
 16  1  1  0  0  0
  1  2  1  0  0  0
  2  3  2  0  0  0
  2  4  1  0  0  0
  4 30  1  0  0  0
 30 31  2  0  0  0
 31 32  1  0  0  0
 32 36  1  0  0  0
 36 37  1  0  0  0
 32 33  2  0  0  0
 33 34  1  0  0  0
 34 35  2  0  0  0
  4  5  1  0  0  0
  5  6  1  0  0  0
  6  7  1  0  0  0
  7  8  1  0  0  0
  8 38  1  0  0  0
 38 39  1  0  0  0
 39 40  2  0  0  0
 40 41  1  0  0  0
 41 42  2  0  0  0
 42 43  1  0  0  0
 43 44  2  0  0  0
 44 45  1  0  0  0
  8  9  1  0  0  0
  9 10  1  0  0  0
  5 11  1  0  0  0
 11 12  2  0  0  0
 24 19  1  0  0  0
 18 13  1  0  0  0
 11  1  1  0  0  0
 35 30  1  0  0  0
 10  5  1  0  0  0
 44 39  1  0  0  0
 26 29  1  0  0  0
M  END
> <minimizedAffinity>
48.40519

> <CNNscore>
0.3071173429

> <CNNaffinity>
7.1161675453

> <CNN_VS>
2.1854984760

> <CNNaffinity_variance>
0.5286515355

$$$$
[H]c1nc(OC([H])([H])[H])c([H])c(N2C(=O)N(c3c([H])c([H])c(-c4c([H])c([H])c(C(=O)N([H])C([H])([H])[H])c([H])c4[H])c([H])c3[H])C(=O)C23C([H])([H])C([H])([H])N(C([H])([H])c2nc([H])c([H])c([H])c2C([H])([H])[H])C([H])([H])C3([H])[H])n1


 45 50  0  0  0  0  0  0  0  0999 V2000
   11.8043   23.5823    0.0299 N   0  0  0  0  0  0  0  0  0  0  0  0
   12.2617   22.9654    1.2603 C   0  0  0  0  0  0  0  0  0  0  0  0
   13.4459   22.9206    1.6141 O   0  0  0  0  0  0  0  0  0  0  0  0
   11.0633   22.4641    1.9157 N   0  0  0  0  0  0  0  0  0  0  0  0
   10.0420   23.3440    1.5143 C   0  0  0  0  0  0  0  0  0  0  0  0
    8.6239   22.9715    1.6689 C   0  0  0  0  0  0  0  0  0  0  0  0
    7.7689   24.2517    1.3465 C   0  0  0  0  0  0  0  0  0  0  0  0
    7.8305   25.0307    2.4667 N   0  0  0  0  0  0  0  0  0  0  0  0
    9.2003   25.1200    3.0477 C   0  0  0  0  0  0  0  0  0  0  0  0
   10.2424   24.7341    2.0645 C   0  0  0  0  0  0  0  0  0  0  0  0
   10.3994   23.4459    0.0271 C   0  0  0  0  0  0  0  0  0  0  0  0
    9.6216   23.4133   -0.9534 O   0  0  0  0  0  0  0  0  0  0  0  0
   14.5028   24.7925   -2.8705 C   0  0  0  0  0  0  0  0  0  0  0  0
   14.4641   23.5055   -2.5002 C   0  0  0  0  0  0  0  0  0  0  0  0
   13.5318   23.1168   -1.5183 C   0  0  0  0  0  0  0  0  0  0  0  0
   12.6867   24.0880   -0.9559 C   0  0  0  0  0  0  0  0  0  0  0  0
   12.7237   25.3930   -1.3234 C   0  0  0  0  0  0  0  0  0  0  0  0
   13.6329   25.7399   -2.2828 C   0  0  0  0  0  0  0  0  0  0  0  0
   16.2603   26.8771   -6.1294 C   0  0  0  0  0  0  0  0  0  0  0  0
   16.7498   27.0279   -4.8307 C   0  0  0  0  0  0  0  0  0  0  0  0
   16.2472   26.2476   -3.8046 C   0  0  0  0  0  0  0  0  0  0  0  0
   15.2658   25.3118   -4.0231 C   0  0  0  0  0  0  0  0  0  0  0  0
   14.7784   25.1315   -5.2916 C   0  0  0  0  0  0  0  0  0  0  0  0
   15.2882   25.9241   -6.3369 C   0  0  0  0  0  0  0  0  0  0  0  0
   17.0358   29.2937   -9.0193 C   0  0  0  0  0  0  0  0  0  0  0  0
   17.0788   27.9453   -8.3783 N   0  0  0  0  0  0  0  0  0  0  0  0
   16.5312   27.8794   -7.1337 C   0  0  0  0  0  0  0  0  0  0  0  0
   16.1002   29.0878   -6.6694 O   0  0  0  0  0  0  0  0  0  0  0  0
   17.5169   27.1990   -8.9020 H   0  0  0  0  0  0  0  0  0  0  0  0
   11.1533   21.2488    2.6708 C   0  0  0  0  0  0  0  0  0  0  0  0
   10.2991   20.9800    3.7179 C   0  0  0  0  0  0  0  0  0  0  0  0
   10.4225   19.8669    4.5636 C   0  0  0  0  0  0  0  0  0  0  0  0
   11.4319   19.0080    4.3414 N   0  0  0  0  0  0  0  0  0  0  0  0
   12.2729   19.2640    3.3075 C   0  0  0  0  0  0  0  0  0  0  0  0
   12.1223   20.3364    2.5258 N   0  0  0  0  0  0  0  0  0  0  0  0
    9.5064   19.6943    5.5630 O   0  0  0  0  0  0  0  0  0  0  0  0
    8.3942   20.5496    5.7127 C   0  0  0  0  0  0  0  0  0  0  0  0
    7.0273   25.9919    2.9998 C   0  0  0  0  0  0  0  0  0  0  0  0
    6.1783   25.8451    4.1643 C   0  0  0  0  0  0  0  0  0  0  0  0
    4.9726   25.2530    4.1942 N   0  0  0  0  0  0  0  0  0  0  0  0
    4.1230   25.3964    5.2437 C   0  0  0  0  0  0  0  0  0  0  0  0
    4.4374   26.1524    6.3537 C   0  0  0  0  0  0  0  0  0  0  0  0
    5.6751   26.7719    6.3623 C   0  0  0  0  0  0  0  0  0  0  0  0
    6.4825   26.6036    5.2953 C   0  0  0  0  0  0  0  0  0  0  0  0
    7.8939   27.1255    5.3144 C   0  0  0  0  0  0  0  0  0  0  0  0
 25 26  1  0  0  0
 26 27  1  0  0  0
 27 28  2  0  0  0
 27 19  1  0  0  0
 19 20  2  0  0  0
 20 21  1  0  0  0
 21 22  2  0  0  0
 22 23  1  0  0  0
 23 24  2  0  0  0
 22 13  1  0  0  0
 13 14  2  0  0  0
 14 15  1  0  0  0
 15 16  2  0  0  0
 16 17  1  0  0  0
 17 18  2  0  0  0
 16  1  1  0  0  0
  1  2  1  0  0  0
  2  3  2  0  0  0
  2  4  1  0  0  0
  4 30  1  0  0  0
 30 31  2  0  0  0
 31 32  1  0  0  0
 32 36  1  0  0  0
 36 37  1  0  0  0
 32 33  2  0  0  0
 33 34  1  0  0  0
 34 35  2  0  0  0
  4  5  1  0  0  0
  5  6  1  0  0  0
  6  7  1  0  0  0
  7  8  1  0  0  0
  8 38  1  0  0  0
 38 39  1  0  0  0
 39 40  2  0  0  0
 40 41  1  0  0  0
 41 42  2  0  0  0
 42 43  1  0  0  0
 43 44  2  0  0  0
 44 45  1  0  0  0
  8  9  1  0  0  0
  9 10  1  0  0  0
  5 11  1  0  0  0
 11 12  2  0  0  0
 24 19  1  0  0  0
 18 13  1  0  0  0
 11  1  1  0  0  0
 35 30  1  0  0  0
 10  5  1  0  0  0
 44 39  1  0  0  0
 26 29  1  0  0  0
M  END
> <minimizedAffinity>
1.03716

> <CNNscore>
0.2807193696

> <CNNaffinity>
7.1803016663

> <CNN_VS>
2.0156497955

> <CNNaffinity_variance>
0.2124763280

$$$$
[H]c1nc(OC([H])([H])[H])c([H])c(N2C(=O)N(c3c([H])c([H])c(-c4c([H])c([H])c(C(=O)N([H])C([H])([H])[H])c([H])c4[H])c([H])c3[H])C(=O)C23C([H])([H])C([H])([H])N(C([H])([H])c2nc([H])c([H])c([H])c2C([H])([H])[H])C([H])([H])C3([H])[H])n1


 45 50  0  0  0  0  0  0  0  0999 V2000
   11.6048   22.9488   -0.0125 N   0  0  0  0  0  0  0  0  0  0  0  0
   10.6616   23.5582    0.9054 C   0  0  0  0  0  0  0  0  0  0  0  0
   10.4213   24.7706    0.9481 O   0  0  0  0  0  0  0  0  0  0  0  0
   10.1138   22.4613    1.6890 N   0  0  0  0  0  0  0  0  0  0  0  0
   10.1507   21.3519    0.8252 C   0  0  0  0  0  0  0  0  0  0  0  0
   10.0225   19.9817    1.3541 C   0  0  0  0  0  0  0  0  0  0  0  0
    9.8715   19.0188    0.1197 C   0  0  0  0  0  0  0  0  0  0  0  0
    8.5717   19.1338   -0.2837 N   0  0  0  0  0  0  0  0  0  0  0  0
    8.0872   20.5431   -0.3159 C   0  0  0  0  0  0  0  0  0  0  0  0
    9.2108   21.5118   -0.3437 C   0  0  0  0  0  0  0  0  0  0  0  0
   11.5534   21.5616    0.2434 C   0  0  0  0  0  0  0  0  0  0  0  0
   12.4396   20.6995    0.0465 O   0  0  0  0  0  0  0  0  0  0  0  0
   14.2773   24.9719   -2.4464 C   0  0  0  0  0  0  0  0  0  0  0  0
   14.6875   23.8897   -1.7713 C   0  0  0  0  0  0  0  0  0  0  0  0
   13.7578   23.2136   -0.9571 C   0  0  0  0  0  0  0  0  0  0  0  0
   12.4427   23.7005   -0.8722 C   0  0  0  0  0  0  0  0  0  0  0  0
   12.0223   24.7976   -1.5497 C   0  0  0  0  0  0  0  0  0  0  0  0
   12.9435   25.4290   -2.3371 C   0  0  0  0  0  0  0  0  0  0  0  0
   15.9873   27.4314   -5.4599 C   0  0  0  0  0  0  0  0  0  0  0  0
   16.2676   27.6479   -4.1095 C   0  0  0  0  0  0  0  0  0  0  0  0
   15.8030   26.7620   -3.1536 C   0  0  0  0  0  0  0  0  0  0  0  0
   15.0627   25.6560   -3.4930 C   0  0  0  0  0  0  0  0  0  0  0  0
   14.7864   25.4103   -4.8130 C   0  0  0  0  0  0  0  0  0  0  0  0
   15.2579   26.3102   -5.7871 C   0  0  0  0  0  0  0  0  0  0  0  0
   16.4888   30.4631   -7.7729 C   0  0  0  0  0  0  0  0  0  0  0  0
   16.0783   29.8452   -6.4764 N   0  0  0  0  0  0  0  0  0  0  0  0
   16.1798   28.4887   -6.4251 C   0  0  0  0  0  0  0  0  0  0  0  0
   16.5783   27.9326   -7.6056 O   0  0  0  0  0  0  0  0  0  0  0  0
   15.7480   30.4690   -5.7519 H   0  0  0  0  0  0  0  0  0  0  0  0
    9.7818   22.7004    3.0629 C   0  0  0  0  0  0  0  0  0  0  0  0
    9.3895   23.9436    3.5091 C   0  0  0  0  0  0  0  0  0  0  0  0
    9.1731   24.2590    4.8593 C   0  0  0  0  0  0  0  0  0  0  0  0
    9.3568   23.2931    5.7755 N   0  0  0  0  0  0  0  0  0  0  0  0
    9.7371   22.0648    5.3416 C   0  0  0  0  0  0  0  0  0  0  0  0
    9.9344   21.8050    4.0465 N   0  0  0  0  0  0  0  0  0  0  0  0
    8.7710   25.5242    5.1839 O   0  0  0  0  0  0  0  0  0  0  0  0
    8.6351   26.5373    4.2112 C   0  0  0  0  0  0  0  0  0  0  0  0
    7.7124   18.3230   -0.9600 C   0  0  0  0  0  0  0  0  0  0  0  0
    6.5321   18.7463   -1.6853 C   0  0  0  0  0  0  0  0  0  0  0  0
    6.5108   19.5555   -2.7576 N   0  0  0  0  0  0  0  0  0  0  0  0
    5.3646   20.1260   -3.2097 C   0  0  0  0  0  0  0  0  0  0  0  0
    4.1424   19.9119   -2.6071 C   0  0  0  0  0  0  0  0  0  0  0  0
    4.1236   19.0770   -1.5033 C   0  0  0  0  0  0  0  0  0  0  0  0
    5.2880   18.5374   -1.0889 C   0  0  0  0  0  0  0  0  0  0  0  0
    5.3059   17.5067    0.0073 C   0  0  0  0  0  0  0  0  0  0  0  0
 25 26  1  0  0  0
 26 27  1  0  0  0
 27 28  2  0  0  0
 27 19  1  0  0  0
 19 20  2  0  0  0
 20 21  1  0  0  0
 21 22  2  0  0  0
 22 23  1  0  0  0
 23 24  2  0  0  0
 22 13  1  0  0  0
 13 14  2  0  0  0
 14 15  1  0  0  0
 15 16  2  0  0  0
 16 17  1  0  0  0
 17 18  2  0  0  0
 16  1  1  0  0  0
  1  2  1  0  0  0
  2  3  2  0  0  0
  2  4  1  0  0  0
  4 30  1  0  0  0
 30 31  2  0  0  0
 31 32  1  0  0  0
 32 36  1  0  0  0
 36 37  1  0  0  0
 32 33  2  0  0  0
 33 34  1  0  0  0
 34 35  2  0  0  0
  4  5  1  0  0  0
  5  6  1  0  0  0
  6  7  1  0  0  0
  7  8  1  0  0  0
  8 38  1  0  0  0
 38 39  1  0  0  0
 39 40  2  0  0  0
 40 41  1  0  0  0
 41 42  2  0  0  0
 42 43  1  0  0  0
 43 44  2  0  0  0
 44 45  1  0  0  0
  8  9  1  0  0  0
  9 10  1  0  0  0
  5 11  1  0  0  0
 11 12  2  0  0  0
 24 19  1  0  0  0
 18 13  1  0  0  0
 11  1  1  0  0  0
 35 30  1  0  0  0
 10  5  1  0  0  0
 44 39  1  0  0  0
 26 29  1  0  0  0
M  END
> <minimizedAffinity>
-3.47339

> <CNNscore>
0.2510221899

> <CNNaffinity>
7.3411817551

> <CNN_VS>
1.8427995443

> <CNNaffinity_variance>
0.2369556129

$$$$
[H]c1nc(OC([H])([H])[H])c([H])c(N2C(=O)N(c3c([H])c([H])c(-c4c([H])c([H])c(C(=O)N([H])C([H])([H])[H])c([H])c4[H])c([H])c3[H])C(=O)C23C([H])([H])C([H])([H])N(C([H])([H])c2nc([H])c([H])c([H])c2C([H])([H])[H])C([H])([H])C3([H])[H])n1


 45 50  0  0  0  0  0  0  0  0999 V2000
   15.0633   23.4207   -1.2303 N   0  0  0  0  0  0  0  0  0  0  0  0
   15.8726   23.1568   -0.0560 C   0  0  0  0  0  0  0  0  0  0  0  0
   16.7911   23.8891    0.3311 O   0  0  0  0  0  0  0  0  0  0  0  0
   15.3583   21.9157    0.5029 N   0  0  0  0  0  0  0  0  0  0  0  0
   13.9940   21.9083    0.1609 C   0  0  0  0  0  0  0  0  0  0  0  0
   13.2082   20.6627    0.2280 C   0  0  0  0  0  0  0  0  0  0  0  0
   11.6997   21.0522    0.0117 C   0  0  0  0  0  0  0  0  0  0  0  0
   11.2703   21.5515    1.2083 N   0  0  0  0  0  0  0  0  0  0  0  0
   12.2452   22.4846    1.8414 C   0  0  0  0  0  0  0  0  0  0  0  0
   13.2283   23.0045    0.8591 C   0  0  0  0  0  0  0  0  0  0  0  0
   14.1206   22.3721   -1.2947 C   0  0  0  0  0  0  0  0  0  0  0  0
   13.5251   21.9201   -2.2990 O   0  0  0  0  0  0  0  0  0  0  0  0
   16.0296   26.3566   -3.9881 C   0  0  0  0  0  0  0  0  0  0  0  0
   16.5883   25.1433   -4.0919 C   0  0  0  0  0  0  0  0  0  0  0  0
   16.2371   24.1590   -3.1473 C   0  0  0  0  0  0  0  0  0  0  0  0
   15.3268   24.4843   -2.1278 C   0  0  0  0  0  0  0  0  0  0  0  0
   14.7610   25.7116   -2.0148 C   0  0  0  0  0  0  0  0  0  0  0  0
   15.1146   26.6442   -2.9489 C   0  0  0  0  0  0  0  0  0  0  0  0
   15.9007   29.8040   -6.4687 C   0  0  0  0  0  0  0  0  0  0  0  0
   16.9116   29.6372   -5.5204 C   0  0  0  0  0  0  0  0  0  0  0  0
   17.0089   28.4536   -4.8106 C   0  0  0  0  0  0  0  0  0  0  0  0
   16.1299   27.4172   -5.0105 C   0  0  0  0  0  0  0  0  0  0  0  0
   15.1374   27.5478   -5.9470 C   0  0  0  0  0  0  0  0  0  0  0  0
   15.0364   28.7510   -6.6701 C   0  0  0  0  0  0  0  0  0  0  0  0
   15.3021   33.2529   -8.0622 C   0  0  0  0  0  0  0  0  0  0  0  0
   16.1274   32.0289   -7.8350 N   0  0  0  0  0  0  0  0  0  0  0  0
   15.5870   31.1183   -6.9795 C   0  0  0  0  0  0  0  0  0  0  0  0
   14.4082   31.5291   -6.4286 O   0  0  0  0  0  0  0  0  0  0  0  0
   17.0166   31.9761   -8.3143 H   0  0  0  0  0  0  0  0  0  0  0  0
   16.2793   21.0139    1.1302 C   0  0  0  0  0  0  0  0  0  0  0  0
   16.5939   21.1120    2.4680 C   0  0  0  0  0  0  0  0  0  0  0  0
   17.5774   20.3360    3.1005 C   0  0  0  0  0  0  0  0  0  0  0  0
   18.2542   19.4408    2.3611 N   0  0  0  0  0  0  0  0  0  0  0  0
   17.9443   19.3350    1.0441 C   0  0  0  0  0  0  0  0  0  0  0  0
   17.0017   20.0938    0.4790 N   0  0  0  0  0  0  0  0  0  0  0  0
   17.7941   20.5101    4.4386 O   0  0  0  0  0  0  0  0  0  0  0  0
   17.7102   21.7790    5.0499 C   0  0  0  0  0  0  0  0  0  0  0  0
   10.0543   21.6580    1.8111 C   0  0  0  0  0  0  0  0  0  0  0  0
    9.1135   22.7473    1.6477 C   0  0  0  0  0  0  0  0  0  0  0  0
    9.3845   23.9542    1.1233 N   0  0  0  0  0  0  0  0  0  0  0  0
    8.5366   25.0065    1.2557 C   0  0  0  0  0  0  0  0  0  0  0  0
    7.3372   24.9115    1.9302 C   0  0  0  0  0  0  0  0  0  0  0  0
    7.0199   23.6806    2.4780 C   0  0  0  0  0  0  0  0  0  0  0  0
    7.8957   22.6666    2.3242 C   0  0  0  0  0  0  0  0  0  0  0  0
    7.5371   21.2730    2.7643 C   0  0  0  0  0  0  0  0  0  0  0  0
 25 26  1  0  0  0
 26 27  1  0  0  0
 27 28  2  0  0  0
 27 19  1  0  0  0
 19 20  2  0  0  0
 20 21  1  0  0  0
 21 22  2  0  0  0
 22 23  1  0  0  0
 23 24  2  0  0  0
 22 13  1  0  0  0
 13 14  2  0  0  0
 14 15  1  0  0  0
 15 16  2  0  0  0
 16 17  1  0  0  0
 17 18  2  0  0  0
 16  1  1  0  0  0
  1  2  1  0  0  0
  2  3  2  0  0  0
  2  4  1  0  0  0
  4 30  1  0  0  0
 30 31  2  0  0  0
 31 32  1  0  0  0
 32 36  1  0  0  0
 36 37  1  0  0  0
 32 33  2  0  0  0
 33 34  1  0  0  0
 34 35  2  0  0  0
  4  5  1  0  0  0
  5  6  1  0  0  0
  6  7  1  0  0  0
  7  8  1  0  0  0
  8 38  1  0  0  0
 38 39  1  0  0  0
 39 40  2  0  0  0
 40 41  1  0  0  0
 41 42  2  0  0  0
 42 43  1  0  0  0
 43 44  2  0  0  0
 44 45  1  0  0  0
  8  9  1  0  0  0
  9 10  1  0  0  0
  5 11  1  0  0  0
 11 12  2  0  0  0
 24 19  1  0  0  0
 18 13  1  0  0  0
 11  1  1  0  0  0
 35 30  1  0  0  0
 10  5  1  0  0  0
 44 39  1  0  0  0
 26 29  1  0  0  0
M  END
> <minimizedAffinity>
58.76200

> <CNNscore>
0.2321148962

> <CNNaffinity>
6.7249040604

> <CNN_VS>
1.5609503984

> <CNNaffinity_variance>
0.7418093085

$$$$
[H]c1nc(OC([H])([H])[H])c([H])c(N2C(=O)N(c3c([H])c([H])c(-c4c([H])c([H])c(C(=O)N([H])C([H])([H])[H])c([H])c4[H])c([H])c3[H])C(=O)C23C([H])([H])C([H])([H])N(C([H])([H])c2nc([H])c([H])c([H])c2C([H])([H])[H])C([H])([H])C3([H])[H])n1


 45 50  0  0  0  0  0  0  0  0999 V2000
    8.7137   22.7963    1.6252 N   0  0  0  0  0  0  0  0  0  0  0  0
    7.9249   21.9527    0.7478 C   0  0  0  0  0  0  0  0  0  0  0  0
    7.0760   22.3791   -0.0440 O   0  0  0  0  0  0  0  0  0  0  0  0
    8.3636   20.5914    1.0155 N   0  0  0  0  0  0  0  0  0  0  0  0
    9.7120   20.7187    1.3948 C   0  0  0  0  0  0  0  0  0  0  0  0
   10.4053   19.6186    2.0897 C   0  0  0  0  0  0  0  0  0  0  0  0
   11.9308   19.9966    2.1530 C   0  0  0  0  0  0  0  0  0  0  0  0
   12.4339   19.7169    0.9143 N   0  0  0  0  0  0  0  0  0  0  0  0
   11.5513   20.1731   -0.1969 C   0  0  0  0  0  0  0  0  0  0  0  0
   10.5785   21.1976    0.2568 C   0  0  0  0  0  0  0  0  0  0  0  0
    9.5738   21.9261    2.3292 C   0  0  0  0  0  0  0  0  0  0  0  0
   10.1018   22.0923    3.4521 O   0  0  0  0  0  0  0  0  0  0  0  0
    8.3273   26.9155    1.8289 C   0  0  0  0  0  0  0  0  0  0  0  0
    9.2807   26.3789    1.0555 C   0  0  0  0  0  0  0  0  0  0  0  0
    9.3865   24.9755    0.9959 C   0  0  0  0  0  0  0  0  0  0  0  0
    8.5011   24.1908    1.7536 C   0  0  0  0  0  0  0  0  0  0  0  0
    7.5367   24.7277    2.5415 C   0  0  0  0  0  0  0  0  0  0  0  0
    7.4528   26.0912    2.5744 C   0  0  0  0  0  0  0  0  0  0  0  0
    6.6051   30.7922    1.5843 C   0  0  0  0  0  0  0  0  0  0  0  0
    6.4996   30.0302    2.7493 C   0  0  0  0  0  0  0  0  0  0  0  0
    7.1720   28.8255    2.8538 C   0  0  0  0  0  0  0  0  0  0  0  0
    7.9548   28.3443    1.8328 C   0  0  0  0  0  0  0  0  0  0  0  0
    8.0890   29.0798    0.6838 C   0  0  0  0  0  0  0  0  0  0  0  0
    7.4059   30.3056    0.5753 C   0  0  0  0  0  0  0  0  0  0  0  0
    4.2277   33.7914    1.2030 C   0  0  0  0  0  0  0  0  0  0  0  0
    5.0856   32.8824    2.0207 N   0  0  0  0  0  0  0  0  0  0  0  0
    5.6780   31.8703    1.3296 C   0  0  0  0  0  0  0  0  0  0  0  0
    5.3192   31.8335    0.0137 O   0  0  0  0  0  0  0  0  0  0  0  0
    5.1492   33.0753    3.0117 H   0  0  0  0  0  0  0  0  0  0  0  0
    7.3989   19.5338    0.9393 C   0  0  0  0  0  0  0  0  0  0  0  0
    7.3783   18.6446   -0.1129 C   0  0  0  0  0  0  0  0  0  0  0  0
    6.3838   17.6717   -0.2971 C   0  0  0  0  0  0  0  0  0  0  0  0
    5.3909   17.5982    0.6055 N   0  0  0  0  0  0  0  0  0  0  0  0
    5.4091   18.4673    1.6477 C   0  0  0  0  0  0  0  0  0  0  0  0
    6.3736   19.3805    1.7866 N   0  0  0  0  0  0  0  0  0  0  0  0
    6.4742   16.8328   -1.3722 O   0  0  0  0  0  0  0  0  0  0  0  0
    5.5983   15.7397   -1.5424 C   0  0  0  0  0  0  0  0  0  0  0  0
   13.6730   19.4130    0.4395 C   0  0  0  0  0  0  0  0  0  0  0  0
   14.7557   20.3499    0.2190 C   0  0  0  0  0  0  0  0  0  0  0  0
   16.0015   20.2486    0.7116 N   0  0  0  0  0  0  0  0  0  0  0  0
   16.8721   21.2905    0.6947 C   0  0  0  0  0  0  0  0  0  0  0  0
   16.5440   22.5219    0.1669 C   0  0  0  0  0  0  0  0  0  0  0  0
   15.2706   22.6621   -0.3572 C   0  0  0  0  0  0  0  0  0  0  0  0
   14.4401   21.6004   -0.3137 C   0  0  0  0  0  0  0  0  0  0  0  0
   13.1027   21.6470   -1.0019 C   0  0  0  0  0  0  0  0  0  0  0  0
 25 26  1  0  0  0
 26 27  1  0  0  0
 27 28  2  0  0  0
 27 19  1  0  0  0
 19 20  2  0  0  0
 20 21  1  0  0  0
 21 22  2  0  0  0
 22 23  1  0  0  0
 23 24  2  0  0  0
 22 13  1  0  0  0
 13 14  2  0  0  0
 14 15  1  0  0  0
 15 16  2  0  0  0
 16 17  1  0  0  0
 17 18  2  0  0  0
 16  1  1  0  0  0
  1  2  1  0  0  0
  2  3  2  0  0  0
  2  4  1  0  0  0
  4 30  1  0  0  0
 30 31  2  0  0  0
 31 32  1  0  0  0
 32 36  1  0  0  0
 36 37  1  0  0  0
 32 33  2  0  0  0
 33 34  1  0  0  0
 34 35  2  0  0  0
  4  5  1  0  0  0
  5  6  1  0  0  0
  6  7  1  0  0  0
  7  8  1  0  0  0
  8 38  1  0  0  0
 38 39  1  0  0  0
 39 40  2  0  0  0
 40 41  1  0  0  0
 41 42  2  0  0  0
 42 43  1  0  0  0
 43 44  2  0  0  0
 44 45  1  0  0  0
  8  9  1  0  0  0
  9 10  1  0  0  0
  5 11  1  0  0  0
 11 12  2  0  0  0
 24 19  1  0  0  0
 18 13  1  0  0  0
 11  1  1  0  0  0
 35 30  1  0  0  0
 10  5  1  0  0  0
 44 39  1  0  0  0
 26 29  1  0  0  0
M  END
> <minimizedAffinity>
39.61569

> <CNNscore>
0.2254211158

> <CNNaffinity>
6.4383788109

> <CNN_VS>
1.4513465166

> <CNNaffinity_variance>
0.6012440920

$$$$
[H]c1nc(OC([H])([H])[H])c([H])c(N2C(=O)N(c3c([H])c([H])c(-c4c([H])c([H])c(C(=O)N([H])C([H])([H])[H])c([H])c4[H])c([H])c3[H])C(=O)C23C([H])([H])C([H])([H])N(C([H])([H])c2nc([H])c([H])c([H])c2C([H])([H])[H])C([H])([H])C3([H])[H])n1


 45 50  0  0  0  0  0  0  0  0999 V2000
   11.0156   23.6571    1.1600 N   0  0  0  0  0  0  0  0  0  0  0  0
   11.0842   23.0564    2.4783 C   0  0  0  0  0  0  0  0  0  0  0  0
   12.1298   22.9227    3.1251 O   0  0  0  0  0  0  0  0  0  0  0  0
    9.7160   22.6918    2.8138 N   0  0  0  0  0  0  0  0  0  0  0  0
    8.9198   23.6401    2.1467 C   0  0  0  0  0  0  0  0  0  0  0  0
    7.4798   23.4013    1.9393 C   0  0  0  0  0  0  0  0  0  0  0  0
    6.8621   24.7368    1.3834 C   0  0  0  0  0  0  0  0  0  0  0  0
    6.7124   25.5553    2.4666 N   0  0  0  0  0  0  0  0  0  0  0  0
    7.8919   25.5485    3.3778 C   0  0  0  0  0  0  0  0  0  0  0  0
    9.1072   25.0297    2.7027 C   0  0  0  0  0  0  0  0  0  0  0  0
    9.6509   23.6454    0.7993 C   0  0  0  0  0  0  0  0  0  0  0  0
    9.1480   23.6389   -0.3471 O   0  0  0  0  0  0  0  0  0  0  0  0
   14.3378   24.5329   -1.1541 C   0  0  0  0  0  0  0  0  0  0  0  0
   13.5917   23.4598   -1.4489 C   0  0  0  0  0  0  0  0  0  0  0  0
   12.4619   23.1879   -0.6527 C   0  0  0  0  0  0  0  0  0  0  0  0
   12.1637   24.0397    0.4241 C   0  0  0  0  0  0  0  0  0  0  0  0
   12.9171   25.1250    0.7302 C   0  0  0  0  0  0  0  0  0  0  0  0
   14.0027   25.3683   -0.0634 C   0  0  0  0  0  0  0  0  0  0  0  0
   17.3777   26.6778   -3.2067 C   0  0  0  0  0  0  0  0  0  0  0  0
   17.6808   25.8798   -2.1020 C   0  0  0  0  0  0  0  0  0  0  0  0
   16.7005   25.0921   -1.5249 C   0  0  0  0  0  0  0  0  0  0  0  0
   15.4158   25.0667   -2.0103 C   0  0  0  0  0  0  0  0  0  0  0  0
   15.0945   25.8282   -3.1039 C   0  0  0  0  0  0  0  0  0  0  0  0
   16.0901   26.6302   -3.6925 C   0  0  0  0  0  0  0  0  0  0  0  0
   19.5057   29.6731   -4.3434 C   0  0  0  0  0  0  0  0  0  0  0  0
   18.2075   28.9431   -4.2304 N   0  0  0  0  0  0  0  0  0  0  0  0
   18.2785   27.7294   -3.6180 C   0  0  0  0  0  0  0  0  0  0  0  0
   19.5502   27.3706   -3.2776 O   0  0  0  0  0  0  0  0  0  0  0  0
   17.3902   29.3912   -4.6233 H   0  0  0  0  0  0  0  0  0  0  0  0
    9.4939   21.5074    3.5902 C   0  0  0  0  0  0  0  0  0  0  0  0
   10.4459   20.5164    3.6909 C   0  0  0  0  0  0  0  0  0  0  0  0
   10.2326   19.2876    4.3343 C   0  0  0  0  0  0  0  0  0  0  0  0
    9.0296   19.0601    4.8885 N   0  0  0  0  0  0  0  0  0  0  0  0
    8.0898   20.0351    4.7982 C   0  0  0  0  0  0  0  0  0  0  0  0
    8.3319   21.1914    4.1753 N   0  0  0  0  0  0  0  0  0  0  0  0
   11.2567   18.3840    4.3847 O   0  0  0  0  0  0  0  0  0  0  0  0
   12.5073   18.6382    3.7828 C   0  0  0  0  0  0  0  0  0  0  0  0
    5.8968   26.6059    2.7568 C   0  0  0  0  0  0  0  0  0  0  0  0
    5.5443   27.0716    4.0825 C   0  0  0  0  0  0  0  0  0  0  0  0
    4.8771   26.3714    5.0150 N   0  0  0  0  0  0  0  0  0  0  0  0
    4.3447   26.9598    6.1169 C   0  0  0  0  0  0  0  0  0  0  0  0
    4.4552   28.3129    6.3610 C   0  0  0  0  0  0  0  0  0  0  0  0
    5.1429   29.0663    5.4254 C   0  0  0  0  0  0  0  0  0  0  0  0
    5.6499   28.4379    4.3452 C   0  0  0  0  0  0  0  0  0  0  0  0
    6.5336   29.1758    3.3760 C   0  0  0  0  0  0  0  0  0  0  0  0
 25 26  1  0  0  0
 26 27  1  0  0  0
 27 28  2  0  0  0
 27 19  1  0  0  0
 19 20  2  0  0  0
 20 21  1  0  0  0
 21 22  2  0  0  0
 22 23  1  0  0  0
 23 24  2  0  0  0
 22 13  1  0  0  0
 13 14  2  0  0  0
 14 15  1  0  0  0
 15 16  2  0  0  0
 16 17  1  0  0  0
 17 18  2  0  0  0
 16  1  1  0  0  0
  1  2  1  0  0  0
  2  3  2  0  0  0
  2  4  1  0  0  0
  4 30  1  0  0  0
 30 31  2  0  0  0
 31 32  1  0  0  0
 32 36  1  0  0  0
 36 37  1  0  0  0
 32 33  2  0  0  0
 33 34  1  0  0  0
 34 35  2  0  0  0
  4  5  1  0  0  0
  5  6  1  0  0  0
  6  7  1  0  0  0
  7  8  1  0  0  0
  8 38  1  0  0  0
 38 39  1  0  0  0
 39 40  2  0  0  0
 40 41  1  0  0  0
 41 42  2  0  0  0
 42 43  1  0  0  0
 43 44  2  0  0  0
 44 45  1  0  0  0
  8  9  1  0  0  0
  9 10  1  0  0  0
  5 11  1  0  0  0
 11 12  2  0  0  0
 24 19  1  0  0  0
 18 13  1  0  0  0
 11  1  1  0  0  0
 35 30  1  0  0  0
 10  5  1  0  0  0
 44 39  1  0  0  0
 26 29  1  0  0  0
M  END
> <minimizedAffinity>
4.51190

> <CNNscore>
0.2062831074

> <CNNaffinity>
6.8895797729

> <CNN_VS>
1.4212039709

> <CNNaffinity_variance>
0.3483347595

$$$$
[H]c1nc(OC([H])([H])[H])c([H])c(N2C(=O)N(c3c([H])c([H])c(-c4c([H])c([H])c(C(=O)N([H])C([H])([H])[H])c([H])c4[H])c([H])c3[H])C(=O)C23C([H])([H])C([H])([H])N(C([H])([H])c2nc([H])c([H])c([H])c2C([H])([H])[H])C([H])([H])C3([H])[H])n1


 45 50  0  0  0  0  0  0  0  0999 V2000
   11.6888   22.8907   -0.0433 N   0  0  0  0  0  0  0  0  0  0  0  0
   10.7754   23.4804    0.9167 C   0  0  0  0  0  0  0  0  0  0  0  0
   10.5494   24.6932    1.0031 O   0  0  0  0  0  0  0  0  0  0  0  0
   10.2355   22.3650    1.6793 N   0  0  0  0  0  0  0  0  0  0  0  0
   10.2388   21.2829    0.7807 C   0  0  0  0  0  0  0  0  0  0  0  0
   10.1091   19.8982    1.2698 C   0  0  0  0  0  0  0  0  0  0  0  0
    9.9170   18.9760    0.0102 C   0  0  0  0  0  0  0  0  0  0  0  0
    8.6088   19.1167   -0.3564 N   0  0  0  0  0  0  0  0  0  0  0  0
    8.1389   20.5311   -0.3325 C   0  0  0  0  0  0  0  0  0  0  0  0
    9.2719   21.4889   -0.3586 C   0  0  0  0  0  0  0  0  0  0  0  0
   11.6288   21.4967    0.1705 C   0  0  0  0  0  0  0  0  0  0  0  0
   12.5005   20.6324   -0.0754 O   0  0  0  0  0  0  0  0  0  0  0  0
   14.3283   24.9840   -2.4537 C   0  0  0  0  0  0  0  0  0  0  0  0
   14.7760   23.9545   -1.7222 C   0  0  0  0  0  0  0  0  0  0  0  0
   13.8574   23.2528   -0.9172 C   0  0  0  0  0  0  0  0  0  0  0  0
   12.5131   23.6606   -0.9000 C   0  0  0  0  0  0  0  0  0  0  0  0
   12.0545   24.7042   -1.6348 C   0  0  0  0  0  0  0  0  0  0  0  0
   12.9663   25.3618   -2.4116 C   0  0  0  0  0  0  0  0  0  0  0  0
   16.0165   27.4483   -5.4756 C   0  0  0  0  0  0  0  0  0  0  0  0
   16.2616   27.6971   -4.1239 C   0  0  0  0  0  0  0  0  0  0  0  0
   15.8075   26.8124   -3.1619 C   0  0  0  0  0  0  0  0  0  0  0  0
   15.1117   25.6763   -3.4964 C   0  0  0  0  0  0  0  0  0  0  0  0
   14.8709   25.3991   -4.8171 C   0  0  0  0  0  0  0  0  0  0  0  0
   15.3318   26.2976   -5.7973 C   0  0  0  0  0  0  0  0  0  0  0  0
   16.4908   30.4535   -7.8286 C   0  0  0  0  0  0  0  0  0  0  0  0
   16.1188   29.8530   -6.5125 N   0  0  0  0  0  0  0  0  0  0  0  0
   16.1932   28.4950   -6.4553 C   0  0  0  0  0  0  0  0  0  0  0  0
   16.5325   27.9228   -7.6466 O   0  0  0  0  0  0  0  0  0  0  0  0
   15.8309   30.4885   -5.7800 H   0  0  0  0  0  0  0  0  0  0  0  0
    9.9405   22.5642    3.0680 C   0  0  0  0  0  0  0  0  0  0  0  0
    9.9134   21.5160    3.9618 C   0  0  0  0  0  0  0  0  0  0  0  0
    9.5117   21.6385    5.3008 C   0  0  0  0  0  0  0  0  0  0  0  0
    9.1314   22.8494    5.7427 N   0  0  0  0  0  0  0  0  0  0  0  0
    9.1620   23.8871    4.8686 C   0  0  0  0  0  0  0  0  0  0  0  0
    9.5497   23.7288    3.6004 N   0  0  0  0  0  0  0  0  0  0  0  0
    9.5390   20.5306    6.1006 O   0  0  0  0  0  0  0  0  0  0  0  0
    9.8073   19.2444    5.5861 C   0  0  0  0  0  0  0  0  0  0  0  0
    7.7242   18.3361   -1.0358 C   0  0  0  0  0  0  0  0  0  0  0  0
    6.5375   18.7954   -1.7281 C   0  0  0  0  0  0  0  0  0  0  0  0
    6.5031   19.6892   -2.7306 N   0  0  0  0  0  0  0  0  0  0  0  0
    5.3472   20.2734   -3.1385 C   0  0  0  0  0  0  0  0  0  0  0  0
    4.1282   19.9880   -2.5596 C   0  0  0  0  0  0  0  0  0  0  0  0
    4.1229   19.0653   -1.5278 C   0  0  0  0  0  0  0  0  0  0  0  0
    5.2965   18.5153   -1.1550 C   0  0  0  0  0  0  0  0  0  0  0  0
    5.3317   17.3988   -0.1467 C   0  0  0  0  0  0  0  0  0  0  0  0
 25 26  1  0  0  0
 26 27  1  0  0  0
 27 28  2  0  0  0
 27 19  1  0  0  0
 19 20  2  0  0  0
 20 21  1  0  0  0
 21 22  2  0  0  0
 22 23  1  0  0  0
 23 24  2  0  0  0
 22 13  1  0  0  0
 13 14  2  0  0  0
 14 15  1  0  0  0
 15 16  2  0  0  0
 16 17  1  0  0  0
 17 18  2  0  0  0
 16  1  1  0  0  0
  1  2  1  0  0  0
  2  3  2  0  0  0
  2  4  1  0  0  0
  4 30  1  0  0  0
 30 31  2  0  0  0
 31 32  1  0  0  0
 32 36  1  0  0  0
 36 37  1  0  0  0
 32 33  2  0  0  0
 33 34  1  0  0  0
 34 35  2  0  0  0
  4  5  1  0  0  0
  5  6  1  0  0  0
  6  7  1  0  0  0
  7  8  1  0  0  0
  8 38  1  0  0  0
 38 39  1  0  0  0
 39 40  2  0  0  0
 40 41  1  0  0  0
 41 42  2  0  0  0
 42 43  1  0  0  0
 43 44  2  0  0  0
 44 45  1  0  0  0
  8  9  1  0  0  0
  9 10  1  0  0  0
  5 11  1  0  0  0
 11 12  2  0  0  0
 24 19  1  0  0  0
 18 13  1  0  0  0
 11  1  1  0  0  0
 35 30  1  0  0  0
 10  5  1  0  0  0
 44 39  1  0  0  0
 26 29  1  0  0  0
M  END
> <minimizedAffinity>
-3.33791

> <CNNscore>
0.2054433078

> <CNNaffinity>
7.2505407333

> <CNN_VS>
1.4895750284

> <CNNaffinity_variance>
0.2436375320

$$$$
[H]c1nc(N2C(=O)N(c3c([H])c([H])c(-c4c([H])c([H])c([H])c([H])c4[H])c([H])c3[H])C(=O)C23C([H])([H])C([H])([H])N(C([H])([H])c2nc([H])c([H])c([H])c2C([H])([H])[H])C([H])([H])C3([H])[H])nc([H])c1[H]


 38 43  0  0  0  0  0  0  0  0999 V2000
   12.4117   27.1035   -3.0047 N   0  0  0  0  0  0  0  0  0  0  0  0
   13.4889   26.9898   -2.2024 C   0  0  0  0  0  0  0  0  0  0  0  0
   13.0364   26.2783   -0.8984 C   0  0  0  0  0  0  0  0  0  0  0  0
   12.8128   24.8466   -1.1631 C   0  0  0  0  0  0  0  0  0  0  0  0
   12.3659   24.6945   -2.6020 C   0  0  0  0  0  0  0  0  0  0  0  0
   11.5253   25.9065   -2.8925 C   0  0  0  0  0  0  0  0  0  0  0  0
   13.8110   23.9421   -0.7711 N   0  0  0  0  0  0  0  0  0  0  0  0
   13.1351   22.6600   -0.6248 C   0  0  0  0  0  0  0  0  0  0  0  0
   13.6565   21.5266   -0.7239 O   0  0  0  0  0  0  0  0  0  0  0  0
   11.7604   22.9484   -0.3538 N   0  0  0  0  0  0  0  0  0  0  0  0
   11.6340   24.3461   -0.3328 C   0  0  0  0  0  0  0  0  0  0  0  0
   10.7617   25.0556    0.2153 O   0  0  0  0  0  0  0  0  0  0  0  0
   10.7439   21.9481   -0.1630 C   0  0  0  0  0  0  0  0  0  0  0  0
   11.0294   20.6255   -0.5056 C   0  0  0  0  0  0  0  0  0  0  0  0
   10.0467   19.6546   -0.5105 C   0  0  0  0  0  0  0  0  0  0  0  0
    8.7777   20.0673   -0.1581 C   0  0  0  0  0  0  0  0  0  0  0  0
    8.4804   21.3520    0.2036 C   0  0  0  0  0  0  0  0  0  0  0  0
    9.4935   22.3387    0.2021 C   0  0  0  0  0  0  0  0  0  0  0  0
    7.6649   19.1304   -0.4561 C   0  0  0  0  0  0  0  0  0  0  0  0
    6.4677   19.1953    0.1544 C   0  0  0  0  0  0  0  0  0  0  0  0
    5.5208   18.2094   -0.0218 C   0  0  0  0  0  0  0  0  0  0  0  0
    5.8163   17.1451   -0.8213 C   0  0  0  0  0  0  0  0  0  0  0  0
    7.0334   17.0641   -1.4567 C   0  0  0  0  0  0  0  0  0  0  0  0
    7.9516   18.0765   -1.2693 C   0  0  0  0  0  0  0  0  0  0  0  0
   15.2074   23.9713   -0.4599 C   0  0  0  0  0  0  0  0  0  0  0  0
   15.6910   23.5125    0.7016 N   0  0  0  0  0  0  0  0  0  0  0  0
   17.0306   23.4722    0.9531 C   0  0  0  0  0  0  0  0  0  0  0  0
   17.9029   23.9198   -0.0038 C   0  0  0  0  0  0  0  0  0  0  0  0
   17.4322   24.4052   -1.1960 C   0  0  0  0  0  0  0  0  0  0  0  0
   16.0754   24.4019   -1.3756 N   0  0  0  0  0  0  0  0  0  0  0  0
   12.0323   27.8249   -4.0804 C   0  0  0  0  0  0  0  0  0  0  0  0
    9.4944   28.3167   -5.1337 C   0  0  0  0  0  0  0  0  0  0  0  0
   10.3506   29.4782   -4.7293 C   0  0  0  0  0  0  0  0  0  0  0  0
    9.9705   30.7731   -4.9531 C   0  0  0  0  0  0  0  0  0  0  0  0
   10.7493   31.8051   -4.4316 C   0  0  0  0  0  0  0  0  0  0  0  0
   11.8788   31.5148   -3.7149 C   0  0  0  0  0  0  0  0  0  0  0  0
   12.2069   30.2043   -3.5390 N   0  0  0  0  0  0  0  0  0  0  0  0
   11.5088   29.1913   -4.0055 C   0  0  0  0  0  0  0  0  0  0  0  0
 32 33  1  0  0  0
 33 34  2  0  0  0
 34 35  1  0  0  0
 35 36  2  0  0  0
 36 37  1  0  0  0
 37 38  2  0  0  0
 38 31  1  0  0  0
 31  1  1  0  0  0
  1  2  1  0  0  0
  2  3  1  0  0  0
  3  4  1  0  0  0
  4  5  1  0  0  0
  5  6  1  0  0  0
  4  7  1  0  0  0
  7  8  1  0  0  0
  8  9  2  0  0  0
  8 10  1  0  0  0
 10 11  1  0  0  0
 11 12  2  0  0  0
 10 13  1  0  0  0
 13 14  2  0  0  0
 14 15  1  0  0  0
 15 16  2  0  0  0
 16 17  1  0  0  0
 17 18  2  0  0  0
 16 19  1  0  0  0
 19 20  2  0  0  0
 20 21  1  0  0  0
 21 22  2  0  0  0
 22 23  1  0  0  0
 23 24  2  0  0  0
  7 25  1  0  0  0
 25 26  2  0  0  0
 26 27  1  0  0  0
 27 28  2  0  0  0
 28 29  1  0  0  0
 29 30  2  0  0  0
 38 33  1  0  0  0
  6  1  1  0  0  0
 18 13  1  0  0  0
 24 19  1  0  0  0
 30 25  1  0  0  0
 11  4  1  0  0  0
M  END
> <minimizedAffinity>
18.37365

> <CNNscore>
0.5939247608

> <CNNaffinity>
7.6658277512

> <CNN_VS>
4.5529251099

> <CNNaffinity_variance>
1.1497764587

$$$$
[H]c1nc(N2C(=O)N(c3c([H])c([H])c(-c4c([H])c([H])c([H])c([H])c4[H])c([H])c3[H])C(=O)C23C([H])([H])C([H])([H])N(C([H])([H])c2nc([H])c([H])c([H])c2C([H])([H])[H])C([H])([H])C3([H])[H])nc([H])c1[H]


 38 43  0  0  0  0  0  0  0  0999 V2000
   13.6714   25.5390   -3.0911 N   0  0  0  0  0  0  0  0  0  0  0  0
   14.4265   24.5954   -2.4940 C   0  0  0  0  0  0  0  0  0  0  0  0
   14.2611   24.7569   -0.9585 C   0  0  0  0  0  0  0  0  0  0  0  0
   12.9354   24.2653   -0.5450 C   0  0  0  0  0  0  0  0  0  0  0  0
   11.9703   24.4828   -1.6916 C   0  0  0  0  0  0  0  0  0  0  0  0
   12.4002   25.7687   -2.3410 C   0  0  0  0  0  0  0  0  0  0  0  0
   12.8593   22.9917    0.0384 N   0  0  0  0  0  0  0  0  0  0  0  0
   11.6319   22.9987    0.8229 C   0  0  0  0  0  0  0  0  0  0  0  0
   10.9447   22.0023    1.1410 O   0  0  0  0  0  0  0  0  0  0  0  0
   11.3619   24.3645    1.1519 N   0  0  0  0  0  0  0  0  0  0  0  0
   12.3949   25.1306    0.5901 C   0  0  0  0  0  0  0  0  0  0  0  0
   12.7998   26.2708    0.9076 O   0  0  0  0  0  0  0  0  0  0  0  0
   10.2199   24.8064    1.9075 C   0  0  0  0  0  0  0  0  0  0  0  0
    8.9687   24.8199    1.2891 C   0  0  0  0  0  0  0  0  0  0  0  0
    7.8699   25.3933    1.8993 C   0  0  0  0  0  0  0  0  0  0  0  0
    8.0819   25.9455    3.1463 C   0  0  0  0  0  0  0  0  0  0  0  0
    9.2930   25.9226    3.7805 C   0  0  0  0  0  0  0  0  0  0  0  0
   10.4120   25.3359    3.1453 C   0  0  0  0  0  0  0  0  0  0  0  0
    7.0122   26.8295    3.6748 C   0  0  0  0  0  0  0  0  0  0  0  0
    6.8141   28.0854    3.2345 C   0  0  0  0  0  0  0  0  0  0  0  0
    5.9266   28.9319    3.8636 C   0  0  0  0  0  0  0  0  0  0  0  0
    5.2508   28.4842    4.9599 C   0  0  0  0  0  0  0  0  0  0  0  0
    5.4376   27.2021    5.4215 C   0  0  0  0  0  0  0  0  0  0  0  0
    6.3226   26.3774    4.7583 C   0  0  0  0  0  0  0  0  0  0  0  0
   13.6466   21.7979    0.0880 C   0  0  0  0  0  0  0  0  0  0  0  0
   14.3714   21.3753   -0.9558 N   0  0  0  0  0  0  0  0  0  0  0  0
   15.1799   20.2806   -0.8695 C   0  0  0  0  0  0  0  0  0  0  0  0
   15.2459   19.5915    0.3127 C   0  0  0  0  0  0  0  0  0  0  0  0
   14.5046   19.9969    1.3919 C   0  0  0  0  0  0  0  0  0  0  0  0
   13.7268   21.1110    1.2278 N   0  0  0  0  0  0  0  0  0  0  0  0
   13.5751   26.1319   -4.2997 C   0  0  0  0  0  0  0  0  0  0  0  0
   15.3123   24.7649   -6.0043 C   0  0  0  0  0  0  0  0  0  0  0  0
   15.6522   26.1646   -5.5908 C   0  0  0  0  0  0  0  0  0  0  0  0
   16.8347   26.7577   -5.9390 C   0  0  0  0  0  0  0  0  0  0  0  0
   17.0290   28.1047   -5.6372 C   0  0  0  0  0  0  0  0  0  0  0  0
   16.0475   28.8106   -4.9953 C   0  0  0  0  0  0  0  0  0  0  0  0
   14.8987   28.1563   -4.6661 N   0  0  0  0  0  0  0  0  0  0  0  0
   14.6606   26.8892   -4.9281 C   0  0  0  0  0  0  0  0  0  0  0  0
 32 33  1  0  0  0
 33 34  2  0  0  0
 34 35  1  0  0  0
 35 36  2  0  0  0
 36 37  1  0  0  0
 37 38  2  0  0  0
 38 31  1  0  0  0
 31  1  1  0  0  0
  1  2  1  0  0  0
  2  3  1  0  0  0
  3  4  1  0  0  0
  4  5  1  0  0  0
  5  6  1  0  0  0
  4  7  1  0  0  0
  7  8  1  0  0  0
  8  9  2  0  0  0
  8 10  1  0  0  0
 10 11  1  0  0  0
 11 12  2  0  0  0
 10 13  1  0  0  0
 13 14  2  0  0  0
 14 15  1  0  0  0
 15 16  2  0  0  0
 16 17  1  0  0  0
 17 18  2  0  0  0
 16 19  1  0  0  0
 19 20  2  0  0  0
 20 21  1  0  0  0
 21 22  2  0  0  0
 22 23  1  0  0  0
 23 24  2  0  0  0
  7 25  1  0  0  0
 25 26  2  0  0  0
 26 27  1  0  0  0
 27 28  2  0  0  0
 28 29  1  0  0  0
 29 30  2  0  0  0
 38 33  1  0  0  0
  6  1  1  0  0  0
 18 13  1  0  0  0
 24 19  1  0  0  0
 30 25  1  0  0  0
 11  4  1  0  0  0
M  END
> <minimizedAffinity>
-0.80952

> <CNNscore>
0.5827959776

> <CNNaffinity>
7.7204732895

> <CNN_VS>
4.4994606972

> <CNNaffinity_variance>
0.6230586171

$$$$
[H]c1nc(N2C(=O)N(c3c([H])c([H])c(-c4c([H])c([H])c([H])c([H])c4[H])c([H])c3[H])C(=O)C23C([H])([H])C([H])([H])N(C([H])([H])c2nc([H])c([H])c([H])c2C([H])([H])[H])C([H])([H])C3([H])[H])nc([H])c1[H]


 38 43  0  0  0  0  0  0  0  0999 V2000
   13.7919   25.7315   -3.1235 N   0  0  0  0  0  0  0  0  0  0  0  0
   14.5467   24.7685   -2.5578 C   0  0  0  0  0  0  0  0  0  0  0  0
   14.3652   24.8664   -1.0187 C   0  0  0  0  0  0  0  0  0  0  0  0
   13.0385   24.3511   -0.6389 C   0  0  0  0  0  0  0  0  0  0  0  0
   12.0834   24.6098   -1.7854 C   0  0  0  0  0  0  0  0  0  0  0  0
   12.5121   25.9234   -2.3776 C   0  0  0  0  0  0  0  0  0  0  0  0
   12.9642   23.0545   -0.1086 N   0  0  0  0  0  0  0  0  0  0  0  0
   11.7291   23.0227    0.6632 C   0  0  0  0  0  0  0  0  0  0  0  0
   11.0447   22.0104    0.9336 O   0  0  0  0  0  0  0  0  0  0  0  0
   11.4478   24.3725    1.0448 N   0  0  0  0  0  0  0  0  0  0  0  0
   12.4818   25.1665    0.5250 C   0  0  0  0  0  0  0  0  0  0  0  0
   12.8768   26.2950    0.8927 O   0  0  0  0  0  0  0  0  0  0  0  0
   10.2959   24.7769    1.8062 C   0  0  0  0  0  0  0  0  0  0  0  0
    9.0474   24.7881    1.1822 C   0  0  0  0  0  0  0  0  0  0  0  0
    7.9373   25.3285    1.8020 C   0  0  0  0  0  0  0  0  0  0  0  0
    8.1353   25.8505    3.0642 C   0  0  0  0  0  0  0  0  0  0  0  0
    9.3438   25.8289    3.7035 C   0  0  0  0  0  0  0  0  0  0  0  0
   10.4744   25.2762    3.0585 C   0  0  0  0  0  0  0  0  0  0  0  0
    7.0500   26.7040    3.6107 C   0  0  0  0  0  0  0  0  0  0  0  0
    6.8620   27.9821    3.2348 C   0  0  0  0  0  0  0  0  0  0  0  0
    5.9562   28.7927    3.8846 C   0  0  0  0  0  0  0  0  0  0  0  0
    5.2512   28.2853    4.9357 C   0  0  0  0  0  0  0  0  0  0  0  0
    5.4273   26.9799    5.3312 C   0  0  0  0  0  0  0  0  0  0  0  0
    6.3316   26.1929    4.6483 C   0  0  0  0  0  0  0  0  0  0  0  0
   13.7580   21.8639   -0.0997 C   0  0  0  0  0  0  0  0  0  0  0  0
   13.7945   21.0209   -1.1395 N   0  0  0  0  0  0  0  0  0  0  0  0
   14.6162   19.9327   -1.1502 C   0  0  0  0  0  0  0  0  0  0  0  0
   15.4186   19.6918   -0.0662 C   0  0  0  0  0  0  0  0  0  0  0  0
   15.3907   20.5332    1.0154 C   0  0  0  0  0  0  0  0  0  0  0  0
   14.5474   21.6088    0.9440 N   0  0  0  0  0  0  0  0  0  0  0  0
   13.7039   26.3726   -4.3079 C   0  0  0  0  0  0  0  0  0  0  0  0
   15.7323   28.2904   -4.3126 C   0  0  0  0  0  0  0  0  0  0  0  0
   15.5943   27.3762   -5.4919 C   0  0  0  0  0  0  0  0  0  0  0  0
   16.3644   27.5168   -6.6137 C   0  0  0  0  0  0  0  0  0  0  0  0
   16.2792   26.5522   -7.6165 C   0  0  0  0  0  0  0  0  0  0  0  0
   15.4286   25.4893   -7.4730 C   0  0  0  0  0  0  0  0  0  0  0  0
   14.6811   25.4158   -6.3363 N   0  0  0  0  0  0  0  0  0  0  0  0
   14.7228   26.2945   -5.3579 C   0  0  0  0  0  0  0  0  0  0  0  0
 32 33  1  0  0  0
 33 34  2  0  0  0
 34 35  1  0  0  0
 35 36  2  0  0  0
 36 37  1  0  0  0
 37 38  2  0  0  0
 38 31  1  0  0  0
 31  1  1  0  0  0
  1  2  1  0  0  0
  2  3  1  0  0  0
  3  4  1  0  0  0
  4  5  1  0  0  0
  5  6  1  0  0  0
  4  7  1  0  0  0
  7  8  1  0  0  0
  8  9  2  0  0  0
  8 10  1  0  0  0
 10 11  1  0  0  0
 11 12  2  0  0  0
 10 13  1  0  0  0
 13 14  2  0  0  0
 14 15  1  0  0  0
 15 16  2  0  0  0
 16 17  1  0  0  0
 17 18  2  0  0  0
 16 19  1  0  0  0
 19 20  2  0  0  0
 20 21  1  0  0  0
 21 22  2  0  0  0
 22 23  1  0  0  0
 23 24  2  0  0  0
  7 25  1  0  0  0
 25 26  2  0  0  0
 26 27  1  0  0  0
 27 28  2  0  0  0
 28 29  1  0  0  0
 29 30  2  0  0  0
 38 33  1  0  0  0
  6  1  1  0  0  0
 18 13  1  0  0  0
 24 19  1  0  0  0
 30 25  1  0  0  0
 11  4  1  0  0  0
M  END
> <minimizedAffinity>
-3.45739

> <CNNscore>
0.5520524383

> <CNNaffinity>
7.6089200974

> <CNN_VS>
4.2005228996

> <CNNaffinity_variance>
0.4170587957

$$$$
[H]c1nc(N2C(=O)N(c3c([H])c([H])c(-c4c([H])c([H])c([H])c([H])c4[H])c([H])c3[H])C(=O)C23C([H])([H])C([H])([H])N(C([H])([H])c2nc([H])c([H])c([H])c2C([H])([H])[H])C([H])([H])C3([H])[H])nc([H])c1[H]


 38 43  0  0  0  0  0  0  0  0999 V2000
    9.6342   23.0041   -0.2627 N   0  0  0  0  0  0  0  0  0  0  0  0
    9.5263   24.1738   -0.9240 C   0  0  0  0  0  0  0  0  0  0  0  0
   10.6801   25.0969   -0.4466 C   0  0  0  0  0  0  0  0  0  0  0  0
   11.9559   24.6401   -1.0239 C   0  0  0  0  0  0  0  0  0  0  0  0
   11.8789   23.1400   -1.2170 C   0  0  0  0  0  0  0  0  0  0  0  0
   11.0654   22.6269   -0.0616 C   0  0  0  0  0  0  0  0  0  0  0  0
   12.4643   25.3379   -2.1297 N   0  0  0  0  0  0  0  0  0  0  0  0
   13.8968   25.0732   -2.1286 C   0  0  0  0  0  0  0  0  0  0  0  0
   14.6619   25.1067   -3.1184 O   0  0  0  0  0  0  0  0  0  0  0  0
   14.2562   24.7608   -0.7797 N   0  0  0  0  0  0  0  0  0  0  0  0
   13.0824   24.8468   -0.0151 C   0  0  0  0  0  0  0  0  0  0  0  0
   12.9486   25.0333    1.2145 O   0  0  0  0  0  0  0  0  0  0  0  0
   15.5867   24.4164   -0.3537 C   0  0  0  0  0  0  0  0  0  0  0  0
   15.7430   23.5617    0.7387 C   0  0  0  0  0  0  0  0  0  0  0  0
   16.9834   23.3325    1.3021 C   0  0  0  0  0  0  0  0  0  0  0  0
   18.0489   23.9925    0.7242 C   0  0  0  0  0  0  0  0  0  0  0  0
   17.9221   24.8154   -0.3605 C   0  0  0  0  0  0  0  0  0  0  0  0
   16.6472   25.0455   -0.9274 C   0  0  0  0  0  0  0  0  0  0  0  0
   19.3190   24.0099    1.4931 C   0  0  0  0  0  0  0  0  0  0  0  0
   19.3636   23.9670    2.8372 C   0  0  0  0  0  0  0  0  0  0  0  0
   20.5459   24.1564    3.5198 C   0  0  0  0  0  0  0  0  0  0  0  0
   21.6847   24.4046    2.8122 C   0  0  0  0  0  0  0  0  0  0  0  0
   21.6587   24.4480    1.4377 C   0  0  0  0  0  0  0  0  0  0  0  0
   20.4604   24.2391    0.7869 C   0  0  0  0  0  0  0  0  0  0  0  0
   11.9733   26.2121   -3.1507 C   0  0  0  0  0  0  0  0  0  0  0  0
   12.6691   27.2730   -3.5792 N   0  0  0  0  0  0  0  0  0  0  0  0
   12.2266   28.0511   -4.6079 C   0  0  0  0  0  0  0  0  0  0  0  0
   11.0362   27.7441   -5.2126 C   0  0  0  0  0  0  0  0  0  0  0  0
   10.2996   26.6704   -4.7842 C   0  0  0  0  0  0  0  0  0  0  0  0
   10.8176   25.9332   -3.7541 N   0  0  0  0  0  0  0  0  0  0  0  0
    8.8600   21.9356    0.0209 C   0  0  0  0  0  0  0  0  0  0  0  0
    7.3073   23.7090    1.5164 C   0  0  0  0  0  0  0  0  0  0  0  0
    7.9026   22.5135    2.1963 C   0  0  0  0  0  0  0  0  0  0  0  0
    7.7948   22.3169    3.5457 C   0  0  0  0  0  0  0  0  0  0  0  0
    8.2532   21.1193    4.0923 C   0  0  0  0  0  0  0  0  0  0  0  0
    8.8080   20.1655    3.2823 C   0  0  0  0  0  0  0  0  0  0  0  0
    8.8961   20.4299    1.9487 N   0  0  0  0  0  0  0  0  0  0  0  0
    8.4781   21.5397    1.3789 C   0  0  0  0  0  0  0  0  0  0  0  0
 32 33  1  0  0  0
 33 34  2  0  0  0
 34 35  1  0  0  0
 35 36  2  0  0  0
 36 37  1  0  0  0
 37 38  2  0  0  0
 38 31  1  0  0  0
 31  1  1  0  0  0
  1  2  1  0  0  0
  2  3  1  0  0  0
  3  4  1  0  0  0
  4  5  1  0  0  0
  5  6  1  0  0  0
  4  7  1  0  0  0
  7  8  1  0  0  0
  8  9  2  0  0  0
  8 10  1  0  0  0
 10 11  1  0  0  0
 11 12  2  0  0  0
 10 13  1  0  0  0
 13 14  2  0  0  0
 14 15  1  0  0  0
 15 16  2  0  0  0
 16 17  1  0  0  0
 17 18  2  0  0  0
 16 19  1  0  0  0
 19 20  2  0  0  0
 20 21  1  0  0  0
 21 22  2  0  0  0
 22 23  1  0  0  0
 23 24  2  0  0  0
  7 25  1  0  0  0
 25 26  2  0  0  0
 26 27  1  0  0  0
 27 28  2  0  0  0
 28 29  1  0  0  0
 29 30  2  0  0  0
 38 33  1  0  0  0
  6  1  1  0  0  0
 18 13  1  0  0  0
 24 19  1  0  0  0
 30 25  1  0  0  0
 11  4  1  0  0  0
M  END
> <minimizedAffinity>
41.30547

> <CNNscore>
0.5342213511

> <CNNaffinity>
7.5034675598

> <CNN_VS>
4.0085124969

> <CNNaffinity_variance>
1.1208740473

$$$$
[H]c1nc(N2C(=O)N(c3c([H])c([H])c(-c4c([H])c([H])c([H])c([H])c4[H])c([H])c3[H])C(=O)C23C([H])([H])C([H])([H])N(C([H])([H])c2nc([H])c([H])c([H])c2C([H])([H])[H])C([H])([H])C3([H])[H])nc([H])c1[H]


 38 43  0  0  0  0  0  0  0  0999 V2000
   14.6505   25.2107   -3.6731 N   0  0  0  0  0  0  0  0  0  0  0  0
   15.6459   25.5497   -2.8296 C   0  0  0  0  0  0  0  0  0  0  0  0
   15.0360   25.6916   -1.4086 C   0  0  0  0  0  0  0  0  0  0  0  0
   14.7336   24.3583   -0.8601 C   0  0  0  0  0  0  0  0  0  0  0  0
   14.3990   23.4358   -2.0135 C   0  0  0  0  0  0  0  0  0  0  0  0
   13.6745   24.2908   -3.0155 C   0  0  0  0  0  0  0  0  0  0  0  0
   15.6282   23.8131    0.0730 N   0  0  0  0  0  0  0  0  0  0  0  0
   14.8525   22.8389    0.8287 C   0  0  0  0  0  0  0  0  0  0  0  0
   15.2980   21.8362    1.4306 O   0  0  0  0  0  0  0  0  0  0  0  0
   13.4840   23.2471    0.7428 N   0  0  0  0  0  0  0  0  0  0  0  0
   13.4566   24.4206   -0.0265 C   0  0  0  0  0  0  0  0  0  0  0  0
   12.5945   25.3263   -0.0613 O   0  0  0  0  0  0  0  0  0  0  0  0
   12.3863   22.5359    1.3424 C   0  0  0  0  0  0  0  0  0  0  0  0
   11.1529   23.1787    1.4603 C   0  0  0  0  0  0  0  0  0  0  0  0
   10.1145   22.6181    2.1786 C   0  0  0  0  0  0  0  0  0  0  0  0
   10.3675   21.3951    2.7659 C   0  0  0  0  0  0  0  0  0  0  0  0
   11.5598   20.7369    2.6438 C   0  0  0  0  0  0  0  0  0  0  0  0
   12.6172   21.3213    1.9089 C   0  0  0  0  0  0  0  0  0  0  0  0
    9.3929   20.9305    3.7854 C   0  0  0  0  0  0  0  0  0  0  0  0
    9.6134   19.8676    4.5804 C   0  0  0  0  0  0  0  0  0  0  0  0
    8.6202   19.3641    5.3927 C   0  0  0  0  0  0  0  0  0  0  0  0
    7.3902   19.9523    5.3742 C   0  0  0  0  0  0  0  0  0  0  0  0
    7.1480   21.0422    4.5709 C   0  0  0  0  0  0  0  0  0  0  0  0
    8.1697   21.5286    3.7819 C   0  0  0  0  0  0  0  0  0  0  0  0
   16.9922   23.9930    0.4666 C   0  0  0  0  0  0  0  0  0  0  0  0
   17.3589   24.0905    1.7508 N   0  0  0  0  0  0  0  0  0  0  0  0
   18.6696   24.1811    2.1159 C   0  0  0  0  0  0  0  0  0  0  0  0
   19.6347   24.1802    1.1436 C   0  0  0  0  0  0  0  0  0  0  0  0
   19.2842   24.0935   -0.1787 C   0  0  0  0  0  0  0  0  0  0  0  0
   17.9489   23.9947   -0.4620 N   0  0  0  0  0  0  0  0  0  0  0  0
   14.4150   25.2149   -5.0020 C   0  0  0  0  0  0  0  0  0  0  0  0
   15.3311   27.8152   -4.5645 C   0  0  0  0  0  0  0  0  0  0  0  0
   15.5938   27.1657   -5.8892 C   0  0  0  0  0  0  0  0  0  0  0  0
   16.1780   27.8407   -6.9257 C   0  0  0  0  0  0  0  0  0  0  0  0
   16.5160   27.1402   -8.0825 C   0  0  0  0  0  0  0  0  0  0  0  0
   16.2553   25.7993   -8.1712 C   0  0  0  0  0  0  0  0  0  0  0  0
   15.6607   25.1904   -7.1073 N   0  0  0  0  0  0  0  0  0  0  0  0
   15.3229   25.8006   -5.9916 C   0  0  0  0  0  0  0  0  0  0  0  0
 32 33  1  0  0  0
 33 34  2  0  0  0
 34 35  1  0  0  0
 35 36  2  0  0  0
 36 37  1  0  0  0
 37 38  2  0  0  0
 38 31  1  0  0  0
 31  1  1  0  0  0
  1  2  1  0  0  0
  2  3  1  0  0  0
  3  4  1  0  0  0
  4  5  1  0  0  0
  5  6  1  0  0  0
  4  7  1  0  0  0
  7  8  1  0  0  0
  8  9  2  0  0  0
  8 10  1  0  0  0
 10 11  1  0  0  0
 11 12  2  0  0  0
 10 13  1  0  0  0
 13 14  2  0  0  0
 14 15  1  0  0  0
 15 16  2  0  0  0
 16 17  1  0  0  0
 17 18  2  0  0  0
 16 19  1  0  0  0
 19 20  2  0  0  0
 20 21  1  0  0  0
 21 22  2  0  0  0
 22 23  1  0  0  0
 23 24  2  0  0  0
  7 25  1  0  0  0
 25 26  2  0  0  0
 26 27  1  0  0  0
 27 28  2  0  0  0
 28 29  1  0  0  0
 29 30  2  0  0  0
 38 33  1  0  0  0
  6  1  1  0  0  0
 18 13  1  0  0  0
 24 19  1  0  0  0
 30 25  1  0  0  0
 11  4  1  0  0  0
M  END
> <minimizedAffinity>
5.94447

> <CNNscore>
0.5055808425

> <CNNaffinity>
7.7714867592

> <CNN_VS>
3.9291148186

> <CNNaffinity_variance>
0.4911446571

$$$$
[H]c1nc(N2C(=O)N(c3c([H])c([H])c(-c4c([H])c([H])c([H])c([H])c4[H])c([H])c3[H])C(=O)C23C([H])([H])C([H])([H])N(C([H])([H])c2nc([H])c([H])c([H])c2C([H])([H])[H])C([H])([H])C3([H])[H])nc([H])c1[H]


 38 43  0  0  0  0  0  0  0  0999 V2000
   11.1375   29.4457   -4.3244 N   0  0  0  0  0  0  0  0  0  0  0  0
   12.4754   29.5229   -4.1794 C   0  0  0  0  0  0  0  0  0  0  0  0
   12.8589   28.7437   -2.8922 C   0  0  0  0  0  0  0  0  0  0  0  0
   12.7520   27.2948   -3.1355 C   0  0  0  0  0  0  0  0  0  0  0  0
   11.6672   27.0661   -4.1672 C   0  0  0  0  0  0  0  0  0  0  0  0
   10.6229   28.1118   -3.8917 C   0  0  0  0  0  0  0  0  0  0  0  0
   13.9348   26.5794   -3.3749 N   0  0  0  0  0  0  0  0  0  0  0  0
   13.6291   25.1988   -3.0252 C   0  0  0  0  0  0  0  0  0  0  0  0
   14.1933   24.1743   -3.4706 O   0  0  0  0  0  0  0  0  0  0  0  0
   12.5554   25.2419   -2.0807 N   0  0  0  0  0  0  0  0  0  0  0  0
   12.2471   26.5957   -1.8762 C   0  0  0  0  0  0  0  0  0  0  0  0
   11.6765   27.1415   -0.9060 O   0  0  0  0  0  0  0  0  0  0  0  0
   11.9405   24.0789   -1.4980 C   0  0  0  0  0  0  0  0  0  0  0  0
   11.8466   22.9141   -2.2614 C   0  0  0  0  0  0  0  0  0  0  0  0
   11.1171   21.8247   -1.8262 C   0  0  0  0  0  0  0  0  0  0  0  0
   10.4936   21.9559   -0.6019 C   0  0  0  0  0  0  0  0  0  0  0  0
   10.5914   23.0783    0.1729 C   0  0  0  0  0  0  0  0  0  0  0  0
   11.3382   24.1890   -0.2837 C   0  0  0  0  0  0  0  0  0  0  0  0
    9.4656   20.9389   -0.2646 C   0  0  0  0  0  0  0  0  0  0  0  0
    9.2274   19.8558   -1.0265 C   0  0  0  0  0  0  0  0  0  0  0  0
    8.1552   19.0268   -0.7755 C   0  0  0  0  0  0  0  0  0  0  0  0
    7.3176   19.3250    0.2583 C   0  0  0  0  0  0  0  0  0  0  0  0
    7.5479   20.4258    1.0501 C   0  0  0  0  0  0  0  0  0  0  0  0
    8.6392   21.2250    0.7791 C   0  0  0  0  0  0  0  0  0  0  0  0
   15.2735   26.8532   -3.7998 C   0  0  0  0  0  0  0  0  0  0  0  0
   15.5671   27.2005   -5.0594 N   0  0  0  0  0  0  0  0  0  0  0  0
   16.8350   27.5366   -5.4321 C   0  0  0  0  0  0  0  0  0  0  0  0
   17.8348   27.5104   -4.4958 C   0  0  0  0  0  0  0  0  0  0  0  0
   17.5620   27.1466   -3.2027 C   0  0  0  0  0  0  0  0  0  0  0  0
   16.2629   26.8344   -2.9063 N   0  0  0  0  0  0  0  0  0  0  0  0
   10.1616   30.0889   -4.9992 C   0  0  0  0  0  0  0  0  0  0  0  0
    8.1206   30.8398   -3.2492 C   0  0  0  0  0  0  0  0  0  0  0  0
    7.8689   29.7313   -4.2259 C   0  0  0  0  0  0  0  0  0  0  0  0
    6.7080   29.0080   -4.2199 C   0  0  0  0  0  0  0  0  0  0  0  0
    6.4829   28.0839   -5.2391 C   0  0  0  0  0  0  0  0  0  0  0  0
    7.4201   27.9063   -6.2209 C   0  0  0  0  0  0  0  0  0  0  0  0
    8.5598   28.6505   -6.1609 N   0  0  0  0  0  0  0  0  0  0  0  0
    8.8233   29.5373   -5.2254 C   0  0  0  0  0  0  0  0  0  0  0  0
 32 33  1  0  0  0
 33 34  2  0  0  0
 34 35  1  0  0  0
 35 36  2  0  0  0
 36 37  1  0  0  0
 37 38  2  0  0  0
 38 31  1  0  0  0
 31  1  1  0  0  0
  1  2  1  0  0  0
  2  3  1  0  0  0
  3  4  1  0  0  0
  4  5  1  0  0  0
  5  6  1  0  0  0
  4  7  1  0  0  0
  7  8  1  0  0  0
  8  9  2  0  0  0
  8 10  1  0  0  0
 10 11  1  0  0  0
 11 12  2  0  0  0
 10 13  1  0  0  0
 13 14  2  0  0  0
 14 15  1  0  0  0
 15 16  2  0  0  0
 16 17  1  0  0  0
 17 18  2  0  0  0
 16 19  1  0  0  0
 19 20  2  0  0  0
 20 21  1  0  0  0
 21 22  2  0  0  0
 22 23  1  0  0  0
 23 24  2  0  0  0
  7 25  1  0  0  0
 25 26  2  0  0  0
 26 27  1  0  0  0
 27 28  2  0  0  0
 28 29  1  0  0  0
 29 30  2  0  0  0
 38 33  1  0  0  0
  6  1  1  0  0  0
 18 13  1  0  0  0
 24 19  1  0  0  0
 30 25  1  0  0  0
 11  4  1  0  0  0
M  END
> <minimizedAffinity>
28.26558

> <CNNscore>
0.4849539697

> <CNNaffinity>
7.0223503113

> <CNN_VS>
3.4055166245

> <CNNaffinity_variance>
0.7148842812

$$$$
[H]c1nc(N2C(=O)N(c3c([H])c([H])c(-c4c([H])c([H])c([H])c([H])c4[H])c([H])c3[H])C(=O)C23C([H])([H])C([H])([H])N(C([H])([H])c2nc([H])c([H])c([H])c2C([H])([H])[H])C([H])([H])C3([H])[H])nc([H])c1[H]


 38 43  0  0  0  0  0  0  0  0999 V2000
   11.7522   29.0465   -3.9754 N   0  0  0  0  0  0  0  0  0  0  0  0
   12.9166   28.9507   -4.6478 C   0  0  0  0  0  0  0  0  0  0  0  0
   13.9259   28.1929   -3.7432 C   0  0  0  0  0  0  0  0  0  0  0  0
   13.5823   26.7611   -3.7027 C   0  0  0  0  0  0  0  0  0  0  0  0
   12.0833   26.6283   -3.8724 C   0  0  0  0  0  0  0  0  0  0  0  0
   11.4917   27.8173   -3.1678 C   0  0  0  0  0  0  0  0  0  0  0  0
   14.3322   25.8824   -4.4986 N   0  0  0  0  0  0  0  0  0  0  0  0
   14.1862   24.5746   -3.8738 C   0  0  0  0  0  0  0  0  0  0  0  0
   14.2939   23.4626   -4.4378 O   0  0  0  0  0  0  0  0  0  0  0  0
   13.8889   24.8089   -2.4942 N   0  0  0  0  0  0  0  0  0  0  0  0
   13.8693   26.2004   -2.3125 C   0  0  0  0  0  0  0  0  0  0  0  0
   14.0299   26.8660   -1.2657 O   0  0  0  0  0  0  0  0  0  0  0  0
   13.6502   23.7697   -1.5281 C   0  0  0  0  0  0  0  0  0  0  0  0
   12.5584   22.9195   -1.7108 C   0  0  0  0  0  0  0  0  0  0  0  0
   12.1753   22.0195   -0.7353 C   0  0  0  0  0  0  0  0  0  0  0  0
   12.9310   22.0110    0.4195 C   0  0  0  0  0  0  0  0  0  0  0  0
   14.0181   22.8182    0.6102 C   0  0  0  0  0  0  0  0  0  0  0  0
   14.3997   23.7382   -0.3937 C   0  0  0  0  0  0  0  0  0  0  0  0
   12.3594   21.2905    1.5853 C   0  0  0  0  0  0  0  0  0  0  0  0
   11.6221   21.8973    2.5333 C   0  0  0  0  0  0  0  0  0  0  0  0
   11.2532   21.2356    3.6847 C   0  0  0  0  0  0  0  0  0  0  0  0
   11.6585   19.9461    3.8643 C   0  0  0  0  0  0  0  0  0  0  0  0
   12.4091   19.3087    2.9040 C   0  0  0  0  0  0  0  0  0  0  0  0
   12.7475   19.9968    1.7572 C   0  0  0  0  0  0  0  0  0  0  0  0
   15.1748   25.9523   -5.6531 C   0  0  0  0  0  0  0  0  0  0  0  0
   15.2306   24.9672   -6.5585 N   0  0  0  0  0  0  0  0  0  0  0  0
   15.9762   25.0805   -7.6946 C   0  0  0  0  0  0  0  0  0  0  0  0
   16.6924   26.2282   -7.9109 C   0  0  0  0  0  0  0  0  0  0  0  0
   16.6613   27.2461   -6.9934 C   0  0  0  0  0  0  0  0  0  0  0  0
   15.8806   27.0594   -5.8850 N   0  0  0  0  0  0  0  0  0  0  0  0
   10.6205   29.7800   -4.0263 C   0  0  0  0  0  0  0  0  0  0  0  0
    8.1280   30.6884   -3.1577 C   0  0  0  0  0  0  0  0  0  0  0  0
    8.1878   29.6702   -4.2556 C   0  0  0  0  0  0  0  0  0  0  0  0
    7.0604   29.0965   -4.7762 C   0  0  0  0  0  0  0  0  0  0  0  0
    7.1788   28.2598   -5.8848 C   0  0  0  0  0  0  0  0  0  0  0  0
    8.4105   28.0174   -6.4307 C   0  0  0  0  0  0  0  0  0  0  0  0
    9.4939   28.6110   -5.8562 N   0  0  0  0  0  0  0  0  0  0  0  0
    9.4408   29.4102   -4.8125 C   0  0  0  0  0  0  0  0  0  0  0  0
 32 33  1  0  0  0
 33 34  2  0  0  0
 34 35  1  0  0  0
 35 36  2  0  0  0
 36 37  1  0  0  0
 37 38  2  0  0  0
 38 31  1  0  0  0
 31  1  1  0  0  0
  1  2  1  0  0  0
  2  3  1  0  0  0
  3  4  1  0  0  0
  4  5  1  0  0  0
  5  6  1  0  0  0
  4  7  1  0  0  0
  7  8  1  0  0  0
  8  9  2  0  0  0
  8 10  1  0  0  0
 10 11  1  0  0  0
 11 12  2  0  0  0
 10 13  1  0  0  0
 13 14  2  0  0  0
 14 15  1  0  0  0
 15 16  2  0  0  0
 16 17  1  0  0  0
 17 18  2  0  0  0
 16 19  1  0  0  0
 19 20  2  0  0  0
 20 21  1  0  0  0
 21 22  2  0  0  0
 22 23  1  0  0  0
 23 24  2  0  0  0
  7 25  1  0  0  0
 25 26  2  0  0  0
 26 27  1  0  0  0
 27 28  2  0  0  0
 28 29  1  0  0  0
 29 30  2  0  0  0
 38 33  1  0  0  0
  6  1  1  0  0  0
 18 13  1  0  0  0
 24 19  1  0  0  0
 30 25  1  0  0  0
 11  4  1  0  0  0
M  END
> <minimizedAffinity>
23.72815

> <CNNscore>
0.4750853181

> <CNNaffinity>
7.2007436752

> <CNN_VS>
3.4209675789

> <CNNaffinity_variance>
0.6567062736

$$$$
[H]c1nc(N2C(=O)N(c3c([H])c([H])c(-c4c([H])c([H])c([H])c([H])c4[H])c([H])c3[H])C(=O)C23C([H])([H])C([H])([H])N(C([H])([H])c2nc([H])c([H])c([H])c2C([H])([H])[H])C([H])([H])C3([H])[H])nc([H])c1[H]


 38 43  0  0  0  0  0  0  0  0999 V2000
   15.2799   23.8223   -0.7845 N   0  0  0  0  0  0  0  0  0  0  0  0
   16.3592   24.2240   -1.4850 C   0  0  0  0  0  0  0  0  0  0  0  0
   15.8798   24.6249   -2.9066 C   0  0  0  0  0  0  0  0  0  0  0  0
   15.1690   25.9138   -2.8484 C   0  0  0  0  0  0  0  0  0  0  0  0
   14.5073   26.0295   -1.4911 C   0  0  0  0  0  0  0  0  0  0  0  0
   14.0758   24.6345   -1.1336 C   0  0  0  0  0  0  0  0  0  0  0  0
   15.8617   27.0652   -3.2516 N   0  0  0  0  0  0  0  0  0  0  0  0
   14.8315   28.0253   -3.6245 C   0  0  0  0  0  0  0  0  0  0  0  0
   14.9374   29.2723   -3.6189 O   0  0  0  0  0  0  0  0  0  0  0  0
   13.6753   27.2665   -3.9906 N   0  0  0  0  0  0  0  0  0  0  0  0
   14.0147   25.9123   -3.8469 C   0  0  0  0  0  0  0  0  0  0  0  0
   13.5032   24.9051   -4.3839 O   0  0  0  0  0  0  0  0  0  0  0  0
   12.4242   27.8436   -4.4053 C   0  0  0  0  0  0  0  0  0  0  0  0
   11.9854   29.0145   -3.7850 C   0  0  0  0  0  0  0  0  0  0  0  0
   10.7199   29.5195   -4.0129 C   0  0  0  0  0  0  0  0  0  0  0  0
    9.9236   28.8036   -4.8838 C   0  0  0  0  0  0  0  0  0  0  0  0
   10.3412   27.6677   -5.5202 C   0  0  0  0  0  0  0  0  0  0  0  0
   11.6376   27.1577   -5.2772 C   0  0  0  0  0  0  0  0  0  0  0  0
    8.4785   29.1447   -4.8998 C   0  0  0  0  0  0  0  0  0  0  0  0
    7.8899   29.8893   -3.9461 C   0  0  0  0  0  0  0  0  0  0  0  0
    6.5208   30.0424   -3.9020 C   0  0  0  0  0  0  0  0  0  0  0  0
    5.7552   29.4130   -4.8385 C   0  0  0  0  0  0  0  0  0  0  0  0
    6.3400   28.6513   -5.8231 C   0  0  0  0  0  0  0  0  0  0  0  0
    7.7143   28.5322   -5.8456 C   0  0  0  0  0  0  0  0  0  0  0  0
   17.2200   27.4833   -3.4180 C   0  0  0  0  0  0  0  0  0  0  0  0
   18.2318   26.9070   -2.7567 N   0  0  0  0  0  0  0  0  0  0  0  0
   19.5291   27.2605   -2.9840 C   0  0  0  0  0  0  0  0  0  0  0  0
   19.8031   28.2355   -3.9067 C   0  0  0  0  0  0  0  0  0  0  0  0
   18.7841   28.8489   -4.5880 C   0  0  0  0  0  0  0  0  0  0  0  0
   17.5111   28.4299   -4.3107 N   0  0  0  0  0  0  0  0  0  0  0  0
   15.0145   23.1109    0.3313 C   0  0  0  0  0  0  0  0  0  0  0  0
   14.6188   20.9102   -1.3399 C   0  0  0  0  0  0  0  0  0  0  0  0
   13.4979   21.3593   -0.4524 C   0  0  0  0  0  0  0  0  0  0  0  0
   12.2552   20.7901   -0.5079 C   0  0  0  0  0  0  0  0  0  0  0  0
   11.2995   21.1619    0.4364 C   0  0  0  0  0  0  0  0  0  0  0  0
   11.6090   22.0891    1.3947 C   0  0  0  0  0  0  0  0  0  0  0  0
   12.8612   22.6259    1.3861 N   0  0  0  0  0  0  0  0  0  0  0  0
   13.8021   22.3107    0.5221 C   0  0  0  0  0  0  0  0  0  0  0  0
 32 33  1  0  0  0
 33 34  2  0  0  0
 34 35  1  0  0  0
 35 36  2  0  0  0
 36 37  1  0  0  0
 37 38  2  0  0  0
 38 31  1  0  0  0
 31  1  1  0  0  0
  1  2  1  0  0  0
  2  3  1  0  0  0
  3  4  1  0  0  0
  4  5  1  0  0  0
  5  6  1  0  0  0
  4  7  1  0  0  0
  7  8  1  0  0  0
  8  9  2  0  0  0
  8 10  1  0  0  0
 10 11  1  0  0  0
 11 12  2  0  0  0
 10 13  1  0  0  0
 13 14  2  0  0  0
 14 15  1  0  0  0
 15 16  2  0  0  0
 16 17  1  0  0  0
 17 18  2  0  0  0
 16 19  1  0  0  0
 19 20  2  0  0  0
 20 21  1  0  0  0
 21 22  2  0  0  0
 22 23  1  0  0  0
 23 24  2  0  0  0
  7 25  1  0  0  0
 25 26  2  0  0  0
 26 27  1  0  0  0
 27 28  2  0  0  0
 28 29  1  0  0  0
 29 30  2  0  0  0
 38 33  1  0  0  0
  6  1  1  0  0  0
 18 13  1  0  0  0
 24 19  1  0  0  0
 30 25  1  0  0  0
 11  4  1  0  0  0
M  END
> <minimizedAffinity>
28.80642

> <CNNscore>
0.4655224681

> <CNNaffinity>
7.4293975830

> <CNN_VS>
3.4585514069

> <CNNaffinity_variance>
0.9876724482

$$$$
[H]c1nc(N2C(=O)N(c3c([H])c([H])c(-c4c([H])c([H])c([H])c([H])c4[H])c([H])c3[H])C(=O)C23C([H])([H])C([H])([H])N(C([H])([H])c2nc([H])c([H])c([H])c2C([H])([H])[H])C([H])([H])C3([H])[H])nc([H])c1[H]


 38 43  0  0  0  0  0  0  0  0999 V2000
   10.3098   19.7441    0.9037 N   0  0  0  0  0  0  0  0  0  0  0  0
   10.2108   20.3639    2.0967 C   0  0  0  0  0  0  0  0  0  0  0  0
   11.3660   21.3971    2.1919 C   0  0  0  0  0  0  0  0  0  0  0  0
   11.0755   22.5517    1.3245 C   0  0  0  0  0  0  0  0  0  0  0  0
   10.2501   22.0673    0.1509 C   0  0  0  0  0  0  0  0  0  0  0  0
   10.7634   20.6891   -0.1604 C   0  0  0  0  0  0  0  0  0  0  0  0
   10.5885   23.7209    1.9279 N   0  0  0  0  0  0  0  0  0  0  0  0
   10.9200   24.7987    1.0057 C   0  0  0  0  0  0  0  0  0  0  0  0
   10.3289   25.8966    0.8985 O   0  0  0  0  0  0  0  0  0  0  0  0
   12.0462   24.3554    0.2428 N   0  0  0  0  0  0  0  0  0  0  0  0
   12.3701   23.0701    0.7042 C   0  0  0  0  0  0  0  0  0  0  0  0
   13.4540   22.4503    0.6295 O   0  0  0  0  0  0  0  0  0  0  0  0
   12.6738   25.1245   -0.7988 C   0  0  0  0  0  0  0  0  0  0  0  0
   11.9403   25.4252   -1.9476 C   0  0  0  0  0  0  0  0  0  0  0  0
   12.5356   26.0059   -3.0507 C   0  0  0  0  0  0  0  0  0  0  0  0
   13.8866   26.2694   -2.9486 C   0  0  0  0  0  0  0  0  0  0  0  0
   14.6193   26.0048   -1.8249 C   0  0  0  0  0  0  0  0  0  0  0  0
   14.0005   25.4073   -0.7024 C   0  0  0  0  0  0  0  0  0  0  0  0
   14.5997   26.5949   -4.2097 C   0  0  0  0  0  0  0  0  0  0  0  0
   14.1931   27.5601   -5.0544 C   0  0  0  0  0  0  0  0  0  0  0  0
   14.7774   27.7193   -6.2926 C   0  0  0  0  0  0  0  0  0  0  0  0
   15.7767   26.8699   -6.6655 C   0  0  0  0  0  0  0  0  0  0  0  0
   16.2080   25.8802   -5.8134 C   0  0  0  0  0  0  0  0  0  0  0  0
   15.6105   25.7593   -4.5758 C   0  0  0  0  0  0  0  0  0  0  0  0
    9.9394   24.0954    3.1470 C   0  0  0  0  0  0  0  0  0  0  0  0
   10.4205   25.0548    3.9478 N   0  0  0  0  0  0  0  0  0  0  0  0
    9.7502   25.4574    5.0650 C   0  0  0  0  0  0  0  0  0  0  0  0
    8.5584   24.8594    5.3798 C   0  0  0  0  0  0  0  0  0  0  0  0
    8.0510   23.8666    4.5826 C   0  0  0  0  0  0  0  0  0  0  0  0
    8.7783   23.5277    3.4739 N   0  0  0  0  0  0  0  0  0  0  0  0
    9.8576   18.6155    0.3177 C   0  0  0  0  0  0  0  0  0  0  0  0
    9.3773   20.3692   -1.8004 C   0  0  0  0  0  0  0  0  0  0  0  0
    8.2485   19.5319   -1.2803 C   0  0  0  0  0  0  0  0  0  0  0  0
    6.9683   19.6720   -1.7413 C   0  0  0  0  0  0  0  0  0  0  0  0
    5.9942   18.7712   -1.3134 C   0  0  0  0  0  0  0  0  0  0  0  0
    6.3241   17.7708   -0.4393 C   0  0  0  0  0  0  0  0  0  0  0  0
    7.6148   17.6950   -0.0098 N   0  0  0  0  0  0  0  0  0  0  0  0
    8.5742   18.5149   -0.3819 C   0  0  0  0  0  0  0  0  0  0  0  0
 32 33  1  0  0  0
 33 34  2  0  0  0
 34 35  1  0  0  0
 35 36  2  0  0  0
 36 37  1  0  0  0
 37 38  2  0  0  0
 38 31  1  0  0  0
 31  1  1  0  0  0
  1  2  1  0  0  0
  2  3  1  0  0  0
  3  4  1  0  0  0
  4  5  1  0  0  0
  5  6  1  0  0  0
  4  7  1  0  0  0
  7  8  1  0  0  0
  8  9  2  0  0  0
  8 10  1  0  0  0
 10 11  1  0  0  0
 11 12  2  0  0  0
 10 13  1  0  0  0
 13 14  2  0  0  0
 14 15  1  0  0  0
 15 16  2  0  0  0
 16 17  1  0  0  0
 17 18  2  0  0  0
 16 19  1  0  0  0
 19 20  2  0  0  0
 20 21  1  0  0  0
 21 22  2  0  0  0
 22 23  1  0  0  0
 23 24  2  0  0  0
  7 25  1  0  0  0
 25 26  2  0  0  0
 26 27  1  0  0  0
 27 28  2  0  0  0
 28 29  1  0  0  0
 29 30  2  0  0  0
 38 33  1  0  0  0
  6  1  1  0  0  0
 18 13  1  0  0  0
 24 19  1  0  0  0
 30 25  1  0  0  0
 11  4  1  0  0  0
M  END
> <minimizedAffinity>
5.92535

> <CNNscore>
0.4615117610

> <CNNaffinity>
7.0766777992

> <CNN_VS>
3.2659699917

> <CNNaffinity_variance>
0.4817401469

$$$$
[H]OC(=O)c1c([H])c([H])c(-c2c([H])c([H])c(N3C(=O)N(c4nc([H])nc([H])c4[H])C4(C3=O)C([H])([H])C([H])([H])N(C([H])([H])c3nc([H])c([H])c([H])c3C([H])([H])[H])C([H])([H])C4([H])[H])c([H])c2[H])c([H])c1[H]


 42 47  0  0  0  0  0  0  0  0999 V2000
   14.9387   22.4087   -3.0433 N   0  0  0  0  0  0  0  0  0  0  0  0
   15.9416   23.2410   -2.4942 C   0  0  0  0  0  0  0  0  0  0  0  0
   15.5926   23.9552   -1.2450 C   0  0  0  0  0  0  0  0  0  0  0  0
   14.2290   24.5160   -1.1909 C   0  0  0  0  0  0  0  0  0  0  0  0
   13.2303   23.5314   -1.6849 C   0  0  0  0  0  0  0  0  0  0  0  0
   13.6055   22.8981   -2.9743 C   0  0  0  0  0  0  0  0  0  0  0  0
   14.0738   25.8416   -1.7626 N   0  0  0  0  0  0  0  0  0  0  0  0
   12.8636   26.3195   -1.1844 C   0  0  0  0  0  0  0  0  0  0  0  0
   12.0651   27.1681   -1.6981 O   0  0  0  0  0  0  0  0  0  0  0  0
   12.6839   25.6812    0.0931 N   0  0  0  0  0  0  0  0  0  0  0  0
   13.8344   24.8200    0.2295 C   0  0  0  0  0  0  0  0  0  0  0  0
   14.3579   24.4339    1.2982 O   0  0  0  0  0  0  0  0  0  0  0  0
   11.6391   25.8305    1.0303 C   0  0  0  0  0  0  0  0  0  0  0  0
   10.5669   24.9725    0.9773 C   0  0  0  0  0  0  0  0  0  0  0  0
    9.5078   25.0568    1.8522 C   0  0  0  0  0  0  0  0  0  0  0  0
    9.5125   26.0336    2.8208 C   0  0  0  0  0  0  0  0  0  0  0  0
   10.5802   26.9162    2.9020 C   0  0  0  0  0  0  0  0  0  0  0  0
   11.6375   26.8057    2.0024 C   0  0  0  0  0  0  0  0  0  0  0  0
    8.3857   26.1291    3.7510 C   0  0  0  0  0  0  0  0  0  0  0  0
    7.9080   27.3761    4.0871 C   0  0  0  0  0  0  0  0  0  0  0  0
    6.8460   27.5087    4.9709 C   0  0  0  0  0  0  0  0  0  0  0  0
    6.2414   26.3845    5.5362 C   0  0  0  0  0  0  0  0  0  0  0  0
    6.7412   25.1535    5.1804 C   0  0  0  0  0  0  0  0  0  0  0  0
    7.7969   25.0058    4.3025 C   0  0  0  0  0  0  0  0  0  0  0  0
    5.1402   26.4943    6.4569 C   0  0  0  0  0  0  0  0  0  0  0  0
    4.7775   27.7492    6.9175 O   0  0  0  0  0  0  0  0  0  0  0  0
    4.4818   25.5004    6.8707 O   0  0  0  0  0  0  0  0  0  0  0  0
    4.6733   28.5208    6.2457 H   0  0  0  0  0  0  0  0  0  0  0  0
   14.8787   26.5625   -2.6757 C   0  0  0  0  0  0  0  0  0  0  0  0
   14.4853   26.6552   -3.9924 C   0  0  0  0  0  0  0  0  0  0  0  0
   15.2341   27.3437   -4.9226 C   0  0  0  0  0  0  0  0  0  0  0  0
   16.3731   27.9372   -4.5347 N   0  0  0  0  0  0  0  0  0  0  0  0
   16.7642   27.8526   -3.2556 C   0  0  0  0  0  0  0  0  0  0  0  0
   16.0309   27.1792   -2.3468 N   0  0  0  0  0  0  0  0  0  0  0  0
   15.0776   21.0103   -2.9392 C   0  0  0  0  0  0  0  0  0  0  0  0
   15.7016   20.9306   -0.1960 C   0  0  0  0  0  0  0  0  0  0  0  0
   14.4654   20.2735   -0.6631 C   0  0  0  0  0  0  0  0  0  0  0  0
   13.6366   19.6394    0.2299 C   0  0  0  0  0  0  0  0  0  0  0  0
   12.4858   19.0295   -0.2073 C   0  0  0  0  0  0  0  0  0  0  0  0
   12.1986   19.0766   -1.5528 C   0  0  0  0  0  0  0  0  0  0  0  0
   13.0355   19.7066   -2.3906 N   0  0  0  0  0  0  0  0  0  0  0  0
   14.1717   20.3201   -2.0283 C   0  0  0  0  0  0  0  0  0  0  0  0
 36 37  1  0  0  0
 37 38  2  0  0  0
 38 39  1  0  0  0
 39 40  2  0  0  0
 40 41  1  0  0  0
 41 42  2  0  0  0
 42 35  1  0  0  0
 35  1  1  0  0  0
  1  2  1  0  0  0
  2  3  1  0  0  0
  3  4  1  0  0  0
  4  5  1  0  0  0
  5  6  1  0  0  0
  4  7  1  0  0  0
  7  8  1  0  0  0
  8  9  2  0  0  0
  8 10  1  0  0  0
 10 11  1  0  0  0
 11 12  2  0  0  0
 10 13  1  0  0  0
 13 14  2  0  0  0
 14 15  1  0  0  0
 15 16  2  0  0  0
 16 17  1  0  0  0
 17 18  2  0  0  0
 16 19  1  0  0  0
 19 20  2  0  0  0
 20 21  1  0  0  0
 21 22  2  0  0  0
 22 23  1  0  0  0
 23 24  2  0  0  0
 22 25  1  0  0  0
 25 26  1  0  0  0
 25 27  2  0  0  0
  7 29  1  0  0  0
 29 30  2  0  0  0
 30 31  1  0  0  0
 31 32  2  0  0  0
 32 33  1  0  0  0
 33 34  2  0  0  0
 42 37  1  0  0  0
  6  1  1  0  0  0
 18 13  1  0  0  0
 24 19  1  0  0  0
 34 29  1  0  0  0
 11  4  1  0  0  0
 26 28  1  0  0  0
M  END
> <minimizedAffinity>
20.07977

> <CNNscore>
0.5705042481

> <CNNaffinity>
7.5526275635

> <CNN_VS>
4.3088059425

> <CNNaffinity_variance>
1.6536381245

$$$$
[H]OC(=O)c1c([H])c([H])c(-c2c([H])c([H])c(N3C(=O)N(c4nc([H])nc([H])c4[H])C4(C3=O)C([H])([H])C([H])([H])N(C([H])([H])c3nc([H])c([H])c([H])c3C([H])([H])[H])C([H])([H])C4([H])[H])c([H])c2[H])c([H])c1[H]


 42 47  0  0  0  0  0  0  0  0999 V2000
   10.2812   21.4879    3.1492 N   0  0  0  0  0  0  0  0  0  0  0  0
    9.0722   22.1597    2.8540 C   0  0  0  0  0  0  0  0  0  0  0  0
    9.0345   22.9186    1.5832 C   0  0  0  0  0  0  0  0  0  0  0  0
   10.2568   23.6784    1.2579 C   0  0  0  0  0  0  0  0  0  0  0  0
   11.4721   22.8554    1.4951 C   0  0  0  0  0  0  0  0  0  0  0  0
   11.4813   22.1726    2.8135 C   0  0  0  0  0  0  0  0  0  0  0  0
   10.3349   25.0121    1.8265 N   0  0  0  0  0  0  0  0  0  0  0  0
   11.3081   25.6670    1.0193 C   0  0  0  0  0  0  0  0  0  0  0  0
   12.0649   26.6261    1.3784 O   0  0  0  0  0  0  0  0  0  0  0  0
   11.2998   25.0634   -0.2872 N   0  0  0  0  0  0  0  0  0  0  0  0
   10.2865   24.0386   -0.2032 C   0  0  0  0  0  0  0  0  0  0  0  0
    9.6074   23.5783   -1.1477 O   0  0  0  0  0  0  0  0  0  0  0  0
   12.0843   25.3684   -1.4203 C   0  0  0  0  0  0  0  0  0  0  0  0
   13.0500   24.4777   -1.8235 C   0  0  0  0  0  0  0  0  0  0  0  0
   13.8577   24.7055   -2.9142 C   0  0  0  0  0  0  0  0  0  0  0  0
   13.7010   25.8662   -3.6357 C   0  0  0  0  0  0  0  0  0  0  0  0
   12.7349   26.7868   -3.2555 C   0  0  0  0  0  0  0  0  0  0  0  0
   11.9326   26.5281   -2.1470 C   0  0  0  0  0  0  0  0  0  0  0  0
   14.5612   26.1141   -4.7944 C   0  0  0  0  0  0  0  0  0  0  0  0
   14.5222   25.2302   -5.8496 C   0  0  0  0  0  0  0  0  0  0  0  0
   15.3275   25.4266   -6.9629 C   0  0  0  0  0  0  0  0  0  0  0  0
   16.1914   26.5207   -7.0366 C   0  0  0  0  0  0  0  0  0  0  0  0
   16.2070   27.3852   -5.9670 C   0  0  0  0  0  0  0  0  0  0  0  0
   15.4118   27.2030   -4.8529 C   0  0  0  0  0  0  0  0  0  0  0  0
   17.0386   26.7463   -8.1784 C   0  0  0  0  0  0  0  0  0  0  0  0
   17.5570   25.6525   -8.8518 O   0  0  0  0  0  0  0  0  0  0  0  0
   17.3371   27.8967   -8.6028 O   0  0  0  0  0  0  0  0  0  0  0  0
   16.9337   24.8736   -9.1011 H   0  0  0  0  0  0  0  0  0  0  0  0
    9.6489   25.6034    2.9132 C   0  0  0  0  0  0  0  0  0  0  0  0
    8.4014   25.1327    3.2584 C   0  0  0  0  0  0  0  0  0  0  0  0
    7.6901   25.6751    4.3070 C   0  0  0  0  0  0  0  0  0  0  0  0
    8.2270   26.6856    5.0074 N   0  0  0  0  0  0  0  0  0  0  0  0
    9.4404   27.1507    4.6791 C   0  0  0  0  0  0  0  0  0  0  0  0
   10.1352   26.6192    3.6535 N   0  0  0  0  0  0  0  0  0  0  0  0
   10.3304   20.0845    3.0315 C   0  0  0  0  0  0  0  0  0  0  0  0
   12.6410   19.7809    1.4535 C   0  0  0  0  0  0  0  0  0  0  0  0
   11.3392   19.3671    0.8947 C   0  0  0  0  0  0  0  0  0  0  0  0
   11.2634   18.8406   -0.3716 C   0  0  0  0  0  0  0  0  0  0  0  0
   10.0506   18.4551   -0.8891 C   0  0  0  0  0  0  0  0  0  0  0  0
    8.9312   18.6136   -0.1036 C   0  0  0  0  0  0  0  0  0  0  0  0
    9.0499   19.1321    1.1278 N   0  0  0  0  0  0  0  0  0  0  0  0
   10.2016   19.5269    1.6902 C   0  0  0  0  0  0  0  0  0  0  0  0
 36 37  1  0  0  0
 37 38  2  0  0  0
 38 39  1  0  0  0
 39 40  2  0  0  0
 40 41  1  0  0  0
 41 42  2  0  0  0
 42 35  1  0  0  0
 35  1  1  0  0  0
  1  2  1  0  0  0
  2  3  1  0  0  0
  3  4  1  0  0  0
  4  5  1  0  0  0
  5  6  1  0  0  0
  4  7  1  0  0  0
  7  8  1  0  0  0
  8  9  2  0  0  0
  8 10  1  0  0  0
 10 11  1  0  0  0
 11 12  2  0  0  0
 10 13  1  0  0  0
 13 14  2  0  0  0
 14 15  1  0  0  0
 15 16  2  0  0  0
 16 17  1  0  0  0
 17 18  2  0  0  0
 16 19  1  0  0  0
 19 20  2  0  0  0
 20 21  1  0  0  0
 21 22  2  0  0  0
 22 23  1  0  0  0
 23 24  2  0  0  0
 22 25  1  0  0  0
 25 26  1  0  0  0
 25 27  2  0  0  0
  7 29  1  0  0  0
 29 30  2  0  0  0
 30 31  1  0  0  0
 31 32  2  0  0  0
 32 33  1  0  0  0
 33 34  2  0  0  0
 42 37  1  0  0  0
  6  1  1  0  0  0
 18 13  1  0  0  0
 24 19  1  0  0  0
 34 29  1  0  0  0
 11  4  1  0  0  0
 26 28  1  0  0  0
M  END
> <minimizedAffinity>
16.39480

> <CNNscore>
0.5608116388

> <CNNaffinity>
7.2583098412

> <CNN_VS>
4.0705447197

> <CNNaffinity_variance>
1.0402740240

$$$$
[H]OC(=O)c1c([H])c([H])c(-c2c([H])c([H])c(N3C(=O)N(c4nc([H])nc([H])c4[H])C4(C3=O)C([H])([H])C([H])([H])N(C([H])([H])c3nc([H])c([H])c([H])c3C([H])([H])[H])C([H])([H])C4([H])[H])c([H])c2[H])c([H])c1[H]


 42 47  0  0  0  0  0  0  0  0999 V2000
   12.3503   21.4334    2.2270 N   0  0  0  0  0  0  0  0  0  0  0  0
   11.0004   21.5134    1.8126 C   0  0  0  0  0  0  0  0  0  0  0  0
   10.7466   22.2036    0.5274 C   0  0  0  0  0  0  0  0  0  0  0  0
   11.5360   23.4281    0.2945 C   0  0  0  0  0  0  0  0  0  0  0  0
   12.9629   23.2161    0.6550 C   0  0  0  0  0  0  0  0  0  0  0  0
   13.1537   22.5809    1.9834 C   0  0  0  0  0  0  0  0  0  0  0  0
   10.9718   24.6500    0.8391 N   0  0  0  0  0  0  0  0  0  0  0  0
   11.6269   25.6805    0.1068 C   0  0  0  0  0  0  0  0  0  0  0  0
   11.8524   26.8670    0.5103 O   0  0  0  0  0  0  0  0  0  0  0  0
   11.9992   25.1596   -1.1823 N   0  0  0  0  0  0  0  0  0  0  0  0
   11.5339   23.7932   -1.1657 C   0  0  0  0  0  0  0  0  0  0  0  0
   11.2111   23.1003   -2.1562 O   0  0  0  0  0  0  0  0  0  0  0  0
   12.6674   25.7993   -2.2484 C   0  0  0  0  0  0  0  0  0  0  0  0
   14.0005   25.5370   -2.4543 C   0  0  0  0  0  0  0  0  0  0  0  0
   14.7222   26.1244   -3.4683 C   0  0  0  0  0  0  0  0  0  0  0  0
   14.0948   27.0096   -4.3141 C   0  0  0  0  0  0  0  0  0  0  0  0
   12.7492   27.2964   -4.1339 C   0  0  0  0  0  0  0  0  0  0  0  0
   12.0456   26.6861   -3.0986 C   0  0  0  0  0  0  0  0  0  0  0  0
   14.8602   27.6397   -5.3917 C   0  0  0  0  0  0  0  0  0  0  0  0
   15.2049   26.8831   -6.4894 C   0  0  0  0  0  0  0  0  0  0  0  0
   15.9361   27.4420   -7.5284 C   0  0  0  0  0  0  0  0  0  0  0  0
   16.3365   28.7785   -7.4830 C   0  0  0  0  0  0  0  0  0  0  0  0
   15.9766   29.5075   -6.3736 C   0  0  0  0  0  0  0  0  0  0  0  0
   15.2494   28.9654   -5.3323 C   0  0  0  0  0  0  0  0  0  0  0  0
   17.0972   29.3819   -8.5459 C   0  0  0  0  0  0  0  0  0  0  0  0
   16.8127   29.0283   -9.8546 O   0  0  0  0  0  0  0  0  0  0  0  0
   18.0171   30.2229   -8.3481 O   0  0  0  0  0  0  0  0  0  0  0  0
   15.8341   29.0122  -10.1699 H   0  0  0  0  0  0  0  0  0  0  0  0
   10.0032   24.8601    1.8486 C   0  0  0  0  0  0  0  0  0  0  0  0
    8.7683   24.2614    1.7319 C   0  0  0  0  0  0  0  0  0  0  0  0
    7.7889   24.4354    2.6859 C   0  0  0  0  0  0  0  0  0  0  0  0
    8.0460   25.2065    3.7533 N   0  0  0  0  0  0  0  0  0  0  0  0
    9.2447   25.7933    3.8758 C   0  0  0  0  0  0  0  0  0  0  0  0
   10.2019   25.6222    2.9422 N   0  0  0  0  0  0  0  0  0  0  0  0
   13.0191   20.1959    2.1440 C   0  0  0  0  0  0  0  0  0  0  0  0
   15.7553   20.7870    1.8520 C   0  0  0  0  0  0  0  0  0  0  0  0
   15.0374   20.1670    0.7213 C   0  0  0  0  0  0  0  0  0  0  0  0
   15.6988   19.8825   -0.4483 C   0  0  0  0  0  0  0  0  0  0  0  0
   15.0285   19.3043   -1.4990 C   0  0  0  0  0  0  0  0  0  0  0  0
   13.6901   19.0249   -1.3386 C   0  0  0  0  0  0  0  0  0  0  0  0
   13.0829   19.3191   -0.1793 N   0  0  0  0  0  0  0  0  0  0  0  0
   13.6789   19.8824    0.8818 C   0  0  0  0  0  0  0  0  0  0  0  0
 36 37  1  0  0  0
 37 38  2  0  0  0
 38 39  1  0  0  0
 39 40  2  0  0  0
 40 41  1  0  0  0
 41 42  2  0  0  0
 42 35  1  0  0  0
 35  1  1  0  0  0
  1  2  1  0  0  0
  2  3  1  0  0  0
  3  4  1  0  0  0
  4  5  1  0  0  0
  5  6  1  0  0  0
  4  7  1  0  0  0
  7  8  1  0  0  0
  8  9  2  0  0  0
  8 10  1  0  0  0
 10 11  1  0  0  0
 11 12  2  0  0  0
 10 13  1  0  0  0
 13 14  2  0  0  0
 14 15  1  0  0  0
 15 16  2  0  0  0
 16 17  1  0  0  0
 17 18  2  0  0  0
 16 19  1  0  0  0
 19 20  2  0  0  0
 20 21  1  0  0  0
 21 22  2  0  0  0
 22 23  1  0  0  0
 23 24  2  0  0  0
 22 25  1  0  0  0
 25 26  1  0  0  0
 25 27  2  0  0  0
  7 29  1  0  0  0
 29 30  2  0  0  0
 30 31  1  0  0  0
 31 32  2  0  0  0
 32 33  1  0  0  0
 33 34  2  0  0  0
 42 37  1  0  0  0
  6  1  1  0  0  0
 18 13  1  0  0  0
 24 19  1  0  0  0
 34 29  1  0  0  0
 11  4  1  0  0  0
 26 28  1  0  0  0
M  END
> <minimizedAffinity>
30.06880

> <CNNscore>
0.5337412357

> <CNNaffinity>
7.2935523987

> <CNN_VS>
3.8928697109

> <CNNaffinity_variance>
0.6860485077

$$$$
[H]OC(=O)c1c([H])c([H])c(-c2c([H])c([H])c(N3C(=O)N(c4nc([H])nc([H])c4[H])C4(C3=O)C([H])([H])C([H])([H])N(C([H])([H])c3nc([H])c([H])c([H])c3C([H])([H])[H])C([H])([H])C4([H])[H])c([H])c2[H])c([H])c1[H]


 42 47  0  0  0  0  0  0  0  0999 V2000
   15.7512   24.3565   -2.0499 N   0  0  0  0  0  0  0  0  0  0  0  0
   15.4256   25.6744   -1.6535 C   0  0  0  0  0  0  0  0  0  0  0  0
   14.2595   25.8214   -0.7529 C   0  0  0  0  0  0  0  0  0  0  0  0
   13.0978   24.9687   -1.0697 C   0  0  0  0  0  0  0  0  0  0  0  0
   13.5268   23.5762   -1.3660 C   0  0  0  0  0  0  0  0  0  0  0  0
   14.6564   23.4923   -2.3260 C   0  0  0  0  0  0  0  0  0  0  0  0
   12.1685   25.5128   -2.0436 N   0  0  0  0  0  0  0  0  0  0  0  0
   10.9731   24.7721   -1.8204 C   0  0  0  0  0  0  0  0  0  0  0  0
   10.0685   24.5217   -2.6810 O   0  0  0  0  0  0  0  0  0  0  0  0
   10.9493   24.3454   -0.4461 N   0  0  0  0  0  0  0  0  0  0  0  0
   12.1731   24.8678    0.1136 C   0  0  0  0  0  0  0  0  0  0  0  0
   12.3836   25.1593    1.3120 O   0  0  0  0  0  0  0  0  0  0  0  0
    9.9759   23.5881    0.2404 C   0  0  0  0  0  0  0  0  0  0  0  0
    9.7248   22.2991   -0.1646 C   0  0  0  0  0  0  0  0  0  0  0  0
    8.7883   21.4995    0.4501 C   0  0  0  0  0  0  0  0  0  0  0  0
    8.0705   21.9998    1.5117 C   0  0  0  0  0  0  0  0  0  0  0  0
    8.2997   23.2976    1.9460 C   0  0  0  0  0  0  0  0  0  0  0  0
    9.2540   24.0824    1.3036 C   0  0  0  0  0  0  0  0  0  0  0  0
    7.0704   21.1535    2.1657 C   0  0  0  0  0  0  0  0  0  0  0  0
    6.4120   20.2053    1.4151 C   0  0  0  0  0  0  0  0  0  0  0  0
    5.4522   19.3886    1.9969 C   0  0  0  0  0  0  0  0  0  0  0  0
    5.1348   19.5106    3.3508 C   0  0  0  0  0  0  0  0  0  0  0  0
    5.8099   20.4666    4.0732 C   0  0  0  0  0  0  0  0  0  0  0  0
    6.7671   21.2862    3.5085 C   0  0  0  0  0  0  0  0  0  0  0  0
    4.1422   18.6779    3.9781 C   0  0  0  0  0  0  0  0  0  0  0  0
    3.6401   19.0527    5.2135 O   0  0  0  0  0  0  0  0  0  0  0  0
    3.7008   17.6156    3.4591 O   0  0  0  0  0  0  0  0  0  0  0  0
    3.3393   20.0251    5.3602 H   0  0  0  0  0  0  0  0  0  0  0  0
   12.3252   26.5305   -3.0136 C   0  0  0  0  0  0  0  0  0  0  0  0
   12.5492   27.8253   -2.6008 C   0  0  0  0  0  0  0  0  0  0  0  0
   12.7063   28.8540   -3.5047 C   0  0  0  0  0  0  0  0  0  0  0  0
   12.6393   28.5861   -4.8177 N   0  0  0  0  0  0  0  0  0  0  0  0
   12.4216   27.3293   -5.2291 C   0  0  0  0  0  0  0  0  0  0  0  0
   12.2683   26.3240   -4.3441 N   0  0  0  0  0  0  0  0  0  0  0  0
   16.8883   23.7364   -1.4947 C   0  0  0  0  0  0  0  0  0  0  0  0
   18.1558   24.7204    0.8175 C   0  0  0  0  0  0  0  0  0  0  0  0
   17.3274   23.5037    0.9242 C   0  0  0  0  0  0  0  0  0  0  0  0
   17.1784   22.8696    2.1334 C   0  0  0  0  0  0  0  0  0  0  0  0
   16.4058   21.7377    2.2304 C   0  0  0  0  0  0  0  0  0  0  0  0
   15.7959   21.2698    1.0884 C   0  0  0  0  0  0  0  0  0  0  0  0
   15.9679   21.9198   -0.0723 N   0  0  0  0  0  0  0  0  0  0  0  0
   16.7072   23.0270   -0.2335 C   0  0  0  0  0  0  0  0  0  0  0  0
 36 37  1  0  0  0
 37 38  2  0  0  0
 38 39  1  0  0  0
 39 40  2  0  0  0
 40 41  1  0  0  0
 41 42  2  0  0  0
 42 35  1  0  0  0
 35  1  1  0  0  0
  1  2  1  0  0  0
  2  3  1  0  0  0
  3  4  1  0  0  0
  4  5  1  0  0  0
  5  6  1  0  0  0
  4  7  1  0  0  0
  7  8  1  0  0  0
  8  9  2  0  0  0
  8 10  1  0  0  0
 10 11  1  0  0  0
 11 12  2  0  0  0
 10 13  1  0  0  0
 13 14  2  0  0  0
 14 15  1  0  0  0
 15 16  2  0  0  0
 16 17  1  0  0  0
 17 18  2  0  0  0
 16 19  1  0  0  0
 19 20  2  0  0  0
 20 21  1  0  0  0
 21 22  2  0  0  0
 22 23  1  0  0  0
 23 24  2  0  0  0
 22 25  1  0  0  0
 25 26  1  0  0  0
 25 27  2  0  0  0
  7 29  1  0  0  0
 29 30  2  0  0  0
 30 31  1  0  0  0
 31 32  2  0  0  0
 32 33  1  0  0  0
 33 34  2  0  0  0
 42 37  1  0  0  0
  6  1  1  0  0  0
 18 13  1  0  0  0
 24 19  1  0  0  0
 34 29  1  0  0  0
 11  4  1  0  0  0
 26 28  1  0  0  0
M  END
> <minimizedAffinity>
21.34664

> <CNNscore>
0.5310772061

> <CNNaffinity>
7.1497712135

> <CNN_VS>
3.7970805168

> <CNNaffinity_variance>
0.6825829744

$$$$
[H]OC(=O)c1c([H])c([H])c(-c2c([H])c([H])c(N3C(=O)N(c4nc([H])nc([H])c4[H])C4(C3=O)C([H])([H])C([H])([H])N(C([H])([H])c3nc([H])c([H])c([H])c3C([H])([H])[H])C([H])([H])C4([H])[H])c([H])c2[H])c([H])c1[H]


 42 47  0  0  0  0  0  0  0  0999 V2000
   16.6663   27.0256   -2.8042 N   0  0  0  0  0  0  0  0  0  0  0  0
   17.5053   25.8894   -2.8773 C   0  0  0  0  0  0  0  0  0  0  0  0
   16.8309   24.5713   -2.8618 C   0  0  0  0  0  0  0  0  0  0  0  0
   15.7019   24.4439   -1.9204 C   0  0  0  0  0  0  0  0  0  0  0  0
   14.8142   25.6346   -1.9921 C   0  0  0  0  0  0  0  0  0  0  0  0
   15.5444   26.9261   -1.9363 C   0  0  0  0  0  0  0  0  0  0  0  0
   16.0564   24.0608   -0.5656 N   0  0  0  0  0  0  0  0  0  0  0  0
   14.8366   23.5639   -0.0248 C   0  0  0  0  0  0  0  0  0  0  0  0
   14.4986   23.5668    1.2029 O   0  0  0  0  0  0  0  0  0  0  0  0
   14.0342   23.0494   -1.1032 N   0  0  0  0  0  0  0  0  0  0  0  0
   14.8364   23.2671   -2.2835 C   0  0  0  0  0  0  0  0  0  0  0  0
   14.7964   22.6101   -3.3475 O   0  0  0  0  0  0  0  0  0  0  0  0
   12.7522   22.4601   -1.0643 C   0  0  0  0  0  0  0  0  0  0  0  0
   11.6518   23.2366   -1.3373 C   0  0  0  0  0  0  0  0  0  0  0  0
   10.3696   22.7370   -1.3147 C   0  0  0  0  0  0  0  0  0  0  0  0
   10.1705   21.4107   -1.0082 C   0  0  0  0  0  0  0  0  0  0  0  0
   11.2603   20.5989   -0.7277 C   0  0  0  0  0  0  0  0  0  0  0  0
   12.5458   21.1335   -0.7585 C   0  0  0  0  0  0  0  0  0  0  0  0
    8.8076   20.8764   -0.9792 C   0  0  0  0  0  0  0  0  0  0  0  0
    8.3561   20.1539   -2.0610 C   0  0  0  0  0  0  0  0  0  0  0  0
    7.0681   19.6368   -2.0746 C   0  0  0  0  0  0  0  0  0  0  0  0
    6.2055   19.8376   -0.9955 C   0  0  0  0  0  0  0  0  0  0  0  0
    6.6860   20.5630    0.0697 C   0  0  0  0  0  0  0  0  0  0  0  0
    7.9648   21.0835    0.0976 C   0  0  0  0  0  0  0  0  0  0  0  0
    4.8645   19.3142   -0.9851 C   0  0  0  0  0  0  0  0  0  0  0  0
    3.8125   20.1780   -0.7282 O   0  0  0  0  0  0  0  0  0  0  0  0
    4.5930   18.1005   -1.1993 O   0  0  0  0  0  0  0  0  0  0  0  0
    3.7696   21.0791   -1.2217 H   0  0  0  0  0  0  0  0  0  0  0  0
   17.2866   24.1272    0.1298 C   0  0  0  0  0  0  0  0  0  0  0  0
   17.2982   24.5594    1.4376 C   0  0  0  0  0  0  0  0  0  0  0  0
   18.4695   24.6448    2.1590 C   0  0  0  0  0  0  0  0  0  0  0  0
   19.6252   24.2982    1.5722 N   0  0  0  0  0  0  0  0  0  0  0  0
   19.6241   23.8764    0.3000 C   0  0  0  0  0  0  0  0  0  0  0  0
   18.4778   23.7932   -0.4045 N   0  0  0  0  0  0  0  0  0  0  0  0
   16.4715   27.8076   -3.9601 C   0  0  0  0  0  0  0  0  0  0  0  0
   17.1236   27.0669   -6.5959 C   0  0  0  0  0  0  0  0  0  0  0  0
   15.7095   27.0262   -6.1753 C   0  0  0  0  0  0  0  0  0  0  0  0
   14.7344   26.6296   -7.0575 C   0  0  0  0  0  0  0  0  0  0  0  0
   13.4189   26.5914   -6.6632 C   0  0  0  0  0  0  0  0  0  0  0  0
   13.1189   26.9597   -5.3711 C   0  0  0  0  0  0  0  0  0  0  0  0
   14.1021   27.3405   -4.5420 N   0  0  0  0  0  0  0  0  0  0  0  0
   15.4026   27.3994   -4.8643 C   0  0  0  0  0  0  0  0  0  0  0  0
 36 37  1  0  0  0
 37 38  2  0  0  0
 38 39  1  0  0  0
 39 40  2  0  0  0
 40 41  1  0  0  0
 41 42  2  0  0  0
 42 35  1  0  0  0
 35  1  1  0  0  0
  1  2  1  0  0  0
  2  3  1  0  0  0
  3  4  1  0  0  0
  4  5  1  0  0  0
  5  6  1  0  0  0
  4  7  1  0  0  0
  7  8  1  0  0  0
  8  9  2  0  0  0
  8 10  1  0  0  0
 10 11  1  0  0  0
 11 12  2  0  0  0
 10 13  1  0  0  0
 13 14  2  0  0  0
 14 15  1  0  0  0
 15 16  2  0  0  0
 16 17  1  0  0  0
 17 18  2  0  0  0
 16 19  1  0  0  0
 19 20  2  0  0  0
 20 21  1  0  0  0
 21 22  2  0  0  0
 22 23  1  0  0  0
 23 24  2  0  0  0
 22 25  1  0  0  0
 25 26  1  0  0  0
 25 27  2  0  0  0
  7 29  1  0  0  0
 29 30  2  0  0  0
 30 31  1  0  0  0
 31 32  2  0  0  0
 32 33  1  0  0  0
 33 34  2  0  0  0
 42 37  1  0  0  0
  6  1  1  0  0  0
 18 13  1  0  0  0
 24 19  1  0  0  0
 34 29  1  0  0  0
 11  4  1  0  0  0
 26 28  1  0  0  0
M  END
> <minimizedAffinity>
10.35290

> <CNNscore>
0.5206646919

> <CNNaffinity>
7.8109407425

> <CNN_VS>
4.0668811798

> <CNNaffinity_variance>
0.7025970221

$$$$
[H]OC(=O)c1c([H])c([H])c(-c2c([H])c([H])c(N3C(=O)N(c4nc([H])nc([H])c4[H])C4(C3=O)C([H])([H])C([H])([H])N(C([H])([H])c3nc([H])c([H])c([H])c3C([H])([H])[H])C([H])([H])C4([H])[H])c([H])c2[H])c([H])c1[H]


 42 47  0  0  0  0  0  0  0  0999 V2000
   15.0873   22.2691   -2.5886 N   0  0  0  0  0  0  0  0  0  0  0  0
   15.5821   23.5779   -2.3823 C   0  0  0  0  0  0  0  0  0  0  0  0
   14.9240   24.3700   -1.3184 C   0  0  0  0  0  0  0  0  0  0  0  0
   13.4552   24.2489   -1.2495 C   0  0  0  0  0  0  0  0  0  0  0  0
   13.0339   22.8276   -1.3653 C   0  0  0  0  0  0  0  0  0  0  0  0
   13.6783   22.1051   -2.4911 C   0  0  0  0  0  0  0  0  0  0  0  0
   12.7114   25.1501   -2.1112 N   0  0  0  0  0  0  0  0  0  0  0  0
   11.4094   25.1708   -1.5351 C   0  0  0  0  0  0  0  0  0  0  0  0
   10.3159   25.3931   -2.1486 O   0  0  0  0  0  0  0  0  0  0  0  0
   11.5279   24.8965   -0.1272 N   0  0  0  0  0  0  0  0  0  0  0  0
   12.9444   24.7184    0.0862 C   0  0  0  0  0  0  0  0  0  0  0  0
   13.5720   24.9176    1.1501 O   0  0  0  0  0  0  0  0  0  0  0  0
   10.5197   24.8101    0.8569 C   0  0  0  0  0  0  0  0  0  0  0  0
    9.3261   24.2078    0.5391 C   0  0  0  0  0  0  0  0  0  0  0  0
    8.2937   24.0893    1.4414 C   0  0  0  0  0  0  0  0  0  0  0  0
    8.4519   24.5896    2.7130 C   0  0  0  0  0  0  0  0  0  0  0  0
    9.6450   25.2036    3.0667 C   0  0  0  0  0  0  0  0  0  0  0  0
   10.6715   25.3084    2.1315 C   0  0  0  0  0  0  0  0  0  0  0  0
    7.3543   24.4691    3.6747 C   0  0  0  0  0  0  0  0  0  0  0  0
    6.6333   25.5957    4.0015 C   0  0  0  0  0  0  0  0  0  0  0  0
    5.5901   25.5240    4.9142 C   0  0  0  0  0  0  0  0  0  0  0  0
    5.2505   24.3123    5.5185 C   0  0  0  0  0  0  0  0  0  0  0  0
    5.9893   23.2054    5.1710 C   0  0  0  0  0  0  0  0  0  0  0  0
    7.0297   23.2612    4.2648 C   0  0  0  0  0  0  0  0  0  0  0  0
    4.1748   24.2109    6.4697 C   0  0  0  0  0  0  0  0  0  0  0  0
    3.5665   25.3725    6.9161 O   0  0  0  0  0  0  0  0  0  0  0  0
    3.7522   23.1114    6.9228 O   0  0  0  0  0  0  0  0  0  0  0  0
    3.2844   26.0872    6.2327 H   0  0  0  0  0  0  0  0  0  0  0  0
   13.1031   25.8753   -3.2609 C   0  0  0  0  0  0  0  0  0  0  0  0
   13.9983   25.3092   -4.1414 C   0  0  0  0  0  0  0  0  0  0  0  0
   14.4142   25.9741   -5.2749 C   0  0  0  0  0  0  0  0  0  0  0  0
   13.9347   27.2018   -5.5254 N   0  0  0  0  0  0  0  0  0  0  0  0
   13.0632   27.7611   -4.6745 C   0  0  0  0  0  0  0  0  0  0  0  0
   12.6570   27.1098   -3.5663 N   0  0  0  0  0  0  0  0  0  0  0  0
   15.8571   21.1708   -2.1567 C   0  0  0  0  0  0  0  0  0  0  0  0
   13.5181   19.9211   -1.2141 C   0  0  0  0  0  0  0  0  0  0  0  0
   14.6140   20.1886   -0.2624 C   0  0  0  0  0  0  0  0  0  0  0  0
   14.4903   19.8286    1.0572 C   0  0  0  0  0  0  0  0  0  0  0  0
   15.5123   20.0777    1.9409 C   0  0  0  0  0  0  0  0  0  0  0  0
   16.6475   20.6920    1.4621 C   0  0  0  0  0  0  0  0  0  0  0  0
   16.7268   21.0269    0.1657 N   0  0  0  0  0  0  0  0  0  0  0  0
   15.7671   20.8119   -0.7461 C   0  0  0  0  0  0  0  0  0  0  0  0
 36 37  1  0  0  0
 37 38  2  0  0  0
 38 39  1  0  0  0
 39 40  2  0  0  0
 40 41  1  0  0  0
 41 42  2  0  0  0
 42 35  1  0  0  0
 35  1  1  0  0  0
  1  2  1  0  0  0
  2  3  1  0  0  0
  3  4  1  0  0  0
  4  5  1  0  0  0
  5  6  1  0  0  0
  4  7  1  0  0  0
  7  8  1  0  0  0
  8  9  2  0  0  0
  8 10  1  0  0  0
 10 11  1  0  0  0
 11 12  2  0  0  0
 10 13  1  0  0  0
 13 14  2  0  0  0
 14 15  1  0  0  0
 15 16  2  0  0  0
 16 17  1  0  0  0
 17 18  2  0  0  0
 16 19  1  0  0  0
 19 20  2  0  0  0
 20 21  1  0  0  0
 21 22  2  0  0  0
 22 23  1  0  0  0
 23 24  2  0  0  0
 22 25  1  0  0  0
 25 26  1  0  0  0
 25 27  2  0  0  0
  7 29  1  0  0  0
 29 30  2  0  0  0
 30 31  1  0  0  0
 31 32  2  0  0  0
 32 33  1  0  0  0
 33 34  2  0  0  0
 42 37  1  0  0  0
  6  1  1  0  0  0
 18 13  1  0  0  0
 24 19  1  0  0  0
 34 29  1  0  0  0
 11  4  1  0  0  0
 26 28  1  0  0  0
M  END
> <minimizedAffinity>
10.01025

> <CNNscore>
0.5196073055

> <CNNaffinity>
7.4946227074

> <CNN_VS>
3.8942606449

> <CNNaffinity_variance>
0.8043884039

$$$$
[H]OC(=O)c1c([H])c([H])c(-c2c([H])c([H])c(N3C(=O)N(c4nc([H])nc([H])c4[H])C4(C3=O)C([H])([H])C([H])([H])N(C([H])([H])c3nc([H])c([H])c([H])c3C([H])([H])[H])C([H])([H])C4([H])[H])c([H])c2[H])c([H])c1[H]


 42 47  0  0  0  0  0  0  0  0999 V2000
   15.8139   23.0085   -4.7667 N   0  0  0  0  0  0  0  0  0  0  0  0
   16.7558   23.7419   -4.0083 C   0  0  0  0  0  0  0  0  0  0  0  0
   16.3522   24.1042   -2.6305 C   0  0  0  0  0  0  0  0  0  0  0  0
   14.9539   24.5477   -2.4716 C   0  0  0  0  0  0  0  0  0  0  0  0
   14.0261   23.6537   -3.2136 C   0  0  0  0  0  0  0  0  0  0  0  0
   14.4507   23.3812   -4.6100 C   0  0  0  0  0  0  0  0  0  0  0  0
   14.7147   25.9606   -2.7051 N   0  0  0  0  0  0  0  0  0  0  0  0
   13.4717   26.2048   -2.0548 C   0  0  0  0  0  0  0  0  0  0  0  0
   12.6218   27.1016   -2.3632 O   0  0  0  0  0  0  0  0  0  0  0  0
   13.3267   25.2625   -0.9766 N   0  0  0  0  0  0  0  0  0  0  0  0
   14.5310   24.4682   -1.0292 C   0  0  0  0  0  0  0  0  0  0  0  0
   15.0723   23.8653   -0.0759 O   0  0  0  0  0  0  0  0  0  0  0  0
   12.2684   25.1110   -0.0550 C   0  0  0  0  0  0  0  0  0  0  0  0
   11.2582   24.2235   -0.3383 C   0  0  0  0  0  0  0  0  0  0  0  0
   10.1905   24.0234    0.5068 C   0  0  0  0  0  0  0  0  0  0  0  0
   10.1219   24.7339    1.6828 C   0  0  0  0  0  0  0  0  0  0  0  0
   11.1258   25.6381    1.9991 C   0  0  0  0  0  0  0  0  0  0  0  0
   12.1937   25.8187    1.1238 C   0  0  0  0  0  0  0  0  0  0  0  0
    8.9855   24.5268    2.5826 C   0  0  0  0  0  0  0  0  0  0  0  0
    8.9062   23.3475    3.2890 C   0  0  0  0  0  0  0  0  0  0  0  0
    7.8410   23.1105    4.1466 C   0  0  0  0  0  0  0  0  0  0  0  0
    6.8304   24.0594    4.3109 C   0  0  0  0  0  0  0  0  0  0  0  0
    6.9384   25.2269    3.5918 C   0  0  0  0  0  0  0  0  0  0  0  0
    7.9921   25.4768    2.7350 C   0  0  0  0  0  0  0  0  0  0  0  0
    5.7138   23.8378    5.1921 C   0  0  0  0  0  0  0  0  0  0  0  0
    5.5827   22.6033    5.8064 O   0  0  0  0  0  0  0  0  0  0  0  0
    4.8403   24.7150    5.4373 O   0  0  0  0  0  0  0  0  0  0  0  0
    6.4013   22.1783    6.2611 H   0  0  0  0  0  0  0  0  0  0  0  0
   15.4755   26.9328   -3.3958 C   0  0  0  0  0  0  0  0  0  0  0  0
   15.0412   27.3797   -4.6241 C   0  0  0  0  0  0  0  0  0  0  0  0
   15.7464   28.3238   -5.3391 C   0  0  0  0  0  0  0  0  0  0  0  0
   16.8827   28.8184   -4.8252 N   0  0  0  0  0  0  0  0  0  0  0  0
   17.3135   28.3897   -3.6306 C   0  0  0  0  0  0  0  0  0  0  0  0
   16.6228   27.4665   -2.9321 N   0  0  0  0  0  0  0  0  0  0  0  0
   16.0447   21.6390   -5.0046 C   0  0  0  0  0  0  0  0  0  0  0  0
   14.9083   21.0835   -2.4904 C   0  0  0  0  0  0  0  0  0  0  0  0
   14.3134   20.4657   -3.6915 C   0  0  0  0  0  0  0  0  0  0  0  0
   13.2228   19.6385   -3.5785 C   0  0  0  0  0  0  0  0  0  0  0  0
   12.6701   19.0656   -4.6982 C   0  0  0  0  0  0  0  0  0  0  0  0
   13.2412   19.3468   -5.9189 C   0  0  0  0  0  0  0  0  0  0  0  0
   14.3057   20.1602   -5.9843 N   0  0  0  0  0  0  0  0  0  0  0  0
   14.8912   20.7498   -4.9316 C   0  0  0  0  0  0  0  0  0  0  0  0
 36 37  1  0  0  0
 37 38  2  0  0  0
 38 39  1  0  0  0
 39 40  2  0  0  0
 40 41  1  0  0  0
 41 42  2  0  0  0
 42 35  1  0  0  0
 35  1  1  0  0  0
  1  2  1  0  0  0
  2  3  1  0  0  0
  3  4  1  0  0  0
  4  5  1  0  0  0
  5  6  1  0  0  0
  4  7  1  0  0  0
  7  8  1  0  0  0
  8  9  2  0  0  0
  8 10  1  0  0  0
 10 11  1  0  0  0
 11 12  2  0  0  0
 10 13  1  0  0  0
 13 14  2  0  0  0
 14 15  1  0  0  0
 15 16  2  0  0  0
 16 17  1  0  0  0
 17 18  2  0  0  0
 16 19  1  0  0  0
 19 20  2  0  0  0
 20 21  1  0  0  0
 21 22  2  0  0  0
 22 23  1  0  0  0
 23 24  2  0  0  0
 22 25  1  0  0  0
 25 26  1  0  0  0
 25 27  2  0  0  0
  7 29  1  0  0  0
 29 30  2  0  0  0
 30 31  1  0  0  0
 31 32  2  0  0  0
 32 33  1  0  0  0
 33 34  2  0  0  0
 42 37  1  0  0  0
  6  1  1  0  0  0
 18 13  1  0  0  0
 24 19  1  0  0  0
 34 29  1  0  0  0
 11  4  1  0  0  0
 26 28  1  0  0  0
M  END
> <minimizedAffinity>
18.24919

> <CNNscore>
0.5094721913

> <CNNaffinity>
7.6959471703

> <CNN_VS>
3.9208710194

> <CNNaffinity_variance>
1.3691167831

$$$$
[H]OC(=O)c1c([H])c([H])c(-c2c([H])c([H])c(N3C(=O)N(c4nc([H])nc([H])c4[H])C4(C3=O)C([H])([H])C([H])([H])N(C([H])([H])c3nc([H])c([H])c([H])c3C([H])([H])[H])C([H])([H])C4([H])[H])c([H])c2[H])c([H])c1[H]


 42 47  0  0  0  0  0  0  0  0999 V2000
   15.9845   23.9256   -1.8680 N   0  0  0  0  0  0  0  0  0  0  0  0
   15.7602   25.3130   -1.7102 C   0  0  0  0  0  0  0  0  0  0  0  0
   14.6561   25.7020   -0.8036 C   0  0  0  0  0  0  0  0  0  0  0  0
   13.4301   24.8876   -0.9060 C   0  0  0  0  0  0  0  0  0  0  0  0
   13.7584   23.4383   -0.9561 C   0  0  0  0  0  0  0  0  0  0  0  0
   14.8266   23.1028   -1.9313 C   0  0  0  0  0  0  0  0  0  0  0  0
   12.4828   25.3069   -1.9233 N   0  0  0  0  0  0  0  0  0  0  0  0
   11.2594   24.7035   -1.5152 C   0  0  0  0  0  0  0  0  0  0  0  0
   10.2957   24.3626   -2.2745 O   0  0  0  0  0  0  0  0  0  0  0  0
   11.2857   24.5380   -0.0857 N   0  0  0  0  0  0  0  0  0  0  0  0
   12.5673   25.0687    0.3140 C   0  0  0  0  0  0  0  0  0  0  0  0
   12.8602   25.5593    1.4270 O   0  0  0  0  0  0  0  0  0  0  0  0
   10.3080   23.9878    0.7709 C   0  0  0  0  0  0  0  0  0  0  0  0
   10.5913   22.8263    1.4486 C   0  0  0  0  0  0  0  0  0  0  0  0
    9.6894   22.2260    2.2973 C   0  0  0  0  0  0  0  0  0  0  0  0
    8.4539   22.8022    2.4815 C   0  0  0  0  0  0  0  0  0  0  0  0
    8.1358   23.9755    1.8123 C   0  0  0  0  0  0  0  0  0  0  0  0
    9.0696   24.5593    0.9600 C   0  0  0  0  0  0  0  0  0  0  0  0
    7.4900   22.1644    3.3805 C   0  0  0  0  0  0  0  0  0  0  0  0
    7.5523   20.8004    3.5585 C   0  0  0  0  0  0  0  0  0  0  0  0
    6.6520   20.1577    4.3968 C   0  0  0  0  0  0  0  0  0  0  0  0
    5.6672   20.8778    5.0753 C   0  0  0  0  0  0  0  0  0  0  0  0
    5.6313   22.2384    4.8768 C   0  0  0  0  0  0  0  0  0  0  0  0
    6.5202   22.8917    4.0461 C   0  0  0  0  0  0  0  0  0  0  0  0
    4.7200   20.2357    5.9487 C   0  0  0  0  0  0  0  0  0  0  0  0
    4.0786   20.9960    6.9126 O   0  0  0  0  0  0  0  0  0  0  0  0
    4.4400   19.0069    5.8832 O   0  0  0  0  0  0  0  0  0  0  0  0
    3.6643   21.8991    6.6475 H   0  0  0  0  0  0  0  0  0  0  0  0
   12.6464   26.1168   -3.0716 C   0  0  0  0  0  0  0  0  0  0  0  0
   13.6803   25.8504   -3.9417 C   0  0  0  0  0  0  0  0  0  0  0  0
   13.8850   26.6102   -5.0734 C   0  0  0  0  0  0  0  0  0  0  0  0
   13.0565   27.6333   -5.3323 N   0  0  0  0  0  0  0  0  0  0  0  0
   12.0476   27.9004   -4.4916 C   0  0  0  0  0  0  0  0  0  0  0  0
   11.8482   27.1565   -3.3852 N   0  0  0  0  0  0  0  0  0  0  0  0
   17.1113   23.3409   -1.2565 C   0  0  0  0  0  0  0  0  0  0  0  0
   17.9150   24.2914    1.2678 C   0  0  0  0  0  0  0  0  0  0  0  0
   17.2627   22.9704    1.1803 C   0  0  0  0  0  0  0  0  0  0  0  0
   17.0510   22.2247    2.3141 C   0  0  0  0  0  0  0  0  0  0  0  0
   16.4425   20.9958    2.2302 C   0  0  0  0  0  0  0  0  0  0  0  0
   16.0587   20.5464    0.9869 C   0  0  0  0  0  0  0  0  0  0  0  0
   16.2845   21.3068   -0.0947 N   0  0  0  0  0  0  0  0  0  0  0  0
   16.8722   22.5122   -0.0806 C   0  0  0  0  0  0  0  0  0  0  0  0
 36 37  1  0  0  0
 37 38  2  0  0  0
 38 39  1  0  0  0
 39 40  2  0  0  0
 40 41  1  0  0  0
 41 42  2  0  0  0
 42 35  1  0  0  0
 35  1  1  0  0  0
  1  2  1  0  0  0
  2  3  1  0  0  0
  3  4  1  0  0  0
  4  5  1  0  0  0
  5  6  1  0  0  0
  4  7  1  0  0  0
  7  8  1  0  0  0
  8  9  2  0  0  0
  8 10  1  0  0  0
 10 11  1  0  0  0
 11 12  2  0  0  0
 10 13  1  0  0  0
 13 14  2  0  0  0
 14 15  1  0  0  0
 15 16  2  0  0  0
 16 17  1  0  0  0
 17 18  2  0  0  0
 16 19  1  0  0  0
 19 20  2  0  0  0
 20 21  1  0  0  0
 21 22  2  0  0  0
 22 23  1  0  0  0
 23 24  2  0  0  0
 22 25  1  0  0  0
 25 26  1  0  0  0
 25 27  2  0  0  0
  7 29  1  0  0  0
 29 30  2  0  0  0
 30 31  1  0  0  0
 31 32  2  0  0  0
 32 33  1  0  0  0
 33 34  2  0  0  0
 42 37  1  0  0  0
  6  1  1  0  0  0
 18 13  1  0  0  0
 24 19  1  0  0  0
 34 29  1  0  0  0
 11  4  1  0  0  0
 26 28  1  0  0  0
M  END
> <minimizedAffinity>
16.05755

> <CNNscore>
0.4667861164

> <CNNaffinity>
7.3367042542

> <CNN_VS>
3.4246716499

> <CNNaffinity_variance>
0.6940966845

$$$$
[H]OC(=O)c1c([H])c([H])c(-c2c([H])c([H])c(N3C(=O)N(c4nc([H])nc([H])c4[H])C4(C3=O)C([H])([H])C([H])([H])N(C([H])([H])c3nc([H])c([H])c([H])c3C([H])([H])[H])C([H])([H])C4([H])[H])c([H])c2[H])c([H])c1[H]


 42 47  0  0  0  0  0  0  0  0999 V2000
   17.0784   26.2060   -2.9060 N   0  0  0  0  0  0  0  0  0  0  0  0
   17.8370   25.0576   -2.5806 C   0  0  0  0  0  0  0  0  0  0  0  0
   17.0876   23.7862   -2.4613 C   0  0  0  0  0  0  0  0  0  0  0  0
   15.7830   23.8767   -1.7780 C   0  0  0  0  0  0  0  0  0  0  0  0
   15.0104   25.0510   -2.2629 C   0  0  0  0  0  0  0  0  0  0  0  0
   15.7978   26.3093   -2.2970 C   0  0  0  0  0  0  0  0  0  0  0  0
   15.8246   23.7624   -0.3312 N   0  0  0  0  0  0  0  0  0  0  0  0
   14.4892   23.4136    0.0187 C   0  0  0  0  0  0  0  0  0  0  0  0
   13.9065   23.6693    1.1217 O   0  0  0  0  0  0  0  0  0  0  0  0
   13.8937   22.7147   -1.0897 N   0  0  0  0  0  0  0  0  0  0  0  0
   14.9344   22.6731   -2.0893 C   0  0  0  0  0  0  0  0  0  0  0  0
   15.0708   21.8186   -2.9929 O   0  0  0  0  0  0  0  0  0  0  0  0
   12.5948   22.1770   -1.2165 C   0  0  0  0  0  0  0  0  0  0  0  0
   11.5944   22.6484   -0.4009 C   0  0  0  0  0  0  0  0  0  0  0  0
   10.3047   22.1716   -0.4605 C   0  0  0  0  0  0  0  0  0  0  0  0
    9.9942   21.1853   -1.3679 C   0  0  0  0  0  0  0  0  0  0  0  0
   10.9812   20.6874   -2.2066 C   0  0  0  0  0  0  0  0  0  0  0  0
   12.2772   21.1900   -2.1226 C   0  0  0  0  0  0  0  0  0  0  0  0
    8.6241   20.6726   -1.4317 C   0  0  0  0  0  0  0  0  0  0  0  0
    7.9454   20.4480   -0.2548 C   0  0  0  0  0  0  0  0  0  0  0  0
    6.6478   19.9558   -0.2731 C   0  0  0  0  0  0  0  0  0  0  0  0
    6.0050   19.6788   -1.4809 C   0  0  0  0  0  0  0  0  0  0  0  0
    6.7093   19.9139   -2.6387 C   0  0  0  0  0  0  0  0  0  0  0  0
    8.0005   20.4033   -2.6363 C   0  0  0  0  0  0  0  0  0  0  0  0
    4.6607   19.1658   -1.5278 C   0  0  0  0  0  0  0  0  0  0  0  0
    4.4714   17.8022   -1.6806 O   0  0  0  0  0  0  0  0  0  0  0  0
    3.6366   19.8975   -1.4366 O   0  0  0  0  0  0  0  0  0  0  0  0
    5.0113   17.1508   -1.0962 H   0  0  0  0  0  0  0  0  0  0  0  0
   16.8867   23.9355    0.5870 C   0  0  0  0  0  0  0  0  0  0  0  0
   16.9699   23.1071    1.6842 C   0  0  0  0  0  0  0  0  0  0  0  0
   17.9831   23.2349    2.6098 C   0  0  0  0  0  0  0  0  0  0  0  0
   18.9099   24.1894    2.4366 N   0  0  0  0  0  0  0  0  0  0  0  0
   18.8375   25.0004    1.3720 C   0  0  0  0  0  0  0  0  0  0  0  0
   17.8461   24.8743    0.4673 N   0  0  0  0  0  0  0  0  0  0  0  0
   17.1784   26.7468   -4.2034 C   0  0  0  0  0  0  0  0  0  0  0  0
   15.8286   28.8916   -5.4278 C   0  0  0  0  0  0  0  0  0  0  0  0
   15.4083   27.5130   -5.7455 C   0  0  0  0  0  0  0  0  0  0  0  0
   14.3790   27.2869   -6.6263 C   0  0  0  0  0  0  0  0  0  0  0  0
   13.9905   26.0026   -6.9213 C   0  0  0  0  0  0  0  0  0  0  0  0
   14.6606   24.9666   -6.3108 C   0  0  0  0  0  0  0  0  0  0  0  0
   15.6603   25.2319   -5.4568 N   0  0  0  0  0  0  0  0  0  0  0  0
   16.0872   26.4598   -5.1272 C   0  0  0  0  0  0  0  0  0  0  0  0
 36 37  1  0  0  0
 37 38  2  0  0  0
 38 39  1  0  0  0
 39 40  2  0  0  0
 40 41  1  0  0  0
 41 42  2  0  0  0
 42 35  1  0  0  0
 35  1  1  0  0  0
  1  2  1  0  0  0
  2  3  1  0  0  0
  3  4  1  0  0  0
  4  5  1  0  0  0
  5  6  1  0  0  0
  4  7  1  0  0  0
  7  8  1  0  0  0
  8  9  2  0  0  0
  8 10  1  0  0  0
 10 11  1  0  0  0
 11 12  2  0  0  0
 10 13  1  0  0  0
 13 14  2  0  0  0
 14 15  1  0  0  0
 15 16  2  0  0  0
 16 17  1  0  0  0
 17 18  2  0  0  0
 16 19  1  0  0  0
 19 20  2  0  0  0
 20 21  1  0  0  0
 21 22  2  0  0  0
 22 23  1  0  0  0
 23 24  2  0  0  0
 22 25  1  0  0  0
 25 26  1  0  0  0
 25 27  2  0  0  0
  7 29  1  0  0  0
 29 30  2  0  0  0
 30 31  1  0  0  0
 31 32  2  0  0  0
 32 33  1  0  0  0
 33 34  2  0  0  0
 42 37  1  0  0  0
  6  1  1  0  0  0
 18 13  1  0  0  0
 24 19  1  0  0  0
 34 29  1  0  0  0
 11  4  1  0  0  0
 26 28  1  0  0  0
M  END
> <minimizedAffinity>
16.18102

> <CNNscore>
0.4585121274

> <CNNaffinity>
7.5379819870

> <CNN_VS>
3.4562561512

> <CNNaffinity_variance>
0.8562036753

$$$$
[H]c1nc(OC([H])([H])[H])c([H])c(N2C(=O)N(c3c([H])c([H])c(-c4c([H])c([H])c5c([H])nn([H])c5c4[H])c([H])c3[H])C(=O)C23C([H])([H])C([H])([H])N(C([H])([H])c2nc([H])c([H])c([H])c2C([H])([H])[H])C([H])([H])C3([H])[H])n1


 44 50  0  0  0  0  0  0  0  0999 V2000
   14.9787   24.0199   -0.6388 N   0  0  0  0  0  0  0  0  0  0  0  0
   14.0696   23.9913    0.5176 C   0  0  0  0  0  0  0  0  0  0  0  0
   14.3259   24.2749    1.7055 O   0  0  0  0  0  0  0  0  0  0  0  0
   12.7680   23.5621    0.0683 N   0  0  0  0  0  0  0  0  0  0  0  0
   12.8965   23.3274   -1.2946 C   0  0  0  0  0  0  0  0  0  0  0  0
   12.1490   22.6014   -2.0061 O   0  0  0  0  0  0  0  0  0  0  0  0
   14.1207   24.1026   -1.7564 C   0  0  0  0  0  0  0  0  0  0  0  0
   14.5826   23.5592   -3.0393 C   0  0  0  0  0  0  0  0  0  0  0  0
   15.0736   24.6313   -4.0452 C   0  0  0  0  0  0  0  0  0  0  0  0
   14.0614   25.5587   -4.1202 N   0  0  0  0  0  0  0  0  0  0  0  0
   14.1128   26.3785   -2.8902 C   0  0  0  0  0  0  0  0  0  0  0  0
   13.5710   25.5288   -1.8139 C   0  0  0  0  0  0  0  0  0  0  0  0
   18.1655   24.2356    1.2281 C   0  0  0  0  0  0  0  0  0  0  0  0
   16.7902   24.0204    0.9860 C   0  0  0  0  0  0  0  0  0  0  0  0
   16.3325   24.0149   -0.2771 C   0  0  0  0  0  0  0  0  0  0  0  0
   17.2211   24.2129   -1.2999 N   0  0  0  0  0  0  0  0  0  0  0  0
   18.5174   24.4105   -1.0493 C   0  0  0  0  0  0  0  0  0  0  0  0
   18.9929   24.4225    0.1859 N   0  0  0  0  0  0  0  0  0  0  0  0
   19.9253   24.7769    2.7607 C   0  0  0  0  0  0  0  0  0  0  0  0
   18.6235   24.2479    2.5360 O   0  0  0  0  0  0  0  0  0  0  0  0
   11.6751   23.6128    1.0135 C   0  0  0  0  0  0  0  0  0  0  0  0
   11.3658   22.3889    1.6318 C   0  0  0  0  0  0  0  0  0  0  0  0
   10.2664   22.2429    2.3524 C   0  0  0  0  0  0  0  0  0  0  0  0
    9.3574   23.3109    2.5399 C   0  0  0  0  0  0  0  0  0  0  0  0
    9.6485   24.5017    1.9574 C   0  0  0  0  0  0  0  0  0  0  0  0
   10.8337   24.6467    1.1799 C   0  0  0  0  0  0  0  0  0  0  0  0
    8.1908   22.9513    3.3327 C   0  0  0  0  0  0  0  0  0  0  0  0
    7.6634   23.7765    4.2719 C   0  0  0  0  0  0  0  0  0  0  0  0
    6.6382   23.2975    5.0952 C   0  0  0  0  0  0  0  0  0  0  0  0
    6.1648   22.0014    4.9478 C   0  0  0  0  0  0  0  0  0  0  0  0
    5.2272   21.2188    5.6036 C   0  0  0  0  0  0  0  0  0  0  0  0
    5.2157   19.9775    5.0442 N   0  0  0  0  0  0  0  0  0  0  0  0
    6.1074   19.9548    4.0685 N   0  0  0  0  0  0  0  0  0  0  0  0
    6.6899   21.1554    3.9909 C   0  0  0  0  0  0  0  0  0  0  0  0
    7.6948   21.6545    3.2034 C   0  0  0  0  0  0  0  0  0  0  0  0
    6.3097   19.1328    3.4538 H   0  0  0  0  0  0  0  0  0  0  0  0
   13.6738   26.3466   -5.1742 C   0  0  0  0  0  0  0  0  0  0  0  0
   14.5068   26.4663   -6.3556 C   0  0  0  0  0  0  0  0  0  0  0  0
   14.3808   25.6359   -7.4002 N   0  0  0  0  0  0  0  0  0  0  0  0
   15.3549   25.5570   -8.3553 C   0  0  0  0  0  0  0  0  0  0  0  0
   16.4919   26.3136   -8.2921 C   0  0  0  0  0  0  0  0  0  0  0  0
   16.6573   27.1957   -7.2221 C   0  0  0  0  0  0  0  0  0  0  0  0
   15.6461   27.2302   -6.3005 C   0  0  0  0  0  0  0  0  0  0  0  0
   15.6473   28.2981   -5.2622 C   0  0  0  0  0  0  0  0  0  0  0  0
 19 20  1  0  0  0
 20 13  1  0  0  0
 13 14  2  0  0  0
 14 15  1  0  0  0
 15 16  2  0  0  0
 16 17  1  0  0  0
 17 18  2  0  0  0
 15  1  1  0  0  0
  1  2  1  0  0  0
  2  3  2  0  0  0
  2  4  1  0  0  0
  4  5  1  0  0  0
  5  6  2  0  0  0
  5  7  1  0  0  0
  7  8  1  0  0  0
  8  9  1  0  0  0
  9 10  1  0  0  0
 10 37  1  0  0  0
 37 38  1  0  0  0
 38 39  2  0  0  0
 39 40  1  0  0  0
 40 41  2  0  0  0
 41 42  1  0  0  0
 42 43  2  0  0  0
 43 44  1  0  0  0
 10 11  1  0  0  0
 11 12  1  0  0  0
  4 21  1  0  0  0
 21 22  2  0  0  0
 22 23  1  0  0  0
 23 24  2  0  0  0
 24 25  1  0  0  0
 25 26  2  0  0  0
 24 27  1  0  0  0
 27 28  2  0  0  0
 28 29  1  0  0  0
 29 30  2  0  0  0
 30 31  1  0  0  0
 31 32  2  0  0  0
 32 33  1  0  0  0
 33 34  1  0  0  0
 34 35  2  0  0  0
 18 13  1  0  0  0
  7  1  1  0  0  0
 12  7  1  0  0  0
 26 21  1  0  0  0
 35 27  1  0  0  0
 43 38  1  0  0  0
 34 30  1  0  0  0
 33 36  1  0  0  0
M  END
> <minimizedAffinity>
5.67657

> <CNNscore>
0.5301414728

> <CNNaffinity>
7.9969048500

> <CNN_VS>
4.2394909859

> <CNNaffinity_variance>
0.4894074798

$$$$
[H]c1nc(OC([H])([H])[H])c([H])c(N2C(=O)N(c3c([H])c([H])c(-c4c([H])c([H])c5c([H])nn([H])c5c4[H])c([H])c3[H])C(=O)C23C([H])([H])C([H])([H])N(C([H])([H])c2nc([H])c([H])c([H])c2C([H])([H])[H])C([H])([H])C3([H])[H])n1


 44 50  0  0  0  0  0  0  0  0999 V2000
   11.1536   23.0360    1.5164 N   0  0  0  0  0  0  0  0  0  0  0  0
   11.8036   23.3144    0.2263 C   0  0  0  0  0  0  0  0  0  0  0  0
   12.2745   22.4971   -0.5907 O   0  0  0  0  0  0  0  0  0  0  0  0
   11.8289   24.7421    0.0231 N   0  0  0  0  0  0  0  0  0  0  0  0
   11.2354   25.2953    1.1504 C   0  0  0  0  0  0  0  0  0  0  0  0
   11.3768   26.4763    1.5714 O   0  0  0  0  0  0  0  0  0  0  0  0
   10.3965   24.1966    1.7843 C   0  0  0  0  0  0  0  0  0  0  0  0
   10.1165   24.5464    3.1822 C   0  0  0  0  0  0  0  0  0  0  0  0
    8.6852   24.1856    3.6545 C   0  0  0  0  0  0  0  0  0  0  0  0
    7.8385   24.7353    2.7211 N   0  0  0  0  0  0  0  0  0  0  0  0
    7.8878   23.8823    1.5139 C   0  0  0  0  0  0  0  0  0  0  0  0
    9.1769   24.1774    0.8616 C   0  0  0  0  0  0  0  0  0  0  0  0
   12.7123   19.7573    2.2293 C   0  0  0  0  0  0  0  0  0  0  0  0
   12.6133   21.1247    1.8878 C   0  0  0  0  0  0  0  0  0  0  0  0
   11.4331   21.7547    2.0104 C   0  0  0  0  0  0  0  0  0  0  0  0
   10.3550   21.0485    2.4728 N   0  0  0  0  0  0  0  0  0  0  0  0
   10.4713   19.7578    2.7937 C   0  0  0  0  0  0  0  0  0  0  0  0
   11.6220   19.1139    2.6800 N   0  0  0  0  0  0  0  0  0  0  0  0
   14.9762   19.8440    1.4510 C   0  0  0  0  0  0  0  0  0  0  0  0
   13.9332   19.1167    2.0898 O   0  0  0  0  0  0  0  0  0  0  0  0
   12.2830   25.2355   -1.2578 C   0  0  0  0  0  0  0  0  0  0  0  0
   13.1694   24.3860   -1.9424 C   0  0  0  0  0  0  0  0  0  0  0  0
   13.8226   24.7978   -3.0162 C   0  0  0  0  0  0  0  0  0  0  0  0
   13.6541   26.1060   -3.5282 C   0  0  0  0  0  0  0  0  0  0  0  0
   12.7934   26.9339   -2.8835 C   0  0  0  0  0  0  0  0  0  0  0  0
   12.0979   26.4811   -1.7253 C   0  0  0  0  0  0  0  0  0  0  0  0
   14.4804   26.3872   -4.6932 C   0  0  0  0  0  0  0  0  0  0  0  0
   14.8092   27.6491   -5.0681 C   0  0  0  0  0  0  0  0  0  0  0  0
   15.4773   27.8422   -6.2825 C   0  0  0  0  0  0  0  0  0  0  0  0
   15.8038   26.7591   -7.0861 C   0  0  0  0  0  0  0  0  0  0  0  0
   16.3993   26.6031   -8.3281 C   0  0  0  0  0  0  0  0  0  0  0  0
   16.4163   25.2800   -8.6492 N   0  0  0  0  0  0  0  0  0  0  0  0
   15.8556   24.6065   -7.6595 N   0  0  0  0  0  0  0  0  0  0  0  0
   15.4797   25.4701   -6.7111 C   0  0  0  0  0  0  0  0  0  0  0  0
   14.8228   25.3160   -5.5178 C   0  0  0  0  0  0  0  0  0  0  0  0
   15.7398   23.5673   -7.6252 H   0  0  0  0  0  0  0  0  0  0  0  0
    6.5676   25.2281    2.8763 C   0  0  0  0  0  0  0  0  0  0  0  0
    6.3362   26.4698    3.5893 C   0  0  0  0  0  0  0  0  0  0  0  0
    6.5031   26.5687    4.9156 N   0  0  0  0  0  0  0  0  0  0  0  0
    5.9932   27.6296    5.6098 C   0  0  0  0  0  0  0  0  0  0  0  0
    5.2968   28.6305    4.9913 C   0  0  0  0  0  0  0  0  0  0  0  0
    5.1072   28.5667    3.6092 C   0  0  0  0  0  0  0  0  0  0  0  0
    5.6436   27.4812    2.9712 C   0  0  0  0  0  0  0  0  0  0  0  0
    5.6764   27.4581    1.4822 C   0  0  0  0  0  0  0  0  0  0  0  0
 19 20  1  0  0  0
 20 13  1  0  0  0
 13 14  2  0  0  0
 14 15  1  0  0  0
 15 16  2  0  0  0
 16 17  1  0  0  0
 17 18  2  0  0  0
 15  1  1  0  0  0
  1  2  1  0  0  0
  2  3  2  0  0  0
  2  4  1  0  0  0
  4  5  1  0  0  0
  5  6  2  0  0  0
  5  7  1  0  0  0
  7  8  1  0  0  0
  8  9  1  0  0  0
  9 10  1  0  0  0
 10 37  1  0  0  0
 37 38  1  0  0  0
 38 39  2  0  0  0
 39 40  1  0  0  0
 40 41  2  0  0  0
 41 42  1  0  0  0
 42 43  2  0  0  0
 43 44  1  0  0  0
 10 11  1  0  0  0
 11 12  1  0  0  0
  4 21  1  0  0  0
 21 22  2  0  0  0
 22 23  1  0  0  0
 23 24  2  0  0  0
 24 25  1  0  0  0
 25 26  2  0  0  0
 24 27  1  0  0  0
 27 28  2  0  0  0
 28 29  1  0  0  0
 29 30  2  0  0  0
 30 31  1  0  0  0
 31 32  2  0  0  0
 32 33  1  0  0  0
 33 34  1  0  0  0
 34 35  2  0  0  0
 18 13  1  0  0  0
  7  1  1  0  0  0
 12  7  1  0  0  0
 26 21  1  0  0  0
 35 27  1  0  0  0
 43 38  1  0  0  0
 34 30  1  0  0  0
 33 36  1  0  0  0
M  END
> <minimizedAffinity>
5.67049

> <CNNscore>
0.5175138116

> <CNNaffinity>
7.3477125168

> <CNN_VS>
3.8025426865

> <CNNaffinity_variance>
0.8313916922

$$$$
[H]c1nc(OC([H])([H])[H])c([H])c(N2C(=O)N(c3c([H])c([H])c(-c4c([H])c([H])c5c([H])nn([H])c5c4[H])c([H])c3[H])C(=O)C23C([H])([H])C([H])([H])N(C([H])([H])c2nc([H])c([H])c([H])c2C([H])([H])[H])C([H])([H])C3([H])[H])n1


 44 50  0  0  0  0  0  0  0  0999 V2000
   12.4112   22.3888    0.5429 N   0  0  0  0  0  0  0  0  0  0  0  0
   13.2850   22.9977   -0.4720 C   0  0  0  0  0  0  0  0  0  0  0  0
   14.2200   22.4641   -1.1031 O   0  0  0  0  0  0  0  0  0  0  0  0
   12.8961   24.3757   -0.6462 N   0  0  0  0  0  0  0  0  0  0  0  0
   11.8464   24.5873    0.2383 C   0  0  0  0  0  0  0  0  0  0  0  0
   11.4574   25.6990    0.6909 O   0  0  0  0  0  0  0  0  0  0  0  0
   11.2697   23.2185    0.5650 C   0  0  0  0  0  0  0  0  0  0  0  0
   10.4875   23.3057    1.8040 C   0  0  0  0  0  0  0  0  0  0  0  0
    9.1842   22.4670    1.7947 C   0  0  0  0  0  0  0  0  0  0  0  0
    8.5218   22.8263    0.6449 N   0  0  0  0  0  0  0  0  0  0  0  0
    9.2070   22.1712   -0.4904 C   0  0  0  0  0  0  0  0  0  0  0  0
   10.4580   22.9236   -0.6974 C   0  0  0  0  0  0  0  0  0  0  0  0
   14.5132   19.4345    1.2785 C   0  0  0  0  0  0  0  0  0  0  0  0
   14.1709   20.7360    0.8479 C   0  0  0  0  0  0  0  0  0  0  0  0
   12.9381   21.2115    1.0907 C   0  0  0  0  0  0  0  0  0  0  0  0
   12.0460   20.4167    1.7595 N   0  0  0  0  0  0  0  0  0  0  0  0
   12.3914   19.1912    2.1612 C   0  0  0  0  0  0  0  0  0  0  0  0
   13.5985   18.6988    1.9324 N   0  0  0  0  0  0  0  0  0  0  0  0
   16.5638   19.6688    0.0623 C   0  0  0  0  0  0  0  0  0  0  0  0
   15.7852   18.9523    1.0139 O   0  0  0  0  0  0  0  0  0  0  0  0
   13.5207   25.1254   -1.7130 C   0  0  0  0  0  0  0  0  0  0  0  0
   12.8360   25.0970   -2.9403 C   0  0  0  0  0  0  0  0  0  0  0  0
   13.3932   25.5587   -4.0475 C   0  0  0  0  0  0  0  0  0  0  0  0
   14.6973   26.1077   -4.0462 C   0  0  0  0  0  0  0  0  0  0  0  0
   15.3664   26.1511   -2.8661 C   0  0  0  0  0  0  0  0  0  0  0  0
   14.7581   25.6474   -1.6802 C   0  0  0  0  0  0  0  0  0  0  0  0
   15.1530   26.5313   -5.3621 C   0  0  0  0  0  0  0  0  0  0  0  0
   15.3818   25.6553   -6.3728 C   0  0  0  0  0  0  0  0  0  0  0  0
   15.9627   26.1241   -7.5565 C   0  0  0  0  0  0  0  0  0  0  0  0
   16.2927   27.4648   -7.6957 C   0  0  0  0  0  0  0  0  0  0  0  0
   16.9034   28.2281   -8.6786 C   0  0  0  0  0  0  0  0  0  0  0  0
   17.0123   29.5123   -8.2397 N   0  0  0  0  0  0  0  0  0  0  0  0
   16.4958   29.5799   -7.0247 N   0  0  0  0  0  0  0  0  0  0  0  0
   16.0582   28.3660   -6.6759 C   0  0  0  0  0  0  0  0  0  0  0  0
   15.4913   27.8738   -5.5290 C   0  0  0  0  0  0  0  0  0  0  0  0
   16.4318   30.4469   -6.4426 H   0  0  0  0  0  0  0  0  0  0  0  0
    7.1744   22.8784    0.3920 C   0  0  0  0  0  0  0  0  0  0  0  0
    6.2979   21.8052    0.8206 C   0  0  0  0  0  0  0  0  0  0  0  0
    5.5544   21.8967    1.9322 N   0  0  0  0  0  0  0  0  0  0  0  0
    4.9831   20.7865    2.4876 C   0  0  0  0  0  0  0  0  0  0  0  0
    5.1401   19.5430    1.9414 C   0  0  0  0  0  0  0  0  0  0  0  0
    5.9025   19.4073    0.7793 C   0  0  0  0  0  0  0  0  0  0  0  0
    6.4459   20.5559    0.2709 C   0  0  0  0  0  0  0  0  0  0  0  0
    7.0780   20.5243   -1.0774 C   0  0  0  0  0  0  0  0  0  0  0  0
 19 20  1  0  0  0
 20 13  1  0  0  0
 13 14  2  0  0  0
 14 15  1  0  0  0
 15 16  2  0  0  0
 16 17  1  0  0  0
 17 18  2  0  0  0
 15  1  1  0  0  0
  1  2  1  0  0  0
  2  3  2  0  0  0
  2  4  1  0  0  0
  4  5  1  0  0  0
  5  6  2  0  0  0
  5  7  1  0  0  0
  7  8  1  0  0  0
  8  9  1  0  0  0
  9 10  1  0  0  0
 10 37  1  0  0  0
 37 38  1  0  0  0
 38 39  2  0  0  0
 39 40  1  0  0  0
 40 41  2  0  0  0
 41 42  1  0  0  0
 42 43  2  0  0  0
 43 44  1  0  0  0
 10 11  1  0  0  0
 11 12  1  0  0  0
  4 21  1  0  0  0
 21 22  2  0  0  0
 22 23  1  0  0  0
 23 24  2  0  0  0
 24 25  1  0  0  0
 25 26  2  0  0  0
 24 27  1  0  0  0
 27 28  2  0  0  0
 28 29  1  0  0  0
 29 30  2  0  0  0
 30 31  1  0  0  0
 31 32  2  0  0  0
 32 33  1  0  0  0
 33 34  1  0  0  0
 34 35  2  0  0  0
 18 13  1  0  0  0
  7  1  1  0  0  0
 12  7  1  0  0  0
 26 21  1  0  0  0
 35 27  1  0  0  0
 43 38  1  0  0  0
 34 30  1  0  0  0
 33 36  1  0  0  0
M  END
> <minimizedAffinity>
18.42794

> <CNNscore>
0.5062353015

> <CNNaffinity>
7.6598372459

> <CNN_VS>
3.8776800632

> <CNNaffinity_variance>
0.7070733905

$$$$
[H]c1nc(OC([H])([H])[H])c([H])c(N2C(=O)N(c3c([H])c([H])c(-c4c([H])c([H])c5c([H])nn([H])c5c4[H])c([H])c3[H])C(=O)C23C([H])([H])C([H])([H])N(C([H])([H])c2nc([H])c([H])c([H])c2C([H])([H])[H])C([H])([H])C3([H])[H])n1


 44 50  0  0  0  0  0  0  0  0999 V2000
   15.1637   23.3653   -1.0310 N   0  0  0  0  0  0  0  0  0  0  0  0
   13.9500   23.0003   -0.2840 C   0  0  0  0  0  0  0  0  0  0  0  0
   13.6232   23.3455    0.8698 O   0  0  0  0  0  0  0  0  0  0  0  0
   13.1439   22.1362   -1.1110 N   0  0  0  0  0  0  0  0  0  0  0  0
   13.8524   21.9768   -2.2949 C   0  0  0  0  0  0  0  0  0  0  0  0
   13.7232   21.0376   -3.1275 O   0  0  0  0  0  0  0  0  0  0  0  0
   14.8222   23.1449   -2.3826 C   0  0  0  0  0  0  0  0  0  0  0  0
   15.8912   22.8166   -3.3335 C   0  0  0  0  0  0  0  0  0  0  0  0
   16.3368   24.0033   -4.2252 C   0  0  0  0  0  0  0  0  0  0  0  0
   15.1818   24.5054   -4.7765 N   0  0  0  0  0  0  0  0  0  0  0  0
   14.4823   25.2768   -3.7262 C   0  0  0  0  0  0  0  0  0  0  0  0
   13.8913   24.2785   -2.8160 C   0  0  0  0  0  0  0  0  0  0  0  0
   18.4632   24.2425    0.3943 C   0  0  0  0  0  0  0  0  0  0  0  0
   17.4807   23.9568   -0.5801 C   0  0  0  0  0  0  0  0  0  0  0  0
   16.1940   23.8440   -0.2105 C   0  0  0  0  0  0  0  0  0  0  0  0
   15.8705   24.0174    1.1086 N   0  0  0  0  0  0  0  0  0  0  0  0
   16.8141   24.2907    2.0126 C   0  0  0  0  0  0  0  0  0  0  0  0
   18.0887   24.4049    1.6746 N   0  0  0  0  0  0  0  0  0  0  0  0
   20.0389   24.5274   -1.3874 C   0  0  0  0  0  0  0  0  0  0  0  0
   19.7881   24.3474    0.0017 O   0  0  0  0  0  0  0  0  0  0  0  0
   11.8255   21.7812   -0.6352 C   0  0  0  0  0  0  0  0  0  0  0  0
   11.5914   20.4013   -0.5055 C   0  0  0  0  0  0  0  0  0  0  0  0
   10.3756   19.9296   -0.2848 C   0  0  0  0  0  0  0  0  0  0  0  0
    9.2591   20.7901   -0.1621 C   0  0  0  0  0  0  0  0  0  0  0  0
    9.4720   22.1258   -0.2748 C   0  0  0  0  0  0  0  0  0  0  0  0
   10.7853   22.6228   -0.5163 C   0  0  0  0  0  0  0  0  0  0  0  0
    8.0012   20.0875    0.0444 C   0  0  0  0  0  0  0  0  0  0  0  0
    7.1175   20.4407    1.0117 C   0  0  0  0  0  0  0  0  0  0  0  0
    6.0057   19.6233    1.2442 C   0  0  0  0  0  0  0  0  0  0  0  0
    5.8077   18.4739    0.4923 C   0  0  0  0  0  0  0  0  0  0  0  0
    4.8732   17.4500    0.4927 C   0  0  0  0  0  0  0  0  0  0  0  0
    5.2134   16.5380   -0.4593 N   0  0  0  0  0  0  0  0  0  0  0  0
    6.3208   16.9512   -1.0515 N   0  0  0  0  0  0  0  0  0  0  0  0
    6.6973   18.1085   -0.4989 C   0  0  0  0  0  0  0  0  0  0  0  0
    7.7771   18.9290   -0.6987 C   0  0  0  0  0  0  0  0  0  0  0  0
    6.8097   16.4551   -1.8321 H   0  0  0  0  0  0  0  0  0  0  0  0
   14.9844   25.1115   -5.9913 C   0  0  0  0  0  0  0  0  0  0  0  0
   15.3013   26.5143   -6.1798 C   0  0  0  0  0  0  0  0  0  0  0  0
   16.2551   26.9186   -7.0304 N   0  0  0  0  0  0  0  0  0  0  0  0
   16.7534   28.1898   -6.9731 C   0  0  0  0  0  0  0  0  0  0  0  0
   16.3070   29.1003   -6.0561 C   0  0  0  0  0  0  0  0  0  0  0  0
   15.3091   28.7190   -5.1566 C   0  0  0  0  0  0  0  0  0  0  0  0
   14.8501   27.4344   -5.2662 C   0  0  0  0  0  0  0  0  0  0  0  0
   13.6406   27.0282   -4.4976 C   0  0  0  0  0  0  0  0  0  0  0  0
 19 20  1  0  0  0
 20 13  1  0  0  0
 13 14  2  0  0  0
 14 15  1  0  0  0
 15 16  2  0  0  0
 16 17  1  0  0  0
 17 18  2  0  0  0
 15  1  1  0  0  0
  1  2  1  0  0  0
  2  3  2  0  0  0
  2  4  1  0  0  0
  4  5  1  0  0  0
  5  6  2  0  0  0
  5  7  1  0  0  0
  7  8  1  0  0  0
  8  9  1  0  0  0
  9 10  1  0  0  0
 10 37  1  0  0  0
 37 38  1  0  0  0
 38 39  2  0  0  0
 39 40  1  0  0  0
 40 41  2  0  0  0
 41 42  1  0  0  0
 42 43  2  0  0  0
 43 44  1  0  0  0
 10 11  1  0  0  0
 11 12  1  0  0  0
  4 21  1  0  0  0
 21 22  2  0  0  0
 22 23  1  0  0  0
 23 24  2  0  0  0
 24 25  1  0  0  0
 25 26  2  0  0  0
 24 27  1  0  0  0
 27 28  2  0  0  0
 28 29  1  0  0  0
 29 30  2  0  0  0
 30 31  1  0  0  0
 31 32  2  0  0  0
 32 33  1  0  0  0
 33 34  1  0  0  0
 34 35  2  0  0  0
 18 13  1  0  0  0
  7  1  1  0  0  0
 12  7  1  0  0  0
 26 21  1  0  0  0
 35 27  1  0  0  0
 43 38  1  0  0  0
 34 30  1  0  0  0
 33 36  1  0  0  0
M  END
> <minimizedAffinity>
12.60608

> <CNNscore>
0.4863927960

> <CNNaffinity>
7.9559774399

> <CNN_VS>
3.8697299957

> <CNNaffinity_variance>
0.3145420253

$$$$
[H]c1nc(OC([H])([H])[H])c([H])c(N2C(=O)N(c3c([H])c([H])c(-c4c([H])c([H])c5c([H])nn([H])c5c4[H])c([H])c3[H])C(=O)C23C([H])([H])C([H])([H])N(C([H])([H])c2nc([H])c([H])c([H])c2C([H])([H])[H])C([H])([H])C3([H])[H])n1


 44 50  0  0  0  0  0  0  0  0999 V2000
   15.1967   23.6184   -0.6254 N   0  0  0  0  0  0  0  0  0  0  0  0
   14.2209   23.7185    0.4712 C   0  0  0  0  0  0  0  0  0  0  0  0
   14.3887   24.2023    1.6091 O   0  0  0  0  0  0  0  0  0  0  0  0
   12.9734   23.1448    0.0298 N   0  0  0  0  0  0  0  0  0  0  0  0
   13.1975   22.7048   -1.2683 C   0  0  0  0  0  0  0  0  0  0  0  0
   12.5337   21.8307   -1.8908 O   0  0  0  0  0  0  0  0  0  0  0  0
   14.4059   23.4700   -1.7849 C   0  0  0  0  0  0  0  0  0  0  0  0
   14.9734   22.7589   -2.9368 C   0  0  0  0  0  0  0  0  0  0  0  0
   15.4691   23.6854   -4.0761 C   0  0  0  0  0  0  0  0  0  0  0  0
   14.4168   24.5256   -4.3533 N   0  0  0  0  0  0  0  0  0  0  0  0
   14.3499   25.5321   -3.2716 C   0  0  0  0  0  0  0  0  0  0  0  0
   13.7877   24.8327   -2.1016 C   0  0  0  0  0  0  0  0  0  0  0  0
   18.2495   24.1107    1.4058 C   0  0  0  0  0  0  0  0  0  0  0  0
   16.9217   23.7486    1.0860 C   0  0  0  0  0  0  0  0  0  0  0  0
   16.5242   23.7536   -0.1972 C   0  0  0  0  0  0  0  0  0  0  0  0
   17.4271   24.1057   -1.1645 N   0  0  0  0  0  0  0  0  0  0  0  0
   18.6783   24.4406   -0.8410 C   0  0  0  0  0  0  0  0  0  0  0  0
   19.0939   24.4457    0.4156 N   0  0  0  0  0  0  0  0  0  0  0  0
   19.8712   24.7615    3.0445 C   0  0  0  0  0  0  0  0  0  0  0  0
   18.6446   24.1103    2.7341 O   0  0  0  0  0  0  0  0  0  0  0  0
   11.8233   23.2783    0.8958 C   0  0  0  0  0  0  0  0  0  0  0  0
   11.1622   24.5165    0.8204 C   0  0  0  0  0  0  0  0  0  0  0  0
   10.2317   24.8519    1.6986 C   0  0  0  0  0  0  0  0  0  0  0  0
    9.8548   23.9795    2.7468 C   0  0  0  0  0  0  0  0  0  0  0  0
   10.4775   22.7761    2.8257 C   0  0  0  0  0  0  0  0  0  0  0  0
   11.4811   22.4266    1.8767 C   0  0  0  0  0  0  0  0  0  0  0  0
    8.8413   24.5348    3.6317 C   0  0  0  0  0  0  0  0  0  0  0  0
    8.6202   24.0545    4.8813 C   0  0  0  0  0  0  0  0  0  0  0  0
    7.5288   24.5406    5.6102 C   0  0  0  0  0  0  0  0  0  0  0  0
    6.6911   25.5033    5.0652 C   0  0  0  0  0  0  0  0  0  0  0  0
    5.5339   26.1447    5.4786 C   0  0  0  0  0  0  0  0  0  0  0  0
    5.1103   26.9780    4.4887 N   0  0  0  0  0  0  0  0  0  0  0  0
    5.9550   26.8814    3.4764 N   0  0  0  0  0  0  0  0  0  0  0  0
    6.9108   26.0037    3.7968 C   0  0  0  0  0  0  0  0  0  0  0  0
    7.9860   25.5042    3.1087 C   0  0  0  0  0  0  0  0  0  0  0  0
    5.8874   27.4163    2.5799 H   0  0  0  0  0  0  0  0  0  0  0  0
   14.0545   25.1109   -5.5400 C   0  0  0  0  0  0  0  0  0  0  0  0
   14.7359   26.2982   -6.0192 C   0  0  0  0  0  0  0  0  0  0  0  0
   15.6893   26.2388   -6.9595 N   0  0  0  0  0  0  0  0  0  0  0  0
   16.5279   27.2958   -7.1763 C   0  0  0  0  0  0  0  0  0  0  0  0
   16.4350   28.4521   -6.4528 C   0  0  0  0  0  0  0  0  0  0  0  0
   15.4501   28.5552   -5.4680 C   0  0  0  0  0  0  0  0  0  0  0  0
   14.6408   27.4643   -5.3009 C   0  0  0  0  0  0  0  0  0  0  0  0
   13.4355   27.5814   -4.4336 C   0  0  0  0  0  0  0  0  0  0  0  0
 19 20  1  0  0  0
 20 13  1  0  0  0
 13 14  2  0  0  0
 14 15  1  0  0  0
 15 16  2  0  0  0
 16 17  1  0  0  0
 17 18  2  0  0  0
 15  1  1  0  0  0
  1  2  1  0  0  0
  2  3  2  0  0  0
  2  4  1  0  0  0
  4  5  1  0  0  0
  5  6  2  0  0  0
  5  7  1  0  0  0
  7  8  1  0  0  0
  8  9  1  0  0  0
  9 10  1  0  0  0
 10 37  1  0  0  0
 37 38  1  0  0  0
 38 39  2  0  0  0
 39 40  1  0  0  0
 40 41  2  0  0  0
 41 42  1  0  0  0
 42 43  2  0  0  0
 43 44  1  0  0  0
 10 11  1  0  0  0
 11 12  1  0  0  0
  4 21  1  0  0  0
 21 22  2  0  0  0
 22 23  1  0  0  0
 23 24  2  0  0  0
 24 25  1  0  0  0
 25 26  2  0  0  0
 24 27  1  0  0  0
 27 28  2  0  0  0
 28 29  1  0  0  0
 29 30  2  0  0  0
 30 31  1  0  0  0
 31 32  2  0  0  0
 32 33  1  0  0  0
 33 34  1  0  0  0
 34 35  2  0  0  0
 18 13  1  0  0  0
  7  1  1  0  0  0
 12  7  1  0  0  0
 26 21  1  0  0  0
 35 27  1  0  0  0
 43 38  1  0  0  0
 34 30  1  0  0  0
 33 36  1  0  0  0
M  END
> <minimizedAffinity>
7.58312

> <CNNscore>
0.4693788290

> <CNNaffinity>
7.9084372520

> <CNN_VS>
3.7120530605

> <CNNaffinity_variance>
0.3969121873

$$$$
[H]c1nc(OC([H])([H])[H])c([H])c(N2C(=O)N(c3c([H])c([H])c(-c4c([H])c([H])c5c([H])nn([H])c5c4[H])c([H])c3[H])C(=O)C23C([H])([H])C([H])([H])N(C([H])([H])c2nc([H])c([H])c([H])c2C([H])([H])[H])C([H])([H])C3([H])[H])n1


 44 50  0  0  0  0  0  0  0  0999 V2000
   15.5233   24.1861   -0.4304 N   0  0  0  0  0  0  0  0  0  0  0  0
   15.1075   25.0619   -1.5370 C   0  0  0  0  0  0  0  0  0  0  0  0
   15.7538   25.3707   -2.5589 O   0  0  0  0  0  0  0  0  0  0  0  0
   13.7771   25.5474   -1.2638 N   0  0  0  0  0  0  0  0  0  0  0  0
   13.4187   24.9998   -0.0387 C   0  0  0  0  0  0  0  0  0  0  0  0
   12.5326   25.4335    0.7480 O   0  0  0  0  0  0  0  0  0  0  0  0
   14.3120   23.7877    0.1745 C   0  0  0  0  0  0  0  0  0  0  0  0
   14.3198   23.4365    1.5997 C   0  0  0  0  0  0  0  0  0  0  0  0
   14.3077   21.9123    1.8801 C   0  0  0  0  0  0  0  0  0  0  0  0
   13.2578   21.4103    1.1481 N   0  0  0  0  0  0  0  0  0  0  0  0
   13.6804   21.3648   -0.2686 C   0  0  0  0  0  0  0  0  0  0  0  0
   13.6509   22.7598   -0.7452 C   0  0  0  0  0  0  0  0  0  0  0  0
   19.0345   23.9147    0.7035 C   0  0  0  0  0  0  0  0  0  0  0  0
   17.6230   23.8886    0.7630 C   0  0  0  0  0  0  0  0  0  0  0  0
   16.9099   23.9921   -0.3708 C   0  0  0  0  0  0  0  0  0  0  0  0
   17.5781   24.1138   -1.5597 N   0  0  0  0  0  0  0  0  0  0  0  0
   18.9125   24.1323   -1.5940 C   0  0  0  0  0  0  0  0  0  0  0  0
   19.6378   24.0342   -0.4912 N   0  0  0  0  0  0  0  0  0  0  0  0
   19.8122   24.9742    2.7063 C   0  0  0  0  0  0  0  0  0  0  0  0
   19.7584   23.8162    1.8811 O   0  0  0  0  0  0  0  0  0  0  0  0
   13.1066   26.3025   -2.2985 C   0  0  0  0  0  0  0  0  0  0  0  0
   11.9923   27.0430   -1.8673 C   0  0  0  0  0  0  0  0  0  0  0  0
   11.1666   27.6068   -2.7332 C   0  0  0  0  0  0  0  0  0  0  0  0
   11.3704   27.4972   -4.1291 C   0  0  0  0  0  0  0  0  0  0  0  0
   12.4484   26.7939   -4.5597 C   0  0  0  0  0  0  0  0  0  0  0  0
   13.3292   26.1874   -3.6182 C   0  0  0  0  0  0  0  0  0  0  0  0
   10.3411   28.1534   -4.9220 C   0  0  0  0  0  0  0  0  0  0  0  0
   10.4059   29.4656   -5.2611 C   0  0  0  0  0  0  0  0  0  0  0  0
    9.3059   30.0567   -5.8929 C   0  0  0  0  0  0  0  0  0  0  0  0
    8.1705   29.3100   -6.1736 C   0  0  0  0  0  0  0  0  0  0  0  0
    6.9285   29.5827   -6.7257 C   0  0  0  0  0  0  0  0  0  0  0  0
    6.1763   28.4479   -6.7085 N   0  0  0  0  0  0  0  0  0  0  0  0
    6.8978   27.4810   -6.1681 N   0  0  0  0  0  0  0  0  0  0  0  0
    8.0965   27.9722   -5.8388 C   0  0  0  0  0  0  0  0  0  0  0  0
    9.1895   27.4250   -5.2183 C   0  0  0  0  0  0  0  0  0  0  0  0
    6.5809   26.4929   -6.0349 H   0  0  0  0  0  0  0  0  0  0  0  0
   12.4405   20.3404    1.4118 C   0  0  0  0  0  0  0  0  0  0  0  0
   11.4388   20.4133    2.4581 C   0  0  0  0  0  0  0  0  0  0  0  0
   11.5988   19.7982    3.6383 N   0  0  0  0  0  0  0  0  0  0  0  0
   10.5402   19.6133    4.4825 C   0  0  0  0  0  0  0  0  0  0  0  0
    9.2811   20.0430    4.1674 C   0  0  0  0  0  0  0  0  0  0  0  0
    9.0749   20.6941    2.9492 C   0  0  0  0  0  0  0  0  0  0  0  0
   10.1745   20.8505    2.1495 C   0  0  0  0  0  0  0  0  0  0  0  0
   10.0789   21.7253    0.9478 C   0  0  0  0  0  0  0  0  0  0  0  0
 19 20  1  0  0  0
 20 13  1  0  0  0
 13 14  2  0  0  0
 14 15  1  0  0  0
 15 16  2  0  0  0
 16 17  1  0  0  0
 17 18  2  0  0  0
 15  1  1  0  0  0
  1  2  1  0  0  0
  2  3  2  0  0  0
  2  4  1  0  0  0
  4  5  1  0  0  0
  5  6  2  0  0  0
  5  7  1  0  0  0
  7  8  1  0  0  0
  8  9  1  0  0  0
  9 10  1  0  0  0
 10 37  1  0  0  0
 37 38  1  0  0  0
 38 39  2  0  0  0
 39 40  1  0  0  0
 40 41  2  0  0  0
 41 42  1  0  0  0
 42 43  2  0  0  0
 43 44  1  0  0  0
 10 11  1  0  0  0
 11 12  1  0  0  0
  4 21  1  0  0  0
 21 22  2  0  0  0
 22 23  1  0  0  0
 23 24  2  0  0  0
 24 25  1  0  0  0
 25 26  2  0  0  0
 24 27  1  0  0  0
 27 28  2  0  0  0
 28 29  1  0  0  0
 29 30  2  0  0  0
 30 31  1  0  0  0
 31 32  2  0  0  0
 32 33  1  0  0  0
 33 34  1  0  0  0
 34 35  2  0  0  0
 18 13  1  0  0  0
  7  1  1  0  0  0
 12  7  1  0  0  0
 26 21  1  0  0  0
 35 27  1  0  0  0
 43 38  1  0  0  0
 34 30  1  0  0  0
 33 36  1  0  0  0
M  END
> <minimizedAffinity>
44.80667

> <CNNscore>
0.4193170071

> <CNNaffinity>
7.3284659386

> <CNN_VS>
3.0729503632

> <CNNaffinity_variance>
1.0914170742

$$$$
[H]c1nc(OC([H])([H])[H])c([H])c(N2C(=O)N(c3c([H])c([H])c(-c4c([H])c([H])c5c([H])nn([H])c5c4[H])c([H])c3[H])C(=O)C23C([H])([H])C([H])([H])N(C([H])([H])c2nc([H])c([H])c([H])c2C([H])([H])[H])C([H])([H])C3([H])[H])n1


 44 50  0  0  0  0  0  0  0  0999 V2000
   16.0463   23.2033   -0.4158 N   0  0  0  0  0  0  0  0  0  0  0  0
   15.1271   22.7035    0.6185 C   0  0  0  0  0  0  0  0  0  0  0  0
   15.2250   22.8204    1.8570 O   0  0  0  0  0  0  0  0  0  0  0  0
   14.0366   22.0166   -0.0290 N   0  0  0  0  0  0  0  0  0  0  0  0
   14.3004   22.0870   -1.3909 C   0  0  0  0  0  0  0  0  0  0  0  0
   13.8401   21.3261   -2.2860 O   0  0  0  0  0  0  0  0  0  0  0  0
   15.2623   23.2482   -1.5885 C   0  0  0  0  0  0  0  0  0  0  0  0
   15.9313   23.1073   -2.8874 C   0  0  0  0  0  0  0  0  0  0  0  0
   16.1347   24.4428   -3.6472 C   0  0  0  0  0  0  0  0  0  0  0  0
   14.8986   25.0439   -3.6752 N   0  0  0  0  0  0  0  0  0  0  0  0
   14.6400   25.5997   -2.3292 C   0  0  0  0  0  0  0  0  0  0  0  0
   14.3185   24.4459   -1.4693 C   0  0  0  0  0  0  0  0  0  0  0  0
   18.8617   24.4337    1.6451 C   0  0  0  0  0  0  0  0  0  0  0  0
   17.5745   23.9461    1.3262 C   0  0  0  0  0  0  0  0  0  0  0  0
   17.3198   23.5129    0.0803 C   0  0  0  0  0  0  0  0  0  0  0  0
   18.3255   23.5510   -0.8481 N   0  0  0  0  0  0  0  0  0  0  0  0
   19.5360   24.0119   -0.5247 C   0  0  0  0  0  0  0  0  0  0  0  0
   19.8117   24.4463    0.6948 N   0  0  0  0  0  0  0  0  0  0  0  0
   19.7893   23.9973    3.8103 C   0  0  0  0  0  0  0  0  0  0  0  0
   19.1090   24.8860    2.9315 O   0  0  0  0  0  0  0  0  0  0  0  0
   12.9297   21.5791    0.7918 C   0  0  0  0  0  0  0  0  0  0  0  0
   11.8556   22.4822    0.8728 C   0  0  0  0  0  0  0  0  0  0  0  0
   10.8779   22.3088    1.7465 C   0  0  0  0  0  0  0  0  0  0  0  0
   10.8643   21.2054    2.6322 C   0  0  0  0  0  0  0  0  0  0  0  0
   11.8898   20.3194    2.5580 C   0  0  0  0  0  0  0  0  0  0  0  0
   12.9398   20.5181    1.6157 C   0  0  0  0  0  0  0  0  0  0  0  0
    9.7279   21.2017    3.5418 C   0  0  0  0  0  0  0  0  0  0  0  0
    9.8014   20.7002    4.8004 C   0  0  0  0  0  0  0  0  0  0  0  0
    8.6286   20.5946    5.5567 C   0  0  0  0  0  0  0  0  0  0  0  0
    7.4119   21.0032    5.0293 C   0  0  0  0  0  0  0  0  0  0  0  0
    6.0980   20.9934    5.4712 C   0  0  0  0  0  0  0  0  0  0  0  0
    5.2953   21.4864    4.4881 N   0  0  0  0  0  0  0  0  0  0  0  0
    6.0546   21.8017    3.4528 N   0  0  0  0  0  0  0  0  0  0  0  0
    7.3267   21.5211    3.7519 C   0  0  0  0  0  0  0  0  0  0  0  0
    8.4931   21.6078    3.0368 C   0  0  0  0  0  0  0  0  0  0  0  0
    5.7110   22.2144    2.5549 H   0  0  0  0  0  0  0  0  0  0  0  0
   14.3509   25.8732   -4.6209 C   0  0  0  0  0  0  0  0  0  0  0  0
   15.1444   26.9180   -5.2393 C   0  0  0  0  0  0  0  0  0  0  0  0
   15.2550   28.1396   -4.6988 N   0  0  0  0  0  0  0  0  0  0  0  0
   15.7356   29.1895   -5.4297 C   0  0  0  0  0  0  0  0  0  0  0  0
   16.1233   29.0454   -6.7328 C   0  0  0  0  0  0  0  0  0  0  0  0
   16.0292   27.7864   -7.3300 C   0  0  0  0  0  0  0  0  0  0  0  0
   15.5426   26.7761   -6.5455 C   0  0  0  0  0  0  0  0  0  0  0  0
   15.6234   25.3726   -7.0377 C   0  0  0  0  0  0  0  0  0  0  0  0
 19 20  1  0  0  0
 20 13  1  0  0  0
 13 14  2  0  0  0
 14 15  1  0  0  0
 15 16  2  0  0  0
 16 17  1  0  0  0
 17 18  2  0  0  0
 15  1  1  0  0  0
  1  2  1  0  0  0
  2  3  2  0  0  0
  2  4  1  0  0  0
  4  5  1  0  0  0
  5  6  2  0  0  0
  5  7  1  0  0  0
  7  8  1  0  0  0
  8  9  1  0  0  0
  9 10  1  0  0  0
 10 37  1  0  0  0
 37 38  1  0  0  0
 38 39  2  0  0  0
 39 40  1  0  0  0
 40 41  2  0  0  0
 41 42  1  0  0  0
 42 43  2  0  0  0
 43 44  1  0  0  0
 10 11  1  0  0  0
 11 12  1  0  0  0
  4 21  1  0  0  0
 21 22  2  0  0  0
 22 23  1  0  0  0
 23 24  2  0  0  0
 24 25  1  0  0  0
 25 26  2  0  0  0
 24 27  1  0  0  0
 27 28  2  0  0  0
 28 29  1  0  0  0
 29 30  2  0  0  0
 30 31  1  0  0  0
 31 32  2  0  0  0
 32 33  1  0  0  0
 33 34  1  0  0  0
 34 35  2  0  0  0
 18 13  1  0  0  0
  7  1  1  0  0  0
 12  7  1  0  0  0
 26 21  1  0  0  0
 35 27  1  0  0  0
 43 38  1  0  0  0
 34 30  1  0  0  0
 33 36  1  0  0  0
M  END
> <minimizedAffinity>
13.96003

> <CNNscore>
0.4051105678

> <CNNaffinity>
7.8329186440

> <CNN_VS>
3.1731982231

> <CNNaffinity_variance>
0.2990227342

$$$$
[H]c1nc(OC([H])([H])[H])c([H])c(N2C(=O)N(c3c([H])c([H])c(-c4c([H])c([H])c5c([H])nn([H])c5c4[H])c([H])c3[H])C(=O)C23C([H])([H])C([H])([H])N(C([H])([H])c2nc([H])c([H])c([H])c2C([H])([H])[H])C([H])([H])C3([H])[H])n1


 44 50  0  0  0  0  0  0  0  0999 V2000
   10.8491   21.3437   -0.7746 N   0  0  0  0  0  0  0  0  0  0  0  0
    9.9655   21.8520    0.2862 C   0  0  0  0  0  0  0  0  0  0  0  0
    9.4823   21.2257    1.2514 O   0  0  0  0  0  0  0  0  0  0  0  0
    9.7146   23.2515    0.0440 N   0  0  0  0  0  0  0  0  0  0  0  0
   10.4041   23.5635   -1.1207 C   0  0  0  0  0  0  0  0  0  0  0  0
   10.1750   24.5351   -1.8923 O   0  0  0  0  0  0  0  0  0  0  0  0
   11.4759   22.4981   -1.2907 C   0  0  0  0  0  0  0  0  0  0  0  0
   11.9306   22.4870   -2.6864 C   0  0  0  0  0  0  0  0  0  0  0  0
   13.4554   22.2682   -2.8576 C   0  0  0  0  0  0  0  0  0  0  0  0
   14.0560   23.1980   -2.0422 N   0  0  0  0  0  0  0  0  0  0  0  0
   13.9259   22.7219   -0.6479 C   0  0  0  0  0  0  0  0  0  0  0  0
   12.5197   22.9542   -0.2700 C   0  0  0  0  0  0  0  0  0  0  0  0
    9.8054   17.7967   -0.9037 C   0  0  0  0  0  0  0  0  0  0  0  0
    9.7196   19.2023   -1.0194 C   0  0  0  0  0  0  0  0  0  0  0  0
   10.8299   19.9470   -0.8873 C   0  0  0  0  0  0  0  0  0  0  0  0
   12.0214   19.3157   -0.6493 N   0  0  0  0  0  0  0  0  0  0  0  0
   12.0809   17.9859   -0.5475 C   0  0  0  0  0  0  0  0  0  0  0  0
   11.0015   17.2300   -0.6716 N   0  0  0  0  0  0  0  0  0  0  0  0
    7.4317   17.6450   -0.6186 C   0  0  0  0  0  0  0  0  0  0  0  0
    8.6513   17.0404   -1.0331 O   0  0  0  0  0  0  0  0  0  0  0  0
    8.9949   23.9947    1.0540 C   0  0  0  0  0  0  0  0  0  0  0  0
    8.1717   25.0227    0.5627 C   0  0  0  0  0  0  0  0  0  0  0  0
    7.6237   25.9105    1.3757 C   0  0  0  0  0  0  0  0  0  0  0  0
    7.8342   25.8620    2.7741 C   0  0  0  0  0  0  0  0  0  0  0  0
    8.6185   24.8684    3.2637 C   0  0  0  0  0  0  0  0  0  0  0  0
    9.2069   23.9197    2.3783 C   0  0  0  0  0  0  0  0  0  0  0  0
    7.1790   26.9401    3.5001 C   0  0  0  0  0  0  0  0  0  0  0  0
    6.8011   26.8225    4.7980 C   0  0  0  0  0  0  0  0  0  0  0  0
    6.0424   27.8457    5.3775 C   0  0  0  0  0  0  0  0  0  0  0  0
    5.6888   28.9651    4.6377 C   0  0  0  0  0  0  0  0  0  0  0  0
    4.9303   30.1004    4.8776 C   0  0  0  0  0  0  0  0  0  0  0  0
    4.8845   30.8517    3.7430 N   0  0  0  0  0  0  0  0  0  0  0  0
    5.5820   30.2310    2.8070 N   0  0  0  0  0  0  0  0  0  0  0  0
    6.0737   29.0980    3.3181 C   0  0  0  0  0  0  0  0  0  0  0  0
    6.8130   28.0768    2.7800 C   0  0  0  0  0  0  0  0  0  0  0  0
    5.7310   30.5811    1.8325 H   0  0  0  0  0  0  0  0  0  0  0  0
   15.2567   23.8449   -2.1900 C   0  0  0  0  0  0  0  0  0  0  0  0
   15.4945   24.7156   -3.3253 C   0  0  0  0  0  0  0  0  0  0  0  0
   15.9940   24.2552   -4.4809 N   0  0  0  0  0  0  0  0  0  0  0  0
   16.4986   25.1121   -5.4182 C   0  0  0  0  0  0  0  0  0  0  0  0
   16.5171   26.4654   -5.2246 C   0  0  0  0  0  0  0  0  0  0  0  0
   15.9998   26.9845   -4.0358 C   0  0  0  0  0  0  0  0  0  0  0  0
   15.5074   26.0757   -3.1387 C   0  0  0  0  0  0  0  0  0  0  0  0
   14.7421   26.5637   -1.9578 C   0  0  0  0  0  0  0  0  0  0  0  0
 19 20  1  0  0  0
 20 13  1  0  0  0
 13 14  2  0  0  0
 14 15  1  0  0  0
 15 16  2  0  0  0
 16 17  1  0  0  0
 17 18  2  0  0  0
 15  1  1  0  0  0
  1  2  1  0  0  0
  2  3  2  0  0  0
  2  4  1  0  0  0
  4  5  1  0  0  0
  5  6  2  0  0  0
  5  7  1  0  0  0
  7  8  1  0  0  0
  8  9  1  0  0  0
  9 10  1  0  0  0
 10 37  1  0  0  0
 37 38  1  0  0  0
 38 39  2  0  0  0
 39 40  1  0  0  0
 40 41  2  0  0  0
 41 42  1  0  0  0
 42 43  2  0  0  0
 43 44  1  0  0  0
 10 11  1  0  0  0
 11 12  1  0  0  0
  4 21  1  0  0  0
 21 22  2  0  0  0
 22 23  1  0  0  0
 23 24  2  0  0  0
 24 25  1  0  0  0
 25 26  2  0  0  0
 24 27  1  0  0  0
 27 28  2  0  0  0
 28 29  1  0  0  0
 29 30  2  0  0  0
 30 31  1  0  0  0
 31 32  2  0  0  0
 32 33  1  0  0  0
 33 34  1  0  0  0
 34 35  2  0  0  0
 18 13  1  0  0  0
  7  1  1  0  0  0
 12  7  1  0  0  0
 26 21  1  0  0  0
 35 27  1  0  0  0
 43 38  1  0  0  0
 34 30  1  0  0  0
 33 36  1  0  0  0
M  END
> <minimizedAffinity>
27.08793

> <CNNscore>
0.3857085705

> <CNNaffinity>
7.1188950539

> <CNN_VS>
2.7458188534

> <CNNaffinity_variance>
1.1782819033

$$$$
[H]c1nc(OC([H])([H])[H])c([H])c(N2C(=O)N(c3c([H])c([H])c(-c4c([H])c([H])c5c([H])nn([H])c5c4[H])c([H])c3[H])C(=O)C23C([H])([H])C([H])([H])N(C([H])([H])c2nc([H])c([H])c([H])c2C([H])([H])[H])C([H])([H])C3([H])[H])n1


 44 50  0  0  0  0  0  0  0  0999 V2000
   15.4284   23.6730   -0.5036 N   0  0  0  0  0  0  0  0  0  0  0  0
   14.5517   23.4277    0.6522 C   0  0  0  0  0  0  0  0  0  0  0  0
   14.8083   23.5939    1.8620 O   0  0  0  0  0  0  0  0  0  0  0  0
   13.2838   22.9365    0.1711 N   0  0  0  0  0  0  0  0  0  0  0  0
   13.4021   22.8741   -1.2114 C   0  0  0  0  0  0  0  0  0  0  0  0
   12.7065   22.1703   -1.9943 O   0  0  0  0  0  0  0  0  0  0  0  0
   14.5415   23.8061   -1.5934 C   0  0  0  0  0  0  0  0  0  0  0  0
   15.0211   23.4595   -2.9367 C   0  0  0  0  0  0  0  0  0  0  0  0
   15.3917   24.6812   -3.8154 C   0  0  0  0  0  0  0  0  0  0  0  0
   14.2995   25.5148   -3.7689 N   0  0  0  0  0  0  0  0  0  0  0  0
   14.3051   26.1878   -2.4518 C   0  0  0  0  0  0  0  0  0  0  0  0
   13.8656   25.1731   -1.4764 C   0  0  0  0  0  0  0  0  0  0  0  0
   18.6233   24.0061    1.3320 C   0  0  0  0  0  0  0  0  0  0  0  0
   17.2647   23.7002    1.0928 C   0  0  0  0  0  0  0  0  0  0  0  0
   16.7851   23.7497   -0.1611 C   0  0  0  0  0  0  0  0  0  0  0  0
   17.6358   24.0912   -1.1781 N   0  0  0  0  0  0  0  0  0  0  0  0
   18.9172   24.3726   -0.9307 C   0  0  0  0  0  0  0  0  0  0  0  0
   19.4136   24.3332    0.2956 N   0  0  0  0  0  0  0  0  0  0  0  0
   19.7411   25.1318    3.1269 C   0  0  0  0  0  0  0  0  0  0  0  0
   19.1036   23.9602    2.6311 O   0  0  0  0  0  0  0  0  0  0  0  0
   12.2123   22.7774    1.1286 C   0  0  0  0  0  0  0  0  0  0  0  0
   12.1219   21.5026    1.7140 C   0  0  0  0  0  0  0  0  0  0  0  0
   11.0734   21.1546    2.4415 C   0  0  0  0  0  0  0  0  0  0  0  0
   10.0013   22.0493    2.6694 C   0  0  0  0  0  0  0  0  0  0  0  0
   10.0798   23.2874    2.1189 C   0  0  0  0  0  0  0  0  0  0  0  0
   11.2121   23.6504    1.3338 C   0  0  0  0  0  0  0  0  0  0  0  0
    8.9235   21.4776    3.4634 C   0  0  0  0  0  0  0  0  0  0  0  0
    9.0858   21.1132    4.7603 C   0  0  0  0  0  0  0  0  0  0  0  0
    8.0483   20.4324    5.4072 C   0  0  0  0  0  0  0  0  0  0  0  0
    6.8703   20.1413    4.7340 C   0  0  0  0  0  0  0  0  0  0  0  0
    5.7029   19.4627    5.0475 C   0  0  0  0  0  0  0  0  0  0  0  0
    4.8905   19.4485    3.9550 N   0  0  0  0  0  0  0  0  0  0  0  0
    5.5039   20.0890    2.9746 N   0  0  0  0  0  0  0  0  0  0  0  0
    6.6920   20.5133    3.4160 C   0  0  0  0  0  0  0  0  0  0  0  0
    7.7286   21.1756    2.8110 C   0  0  0  0  0  0  0  0  0  0  0  0
    5.1124   20.2453    2.0171 H   0  0  0  0  0  0  0  0  0  0  0  0
   13.8195   26.3810   -4.7184 C   0  0  0  0  0  0  0  0  0  0  0  0
   13.9960   27.8131   -4.5719 C   0  0  0  0  0  0  0  0  0  0  0  0
   13.0409   28.5967   -4.0519 N   0  0  0  0  0  0  0  0  0  0  0  0
   13.0877   29.9541   -4.2024 C   0  0  0  0  0  0  0  0  0  0  0  0
   14.1006   30.5712   -4.8825 C   0  0  0  0  0  0  0  0  0  0  0  0
   15.1182   29.7895   -5.4337 C   0  0  0  0  0  0  0  0  0  0  0  0
   15.0155   28.4376   -5.2468 C   0  0  0  0  0  0  0  0  0  0  0  0
   16.1681   27.5659   -5.6077 C   0  0  0  0  0  0  0  0  0  0  0  0
 19 20  1  0  0  0
 20 13  1  0  0  0
 13 14  2  0  0  0
 14 15  1  0  0  0
 15 16  2  0  0  0
 16 17  1  0  0  0
 17 18  2  0  0  0
 15  1  1  0  0  0
  1  2  1  0  0  0
  2  3  2  0  0  0
  2  4  1  0  0  0
  4  5  1  0  0  0
  5  6  2  0  0  0
  5  7  1  0  0  0
  7  8  1  0  0  0
  8  9  1  0  0  0
  9 10  1  0  0  0
 10 37  1  0  0  0
 37 38  1  0  0  0
 38 39  2  0  0  0
 39 40  1  0  0  0
 40 41  2  0  0  0
 41 42  1  0  0  0
 42 43  2  0  0  0
 43 44  1  0  0  0
 10 11  1  0  0  0
 11 12  1  0  0  0
  4 21  1  0  0  0
 21 22  2  0  0  0
 22 23  1  0  0  0
 23 24  2  0  0  0
 24 25  1  0  0  0
 25 26  2  0  0  0
 24 27  1  0  0  0
 27 28  2  0  0  0
 28 29  1  0  0  0
 29 30  2  0  0  0
 30 31  1  0  0  0
 31 32  2  0  0  0
 32 33  1  0  0  0
 33 34  1  0  0  0
 34 35  2  0  0  0
 18 13  1  0  0  0
  7  1  1  0  0  0
 12  7  1  0  0  0
 26 21  1  0  0  0
 35 27  1  0  0  0
 43 38  1  0  0  0
 34 30  1  0  0  0
 33 36  1  0  0  0
M  END
> <minimizedAffinity>
19.44877

> <CNNscore>
0.3778028786

> <CNNaffinity>
7.7398881912

> <CNN_VS>
2.9241521358

> <CNNaffinity_variance>
0.4133298993

$$$$
[H]c1nc2c([H])c([H])c([H])c(-c3c([H])c([H])c(C#N)c([H])c3N([H])[H])n2n1


 20 22  0  0  0  0  0  0  0  0999 V2000
   14.9480   23.0955   -3.2328 N   0  0  0  0  0  0  0  0  0  0  0  0
   14.6982   24.3591   -3.8107 C   0  0  0  0  0  0  0  0  0  0  0  0
   15.2815   24.6516   -5.0419 C   0  0  0  0  0  0  0  0  0  0  0  0
   15.0888   25.8642   -5.6769 C   0  0  0  0  0  0  0  0  0  0  0  0
   14.2779   26.7805   -5.0182 C   0  0  0  0  0  0  0  0  0  0  0  0
   13.6986   26.4993   -3.8031 C   0  0  0  0  0  0  0  0  0  0  0  0
   13.9073   25.2781   -3.1886 C   0  0  0  0  0  0  0  0  0  0  0  0
   14.1846   22.6663   -2.6670 H   0  0  0  0  0  0  0  0  0  0  0  0
   15.8784   22.6511   -3.3965 H   0  0  0  0  0  0  0  0  0  0  0  0
   13.3117   24.9395   -1.9001 C   0  0  0  0  0  0  0  0  0  0  0  0
   11.9454   24.9309   -1.8121 C   0  0  0  0  0  0  0  0  0  0  0  0
   11.3848   24.6097   -0.5896 C   0  0  0  0  0  0  0  0  0  0  0  0
   12.2285   24.3195    0.4596 C   0  0  0  0  0  0  0  0  0  0  0  0
   13.6190   24.3450    0.3076 C   0  0  0  0  0  0  0  0  0  0  0  0
   14.6055   24.0992    1.1848 N   0  0  0  0  0  0  0  0  0  0  0  0
   15.7624   24.2621    0.5294 C   0  0  0  0  0  0  0  0  0  0  0  0
   15.4571   24.6038   -0.7341 N   0  0  0  0  0  0  0  0  0  0  0  0
   14.1430   24.6594   -0.8879 N   0  0  0  0  0  0  0  0  0  0  0  0
   15.6880   26.1714   -6.9468 C   0  0  0  0  0  0  0  0  0  0  0  0
   16.1671   26.4029   -7.9797 N   0  0  0  0  0  0  0  0  0  0  0  0
  1  2  1  0  0  0
  2  3  2  0  0  0
  3  4  1  0  0  0
  4  5  2  0  0  0
  5  6  1  0  0  0
  6  7  2  0  0  0
  7 10  1  0  0  0
 10 11  2  0  0  0
 11 12  1  0  0  0
 12 13  2  0  0  0
 13 14  1  0  0  0
 14 15  2  0  0  0
 15 16  1  0  0  0
 16 17  2  0  0  0
 17 18  1  0  0  0
  4 19  1  0  0  0
 19 20  3  0  0  0
  7  2  1  0  0  0
 18 10  1  0  0  0
 18 14  1  0  0  0
  1  8  1  0  0  0
  1  9  1  0  0  0
M  END
> <minimizedAffinity>
-9.13887

> <CNNscore>
0.8106740713

> <CNNaffinity>
6.5811605453

> <CNN_VS>
5.3351759911

> <CNNaffinity_variance>
0.0687081739

$$$$
[H]c1nc2c([H])c([H])c([H])c(-c3c([H])c([H])c(C#N)c([H])c3N([H])[H])n2n1


 20 22  0  0  0  0  0  0  0  0999 V2000
   12.5682   25.2669   -1.5015 N   0  0  0  0  0  0  0  0  0  0  0  0
   13.5477   24.9937   -2.4809 C   0  0  0  0  0  0  0  0  0  0  0  0
   13.8573   25.9902   -3.4042 C   0  0  0  0  0  0  0  0  0  0  0  0
   14.8034   25.8058   -4.3951 C   0  0  0  0  0  0  0  0  0  0  0  0
   15.4321   24.5668   -4.4210 C   0  0  0  0  0  0  0  0  0  0  0  0
   15.1321   23.5783   -3.5133 C   0  0  0  0  0  0  0  0  0  0  0  0
   14.1812   23.7883   -2.5312 C   0  0  0  0  0  0  0  0  0  0  0  0
   12.6890   24.8256   -0.5647 H   0  0  0  0  0  0  0  0  0  0  0  0
   11.7732   25.8935   -1.7572 H   0  0  0  0  0  0  0  0  0  0  0  0
   13.8332   22.7666   -1.5491 C   0  0  0  0  0  0  0  0  0  0  0  0
   12.6793   22.0573   -1.7490 C   0  0  0  0  0  0  0  0  0  0  0  0
   12.3528   21.0901   -0.8162 C   0  0  0  0  0  0  0  0  0  0  0  0
   13.2022   20.8992    0.2511 C   0  0  0  0  0  0  0  0  0  0  0  0
   14.3687   21.6567    0.4010 C   0  0  0  0  0  0  0  0  0  0  0  0
   15.3185   21.6327    1.3500 N   0  0  0  0  0  0  0  0  0  0  0  0
   16.2236   22.5644    1.0224 C   0  0  0  0  0  0  0  0  0  0  0  0
   15.8067   23.1372   -0.1198 N   0  0  0  0  0  0  0  0  0  0  0  0
   14.6673   22.5909   -0.5160 N   0  0  0  0  0  0  0  0  0  0  0  0
   15.1268   26.8301   -5.3502 C   0  0  0  0  0  0  0  0  0  0  0  0
   15.4060   27.6517   -6.1229 N   0  0  0  0  0  0  0  0  0  0  0  0
  1  2  1  0  0  0
  2  3  2  0  0  0
  3  4  1  0  0  0
  4  5  2  0  0  0
  5  6  1  0  0  0
  6  7  2  0  0  0
  7 10  1  0  0  0
 10 11  2  0  0  0
 11 12  1  0  0  0
 12 13  2  0  0  0
 13 14  1  0  0  0
 14 15  2  0  0  0
 15 16  1  0  0  0
 16 17  2  0  0  0
 17 18  1  0  0  0
  4 19  1  0  0  0
 19 20  3  0  0  0
  7  2  1  0  0  0
 18 10  1  0  0  0
 18 14  1  0  0  0
  1  8  1  0  0  0
  1  9  1  0  0  0
M  END
> <minimizedAffinity>
-6.37908

> <CNNscore>
0.6208699942

> <CNNaffinity>
6.7201600075

> <CNN_VS>
4.1723456383

> <CNNaffinity_variance>
0.5344601870

$$$$
[H]c1nc2c([H])c([H])c([H])c(-c3c([H])c([H])c(C#N)c([H])c3N([H])[H])n2n1


 20 22  0  0  0  0  0  0  0  0999 V2000
   14.8057   22.3571   -2.9941 N   0  0  0  0  0  0  0  0  0  0  0  0
   14.2873   23.6684   -2.9246 C   0  0  0  0  0  0  0  0  0  0  0  0
   14.8417   24.6446   -3.7499 C   0  0  0  0  0  0  0  0  0  0  0  0
   14.3936   25.9523   -3.7449 C   0  0  0  0  0  0  0  0  0  0  0  0
   13.3554   26.2424   -2.8680 C   0  0  0  0  0  0  0  0  0  0  0  0
   12.8030   25.2846   -2.0504 C   0  0  0  0  0  0  0  0  0  0  0  0
   13.2696   23.9829   -2.0747 C   0  0  0  0  0  0  0  0  0  0  0  0
   14.1418   21.5687   -2.8370 H   0  0  0  0  0  0  0  0  0  0  0  0
   15.8225   22.2365   -3.1982 H   0  0  0  0  0  0  0  0  0  0  0  0
   12.7118   22.9366   -1.2240 C   0  0  0  0  0  0  0  0  0  0  0  0
   11.3849   22.6336   -1.3736 C   0  0  0  0  0  0  0  0  0  0  0  0
   10.8600   21.6416   -0.5658 C   0  0  0  0  0  0  0  0  0  0  0  0
   11.6974   21.0218    0.3349 C   0  0  0  0  0  0  0  0  0  0  0  0
   13.0466   21.3759    0.4414 C   0  0  0  0  0  0  0  0  0  0  0  0
   14.0200   20.9067    1.2386 N   0  0  0  0  0  0  0  0  0  0  0  0
   15.1340   21.5881    0.9397 C   0  0  0  0  0  0  0  0  0  0  0  0
   14.8165   22.4588   -0.0337 N   0  0  0  0  0  0  0  0  0  0  0  0
   13.5364   22.3417   -0.3523 N   0  0  0  0  0  0  0  0  0  0  0  0
   14.9617   26.9634   -4.5939 C   0  0  0  0  0  0  0  0  0  0  0  0
   15.4214   27.7927   -5.2656 N   0  0  0  0  0  0  0  0  0  0  0  0
  1  2  1  0  0  0
  2  3  2  0  0  0
  3  4  1  0  0  0
  4  5  2  0  0  0
  5  6  1  0  0  0
  6  7  2  0  0  0
  7 10  1  0  0  0
 10 11  2  0  0  0
 11 12  1  0  0  0
 12 13  2  0  0  0
 13 14  1  0  0  0
 14 15  2  0  0  0
 15 16  1  0  0  0
 16 17  2  0  0  0
 17 18  1  0  0  0
  4 19  1  0  0  0
 19 20  3  0  0  0
  7  2  1  0  0  0
 18 10  1  0  0  0
 18 14  1  0  0  0
  1  8  1  0  0  0
  1  9  1  0  0  0
M  END
> <minimizedAffinity>
-7.79895

> <CNNscore>
0.5567309260

> <CNNaffinity>
6.5268640518

> <CNN_VS>
3.6337070465

> <CNNaffinity_variance>
0.3047032952

$$$$
[H]c1nc2c([H])c([H])c([H])c(-c3c([H])c([H])c(C#N)c([H])c3N([H])[H])n2n1


 20 22  0  0  0  0  0  0  0  0999 V2000
   15.5431   23.3647   -3.1179 N   0  0  0  0  0  0  0  0  0  0  0  0
   14.3963   24.0994   -2.7459 C   0  0  0  0  0  0  0  0  0  0  0  0
   14.0805   25.2466   -3.4709 C   0  0  0  0  0  0  0  0  0  0  0  0
   12.9763   26.0233   -3.1735 C   0  0  0  0  0  0  0  0  0  0  0  0
   12.1944   25.5963   -2.1071 C   0  0  0  0  0  0  0  0  0  0  0  0
   12.4994   24.4653   -1.3868 C   0  0  0  0  0  0  0  0  0  0  0  0
   13.6102   23.7054   -1.7049 C   0  0  0  0  0  0  0  0  0  0  0  0
   15.5122   22.3300   -2.9937 H   0  0  0  0  0  0  0  0  0  0  0  0
   16.3639   23.8862   -3.4976 H   0  0  0  0  0  0  0  0  0  0  0  0
   13.9695   22.4989   -0.9666 C   0  0  0  0  0  0  0  0  0  0  0  0
   13.2874   21.3477   -1.2563 C   0  0  0  0  0  0  0  0  0  0  0  0
   13.6306   20.2066   -0.5546 C   0  0  0  0  0  0  0  0  0  0  0  0
   14.6315   20.2957    0.3874 C   0  0  0  0  0  0  0  0  0  0  0  0
   15.2927   21.5025    0.6390 C   0  0  0  0  0  0  0  0  0  0  0  0
   16.2793   21.8036    1.4987 N   0  0  0  0  0  0  0  0  0  0  0  0
   16.5518   23.1058    1.3423 C   0  0  0  0  0  0  0  0  0  0  0  0
   15.7254   23.5718    0.3902 N   0  0  0  0  0  0  0  0  0  0  0  0
   14.9441   22.5988   -0.0534 N   0  0  0  0  0  0  0  0  0  0  0  0
   12.6457   27.2076   -3.9178 C   0  0  0  0  0  0  0  0  0  0  0  0
   12.3605   28.1635   -4.5136 N   0  0  0  0  0  0  0  0  0  0  0  0
  1  2  1  0  0  0
  2  3  2  0  0  0
  3  4  1  0  0  0
  4  5  2  0  0  0
  5  6  1  0  0  0
  6  7  2  0  0  0
  7 10  1  0  0  0
 10 11  2  0  0  0
 11 12  1  0  0  0
 12 13  2  0  0  0
 13 14  1  0  0  0
 14 15  2  0  0  0
 15 16  1  0  0  0
 16 17  2  0  0  0
 17 18  1  0  0  0
  4 19  1  0  0  0
 19 20  3  0  0  0
  7  2  1  0  0  0
 18 10  1  0  0  0
 18 14  1  0  0  0
  1  8  1  0  0  0
  1  9  1  0  0  0
M  END
> <minimizedAffinity>
-4.16651

> <CNNscore>
0.5234689713

> <CNNaffinity>
6.3899993896

> <CNN_VS>
3.3449664116

> <CNNaffinity_variance>
0.3211264610

$$$$
[H]c1nc2c([H])c([H])c([H])c(-c3c([H])c([H])c(C#N)c([H])c3N([H])[H])n2n1


 20 22  0  0  0  0  0  0  0  0999 V2000
   15.1397   22.7982   -3.4674 N   0  0  0  0  0  0  0  0  0  0  0  0
   15.1656   24.1227   -3.9552 C   0  0  0  0  0  0  0  0  0  0  0  0
   15.3729   24.3228   -5.3185 C   0  0  0  0  0  0  0  0  0  0  0  0
   15.4125   25.5861   -5.8782 C   0  0  0  0  0  0  0  0  0  0  0  0
   15.2336   26.6512   -5.0038 C   0  0  0  0  0  0  0  0  0  0  0  0
   15.0285   26.4620   -3.6573 C   0  0  0  0  0  0  0  0  0  0  0  0
   14.9932   25.1872   -3.1221 C   0  0  0  0  0  0  0  0  0  0  0  0
   14.5075   22.5941   -2.6638 H   0  0  0  0  0  0  0  0  0  0  0  0
   15.7498   22.0880   -3.9295 H   0  0  0  0  0  0  0  0  0  0  0  0
   14.7782   24.9424   -1.6996 C   0  0  0  0  0  0  0  0  0  0  0  0
   15.8821   24.8501   -0.8949 C   0  0  0  0  0  0  0  0  0  0  0  0
   15.6743   24.6181    0.4524 C   0  0  0  0  0  0  0  0  0  0  0  0
   14.3782   24.4945    0.9014 C   0  0  0  0  0  0  0  0  0  0  0  0
   13.2896   24.5986    0.0289 C   0  0  0  0  0  0  0  0  0  0  0  0
   11.9688   24.5114    0.2543 N   0  0  0  0  0  0  0  0  0  0  0  0
   11.3575   24.6846   -0.9251 C   0  0  0  0  0  0  0  0  0  0  0  0
   12.3187   24.8739   -1.8453 N   0  0  0  0  0  0  0  0  0  0  0  0
   13.5132   24.8241   -1.2757 N   0  0  0  0  0  0  0  0  0  0  0  0
   15.6261   25.7985   -7.2837 C   0  0  0  0  0  0  0  0  0  0  0  0
   15.8100   25.9551   -8.4202 N   0  0  0  0  0  0  0  0  0  0  0  0
  1  2  1  0  0  0
  2  3  2  0  0  0
  3  4  1  0  0  0
  4  5  2  0  0  0
  5  6  1  0  0  0
  6  7  2  0  0  0
  7 10  1  0  0  0
 10 11  2  0  0  0
 11 12  1  0  0  0
 12 13  2  0  0  0
 13 14  1  0  0  0
 14 15  2  0  0  0
 15 16  1  0  0  0
 16 17  2  0  0  0
 17 18  1  0  0  0
  4 19  1  0  0  0
 19 20  3  0  0  0
  7  2  1  0  0  0
 18 10  1  0  0  0
 18 14  1  0  0  0
  1  8  1  0  0  0
  1  9  1  0  0  0
M  END
> <minimizedAffinity>
-7.70569

> <CNNscore>
0.4756217301

> <CNNaffinity>
6.1085000038

> <CNN_VS>
2.9053354263

> <CNNaffinity_variance>
0.0909513161

$$$$
[H]c1nc2c([H])c([H])c([H])c(-c3c([H])c([H])c(C#N)c([H])c3N([H])[H])n2n1


 20 22  0  0  0  0  0  0  0  0999 V2000
   15.0423   26.6596   -5.8708 N   0  0  0  0  0  0  0  0  0  0  0  0
   13.9876   26.7683   -4.9387 C   0  0  0  0  0  0  0  0  0  0  0  0
   13.0201   27.7497   -5.1444 C   0  0  0  0  0  0  0  0  0  0  0  0
   11.9549   27.9240   -4.2808 C   0  0  0  0  0  0  0  0  0  0  0  0
   11.9006   27.0636   -3.1910 C   0  0  0  0  0  0  0  0  0  0  0  0
   12.8514   26.0925   -2.9811 C   0  0  0  0  0  0  0  0  0  0  0  0
   13.9077   25.9388   -3.8605 C   0  0  0  0  0  0  0  0  0  0  0  0
   15.4255   25.7075   -6.0543 H   0  0  0  0  0  0  0  0  0  0  0  0
   15.3886   27.5305   -6.3308 H   0  0  0  0  0  0  0  0  0  0  0  0
   14.9375   24.9217   -3.6748 C   0  0  0  0  0  0  0  0  0  0  0  0
   15.0070   23.9098   -4.5946 C   0  0  0  0  0  0  0  0  0  0  0  0
   15.9842   22.9479   -4.4153 C   0  0  0  0  0  0  0  0  0  0  0  0
   16.8235   23.0643   -3.3296 C   0  0  0  0  0  0  0  0  0  0  0  0
   16.7027   24.1228   -2.4229 C   0  0  0  0  0  0  0  0  0  0  0  0
   17.4047   24.4199   -1.3174 N   0  0  0  0  0  0  0  0  0  0  0  0
   16.8814   25.5444   -0.8111 C   0  0  0  0  0  0  0  0  0  0  0  0
   15.8710   25.9095   -1.6187 N   0  0  0  0  0  0  0  0  0  0  0  0
   15.7472   25.0462   -2.6152 N   0  0  0  0  0  0  0  0  0  0  0  0
   10.9540   28.9347   -4.4879 C   0  0  0  0  0  0  0  0  0  0  0  0
   10.1327   29.7382   -4.6605 N   0  0  0  0  0  0  0  0  0  0  0  0
  1  2  1  0  0  0
  2  3  2  0  0  0
  3  4  1  0  0  0
  4  5  2  0  0  0
  5  6  1  0  0  0
  6  7  2  0  0  0
  7 10  1  0  0  0
 10 11  2  0  0  0
 11 12  1  0  0  0
 12 13  2  0  0  0
 13 14  1  0  0  0
 14 15  2  0  0  0
 15 16  1  0  0  0
 16 17  2  0  0  0
 17 18  1  0  0  0
  4 19  1  0  0  0
 19 20  3  0  0  0
  7  2  1  0  0  0
 18 10  1  0  0  0
 18 14  1  0  0  0
  1  8  1  0  0  0
  1  9  1  0  0  0
M  END
> <minimizedAffinity>
11.74197

> <CNNscore>
0.4740278125

> <CNNaffinity>
5.5665249825

> <CNN_VS>
2.6386876106

> <CNNaffinity_variance>
0.7518419623

$$$$
[H]c1nc2c([H])c([H])c([H])c(-c3c([H])c([H])c(C#N)c([H])c3N([H])[H])n2n1


 20 22  0  0  0  0  0  0  0  0999 V2000
   14.6507   24.8081    0.1019 N   0  0  0  0  0  0  0  0  0  0  0  0
   13.2861   24.5278   -0.1272 C   0  0  0  0  0  0  0  0  0  0  0  0
   12.4247   24.4901    0.9673 C   0  0  0  0  0  0  0  0  0  0  0  0
   11.0752   24.2231    0.8317 C   0  0  0  0  0  0  0  0  0  0  0  0
   10.6216   23.9932   -0.4616 C   0  0  0  0  0  0  0  0  0  0  0  0
   11.4653   24.0288   -1.5469 C   0  0  0  0  0  0  0  0  0  0  0  0
   12.8120   24.2983   -1.3840 C   0  0  0  0  0  0  0  0  0  0  0  0
   15.1626   25.3393   -0.6349 H   0  0  0  0  0  0  0  0  0  0  0  0
   15.0826   24.4735    0.9915 H   0  0  0  0  0  0  0  0  0  0  0  0
   13.7412   24.3454   -2.5082 C   0  0  0  0  0  0  0  0  0  0  0  0
   14.6012   23.2922   -2.6687 C   0  0  0  0  0  0  0  0  0  0  0  0
   15.4802   23.3404   -3.7351 C   0  0  0  0  0  0  0  0  0  0  0  0
   15.4384   24.4377   -4.5666 C   0  0  0  0  0  0  0  0  0  0  0  0
   14.5356   25.4842   -4.3504 C   0  0  0  0  0  0  0  0  0  0  0  0
   14.3318   26.6255   -5.0278 N   0  0  0  0  0  0  0  0  0  0  0  0
   13.3460   27.2822   -4.4020 C   0  0  0  0  0  0  0  0  0  0  0  0
   12.9692   26.5273   -3.3558 N   0  0  0  0  0  0  0  0  0  0  0  0
   13.6906   25.4177   -3.3091 N   0  0  0  0  0  0  0  0  0  0  0  0
   10.1819   24.1829    1.9570 C   0  0  0  0  0  0  0  0  0  0  0  0
    9.4746   24.1522    2.8784 N   0  0  0  0  0  0  0  0  0  0  0  0
  1  2  1  0  0  0
  2  3  2  0  0  0
  3  4  1  0  0  0
  4  5  2  0  0  0
  5  6  1  0  0  0
  6  7  2  0  0  0
  7 10  1  0  0  0
 10 11  2  0  0  0
 11 12  1  0  0  0
 12 13  2  0  0  0
 13 14  1  0  0  0
 14 15  2  0  0  0
 15 16  1  0  0  0
 16 17  2  0  0  0
 17 18  1  0  0  0
  4 19  1  0  0  0
 19 20  3  0  0  0
  7  2  1  0  0  0
 18 10  1  0  0  0
 18 14  1  0  0  0
  1  8  1  0  0  0
  1  9  1  0  0  0
M  END
> <minimizedAffinity>
-7.08900

> <CNNscore>
0.4058624804

> <CNNaffinity>
5.8391680717

> <CNN_VS>
2.3698992729

> <CNNaffinity_variance>
0.0510856733

$$$$
[H]c1nc2c([H])c([H])c([H])c(-c3c([H])c([H])c(C#N)c([H])c3N([H])[H])n2n1


 20 22  0  0  0  0  0  0  0  0999 V2000
   16.3474   24.8044   -0.9285 N   0  0  0  0  0  0  0  0  0  0  0  0
   15.5376   25.1811   -2.0219 C   0  0  0  0  0  0  0  0  0  0  0  0
   15.9917   26.1932   -2.8650 C   0  0  0  0  0  0  0  0  0  0  0  0
   15.2616   26.6225   -3.9575 C   0  0  0  0  0  0  0  0  0  0  0  0
   14.0443   25.9871   -4.1708 C   0  0  0  0  0  0  0  0  0  0  0  0
   13.5892   24.9875   -3.3433 C   0  0  0  0  0  0  0  0  0  0  0  0
   14.3392   24.5763   -2.2565 C   0  0  0  0  0  0  0  0  0  0  0  0
   16.3273   23.8034   -0.6378 H   0  0  0  0  0  0  0  0  0  0  0  0
   16.9254   25.5393   -0.4638 H   0  0  0  0  0  0  0  0  0  0  0  0
   13.8934   23.5197   -1.3540 C   0  0  0  0  0  0  0  0  0  0  0  0
   14.4658   22.2832   -1.4883 C   0  0  0  0  0  0  0  0  0  0  0  0
   14.0408   21.2847   -0.6313 C   0  0  0  0  0  0  0  0  0  0  0  0
   13.0735   21.5915    0.3000 C   0  0  0  0  0  0  0  0  0  0  0  0
   12.5257   22.8756    0.3885 C   0  0  0  0  0  0  0  0  0  0  0  0
   11.5891   23.3789    1.2087 N   0  0  0  0  0  0  0  0  0  0  0  0
   11.4275   24.6664    0.8758 C   0  0  0  0  0  0  0  0  0  0  0  0
   12.2691   24.9214   -0.1406 N   0  0  0  0  0  0  0  0  0  0  0  0
   12.9523   23.8308   -0.4531 N   0  0  0  0  0  0  0  0  0  0  0  0
   15.7250   27.6660   -4.8306 C   0  0  0  0  0  0  0  0  0  0  0  0
   16.0887   28.5026   -5.5502 N   0  0  0  0  0  0  0  0  0  0  0  0
  1  2  1  0  0  0
  2  3  2  0  0  0
  3  4  1  0  0  0
  4  5  2  0  0  0
  5  6  1  0  0  0
  6  7  2  0  0  0
  7 10  1  0  0  0
 10 11  2  0  0  0
 11 12  1  0  0  0
 12 13  2  0  0  0
 13 14  1  0  0  0
 14 15  2  0  0  0
 15 16  1  0  0  0
 16 17  2  0  0  0
 17 18  1  0  0  0
  4 19  1  0  0  0
 19 20  3  0  0  0
  7  2  1  0  0  0
 18 10  1  0  0  0
 18 14  1  0  0  0
  1  8  1  0  0  0
  1  9  1  0  0  0
M  END
> <minimizedAffinity>
-7.17012

> <CNNscore>
0.4015579820

> <CNNaffinity>
6.2392587662

> <CNN_VS>
2.5054242611

> <CNNaffinity_variance>
0.1641968638

$$$$
[H]c1nc2c([H])c([H])c([H])c(-c3c([H])c([H])c(C#N)c([H])c3N([H])[H])n2n1


 20 22  0  0  0  0  0  0  0  0999 V2000
   16.4307   24.8044   -2.4913 N   0  0  0  0  0  0  0  0  0  0  0  0
   15.0541   25.0779   -2.3384 C   0  0  0  0  0  0  0  0  0  0  0  0
   14.4561   25.9791   -3.2168 C   0  0  0  0  0  0  0  0  0  0  0  0
   13.1146   26.3029   -3.1371 C   0  0  0  0  0  0  0  0  0  0  0  0
   12.3908   25.6781   -2.1287 C   0  0  0  0  0  0  0  0  0  0  0  0
   12.9737   24.7875   -1.2580 C   0  0  0  0  0  0  0  0  0  0  0  0
   14.3184   24.4805   -1.3591 C   0  0  0  0  0  0  0  0  0  0  0  0
   16.7585   23.8424   -2.2586 H   0  0  0  0  0  0  0  0  0  0  0  0
   17.0538   25.5716   -2.8277 H   0  0  0  0  0  0  0  0  0  0  0  0
   14.9758   23.5415   -0.4560 C   0  0  0  0  0  0  0  0  0  0  0  0
   16.0070   24.0118    0.3121 C   0  0  0  0  0  0  0  0  0  0  0  0
   16.6275   23.1190    1.1666 C   0  0  0  0  0  0  0  0  0  0  0  0
   16.1742   21.8187    1.1938 C   0  0  0  0  0  0  0  0  0  0  0  0
   15.1145   21.3973    0.3836 C   0  0  0  0  0  0  0  0  0  0  0  0
   14.5264   20.1968    0.2566 N   0  0  0  0  0  0  0  0  0  0  0  0
   13.5566   20.3302   -0.6579 C   0  0  0  0  0  0  0  0  0  0  0  0
   13.5736   21.6095   -1.0695 N   0  0  0  0  0  0  0  0  0  0  0  0
   14.5258   22.2801   -0.4391 N   0  0  0  0  0  0  0  0  0  0  0  0
   12.4924   27.2319   -4.0403 C   0  0  0  0  0  0  0  0  0  0  0  0
   11.9743   27.9716   -4.7713 N   0  0  0  0  0  0  0  0  0  0  0  0
  1  2  1  0  0  0
  2  3  2  0  0  0
  3  4  1  0  0  0
  4  5  2  0  0  0
  5  6  1  0  0  0
  6  7  2  0  0  0
  7 10  1  0  0  0
 10 11  2  0  0  0
 11 12  1  0  0  0
 12 13  2  0  0  0
 13 14  1  0  0  0
 14 15  2  0  0  0
 15 16  1  0  0  0
 16 17  2  0  0  0
 17 18  1  0  0  0
  4 19  1  0  0  0
 19 20  3  0  0  0
  7  2  1  0  0  0
 18 10  1  0  0  0
 18 14  1  0  0  0
  1  8  1  0  0  0
  1  9  1  0  0  0
M  END
> <minimizedAffinity>
-4.05886

> <CNNscore>
0.3937613368

> <CNNaffinity>
6.0970678329

> <CNN_VS>
2.4007894993

> <CNNaffinity_variance>
0.3287821114

$$$$
[H]c1nc2nc(N(C([H])([H])[H])C([H])([H])[H])c([H])c(-c3c([H])c([H])c(C#N)c([H])c3[H])n2n1


 20 22  0  0  0  0  0  0  0  0999 V2000
   12.0586   23.5103   -0.5504 C   0  0  0  0  0  0  0  0  0  0  0  0
   12.5602   23.9679   -1.7487 C   0  0  0  0  0  0  0  0  0  0  0  0
   13.8738   24.4007   -1.8792 C   0  0  0  0  0  0  0  0  0  0  0  0
   14.7117   24.3891   -0.8306 N   0  0  0  0  0  0  0  0  0  0  0  0
   15.9814   24.7413   -0.6593 N   0  0  0  0  0  0  0  0  0  0  0  0
   16.2890   24.5154    0.6169 C   0  0  0  0  0  0  0  0  0  0  0  0
   15.2123   24.0232    1.2406 N   0  0  0  0  0  0  0  0  0  0  0  0
   14.2159   23.9414    0.3359 C   0  0  0  0  0  0  0  0  0  0  0  0
   12.9219   23.5115    0.4768 N   0  0  0  0  0  0  0  0  0  0  0  0
   14.3058   24.8882   -3.1695 C   0  0  0  0  0  0  0  0  0  0  0  0
   13.8744   26.0645   -3.6828 C   0  0  0  0  0  0  0  0  0  0  0  0
   14.3158   26.4708   -4.9509 C   0  0  0  0  0  0  0  0  0  0  0  0
   15.1822   25.6653   -5.6522 C   0  0  0  0  0  0  0  0  0  0  0  0
   15.6326   24.4617   -5.1417 C   0  0  0  0  0  0  0  0  0  0  0  0
   15.1895   24.0898   -3.9099 C   0  0  0  0  0  0  0  0  0  0  0  0
   15.6232   26.1006   -6.9514 C   0  0  0  0  0  0  0  0  0  0  0  0
   15.9947   26.4542   -7.9946 N   0  0  0  0  0  0  0  0  0  0  0  0
    9.7736   23.7946    0.3876 C   0  0  0  0  0  0  0  0  0  0  0  0
   10.7096   23.0634   -0.4073 N   0  0  0  0  0  0  0  0  0  0  0  0
   10.2575   21.8558   -1.0664 C   0  0  0  0  0  0  0  0  0  0  0  0
 18 19  1  0  0  0
 19 20  1  0  0  0
 19  1  1  0  0  0
  1  2  1  0  0  0
  2  3  2  0  0  0
  3 10  1  0  0  0
 10 11  2  0  0  0
 11 12  1  0  0  0
 12 13  2  0  0  0
 13 14  1  0  0  0
 14 15  2  0  0  0
 13 16  1  0  0  0
 16 17  3  0  0  0
  3  4  1  0  0  0
  4  5  1  0  0  0
  5  6  2  0  0  0
  6  7  1  0  0  0
  7  8  2  0  0  0
  8  9  1  0  0  0
  9  1  2  0  0  0
 15 10  1  0  0  0
  8  4  1  0  0  0
M  END
> <minimizedAffinity>
-7.71536

> <CNNscore>
0.8459352255

> <CNNaffinity>
6.8771581650

> <CNN_VS>
5.8176302910

> <CNNaffinity_variance>
0.0702351853

$$$$
[H]c1nc2nc(N(C([H])([H])[H])C([H])([H])[H])c([H])c(-c3c([H])c([H])c(C#N)c([H])c3[H])n2n1


 20 22  0  0  0  0  0  0  0  0999 V2000
   10.8856   23.6034    0.9781 C   0  0  0  0  0  0  0  0  0  0  0  0
   11.4575   24.1795   -0.1347 C   0  0  0  0  0  0  0  0  0  0  0  0
   12.6548   23.7194   -0.6683 C   0  0  0  0  0  0  0  0  0  0  0  0
   13.3058   22.6854   -0.1127 N   0  0  0  0  0  0  0  0  0  0  0  0
   14.4403   22.0520   -0.3903 N   0  0  0  0  0  0  0  0  0  0  0  0
   14.5942   21.0923    0.5204 C   0  0  0  0  0  0  0  0  0  0  0  0
   13.5570   21.1274    1.3650 N   0  0  0  0  0  0  0  0  0  0  0  0
   12.7425   22.1277    0.9729 C   0  0  0  0  0  0  0  0  0  0  0  0
   11.5614   22.5726    1.5082 N   0  0  0  0  0  0  0  0  0  0  0  0
   13.1932   24.4019   -1.8231 C   0  0  0  0  0  0  0  0  0  0  0  0
   14.2455   23.9203   -2.5258 C   0  0  0  0  0  0  0  0  0  0  0  0
   14.7337   24.6422   -3.6251 C   0  0  0  0  0  0  0  0  0  0  0  0
   14.1325   25.8296   -3.9713 C   0  0  0  0  0  0  0  0  0  0  0  0
   13.0566   26.3347   -3.2644 C   0  0  0  0  0  0  0  0  0  0  0  0
   12.6021   25.6159   -2.2020 C   0  0  0  0  0  0  0  0  0  0  0  0
   14.6485   26.5548   -5.1025 C   0  0  0  0  0  0  0  0  0  0  0  0
   15.0759   27.1279   -6.0192 N   0  0  0  0  0  0  0  0  0  0  0  0
    8.4020   23.7138    0.9453 C   0  0  0  0  0  0  0  0  0  0  0  0
    9.6551   24.0699    1.5332 N   0  0  0  0  0  0  0  0  0  0  0  0
    9.6485   24.9166    2.7080 C   0  0  0  0  0  0  0  0  0  0  0  0
 18 19  1  0  0  0
 19 20  1  0  0  0
 19  1  1  0  0  0
  1  2  1  0  0  0
  2  3  2  0  0  0
  3 10  1  0  0  0
 10 11  2  0  0  0
 11 12  1  0  0  0
 12 13  2  0  0  0
 13 14  1  0  0  0
 14 15  2  0  0  0
 13 16  1  0  0  0
 16 17  3  0  0  0
  3  4  1  0  0  0
  4  5  1  0  0  0
  5  6  2  0  0  0
  6  7  1  0  0  0
  7  8  2  0  0  0
  8  9  1  0  0  0
  9  1  2  0  0  0
 15 10  1  0  0  0
  8  4  1  0  0  0
M  END
> <minimizedAffinity>
-8.72257

> <CNNscore>
0.6901486516

> <CNNaffinity>
6.6850371361

> <CNN_VS>
4.6136693954

> <CNNaffinity_variance>
0.3698376417

$$$$
[H]c1nc2nc(N(C([H])([H])[H])C([H])([H])[H])c([H])c(-c3c([H])c([H])c(C#N)c([H])c3[H])n2n1


 20 22  0  0  0  0  0  0  0  0999 V2000
   10.8561   23.6012    0.9649 C   0  0  0  0  0  0  0  0  0  0  0  0
   11.4033   24.2256   -0.1342 C   0  0  0  0  0  0  0  0  0  0  0  0
   12.6141   23.8220   -0.6827 C   0  0  0  0  0  0  0  0  0  0  0  0
   13.3032   22.7977   -0.1558 N   0  0  0  0  0  0  0  0  0  0  0  0
   14.4584   22.2122   -0.4528 N   0  0  0  0  0  0  0  0  0  0  0  0
   14.6493   21.2354    0.4325 C   0  0  0  0  0  0  0  0  0  0  0  0
   13.6145   21.2121    1.2805 N   0  0  0  0  0  0  0  0  0  0  0  0
   12.7638   22.1927    0.9165 C   0  0  0  0  0  0  0  0  0  0  0  0
   11.5698   22.5817    1.4663 N   0  0  0  0  0  0  0  0  0  0  0  0
   13.1239   24.5526   -1.8210 C   0  0  0  0  0  0  0  0  0  0  0  0
   12.5884   25.7274   -2.2287 C   0  0  0  0  0  0  0  0  0  0  0  0
   13.1168   26.3762   -3.3547 C   0  0  0  0  0  0  0  0  0  0  0  0
   14.1731   25.8065   -4.0261 C   0  0  0  0  0  0  0  0  0  0  0  0
   14.7317   24.6077   -3.6220 C   0  0  0  0  0  0  0  0  0  0  0  0
   14.2010   23.9979   -2.5273 C   0  0  0  0  0  0  0  0  0  0  0  0
   14.7006   26.4884   -5.1787 C   0  0  0  0  0  0  0  0  0  0  0  0
   15.1192   27.0532   -6.1045 N   0  0  0  0  0  0  0  0  0  0  0  0
    8.3711   23.6649    0.9152 C   0  0  0  0  0  0  0  0  0  0  0  0
    9.6119   24.0094    1.5352 N   0  0  0  0  0  0  0  0  0  0  0  0
    9.5785   24.7839    2.7584 C   0  0  0  0  0  0  0  0  0  0  0  0
 18 19  1  0  0  0
 19 20  1  0  0  0
 19  1  1  0  0  0
  1  2  1  0  0  0
  2  3  2  0  0  0
  3 10  1  0  0  0
 10 11  2  0  0  0
 11 12  1  0  0  0
 12 13  2  0  0  0
 13 14  1  0  0  0
 14 15  2  0  0  0
 13 16  1  0  0  0
 16 17  3  0  0  0
  3  4  1  0  0  0
  4  5  1  0  0  0
  5  6  2  0  0  0
  6  7  1  0  0  0
  7  8  2  0  0  0
  8  9  1  0  0  0
  9  1  2  0  0  0
 15 10  1  0  0  0
  8  4  1  0  0  0
M  END
> <minimizedAffinity>
-8.72808

> <CNNscore>
0.6886188984

> <CNNaffinity>
6.6714353561

> <CNN_VS>
4.5940766335

> <CNNaffinity_variance>
0.3733655810

$$$$
[H]c1nc2nc(N(C([H])([H])[H])C([H])([H])[H])c([H])c(-c3c([H])c([H])c(C#N)c([H])c3[H])n2n1


 20 22  0  0  0  0  0  0  0  0999 V2000
   12.2214   22.6260   -0.6086 C   0  0  0  0  0  0  0  0  0  0  0  0
   13.0438   23.5376   -1.2329 C   0  0  0  0  0  0  0  0  0  0  0  0
   14.4100   23.5861   -0.9856 C   0  0  0  0  0  0  0  0  0  0  0  0
   14.9850   22.7373   -0.1192 N   0  0  0  0  0  0  0  0  0  0  0  0
   16.2294   22.5603    0.3119 N   0  0  0  0  0  0  0  0  0  0  0  0
   16.2081   21.5598    1.1909 C   0  0  0  0  0  0  0  0  0  0  0  0
   14.9520   21.1136    1.3080 N   0  0  0  0  0  0  0  0  0  0  0  0
   14.1770   21.8503    0.4867 C   0  0  0  0  0  0  0  0  0  0  0  0
   12.8278   21.7926    0.2505 N   0  0  0  0  0  0  0  0  0  0  0  0
   15.1908   24.5931   -1.6678 C   0  0  0  0  0  0  0  0  0  0  0  0
   16.5348   24.6850   -1.5321 C   0  0  0  0  0  0  0  0  0  0  0  0
   17.2317   25.6993   -2.2055 C   0  0  0  0  0  0  0  0  0  0  0  0
   16.5357   26.5846   -2.9949 C   0  0  0  0  0  0  0  0  0  0  0  0
   15.1633   26.5038   -3.1444 C   0  0  0  0  0  0  0  0  0  0  0  0
   14.5104   25.5115   -2.4804 C   0  0  0  0  0  0  0  0  0  0  0  0
   17.2695   27.6177   -3.6774 C   0  0  0  0  0  0  0  0  0  0  0  0
   17.8741   28.4513   -4.2168 N   0  0  0  0  0  0  0  0  0  0  0  0
   10.1939   23.4753   -1.7704 C   0  0  0  0  0  0  0  0  0  0  0  0
   10.8160   22.5691   -0.8570 N   0  0  0  0  0  0  0  0  0  0  0  0
    9.9866   21.5889   -0.1874 C   0  0  0  0  0  0  0  0  0  0  0  0
 18 19  1  0  0  0
 19 20  1  0  0  0
 19  1  1  0  0  0
  1  2  1  0  0  0
  2  3  2  0  0  0
  3 10  1  0  0  0
 10 11  2  0  0  0
 11 12  1  0  0  0
 12 13  2  0  0  0
 13 14  1  0  0  0
 14 15  2  0  0  0
 13 16  1  0  0  0
 16 17  3  0  0  0
  3  4  1  0  0  0
  4  5  1  0  0  0
  5  6  2  0  0  0
  6  7  1  0  0  0
  7  8  2  0  0  0
  8  9  1  0  0  0
  9  1  2  0  0  0
 15 10  1  0  0  0
  8  4  1  0  0  0
M  END
> <minimizedAffinity>
-3.29652

> <CNNscore>
0.5494843721

> <CNNaffinity>
6.7001829147

> <CNN_VS>
3.6816458702

> <CNNaffinity_variance>
0.6892227530

$$$$
[H]c1nc2nc(N(C([H])([H])[H])C([H])([H])[H])c([H])c(-c3c([H])c([H])c(C#N)c([H])c3[H])n2n1


 20 22  0  0  0  0  0  0  0  0999 V2000
   14.2233   22.2968    0.0218 C   0  0  0  0  0  0  0  0  0  0  0  0
   14.5866   23.0241   -1.0900 C   0  0  0  0  0  0  0  0  0  0  0  0
   13.6842   23.8364   -1.7650 C   0  0  0  0  0  0  0  0  0  0  0  0
   12.4108   23.9433   -1.3542 N   0  0  0  0  0  0  0  0  0  0  0  0
   11.3523   24.6158   -1.7934 N   0  0  0  0  0  0  0  0  0  0  0  0
   10.3339   24.3289   -0.9842 C   0  0  0  0  0  0  0  0  0  0  0  0
   10.7568   23.4783   -0.0418 N   0  0  0  0  0  0  0  0  0  0  0  0
   12.0627   23.2310   -0.2687 C   0  0  0  0  0  0  0  0  0  0  0  0
   12.9443   22.4265    0.4057 N   0  0  0  0  0  0  0  0  0  0  0  0
   14.1480   24.5432   -2.9374 C   0  0  0  0  0  0  0  0  0  0  0  0
   13.6819   25.7677   -3.2787 C   0  0  0  0  0  0  0  0  0  0  0  0
   14.1582   26.3913   -4.4416 C   0  0  0  0  0  0  0  0  0  0  0  0
   15.0937   25.7464   -5.2164 C   0  0  0  0  0  0  0  0  0  0  0  0
   15.5802   24.4961   -4.8812 C   0  0  0  0  0  0  0  0  0  0  0  0
   15.1021   23.9123   -3.7488 C   0  0  0  0  0  0  0  0  0  0  0  0
   15.5694   26.4036   -6.4053 C   0  0  0  0  0  0  0  0  0  0  0  0
   15.9669   26.9240   -7.3658 N   0  0  0  0  0  0  0  0  0  0  0  0
   14.9129   20.0545    0.8455 C   0  0  0  0  0  0  0  0  0  0  0  0
   15.1446   21.4594    0.7218 N   0  0  0  0  0  0  0  0  0  0  0  0
   16.3382   22.0158    1.3240 C   0  0  0  0  0  0  0  0  0  0  0  0
 18 19  1  0  0  0
 19 20  1  0  0  0
 19  1  1  0  0  0
  1  2  1  0  0  0
  2  3  2  0  0  0
  3 10  1  0  0  0
 10 11  2  0  0  0
 11 12  1  0  0  0
 12 13  2  0  0  0
 13 14  1  0  0  0
 14 15  2  0  0  0
 13 16  1  0  0  0
 16 17  3  0  0  0
  3  4  1  0  0  0
  4  5  1  0  0  0
  5  6  2  0  0  0
  6  7  1  0  0  0
  7  8  2  0  0  0
  8  9  1  0  0  0
  9  1  2  0  0  0
 15 10  1  0  0  0
  8  4  1  0  0  0
M  END
> <minimizedAffinity>
-6.69692

> <CNNscore>
0.5271697044

> <CNNaffinity>
6.6656675339

> <CNN_VS>
3.5139379501

> <CNNaffinity_variance>
0.3889902234

$$$$
[H]c1nc2nc(N(C([H])([H])[H])C([H])([H])[H])c([H])c(-c3c([H])c([H])c(C#N)c([H])c3[H])n2n1


 20 22  0  0  0  0  0  0  0  0999 V2000
   14.3286   25.5170   -3.0655 C   0  0  0  0  0  0  0  0  0  0  0  0
   13.1964   25.1135   -2.3929 C   0  0  0  0  0  0  0  0  0  0  0  0
   13.2546   24.5615   -1.1194 C   0  0  0  0  0  0  0  0  0  0  0  0
   14.4293   24.3989   -0.4908 N   0  0  0  0  0  0  0  0  0  0  0  0
   14.7836   23.9057    0.6911 N   0  0  0  0  0  0  0  0  0  0  0  0
   16.1101   23.9903    0.7769 C   0  0  0  0  0  0  0  0  0  0  0  0
   16.5824   24.5354   -0.3501 N   0  0  0  0  0  0  0  0  0  0  0  0
   15.5303   24.7946   -1.1525 C   0  0  0  0  0  0  0  0  0  0  0  0
   15.4854   25.3409   -2.4090 N   0  0  0  0  0  0  0  0  0  0  0  0
   12.0171   24.1432   -0.5007 C   0  0  0  0  0  0  0  0  0  0  0  0
   11.2453   23.1568   -1.0150 C   0  0  0  0  0  0  0  0  0  0  0  0
   10.0442   22.8125   -0.3772 C   0  0  0  0  0  0  0  0  0  0  0  0
    9.6709   23.4845    0.7632 C   0  0  0  0  0  0  0  0  0  0  0  0
   10.4482   24.4936    1.3014 C   0  0  0  0  0  0  0  0  0  0  0  0
   11.6083   24.8091    0.6639 C   0  0  0  0  0  0  0  0  0  0  0  0
    8.4350   23.1159    1.4023 C   0  0  0  0  0  0  0  0  0  0  0  0
    7.4370   22.8326    1.9268 N   0  0  0  0  0  0  0  0  0  0  0  0
   13.3023   27.0751   -4.7090 C   0  0  0  0  0  0  0  0  0  0  0  0
   14.2779   26.0856   -4.3748 N   0  0  0  0  0  0  0  0  0  0  0  0
   15.2167   25.6717   -5.3968 C   0  0  0  0  0  0  0  0  0  0  0  0
 18 19  1  0  0  0
 19 20  1  0  0  0
 19  1  1  0  0  0
  1  2  1  0  0  0
  2  3  2  0  0  0
  3 10  1  0  0  0
 10 11  2  0  0  0
 11 12  1  0  0  0
 12 13  2  0  0  0
 13 14  1  0  0  0
 14 15  2  0  0  0
 13 16  1  0  0  0
 16 17  3  0  0  0
  3  4  1  0  0  0
  4  5  1  0  0  0
  5  6  2  0  0  0
  6  7  1  0  0  0
  7  8  2  0  0  0
  8  9  1  0  0  0
  9  1  2  0  0  0
 15 10  1  0  0  0
  8  4  1  0  0  0
M  END
> <minimizedAffinity>
-6.36778

> <CNNscore>
0.4742550254

> <CNNaffinity>
6.3734359741

> <CNN_VS>
3.0226340294

> <CNNaffinity_variance>
0.0722321495

$$$$
[H]c1nc2nc(N(C([H])([H])[H])C([H])([H])[H])c([H])c(-c3c([H])c([H])c(C#N)c([H])c3[H])n2n1


 20 22  0  0  0  0  0  0  0  0999 V2000
   14.6047   25.2656   -3.2879 C   0  0  0  0  0  0  0  0  0  0  0  0
   13.5288   24.5762   -2.7738 C   0  0  0  0  0  0  0  0  0  0  0  0
   13.5462   24.0321   -1.4957 C   0  0  0  0  0  0  0  0  0  0  0  0
   14.6243   24.1593   -0.7061 N   0  0  0  0  0  0  0  0  0  0  0  0
   14.9230   23.7488    0.5218 N   0  0  0  0  0  0  0  0  0  0  0  0
   16.1596   24.1641    0.7911 C   0  0  0  0  0  0  0  0  0  0  0  0
   16.6314   24.8326   -0.2677 N   0  0  0  0  0  0  0  0  0  0  0  0
   15.6707   24.8332   -1.2137 C   0  0  0  0  0  0  0  0  0  0  0  0
   15.6651   25.3748   -2.4731 N   0  0  0  0  0  0  0  0  0  0  0  0
   12.3808   23.3028   -1.0494 C   0  0  0  0  0  0  0  0  0  0  0  0
   12.3165   21.9507   -1.0757 C   0  0  0  0  0  0  0  0  0  0  0  0
   11.1474   21.3039   -0.6478 C   0  0  0  0  0  0  0  0  0  0  0  0
   10.0843   22.0569   -0.2071 C   0  0  0  0  0  0  0  0  0  0  0  0
   10.1345   23.4384   -0.1735 C   0  0  0  0  0  0  0  0  0  0  0  0
   11.2794   24.0419   -0.5942 C   0  0  0  0  0  0  0  0  0  0  0  0
    8.8942   21.3739    0.2277 C   0  0  0  0  0  0  0  0  0  0  0  0
    7.9406   20.8188    0.5933 N   0  0  0  0  0  0  0  0  0  0  0  0
   15.4190   25.2895   -5.6370 C   0  0  0  0  0  0  0  0  0  0  0  0
   14.5953   25.8283   -4.6006 N   0  0  0  0  0  0  0  0  0  0  0  0
   13.7485   26.9607   -4.9130 C   0  0  0  0  0  0  0  0  0  0  0  0
 18 19  1  0  0  0
 19 20  1  0  0  0
 19  1  1  0  0  0
  1  2  1  0  0  0
  2  3  2  0  0  0
  3 10  1  0  0  0
 10 11  2  0  0  0
 11 12  1  0  0  0
 12 13  2  0  0  0
 13 14  1  0  0  0
 14 15  2  0  0  0
 13 16  1  0  0  0
 16 17  3  0  0  0
  3  4  1  0  0  0
  4  5  1  0  0  0
  5  6  2  0  0  0
  6  7  1  0  0  0
  7  8  2  0  0  0
  8  9  1  0  0  0
  9  1  2  0  0  0
 15 10  1  0  0  0
  8  4  1  0  0  0
M  END
> <minimizedAffinity>
-6.00739

> <CNNscore>
0.4343547523

> <CNNaffinity>
6.4113807678

> <CNN_VS>
2.7848136425

> <CNNaffinity_variance>
0.1404552758

$$$$
[H]c1nc2nc(N(C([H])([H])[H])C([H])([H])[H])c([H])c(-c3c([H])c([H])c(C#N)c([H])c3[H])n2n1


 20 22  0  0  0  0  0  0  0  0999 V2000
   15.0847   25.9493   -5.7602 C   0  0  0  0  0  0  0  0  0  0  0  0
   15.1834   24.9275   -4.8419 C   0  0  0  0  0  0  0  0  0  0  0  0
   14.4017   24.8917   -3.6940 C   0  0  0  0  0  0  0  0  0  0  0  0
   13.5118   25.8625   -3.4346 N   0  0  0  0  0  0  0  0  0  0  0  0
   12.6587   26.0918   -2.4421 N   0  0  0  0  0  0  0  0  0  0  0  0
   12.0267   27.2320   -2.7152 C   0  0  0  0  0  0  0  0  0  0  0  0
   12.4853   27.7132   -3.8765 N   0  0  0  0  0  0  0  0  0  0  0  0
   13.4204   26.8567   -4.3346 C   0  0  0  0  0  0  0  0  0  0  0  0
   14.1860   26.9026   -5.4709 N   0  0  0  0  0  0  0  0  0  0  0  0
   14.5917   23.7932   -2.7740 C   0  0  0  0  0  0  0  0  0  0  0  0
   14.7444   22.5144   -3.1918 C   0  0  0  0  0  0  0  0  0  0  0  0
   14.9040   21.4906   -2.2460 C   0  0  0  0  0  0  0  0  0  0  0  0
   14.9034   21.8049   -0.9072 C   0  0  0  0  0  0  0  0  0  0  0  0
   14.7492   23.1058   -0.4644 C   0  0  0  0  0  0  0  0  0  0  0  0
   14.5958   24.0806   -1.4014 C   0  0  0  0  0  0  0  0  0  0  0  0
   15.0686   20.7398    0.0469 C   0  0  0  0  0  0  0  0  0  0  0  0
   15.1867   19.8826    0.8231 N   0  0  0  0  0  0  0  0  0  0  0  0
   15.9561   24.8712   -7.8242 C   0  0  0  0  0  0  0  0  0  0  0  0
   15.8843   25.9940   -6.9428 N   0  0  0  0  0  0  0  0  0  0  0  0
   16.6428   27.1813   -7.2774 C   0  0  0  0  0  0  0  0  0  0  0  0
 18 19  1  0  0  0
 19 20  1  0  0  0
 19  1  1  0  0  0
  1  2  1  0  0  0
  2  3  2  0  0  0
  3 10  1  0  0  0
 10 11  2  0  0  0
 11 12  1  0  0  0
 12 13  2  0  0  0
 13 14  1  0  0  0
 14 15  2  0  0  0
 13 16  1  0  0  0
 16 17  3  0  0  0
  3  4  1  0  0  0
  4  5  1  0  0  0
  5  6  2  0  0  0
  6  7  1  0  0  0
  7  8  2  0  0  0
  8  9  1  0  0  0
  9  1  2  0  0  0
 15 10  1  0  0  0
  8  4  1  0  0  0
M  END
> <minimizedAffinity>
-0.15124

> <CNNscore>
0.3256676495

> <CNNaffinity>
5.7606515884

> <CNN_VS>
1.8760578632

> <CNNaffinity_variance>
0.5250271559

$$$$
[H]c1nc2nc(N(C([H])([H])[H])C([H])([H])[H])c([H])c(-c3c([H])c([H])c(C#N)c([H])c3[H])n2n1


 20 22  0  0  0  0  0  0  0  0999 V2000
   12.0322   23.3301    0.3756 C   0  0  0  0  0  0  0  0  0  0  0  0
   12.6520   24.2350   -0.4575 C   0  0  0  0  0  0  0  0  0  0  0  0
   13.4927   23.8313   -1.4871 C   0  0  0  0  0  0  0  0  0  0  0  0
   13.7349   22.5300   -1.7101 N   0  0  0  0  0  0  0  0  0  0  0  0
   14.4792   21.8668   -2.5886 N   0  0  0  0  0  0  0  0  0  0  0  0
   14.3413   20.5679   -2.3276 C   0  0  0  0  0  0  0  0  0  0  0  0
   13.5122   20.4215   -1.2876 N   0  0  0  0  0  0  0  0  0  0  0  0
   13.1271   21.6521   -0.8937 C   0  0  0  0  0  0  0  0  0  0  0  0
   12.2953   22.0384    0.1252 N   0  0  0  0  0  0  0  0  0  0  0  0
   14.1198   24.8526   -2.2952 C   0  0  0  0  0  0  0  0  0  0  0  0
   15.4591   25.0507   -2.3040 C   0  0  0  0  0  0  0  0  0  0  0  0
   16.0033   26.0735   -3.0951 C   0  0  0  0  0  0  0  0  0  0  0  0
   15.1644   26.8588   -3.8507 C   0  0  0  0  0  0  0  0  0  0  0  0
   13.7946   26.6688   -3.8532 C   0  0  0  0  0  0  0  0  0  0  0  0
   13.2915   25.6705   -3.0771 C   0  0  0  0  0  0  0  0  0  0  0  0
   15.7428   27.9025   -4.6555 C   0  0  0  0  0  0  0  0  0  0  0  0
   16.2176   28.7340   -5.3148 N   0  0  0  0  0  0  0  0  0  0  0  0
   10.5773   22.7740    2.3136 C   0  0  0  0  0  0  0  0  0  0  0  0
   11.1664   23.7363    1.4364 N   0  0  0  0  0  0  0  0  0  0  0  0
   10.8647   25.1367    1.6486 C   0  0  0  0  0  0  0  0  0  0  0  0
 18 19  1  0  0  0
 19 20  1  0  0  0
 19  1  1  0  0  0
  1  2  1  0  0  0
  2  3  2  0  0  0
  3 10  1  0  0  0
 10 11  2  0  0  0
 11 12  1  0  0  0
 12 13  2  0  0  0
 13 14  1  0  0  0
 14 15  2  0  0  0
 13 16  1  0  0  0
 16 17  3  0  0  0
  3  4  1  0  0  0
  4  5  1  0  0  0
  5  6  2  0  0  0
  6  7  1  0  0  0
  7  8  2  0  0  0
  8  9  1  0  0  0
  9  1  2  0  0  0
 15 10  1  0  0  0
  8  4  1  0  0  0
M  END
> <minimizedAffinity>
-5.86755

> <CNNscore>
0.2912040055

> <CNNaffinity>
5.9773092270

> <CNN_VS>
1.7406164408

> <CNNaffinity_variance>
0.0664472803

$$$$
[H]c1nc2c([H])c(N([H])C(=O)OC([H])([H])[H])c([H])c(-c3c([H])c([H])c(C#N)c([H])c3C([H])([H])[H])n2n1


 24 26  0  0  0  0  0  0  0  0999 V2000
   15.3237   24.9058   -3.5346 C   0  0  0  0  0  0  0  0  0  0  0  0
   14.2455   24.1149   -3.1264 C   0  0  0  0  0  0  0  0  0  0  0  0
   14.0596   23.6845   -1.8388 C   0  0  0  0  0  0  0  0  0  0  0  0
   14.9607   24.0378   -0.9062 N   0  0  0  0  0  0  0  0  0  0  0  0
   15.0413   23.7707    0.4142 N   0  0  0  0  0  0  0  0  0  0  0  0
   16.1439   24.3643    0.8880 C   0  0  0  0  0  0  0  0  0  0  0  0
   16.7548   24.9992   -0.1170 N   0  0  0  0  0  0  0  0  0  0  0  0
   16.0077   24.7905   -1.2388 C   0  0  0  0  0  0  0  0  0  0  0  0
   16.2063   25.2349   -2.5506 C   0  0  0  0  0  0  0  0  0  0  0  0
   12.9262   22.8612   -1.4441 C   0  0  0  0  0  0  0  0  0  0  0  0
   13.0226   21.4835   -1.3096 C   0  0  0  0  0  0  0  0  0  0  0  0
   11.9288   20.7314   -0.9336 C   0  0  0  0  0  0  0  0  0  0  0  0
   10.7416   21.3905   -0.6970 C   0  0  0  0  0  0  0  0  0  0  0  0
   10.6209   22.7725   -0.8256 C   0  0  0  0  0  0  0  0  0  0  0  0
   11.7304   23.5107   -1.2040 C   0  0  0  0  0  0  0  0  0  0  0  0
   11.6108   24.9865   -1.3438 C   0  0  0  0  0  0  0  0  0  0  0  0
    9.6042   20.6170   -0.3071 C   0  0  0  0  0  0  0  0  0  0  0  0
    8.6609   19.9999    0.0143 N   0  0  0  0  0  0  0  0  0  0  0  0
   14.9154   26.4834   -5.4701 C   0  0  0  0  0  0  0  0  0  0  0  0
   14.3039   27.4023   -4.8870 O   0  0  0  0  0  0  0  0  0  0  0  0
   15.4163   25.2926   -4.8915 N   0  0  0  0  0  0  0  0  0  0  0  0
   15.9220   24.6012   -5.5379 H   0  0  0  0  0  0  0  0  0  0  0  0
   15.6507   25.6634   -7.6692 C   0  0  0  0  0  0  0  0  0  0  0  0
   15.1107   26.6905   -6.8636 O   0  0  0  0  0  0  0  0  0  0  0  0
 23 24  1  0  0  0
 24 19  1  0  0  0
 19 20  2  0  0  0
 19 21  1  0  0  0
 21  1  1  0  0  0
  1  2  1  0  0  0
  2  3  2  0  0  0
  3 10  1  0  0  0
 10 11  2  0  0  0
 11 12  1  0  0  0
 12 13  2  0  0  0
 13 14  1  0  0  0
 14 15  2  0  0  0
 15 16  1  0  0  0
 13 17  1  0  0  0
 17 18  3  0  0  0
  3  4  1  0  0  0
  4  5  1  0  0  0
  5  6  2  0  0  0
  6  7  1  0  0  0
  7  8  2  0  0  0
  8  9  1  0  0  0
  9  1  2  0  0  0
 15 10  1  0  0  0
  8  4  1  0  0  0
 21 22  1  0  0  0
M  END
> <minimizedAffinity>
-7.76696

> <CNNscore>
0.9084757566

> <CNNaffinity>
7.3106584549

> <CNN_VS>
6.6415557861

> <CNNaffinity_variance>
0.1674111485

$$$$
[H]c1nc2c([H])c(N([H])C(=O)OC([H])([H])[H])c([H])c(-c3c([H])c([H])c(C#N)c([H])c3C([H])([H])[H])n2n1


 24 26  0  0  0  0  0  0  0  0999 V2000
   11.5141   23.9836   -0.5676 C   0  0  0  0  0  0  0  0  0  0  0  0
   12.0845   24.4035   -1.7731 C   0  0  0  0  0  0  0  0  0  0  0  0
   13.4133   24.7017   -1.9251 C   0  0  0  0  0  0  0  0  0  0  0  0
   14.2241   24.5871   -0.8593 N   0  0  0  0  0  0  0  0  0  0  0  0
   15.5471   24.8062   -0.7073 N   0  0  0  0  0  0  0  0  0  0  0  0
   15.8646   24.5421    0.5662 C   0  0  0  0  0  0  0  0  0  0  0  0
   14.7593   24.1607    1.2137 N   0  0  0  0  0  0  0  0  0  0  0  0
   13.7347   24.1911    0.3142 C   0  0  0  0  0  0  0  0  0  0  0  0
   12.3796   23.8843    0.4795 C   0  0  0  0  0  0  0  0  0  0  0  0
   13.9781   25.1368   -3.1938 C   0  0  0  0  0  0  0  0  0  0  0  0
   13.7079   26.3855   -3.7355 C   0  0  0  0  0  0  0  0  0  0  0  0
   14.2596   26.7678   -4.9410 C   0  0  0  0  0  0  0  0  0  0  0  0
   15.0844   25.8725   -5.5873 C   0  0  0  0  0  0  0  0  0  0  0  0
   15.3702   24.6137   -5.0630 C   0  0  0  0  0  0  0  0  0  0  0  0
   14.8069   24.2478   -3.8513 C   0  0  0  0  0  0  0  0  0  0  0  0
   15.1062   22.9061   -3.2841 C   0  0  0  0  0  0  0  0  0  0  0  0
   15.6593   26.2624   -6.8369 C   0  0  0  0  0  0  0  0  0  0  0  0
   16.1368   26.5630   -7.8643 N   0  0  0  0  0  0  0  0  0  0  0  0
    9.2896   23.7458    0.6142 C   0  0  0  0  0  0  0  0  0  0  0  0
    9.6217   24.0387    1.7813 O   0  0  0  0  0  0  0  0  0  0  0  0
   10.1289   23.7027   -0.5248 N   0  0  0  0  0  0  0  0  0  0  0  0
    9.6813   23.4301   -1.4613 H   0  0  0  0  0  0  0  0  0  0  0  0
    7.4403   22.1299    0.7482 C   0  0  0  0  0  0  0  0  0  0  0  0
    7.9131   23.4273    0.4505 O   0  0  0  0  0  0  0  0  0  0  0  0
 23 24  1  0  0  0
 24 19  1  0  0  0
 19 20  2  0  0  0
 19 21  1  0  0  0
 21  1  1  0  0  0
  1  2  1  0  0  0
  2  3  2  0  0  0
  3 10  1  0  0  0
 10 11  2  0  0  0
 11 12  1  0  0  0
 12 13  2  0  0  0
 13 14  1  0  0  0
 14 15  2  0  0  0
 15 16  1  0  0  0
 13 17  1  0  0  0
 17 18  3  0  0  0
  3  4  1  0  0  0
  4  5  1  0  0  0
  5  6  2  0  0  0
  6  7  1  0  0  0
  7  8  2  0  0  0
  8  9  1  0  0  0
  9  1  2  0  0  0
 15 10  1  0  0  0
  8  4  1  0  0  0
 21 22  1  0  0  0
M  END
> <minimizedAffinity>
-9.02717

> <CNNscore>
0.8355189562

> <CNNaffinity>
7.0339660645

> <CNN_VS>
5.8770117760

> <CNNaffinity_variance>
0.0733967274

$$$$
[H]c1nc2c([H])c(N([H])C(=O)OC([H])([H])[H])c([H])c(-c3c([H])c([H])c(C#N)c([H])c3C([H])([H])[H])n2n1


 24 26  0  0  0  0  0  0  0  0999 V2000
   11.1314   21.3005   -0.8522 C   0  0  0  0  0  0  0  0  0  0  0  0
   11.7194   22.3120   -1.6175 C   0  0  0  0  0  0  0  0  0  0  0  0
   12.9993   22.7641   -1.4299 C   0  0  0  0  0  0  0  0  0  0  0  0
   13.7410   22.2093   -0.4559 N   0  0  0  0  0  0  0  0  0  0  0  0
   15.0050   22.4418   -0.0441 N   0  0  0  0  0  0  0  0  0  0  0  0
   15.2665   21.6107    0.9724 C   0  0  0  0  0  0  0  0  0  0  0  0
   14.1842   20.8610    1.2029 N   0  0  0  0  0  0  0  0  0  0  0  0
   13.2318   21.2415    0.3039 C   0  0  0  0  0  0  0  0  0  0  0  0
   11.9261   20.7731    0.1202 C   0  0  0  0  0  0  0  0  0  0  0  0
   13.5842   23.8197   -2.2433 C   0  0  0  0  0  0  0  0  0  0  0  0
   14.6472   23.5882   -3.1047 C   0  0  0  0  0  0  0  0  0  0  0  0
   15.1791   24.6112   -3.8625 C   0  0  0  0  0  0  0  0  0  0  0  0
   14.6224   25.8658   -3.7365 C   0  0  0  0  0  0  0  0  0  0  0  0
   13.5551   26.1221   -2.8786 C   0  0  0  0  0  0  0  0  0  0  0  0
   13.0345   25.0821   -2.1257 C   0  0  0  0  0  0  0  0  0  0  0  0
   11.8952   25.3465   -1.2072 C   0  0  0  0  0  0  0  0  0  0  0  0
   15.1689   26.9303   -4.5189 C   0  0  0  0  0  0  0  0  0  0  0  0
   15.6330   27.7916   -5.1645 N   0  0  0  0  0  0  0  0  0  0  0  0
    8.7438   20.7721   -0.2027 C   0  0  0  0  0  0  0  0  0  0  0  0
    8.7971   20.9653    1.0294 O   0  0  0  0  0  0  0  0  0  0  0  0
    9.8010   20.9125   -1.1334 N   0  0  0  0  0  0  0  0  0  0  0  0
    9.5855   20.7065   -2.1643 H   0  0  0  0  0  0  0  0  0  0  0  0
    7.3488   19.7366   -1.9436 C   0  0  0  0  0  0  0  0  0  0  0  0
    7.4683   20.3691   -0.6862 O   0  0  0  0  0  0  0  0  0  0  0  0
 23 24  1  0  0  0
 24 19  1  0  0  0
 19 20  2  0  0  0
 19 21  1  0  0  0
 21  1  1  0  0  0
  1  2  1  0  0  0
  2  3  2  0  0  0
  3 10  1  0  0  0
 10 11  2  0  0  0
 11 12  1  0  0  0
 12 13  2  0  0  0
 13 14  1  0  0  0
 14 15  2  0  0  0
 15 16  1  0  0  0
 13 17  1  0  0  0
 17 18  3  0  0  0
  3  4  1  0  0  0
  4  5  1  0  0  0
  5  6  2  0  0  0
  6  7  1  0  0  0
  7  8  2  0  0  0
  8  9  1  0  0  0
  9  1  2  0  0  0
 15 10  1  0  0  0
  8  4  1  0  0  0
 21 22  1  0  0  0
M  END
> <minimizedAffinity>
-8.18904

> <CNNscore>
0.7312745452

> <CNNaffinity>
7.1977601051

> <CNN_VS>
5.2635388374

> <CNNaffinity_variance>
0.4362939298

$$$$
[H]c1nc2c([H])c(N([H])C(=O)OC([H])([H])[H])c([H])c(-c3c([H])c([H])c(C#N)c([H])c3C([H])([H])[H])n2n1


 24 26  0  0  0  0  0  0  0  0999 V2000
   15.2115   25.0444   -3.8377 C   0  0  0  0  0  0  0  0  0  0  0  0
   16.0940   25.0521   -2.7533 C   0  0  0  0  0  0  0  0  0  0  0  0
   15.9233   24.2926   -1.6256 C   0  0  0  0  0  0  0  0  0  0  0  0
   14.8480   23.4900   -1.5474 N   0  0  0  0  0  0  0  0  0  0  0  0
   14.4237   22.6450   -0.5845 N   0  0  0  0  0  0  0  0  0  0  0  0
   13.2850   22.0800   -1.0047 C   0  0  0  0  0  0  0  0  0  0  0  0
   12.9902   22.5593   -2.2170 N   0  0  0  0  0  0  0  0  0  0  0  0
   13.9741   23.4426   -2.5512 C   0  0  0  0  0  0  0  0  0  0  0  0
   14.1396   24.2142   -3.7067 C   0  0  0  0  0  0  0  0  0  0  0  0
   16.8600   24.3223   -0.5122 C   0  0  0  0  0  0  0  0  0  0  0  0
   18.1609   23.8528   -0.6259 C   0  0  0  0  0  0  0  0  0  0  0  0
   19.0245   23.8952    0.4493 C   0  0  0  0  0  0  0  0  0  0  0  0
   18.5549   24.4168    1.6355 C   0  0  0  0  0  0  0  0  0  0  0  0
   17.2532   24.8941    1.7734 C   0  0  0  0  0  0  0  0  0  0  0  0
   16.4007   24.8432    0.6825 C   0  0  0  0  0  0  0  0  0  0  0  0
   15.0096   25.3504    0.8205 C   0  0  0  0  0  0  0  0  0  0  0  0
   19.4447   24.4636    2.7536 C   0  0  0  0  0  0  0  0  0  0  0  0
   20.1583   24.5033    3.6826 N   0  0  0  0  0  0  0  0  0  0  0  0
   14.6397   26.8628   -5.5014 C   0  0  0  0  0  0  0  0  0  0  0  0
   13.5022   27.1854   -5.1009 O   0  0  0  0  0  0  0  0  0  0  0  0
   15.4863   25.8702   -4.9521 N   0  0  0  0  0  0  0  0  0  0  0  0
   16.4400   25.7171   -5.4196 H   0  0  0  0  0  0  0  0  0  0  0  0
   16.0236   28.6496   -6.4716 C   0  0  0  0  0  0  0  0  0  0  0  0
   15.1005   27.5924   -6.6320 O   0  0  0  0  0  0  0  0  0  0  0  0
 23 24  1  0  0  0
 24 19  1  0  0  0
 19 20  2  0  0  0
 19 21  1  0  0  0
 21  1  1  0  0  0
  1  2  1  0  0  0
  2  3  2  0  0  0
  3 10  1  0  0  0
 10 11  2  0  0  0
 11 12  1  0  0  0
 12 13  2  0  0  0
 13 14  1  0  0  0
 14 15  2  0  0  0
 15 16  1  0  0  0
 13 17  1  0  0  0
 17 18  3  0  0  0
  3  4  1  0  0  0
  4  5  1  0  0  0
  5  6  2  0  0  0
  6  7  1  0  0  0
  7  8  2  0  0  0
  8  9  1  0  0  0
  9  1  2  0  0  0
 15 10  1  0  0  0
  8  4  1  0  0  0
 21 22  1  0  0  0
M  END
> <minimizedAffinity>
9.46448

> <CNNscore>
0.6121222377

> <CNNaffinity>
6.6459336281

> <CNN_VS>
4.0681238174

> <CNNaffinity_variance>
0.5976216197

$$$$
[H]c1nc2c([H])c(N([H])C(=O)OC([H])([H])[H])c([H])c(-c3c([H])c([H])c(C#N)c([H])c3C([H])([H])[H])n2n1


 24 26  0  0  0  0  0  0  0  0999 V2000
   16.3894   25.4500   -4.2379 C   0  0  0  0  0  0  0  0  0  0  0  0
   15.5330   24.4882   -3.6935 C   0  0  0  0  0  0  0  0  0  0  0  0
   15.1888   24.4361   -2.3681 C   0  0  0  0  0  0  0  0  0  0  0  0
   15.6988   25.3590   -1.5345 N   0  0  0  0  0  0  0  0  0  0  0  0
   15.5446   25.5572   -0.2085 N   0  0  0  0  0  0  0  0  0  0  0  0
   16.2764   26.6241    0.1363 C   0  0  0  0  0  0  0  0  0  0  0  0
   16.8865   27.0966   -0.9550 N   0  0  0  0  0  0  0  0  0  0  0  0
   16.5200   26.2990   -1.9987 C   0  0  0  0  0  0  0  0  0  0  0  0
   16.8774   26.3605   -3.3502 C   0  0  0  0  0  0  0  0  0  0  0  0
   14.2943   23.4218   -1.8305 C   0  0  0  0  0  0  0  0  0  0  0  0
   13.3606   23.7054   -0.8439 C   0  0  0  0  0  0  0  0  0  0  0  0
   12.5268   22.7206   -0.3553 C   0  0  0  0  0  0  0  0  0  0  0  0
   12.6511   21.4509   -0.8769 C   0  0  0  0  0  0  0  0  0  0  0  0
   13.5809   21.1426   -1.8676 C   0  0  0  0  0  0  0  0  0  0  0  0
   14.4094   22.1448   -2.3457 C   0  0  0  0  0  0  0  0  0  0  0  0
   15.4049   21.8248   -3.4032 C   0  0  0  0  0  0  0  0  0  0  0  0
   11.7902   20.4258   -0.3749 C   0  0  0  0  0  0  0  0  0  0  0  0
   11.0804   19.5968    0.0527 N   0  0  0  0  0  0  0  0  0  0  0  0
   15.8444   25.8594   -6.6745 C   0  0  0  0  0  0  0  0  0  0  0  0
   14.7114   26.3727   -6.5692 O   0  0  0  0  0  0  0  0  0  0  0  0
   16.6765   25.4086   -5.6219 N   0  0  0  0  0  0  0  0  0  0  0  0
   17.6282   24.9891   -5.8863 H   0  0  0  0  0  0  0  0  0  0  0  0
   15.4375   25.3325   -9.0421 C   0  0  0  0  0  0  0  0  0  0  0  0
   16.3162   25.7302   -8.0101 O   0  0  0  0  0  0  0  0  0  0  0  0
 23 24  1  0  0  0
 24 19  1  0  0  0
 19 20  2  0  0  0
 19 21  1  0  0  0
 21  1  1  0  0  0
  1  2  1  0  0  0
  2  3  2  0  0  0
  3 10  1  0  0  0
 10 11  2  0  0  0
 11 12  1  0  0  0
 12 13  2  0  0  0
 13 14  1  0  0  0
 14 15  2  0  0  0
 15 16  1  0  0  0
 13 17  1  0  0  0
 17 18  3  0  0  0
  3  4  1  0  0  0
  4  5  1  0  0  0
  5  6  2  0  0  0
  6  7  1  0  0  0
  7  8  2  0  0  0
  8  9  1  0  0  0
  9  1  2  0  0  0
 15 10  1  0  0  0
  8  4  1  0  0  0
 21 22  1  0  0  0
M  END
> <minimizedAffinity>
6.11738

> <CNNscore>
0.5809346437

> <CNNaffinity>
6.6326980591

> <CNN_VS>
3.8531641960

> <CNNaffinity_variance>
1.3274739981

$$$$
[H]c1nc2c([H])c(N([H])C(=O)OC([H])([H])[H])c([H])c(-c3c([H])c([H])c(C#N)c([H])c3C([H])([H])[H])n2n1


 24 26  0  0  0  0  0  0  0  0999 V2000
   14.7671   22.8203   -3.8936 C   0  0  0  0  0  0  0  0  0  0  0  0
   14.5445   23.4644   -2.6728 C   0  0  0  0  0  0  0  0  0  0  0  0
   14.8810   24.7698   -2.4266 C   0  0  0  0  0  0  0  0  0  0  0  0
   15.4592   25.4812   -3.4095 N   0  0  0  0  0  0  0  0  0  0  0  0
   15.8917   26.7585   -3.4613 N   0  0  0  0  0  0  0  0  0  0  0  0
   16.3937   26.9742   -4.6835 C   0  0  0  0  0  0  0  0  0  0  0  0
   16.2816   25.8501   -5.3978 N   0  0  0  0  0  0  0  0  0  0  0  0
   15.6949   24.9183   -4.5932 C   0  0  0  0  0  0  0  0  0  0  0  0
   15.3552   23.5863   -4.8543 C   0  0  0  0  0  0  0  0  0  0  0  0
   14.6365   25.4131   -1.1443 C   0  0  0  0  0  0  0  0  0  0  0  0
   15.6523   25.6514   -0.2295 C   0  0  0  0  0  0  0  0  0  0  0  0
   15.3872   26.2638    0.9781 C   0  0  0  0  0  0  0  0  0  0  0  0
   14.0855   26.6295    1.2454 C   0  0  0  0  0  0  0  0  0  0  0  0
   13.0493   26.4007    0.3426 C   0  0  0  0  0  0  0  0  0  0  0  0
   13.3351   25.7846   -0.8649 C   0  0  0  0  0  0  0  0  0  0  0  0
   12.2354   25.5363   -1.8347 C   0  0  0  0  0  0  0  0  0  0  0  0
   13.8039   27.2645    2.4950 C   0  0  0  0  0  0  0  0  0  0  0  0
   13.5613   27.7694    3.5247 N   0  0  0  0  0  0  0  0  0  0  0  0
   14.6486   20.6208   -5.1384 C   0  0  0  0  0  0  0  0  0  0  0  0
   15.2744   20.9155   -6.1775 O   0  0  0  0  0  0  0  0  0  0  0  0
   14.3795   21.4680   -4.0368 N   0  0  0  0  0  0  0  0  0  0  0  0
   13.8244   21.0548   -3.2167 H   0  0  0  0  0  0  0  0  0  0  0  0
   12.9758   18.9278   -5.7586 C   0  0  0  0  0  0  0  0  0  0  0  0
   14.1701   19.2821   -5.0926 O   0  0  0  0  0  0  0  0  0  0  0  0
 23 24  1  0  0  0
 24 19  1  0  0  0
 19 20  2  0  0  0
 19 21  1  0  0  0
 21  1  1  0  0  0
  1  2  1  0  0  0
  2  3  2  0  0  0
  3 10  1  0  0  0
 10 11  2  0  0  0
 11 12  1  0  0  0
 12 13  2  0  0  0
 13 14  1  0  0  0
 14 15  2  0  0  0
 15 16  1  0  0  0
 13 17  1  0  0  0
 17 18  3  0  0  0
  3  4  1  0  0  0
  4  5  1  0  0  0
  5  6  2  0  0  0
  6  7  1  0  0  0
  7  8  2  0  0  0
  8  9  1  0  0  0
  9  1  2  0  0  0
 15 10  1  0  0  0
  8  4  1  0  0  0
 21 22  1  0  0  0
M  END
> <minimizedAffinity>
15.46802

> <CNNscore>
0.5729081035

> <CNNaffinity>
6.3617486954

> <CNN_VS>
3.6446974277

> <CNNaffinity_variance>
0.8092104197

$$$$
[H]c1nc2c([H])c(N([H])C(=O)OC([H])([H])[H])c([H])c(-c3c([H])c([H])c(C#N)c([H])c3C([H])([H])[H])n2n1


 24 26  0  0  0  0  0  0  0  0999 V2000
   12.4787   27.1866   -3.9538 C   0  0  0  0  0  0  0  0  0  0  0  0
   12.0525   26.5094   -2.8073 C   0  0  0  0  0  0  0  0  0  0  0  0
   12.7091   25.4343   -2.2681 C   0  0  0  0  0  0  0  0  0  0  0  0
   13.8293   24.9975   -2.8688 N   0  0  0  0  0  0  0  0  0  0  0  0
   14.6715   23.9847   -2.5754 N   0  0  0  0  0  0  0  0  0  0  0  0
   15.6419   23.9756   -3.4977 C   0  0  0  0  0  0  0  0  0  0  0  0
   15.4193   24.9684   -4.3644 N   0  0  0  0  0  0  0  0  0  0  0  0
   14.2815   25.6050   -3.9642 C   0  0  0  0  0  0  0  0  0  0  0  0
   13.6182   26.7033   -4.5224 C   0  0  0  0  0  0  0  0  0  0  0  0
   12.2404   24.7495   -1.0726 C   0  0  0  0  0  0  0  0  0  0  0  0
   11.8850   25.4332    0.0815 C   0  0  0  0  0  0  0  0  0  0  0  0
   11.4442   24.7538    1.1985 C   0  0  0  0  0  0  0  0  0  0  0  0
   11.3687   23.3792    1.1312 C   0  0  0  0  0  0  0  0  0  0  0  0
   11.7200   22.6714   -0.0162 C   0  0  0  0  0  0  0  0  0  0  0  0
   12.1604   23.3710   -1.1279 C   0  0  0  0  0  0  0  0  0  0  0  0
   12.5375   22.6237   -2.3570 C   0  0  0  0  0  0  0  0  0  0  0  0
   10.9127   22.6692    2.2853 C   0  0  0  0  0  0  0  0  0  0  0  0
   10.5336   22.0715    3.2197 N   0  0  0  0  0  0  0  0  0  0  0  0
   10.4414   28.2379   -5.0242 C   0  0  0  0  0  0  0  0  0  0  0  0
    9.7530   27.2206   -5.2465 O   0  0  0  0  0  0  0  0  0  0  0  0
   11.7221   28.2851   -4.4232 N   0  0  0  0  0  0  0  0  0  0  0  0
   12.1795   29.2486   -4.3045 H   0  0  0  0  0  0  0  0  0  0  0  0
    8.6290   29.8913   -4.8489 C   0  0  0  0  0  0  0  0  0  0  0  0
    9.8419   29.4616   -5.4319 O   0  0  0  0  0  0  0  0  0  0  0  0
 23 24  1  0  0  0
 24 19  1  0  0  0
 19 20  2  0  0  0
 19 21  1  0  0  0
 21  1  1  0  0  0
  1  2  1  0  0  0
  2  3  2  0  0  0
  3 10  1  0  0  0
 10 11  2  0  0  0
 11 12  1  0  0  0
 12 13  2  0  0  0
 13 14  1  0  0  0
 14 15  2  0  0  0
 15 16  1  0  0  0
 13 17  1  0  0  0
 17 18  3  0  0  0
  3  4  1  0  0  0
  4  5  1  0  0  0
  5  6  2  0  0  0
  6  7  1  0  0  0
  7  8  2  0  0  0
  8  9  1  0  0  0
  9  1  2  0  0  0
 15 10  1  0  0  0
  8  4  1  0  0  0
 21 22  1  0  0  0
M  END
> <minimizedAffinity>
6.97587

> <CNNscore>
0.5685131550

> <CNNaffinity>
6.3656859398

> <CNN_VS>
3.6189761162

> <CNNaffinity_variance>
1.0670465231

$$$$
[H]c1nc2c([H])c(N([H])C(=O)OC([H])([H])[H])c([H])c(-c3c([H])c([H])c(C#N)c([H])c3C([H])([H])[H])n2n1


 24 26  0  0  0  0  0  0  0  0999 V2000
   13.7364   25.9516   -3.2439 C   0  0  0  0  0  0  0  0  0  0  0  0
   14.3107   24.8722   -2.5657 C   0  0  0  0  0  0  0  0  0  0  0  0
   13.6014   23.9972   -1.7852 C   0  0  0  0  0  0  0  0  0  0  0  0
   12.2757   24.1785   -1.6577 N   0  0  0  0  0  0  0  0  0  0  0  0
   11.3357   23.4947   -0.9720 N   0  0  0  0  0  0  0  0  0  0  0  0
   10.1567   24.0941   -1.1798 C   0  0  0  0  0  0  0  0  0  0  0  0
   10.3452   25.1435   -1.9858 N   0  0  0  0  0  0  0  0  0  0  0  0
   11.6757   25.1905   -2.2816 C   0  0  0  0  0  0  0  0  0  0  0  0
   12.3911   26.0892   -3.0806 C   0  0  0  0  0  0  0  0  0  0  0  0
   14.2279   22.8821   -1.0909 C   0  0  0  0  0  0  0  0  0  0  0  0
   14.1756   21.5834   -1.5770 C   0  0  0  0  0  0  0  0  0  0  0  0
   14.7803   20.5480   -0.8944 C   0  0  0  0  0  0  0  0  0  0  0  0
   15.4352   20.8444    0.2816 C   0  0  0  0  0  0  0  0  0  0  0  0
   15.5009   22.1402    0.7890 C   0  0  0  0  0  0  0  0  0  0  0  0
   14.8877   23.1668    0.0894 C   0  0  0  0  0  0  0  0  0  0  0  0
   14.9527   24.5532    0.6235 C   0  0  0  0  0  0  0  0  0  0  0  0
   16.0639   19.7760    0.9939 C   0  0  0  0  0  0  0  0  0  0  0  0
   16.5742   18.8874    1.5631 N   0  0  0  0  0  0  0  0  0  0  0  0
   15.2740   26.4350   -5.1942 C   0  0  0  0  0  0  0  0  0  0  0  0
   15.2942   25.3165   -5.7483 O   0  0  0  0  0  0  0  0  0  0  0  0
   14.5651   26.7923   -4.0223 N   0  0  0  0  0  0  0  0  0  0  0  0
   14.6560   27.8040   -3.6762 H   0  0  0  0  0  0  0  0  0  0  0  0
   16.6779   28.4513   -5.0820 C   0  0  0  0  0  0  0  0  0  0  0  0
   16.0590   27.4311   -5.8381 O   0  0  0  0  0  0  0  0  0  0  0  0
 23 24  1  0  0  0
 24 19  1  0  0  0
 19 20  2  0  0  0
 19 21  1  0  0  0
 21  1  1  0  0  0
  1  2  1  0  0  0
  2  3  2  0  0  0
  3 10  1  0  0  0
 10 11  2  0  0  0
 11 12  1  0  0  0
 12 13  2  0  0  0
 13 14  1  0  0  0
 14 15  2  0  0  0
 15 16  1  0  0  0
 13 17  1  0  0  0
 17 18  3  0  0  0
  3  4  1  0  0  0
  4  5  1  0  0  0
  5  6  2  0  0  0
  6  7  1  0  0  0
  7  8  2  0  0  0
  8  9  1  0  0  0
  9  1  2  0  0  0
 15 10  1  0  0  0
  8  4  1  0  0  0
 21 22  1  0  0  0
M  END
> <minimizedAffinity>
3.14428

> <CNNscore>
0.5564531684

> <CNNaffinity>
6.6075315475

> <CNN_VS>
3.6767818928

> <CNNaffinity_variance>
0.4736609459

$$$$
[H]c1nc2c([H])c(N([H])C(=O)OC([H])([H])[H])c([H])c(-c3c([H])c([H])c(C#N)c([H])c3C([H])([H])[H])n2n1


 24 26  0  0  0  0  0  0  0  0999 V2000
   13.2258   26.8832   -3.3586 C   0  0  0  0  0  0  0  0  0  0  0  0
   12.6538   26.0373   -2.4036 C   0  0  0  0  0  0  0  0  0  0  0  0
   13.0339   24.7345   -2.2132 C   0  0  0  0  0  0  0  0  0  0  0  0
   14.0128   24.2310   -2.9844 N   0  0  0  0  0  0  0  0  0  0  0  0
   14.5869   23.0104   -3.0271 N   0  0  0  0  0  0  0  0  0  0  0  0
   15.5223   23.0284   -3.9848 C   0  0  0  0  0  0  0  0  0  0  0  0
   15.5421   24.2431   -4.5423 N   0  0  0  0  0  0  0  0  0  0  0  0
   14.5934   24.9918   -3.9103 C   0  0  0  0  0  0  0  0  0  0  0  0
   14.2124   26.3229   -4.1124 C   0  0  0  0  0  0  0  0  0  0  0  0
   12.4190   23.8780   -1.2101 C   0  0  0  0  0  0  0  0  0  0  0  0
   11.2491   23.1728   -1.4547 C   0  0  0  0  0  0  0  0  0  0  0  0
   10.6915   22.3689   -0.4819 C   0  0  0  0  0  0  0  0  0  0  0  0
   11.3317   22.2893    0.7361 C   0  0  0  0  0  0  0  0  0  0  0  0
   12.5069   22.9878    1.0046 C   0  0  0  0  0  0  0  0  0  0  0  0
   13.0517   23.7900    0.0152 C   0  0  0  0  0  0  0  0  0  0  0  0
   14.3059   24.5393    0.2929 C   0  0  0  0  0  0  0  0  0  0  0  0
   10.7591   21.4581    1.7486 C   0  0  0  0  0  0  0  0  0  0  0  0
   10.3040   20.7628    2.5753 N   0  0  0  0  0  0  0  0  0  0  0  0
   11.6570   28.6612   -4.2412 C   0  0  0  0  0  0  0  0  0  0  0  0
   10.9109   27.9664   -4.9615 O   0  0  0  0  0  0  0  0  0  0  0  0
   12.7547   28.2119   -3.4687 N   0  0  0  0  0  0  0  0  0  0  0  0
   13.2957   28.9448   -2.9016 H   0  0  0  0  0  0  0  0  0  0  0  0
   11.9035   30.8939   -3.2396 C   0  0  0  0  0  0  0  0  0  0  0  0
   11.3393   30.0474   -4.2198 O   0  0  0  0  0  0  0  0  0  0  0  0
 23 24  1  0  0  0
 24 19  1  0  0  0
 19 20  2  0  0  0
 19 21  1  0  0  0
 21  1  1  0  0  0
  1  2  1  0  0  0
  2  3  2  0  0  0
  3 10  1  0  0  0
 10 11  2  0  0  0
 11 12  1  0  0  0
 12 13  2  0  0  0
 13 14  1  0  0  0
 14 15  2  0  0  0
 15 16  1  0  0  0
 13 17  1  0  0  0
 17 18  3  0  0  0
  3  4  1  0  0  0
  4  5  1  0  0  0
  5  6  2  0  0  0
  6  7  1  0  0  0
  7  8  2  0  0  0
  8  9  1  0  0  0
  9  1  2  0  0  0
 15 10  1  0  0  0
  8  4  1  0  0  0
 21 22  1  0  0  0
M  END
> <minimizedAffinity>
0.22601

> <CNNscore>
0.5241356492

> <CNNaffinity>
6.4082384109

> <CNN_VS>
3.3587861061

> <CNNaffinity_variance>
0.4673168659

$$$$
[H]OC(=O)c1c([H])c([H])c(-c2c([H])c([H])c(N3C(=O)N(c4nc([H])nc(OC([H])([H])[H])c4[H])C4(C3=O)C([H])([H])C([H])([H])N(C([H])([H])c3nc([H])c([H])c([H])c3C([H])([H])[H])C([H])([H])C4([H])[H])c([H])c2[H])c(Cl)c1[H]


 45 50  0  0  0  0  0  0  0  0999 V2000
   14.2487   26.9536   -3.5105 N   0  0  0  0  0  0  0  0  0  0  0  0
   14.1233   26.2569   -2.2531 C   0  0  0  0  0  0  0  0  0  0  0  0
   15.0633   26.1332   -1.4070 O   0  0  0  0  0  0  0  0  0  0  0  0
   12.7861   25.7570   -2.1575 N   0  0  0  0  0  0  0  0  0  0  0  0
   12.1458   26.1768   -3.3785 C   0  0  0  0  0  0  0  0  0  0  0  0
   11.1594   25.5690   -3.8547 O   0  0  0  0  0  0  0  0  0  0  0  0
   12.9035   27.3600   -3.8138 C   0  0  0  0  0  0  0  0  0  0  0  0
   12.5172   28.4853   -2.8770 C   0  0  0  0  0  0  0  0  0  0  0  0
   11.4505   29.3586   -3.4332 C   0  0  0  0  0  0  0  0  0  0  0  0
   10.5190   28.6690   -4.3225 N   0  0  0  0  0  0  0  0  0  0  0  0
   11.2016   28.0650   -5.4375 C   0  0  0  0  0  0  0  0  0  0  0  0
   12.6681   27.8066   -5.2085 C   0  0  0  0  0  0  0  0  0  0  0  0
   17.8357   27.6823   -4.2396 C   0  0  0  0  0  0  0  0  0  0  0  0
   16.6360   27.5378   -3.5471 C   0  0  0  0  0  0  0  0  0  0  0  0
   15.4853   27.1087   -4.1649 C   0  0  0  0  0  0  0  0  0  0  0  0
   15.5621   26.8297   -5.4794 N   0  0  0  0  0  0  0  0  0  0  0  0
   16.7403   26.9730   -6.1543 C   0  0  0  0  0  0  0  0  0  0  0  0
   17.8485   27.3906   -5.5415 N   0  0  0  0  0  0  0  0  0  0  0  0
   20.2453   27.8797   -4.1935 C   0  0  0  0  0  0  0  0  0  0  0  0
   18.9795   28.1218   -3.5698 O   0  0  0  0  0  0  0  0  0  0  0  0
   12.2220   25.0143   -1.0908 C   0  0  0  0  0  0  0  0  0  0  0  0
   13.0338   24.6531   -0.0403 C   0  0  0  0  0  0  0  0  0  0  0  0
   12.4409   23.9286    0.9919 C   0  0  0  0  0  0  0  0  0  0  0  0
   11.1044   23.6047    0.9339 C   0  0  0  0  0  0  0  0  0  0  0  0
   10.3077   23.9875   -0.1487 C   0  0  0  0  0  0  0  0  0  0  0  0
   10.8832   24.6999   -1.1666 C   0  0  0  0  0  0  0  0  0  0  0  0
   10.4800   22.8428    2.0094 C   0  0  0  0  0  0  0  0  0  0  0  0
   10.6550   21.4539    2.0448 C   0  0  0  0  0  0  0  0  0  0  0  0
   10.0598   20.7262    3.0445 C   0  0  0  0  0  0  0  0  0  0  0  0
    9.2960   21.3281    4.0113 C   0  0  0  0  0  0  0  0  0  0  0  0
    9.1115   22.6869    3.9958 C   0  0  0  0  0  0  0  0  0  0  0  0
    9.7122   23.4245    2.9869 C   0  0  0  0  0  0  0  0  0  0  0  0
    9.4902   25.1657    2.9786 Cl  0  0  0  0  0  0  0  0  0  0  0  0
    8.6944   20.4898    5.0430 C   0  0  0  0  0  0  0  0  0  0  0  0
    9.4090   19.4341    5.6038 O   0  0  0  0  0  0  0  0  0  0  0  0
    7.5328   20.6836    5.4573 O   0  0  0  0  0  0  0  0  0  0  0  0
    9.1630   18.4922    5.4114 H   0  0  0  0  0  0  0  0  0  0  0  0
    9.6014   29.6992   -4.7673 C   0  0  0  0  0  0  0  0  0  0  0  0
    8.2690   29.6633   -4.1626 C   0  0  0  0  0  0  0  0  0  0  0  0
    8.0056   30.2305   -2.9898 N   0  0  0  0  0  0  0  0  0  0  0  0
    6.7901   30.2215   -2.4114 C   0  0  0  0  0  0  0  0  0  0  0  0
    5.7520   29.5912   -3.0633 C   0  0  0  0  0  0  0  0  0  0  0  0
    5.9708   28.9830   -4.2900 C   0  0  0  0  0  0  0  0  0  0  0  0
    7.2500   29.0262   -4.8367 C   0  0  0  0  0  0  0  0  0  0  0  0
    7.4928   28.3698   -6.1709 C   0  0  0  0  0  0  0  0  0  0  0  0
 19 20  1  0  0  0
 20 13  1  0  0  0
 13 14  2  0  0  0
 14 15  1  0  0  0
 15 16  2  0  0  0
 16 17  1  0  0  0
 17 18  2  0  0  0
 15  1  1  0  0  0
  1  2  1  0  0  0
  2  3  2  0  0  0
  2  4  1  0  0  0
  4  5  1  0  0  0
  5  6  2  0  0  0
  5  7  1  0  0  0
  7  8  1  0  0  0
  8  9  1  0  0  0
  9 10  1  0  0  0
 10 38  1  0  0  0
 38 39  1  0  0  0
 39 40  2  0  0  0
 40 41  1  0  0  0
 41 42  2  0  0  0
 42 43  1  0  0  0
 43 44  2  0  0  0
 44 45  1  0  0  0
 10 11  1  0  0  0
 11 12  1  0  0  0
  4 21  1  0  0  0
 21 22  2  0  0  0
 22 23  1  0  0  0
 23 24  2  0  0  0
 24 25  1  0  0  0
 25 26  2  0  0  0
 24 27  1  0  0  0
 27 28  2  0  0  0
 28 29  1  0  0  0
 29 30  2  0  0  0
 30 31  1  0  0  0
 31 32  2  0  0  0
 32 33  1  0  0  0
 30 34  1  0  0  0
 34 35  1  0  0  0
 34 36  2  0  0  0
 18 13  1  0  0  0
  7  1  1  0  0  0
 12  7  1  0  0  0
 26 21  1  0  0  0
 32 27  1  0  0  0
 44 39  1  0  0  0
 35 37  1  0  0  0
M  END
> <minimizedAffinity>
21.47277

> <CNNscore>
0.5469353199

> <CNNaffinity>
7.4909224510

> <CNN_VS>
4.0970501900

> <CNNaffinity_variance>
0.5227261782

$$$$
[H]OC(=O)c1c([H])c([H])c(-c2c([H])c([H])c(N3C(=O)N(c4nc([H])nc(OC([H])([H])[H])c4[H])C4(C3=O)C([H])([H])C([H])([H])N(C([H])([H])c3nc([H])c([H])c([H])c3C([H])([H])[H])C([H])([H])C4([H])[H])c([H])c2[H])c(Cl)c1[H]


 45 50  0  0  0  0  0  0  0  0999 V2000
   15.8010   24.1549   -0.1787 N   0  0  0  0  0  0  0  0  0  0  0  0
   14.7917   23.8633    0.8105 C   0  0  0  0  0  0  0  0  0  0  0  0
   14.9192   24.0973    2.0530 O   0  0  0  0  0  0  0  0  0  0  0  0
   13.6696   23.2841    0.1379 N   0  0  0  0  0  0  0  0  0  0  0  0
   14.0497   23.2473   -1.2518 C   0  0  0  0  0  0  0  0  0  0  0  0
   13.5492   22.4276   -2.0562 O   0  0  0  0  0  0  0  0  0  0  0  0
   15.0534   24.3128   -1.3963 C   0  0  0  0  0  0  0  0  0  0  0  0
   14.2991   25.6242   -1.3322 C   0  0  0  0  0  0  0  0  0  0  0  0
   13.9854   26.1758   -2.6765 C   0  0  0  0  0  0  0  0  0  0  0  0
   13.7861   25.1590   -3.7063 N   0  0  0  0  0  0  0  0  0  0  0  0
   14.9458   24.3172   -3.8496 C   0  0  0  0  0  0  0  0  0  0  0  0
   15.8518   24.2894   -2.6461 C   0  0  0  0  0  0  0  0  0  0  0  0
   19.0198   24.6508    1.6443 C   0  0  0  0  0  0  0  0  0  0  0  0
   17.6545   24.5862    1.3773 C   0  0  0  0  0  0  0  0  0  0  0  0
   17.1699   24.2279    0.1417 C   0  0  0  0  0  0  0  0  0  0  0  0
   18.0747   23.9380   -0.8117 N   0  0  0  0  0  0  0  0  0  0  0  0
   19.4123   24.0028   -0.5455 C   0  0  0  0  0  0  0  0  0  0  0  0
   19.8675   24.3523    0.6581 N   0  0  0  0  0  0  0  0  0  0  0  0
   20.4620   24.1974    3.5315 C   0  0  0  0  0  0  0  0  0  0  0  0
   19.4657   25.0202    2.9151 O   0  0  0  0  0  0  0  0  0  0  0  0
   12.4533   22.8469    0.7185 C   0  0  0  0  0  0  0  0  0  0  0  0
   11.3975   23.7274    0.7730 C   0  0  0  0  0  0  0  0  0  0  0  0
   10.2170   23.2584    1.3460 C   0  0  0  0  0  0  0  0  0  0  0  0
   10.1422   21.9706    1.8259 C   0  0  0  0  0  0  0  0  0  0  0  0
   11.2344   21.1014    1.7549 C   0  0  0  0  0  0  0  0  0  0  0  0
   12.3978   21.5551    1.1930 C   0  0  0  0  0  0  0  0  0  0  0  0
    8.9105   21.4761    2.4304 C   0  0  0  0  0  0  0  0  0  0  0  0
    8.9378   21.0376    3.7600 C   0  0  0  0  0  0  0  0  0  0  0  0
    7.7874   20.5572    4.3337 C   0  0  0  0  0  0  0  0  0  0  0  0
    6.6096   20.4960    3.6341 C   0  0  0  0  0  0  0  0  0  0  0  0
    6.5602   20.9202    2.3310 C   0  0  0  0  0  0  0  0  0  0  0  0
    7.7212   21.4064    1.7492 C   0  0  0  0  0  0  0  0  0  0  0  0
    7.6524   21.9659    0.0869 Cl  0  0  0  0  0  0  0  0  0  0  0  0
    5.4267   19.9733    4.3101 C   0  0  0  0  0  0  0  0  0  0  0  0
    4.8734   18.7537    3.9280 O   0  0  0  0  0  0  0  0  0  0  0  0
    4.8730   20.5900    5.2436 O   0  0  0  0  0  0  0  0  0  0  0  0
    3.9990   18.7141    3.4606 H   0  0  0  0  0  0  0  0  0  0  0  0
   13.5307   25.9080   -4.9208 C   0  0  0  0  0  0  0  0  0  0  0  0
   14.6218   26.7732   -5.3714 C   0  0  0  0  0  0  0  0  0  0  0  0
   15.0295   27.8261   -4.6701 N   0  0  0  0  0  0  0  0  0  0  0  0
   16.0343   28.6358   -5.0532 C   0  0  0  0  0  0  0  0  0  0  0  0
   16.6845   28.3677   -6.2386 C   0  0  0  0  0  0  0  0  0  0  0  0
   16.3001   27.2816   -7.0102 C   0  0  0  0  0  0  0  0  0  0  0  0
   15.2540   26.4813   -6.5604 C   0  0  0  0  0  0  0  0  0  0  0  0
   14.8342   25.2980   -7.3931 C   0  0  0  0  0  0  0  0  0  0  0  0
 19 20  1  0  0  0
 20 13  1  0  0  0
 13 14  2  0  0  0
 14 15  1  0  0  0
 15 16  2  0  0  0
 16 17  1  0  0  0
 17 18  2  0  0  0
 15  1  1  0  0  0
  1  2  1  0  0  0
  2  3  2  0  0  0
  2  4  1  0  0  0
  4  5  1  0  0  0
  5  6  2  0  0  0
  5  7  1  0  0  0
  7  8  1  0  0  0
  8  9  1  0  0  0
  9 10  1  0  0  0
 10 38  1  0  0  0
 38 39  1  0  0  0
 39 40  2  0  0  0
 40 41  1  0  0  0
 41 42  2  0  0  0
 42 43  1  0  0  0
 43 44  2  0  0  0
 44 45  1  0  0  0
 10 11  1  0  0  0
 11 12  1  0  0  0
  4 21  1  0  0  0
 21 22  2  0  0  0
 22 23  1  0  0  0
 23 24  2  0  0  0
 24 25  1  0  0  0
 25 26  2  0  0  0
 24 27  1  0  0  0
 27 28  2  0  0  0
 28 29  1  0  0  0
 29 30  2  0  0  0
 30 31  1  0  0  0
 31 32  2  0  0  0
 32 33  1  0  0  0
 30 34  1  0  0  0
 34 35  1  0  0  0
 34 36  2  0  0  0
 18 13  1  0  0  0
  7  1  1  0  0  0
 12  7  1  0  0  0
 26 21  1  0  0  0
 32 27  1  0  0  0
 44 39  1  0  0  0
 35 37  1  0  0  0
M  END
> <minimizedAffinity>
11.20538

> <CNNscore>
0.5346386433

> <CNNaffinity>
8.0074291229

> <CNN_VS>
4.2810811996

> <CNNaffinity_variance>
0.5767354965

$$$$
[H]OC(=O)c1c([H])c([H])c(-c2c([H])c([H])c(N3C(=O)N(c4nc([H])nc(OC([H])([H])[H])c4[H])C4(C3=O)C([H])([H])C([H])([H])N(C([H])([H])c3nc([H])c([H])c([H])c3C([H])([H])[H])C([H])([H])C4([H])[H])c([H])c2[H])c(Cl)c1[H]


 45 50  0  0  0  0  0  0  0  0999 V2000
   12.4632   22.2826    0.6281 N   0  0  0  0  0  0  0  0  0  0  0  0
   13.1517   22.6926   -0.5720 C   0  0  0  0  0  0  0  0  0  0  0  0
   13.7604   21.8976   -1.3544 O   0  0  0  0  0  0  0  0  0  0  0  0
   13.0151   24.1115   -0.6957 N   0  0  0  0  0  0  0  0  0  0  0  0
   12.2383   24.5099    0.4510 C   0  0  0  0  0  0  0  0  0  0  0  0
   12.2972   25.6685    0.9236 O   0  0  0  0  0  0  0  0  0  0  0  0
   11.4761   23.3089    0.8256 C   0  0  0  0  0  0  0  0  0  0  0  0
   10.3936   23.1442   -0.2204 C   0  0  0  0  0  0  0  0  0  0  0  0
    9.0888   23.7158    0.2046 C   0  0  0  0  0  0  0  0  0  0  0  0
    9.2046   24.8658    1.0980 N   0  0  0  0  0  0  0  0  0  0  0  0
    9.9361   24.5349    2.2937 C   0  0  0  0  0  0  0  0  0  0  0  0
   10.8375   23.3347    2.1641 C   0  0  0  0  0  0  0  0  0  0  0  0
   14.3047   19.3023    1.9148 C   0  0  0  0  0  0  0  0  0  0  0  0
   14.0121   20.4622    1.2016 C   0  0  0  0  0  0  0  0  0  0  0  0
   12.8081   21.1129    1.3313 C   0  0  0  0  0  0  0  0  0  0  0  0
   11.9121   20.5814    2.1836 N   0  0  0  0  0  0  0  0  0  0  0  0
   12.2033   19.4440    2.8805 C   0  0  0  0  0  0  0  0  0  0  0  0
   13.3756   18.8235    2.7441 N   0  0  0  0  0  0  0  0  0  0  0  0
   16.0068   18.4710    0.4117 C   0  0  0  0  0  0  0  0  0  0  0  0
   15.5416   18.6753    1.7502 O   0  0  0  0  0  0  0  0  0  0  0  0
   13.5319   24.9366   -1.7251 C   0  0  0  0  0  0  0  0  0  0  0  0
   12.6461   25.6084   -2.5357 C   0  0  0  0  0  0  0  0  0  0  0  0
   13.1931   26.4141   -3.5324 C   0  0  0  0  0  0  0  0  0  0  0  0
   14.5586   26.5122   -3.6742 C   0  0  0  0  0  0  0  0  0  0  0  0
   15.4308   25.8157   -2.8331 C   0  0  0  0  0  0  0  0  0  0  0  0
   14.9007   25.0221   -1.8511 C   0  0  0  0  0  0  0  0  0  0  0  0
   15.1363   27.3506   -4.7185 C   0  0  0  0  0  0  0  0  0  0  0  0
   14.6212   27.2641   -6.0178 C   0  0  0  0  0  0  0  0  0  0  0  0
   15.1673   28.0384   -7.0106 C   0  0  0  0  0  0  0  0  0  0  0  0
   16.2075   28.8960   -6.7599 C   0  0  0  0  0  0  0  0  0  0  0  0
   16.7271   28.9966   -5.4948 C   0  0  0  0  0  0  0  0  0  0  0  0
   16.1769   28.2156   -4.4898 C   0  0  0  0  0  0  0  0  0  0  0  0
   16.8309   28.3585   -2.8672 Cl  0  0  0  0  0  0  0  0  0  0  0  0
   16.7366   29.6878   -7.8655 C   0  0  0  0  0  0  0  0  0  0  0  0
   16.8651   31.0697   -7.7494 O   0  0  0  0  0  0  0  0  0  0  0  0
   17.0897   29.1649   -8.9427 O   0  0  0  0  0  0  0  0  0  0  0  0
   16.2756   31.6819   -8.2616 H   0  0  0  0  0  0  0  0  0  0  0  0
    7.8367   25.2330    1.4070 C   0  0  0  0  0  0  0  0  0  0  0  0
    7.5328   25.4010    2.8288 C   0  0  0  0  0  0  0  0  0  0  0  0
    7.5423   26.5906    3.4216 N   0  0  0  0  0  0  0  0  0  0  0  0
    7.2599   26.7789    4.7242 C   0  0  0  0  0  0  0  0  0  0  0  0
    6.9414   25.6830    5.4971 C   0  0  0  0  0  0  0  0  0  0  0  0
    6.9164   24.4179    4.9298 C   0  0  0  0  0  0  0  0  0  0  0  0
    7.2178   24.2878    3.5773 C   0  0  0  0  0  0  0  0  0  0  0  0
    7.1889   22.9161    2.9549 C   0  0  0  0  0  0  0  0  0  0  0  0
 19 20  1  0  0  0
 20 13  1  0  0  0
 13 14  2  0  0  0
 14 15  1  0  0  0
 15 16  2  0  0  0
 16 17  1  0  0  0
 17 18  2  0  0  0
 15  1  1  0  0  0
  1  2  1  0  0  0
  2  3  2  0  0  0
  2  4  1  0  0  0
  4  5  1  0  0  0
  5  6  2  0  0  0
  5  7  1  0  0  0
  7  8  1  0  0  0
  8  9  1  0  0  0
  9 10  1  0  0  0
 10 38  1  0  0  0
 38 39  1  0  0  0
 39 40  2  0  0  0
 40 41  1  0  0  0
 41 42  2  0  0  0
 42 43  1  0  0  0
 43 44  2  0  0  0
 44 45  1  0  0  0
 10 11  1  0  0  0
 11 12  1  0  0  0
  4 21  1  0  0  0
 21 22  2  0  0  0
 22 23  1  0  0  0
 23 24  2  0  0  0
 24 25  1  0  0  0
 25 26  2  0  0  0
 24 27  1  0  0  0
 27 28  2  0  0  0
 28 29  1  0  0  0
 29 30  2  0  0  0
 30 31  1  0  0  0
 31 32  2  0  0  0
 32 33  1  0  0  0
 30 34  1  0  0  0
 34 35  1  0  0  0
 34 36  2  0  0  0
 18 13  1  0  0  0
  7  1  1  0  0  0
 12  7  1  0  0  0
 26 21  1  0  0  0
 32 27  1  0  0  0
 44 39  1  0  0  0
 35 37  1  0  0  0
M  END
> <minimizedAffinity>
18.77829

> <CNNscore>
0.4666411877

> <CNNaffinity>
7.6012372971

> <CNN_VS>
3.5470504761

> <CNNaffinity_variance>
0.2861042619

$$$$
[H]OC(=O)c1c([H])c([H])c(-c2c([H])c([H])c(N3C(=O)N(c4nc([H])nc(OC([H])([H])[H])c4[H])C4(C3=O)C([H])([H])C([H])([H])N(C([H])([H])c3nc([H])c([H])c([H])c3C([H])([H])[H])C([H])([H])C4([H])[H])c([H])c2[H])c(Cl)c1[H]


 45 50  0  0  0  0  0  0  0  0999 V2000
   14.8942   25.9591   -3.5516 N   0  0  0  0  0  0  0  0  0  0  0  0
   13.6143   25.3171   -3.3734 C   0  0  0  0  0  0  0  0  0  0  0  0
   12.7565   25.1630   -4.2981 O   0  0  0  0  0  0  0  0  0  0  0  0
   13.5129   24.9078   -2.0061 N   0  0  0  0  0  0  0  0  0  0  0  0
   14.7533   25.3246   -1.4021 C   0  0  0  0  0  0  0  0  0  0  0  0
   14.8517   25.5498   -0.1737 O   0  0  0  0  0  0  0  0  0  0  0  0
   15.7119   25.3888   -2.5159 C   0  0  0  0  0  0  0  0  0  0  0  0
   16.0328   23.9567   -2.8888 C   0  0  0  0  0  0  0  0  0  0  0  0
   17.2854   23.4631   -2.2586 C   0  0  0  0  0  0  0  0  0  0  0  0
   17.5736   24.0610   -0.9573 N   0  0  0  0  0  0  0  0  0  0  0  0
   17.6756   25.4949   -1.0452 C   0  0  0  0  0  0  0  0  0  0  0  0
   16.9840   26.0996   -2.2394 C   0  0  0  0  0  0  0  0  0  0  0  0
   15.7253   27.5821   -6.8080 C   0  0  0  0  0  0  0  0  0  0  0  0
   15.5031   26.6010   -5.8449 C   0  0  0  0  0  0  0  0  0  0  0  0
   15.1236   26.9131   -4.5610 C   0  0  0  0  0  0  0  0  0  0  0  0
   14.9726   28.2176   -4.2659 N   0  0  0  0  0  0  0  0  0  0  0  0
   15.1916   29.1761   -5.2132 C   0  0  0  0  0  0  0  0  0  0  0  0
   15.5597   28.8581   -6.4547 N   0  0  0  0  0  0  0  0  0  0  0  0
   16.0638   25.8265   -8.4361 C   0  0  0  0  0  0  0  0  0  0  0  0
   16.1101   27.2174   -8.1000 O   0  0  0  0  0  0  0  0  0  0  0  0
   12.4275   24.2378   -1.3894 C   0  0  0  0  0  0  0  0  0  0  0  0
   12.5951   22.9257   -1.0105 C   0  0  0  0  0  0  0  0  0  0  0  0
   11.5067   22.3034   -0.4021 C   0  0  0  0  0  0  0  0  0  0  0  0
   10.3333   22.9949   -0.2040 C   0  0  0  0  0  0  0  0  0  0  0  0
   10.1965   24.3279   -0.6012 C   0  0  0  0  0  0  0  0  0  0  0  0
   11.2618   24.9462   -1.1995 C   0  0  0  0  0  0  0  0  0  0  0  0
    9.1898   22.3469    0.4283 C   0  0  0  0  0  0  0  0  0  0  0  0
    8.7196   22.8453    1.6495 C   0  0  0  0  0  0  0  0  0  0  0  0
    7.6532   22.2338    2.2597 C   0  0  0  0  0  0  0  0  0  0  0  0
    7.0363   21.1442    1.7007 C   0  0  0  0  0  0  0  0  0  0  0  0
    7.4803   20.6398    0.5053 C   0  0  0  0  0  0  0  0  0  0  0  0
    8.5574   21.2560   -0.1134 C   0  0  0  0  0  0  0  0  0  0  0  0
    9.1133   20.6206   -1.6523 Cl  0  0  0  0  0  0  0  0  0  0  0  0
    5.9080   20.5466    2.4072 C   0  0  0  0  0  0  0  0  0  0  0  0
    5.2987   21.2174    3.4648 O   0  0  0  0  0  0  0  0  0  0  0  0
    5.4515   19.4273    2.0955 O   0  0  0  0  0  0  0  0  0  0  0  0
    5.3984   20.8959    4.3982 H   0  0  0  0  0  0  0  0  0  0  0  0
   18.8339   23.4714   -0.5506 C   0  0  0  0  0  0  0  0  0  0  0  0
   19.3553   23.9219    0.7407 C   0  0  0  0  0  0  0  0  0  0  0  0
   20.6271   24.2684    0.9114 N   0  0  0  0  0  0  0  0  0  0  0  0
   21.1350   24.6938    2.0832 C   0  0  0  0  0  0  0  0  0  0  0  0
   20.2980   24.7788    3.1750 C   0  0  0  0  0  0  0  0  0  0  0  0
   18.9615   24.4297    3.0532 C   0  0  0  0  0  0  0  0  0  0  0  0
   18.4958   23.9971    1.8150 C   0  0  0  0  0  0  0  0  0  0  0  0
   17.0439   23.6196    1.6760 C   0  0  0  0  0  0  0  0  0  0  0  0
 19 20  1  0  0  0
 20 13  1  0  0  0
 13 14  2  0  0  0
 14 15  1  0  0  0
 15 16  2  0  0  0
 16 17  1  0  0  0
 17 18  2  0  0  0
 15  1  1  0  0  0
  1  2  1  0  0  0
  2  3  2  0  0  0
  2  4  1  0  0  0
  4  5  1  0  0  0
  5  6  2  0  0  0
  5  7  1  0  0  0
  7  8  1  0  0  0
  8  9  1  0  0  0
  9 10  1  0  0  0
 10 38  1  0  0  0
 38 39  1  0  0  0
 39 40  2  0  0  0
 40 41  1  0  0  0
 41 42  2  0  0  0
 42 43  1  0  0  0
 43 44  2  0  0  0
 44 45  1  0  0  0
 10 11  1  0  0  0
 11 12  1  0  0  0
  4 21  1  0  0  0
 21 22  2  0  0  0
 22 23  1  0  0  0
 23 24  2  0  0  0
 24 25  1  0  0  0
 25 26  2  0  0  0
 24 27  1  0  0  0
 27 28  2  0  0  0
 28 29  1  0  0  0
 29 30  2  0  0  0
 30 31  1  0  0  0
 31 32  2  0  0  0
 32 33  1  0  0  0
 30 34  1  0  0  0
 34 35  1  0  0  0
 34 36  2  0  0  0
 18 13  1  0  0  0
  7  1  1  0  0  0
 12  7  1  0  0  0
 26 21  1  0  0  0
 32 27  1  0  0  0
 44 39  1  0  0  0
 35 37  1  0  0  0
M  END
> <minimizedAffinity>
24.87118

> <CNNscore>
0.4585719109

> <CNNaffinity>
7.7745766640

> <CNN_VS>
3.5652024746

> <CNNaffinity_variance>
0.4759743810

$$$$
[H]OC(=O)c1c([H])c([H])c(-c2c([H])c([H])c(N3C(=O)N(c4nc([H])nc(OC([H])([H])[H])c4[H])C4(C3=O)C([H])([H])C([H])([H])N(C([H])([H])c3nc([H])c([H])c([H])c3C([H])([H])[H])C([H])([H])C4([H])[H])c([H])c2[H])c(Cl)c1[H]


 45 50  0  0  0  0  0  0  0  0999 V2000
    9.7063   24.3088    2.0762 N   0  0  0  0  0  0  0  0  0  0  0  0
   10.8502   24.7817    1.3346 C   0  0  0  0  0  0  0  0  0  0  0  0
   11.8064   25.4472    1.8422 O   0  0  0  0  0  0  0  0  0  0  0  0
   10.6957   24.3672   -0.0260 N   0  0  0  0  0  0  0  0  0  0  0  0
    9.4461   23.6496   -0.0546 C   0  0  0  0  0  0  0  0  0  0  0  0
    8.7688   23.5360   -1.1024 O   0  0  0  0  0  0  0  0  0  0  0  0
    9.2550   23.1706    1.3229 C   0  0  0  0  0  0  0  0  0  0  0  0
   10.2400   22.0383    1.5239 C   0  0  0  0  0  0  0  0  0  0  0  0
    9.6306   20.6989    1.3128 C   0  0  0  0  0  0  0  0  0  0  0  0
    8.5463   20.6851    0.3338 N   0  0  0  0  0  0  0  0  0  0  0  0
    7.4848   21.5837    0.7079 C   0  0  0  0  0  0  0  0  0  0  0  0
    7.8966   22.6781    1.6580 C   0  0  0  0  0  0  0  0  0  0  0  0
    8.3012   26.7873    4.4870 C   0  0  0  0  0  0  0  0  0  0  0  0
    8.7231   26.2035    3.2951 C   0  0  0  0  0  0  0  0  0  0  0  0
    9.2597   24.9385    3.2534 C   0  0  0  0  0  0  0  0  0  0  0  0
    9.3632   24.2772    4.4211 N   0  0  0  0  0  0  0  0  0  0  0  0
    8.9484   24.8536    5.5873 C   0  0  0  0  0  0  0  0  0  0  0  0
    8.4300   26.0818    5.6121 N   0  0  0  0  0  0  0  0  0  0  0  0
    6.4981   28.2605    3.8347 C   0  0  0  0  0  0  0  0  0  0  0  0
    7.7623   28.0756    4.4806 O   0  0  0  0  0  0  0  0  0  0  0  0
   11.5831   24.6112   -1.1033 C   0  0  0  0  0  0  0  0  0  0  0  0
   12.6390   23.7497   -1.2927 C   0  0  0  0  0  0  0  0  0  0  0  0
   13.4857   24.0199   -2.3660 C   0  0  0  0  0  0  0  0  0  0  0  0
   13.2507   25.1049   -3.1795 C   0  0  0  0  0  0  0  0  0  0  0  0
   12.1680   25.9607   -2.9588 C   0  0  0  0  0  0  0  0  0  0  0  0
   11.3314   25.7015   -1.9063 C   0  0  0  0  0  0  0  0  0  0  0  0
   14.1363   25.3947   -4.3015 C   0  0  0  0  0  0  0  0  0  0  0  0
   13.8766   26.5182   -5.0959 C   0  0  0  0  0  0  0  0  0  0  0  0
   14.6957   26.7916   -6.1626 C   0  0  0  0  0  0  0  0  0  0  0  0
   15.7642   25.9889   -6.4695 C   0  0  0  0  0  0  0  0  0  0  0  0
   16.0369   24.8837   -5.7049 C   0  0  0  0  0  0  0  0  0  0  0  0
   15.2110   24.6054   -4.6263 C   0  0  0  0  0  0  0  0  0  0  0  0
   15.5718   23.2007   -3.6375 Cl  0  0  0  0  0  0  0  0  0  0  0  0
   16.5910   26.3425   -7.6187 C   0  0  0  0  0  0  0  0  0  0  0  0
   16.8599   25.4053   -8.6132 O   0  0  0  0  0  0  0  0  0  0  0  0
   17.0821   27.4823   -7.7532 O   0  0  0  0  0  0  0  0  0  0  0  0
   17.7687   25.0216   -8.7206 H   0  0  0  0  0  0  0  0  0  0  0  0
    8.0849   19.3111    0.3127 C   0  0  0  0  0  0  0  0  0  0  0  0
    6.9667   19.0333   -0.5899 C   0  0  0  0  0  0  0  0  0  0  0  0
    6.0991   19.9714   -0.9558 N   0  0  0  0  0  0  0  0  0  0  0  0
    5.0660   19.7497   -1.7897 C   0  0  0  0  0  0  0  0  0  0  0  0
    4.8877   18.4815   -2.2993 C   0  0  0  0  0  0  0  0  0  0  0  0
    5.7636   17.4646   -1.9508 C   0  0  0  0  0  0  0  0  0  0  0  0
    6.8128   17.7564   -1.0841 C   0  0  0  0  0  0  0  0  0  0  0  0
    7.7694   16.6561   -0.7046 C   0  0  0  0  0  0  0  0  0  0  0  0
 19 20  1  0  0  0
 20 13  1  0  0  0
 13 14  2  0  0  0
 14 15  1  0  0  0
 15 16  2  0  0  0
 16 17  1  0  0  0
 17 18  2  0  0  0
 15  1  1  0  0  0
  1  2  1  0  0  0
  2  3  2  0  0  0
  2  4  1  0  0  0
  4  5  1  0  0  0
  5  6  2  0  0  0
  5  7  1  0  0  0
  7  8  1  0  0  0
  8  9  1  0  0  0
  9 10  1  0  0  0
 10 38  1  0  0  0
 38 39  1  0  0  0
 39 40  2  0  0  0
 40 41  1  0  0  0
 41 42  2  0  0  0
 42 43  1  0  0  0
 43 44  2  0  0  0
 44 45  1  0  0  0
 10 11  1  0  0  0
 11 12  1  0  0  0
  4 21  1  0  0  0
 21 22  2  0  0  0
 22 23  1  0  0  0
 23 24  2  0  0  0
 24 25  1  0  0  0
 25 26  2  0  0  0
 24 27  1  0  0  0
 27 28  2  0  0  0
 28 29  1  0  0  0
 29 30  2  0  0  0
 30 31  1  0  0  0
 31 32  2  0  0  0
 32 33  1  0  0  0
 30 34  1  0  0  0
 34 35  1  0  0  0
 34 36  2  0  0  0
 18 13  1  0  0  0
  7  1  1  0  0  0
 12  7  1  0  0  0
 26 21  1  0  0  0
 32 27  1  0  0  0
 44 39  1  0  0  0
 35 37  1  0  0  0
M  END
> <minimizedAffinity>
-0.66136

> <CNNscore>
0.4451560974

> <CNNaffinity>
7.4317388535

> <CNN_VS>
3.3082838058

> <CNNaffinity_variance>
0.3977575898

$$$$
[H]OC(=O)c1c([H])c([H])c(-c2c([H])c([H])c(N3C(=O)N(c4nc([H])nc(OC([H])([H])[H])c4[H])C4(C3=O)C([H])([H])C([H])([H])N(C([H])([H])c3nc([H])c([H])c([H])c3C([H])([H])[H])C([H])([H])C4([H])[H])c([H])c2[H])c(Cl)c1[H]


 45 50  0  0  0  0  0  0  0  0999 V2000
   14.6467   25.7373   -1.9272 N   0  0  0  0  0  0  0  0  0  0  0  0
   13.9468   25.1679   -0.8011 C   0  0  0  0  0  0  0  0  0  0  0  0
   14.4308   25.0769    0.3703 O   0  0  0  0  0  0  0  0  0  0  0  0
   12.6558   24.7465   -1.2517 N   0  0  0  0  0  0  0  0  0  0  0  0
   12.6252   25.0820   -2.6530 C   0  0  0  0  0  0  0  0  0  0  0  0
   11.8820   24.4824   -3.4638 O   0  0  0  0  0  0  0  0  0  0  0  0
   13.5927   26.1803   -2.7987 C   0  0  0  0  0  0  0  0  0  0  0  0
   12.9458   27.4058   -2.1884 C   0  0  0  0  0  0  0  0  0  0  0  0
   12.2891   28.2756   -3.1994 C   0  0  0  0  0  0  0  0  0  0  0  0
   11.7620   27.5534   -4.3547 N   0  0  0  0  0  0  0  0  0  0  0  0
   12.7956   26.8148   -5.0330 C   0  0  0  0  0  0  0  0  0  0  0  0
   14.0030   26.5061   -4.1863 C   0  0  0  0  0  0  0  0  0  0  0  0
   18.1599   26.7397   -2.6901 C   0  0  0  0  0  0  0  0  0  0  0  0
   16.7683   26.7559   -2.6367 C   0  0  0  0  0  0  0  0  0  0  0  0
   16.0521   25.7688   -2.0022 C   0  0  0  0  0  0  0  0  0  0  0  0
   16.7540   24.7746   -1.4274 N   0  0  0  0  0  0  0  0  0  0  0  0
   18.1182   24.7627   -1.4824 C   0  0  0  0  0  0  0  0  0  0  0  0
   18.7994   25.7272   -2.1019 N   0  0  0  0  0  0  0  0  0  0  0  0
   18.0959   28.5929   -4.2422 C   0  0  0  0  0  0  0  0  0  0  0  0
   18.8450   27.7644   -3.3465 O   0  0  0  0  0  0  0  0  0  0  0  0
   11.6356   24.1355   -0.4814 C   0  0  0  0  0  0  0  0  0  0  0  0
   11.1559   24.8035    0.6216 C   0  0  0  0  0  0  0  0  0  0  0  0
   10.1491   24.1725    1.3498 C   0  0  0  0  0  0  0  0  0  0  0  0
    9.6783   22.9397    0.9589 C   0  0  0  0  0  0  0  0  0  0  0  0
   10.1880   22.2882   -0.1676 C   0  0  0  0  0  0  0  0  0  0  0  0
   11.1773   22.9020   -0.8883 C   0  0  0  0  0  0  0  0  0  0  0  0
    8.6278   22.2731    1.7200 C   0  0  0  0  0  0  0  0  0  0  0  0
    7.3357   22.2160    1.1832 C   0  0  0  0  0  0  0  0  0  0  0  0
    6.3369   21.6035    1.8978 C   0  0  0  0  0  0  0  0  0  0  0  0
    6.5748   21.0453    3.1275 C   0  0  0  0  0  0  0  0  0  0  0  0
    7.8326   21.0897    3.6719 C   0  0  0  0  0  0  0  0  0  0  0  0
    8.8436   21.7077    2.9517 C   0  0  0  0  0  0  0  0  0  0  0  0
   10.4572   21.7481    3.6416 Cl  0  0  0  0  0  0  0  0  0  0  0  0
    5.4636   20.4108    3.8289 C   0  0  0  0  0  0  0  0  0  0  0  0
    5.0223   19.1432    3.4571 O   0  0  0  0  0  0  0  0  0  0  0  0
    4.8739   20.9713    4.7757 O   0  0  0  0  0  0  0  0  0  0  0  0
    4.1456   19.0190    3.0093 H   0  0  0  0  0  0  0  0  0  0  0  0
   11.2066   28.5822   -5.2117 C   0  0  0  0  0  0  0  0  0  0  0  0
    9.7454   28.6612   -5.2394 C   0  0  0  0  0  0  0  0  0  0  0  0
    8.9933   27.7165   -5.7949 N   0  0  0  0  0  0  0  0  0  0  0  0
    7.6482   27.7562   -5.8296 C   0  0  0  0  0  0  0  0  0  0  0  0
    7.0033   28.8329   -5.2599 C   0  0  0  0  0  0  0  0  0  0  0  0
    7.7391   29.8473   -4.6663 C   0  0  0  0  0  0  0  0  0  0  0  0
    9.1274   29.7491   -4.6622 C   0  0  0  0  0  0  0  0  0  0  0  0
    9.9318   30.8467   -4.0157 C   0  0  0  0  0  0  0  0  0  0  0  0
 19 20  1  0  0  0
 20 13  1  0  0  0
 13 14  2  0  0  0
 14 15  1  0  0  0
 15 16  2  0  0  0
 16 17  1  0  0  0
 17 18  2  0  0  0
 15  1  1  0  0  0
  1  2  1  0  0  0
  2  3  2  0  0  0
  2  4  1  0  0  0
  4  5  1  0  0  0
  5  6  2  0  0  0
  5  7  1  0  0  0
  7  8  1  0  0  0
  8  9  1  0  0  0
  9 10  1  0  0  0
 10 38  1  0  0  0
 38 39  1  0  0  0
 39 40  2  0  0  0
 40 41  1  0  0  0
 41 42  2  0  0  0
 42 43  1  0  0  0
 43 44  2  0  0  0
 44 45  1  0  0  0
 10 11  1  0  0  0
 11 12  1  0  0  0
  4 21  1  0  0  0
 21 22  2  0  0  0
 22 23  1  0  0  0
 23 24  2  0  0  0
 24 25  1  0  0  0
 25 26  2  0  0  0
 24 27  1  0  0  0
 27 28  2  0  0  0
 28 29  1  0  0  0
 29 30  2  0  0  0
 30 31  1  0  0  0
 31 32  2  0  0  0
 32 33  1  0  0  0
 30 34  1  0  0  0
 34 35  1  0  0  0
 34 36  2  0  0  0
 18 13  1  0  0  0
  7  1  1  0  0  0
 12  7  1  0  0  0
 26 21  1  0  0  0
 32 27  1  0  0  0
 44 39  1  0  0  0
 35 37  1  0  0  0
M  END
> <minimizedAffinity>
22.59463

> <CNNscore>
0.4380279183

> <CNNaffinity>
7.5502510071

> <CNN_VS>
3.3072206974

> <CNNaffinity_variance>
0.9944184422

$$$$
[H]OC(=O)c1c([H])c([H])c(-c2c([H])c([H])c(N3C(=O)N(c4nc([H])nc(OC([H])([H])[H])c4[H])C4(C3=O)C([H])([H])C([H])([H])N(C([H])([H])c3nc([H])c([H])c([H])c3C([H])([H])[H])C([H])([H])C4([H])[H])c([H])c2[H])c(Cl)c1[H]


 45 50  0  0  0  0  0  0  0  0999 V2000
   14.3167   26.8511   -3.8051 N   0  0  0  0  0  0  0  0  0  0  0  0
   14.3156   26.0880   -2.5804 C   0  0  0  0  0  0  0  0  0  0  0  0
   15.3448   25.8850   -1.8632 O   0  0  0  0  0  0  0  0  0  0  0  0
   12.9808   25.6281   -2.3487 N   0  0  0  0  0  0  0  0  0  0  0  0
   12.2157   26.1381   -3.4585 C   0  0  0  0  0  0  0  0  0  0  0  0
   11.1558   25.5916   -3.8421 O   0  0  0  0  0  0  0  0  0  0  0  0
   12.9622   27.3186   -3.9199 C   0  0  0  0  0  0  0  0  0  0  0  0
   12.7363   28.4005   -2.8849 C   0  0  0  0  0  0  0  0  0  0  0  0
   11.6462   29.3392   -3.2597 C   0  0  0  0  0  0  0  0  0  0  0  0
   10.5879   28.7329   -4.0637 N   0  0  0  0  0  0  0  0  0  0  0  0
   11.1070   28.1714   -5.2841 C   0  0  0  0  0  0  0  0  0  0  0  0
   12.5789   27.8519   -5.2499 C   0  0  0  0  0  0  0  0  0  0  0  0
   16.7499   26.7190   -6.6320 C   0  0  0  0  0  0  0  0  0  0  0  0
   15.5829   26.5517   -5.8906 C   0  0  0  0  0  0  0  0  0  0  0  0
   15.4710   27.0023   -4.5966 C   0  0  0  0  0  0  0  0  0  0  0  0
   16.5437   27.6187   -4.0667 N   0  0  0  0  0  0  0  0  0  0  0  0
   17.6858   27.7804   -4.7972 C   0  0  0  0  0  0  0  0  0  0  0  0
   17.7797   27.3377   -6.0515 N   0  0  0  0  0  0  0  0  0  0  0  0
   15.6530   25.6037   -8.4760 C   0  0  0  0  0  0  0  0  0  0  0  0
   16.8175   26.2442   -7.9436 O   0  0  0  0  0  0  0  0  0  0  0  0
   12.5198   24.8446   -1.2619 C   0  0  0  0  0  0  0  0  0  0  0  0
   11.6142   25.4011   -0.3883 C   0  0  0  0  0  0  0  0  0  0  0  0
   11.1805   24.5971    0.6640 C   0  0  0  0  0  0  0  0  0  0  0  0
   11.6543   23.3117    0.7964 C   0  0  0  0  0  0  0  0  0  0  0  0
   12.5745   22.7769   -0.1094 C   0  0  0  0  0  0  0  0  0  0  0  0
   13.0052   23.5609   -1.1462 C   0  0  0  0  0  0  0  0  0  0  0  0
   11.2070   22.4675    1.8985 C   0  0  0  0  0  0  0  0  0  0  0  0
   11.6630   21.1453    1.9662 C   0  0  0  0  0  0  0  0  0  0  0  0
   11.2367   20.3385    2.9913 C   0  0  0  0  0  0  0  0  0  0  0  0
   10.3729   20.7974    3.9524 C   0  0  0  0  0  0  0  0  0  0  0  0
    9.9141   22.0889    3.9054 C   0  0  0  0  0  0  0  0  0  0  0  0
   10.3435   22.9062    2.8708 C   0  0  0  0  0  0  0  0  0  0  0  0
    9.7697   24.5643    2.8219 Cl  0  0  0  0  0  0  0  0  0  0  0  0
    9.9634   19.8820    5.0123 C   0  0  0  0  0  0  0  0  0  0  0  0
   10.7851   18.8231    5.3906 O   0  0  0  0  0  0  0  0  0  0  0  0
    8.8764   20.0106    5.6126 O   0  0  0  0  0  0  0  0  0  0  0  0
   10.5374   17.8851    5.1820 H   0  0  0  0  0  0  0  0  0  0  0  0
    9.6653   29.8167   -4.3380 C   0  0  0  0  0  0  0  0  0  0  0  0
    8.3104   29.4132   -4.7172 C   0  0  0  0  0  0  0  0  0  0  0  0
    8.0413   28.8372   -5.8845 N   0  0  0  0  0  0  0  0  0  0  0  0
    6.8084   28.4478   -6.2591 C   0  0  0  0  0  0  0  0  0  0  0  0
    5.7575   28.6532   -5.3911 C   0  0  0  0  0  0  0  0  0  0  0  0
    5.9817   29.2500   -4.1597 C   0  0  0  0  0  0  0  0  0  0  0  0
    7.2791   29.6306   -3.8297 C   0  0  0  0  0  0  0  0  0  0  0  0
    7.5290   30.2766   -2.4918 C   0  0  0  0  0  0  0  0  0  0  0  0
 19 20  1  0  0  0
 20 13  1  0  0  0
 13 14  2  0  0  0
 14 15  1  0  0  0
 15 16  2  0  0  0
 16 17  1  0  0  0
 17 18  2  0  0  0
 15  1  1  0  0  0
  1  2  1  0  0  0
  2  3  2  0  0  0
  2  4  1  0  0  0
  4  5  1  0  0  0
  5  6  2  0  0  0
  5  7  1  0  0  0
  7  8  1  0  0  0
  8  9  1  0  0  0
  9 10  1  0  0  0
 10 38  1  0  0  0
 38 39  1  0  0  0
 39 40  2  0  0  0
 40 41  1  0  0  0
 41 42  2  0  0  0
 42 43  1  0  0  0
 43 44  2  0  0  0
 44 45  1  0  0  0
 10 11  1  0  0  0
 11 12  1  0  0  0
  4 21  1  0  0  0
 21 22  2  0  0  0
 22 23  1  0  0  0
 23 24  2  0  0  0
 24 25  1  0  0  0
 25 26  2  0  0  0
 24 27  1  0  0  0
 27 28  2  0  0  0
 28 29  1  0  0  0
 29 30  2  0  0  0
 30 31  1  0  0  0
 31 32  2  0  0  0
 32 33  1  0  0  0
 30 34  1  0  0  0
 34 35  1  0  0  0
 34 36  2  0  0  0
 18 13  1  0  0  0
  7  1  1  0  0  0
 12  7  1  0  0  0
 26 21  1  0  0  0
 32 27  1  0  0  0
 44 39  1  0  0  0
 35 37  1  0  0  0
M  END
> <minimizedAffinity>
21.12006

> <CNNscore>
0.4378495514

> <CNNaffinity>
7.4230093956

> <CNN_VS>
3.2501614094

> <CNNaffinity_variance>
0.4847554564

$$$$
[H]OC(=O)c1c([H])c([H])c(-c2c([H])c([H])c(N3C(=O)N(c4nc([H])nc(OC([H])([H])[H])c4[H])C4(C3=O)C([H])([H])C([H])([H])N(C([H])([H])c3nc([H])c([H])c([H])c3C([H])([H])[H])C([H])([H])C4([H])[H])c([H])c2[H])c(Cl)c1[H]


 45 50  0  0  0  0  0  0  0  0999 V2000
   10.5738   21.4030    1.8510 N   0  0  0  0  0  0  0  0  0  0  0  0
   11.6876   21.8578    1.0542 C   0  0  0  0  0  0  0  0  0  0  0  0
   12.8644   21.3849    1.1340 O   0  0  0  0  0  0  0  0  0  0  0  0
   11.2182   22.9013    0.1953 N   0  0  0  0  0  0  0  0  0  0  0  0
    9.8188   23.0390    0.5109 C   0  0  0  0  0  0  0  0  0  0  0  0
    9.1949   24.1072    0.3131 O   0  0  0  0  0  0  0  0  0  0  0  0
    9.4240   21.7297    1.0525 C   0  0  0  0  0  0  0  0  0  0  0  0
    9.3680   20.7780   -0.1240 C   0  0  0  0  0  0  0  0  0  0  0  0
    7.9940   20.6111   -0.6664 C   0  0  0  0  0  0  0  0  0  0  0  0
    7.1481   21.7931   -0.5206 N   0  0  0  0  0  0  0  0  0  0  0  0
    7.0183   22.1834    0.8596 C   0  0  0  0  0  0  0  0  0  0  0  0
    8.1200   21.6837    1.7577 C   0  0  0  0  0  0  0  0  0  0  0  0
   10.5906   18.9453    4.6597 C   0  0  0  0  0  0  0  0  0  0  0  0
   10.4067   19.4971    3.3943 C   0  0  0  0  0  0  0  0  0  0  0  0
   10.7466   20.7986    3.1106 C   0  0  0  0  0  0  0  0  0  0  0  0
   11.2703   21.5284    4.1130 N   0  0  0  0  0  0  0  0  0  0  0  0
   11.4486   20.9833    5.3521 C   0  0  0  0  0  0  0  0  0  0  0  0
   11.1138   19.7191    5.6124 N   0  0  0  0  0  0  0  0  0  0  0  0
    8.9853   17.3818    5.5683 C   0  0  0  0  0  0  0  0  0  0  0  0
   10.2299   17.6180    4.9014 O   0  0  0  0  0  0  0  0  0  0  0  0
   11.9711   23.6328   -0.7564 C   0  0  0  0  0  0  0  0  0  0  0  0
   13.1657   23.1081   -1.1930 C   0  0  0  0  0  0  0  0  0  0  0  0
   13.8737   23.8543   -2.1331 C   0  0  0  0  0  0  0  0  0  0  0  0
   13.3755   25.0556   -2.5837 C   0  0  0  0  0  0  0  0  0  0  0  0
   12.1577   25.5601   -2.1192 C   0  0  0  0  0  0  0  0  0  0  0  0
   11.4561   24.8324   -1.1955 C   0  0  0  0  0  0  0  0  0  0  0  0
   14.1146   25.8426   -3.5643 C   0  0  0  0  0  0  0  0  0  0  0  0
   13.4184   26.4155   -4.6356 C   0  0  0  0  0  0  0  0  0  0  0  0
   14.1069   27.1460   -5.5715 C   0  0  0  0  0  0  0  0  0  0  0  0
   15.4631   27.3280   -5.4822 C   0  0  0  0  0  0  0  0  0  0  0  0
   16.1646   26.7759   -4.4412 C   0  0  0  0  0  0  0  0  0  0  0  0
   15.4712   26.0377   -3.4941 C   0  0  0  0  0  0  0  0  0  0  0  0
   16.3675   25.3467   -2.1524 Cl  0  0  0  0  0  0  0  0  0  0  0  0
   16.1273   28.1170   -6.5145 C   0  0  0  0  0  0  0  0  0  0  0  0
   16.1641   29.5066   -6.4302 O   0  0  0  0  0  0  0  0  0  0  0  0
   16.6806   27.5847   -7.4988 O   0  0  0  0  0  0  0  0  0  0  0  0
   15.6373   30.0699   -7.0546 H   0  0  0  0  0  0  0  0  0  0  0  0
    5.8675   21.4018   -1.0757 C   0  0  0  0  0  0  0  0  0  0  0  0
    5.5290   19.9838   -0.9465 C   0  0  0  0  0  0  0  0  0  0  0  0
    5.5136   19.3612    0.2276 N   0  0  0  0  0  0  0  0  0  0  0  0
    5.1992   18.0612    0.3803 C   0  0  0  0  0  0  0  0  0  0  0  0
    4.8731   17.3239   -0.7377 C   0  0  0  0  0  0  0  0  0  0  0  0
    4.8731   17.9233   -1.9881 C   0  0  0  0  0  0  0  0  0  0  0  0
    5.2070   19.2712   -2.0811 C   0  0  0  0  0  0  0  0  0  0  0  0
    5.2055   19.9285   -3.4367 C   0  0  0  0  0  0  0  0  0  0  0  0
 19 20  1  0  0  0
 20 13  1  0  0  0
 13 14  2  0  0  0
 14 15  1  0  0  0
 15 16  2  0  0  0
 16 17  1  0  0  0
 17 18  2  0  0  0
 15  1  1  0  0  0
  1  2  1  0  0  0
  2  3  2  0  0  0
  2  4  1  0  0  0
  4  5  1  0  0  0
  5  6  2  0  0  0
  5  7  1  0  0  0
  7  8  1  0  0  0
  8  9  1  0  0  0
  9 10  1  0  0  0
 10 38  1  0  0  0
 38 39  1  0  0  0
 39 40  2  0  0  0
 40 41  1  0  0  0
 41 42  2  0  0  0
 42 43  1  0  0  0
 43 44  2  0  0  0
 44 45  1  0  0  0
 10 11  1  0  0  0
 11 12  1  0  0  0
  4 21  1  0  0  0
 21 22  2  0  0  0
 22 23  1  0  0  0
 23 24  2  0  0  0
 24 25  1  0  0  0
 25 26  2  0  0  0
 24 27  1  0  0  0
 27 28  2  0  0  0
 28 29  1  0  0  0
 29 30  2  0  0  0
 30 31  1  0  0  0
 31 32  2  0  0  0
 32 33  1  0  0  0
 30 34  1  0  0  0
 34 35  1  0  0  0
 34 36  2  0  0  0
 18 13  1  0  0  0
  7  1  1  0  0  0
 12  7  1  0  0  0
 26 21  1  0  0  0
 32 27  1  0  0  0
 44 39  1  0  0  0
 35 37  1  0  0  0
M  END
> <minimizedAffinity>
-5.88389

> <CNNscore>
0.3899485469

> <CNNaffinity>
7.5683617592

> <CNN_VS>
2.9512717724

> <CNNaffinity_variance>
0.4372518063

$$$$
[H]OC(=O)c1c([H])c([H])c(-c2c([H])c([H])c(N3C(=O)N(c4nc([H])nc(OC([H])([H])[H])c4[H])C4(C3=O)C([H])([H])C([H])([H])N(C([H])([H])c3nc([H])c([H])c([H])c3C([H])([H])[H])C([H])([H])C4([H])[H])c([H])c2[H])c(Cl)c1[H]


 45 50  0  0  0  0  0  0  0  0999 V2000
   15.5906   26.4592   -2.5261 N   0  0  0  0  0  0  0  0  0  0  0  0
   15.2284   25.8528   -1.2678 C   0  0  0  0  0  0  0  0  0  0  0  0
   15.8305   26.0693   -0.1699 O   0  0  0  0  0  0  0  0  0  0  0  0
   14.1045   24.9978   -1.4978 N   0  0  0  0  0  0  0  0  0  0  0  0
   13.8271   25.1221   -2.9066 C   0  0  0  0  0  0  0  0  0  0  0  0
   13.2402   24.2218   -3.5503 O   0  0  0  0  0  0  0  0  0  0  0  0
   14.3685   26.4370   -3.2827 C   0  0  0  0  0  0  0  0  0  0  0  0
   13.4249   27.4706   -2.7046 C   0  0  0  0  0  0  0  0  0  0  0  0
   12.4249   27.9553   -3.6920 C   0  0  0  0  0  0  0  0  0  0  0  0
   12.0465   26.9616   -4.6937 N   0  0  0  0  0  0  0  0  0  0  0  0
   13.1899   26.4973   -5.4361 C   0  0  0  0  0  0  0  0  0  0  0  0
   14.5106   26.6903   -4.7372 C   0  0  0  0  0  0  0  0  0  0  0  0
   18.4927   28.4852   -3.7104 C   0  0  0  0  0  0  0  0  0  0  0  0
   17.1834   28.0804   -3.4625 C   0  0  0  0  0  0  0  0  0  0  0  0
   16.8956   26.9139   -2.7944 C   0  0  0  0  0  0  0  0  0  0  0  0
   17.9385   26.1688   -2.3836 N   0  0  0  0  0  0  0  0  0  0  0  0
   19.2205   26.5695   -2.6291 C   0  0  0  0  0  0  0  0  0  0  0  0
   19.4842   27.7037   -3.2788 N   0  0  0  0  0  0  0  0  0  0  0  0
   20.0304   30.2734   -4.2445 C   0  0  0  0  0  0  0  0  0  0  0  0
   18.7367   29.6785   -4.3936 O   0  0  0  0  0  0  0  0  0  0  0  0
   13.4187   24.2068   -0.5430 C   0  0  0  0  0  0  0  0  0  0  0  0
   12.5462   24.8285    0.3203 C   0  0  0  0  0  0  0  0  0  0  0  0
   11.8868   24.0159    1.2405 C   0  0  0  0  0  0  0  0  0  0  0  0
   12.1189   22.6594    1.2602 C   0  0  0  0  0  0  0  0  0  0  0  0
   13.0124   22.0596    0.3685 C   0  0  0  0  0  0  0  0  0  0  0  0
   13.6640   22.8515   -0.5389 C   0  0  0  0  0  0  0  0  0  0  0  0
   11.4347   21.8051    2.2242 C   0  0  0  0  0  0  0  0  0  0  0  0
   10.2458   22.2603    2.8075 C   0  0  0  0  0  0  0  0  0  0  0  0
    9.6018   21.4700    3.7263 C   0  0  0  0  0  0  0  0  0  0  0  0
   10.0963   20.2431    4.0876 C   0  0  0  0  0  0  0  0  0  0  0  0
   11.2590   19.7778    3.5287 C   0  0  0  0  0  0  0  0  0  0  0  0
   11.9113   20.5743    2.5998 C   0  0  0  0  0  0  0  0  0  0  0  0
   13.3898   19.9698    1.8718 Cl  0  0  0  0  0  0  0  0  0  0  0  0
    9.3570   19.4586    5.0710 C   0  0  0  0  0  0  0  0  0  0  0  0
    9.9080   18.2993    5.6116 O   0  0  0  0  0  0  0  0  0  0  0  0
    8.2185   19.7912    5.4604 O   0  0  0  0  0  0  0  0  0  0  0  0
    9.5463   17.4053    5.3780 H   0  0  0  0  0  0  0  0  0  0  0  0
   11.1058   27.6474   -5.5576 C   0  0  0  0  0  0  0  0  0  0  0  0
   10.4755   28.8386   -4.9868 C   0  0  0  0  0  0  0  0  0  0  0  0
   11.1571   29.7317   -4.2765 N   0  0  0  0  0  0  0  0  0  0  0  0
   10.6086   30.8403   -3.7454 C   0  0  0  0  0  0  0  0  0  0  0  0
    9.2643   31.0729   -3.9428 C   0  0  0  0  0  0  0  0  0  0  0  0
    8.5053   30.1737   -4.6763 C   0  0  0  0  0  0  0  0  0  0  0  0
    9.1300   29.0457   -5.2000 C   0  0  0  0  0  0  0  0  0  0  0  0
    8.3109   28.0669   -6.0006 C   0  0  0  0  0  0  0  0  0  0  0  0
 19 20  1  0  0  0
 20 13  1  0  0  0
 13 14  2  0  0  0
 14 15  1  0  0  0
 15 16  2  0  0  0
 16 17  1  0  0  0
 17 18  2  0  0  0
 15  1  1  0  0  0
  1  2  1  0  0  0
  2  3  2  0  0  0
  2  4  1  0  0  0
  4  5  1  0  0  0
  5  6  2  0  0  0
  5  7  1  0  0  0
  7  8  1  0  0  0
  8  9  1  0  0  0
  9 10  1  0  0  0
 10 38  1  0  0  0
 38 39  1  0  0  0
 39 40  2  0  0  0
 40 41  1  0  0  0
 41 42  2  0  0  0
 42 43  1  0  0  0
 43 44  2  0  0  0
 44 45  1  0  0  0
 10 11  1  0  0  0
 11 12  1  0  0  0
  4 21  1  0  0  0
 21 22  2  0  0  0
 22 23  1  0  0  0
 23 24  2  0  0  0
 24 25  1  0  0  0
 25 26  2  0  0  0
 24 27  1  0  0  0
 27 28  2  0  0  0
 28 29  1  0  0  0
 29 30  2  0  0  0
 30 31  1  0  0  0
 31 32  2  0  0  0
 32 33  1  0  0  0
 30 34  1  0  0  0
 34 35  1  0  0  0
 34 36  2  0  0  0
 18 13  1  0  0  0
  7  1  1  0  0  0
 12  7  1  0  0  0
 26 21  1  0  0  0
 32 27  1  0  0  0
 44 39  1  0  0  0
 35 37  1  0  0  0
M  END
> <minimizedAffinity>
27.75364

> <CNNscore>
0.3499149084

> <CNNaffinity>
7.3465929031

> <CNN_VS>
2.5706822872

> <CNNaffinity_variance>
0.7248477936

$$$$
[H]c1nc(C([H])([H])N2C([H])([H])C([H])([H])C3(C(=O)N(c4c([H])c([H])c(-c5c([H])c([H])c([H])c([H])c5[H])c([H])c4[H])C(=O)N3c3nc([H])n([H])c(=O)c3[H])C([H])([H])C2([H])[H])c(C([H])([H])[H])c([H])c1[H]


 40 45  0  0  0  0  0  0  0  0999 V2000
   14.8285   24.9440   -3.4457 N   0  0  0  0  0  0  0  0  0  0  0  0
   13.9496   25.6890   -2.6426 C   0  0  0  0  0  0  0  0  0  0  0  0
   12.7464   24.9641   -2.1701 C   0  0  0  0  0  0  0  0  0  0  0  0
   13.0759   23.5252   -1.7644 C   0  0  0  0  0  0  0  0  0  0  0  0
   13.8477   22.8381   -2.8066 C   0  0  0  0  0  0  0  0  0  0  0  0
   15.1173   23.6479   -3.1208 C   0  0  0  0  0  0  0  0  0  0  0  0
   13.5822   23.4466   -0.4595 N   0  0  0  0  0  0  0  0  0  0  0  0
   12.8930   22.3166    0.1883 C   0  0  0  0  0  0  0  0  0  0  0  0
   13.2715   21.7052    1.2005 O   0  0  0  0  0  0  0  0  0  0  0  0
   11.6749   22.0601   -0.5566 N   0  0  0  0  0  0  0  0  0  0  0  0
   11.6651   22.9028   -1.6227 C   0  0  0  0  0  0  0  0  0  0  0  0
   10.7249   23.1677   -2.4346 O   0  0  0  0  0  0  0  0  0  0  0  0
   14.4337   24.1920    0.4400 C   0  0  0  0  0  0  0  0  0  0  0  0
   14.0517   25.3445    1.0018 C   0  0  0  0  0  0  0  0  0  0  0  0
   14.9689   26.1909    1.5836 C   0  0  0  0  0  0  0  0  0  0  0  0
   14.6974   27.2795    2.1398 O   0  0  0  0  0  0  0  0  0  0  0  0
   16.2680   25.7955    1.5634 N   0  0  0  0  0  0  0  0  0  0  0  0
   16.6166   24.6463    1.0243 C   0  0  0  0  0  0  0  0  0  0  0  0
   15.7298   23.8430    0.4632 N   0  0  0  0  0  0  0  0  0  0  0  0
   16.9924   26.4397    2.0039 H   0  0  0  0  0  0  0  0  0  0  0  0
   10.5963   21.3883    0.2104 C   0  0  0  0  0  0  0  0  0  0  0  0
    9.4758   22.0453    0.5280 C   0  0  0  0  0  0  0  0  0  0  0  0
    8.2554   21.2703    0.5568 C   0  0  0  0  0  0  0  0  0  0  0  0
    8.2789   19.9846    0.2867 C   0  0  0  0  0  0  0  0  0  0  0  0
    9.4771   19.2817   -0.0002 C   0  0  0  0  0  0  0  0  0  0  0  0
   10.6506   20.0413   -0.0318 C   0  0  0  0  0  0  0  0  0  0  0  0
    7.0297   19.3084   -0.1298 C   0  0  0  0  0  0  0  0  0  0  0  0
    6.1984   18.5972    0.7429 C   0  0  0  0  0  0  0  0  0  0  0  0
    5.1653   17.8743    0.2481 C   0  0  0  0  0  0  0  0  0  0  0  0
    4.8731   17.7740   -1.0873 C   0  0  0  0  0  0  0  0  0  0  0  0
    5.7140   18.4870   -1.9883 C   0  0  0  0  0  0  0  0  0  0  0  0
    6.7294   19.2093   -1.4638 C   0  0  0  0  0  0  0  0  0  0  0  0
   15.7076   25.7428   -4.1448 C   0  0  0  0  0  0  0  0  0  0  0  0
   16.0223   28.2741   -4.9695 C   0  0  0  0  0  0  0  0  0  0  0  0
   16.0306   27.2158   -6.0382 C   0  0  0  0  0  0  0  0  0  0  0  0
   16.2783   27.4763   -7.3504 C   0  0  0  0  0  0  0  0  0  0  0  0
   16.0724   26.4624   -8.2436 C   0  0  0  0  0  0  0  0  0  0  0  0
   15.6393   25.2481   -7.8155 C   0  0  0  0  0  0  0  0  0  0  0  0
   15.4064   25.0195   -6.4902 N   0  0  0  0  0  0  0  0  0  0  0  0
   15.5921   25.9706   -5.5809 C   0  0  0  0  0  0  0  0  0  0  0  0
 34 35  1  0  0  0
 35 36  2  0  0  0
 36 37  1  0  0  0
 37 38  2  0  0  0
 38 39  1  0  0  0
 39 40  2  0  0  0
 40 33  1  0  0  0
 33  1  1  0  0  0
  1  2  1  0  0  0
  2  3  1  0  0  0
  3  4  1  0  0  0
  4  5  1  0  0  0
  5  6  1  0  0  0
  4  7  1  0  0  0
  7  8  1  0  0  0
  8  9  2  0  0  0
  8 10  1  0  0  0
 10 11  1  0  0  0
 11 12  2  0  0  0
 10 21  1  0  0  0
 21 22  2  0  0  0
 22 23  1  0  0  0
 23 24  2  0  0  0
 24 25  1  0  0  0
 25 26  2  0  0  0
 24 27  1  0  0  0
 27 28  2  0  0  0
 28 29  1  0  0  0
 29 30  2  0  0  0
 30 31  1  0  0  0
 31 32  2  0  0  0
  7 13  1  0  0  0
 13 14  2  0  0  0
 14 15  1  0  0  0
 15 16  2  0  0  0
 15 17  1  0  0  0
 17 18  1  0  0  0
 18 19  2  0  0  0
 40 35  1  0  0  0
  6  1  1  0  0  0
 26 21  1  0  0  0
 32 27  1  0  0  0
 19 13  1  0  0  0
 11  4  1  0  0  0
 17 20  1  0  0  0
M  END
> <minimizedAffinity>
0.53059

> <CNNscore>
0.4975308478

> <CNNaffinity>
7.8869924545

> <CNN_VS>
3.9240219593

> <CNNaffinity_variance>
0.5234972835

$$$$
[H]c1nc(C([H])([H])N2C([H])([H])C([H])([H])C3(C(=O)N(c4c([H])c([H])c(-c5c([H])c([H])c([H])c([H])c5[H])c([H])c4[H])C(=O)N3c3nc([H])n([H])c(=O)c3[H])C([H])([H])C2([H])[H])c(C([H])([H])[H])c([H])c1[H]


 40 45  0  0  0  0  0  0  0  0999 V2000
    9.7645   22.5734   -0.8618 N   0  0  0  0  0  0  0  0  0  0  0  0
   10.2680   23.7219   -0.2294 C   0  0  0  0  0  0  0  0  0  0  0  0
   11.6272   23.5899    0.3463 C   0  0  0  0  0  0  0  0  0  0  0  0
   12.5539   22.7860   -0.5695 C   0  0  0  0  0  0  0  0  0  0  0  0
   11.9303   21.5255   -0.9896 C   0  0  0  0  0  0  0  0  0  0  0  0
   10.5793   21.8224   -1.6624 C   0  0  0  0  0  0  0  0  0  0  0  0
   13.1085   23.5764   -1.5859 N   0  0  0  0  0  0  0  0  0  0  0  0
   14.5397   23.2312   -1.6491 C   0  0  0  0  0  0  0  0  0  0  0  0
   15.3068   23.4413   -2.6025 O   0  0  0  0  0  0  0  0  0  0  0  0
   14.9004   22.6211   -0.3834 N   0  0  0  0  0  0  0  0  0  0  0  0
   13.7655   22.5196    0.3572 C   0  0  0  0  0  0  0  0  0  0  0  0
   13.6256   22.2282    1.5856 O   0  0  0  0  0  0  0  0  0  0  0  0
   12.7436   24.6745   -2.4525 C   0  0  0  0  0  0  0  0  0  0  0  0
   13.4809   25.0310   -3.5103 C   0  0  0  0  0  0  0  0  0  0  0  0
   13.3040   26.2519   -4.1219 C   0  0  0  0  0  0  0  0  0  0  0  0
   13.9406   26.6599   -5.1201 O   0  0  0  0  0  0  0  0  0  0  0  0
   12.3468   27.0647   -3.6046 N   0  0  0  0  0  0  0  0  0  0  0  0
   11.6186   26.6824   -2.5767 C   0  0  0  0  0  0  0  0  0  0  0  0
   11.7994   25.5108   -1.9926 N   0  0  0  0  0  0  0  0  0  0  0  0
   12.1993   28.0152   -4.0612 H   0  0  0  0  0  0  0  0  0  0  0  0
   16.3369   22.7188   -0.0229 C   0  0  0  0  0  0  0  0  0  0  0  0
   17.0668   23.7693   -0.4122 C   0  0  0  0  0  0  0  0  0  0  0  0
   18.1035   24.2106    0.4941 C   0  0  0  0  0  0  0  0  0  0  0  0
   18.2996   23.5857    1.6332 C   0  0  0  0  0  0  0  0  0  0  0  0
   17.5564   22.4408    2.0192 C   0  0  0  0  0  0  0  0  0  0  0  0
   16.5523   22.0261    1.1390 C   0  0  0  0  0  0  0  0  0  0  0  0
   19.0088   24.2828    2.7297 C   0  0  0  0  0  0  0  0  0  0  0  0
   19.4644   25.6036    2.6496 C   0  0  0  0  0  0  0  0  0  0  0  0
   20.2452   26.1067    3.6353 C   0  0  0  0  0  0  0  0  0  0  0  0
   20.6459   25.3908    4.7333 C   0  0  0  0  0  0  0  0  0  0  0  0
   20.1956   24.0432    4.8259 C   0  0  0  0  0  0  0  0  0  0  0  0
   19.4077   23.5732    3.8329 C   0  0  0  0  0  0  0  0  0  0  0  0
    8.3993   22.6282   -1.0428 C   0  0  0  0  0  0  0  0  0  0  0  0
    7.2500   20.3384   -1.8320 C   0  0  0  0  0  0  0  0  0  0  0  0
    7.0785   20.7095   -0.3845 C   0  0  0  0  0  0  0  0  0  0  0  0
    6.4652   19.9082    0.5281 C   0  0  0  0  0  0  0  0  0  0  0  0
    6.2091   20.4392    1.7612 C   0  0  0  0  0  0  0  0  0  0  0  0
    6.5641   21.7195    2.0443 C   0  0  0  0  0  0  0  0  0  0  0  0
    7.1838   22.4937    1.1065 N   0  0  0  0  0  0  0  0  0  0  0  0
    7.4567   22.0255   -0.1068 C   0  0  0  0  0  0  0  0  0  0  0  0
 34 35  1  0  0  0
 35 36  2  0  0  0
 36 37  1  0  0  0
 37 38  2  0  0  0
 38 39  1  0  0  0
 39 40  2  0  0  0
 40 33  1  0  0  0
 33  1  1  0  0  0
  1  2  1  0  0  0
  2  3  1  0  0  0
  3  4  1  0  0  0
  4  5  1  0  0  0
  5  6  1  0  0  0
  4  7  1  0  0  0
  7  8  1  0  0  0
  8  9  2  0  0  0
  8 10  1  0  0  0
 10 11  1  0  0  0
 11 12  2  0  0  0
 10 21  1  0  0  0
 21 22  2  0  0  0
 22 23  1  0  0  0
 23 24  2  0  0  0
 24 25  1  0  0  0
 25 26  2  0  0  0
 24 27  1  0  0  0
 27 28  2  0  0  0
 28 29  1  0  0  0
 29 30  2  0  0  0
 30 31  1  0  0  0
 31 32  2  0  0  0
  7 13  1  0  0  0
 13 14  2  0  0  0
 14 15  1  0  0  0
 15 16  2  0  0  0
 15 17  1  0  0  0
 17 18  1  0  0  0
 18 19  2  0  0  0
 40 35  1  0  0  0
  6  1  1  0  0  0
 26 21  1  0  0  0
 32 27  1  0  0  0
 19 13  1  0  0  0
 11  4  1  0  0  0
 17 20  1  0  0  0
M  END
> <minimizedAffinity>
34.83061

> <CNNscore>
0.4081713855

> <CNNaffinity>
7.4261612892

> <CNN_VS>
3.0311465263

> <CNNaffinity_variance>
0.8182059526

$$$$
[H]c1nc(C([H])([H])N2C([H])([H])C([H])([H])C3(C(=O)N(c4c([H])c([H])c(-c5c([H])c([H])c([H])c([H])c5[H])c([H])c4[H])C(=O)N3c3nc([H])n([H])c(=O)c3[H])C([H])([H])C2([H])[H])c(C([H])([H])[H])c([H])c1[H]


 40 45  0  0  0  0  0  0  0  0999 V2000
   12.9754   25.7941   -2.2702 N   0  0  0  0  0  0  0  0  0  0  0  0
   13.5627   24.7947   -1.4772 C   0  0  0  0  0  0  0  0  0  0  0  0
   13.0031   24.6515   -0.1124 C   0  0  0  0  0  0  0  0  0  0  0  0
   11.4791   24.7962   -0.1077 C   0  0  0  0  0  0  0  0  0  0  0  0
   11.0529   25.9991   -0.8325 C   0  0  0  0  0  0  0  0  0  0  0  0
   11.6188   25.9623   -2.2624 C   0  0  0  0  0  0  0  0  0  0  0  0
   10.8335   23.6000   -0.4507 N   0  0  0  0  0  0  0  0  0  0  0  0
    9.7301   23.4305    0.5112 C   0  0  0  0  0  0  0  0  0  0  0  0
    8.7323   22.7056    0.3676 O   0  0  0  0  0  0  0  0  0  0  0  0
   10.0306   24.2468    1.6722 N   0  0  0  0  0  0  0  0  0  0  0  0
   11.1759   24.9277    1.4051 C   0  0  0  0  0  0  0  0  0  0  0  0
   11.9123   25.6076    2.1854 O   0  0  0  0  0  0  0  0  0  0  0  0
   11.0038   22.4689   -1.3347 C   0  0  0  0  0  0  0  0  0  0  0  0
   10.0365   22.0474   -2.1572 C   0  0  0  0  0  0  0  0  0  0  0  0
   10.0925   20.8021   -2.7422 C   0  0  0  0  0  0  0  0  0  0  0  0
    9.2392   20.3341   -3.5302 O   0  0  0  0  0  0  0  0  0  0  0  0
   11.1736   20.0342   -2.4490 N   0  0  0  0  0  0  0  0  0  0  0  0
   12.1238   20.4799   -1.6543 C   0  0  0  0  0  0  0  0  0  0  0  0
   12.0586   21.6745   -1.0928 N   0  0  0  0  0  0  0  0  0  0  0  0
   11.2316   19.0659   -2.8880 H   0  0  0  0  0  0  0  0  0  0  0  0
    9.3875   23.8073    2.9356 C   0  0  0  0  0  0  0  0  0  0  0  0
    8.1227   24.1442    3.2092 C   0  0  0  0  0  0  0  0  0  0  0  0
    7.3385   23.1778    3.9452 C   0  0  0  0  0  0  0  0  0  0  0  0
    7.8720   22.0367    4.3194 C   0  0  0  0  0  0  0  0  0  0  0  0
    9.2285   21.7049    4.0711 C   0  0  0  0  0  0  0  0  0  0  0  0
    9.9763   22.6432    3.3533 C   0  0  0  0  0  0  0  0  0  0  0  0
    6.9875   20.8954    4.6454 C   0  0  0  0  0  0  0  0  0  0  0  0
    5.5927   20.9838    4.7164 C   0  0  0  0  0  0  0  0  0  0  0  0
    4.8749   19.9329    5.1803 C   0  0  0  0  0  0  0  0  0  0  0  0
    5.4325   18.7575    5.6116 C   0  0  0  0  0  0  0  0  0  0  0  0
    6.8514   18.6548    5.5514 C   0  0  0  0  0  0  0  0  0  0  0  0
    7.5395   19.7154    5.0725 C   0  0  0  0  0  0  0  0  0  0  0  0
   13.7540   26.1285   -3.3572 C   0  0  0  0  0  0  0  0  0  0  0  0
   16.2237   26.4878   -2.3783 C   0  0  0  0  0  0  0  0  0  0  0  0
   15.9977   25.2371   -3.1827 C   0  0  0  0  0  0  0  0  0  0  0  0
   16.9399   24.2694   -3.3461 C   0  0  0  0  0  0  0  0  0  0  0  0
   16.6749   23.2783   -4.2492 C   0  0  0  0  0  0  0  0  0  0  0  0
   15.5079   23.2775   -4.9445 C   0  0  0  0  0  0  0  0  0  0  0  0
   14.5816   24.2612   -4.7511 N   0  0  0  0  0  0  0  0  0  0  0  0
   14.7895   25.2467   -3.8843 C   0  0  0  0  0  0  0  0  0  0  0  0
 34 35  1  0  0  0
 35 36  2  0  0  0
 36 37  1  0  0  0
 37 38  2  0  0  0
 38 39  1  0  0  0
 39 40  2  0  0  0
 40 33  1  0  0  0
 33  1  1  0  0  0
  1  2  1  0  0  0
  2  3  1  0  0  0
  3  4  1  0  0  0
  4  5  1  0  0  0
  5  6  1  0  0  0
  4  7  1  0  0  0
  7  8  1  0  0  0
  8  9  2  0  0  0
  8 10  1  0  0  0
 10 11  1  0  0  0
 11 12  2  0  0  0
 10 21  1  0  0  0
 21 22  2  0  0  0
 22 23  1  0  0  0
 23 24  2  0  0  0
 24 25  1  0  0  0
 25 26  2  0  0  0
 24 27  1  0  0  0
 27 28  2  0  0  0
 28 29  1  0  0  0
 29 30  2  0  0  0
 30 31  1  0  0  0
 31 32  2  0  0  0
  7 13  1  0  0  0
 13 14  2  0  0  0
 14 15  1  0  0  0
 15 16  2  0  0  0
 15 17  1  0  0  0
 17 18  1  0  0  0
 18 19  2  0  0  0
 40 35  1  0  0  0
  6  1  1  0  0  0
 26 21  1  0  0  0
 32 27  1  0  0  0
 19 13  1  0  0  0
 11  4  1  0  0  0
 17 20  1  0  0  0
M  END
> <minimizedAffinity>
10.40919

> <CNNscore>
0.4036523402

> <CNNaffinity>
7.3613510132

> <CNN_VS>
2.9714264870

> <CNNaffinity_variance>
1.3752938509

$$$$
[H]c1nc(C([H])([H])N2C([H])([H])C([H])([H])C3(C(=O)N(c4c([H])c([H])c(-c5c([H])c([H])c([H])c([H])c5[H])c([H])c4[H])C(=O)N3c3nc([H])n([H])c(=O)c3[H])C([H])([H])C2([H])[H])c(C([H])([H])[H])c([H])c1[H]


 40 45  0  0  0  0  0  0  0  0999 V2000
   15.1041   23.4164   -0.0487 N   0  0  0  0  0  0  0  0  0  0  0  0
   14.3840   22.6017   -0.9377 C   0  0  0  0  0  0  0  0  0  0  0  0
   13.1425   22.0035   -0.3926 C   0  0  0  0  0  0  0  0  0  0  0  0
   12.3749   22.9952    0.4855 C   0  0  0  0  0  0  0  0  0  0  0  0
   13.2536   23.6212    1.4806 C   0  0  0  0  0  0  0  0  0  0  0  0
   14.4402   24.2904    0.7663 C   0  0  0  0  0  0  0  0  0  0  0  0
   11.5735   23.8612   -0.2715 N   0  0  0  0  0  0  0  0  0  0  0  0
   10.2680   23.9237    0.4092 C   0  0  0  0  0  0  0  0  0  0  0  0
    9.4062   24.8067    0.2702 O   0  0  0  0  0  0  0  0  0  0  0  0
   10.1581   22.7512    1.2563 N   0  0  0  0  0  0  0  0  0  0  0  0
   11.3341   22.0756    1.1701 C   0  0  0  0  0  0  0  0  0  0  0  0
   11.6285   20.9104    1.5813 O   0  0  0  0  0  0  0  0  0  0  0  0
   11.5979   24.5666   -1.5331 C   0  0  0  0  0  0  0  0  0  0  0  0
   12.6253   25.3383   -1.9055 C   0  0  0  0  0  0  0  0  0  0  0  0
   12.4990   26.2424   -2.9364 C   0  0  0  0  0  0  0  0  0  0  0  0
   13.4094   26.9930   -3.3557 O   0  0  0  0  0  0  0  0  0  0  0  0
   11.2910   26.3045   -3.5538 N   0  0  0  0  0  0  0  0  0  0  0  0
   10.3016   25.5188   -3.1840 C   0  0  0  0  0  0  0  0  0  0  0  0
   10.4305   24.6580   -2.1896 N   0  0  0  0  0  0  0  0  0  0  0  0
   11.1729   27.0017   -4.3499 H   0  0  0  0  0  0  0  0  0  0  0  0
    8.7706   22.3286    1.5712 C   0  0  0  0  0  0  0  0  0  0  0  0
    8.1000   21.5210    0.7429 C   0  0  0  0  0  0  0  0  0  0  0  0
    7.1845   20.5821    1.3521 C   0  0  0  0  0  0  0  0  0  0  0  0
    7.0348   20.5525    2.6572 C   0  0  0  0  0  0  0  0  0  0  0  0
    7.7104   21.4452    3.5283 C   0  0  0  0  0  0  0  0  0  0  0  0
    8.5980   22.3446    2.9300 C   0  0  0  0  0  0  0  0  0  0  0  0
    6.4818   19.3371    3.2960 C   0  0  0  0  0  0  0  0  0  0  0  0
    5.7051   18.3864    2.6243 C   0  0  0  0  0  0  0  0  0  0  0  0
    5.1053   17.3929    3.3228 C   0  0  0  0  0  0  0  0  0  0  0  0
    5.1947   17.2536    4.6834 C   0  0  0  0  0  0  0  0  0  0  0  0
    5.9765   18.2172    5.3817 C   0  0  0  0  0  0  0  0  0  0  0  0
    6.5726   19.1896    4.6560 C   0  0  0  0  0  0  0  0  0  0  0  0
   16.3986   23.6364   -0.4676 C   0  0  0  0  0  0  0  0  0  0  0  0
   15.7297   22.8731   -2.9489 C   0  0  0  0  0  0  0  0  0  0  0  0
   16.1391   24.3103   -2.7780 C   0  0  0  0  0  0  0  0  0  0  0  0
   16.0927   25.2281   -3.7812 C   0  0  0  0  0  0  0  0  0  0  0  0
   16.6660   26.4466   -3.5470 C   0  0  0  0  0  0  0  0  0  0  0  0
   17.2519   26.7108   -2.3502 C   0  0  0  0  0  0  0  0  0  0  0  0
   17.2750   25.7682   -1.3632 N   0  0  0  0  0  0  0  0  0  0  0  0
   16.7311   24.5686   -1.5391 C   0  0  0  0  0  0  0  0  0  0  0  0
 34 35  1  0  0  0
 35 36  2  0  0  0
 36 37  1  0  0  0
 37 38  2  0  0  0
 38 39  1  0  0  0
 39 40  2  0  0  0
 40 33  1  0  0  0
 33  1  1  0  0  0
  1  2  1  0  0  0
  2  3  1  0  0  0
  3  4  1  0  0  0
  4  5  1  0  0  0
  5  6  1  0  0  0
  4  7  1  0  0  0
  7  8  1  0  0  0
  8  9  2  0  0  0
  8 10  1  0  0  0
 10 11  1  0  0  0
 11 12  2  0  0  0
 10 21  1  0  0  0
 21 22  2  0  0  0
 22 23  1  0  0  0
 23 24  2  0  0  0
 24 25  1  0  0  0
 25 26  2  0  0  0
 24 27  1  0  0  0
 27 28  2  0  0  0
 28 29  1  0  0  0
 29 30  2  0  0  0
 30 31  1  0  0  0
 31 32  2  0  0  0
  7 13  1  0  0  0
 13 14  2  0  0  0
 14 15  1  0  0  0
 15 16  2  0  0  0
 15 17  1  0  0  0
 17 18  1  0  0  0
 18 19  2  0  0  0
 40 35  1  0  0  0
  6  1  1  0  0  0
 26 21  1  0  0  0
 32 27  1  0  0  0
 19 13  1  0  0  0
 11  4  1  0  0  0
 17 20  1  0  0  0
M  END
> <minimizedAffinity>
7.15390

> <CNNscore>
0.4003016353

> <CNNaffinity>
7.5293755531

> <CNN_VS>
3.0140213966

> <CNNaffinity_variance>
1.4123275280

$$$$
[H]c1nc(C([H])([H])N2C([H])([H])C([H])([H])C3(C(=O)N(c4c([H])c([H])c(-c5c([H])c([H])c([H])c([H])c5[H])c([H])c4[H])C(=O)N3c3nc([H])n([H])c(=O)c3[H])C([H])([H])C2([H])[H])c(C([H])([H])[H])c([H])c1[H]


 40 45  0  0  0  0  0  0  0  0999 V2000
   14.9244   23.8091   -4.3481 N   0  0  0  0  0  0  0  0  0  0  0  0
   14.2053   24.6395   -3.4730 C   0  0  0  0  0  0  0  0  0  0  0  0
   13.2037   23.9549   -2.6217 C   0  0  0  0  0  0  0  0  0  0  0  0
   13.7250   22.6123   -2.1030 C   0  0  0  0  0  0  0  0  0  0  0  0
   14.2800   21.7970   -3.1899 C   0  0  0  0  0  0  0  0  0  0  0  0
   15.3767   22.5929   -3.9178 C   0  0  0  0  0  0  0  0  0  0  0  0
   14.5276   22.7615   -0.9632 N   0  0  0  0  0  0  0  0  0  0  0  0
   14.0953   21.7244   -0.0097 C   0  0  0  0  0  0  0  0  0  0  0  0
   14.7449   21.2966    0.9581 O   0  0  0  0  0  0  0  0  0  0  0  0
   12.7591   21.3075   -0.3906 N   0  0  0  0  0  0  0  0  0  0  0  0
   12.4370   21.9686   -1.5334 C   0  0  0  0  0  0  0  0  0  0  0  0
   11.3157   22.0657   -2.1221 O   0  0  0  0  0  0  0  0  0  0  0  0
   15.5083   23.6719   -0.4163 C   0  0  0  0  0  0  0  0  0  0  0  0
   15.9225   24.7616   -1.0726 C   0  0  0  0  0  0  0  0  0  0  0  0
   17.0672   25.4273   -0.6952 C   0  0  0  0  0  0  0  0  0  0  0  0
   17.5191   26.4578   -1.2448 O   0  0  0  0  0  0  0  0  0  0  0  0
   17.7437   24.9289    0.3717 N   0  0  0  0  0  0  0  0  0  0  0  0
   17.3041   23.8680    1.0153 C   0  0  0  0  0  0  0  0  0  0  0  0
   16.2072   23.2323    0.6423 N   0  0  0  0  0  0  0  0  0  0  0  0
   18.6344   25.4274    0.6748 H   0  0  0  0  0  0  0  0  0  0  0  0
   11.9433   20.7270    0.7050 C   0  0  0  0  0  0  0  0  0  0  0  0
   12.4237   20.6624    1.9512 C   0  0  0  0  0  0  0  0  0  0  0  0
   11.4686   20.8274    3.0242 C   0  0  0  0  0  0  0  0  0  0  0  0
   10.1970   21.0226    2.7569 C   0  0  0  0  0  0  0  0  0  0  0  0
    9.6839   21.0399    1.4346 C   0  0  0  0  0  0  0  0  0  0  0  0
   10.6164   20.8858    0.4042 C   0  0  0  0  0  0  0  0  0  0  0  0
    9.3257   21.6346    3.7852 C   0  0  0  0  0  0  0  0  0  0  0  0
    8.6743   20.9092    4.7892 C   0  0  0  0  0  0  0  0  0  0  0  0
    7.7692   21.5266    5.5854 C   0  0  0  0  0  0  0  0  0  0  0  0
    7.4233   22.8476    5.4679 C   0  0  0  0  0  0  0  0  0  0  0  0
    8.0729   23.5975    4.4466 C   0  0  0  0  0  0  0  0  0  0  0  0
    8.9803   22.9569    3.6758 C   0  0  0  0  0  0  0  0  0  0  0  0
   15.5533   24.5183   -5.3487 C   0  0  0  0  0  0  0  0  0  0  0  0
   13.7855   25.7072   -3.7214 C   0  0  0  0  0  0  0  0  0  0  0  0
   14.7155   26.6156   -4.4777 C   0  0  0  0  0  0  0  0  0  0  0  0
   14.7555   27.9641   -4.3013 C   0  0  0  0  0  0  0  0  0  0  0  0
   15.5086   28.6921   -5.1794 C   0  0  0  0  0  0  0  0  0  0  0  0
   16.1853   28.0724   -6.1811 C   0  0  0  0  0  0  0  0  0  0  0  0
   16.1277   26.7163   -6.3252 N   0  0  0  0  0  0  0  0  0  0  0  0
   15.4114   25.9623   -5.4980 C   0  0  0  0  0  0  0  0  0  0  0  0
 34 35  1  0  0  0
 35 36  2  0  0  0
 36 37  1  0  0  0
 37 38  2  0  0  0
 38 39  1  0  0  0
 39 40  2  0  0  0
 40 33  1  0  0  0
 33  1  1  0  0  0
  1  2  1  0  0  0
  2  3  1  0  0  0
  3  4  1  0  0  0
  4  5  1  0  0  0
  5  6  1  0  0  0
  4  7  1  0  0  0
  7  8  1  0  0  0
  8  9  2  0  0  0
  8 10  1  0  0  0
 10 11  1  0  0  0
 11 12  2  0  0  0
 10 21  1  0  0  0
 21 22  2  0  0  0
 22 23  1  0  0  0
 23 24  2  0  0  0
 24 25  1  0  0  0
 25 26  2  0  0  0
 24 27  1  0  0  0
 27 28  2  0  0  0
 28 29  1  0  0  0
 29 30  2  0  0  0
 30 31  1  0  0  0
 31 32  2  0  0  0
  7 13  1  0  0  0
 13 14  2  0  0  0
 14 15  1  0  0  0
 15 16  2  0  0  0
 15 17  1  0  0  0
 17 18  1  0  0  0
 18 19  2  0  0  0
 40 35  1  0  0  0
  6  1  1  0  0  0
 26 21  1  0  0  0
 32 27  1  0  0  0
 19 13  1  0  0  0
 11  4  1  0  0  0
 17 20  1  0  0  0
M  END
> <minimizedAffinity>
-1.23378

> <CNNscore>
0.3750949502

> <CNNaffinity>
8.0227537155

> <CNN_VS>
3.0092945099

> <CNNaffinity_variance>
0.3839783370

$$$$
[H]c1nc(C([H])([H])N2C([H])([H])C([H])([H])C3(C(=O)N(c4c([H])c([H])c(-c5c([H])c([H])c([H])c([H])c5[H])c([H])c4[H])C(=O)N3c3nc([H])n([H])c(=O)c3[H])C([H])([H])C2([H])[H])c(C([H])([H])[H])c([H])c1[H]


 40 45  0  0  0  0  0  0  0  0999 V2000
    8.4068   20.4584    0.3668 N   0  0  0  0  0  0  0  0  0  0  0  0
    9.5088   20.8932    1.1210 C   0  0  0  0  0  0  0  0  0  0  0  0
   10.6399   21.4457    0.3388 C   0  0  0  0  0  0  0  0  0  0  0  0
   10.1528   22.3145   -0.8238 C   0  0  0  0  0  0  0  0  0  0  0  0
    9.1266   21.6250   -1.6147 C   0  0  0  0  0  0  0  0  0  0  0  0
    7.9694   21.2019   -0.6937 C   0  0  0  0  0  0  0  0  0  0  0  0
    9.8524   23.6220   -0.4169 N   0  0  0  0  0  0  0  0  0  0  0  0
   10.4455   24.5193   -1.4242 C   0  0  0  0  0  0  0  0  0  0  0  0
   10.1384   25.7053   -1.6264 O   0  0  0  0  0  0  0  0  0  0  0  0
   11.4742   23.7739   -2.1246 N   0  0  0  0  0  0  0  0  0  0  0  0
   11.4505   22.5016   -1.6476 C   0  0  0  0  0  0  0  0  0  0  0  0
   12.2811   21.5570   -1.8240 O   0  0  0  0  0  0  0  0  0  0  0  0
    9.2834   24.3225    0.7125 C   0  0  0  0  0  0  0  0  0  0  0  0
   10.0328   24.8099    1.7079 C   0  0  0  0  0  0  0  0  0  0  0  0
    9.4685   25.1782    2.9087 C   0  0  0  0  0  0  0  0  0  0  0  0
   10.0921   25.6520    3.8858 O   0  0  0  0  0  0  0  0  0  0  0  0
    8.1238   25.0287    3.0265 N   0  0  0  0  0  0  0  0  0  0  0  0
    7.4046   24.5678    2.0249 C   0  0  0  0  0  0  0  0  0  0  0  0
    7.9558   24.2115    0.8779 N   0  0  0  0  0  0  0  0  0  0  0  0
    7.6704   25.3033    3.9499 H   0  0  0  0  0  0  0  0  0  0  0  0
   12.5387   24.6002   -2.7466 C   0  0  0  0  0  0  0  0  0  0  0  0
   12.8255   25.8151   -2.2671 C   0  0  0  0  0  0  0  0  0  0  0  0
   14.2088   26.2302   -2.3368 C   0  0  0  0  0  0  0  0  0  0  0  0
   15.1153   25.4342   -2.8575 C   0  0  0  0  0  0  0  0  0  0  0  0
   14.7984   24.1671   -3.4108 C   0  0  0  0  0  0  0  0  0  0  0  0
   13.4593   23.7725   -3.3327 C   0  0  0  0  0  0  0  0  0  0  0  0
   16.5419   25.6427   -2.5219 C   0  0  0  0  0  0  0  0  0  0  0  0
   17.1092   25.3145   -1.2854 C   0  0  0  0  0  0  0  0  0  0  0  0
   18.3810   25.6893   -1.0083 C   0  0  0  0  0  0  0  0  0  0  0  0
   19.1735   26.4003   -1.8715 C   0  0  0  0  0  0  0  0  0  0  0  0
   18.6079   26.7472   -3.1313 C   0  0  0  0  0  0  0  0  0  0  0  0
   17.3409   26.3488   -3.3837 C   0  0  0  0  0  0  0  0  0  0  0  0
    7.5676   19.6361    1.0874 C   0  0  0  0  0  0  0  0  0  0  0  0
    5.4657   18.2470    2.0035 C   0  0  0  0  0  0  0  0  0  0  0  0
    6.2317   19.0499    3.0189 C   0  0  0  0  0  0  0  0  0  0  0  0
    5.9652   19.0231    4.3528 C   0  0  0  0  0  0  0  0  0  0  0  0
    6.6073   19.9359    5.1419 C   0  0  0  0  0  0  0  0  0  0  0  0
    7.4762   20.8252    4.5947 C   0  0  0  0  0  0  0  0  0  0  0  0
    7.7248   20.8200    3.2526 N   0  0  0  0  0  0  0  0  0  0  0  0
    7.1280   19.9528    2.4417 C   0  0  0  0  0  0  0  0  0  0  0  0
 34 35  1  0  0  0
 35 36  2  0  0  0
 36 37  1  0  0  0
 37 38  2  0  0  0
 38 39  1  0  0  0
 39 40  2  0  0  0
 40 33  1  0  0  0
 33  1  1  0  0  0
  1  2  1  0  0  0
  2  3  1  0  0  0
  3  4  1  0  0  0
  4  5  1  0  0  0
  5  6  1  0  0  0
  4  7  1  0  0  0
  7  8  1  0  0  0
  8  9  2  0  0  0
  8 10  1  0  0  0
 10 11  1  0  0  0
 11 12  2  0  0  0
 10 21  1  0  0  0
 21 22  2  0  0  0
 22 23  1  0  0  0
 23 24  2  0  0  0
 24 25  1  0  0  0
 25 26  2  0  0  0
 24 27  1  0  0  0
 27 28  2  0  0  0
 28 29  1  0  0  0
 29 30  2  0  0  0
 30 31  1  0  0  0
 31 32  2  0  0  0
  7 13  1  0  0  0
 13 14  2  0  0  0
 14 15  1  0  0  0
 15 16  2  0  0  0
 15 17  1  0  0  0
 17 18  1  0  0  0
 18 19  2  0  0  0
 40 35  1  0  0  0
  6  1  1  0  0  0
 26 21  1  0  0  0
 32 27  1  0  0  0
 19 13  1  0  0  0
 11  4  1  0  0  0
 17 20  1  0  0  0
M  END
> <minimizedAffinity>
20.86928

> <CNNscore>
0.3635651469

> <CNNaffinity>
6.7941551208

> <CNN_VS>
2.4701180458

> <CNNaffinity_variance>
0.7583407164

$$$$
[H]c1nc(C([H])([H])N2C([H])([H])C([H])([H])C3(C(=O)N(c4c([H])c([H])c(-c5c([H])c([H])c([H])c([H])c5[H])c([H])c4[H])C(=O)N3c3nc([H])n([H])c(=O)c3[H])C([H])([H])C2([H])[H])c(C([H])([H])[H])c([H])c1[H]


 40 45  0  0  0  0  0  0  0  0999 V2000
   11.8013   24.2168   -0.8396 N   0  0  0  0  0  0  0  0  0  0  0  0
   12.2475   25.4643   -0.3735 C   0  0  0  0  0  0  0  0  0  0  0  0
   13.6579   25.7954   -0.6858 C   0  0  0  0  0  0  0  0  0  0  0  0
   14.0419   25.3566   -2.1013 C   0  0  0  0  0  0  0  0  0  0  0  0
   13.6593   23.9621   -2.3523 C   0  0  0  0  0  0  0  0  0  0  0  0
   12.1535   23.7894   -2.0895 C   0  0  0  0  0  0  0  0  0  0  0  0
   13.6532   26.2936   -3.0690 N   0  0  0  0  0  0  0  0  0  0  0  0
   14.7998   26.4520   -3.9809 C   0  0  0  0  0  0  0  0  0  0  0  0
   14.7667   26.9141   -5.1329 O   0  0  0  0  0  0  0  0  0  0  0  0
   15.9843   25.9922   -3.2808 N   0  0  0  0  0  0  0  0  0  0  0  0
   15.5826   25.5095   -2.0757 C   0  0  0  0  0  0  0  0  0  0  0  0
   16.2776   25.1810   -1.0645 O   0  0  0  0  0  0  0  0  0  0  0  0
   12.5689   27.2090   -3.3451 C   0  0  0  0  0  0  0  0  0  0  0  0
   11.6552   26.9757   -4.2940 C   0  0  0  0  0  0  0  0  0  0  0  0
   10.8386   27.9825   -4.7584 C   0  0  0  0  0  0  0  0  0  0  0  0
    9.9525   27.8496   -5.6332 O   0  0  0  0  0  0  0  0  0  0  0  0
   11.0029   29.2112   -4.2035 N   0  0  0  0  0  0  0  0  0  0  0  0
   11.8937   29.4110   -3.2551 C   0  0  0  0  0  0  0  0  0  0  0  0
   12.6770   28.4396   -2.8197 N   0  0  0  0  0  0  0  0  0  0  0  0
   10.3839   30.0035   -4.5539 H   0  0  0  0  0  0  0  0  0  0  0  0
   17.2649   26.5669   -3.7632 C   0  0  0  0  0  0  0  0  0  0  0  0
   17.4324   26.8680   -5.0552 C   0  0  0  0  0  0  0  0  0  0  0  0
   18.2558   28.0191   -5.3516 C   0  0  0  0  0  0  0  0  0  0  0  0
   18.8048   28.7108   -4.3787 C   0  0  0  0  0  0  0  0  0  0  0  0
   18.6658   28.3579   -3.0119 C   0  0  0  0  0  0  0  0  0  0  0  0
   17.8625   27.2473   -2.7356 C   0  0  0  0  0  0  0  0  0  0  0  0
   19.2415   30.1018   -4.6351 C   0  0  0  0  0  0  0  0  0  0  0  0
   18.9097   30.8248   -5.7864 C   0  0  0  0  0  0  0  0  0  0  0  0
   19.4857   32.0294   -6.0134 C   0  0  0  0  0  0  0  0  0  0  0  0
   20.4088   32.6045   -5.1792 C   0  0  0  0  0  0  0  0  0  0  0  0
   20.7614   31.8779   -4.0066 C   0  0  0  0  0  0  0  0  0  0  0  0
   20.1608   30.6842   -3.8013 C   0  0  0  0  0  0  0  0  0  0  0  0
   10.6395   23.8087   -0.2205 C   0  0  0  0  0  0  0  0  0  0  0  0
   11.2832   21.2929   -0.8864 C   0  0  0  0  0  0  0  0  0  0  0  0
   11.2275   21.6029    0.5843 C   0  0  0  0  0  0  0  0  0  0  0  0
   11.5722   20.7115    1.5527 C   0  0  0  0  0  0  0  0  0  0  0  0
   11.2998   21.0521    2.8480 C   0  0  0  0  0  0  0  0  0  0  0  0
   10.7094   22.2413    3.1354 C   0  0  0  0  0  0  0  0  0  0  0  0
   10.3823   23.1149    2.1390 N   0  0  0  0  0  0  0  0  0  0  0  0
   10.6266   22.8329    0.8636 C   0  0  0  0  0  0  0  0  0  0  0  0
 34 35  1  0  0  0
 35 36  2  0  0  0
 36 37  1  0  0  0
 37 38  2  0  0  0
 38 39  1  0  0  0
 39 40  2  0  0  0
 40 33  1  0  0  0
 33  1  1  0  0  0
  1  2  1  0  0  0
  2  3  1  0  0  0
  3  4  1  0  0  0
  4  5  1  0  0  0
  5  6  1  0  0  0
  4  7  1  0  0  0
  7  8  1  0  0  0
  8  9  2  0  0  0
  8 10  1  0  0  0
 10 11  1  0  0  0
 11 12  2  0  0  0
 10 21  1  0  0  0
 21 22  2  0  0  0
 22 23  1  0  0  0
 23 24  2  0  0  0
 24 25  1  0  0  0
 25 26  2  0  0  0
 24 27  1  0  0  0
 27 28  2  0  0  0
 28 29  1  0  0  0
 29 30  2  0  0  0
 30 31  1  0  0  0
 31 32  2  0  0  0
  7 13  1  0  0  0
 13 14  2  0  0  0
 14 15  1  0  0  0
 15 16  2  0  0  0
 15 17  1  0  0  0
 17 18  1  0  0  0
 18 19  2  0  0  0
 40 35  1  0  0  0
  6  1  1  0  0  0
 26 21  1  0  0  0
 32 27  1  0  0  0
 19 13  1  0  0  0
 11  4  1  0  0  0
 17 20  1  0  0  0
M  END
> <minimizedAffinity>
53.00238

> <CNNscore>
0.3615791500

> <CNNaffinity>
7.0860724449

> <CNN_VS>
2.5621759892

> <CNNaffinity_variance>
0.7096977234

$$$$
[H]c1nc(C([H])([H])N2C([H])([H])C([H])([H])C3(C(=O)N(c4c([H])c([H])c(-c5c([H])c([H])c([H])c([H])c5[H])c([H])c4[H])C(=O)N3c3nc([H])n([H])c(=O)c3[H])C([H])([H])C2([H])[H])c(C([H])([H])[H])c([H])c1[H]


 40 45  0  0  0  0  0  0  0  0999 V2000
    8.5694   24.6538   -0.1601 N   0  0  0  0  0  0  0  0  0  0  0  0
    8.9847   23.8178   -1.2095 C   0  0  0  0  0  0  0  0  0  0  0  0
   10.2880   24.1641   -1.8241 C   0  0  0  0  0  0  0  0  0  0  0  0
   11.3141   24.5915   -0.7715 C   0  0  0  0  0  0  0  0  0  0  0  0
   10.7626   25.6074    0.1328 C   0  0  0  0  0  0  0  0  0  0  0  0
    9.4723   25.0724    0.7771 C   0  0  0  0  0  0  0  0  0  0  0  0
   11.9405   23.4926   -0.1670 N   0  0  0  0  0  0  0  0  0  0  0  0
   13.3794   23.8068   -0.1187 C   0  0  0  0  0  0  0  0  0  0  0  0
   14.2256   23.2739    0.6172 O   0  0  0  0  0  0  0  0  0  0  0  0
   13.6369   24.8378   -1.1062 N   0  0  0  0  0  0  0  0  0  0  0  0
   12.4415   25.1885   -1.6492 C   0  0  0  0  0  0  0  0  0  0  0  0
   12.1965   25.9035   -2.6700 O   0  0  0  0  0  0  0  0  0  0  0  0
   11.6303   22.1514    0.2742 C   0  0  0  0  0  0  0  0  0  0  0  0
   10.9008   21.9052    1.3684 C   0  0  0  0  0  0  0  0  0  0  0  0
   10.8868   20.6563    1.9481 C   0  0  0  0  0  0  0  0  0  0  0  0
   10.2260   20.3373    2.9628 O   0  0  0  0  0  0  0  0  0  0  0  0
   11.6395   19.6950    1.3532 N   0  0  0  0  0  0  0  0  0  0  0  0
   12.3315   19.9557    0.2641 C   0  0  0  0  0  0  0  0  0  0  0  0
   12.3431   21.1591   -0.2820 N   0  0  0  0  0  0  0  0  0  0  0  0
   11.6454   18.7242    1.7906 H   0  0  0  0  0  0  0  0  0  0  0  0
   15.0314   24.8928   -1.6115 C   0  0  0  0  0  0  0  0  0  0  0  0
   15.3385   24.4039   -2.8176 C   0  0  0  0  0  0  0  0  0  0  0  0
   16.3790   25.0904   -3.5503 C   0  0  0  0  0  0  0  0  0  0  0  0
   16.9798   26.1356   -3.0277 C   0  0  0  0  0  0  0  0  0  0  0  0
   16.6861   26.6201   -1.7273 C   0  0  0  0  0  0  0  0  0  0  0  0
   15.6741   25.9533   -1.0298 C   0  0  0  0  0  0  0  0  0  0  0  0
   17.6829   27.0874   -3.9171 C   0  0  0  0  0  0  0  0  0  0  0  0
   18.6624   26.7126   -4.8436 C   0  0  0  0  0  0  0  0  0  0  0  0
   19.3684   27.6652   -5.4984 C   0  0  0  0  0  0  0  0  0  0  0  0
   19.1982   29.0113   -5.3044 C   0  0  0  0  0  0  0  0  0  0  0  0
   18.2095   29.4083   -4.3599 C   0  0  0  0  0  0  0  0  0  0  0  0
   17.5128   28.4351   -3.7312 C   0  0  0  0  0  0  0  0  0  0  0  0
    7.2257   24.5225    0.1170 C   0  0  0  0  0  0  0  0  0  0  0  0
    8.0669   22.2122   -0.9515 C   0  0  0  0  0  0  0  0  0  0  0  0
    7.2906   22.1124    0.3329 C   0  0  0  0  0  0  0  0  0  0  0  0
    7.0886   20.9433    0.9989 C   0  0  0  0  0  0  0  0  0  0  0  0
    6.2128   20.9593    2.0480 C   0  0  0  0  0  0  0  0  0  0  0  0
    5.5809   22.1100    2.3971 C   0  0  0  0  0  0  0  0  0  0  0  0
    5.8118   23.2669    1.7105 N   0  0  0  0  0  0  0  0  0  0  0  0
    6.6545   23.3059    0.6838 C   0  0  0  0  0  0  0  0  0  0  0  0
 34 35  1  0  0  0
 35 36  2  0  0  0
 36 37  1  0  0  0
 37 38  2  0  0  0
 38 39  1  0  0  0
 39 40  2  0  0  0
 40 33  1  0  0  0
 33  1  1  0  0  0
  1  2  1  0  0  0
  2  3  1  0  0  0
  3  4  1  0  0  0
  4  5  1  0  0  0
  5  6  1  0  0  0
  4  7  1  0  0  0
  7  8  1  0  0  0
  8  9  2  0  0  0
  8 10  1  0  0  0
 10 11  1  0  0  0
 11 12  2  0  0  0
 10 21  1  0  0  0
 21 22  2  0  0  0
 22 23  1  0  0  0
 23 24  2  0  0  0
 24 25  1  0  0  0
 25 26  2  0  0  0
 24 27  1  0  0  0
 27 28  2  0  0  0
 28 29  1  0  0  0
 29 30  2  0  0  0
 30 31  1  0  0  0
 31 32  2  0  0  0
  7 13  1  0  0  0
 13 14  2  0  0  0
 14 15  1  0  0  0
 15 16  2  0  0  0
 15 17  1  0  0  0
 17 18  1  0  0  0
 18 19  2  0  0  0
 40 35  1  0  0  0
  6  1  1  0  0  0
 26 21  1  0  0  0
 32 27  1  0  0  0
 19 13  1  0  0  0
 11  4  1  0  0  0
 17 20  1  0  0  0
M  END
> <minimizedAffinity>
38.42305

> <CNNscore>
0.3614321053

> <CNNaffinity>
7.0852036476

> <CNN_VS>
2.5608201027

> <CNNaffinity_variance>
0.8097721338

$$$$
[H]c1nc(C([H])([H])N2C([H])([H])C([H])([H])C3(C(=O)N(c4c([H])c([H])c(-c5c([H])c([H])c([H])c([H])c5[H])c([H])c4[H])C(=O)N3c3nc([H])n([H])c(=O)c3[H])C([H])([H])C2([H])[H])c(C([H])([H])[H])c([H])c1[H]


 40 45  0  0  0  0  0  0  0  0999 V2000
    6.6795   25.6666    2.4563 N   0  0  0  0  0  0  0  0  0  0  0  0
    6.5545   25.0826    1.1851 C   0  0  0  0  0  0  0  0  0  0  0  0
    7.8193   24.6154    0.5699 C   0  0  0  0  0  0  0  0  0  0  0  0
    8.7377   23.9518    1.5993 C   0  0  0  0  0  0  0  0  0  0  0  0
    8.8984   24.7901    2.7932 C   0  0  0  0  0  0  0  0  0  0  0  0
    7.5146   25.1094    3.3842 C   0  0  0  0  0  0  0  0  0  0  0  0
    8.4004   22.6092    1.8209 N   0  0  0  0  0  0  0  0  0  0  0  0
    9.6664   21.8550    1.8194 C   0  0  0  0  0  0  0  0  0  0  0  0
    9.8517   20.7255    2.3006 O   0  0  0  0  0  0  0  0  0  0  0  0
   10.6566   22.6609    1.1305 N   0  0  0  0  0  0  0  0  0  0  0  0
   10.0697   23.8458    0.8167 C   0  0  0  0  0  0  0  0  0  0  0  0
   10.4828   24.7757    0.0565 O   0  0  0  0  0  0  0  0  0  0  0  0
    7.2294   21.7659    1.9071 C   0  0  0  0  0  0  0  0  0  0  0  0
    6.8962   21.1105    3.0247 C   0  0  0  0  0  0  0  0  0  0  0  0
    5.9850   20.0784    2.9995 C   0  0  0  0  0  0  0  0  0  0  0  0
    5.6088   19.4212    3.9969 O   0  0  0  0  0  0  0  0  0  0  0  0
    5.4424   19.7679    1.7938 N   0  0  0  0  0  0  0  0  0  0  0  0
    5.7695   20.4421    0.7116 C   0  0  0  0  0  0  0  0  0  0  0  0
    6.6494   21.4277    0.7446 N   0  0  0  0  0  0  0  0  0  0  0  0
    4.7397   18.9689    1.7539 H   0  0  0  0  0  0  0  0  0  0  0  0
   11.7825   21.9012    0.5322 C   0  0  0  0  0  0  0  0  0  0  0  0
   12.3664   22.3231   -0.5943 C   0  0  0  0  0  0  0  0  0  0  0  0
   13.7860   22.0792   -0.7200 C   0  0  0  0  0  0  0  0  0  0  0  0
   14.4414   21.4646    0.2388 C   0  0  0  0  0  0  0  0  0  0  0  0
   13.8086   20.9739    1.4096 C   0  0  0  0  0  0  0  0  0  0  0  0
   12.4371   21.2204    1.5243 C   0  0  0  0  0  0  0  0  0  0  0  0
   15.9108   21.6210    0.3281 C   0  0  0  0  0  0  0  0  0  0  0  0
   16.7988   20.5572    0.5236 C   0  0  0  0  0  0  0  0  0  0  0  0
   18.1091   20.8091    0.7564 C   0  0  0  0  0  0  0  0  0  0  0  0
   18.6437   22.0690    0.8305 C   0  0  0  0  0  0  0  0  0  0  0  0
   17.7513   23.1620    0.6400 C   0  0  0  0  0  0  0  0  0  0  0  0
   16.4518   22.8788    0.3974 C   0  0  0  0  0  0  0  0  0  0  0  0
    5.5671   26.3992    2.8104 C   0  0  0  0  0  0  0  0  0  0  0  0
    5.0790   27.4729    5.2179 C   0  0  0  0  0  0  0  0  0  0  0  0
    5.6033   28.4070    4.1620 C   0  0  0  0  0  0  0  0  0  0  0  0
    5.9180   29.7089    4.4009 C   0  0  0  0  0  0  0  0  0  0  0  0
    6.2046   30.4960    3.3210 C   0  0  0  0  0  0  0  0  0  0  0  0
    6.1729   29.9773    2.0659 C   0  0  0  0  0  0  0  0  0  0  0  0
    5.8589   28.6645    1.8629 N   0  0  0  0  0  0  0  0  0  0  0  0
    5.5736   27.8562    2.8783 C   0  0  0  0  0  0  0  0  0  0  0  0
 34 35  1  0  0  0
 35 36  2  0  0  0
 36 37  1  0  0  0
 37 38  2  0  0  0
 38 39  1  0  0  0
 39 40  2  0  0  0
 40 33  1  0  0  0
 33  1  1  0  0  0
  1  2  1  0  0  0
  2  3  1  0  0  0
  3  4  1  0  0  0
  4  5  1  0  0  0
  5  6  1  0  0  0
  4  7  1  0  0  0
  7  8  1  0  0  0
  8  9  2  0  0  0
  8 10  1  0  0  0
 10 11  1  0  0  0
 11 12  2  0  0  0
 10 21  1  0  0  0
 21 22  2  0  0  0
 22 23  1  0  0  0
 23 24  2  0  0  0
 24 25  1  0  0  0
 25 26  2  0  0  0
 24 27  1  0  0  0
 27 28  2  0  0  0
 28 29  1  0  0  0
 29 30  2  0  0  0
 30 31  1  0  0  0
 31 32  2  0  0  0
  7 13  1  0  0  0
 13 14  2  0  0  0
 14 15  1  0  0  0
 15 16  2  0  0  0
 15 17  1  0  0  0
 17 18  1  0  0  0
 18 19  2  0  0  0
 40 35  1  0  0  0
  6  1  1  0  0  0
 26 21  1  0  0  0
 32 27  1  0  0  0
 19 13  1  0  0  0
 11  4  1  0  0  0
 17 20  1  0  0  0
M  END
> <minimizedAffinity>
16.69633

> <CNNscore>
0.3470158279

> <CNNaffinity>
6.4638085365

> <CNN_VS>
2.2430438995

> <CNNaffinity_variance>
0.6524696350

$$$$
[H]c1nc2c([H])c([H])c([H])c(-c3c(N([H])[H])nc(C#N)c([H])c3[H])n2n1


 20 22  0  0  0  0  0  0  0  0999 V2000
   15.0149   23.1076   -3.3483 N   0  0  0  0  0  0  0  0  0  0  0  0
   14.7414   24.3742   -3.8974 C   0  0  0  0  0  0  0  0  0  0  0  0
   15.2921   24.6810   -5.0957 N   0  0  0  0  0  0  0  0  0  0  0  0
   15.0926   25.8650   -5.7061 C   0  0  0  0  0  0  0  0  0  0  0  0
   14.2885   26.7787   -5.0547 C   0  0  0  0  0  0  0  0  0  0  0  0
   13.7195   26.4814   -3.8323 C   0  0  0  0  0  0  0  0  0  0  0  0
   13.9314   25.2595   -3.2127 C   0  0  0  0  0  0  0  0  0  0  0  0
   15.7610   23.0276   -2.6380 H   0  0  0  0  0  0  0  0  0  0  0  0
   14.4969   22.2328   -3.6243 H   0  0  0  0  0  0  0  0  0  0  0  0
   13.3267   24.9516   -1.9204 C   0  0  0  0  0  0  0  0  0  0  0  0
   11.9565   24.9751   -1.7904 C   0  0  0  0  0  0  0  0  0  0  0  0
   11.3777   24.6855   -0.5731 C   0  0  0  0  0  0  0  0  0  0  0  0
   12.1656   24.3751    0.5043 C   0  0  0  0  0  0  0  0  0  0  0  0
   13.5288   24.3572    0.3539 C   0  0  0  0  0  0  0  0  0  0  0  0
   14.5724   24.1006    1.1812 N   0  0  0  0  0  0  0  0  0  0  0  0
   15.7311   24.2230    0.5190 C   0  0  0  0  0  0  0  0  0  0  0  0
   15.4081   24.5611   -0.7408 N   0  0  0  0  0  0  0  0  0  0  0  0
   14.0921   24.6397   -0.8334 N   0  0  0  0  0  0  0  0  0  0  0  0
   15.6995   26.1507   -6.9845 C   0  0  0  0  0  0  0  0  0  0  0  0
   16.1852   26.3623   -8.0094 N   0  0  0  0  0  0  0  0  0  0  0  0
  1  2  1  0  0  0
  2  3  2  0  0  0
  3  4  1  0  0  0
  4  5  2  0  0  0
  5  6  1  0  0  0
  6  7  2  0  0  0
  7 10  1  0  0  0
 10 11  2  0  0  0
 11 12  1  0  0  0
 12 13  2  0  0  0
 13 14  1  0  0  0
 14 15  2  0  0  0
 15 16  1  0  0  0
 16 17  2  0  0  0
 17 18  1  0  0  0
  4 19  1  0  0  0
 19 20  3  0  0  0
  7  2  1  0  0  0
 18 10  1  0  0  0
 18 14  1  0  0  0
  1  8  1  0  0  0
  1  9  1  0  0  0
M  END
> <minimizedAffinity>
-8.71081

> <CNNscore>
0.8343648911

> <CNNaffinity>
6.6179113388

> <CNN_VS>
5.5217528343

> <CNNaffinity_variance>
0.0524858832

$$$$
[H]c1nc2c([H])c([H])c([H])c(-c3c(N([H])[H])nc(C#N)c([H])c3[H])n2n1


 20 22  0  0  0  0  0  0  0  0999 V2000
   15.1612   22.7586   -3.6278 N   0  0  0  0  0  0  0  0  0  0  0  0
   15.1752   24.0964   -4.0648 C   0  0  0  0  0  0  0  0  0  0  0  0
   15.3810   24.3337   -5.3819 N   0  0  0  0  0  0  0  0  0  0  0  0
   15.4124   25.5763   -5.9008 C   0  0  0  0  0  0  0  0  0  0  0  0
   15.2234   26.6265   -5.0251 C   0  0  0  0  0  0  0  0  0  0  0  0
   15.0124   26.4015   -3.6793 C   0  0  0  0  0  0  0  0  0  0  0  0
   14.9819   25.1183   -3.1554 C   0  0  0  0  0  0  0  0  0  0  0  0
   16.0213   22.3659   -3.2113 H   0  0  0  0  0  0  0  0  0  0  0  0
   14.3165   22.1338   -3.7032 H   0  0  0  0  0  0  0  0  0  0  0  0
   14.7583   24.8874   -1.7317 C   0  0  0  0  0  0  0  0  0  0  0  0
   15.8373   24.8043   -0.8809 C   0  0  0  0  0  0  0  0  0  0  0  0
   15.6344   24.5864    0.4652 C   0  0  0  0  0  0  0  0  0  0  0  0
   14.3612   24.4530    0.9541 C   0  0  0  0  0  0  0  0  0  0  0  0
   13.2996   24.5390    0.0896 C   0  0  0  0  0  0  0  0  0  0  0  0
   11.9530   24.4567    0.2280 N   0  0  0  0  0  0  0  0  0  0  0  0
   11.3535   24.6139   -0.9602 C   0  0  0  0  0  0  0  0  0  0  0  0
   12.3391   24.7972   -1.8551 N   0  0  0  0  0  0  0  0  0  0  0  0
   13.4986   24.7515   -1.2226 N   0  0  0  0  0  0  0  0  0  0  0  0
   15.6349   25.7841   -7.3121 C   0  0  0  0  0  0  0  0  0  0  0  0
   15.8210   25.9353   -8.4407 N   0  0  0  0  0  0  0  0  0  0  0  0
  1  2  1  0  0  0
  2  3  2  0  0  0
  3  4  1  0  0  0
  4  5  2  0  0  0
  5  6  1  0  0  0
  6  7  2  0  0  0
  7 10  1  0  0  0
 10 11  2  0  0  0
 11 12  1  0  0  0
 12 13  2  0  0  0
 13 14  1  0  0  0
 14 15  2  0  0  0
 15 16  1  0  0  0
 16 17  2  0  0  0
 17 18  1  0  0  0
  4 19  1  0  0  0
 19 20  3  0  0  0
  7  2  1  0  0  0
 18 10  1  0  0  0
 18 14  1  0  0  0
  1  8  1  0  0  0
  1  9  1  0  0  0
M  END
> <minimizedAffinity>
-7.28214

> <CNNscore>
0.5072009563

> <CNNaffinity>
6.1080942154

> <CNN_VS>
3.0980312824

> <CNNaffinity_variance>
0.1084226370

$$$$
[H]c1nc2c([H])c([H])c([H])c(-c3c(N([H])[H])nc(C#N)c([H])c3[H])n2n1


 20 22  0  0  0  0  0  0  0  0999 V2000
   12.5688   26.8879   -3.2943 N   0  0  0  0  0  0  0  0  0  0  0  0
   13.5953   26.0756   -3.8111 C   0  0  0  0  0  0  0  0  0  0  0  0
   14.1574   26.4331   -4.9900 N   0  0  0  0  0  0  0  0  0  0  0  0
   15.1456   25.7243   -5.5691 C   0  0  0  0  0  0  0  0  0  0  0  0
   15.5779   24.5934   -4.9059 C   0  0  0  0  0  0  0  0  0  0  0  0
   15.0152   24.2153   -3.7031 C   0  0  0  0  0  0  0  0  0  0  0  0
   13.9984   24.9521   -3.1156 C   0  0  0  0  0  0  0  0  0  0  0  0
   11.5878   26.6055   -3.4535 H   0  0  0  0  0  0  0  0  0  0  0  0
   12.7485   27.7726   -2.7513 H   0  0  0  0  0  0  0  0  0  0  0  0
   13.4080   24.5467   -1.8438 C   0  0  0  0  0  0  0  0  0  0  0  0
   12.8732   25.5023   -1.0096 C   0  0  0  0  0  0  0  0  0  0  0  0
   12.3137   25.1275    0.1933 C   0  0  0  0  0  0  0  0  0  0  0  0
   12.2905   23.8064    0.5568 C   0  0  0  0  0  0  0  0  0  0  0  0
   12.8286   22.8698   -0.2886 C   0  0  0  0  0  0  0  0  0  0  0  0
   12.9700   21.5216   -0.2461 N   0  0  0  0  0  0  0  0  0  0  0  0
   13.5806   21.0834   -1.3556 C   0  0  0  0  0  0  0  0  0  0  0  0
   13.8250   22.1729   -2.1032 N   0  0  0  0  0  0  0  0  0  0  0  0
   13.3739   23.2364   -1.4612 N   0  0  0  0  0  0  0  0  0  0  0  0
   15.7169   26.1417   -6.8276 C   0  0  0  0  0  0  0  0  0  0  0  0
   16.1875   26.4662   -7.8298 N   0  0  0  0  0  0  0  0  0  0  0  0
  1  2  1  0  0  0
  2  3  2  0  0  0
  3  4  1  0  0  0
  4  5  2  0  0  0
  5  6  1  0  0  0
  6  7  2  0  0  0
  7 10  1  0  0  0
 10 11  2  0  0  0
 11 12  1  0  0  0
 12 13  2  0  0  0
 13 14  1  0  0  0
 14 15  2  0  0  0
 15 16  1  0  0  0
 16 17  2  0  0  0
 17 18  1  0  0  0
  4 19  1  0  0  0
 19 20  3  0  0  0
  7  2  1  0  0  0
 18 10  1  0  0  0
 18 14  1  0  0  0
  1  8  1  0  0  0
  1  9  1  0  0  0
M  END
> <minimizedAffinity>
-8.04309

> <CNNscore>
0.4280990064

> <CNNaffinity>
6.1928577423

> <CNN_VS>
2.6511561871

> <CNNaffinity_variance>
0.0527706258

$$$$
[H]c1nc2c([H])c([H])c([H])c(-c3c(N([H])[H])nc(C#N)c([H])c3[H])n2n1


 20 22  0  0  0  0  0  0  0  0999 V2000
   14.8370   22.4181   -3.0573 N   0  0  0  0  0  0  0  0  0  0  0  0
   14.3089   23.7209   -2.9901 C   0  0  0  0  0  0  0  0  0  0  0  0
   14.8371   24.6646   -3.8048 N   0  0  0  0  0  0  0  0  0  0  0  0
   14.4032   25.9397   -3.8178 C   0  0  0  0  0  0  0  0  0  0  0  0
   13.3770   26.2618   -2.9523 C   0  0  0  0  0  0  0  0  0  0  0  0
   12.8276   25.3111   -2.1152 C   0  0  0  0  0  0  0  0  0  0  0  0
   13.2817   24.0013   -2.1098 C   0  0  0  0  0  0  0  0  0  0  0  0
   15.5427   22.1343   -2.3580 H   0  0  0  0  0  0  0  0  0  0  0  0
   14.5496   21.7137   -3.7861 H   0  0  0  0  0  0  0  0  0  0  0  0
   12.6964   23.0012   -1.2223 C   0  0  0  0  0  0  0  0  0  0  0  0
   11.3466   22.7404   -1.2918 C   0  0  0  0  0  0  0  0  0  0  0  0
   10.7861   21.7973   -0.4570 C   0  0  0  0  0  0  0  0  0  0  0  0
   11.5719   21.1216    0.4396 C   0  0  0  0  0  0  0  0  0  0  0  0
   12.9147   21.3962    0.4931 C   0  0  0  0  0  0  0  0  0  0  0  0
   13.9505   20.9310    1.2347 N   0  0  0  0  0  0  0  0  0  0  0  0
   15.0874   21.5472    0.8829 C   0  0  0  0  0  0  0  0  0  0  0  0
   14.7583   22.4105   -0.0929 N   0  0  0  0  0  0  0  0  0  0  0  0
   13.4601   22.3160   -0.3214 N   0  0  0  0  0  0  0  0  0  0  0  0
   14.9950   26.9145   -4.7031 C   0  0  0  0  0  0  0  0  0  0  0  0
   15.4699   27.7042   -5.3974 N   0  0  0  0  0  0  0  0  0  0  0  0
  1  2  1  0  0  0
  2  3  2  0  0  0
  3  4  1  0  0  0
  4  5  2  0  0  0
  5  6  1  0  0  0
  6  7  2  0  0  0
  7 10  1  0  0  0
 10 11  2  0  0  0
 11 12  1  0  0  0
 12 13  2  0  0  0
 13 14  1  0  0  0
 14 15  2  0  0  0
 15 16  1  0  0  0
 16 17  2  0  0  0
 17 18  1  0  0  0
  4 19  1  0  0  0
 19 20  3  0  0  0
  7  2  1  0  0  0
 18 10  1  0  0  0
 18 14  1  0  0  0
  1  8  1  0  0  0
  1  9  1  0  0  0
M  END
> <minimizedAffinity>
-7.35696

> <CNNscore>
0.4144511223

> <CNNaffinity>
6.3748755455

> <CNN_VS>
2.6420743465

> <CNNaffinity_variance>
0.3467659950

$$$$
[H]c1nc2c([H])c([H])c([H])c(-c3c(N([H])[H])nc(C#N)c([H])c3[H])n2n1


 20 22  0  0  0  0  0  0  0  0999 V2000
   15.1758   24.4531    0.0924 N   0  0  0  0  0  0  0  0  0  0  0  0
   13.9978   23.7010   -0.0727 C   0  0  0  0  0  0  0  0  0  0  0  0
   13.3871   23.2227    1.0371 N   0  0  0  0  0  0  0  0  0  0  0  0
   12.2562   22.4927    0.9876 C   0  0  0  0  0  0  0  0  0  0  0  0
   11.7263   22.2413   -0.2621 C   0  0  0  0  0  0  0  0  0  0  0  0
   12.3368   22.7218   -1.4035 C   0  0  0  0  0  0  0  0  0  0  0  0
   13.5008   23.4723   -1.3413 C   0  0  0  0  0  0  0  0  0  0  0  0
   16.0858   23.9793   -0.0299 H   0  0  0  0  0  0  0  0  0  0  0  0
   15.1789   25.4782    0.3351 H   0  0  0  0  0  0  0  0  0  0  0  0
   14.1410   23.9773   -2.5519 C   0  0  0  0  0  0  0  0  0  0  0  0
   15.1464   23.2458   -3.1425 C   0  0  0  0  0  0  0  0  0  0  0  0
   15.7561   23.7159   -4.2861 C   0  0  0  0  0  0  0  0  0  0  0  0
   15.3614   24.9089   -4.8328 C   0  0  0  0  0  0  0  0  0  0  0  0
   14.3577   25.6226   -4.2289 C   0  0  0  0  0  0  0  0  0  0  0  0
   13.7393   26.8007   -4.4917 N   0  0  0  0  0  0  0  0  0  0  0  0
   12.8012   27.0492   -3.5675 C   0  0  0  0  0  0  0  0  0  0  0  0
   12.8329   26.0117   -2.7140 N   0  0  0  0  0  0  0  0  0  0  0  0
   13.7639   25.1633   -3.1139 N   0  0  0  0  0  0  0  0  0  0  0  0
   11.6379   22.0021    2.1964 C   0  0  0  0  0  0  0  0  0  0  0  0
   11.1448   21.6257    3.1692 N   0  0  0  0  0  0  0  0  0  0  0  0
  1  2  1  0  0  0
  2  3  2  0  0  0
  3  4  1  0  0  0
  4  5  2  0  0  0
  5  6  1  0  0  0
  6  7  2  0  0  0
  7 10  1  0  0  0
 10 11  2  0  0  0
 11 12  1  0  0  0
 12 13  2  0  0  0
 13 14  1  0  0  0
 14 15  2  0  0  0
 15 16  1  0  0  0
 16 17  2  0  0  0
 17 18  1  0  0  0
  4 19  1  0  0  0
 19 20  3  0  0  0
  7  2  1  0  0  0
 18 10  1  0  0  0
 18 14  1  0  0  0
  1  8  1  0  0  0
  1  9  1  0  0  0
M  END
> <minimizedAffinity>
-7.30162

> <CNNscore>
0.3766563535

> <CNNaffinity>
6.0858201981

> <CNN_VS>
2.2922627926

> <CNNaffinity_variance>
0.2334415913

$$$$
[H]c1nc2c([H])c([H])c([H])c(-c3c(N([H])[H])nc(C#N)c([H])c3[H])n2n1


 20 22  0  0  0  0  0  0  0  0999 V2000
   13.3078   25.4885   -3.5626 N   0  0  0  0  0  0  0  0  0  0  0  0
   14.6001   25.5881   -3.0143 C   0  0  0  0  0  0  0  0  0  0  0  0
   15.4117   26.5706   -3.4717 N   0  0  0  0  0  0  0  0  0  0  0  0
   16.6652   26.7511   -3.0129 C   0  0  0  0  0  0  0  0  0  0  0  0
   17.1071   25.8806   -2.0369 C   0  0  0  0  0  0  0  0  0  0  0  0
   16.2919   24.8735   -1.5598 C   0  0  0  0  0  0  0  0  0  0  0  0
   15.0032   24.6964   -2.0390 C   0  0  0  0  0  0  0  0  0  0  0  0
   13.1424   24.8013   -4.3162 H   0  0  0  0  0  0  0  0  0  0  0  0
   12.4965   26.0802   -3.2440 H   0  0  0  0  0  0  0  0  0  0  0  0
   14.1466   23.6297   -1.5303 C   0  0  0  0  0  0  0  0  0  0  0  0
   14.3852   22.3288   -1.9117 C   0  0  0  0  0  0  0  0  0  0  0  0
   13.5807   21.3156   -1.4356 C   0  0  0  0  0  0  0  0  0  0  0  0
   12.5461   21.6040   -0.5845 C   0  0  0  0  0  0  0  0  0  0  0  0
   12.3251   22.9068   -0.2165 C   0  0  0  0  0  0  0  0  0  0  0  0
   11.4220   23.5281    0.5820 N   0  0  0  0  0  0  0  0  0  0  0  0
   11.6503   24.8485    0.6018 C   0  0  0  0  0  0  0  0  0  0  0  0
   12.7117   25.0566   -0.1957 N   0  0  0  0  0  0  0  0  0  0  0  0
   13.1102   23.8939   -0.6814 N   0  0  0  0  0  0  0  0  0  0  0  0
   17.4971   27.8123   -3.5288 C   0  0  0  0  0  0  0  0  0  0  0  0
   18.1758   28.6504   -3.9388 N   0  0  0  0  0  0  0  0  0  0  0  0
  1  2  1  0  0  0
  2  3  2  0  0  0
  3  4  1  0  0  0
  4  5  2  0  0  0
  5  6  1  0  0  0
  6  7  2  0  0  0
  7 10  1  0  0  0
 10 11  2  0  0  0
 11 12  1  0  0  0
 12 13  2  0  0  0
 13 14  1  0  0  0
 14 15  2  0  0  0
 15 16  1  0  0  0
 16 17  2  0  0  0
 17 18  1  0  0  0
  4 19  1  0  0  0
 19 20  3  0  0  0
  7  2  1  0  0  0
 18 10  1  0  0  0
 18 14  1  0  0  0
  1  8  1  0  0  0
  1  9  1  0  0  0
M  END
> <minimizedAffinity>
-6.44249

> <CNNscore>
0.2842414081

> <CNNaffinity>
6.1837067604

> <CNN_VS>
1.7576655149

> <CNNaffinity_variance>
0.2996546924

$$$$
[H]c1nc2c([H])c([H])c([H])c(-c3c(N([H])[H])nc(C#N)c([H])c3[H])n2n1


 20 22  0  0  0  0  0  0  0  0999 V2000
   14.7014   24.3925   -0.0653 N   0  0  0  0  0  0  0  0  0  0  0  0
   13.3120   24.1716   -0.1030 C   0  0  0  0  0  0  0  0  0  0  0  0
   12.7259   23.6168    0.9842 N   0  0  0  0  0  0  0  0  0  0  0  0
   11.4043   23.3646    1.0489 C   0  0  0  0  0  0  0  0  0  0  0  0
   10.6475   23.6983   -0.0563 C   0  0  0  0  0  0  0  0  0  0  0  0
   11.2299   24.2647   -1.1728 C   0  0  0  0  0  0  0  0  0  0  0  0
   12.5913   24.5200   -1.2290 C   0  0  0  0  0  0  0  0  0  0  0  0
   15.3243   23.6989   -0.5109 H   0  0  0  0  0  0  0  0  0  0  0  0
   15.1420   25.2312    0.3953 H   0  0  0  0  0  0  0  0  0  0  0  0
   13.2005   25.1191   -2.4123 C   0  0  0  0  0  0  0  0  0  0  0  0
   12.8185   26.3816   -2.8059 C   0  0  0  0  0  0  0  0  0  0  0  0
   13.3892   26.9543   -3.9226 C   0  0  0  0  0  0  0  0  0  0  0  0
   14.3346   26.2675   -4.6383 C   0  0  0  0  0  0  0  0  0  0  0  0
   14.7014   25.0106   -4.2295 C   0  0  0  0  0  0  0  0  0  0  0  0
   15.5759   24.0804   -4.6871 N   0  0  0  0  0  0  0  0  0  0  0  0
   15.5513   22.9941   -3.9027 C   0  0  0  0  0  0  0  0  0  0  0  0
   14.6483   23.2479   -2.9404 N   0  0  0  0  0  0  0  0  0  0  0  0
   14.1443   24.4531   -3.1406 N   0  0  0  0  0  0  0  0  0  0  0  0
   10.8204   22.7715    2.2285 C   0  0  0  0  0  0  0  0  0  0  0  0
   10.3589   22.3110    3.1804 N   0  0  0  0  0  0  0  0  0  0  0  0
  1  2  1  0  0  0
  2  3  2  0  0  0
  3  4  1  0  0  0
  4  5  2  0  0  0
  5  6  1  0  0  0
  6  7  2  0  0  0
  7 10  1  0  0  0
 10 11  2  0  0  0
 11 12  1  0  0  0
 12 13  2  0  0  0
 13 14  1  0  0  0
 14 15  2  0  0  0
 15 16  1  0  0  0
 16 17  2  0  0  0
 17 18  1  0  0  0
  4 19  1  0  0  0
 19 20  3  0  0  0
  7  2  1  0  0  0
 18 10  1  0  0  0
 18 14  1  0  0  0
  1  8  1  0  0  0
  1  9  1  0  0  0
M  END
> <minimizedAffinity>
-7.60814

> <CNNscore>
0.2833861709

> <CNNaffinity>
5.8349938393

> <CNN_VS>
1.6535565853

> <CNNaffinity_variance>
0.0269215796

$$$$
[H]c1nc2c([H])c([H])c([H])c(-c3c(N([H])[H])nc(C#N)c([H])c3[H])n2n1


 20 22  0  0  0  0  0  0  0  0999 V2000
   15.6851   23.3246   -4.3891 N   0  0  0  0  0  0  0  0  0  0  0  0
   15.0186   23.5107   -3.1635 C   0  0  0  0  0  0  0  0  0  0  0  0
   14.3371   22.4625   -2.6440 N   0  0  0  0  0  0  0  0  0  0  0  0
   13.6668   22.5367   -1.4780 C   0  0  0  0  0  0  0  0  0  0  0  0
   13.6975   23.7460   -0.8129 C   0  0  0  0  0  0  0  0  0  0  0  0
   14.3878   24.8246   -1.3293 C   0  0  0  0  0  0  0  0  0  0  0  0
   15.0746   24.7374   -2.5304 C   0  0  0  0  0  0  0  0  0  0  0  0
   15.2209   23.6397   -5.2567 H   0  0  0  0  0  0  0  0  0  0  0  0
   16.6363   22.8791   -4.4690 H   0  0  0  0  0  0  0  0  0  0  0  0
   15.8024   25.8814   -3.0706 C   0  0  0  0  0  0  0  0  0  0  0  0
   16.8175   26.4483   -2.3337 C   0  0  0  0  0  0  0  0  0  0  0  0
   17.5097   27.5292   -2.8369 C   0  0  0  0  0  0  0  0  0  0  0  0
   17.1871   28.0372   -4.0680 C   0  0  0  0  0  0  0  0  0  0  0  0
   16.1723   27.4580   -4.7864 C   0  0  0  0  0  0  0  0  0  0  0  0
   15.6090   27.6968   -5.9968 N   0  0  0  0  0  0  0  0  0  0  0  0
   14.6255   26.8176   -6.2331 C   0  0  0  0  0  0  0  0  0  0  0  0
   14.5724   26.0172   -5.1550 N   0  0  0  0  0  0  0  0  0  0  0  0
   15.4980   26.4042   -4.2948 N   0  0  0  0  0  0  0  0  0  0  0  0
   12.9527   21.3938   -0.9601 C   0  0  0  0  0  0  0  0  0  0  0  0
   12.3778   20.4761   -0.5621 N   0  0  0  0  0  0  0  0  0  0  0  0
  1  2  1  0  0  0
  2  3  2  0  0  0
  3  4  1  0  0  0
  4  5  2  0  0  0
  5  6  1  0  0  0
  6  7  2  0  0  0
  7 10  1  0  0  0
 10 11  2  0  0  0
 11 12  1  0  0  0
 12 13  2  0  0  0
 13 14  1  0  0  0
 14 15  2  0  0  0
 15 16  1  0  0  0
 16 17  2  0  0  0
 17 18  1  0  0  0
  4 19  1  0  0  0
 19 20  3  0  0  0
  7  2  1  0  0  0
 18 10  1  0  0  0
 18 14  1  0  0  0
  1  8  1  0  0  0
  1  9  1  0  0  0
M  END
> <minimizedAffinity>
-7.54257

> <CNNscore>
0.2743739486

> <CNNaffinity>
6.0073051453

> <CNN_VS>
1.6482480764

> <CNNaffinity_variance>
0.1370433271

$$$$
[H]c1nc2c([H])c([H])c([H])c(-c3c(N([H])[H])nc(C#N)c([H])c3[H])n2n1


 20 22  0  0  0  0  0  0  0  0999 V2000
   16.4348   24.5176   -1.4537 N   0  0  0  0  0  0  0  0  0  0  0  0
   15.4772   25.0874   -2.3135 C   0  0  0  0  0  0  0  0  0  0  0  0
   15.8820   26.0646   -3.1587 N   0  0  0  0  0  0  0  0  0  0  0  0
   15.0450   26.6736   -4.0206 C   0  0  0  0  0  0  0  0  0  0  0  0
   13.7282   26.2593   -4.0144 C   0  0  0  0  0  0  0  0  0  0  0  0
   13.2994   25.2642   -3.1587 C   0  0  0  0  0  0  0  0  0  0  0  0
   14.1694   24.6438   -2.2755 C   0  0  0  0  0  0  0  0  0  0  0  0
   16.4912   24.8604   -0.4806 H   0  0  0  0  0  0  0  0  0  0  0  0
   17.1000   23.7568   -1.7510 H   0  0  0  0  0  0  0  0  0  0  0  0
   13.7096   23.5924   -1.3735 C   0  0  0  0  0  0  0  0  0  0  0  0
   14.2462   22.3289   -1.4760 C   0  0  0  0  0  0  0  0  0  0  0  0
   13.8171   21.3303   -0.6278 C   0  0  0  0  0  0  0  0  0  0  0  0
   12.8586   21.5961    0.3147 C   0  0  0  0  0  0  0  0  0  0  0  0
   12.3365   22.8616    0.4005 C   0  0  0  0  0  0  0  0  0  0  0  0
   11.4052   23.4535    1.1890 N   0  0  0  0  0  0  0  0  0  0  0  0
   11.2630   24.7428    0.8522 C   0  0  0  0  0  0  0  0  0  0  0  0
   12.1175   24.9610   -0.1617 N   0  0  0  0  0  0  0  0  0  0  0  0
   12.7556   23.8345   -0.4270 N   0  0  0  0  0  0  0  0  0  0  0  0
   15.5190   27.7117   -4.9050 C   0  0  0  0  0  0  0  0  0  0  0  0
   15.8817   28.5463   -5.6142 N   0  0  0  0  0  0  0  0  0  0  0  0
  1  2  1  0  0  0
  2  3  2  0  0  0
  3  4  1  0  0  0
  4  5  2  0  0  0
  5  6  1  0  0  0
  6  7  2  0  0  0
  7 10  1  0  0  0
 10 11  2  0  0  0
 11 12  1  0  0  0
 12 13  2  0  0  0
 13 14  1  0  0  0
 14 15  2  0  0  0
 15 16  1  0  0  0
 16 17  2  0  0  0
 17 18  1  0  0  0
  4 19  1  0  0  0
 19 20  3  0  0  0
  7  2  1  0  0  0
 18 10  1  0  0  0
 18 14  1  0  0  0
  1  8  1  0  0  0
  1  9  1  0  0  0
M  END
> <minimizedAffinity>
-6.84063

> <CNNscore>
0.2562821805

> <CNNaffinity>
6.1380906105

> <CNN_VS>
1.5730832815

> <CNNaffinity_variance>
0.1709022075

$$$$
[H]OC(=O)C([H])([H])N([H])C(=O)c1c(O[H])c2c([H])c(C([H])([H])N([H])C(=O)[C@]([H])(N([H])C(=O)[C@]([H])(N([H])C(=O)c3c([H])c([H])c([H])c([H])c3[H])C([H])([H])c3c([H])c([H])c([H])c([H])c3[H])C([H])([H])c3c([H])c([H])c([H])c([H])c3[H])c([H])c([H])c2n(C([H])([H])[H])c1=O


 58 62  0  0  0  0  0  0  0  0999 V2000
    7.1462   21.5330    0.7084 C   0  0  0  0  0  0  0  0  0  0  0  0
    9.2294   21.7906   -0.8083 N   0  0  0  0  0  0  0  0  0  0  0  0
    8.2917   21.0846   -0.0525 C   0  0  0  0  0  0  0  0  0  0  0  0
    8.4828   19.7994   -0.0474 O   0  0  0  0  0  0  0  0  0  0  0  0
    9.0614   22.8450   -0.8843 H   0  0  0  0  0  0  0  0  0  0  0  0
   10.3314   21.2551   -1.5219 C   0  0  0  0  0  0  0  0  0  0  0  0
   16.0044   22.5257    1.3832 C   0  0  0  0  0  0  0  0  0  0  0  0
   15.3868   23.0992    0.1871 N   0  0  0  0  0  0  0  0  0  0  0  0
   14.2043   22.6772   -0.2698 C   0  0  0  0  0  0  0  0  0  0  0  0
   13.5367   21.6801    0.4068 C   0  0  0  0  0  0  0  0  0  0  0  0
   12.2969   21.2023    0.0025 C   0  0  0  0  0  0  0  0  0  0  0  0
   11.6770   21.7224   -1.1188 C   0  0  0  0  0  0  0  0  0  0  0  0
   12.3435   22.7246   -1.8075 C   0  0  0  0  0  0  0  0  0  0  0  0
   13.5724   23.1959   -1.4026 C   0  0  0  0  0  0  0  0  0  0  0  0
   14.2296   24.1998   -2.0665 C   0  0  0  0  0  0  0  0  0  0  0  0
   13.6854   24.7688   -3.1915 O   0  0  0  0  0  0  0  0  0  0  0  0
   15.4778   24.6680   -1.6097 C   0  0  0  0  0  0  0  0  0  0  0  0
   16.0197   24.0995   -0.4918 C   0  0  0  0  0  0  0  0  0  0  0  0
   17.1289   24.4389    0.0050 O   0  0  0  0  0  0  0  0  0  0  0  0
   12.8205   24.4882   -3.5628 H   0  0  0  0  0  0  0  0  0  0  0  0
   16.1307   25.7284   -2.3239 C   0  0  0  0  0  0  0  0  0  0  0  0
   17.3153   26.0490   -1.9011 O   0  0  0  0  0  0  0  0  0  0  0  0
   15.6933   26.4785   -3.4151 N   0  0  0  0  0  0  0  0  0  0  0  0
   14.7704   26.3264   -3.8480 H   0  0  0  0  0  0  0  0  0  0  0  0
   16.5522   27.5297   -3.9908 C   0  0  0  0  0  0  0  0  0  0  0  0
   16.0008   27.9059   -5.3276 C   0  0  0  0  0  0  0  0  0  0  0  0
   15.8600   29.2358   -5.6861 O   0  0  0  0  0  0  0  0  0  0  0  0
   15.6545   27.0329   -6.1511 O   0  0  0  0  0  0  0  0  0  0  0  0
   16.2658   29.9320   -5.0786 H   0  0  0  0  0  0  0  0  0  0  0  0
    7.4813   22.1324    1.9771 N   0  0  0  0  0  0  0  0  0  0  0  0
    7.5281   21.5255    3.2411 C   0  0  0  0  0  0  0  0  0  0  0  0
    7.2574   20.3000    3.3064 O   0  0  0  0  0  0  0  0  0  0  0  0
    7.7258   23.1701    1.9434 H   0  0  0  0  0  0  0  0  0  0  0  0
    7.8842   22.2656    4.4681 C   0  0  0  0  0  0  0  0  0  0  0  0
    7.2447   23.5637    4.5207 N   0  0  0  0  0  0  0  0  0  0  0  0
    6.8435   24.1481    5.7484 C   0  0  0  0  0  0  0  0  0  0  0  0
    7.0786   23.4640    6.8094 O   0  0  0  0  0  0  0  0  0  0  0  0
    7.0692   24.0686    3.6342 H   0  0  0  0  0  0  0  0  0  0  0  0
    6.2043   25.4261    5.9172 C   0  0  0  0  0  0  0  0  0  0  0  0
    6.1687   26.1017    7.1234 C   0  0  0  0  0  0  0  0  0  0  0  0
    5.5296   27.3348    7.2415 C   0  0  0  0  0  0  0  0  0  0  0  0
    4.9133   27.9253    6.1693 C   0  0  0  0  0  0  0  0  0  0  0  0
    4.9425   27.2588    4.9550 C   0  0  0  0  0  0  0  0  0  0  0  0
    5.5766   26.0430    4.8554 C   0  0  0  0  0  0  0  0  0  0  0  0
    9.3942   22.5736    4.5092 C   0  0  0  0  0  0  0  0  0  0  0  0
   10.2042   21.3140    4.3625 C   0  0  0  0  0  0  0  0  0  0  0  0
   10.0355   20.2634    5.2351 C   0  0  0  0  0  0  0  0  0  0  0  0
   10.7412   19.0986    5.1426 C   0  0  0  0  0  0  0  0  0  0  0  0
   11.6699   18.9421    4.1381 C   0  0  0  0  0  0  0  0  0  0  0  0
   11.8480   19.9955    3.2517 C   0  0  0  0  0  0  0  0  0  0  0  0
   11.1327   21.1752    3.3481 C   0  0  0  0  0  0  0  0  0  0  0  0
    5.8497   20.8245    0.6786 C   0  0  0  0  0  0  0  0  0  0  0  0
    5.3507   20.6190   -0.7196 C   0  0  0  0  0  0  0  0  0  0  0  0
    4.7004   21.7285   -1.2884 C   0  0  0  0  0  0  0  0  0  0  0  0
    4.1897   21.5714   -2.5520 C   0  0  0  0  0  0  0  0  0  0  0  0
    4.3035   20.3953   -3.2311 C   0  0  0  0  0  0  0  0  0  0  0  0
    4.9396   19.3097   -2.6711 C   0  0  0  0  0  0  0  0  0  0  0  0
    5.4599   19.4418   -1.4071 C   0  0  0  0  0  0  0  0  0  0  0  0
  7  8  1  0  0  0
  8  9  1  0  0  0
  9 10  2  0  0  0
 10 11  1  0  0  0
 11 12  2  0  0  0
 12  6  1  0  0  0
  6  2  1  0  0  0
  2  3  1  0  0  0
  3  4  2  0  0  0
  3  1  1  0  0  0
  1 52  1  0  0  0
 52 53  1  0  0  0
 53 54  2  0  0  0
 54 55  1  0  0  0
 55 56  2  0  0  0
 56 57  1  0  0  0
 57 58  2  0  0  0
  1 30  1  0  0  0
 30 31  1  0  0  0
 31 32  2  0  0  0
 31 34  1  0  0  0
 34 45  1  0  0  0
 45 46  1  0  0  0
 46 47  2  0  0  0
 47 48  1  0  0  0
 48 49  2  0  0  0
 49 50  1  0  0  0
 50 51  2  0  0  0
 34 35  1  0  0  0
 35 36  1  0  0  0
 36 37  2  0  0  0
 36 39  1  0  0  0
 39 40  2  0  0  0
 40 41  1  0  0  0
 41 42  2  0  0  0
 42 43  1  0  0  0
 43 44  2  0  0  0
 12 13  1  0  0  0
 13 14  2  0  0  0
 14 15  1  0  0  0
 15 16  1  0  0  0
 15 17  2  0  0  0
 17 21  1  0  0  0
 21 22  2  0  0  0
 21 23  1  0  0  0
 23 25  1  0  0  0
 25 26  1  0  0  0
 26 27  1  0  0  0
 26 28  2  0  0  0
 17 18  1  0  0  0
 18 19  2  0  0  0
 18  8  1  0  0  0
 14  9  1  0  0  0
 58 53  1  0  0  0
 51 46  1  0  0  0
 44 39  1  0  0  0
  2  5  1  0  0  0
 30 33  1  0  0  0
 35 38  1  0  0  0
 16 20  1  0  0  0
 23 24  1  0  0  0
 27 29  1  0  0  0
M  END
> <minimizedAffinity>
-9.07183

> <CNNscore>
0.2021604776

> <CNNaffinity>
7.5230674744

> <CNN_VS>
1.5208668709

> <CNNaffinity_variance>
0.0707705468

$$$$
[H]OC(=O)C([H])([H])N([H])C(=O)c1c(O[H])c2c([H])c(C([H])([H])N([H])C(=O)[C@]([H])(N([H])C(=O)[C@]([H])(N([H])C(=O)c3c([H])c([H])c([H])c([H])c3[H])C([H])([H])c3c([H])c([H])c([H])c([H])c3[H])C([H])([H])c3c([H])c([H])c([H])c([H])c3[H])c([H])c([H])c2n(C([H])([H])[H])c1=O


 58 62  0  0  0  0  0  0  0  0999 V2000
    7.7162   22.1094    0.8749 C   0  0  0  0  0  0  0  0  0  0  0  0
    9.7545   21.4768   -0.5919 N   0  0  0  0  0  0  0  0  0  0  0  0
    8.9416   21.4169    0.5414 C   0  0  0  0  0  0  0  0  0  0  0  0
    9.3609   20.5815    1.4439 O   0  0  0  0  0  0  0  0  0  0  0  0
    9.4013   22.1086   -1.3805 H   0  0  0  0  0  0  0  0  0  0  0  0
   10.9516   20.7538   -0.8255 C   0  0  0  0  0  0  0  0  0  0  0  0
   16.4962   23.4186    1.2707 C   0  0  0  0  0  0  0  0  0  0  0  0
   15.7219   23.6445    0.0499 N   0  0  0  0  0  0  0  0  0  0  0  0
   14.6013   22.9662   -0.2126 C   0  0  0  0  0  0  0  0  0  0  0  0
   14.1502   22.0323    0.6942 C   0  0  0  0  0  0  0  0  0  0  0  0
   12.9853   21.3016    0.4988 C   0  0  0  0  0  0  0  0  0  0  0  0
   12.2222   21.4902   -0.6389 C   0  0  0  0  0  0  0  0  0  0  0  0
   12.6707   22.4264   -1.5583 C   0  0  0  0  0  0  0  0  0  0  0  0
   13.8258   23.1494   -1.3601 C   0  0  0  0  0  0  0  0  0  0  0  0
   14.2663   24.0907   -2.2547 C   0  0  0  0  0  0  0  0  0  0  0  0
   13.5693   24.3374   -3.4118 O   0  0  0  0  0  0  0  0  0  0  0  0
   15.4440   24.8237   -2.0068 C   0  0  0  0  0  0  0  0  0  0  0  0
   16.1383   24.5757   -0.8566 C   0  0  0  0  0  0  0  0  0  0  0  0
   17.2029   25.1708   -0.5332 O   0  0  0  0  0  0  0  0  0  0  0  0
   12.7427   23.8611   -3.6453 H   0  0  0  0  0  0  0  0  0  0  0  0
   15.8679   25.8092   -2.9608 C   0  0  0  0  0  0  0  0  0  0  0  0
   16.6594   26.7321   -2.5063 O   0  0  0  0  0  0  0  0  0  0  0  0
   15.5648   25.9358   -4.3161 N   0  0  0  0  0  0  0  0  0  0  0  0
   14.9464   25.2698   -4.8022 H   0  0  0  0  0  0  0  0  0  0  0  0
   16.1287   27.0454   -5.1067 C   0  0  0  0  0  0  0  0  0  0  0  0
   15.5453   26.9860   -6.4809 C   0  0  0  0  0  0  0  0  0  0  0  0
   14.1742   26.9296   -6.6656 O   0  0  0  0  0  0  0  0  0  0  0  0
   16.2775   26.9852   -7.4928 O   0  0  0  0  0  0  0  0  0  0  0  0
   13.5850   27.0687   -5.8583 H   0  0  0  0  0  0  0  0  0  0  0  0
    7.4526   22.1888    2.2910 N   0  0  0  0  0  0  0  0  0  0  0  0
    8.1793   22.8764    3.2745 C   0  0  0  0  0  0  0  0  0  0  0  0
    9.1900   23.5238    2.9022 O   0  0  0  0  0  0  0  0  0  0  0  0
    6.5922   21.6556    2.6275 H   0  0  0  0  0  0  0  0  0  0  0  0
    7.7967   22.8676    4.7005 C   0  0  0  0  0  0  0  0  0  0  0  0
    7.4921   21.5320    5.1698 N   0  0  0  0  0  0  0  0  0  0  0  0
    8.5100   20.6384    5.5880 C   0  0  0  0  0  0  0  0  0  0  0  0
    9.7150   21.0781    5.5283 O   0  0  0  0  0  0  0  0  0  0  0  0
    6.5040   21.2239    5.1880 H   0  0  0  0  0  0  0  0  0  0  0  0
    8.3224   19.2960    6.0711 C   0  0  0  0  0  0  0  0  0  0  0  0
    9.1467   18.7078    7.0129 C   0  0  0  0  0  0  0  0  0  0  0  0
    8.9311   17.4002    7.4450 C   0  0  0  0  0  0  0  0  0  0  0  0
    7.8955   16.6480    6.9552 C   0  0  0  0  0  0  0  0  0  0  0  0
    7.0619   17.2260    6.0116 C   0  0  0  0  0  0  0  0  0  0  0  0
    7.2886   18.5167    5.5956 C   0  0  0  0  0  0  0  0  0  0  0  0
    6.4981   23.6662    4.9295 C   0  0  0  0  0  0  0  0  0  0  0  0
    5.5310   22.8878    5.7798 C   0  0  0  0  0  0  0  0  0  0  0  0
    4.7878   21.8626    5.2410 C   0  0  0  0  0  0  0  0  0  0  0  0
    3.9012   21.1236    5.9698 C   0  0  0  0  0  0  0  0  0  0  0  0
    3.7247   21.3958    7.3081 C   0  0  0  0  0  0  0  0  0  0  0  0
    4.4697   22.4278    7.8623 C   0  0  0  0  0  0  0  0  0  0  0  0
    5.3665   23.1759    7.1216 C   0  0  0  0  0  0  0  0  0  0  0  0
    6.5120   22.0427    0.0210 C   0  0  0  0  0  0  0  0  0  0  0  0
    6.1760   20.6361   -0.3723 C   0  0  0  0  0  0  0  0  0  0  0  0
    6.2308   20.3752   -1.7530 C   0  0  0  0  0  0  0  0  0  0  0  0
    5.8894   19.1110   -2.1624 C   0  0  0  0  0  0  0  0  0  0  0  0
    5.5126   18.1467   -1.2762 C   0  0  0  0  0  0  0  0  0  0  0  0
    5.4584   18.4054    0.0754 C   0  0  0  0  0  0  0  0  0  0  0  0
    5.7959   19.6633    0.5107 C   0  0  0  0  0  0  0  0  0  0  0  0
  7  8  1  0  0  0
  8  9  1  0  0  0
  9 10  2  0  0  0
 10 11  1  0  0  0
 11 12  2  0  0  0
 12  6  1  0  0  0
  6  2  1  0  0  0
  2  3  1  0  0  0
  3  4  2  0  0  0
  3  1  1  0  0  0
  1 52  1  0  0  0
 52 53  1  0  0  0
 53 54  2  0  0  0
 54 55  1  0  0  0
 55 56  2  0  0  0
 56 57  1  0  0  0
 57 58  2  0  0  0
  1 30  1  0  0  0
 30 31  1  0  0  0
 31 32  2  0  0  0
 31 34  1  0  0  0
 34 45  1  0  0  0
 45 46  1  0  0  0
 46 47  2  0  0  0
 47 48  1  0  0  0
 48 49  2  0  0  0
 49 50  1  0  0  0
 50 51  2  0  0  0
 34 35  1  0  0  0
 35 36  1  0  0  0
 36 37  2  0  0  0
 36 39  1  0  0  0
 39 40  2  0  0  0
 40 41  1  0  0  0
 41 42  2  0  0  0
 42 43  1  0  0  0
 43 44  2  0  0  0
 12 13  1  0  0  0
 13 14  2  0  0  0
 14 15  1  0  0  0
 15 16  1  0  0  0
 15 17  2  0  0  0
 17 21  1  0  0  0
 21 22  2  0  0  0
 21 23  1  0  0  0
 23 25  1  0  0  0
 25 26  1  0  0  0
 26 27  1  0  0  0
 26 28  2  0  0  0
 17 18  1  0  0  0
 18 19  2  0  0  0
 18  8  1  0  0  0
 14  9  1  0  0  0
 58 53  1  0  0  0
 51 46  1  0  0  0
 44 39  1  0  0  0
  2  5  1  0  0  0
 30 33  1  0  0  0
 35 38  1  0  0  0
 16 20  1  0  0  0
 23 24  1  0  0  0
 27 29  1  0  0  0
M  END
> <minimizedAffinity>
-6.47752

> <CNNscore>
0.1617034972

> <CNNaffinity>
7.2439432144

> <CNN_VS>
1.1713709831

> <CNNaffinity_variance>
0.1290352792

$$$$
[H]OC(=O)C([H])([H])N([H])C(=O)c1c(O[H])c2c([H])c(C([H])([H])N([H])C(=O)[C@]([H])(N([H])C(=O)[C@]([H])(N([H])C(=O)c3c([H])c([H])c([H])c([H])c3[H])C([H])([H])c3c([H])c([H])c([H])c([H])c3[H])C([H])([H])c3c([H])c([H])c([H])c([H])c3[H])c([H])c([H])c2n(C([H])([H])[H])c1=O


 58 62  0  0  0  0  0  0  0  0999 V2000
    7.1034   21.5011    1.4026 C   0  0  0  0  0  0  0  0  0  0  0  0
    8.8158   23.0065    0.1748 N   0  0  0  0  0  0  0  0  0  0  0  0
    7.8085   22.7272    1.1002 C   0  0  0  0  0  0  0  0  0  0  0  0
    7.4582   23.7514    1.8190 O   0  0  0  0  0  0  0  0  0  0  0  0
    9.1708   22.1682   -0.3881 H   0  0  0  0  0  0  0  0  0  0  0  0
    9.4472   24.2557   -0.0518 C   0  0  0  0  0  0  0  0  0  0  0  0
   15.8931   23.7689    0.6202 C   0  0  0  0  0  0  0  0  0  0  0  0
   15.0778   24.3133   -0.4661 N   0  0  0  0  0  0  0  0  0  0  0  0
   13.7425   24.2982   -0.4242 C   0  0  0  0  0  0  0  0  0  0  0  0
   13.1083   23.7652    0.6765 C   0  0  0  0  0  0  0  0  0  0  0  0
   11.7253   23.7305    0.7993 C   0  0  0  0  0  0  0  0  0  0  0  0
   10.9198   24.2405   -0.2024 C   0  0  0  0  0  0  0  0  0  0  0  0
   11.5502   24.7764   -1.3152 C   0  0  0  0  0  0  0  0  0  0  0  0
   12.9218   24.8095   -1.4324 C   0  0  0  0  0  0  0  0  0  0  0  0
   13.5535   25.3548   -2.5205 C   0  0  0  0  0  0  0  0  0  0  0  0
   12.8278   25.8799   -3.5613 O   0  0  0  0  0  0  0  0  0  0  0  0
   14.9603   25.3869   -2.5948 C   0  0  0  0  0  0  0  0  0  0  0  0
   15.6816   24.8620   -1.5599 C   0  0  0  0  0  0  0  0  0  0  0  0
   16.9425   24.8369   -1.5204 O   0  0  0  0  0  0  0  0  0  0  0  0
   11.8457   25.8878   -3.5728 H   0  0  0  0  0  0  0  0  0  0  0  0
   15.5865   25.9764   -3.7443 C   0  0  0  0  0  0  0  0  0  0  0  0
   16.1270   25.1452   -4.5821 O   0  0  0  0  0  0  0  0  0  0  0  0
   15.7076   27.3158   -4.1130 N   0  0  0  0  0  0  0  0  0  0  0  0
   15.3234   28.0783   -3.5357 H   0  0  0  0  0  0  0  0  0  0  0  0
   16.4014   27.6871   -5.3600 C   0  0  0  0  0  0  0  0  0  0  0  0
   15.6322   27.1233   -6.5102 C   0  0  0  0  0  0  0  0  0  0  0  0
   14.2673   26.9118   -6.4130 O   0  0  0  0  0  0  0  0  0  0  0  0
   16.1997   26.8297   -7.5835 O   0  0  0  0  0  0  0  0  0  0  0  0
   13.7920   27.2755   -5.6005 H   0  0  0  0  0  0  0  0  0  0  0  0
    6.8609   21.2941    2.8095 N   0  0  0  0  0  0  0  0  0  0  0  0
    7.7916   21.0141    3.8213 C   0  0  0  0  0  0  0  0  0  0  0  0
    9.0017   20.9372    3.4909 O   0  0  0  0  0  0  0  0  0  0  0  0
    5.8412   21.3662    3.1143 H   0  0  0  0  0  0  0  0  0  0  0  0
    7.4012   20.8180    5.2316 C   0  0  0  0  0  0  0  0  0  0  0  0
    7.5327   22.0365    6.0029 N   0  0  0  0  0  0  0  0  0  0  0  0
    6.6775   23.1475    5.7932 C   0  0  0  0  0  0  0  0  0  0  0  0
    5.7811   23.0137    4.8837 O   0  0  0  0  0  0  0  0  0  0  0  0
    8.2795   22.0955    6.7172 H   0  0  0  0  0  0  0  0  0  0  0  0
    6.7173   24.4009    6.4989 C   0  0  0  0  0  0  0  0  0  0  0  0
    5.5846   25.0470    6.9597 C   0  0  0  0  0  0  0  0  0  0  0  0
    5.6714   26.2652    7.6314 C   0  0  0  0  0  0  0  0  0  0  0  0
    6.8799   26.8690    7.8621 C   0  0  0  0  0  0  0  0  0  0  0  0
    8.0223   26.2315    7.4061 C   0  0  0  0  0  0  0  0  0  0  0  0
    7.9194   25.0305    6.7448 C   0  0  0  0  0  0  0  0  0  0  0  0
    8.3381   19.8124    5.9299 C   0  0  0  0  0  0  0  0  0  0  0  0
    7.6891   18.4592    6.0391 C   0  0  0  0  0  0  0  0  0  0  0  0
    8.4318   17.3469    6.3628 C   0  0  0  0  0  0  0  0  0  0  0  0
    7.8908   16.0990    6.4789 C   0  0  0  0  0  0  0  0  0  0  0  0
    6.5421   15.9183    6.2685 C   0  0  0  0  0  0  0  0  0  0  0  0
    5.7830   17.0338    5.9418 C   0  0  0  0  0  0  0  0  0  0  0  0
    6.3336   18.2970    5.8237 C   0  0  0  0  0  0  0  0  0  0  0  0
    7.2928   20.2646    0.6158 C   0  0  0  0  0  0  0  0  0  0  0  0
    6.4585   20.2542   -0.6291 C   0  0  0  0  0  0  0  0  0  0  0  0
    5.1389   20.7117   -0.4648 C   0  0  0  0  0  0  0  0  0  0  0  0
    4.3261   20.6798   -1.5696 C   0  0  0  0  0  0  0  0  0  0  0  0
    4.7708   20.2257   -2.7751 C   0  0  0  0  0  0  0  0  0  0  0  0
    6.0632   19.7769   -2.9329 C   0  0  0  0  0  0  0  0  0  0  0  0
    6.8970   19.7991   -1.8420 C   0  0  0  0  0  0  0  0  0  0  0  0
  7  8  1  0  0  0
  8  9  1  0  0  0
  9 10  2  0  0  0
 10 11  1  0  0  0
 11 12  2  0  0  0
 12  6  1  0  0  0
  6  2  1  0  0  0
  2  3  1  0  0  0
  3  4  2  0  0  0
  3  1  1  0  0  0
  1 52  1  0  0  0
 52 53  1  0  0  0
 53 54  2  0  0  0
 54 55  1  0  0  0
 55 56  2  0  0  0
 56 57  1  0  0  0
 57 58  2  0  0  0
  1 30  1  0  0  0
 30 31  1  0  0  0
 31 32  2  0  0  0
 31 34  1  0  0  0
 34 45  1  0  0  0
 45 46  1  0  0  0
 46 47  2  0  0  0
 47 48  1  0  0  0
 48 49  2  0  0  0
 49 50  1  0  0  0
 50 51  2  0  0  0
 34 35  1  0  0  0
 35 36  1  0  0  0
 36 37  2  0  0  0
 36 39  1  0  0  0
 39 40  2  0  0  0
 40 41  1  0  0  0
 41 42  2  0  0  0
 42 43  1  0  0  0
 43 44  2  0  0  0
 12 13  1  0  0  0
 13 14  2  0  0  0
 14 15  1  0  0  0
 15 16  1  0  0  0
 15 17  2  0  0  0
 17 21  1  0  0  0
 21 22  2  0  0  0
 21 23  1  0  0  0
 23 25  1  0  0  0
 25 26  1  0  0  0
 26 27  1  0  0  0
 26 28  2  0  0  0
 17 18  1  0  0  0
 18 19  2  0  0  0
 18  8  1  0  0  0
 14  9  1  0  0  0
 58 53  1  0  0  0
 51 46  1  0  0  0
 44 39  1  0  0  0
  2  5  1  0  0  0
 30 33  1  0  0  0
 35 38  1  0  0  0
 16 20  1  0  0  0
 23 24  1  0  0  0
 27 29  1  0  0  0
M  END
> <minimizedAffinity>
-8.71645

> <CNNscore>
0.1540893167

> <CNNaffinity>
7.0107431412

> <CNN_VS>
1.0802806616

> <CNNaffinity_variance>
0.0984079465

$$$$
[H]OC(=O)C([H])([H])N([H])C(=O)c1c(O[H])c2c([H])c(C([H])([H])N([H])C(=O)[C@]([H])(N([H])C(=O)[C@]([H])(N([H])C(=O)c3c([H])c([H])c([H])c([H])c3[H])C([H])([H])c3c([H])c([H])c([H])c([H])c3[H])C([H])([H])c3c([H])c([H])c([H])c([H])c3[H])c([H])c([H])c2n(C([H])([H])[H])c1=O


 58 62  0  0  0  0  0  0  0  0999 V2000
    6.9097   21.2244    0.6048 C   0  0  0  0  0  0  0  0  0  0  0  0
    9.1412   21.5348   -0.6719 N   0  0  0  0  0  0  0  0  0  0  0  0
    8.0922   20.8024   -0.1134 C   0  0  0  0  0  0  0  0  0  0  0  0
    8.1998   19.5188   -0.2838 O   0  0  0  0  0  0  0  0  0  0  0  0
    9.0488   22.5990   -0.6038 H   0  0  0  0  0  0  0  0  0  0  0  0
   10.2705   21.0235   -1.3602 C   0  0  0  0  0  0  0  0  0  0  0  0
   15.8251   22.6477    1.5971 C   0  0  0  0  0  0  0  0  0  0  0  0
   15.2309   23.1136    0.3437 N   0  0  0  0  0  0  0  0  0  0  0  0
   14.0722   22.6297   -0.1126 C   0  0  0  0  0  0  0  0  0  0  0  0
   13.4068   21.6710    0.6194 C   0  0  0  0  0  0  0  0  0  0  0  0
   12.1903   21.1341    0.2184 C   0  0  0  0  0  0  0  0  0  0  0  0
   11.5929   21.5524   -0.9565 C   0  0  0  0  0  0  0  0  0  0  0  0
   12.2576   22.5152   -1.7009 C   0  0  0  0  0  0  0  0  0  0  0  0
   13.4631   23.0454   -1.2990 C   0  0  0  0  0  0  0  0  0  0  0  0
   14.1177   24.0116   -2.0192 C   0  0  0  0  0  0  0  0  0  0  0  0
   13.5949   24.4802   -3.1993 O   0  0  0  0  0  0  0  0  0  0  0  0
   15.3411   24.5431   -1.5647 C   0  0  0  0  0  0  0  0  0  0  0  0
   15.8618   24.0744   -0.3918 C   0  0  0  0  0  0  0  0  0  0  0  0
   16.9479   24.4773    0.1085 O   0  0  0  0  0  0  0  0  0  0  0  0
   12.7479   24.1514   -3.5722 H   0  0  0  0  0  0  0  0  0  0  0  0
   15.9917   25.5617   -2.3395 C   0  0  0  0  0  0  0  0  0  0  0  0
   17.2643   25.7060   -2.1286 O   0  0  0  0  0  0  0  0  0  0  0  0
   15.4710   26.4315   -3.2971 N   0  0  0  0  0  0  0  0  0  0  0  0
   14.4741   26.4228   -3.5587 H   0  0  0  0  0  0  0  0  0  0  0  0
   16.3457   27.4065   -3.9742 C   0  0  0  0  0  0  0  0  0  0  0  0
   15.8189   27.6297   -5.3545 C   0  0  0  0  0  0  0  0  0  0  0  0
   15.3359   26.5726   -6.1070 O   0  0  0  0  0  0  0  0  0  0  0  0
   15.8018   28.7712   -5.8614 O   0  0  0  0  0  0  0  0  0  0  0  0
   15.2237   25.6811   -5.6476 H   0  0  0  0  0  0  0  0  0  0  0  0
    7.1838   22.0551    1.7520 N   0  0  0  0  0  0  0  0  0  0  0  0
    7.6656   21.6684    3.0115 C   0  0  0  0  0  0  0  0  0  0  0  0
    7.9081   20.4482    3.1900 O   0  0  0  0  0  0  0  0  0  0  0  0
    6.9957   23.0966    1.6190 H   0  0  0  0  0  0  0  0  0  0  0  0
    7.8973   22.6313    4.1065 C   0  0  0  0  0  0  0  0  0  0  0  0
    6.7556   23.4973    4.3148 N   0  0  0  0  0  0  0  0  0  0  0  0
    6.1833   23.6808    5.5987 C   0  0  0  0  0  0  0  0  0  0  0  0
    6.7327   23.0382    6.5652 O   0  0  0  0  0  0  0  0  0  0  0  0
    6.3445   23.9841    3.4990 H   0  0  0  0  0  0  0  0  0  0  0  0
    5.0548   24.5139    5.9195 C   0  0  0  0  0  0  0  0  0  0  0  0
    4.8976   25.7977    5.4297 C   0  0  0  0  0  0  0  0  0  0  0  0
    3.7910   26.5716    5.7751 C   0  0  0  0  0  0  0  0  0  0  0  0
    2.8169   26.0917    6.6112 C   0  0  0  0  0  0  0  0  0  0  0  0
    2.9623   24.8066    7.1081 C   0  0  0  0  0  0  0  0  0  0  0  0
    4.0601   24.0565    6.7581 C   0  0  0  0  0  0  0  0  0  0  0  0
    9.0554   23.5895    3.7643 C   0  0  0  0  0  0  0  0  0  0  0  0
    8.5876   25.0198    3.7640 C   0  0  0  0  0  0  0  0  0  0  0  0
    7.7505   25.4859    2.7763 C   0  0  0  0  0  0  0  0  0  0  0  0
    7.2943   26.7718    2.7332 C   0  0  0  0  0  0  0  0  0  0  0  0
    7.6738   27.6630    3.7118 C   0  0  0  0  0  0  0  0  0  0  0  0
    8.5180   27.2034    4.7135 C   0  0  0  0  0  0  0  0  0  0  0  0
    8.9797   25.9004    4.7545 C   0  0  0  0  0  0  0  0  0  0  0  0
    5.7117   20.3682    0.7292 C   0  0  0  0  0  0  0  0  0  0  0  0
    4.8132   20.4774   -0.4654 C   0  0  0  0  0  0  0  0  0  0  0  0
    5.0422   19.5217   -1.4713 C   0  0  0  0  0  0  0  0  0  0  0  0
    4.2707   19.6103   -2.6024 C   0  0  0  0  0  0  0  0  0  0  0  0
    3.3237   20.5789   -2.7513 C   0  0  0  0  0  0  0  0  0  0  0  0
    3.1025   21.5145   -1.7651 C   0  0  0  0  0  0  0  0  0  0  0  0
    3.8617   21.4470   -0.6228 C   0  0  0  0  0  0  0  0  0  0  0  0
  7  8  1  0  0  0
  8  9  1  0  0  0
  9 10  2  0  0  0
 10 11  1  0  0  0
 11 12  2  0  0  0
 12  6  1  0  0  0
  6  2  1  0  0  0
  2  3  1  0  0  0
  3  4  2  0  0  0
  3  1  1  0  0  0
  1 52  1  0  0  0
 52 53  1  0  0  0
 53 54  2  0  0  0
 54 55  1  0  0  0
 55 56  2  0  0  0
 56 57  1  0  0  0
 57 58  2  0  0  0
  1 30  1  0  0  0
 30 31  1  0  0  0
 31 32  2  0  0  0
 31 34  1  0  0  0
 34 45  1  0  0  0
 45 46  1  0  0  0
 46 47  2  0  0  0
 47 48  1  0  0  0
 48 49  2  0  0  0
 49 50  1  0  0  0
 50 51  2  0  0  0
 34 35  1  0  0  0
 35 36  1  0  0  0
 36 37  2  0  0  0
 36 39  1  0  0  0
 39 40  2  0  0  0
 40 41  1  0  0  0
 41 42  2  0  0  0
 42 43  1  0  0  0
 43 44  2  0  0  0
 12 13  1  0  0  0
 13 14  2  0  0  0
 14 15  1  0  0  0
 15 16  1  0  0  0
 15 17  2  0  0  0
 17 21  1  0  0  0
 21 22  2  0  0  0
 21 23  1  0  0  0
 23 25  1  0  0  0
 25 26  1  0  0  0
 26 27  1  0  0  0
 26 28  2  0  0  0
 17 18  1  0  0  0
 18 19  2  0  0  0
 18  8  1  0  0  0
 14  9  1  0  0  0
 58 53  1  0  0  0
 51 46  1  0  0  0
 44 39  1  0  0  0
  2  5  1  0  0  0
 30 33  1  0  0  0
 35 38  1  0  0  0
 16 20  1  0  0  0
 23 24  1  0  0  0
 27 29  1  0  0  0
M  END
> <minimizedAffinity>
-8.29761

> <CNNscore>
0.1369587630

> <CNNaffinity>
7.2976884842

> <CNN_VS>
0.9994823933

> <CNNaffinity_variance>
0.0395290405

$$$$
[H]OC(=O)C([H])([H])N([H])C(=O)c1c(O[H])c2c([H])c(C([H])([H])N([H])C(=O)[C@]([H])(N([H])C(=O)[C@]([H])(N([H])C(=O)c3c([H])c([H])c([H])c([H])c3[H])C([H])([H])c3c([H])c([H])c([H])c([H])c3[H])C([H])([H])c3c([H])c([H])c([H])c([H])c3[H])c([H])c([H])c2n(C([H])([H])[H])c1=O


 58 62  0  0  0  0  0  0  0  0999 V2000
    7.1533   22.8508    3.7959 C   0  0  0  0  0  0  0  0  0  0  0  0
    8.0768   23.1089    1.3903 N   0  0  0  0  0  0  0  0  0  0  0  0
    7.7494   23.5448    2.6755 C   0  0  0  0  0  0  0  0  0  0  0  0
    8.0467   24.7898    2.8986 O   0  0  0  0  0  0  0  0  0  0  0  0
    7.9028   22.0707    1.1967 H   0  0  0  0  0  0  0  0  0  0  0  0
    8.6607   23.8749    0.3498 C   0  0  0  0  0  0  0  0  0  0  0  0
   14.8701   21.9614    0.2085 C   0  0  0  0  0  0  0  0  0  0  0  0
   14.1555   22.9673   -0.5782 N   0  0  0  0  0  0  0  0  0  0  0  0
   12.8503   23.1989   -0.4120 C   0  0  0  0  0  0  0  0  0  0  0  0
   12.1529   22.4801    0.5339 C   0  0  0  0  0  0  0  0  0  0  0  0
   10.7995   22.6774    0.7756 C   0  0  0  0  0  0  0  0  0  0  0  0
   10.0899   23.6227    0.0579 C   0  0  0  0  0  0  0  0  0  0  0  0
   10.7838   24.3488   -0.8983 C   0  0  0  0  0  0  0  0  0  0  0  0
   12.1259   24.1505   -1.1340 C   0  0  0  0  0  0  0  0  0  0  0  0
   12.8239   24.8772   -2.0641 C   0  0  0  0  0  0  0  0  0  0  0  0
   12.1942   25.8333   -2.8222 O   0  0  0  0  0  0  0  0  0  0  0  0
   14.2016   24.6576   -2.2629 C   0  0  0  0  0  0  0  0  0  0  0  0
   14.8268   23.7043   -1.5099 C   0  0  0  0  0  0  0  0  0  0  0  0
   16.0536   23.4241   -1.6036 O   0  0  0  0  0  0  0  0  0  0  0  0
   11.2369   26.0347   -2.7345 H   0  0  0  0  0  0  0  0  0  0  0  0
   14.9018   25.4458   -3.2374 C   0  0  0  0  0  0  0  0  0  0  0  0
   14.5942   25.2156   -4.4773 O   0  0  0  0  0  0  0  0  0  0  0  0
   15.8704   26.4341   -3.0650 N   0  0  0  0  0  0  0  0  0  0  0  0
   16.2059   26.7134   -2.1314 H   0  0  0  0  0  0  0  0  0  0  0  0
   16.4535   27.1196   -4.2331 C   0  0  0  0  0  0  0  0  0  0  0  0
   17.4645   28.1043   -3.7424 C   0  0  0  0  0  0  0  0  0  0  0  0
   17.0923   29.1437   -2.9068 O   0  0  0  0  0  0  0  0  0  0  0  0
   18.6656   28.0143   -4.0732 O   0  0  0  0  0  0  0  0  0  0  0  0
   16.1550   29.1337   -2.5330 H   0  0  0  0  0  0  0  0  0  0  0  0
    6.3636   21.7024    3.4233 N   0  0  0  0  0  0  0  0  0  0  0  0
    6.7081   20.3450    3.5066 C   0  0  0  0  0  0  0  0  0  0  0  0
    7.8410   20.0617    3.9710 O   0  0  0  0  0  0  0  0  0  0  0  0
    5.3933   21.9193    3.0371 H   0  0  0  0  0  0  0  0  0  0  0  0
    5.7973   19.2638    3.0809 C   0  0  0  0  0  0  0  0  0  0  0  0
    5.0456   19.6255    1.8972 N   0  0  0  0  0  0  0  0  0  0  0  0
    5.5152   19.3228    0.5943 C   0  0  0  0  0  0  0  0  0  0  0  0
    6.6417   18.7108    0.5219 O   0  0  0  0  0  0  0  0  0  0  0  0
    4.1476   20.1275    2.0117 H   0  0  0  0  0  0  0  0  0  0  0  0
    4.8534   19.6325   -0.6453 C   0  0  0  0  0  0  0  0  0  0  0  0
    4.0481   18.7327   -1.3193 C   0  0  0  0  0  0  0  0  0  0  0  0
    3.4338   19.0747   -2.5229 C   0  0  0  0  0  0  0  0  0  0  0  0
    3.6026   20.3135   -3.0841 C   0  0  0  0  0  0  0  0  0  0  0  0
    4.4065   21.2245   -2.4182 C   0  0  0  0  0  0  0  0  0  0  0  0
    5.0057   20.8712   -1.2322 C   0  0  0  0  0  0  0  0  0  0  0  0
    4.7250   18.9894    4.1540 C   0  0  0  0  0  0  0  0  0  0  0  0
    5.1690   17.8992    5.0914 C   0  0  0  0  0  0  0  0  0  0  0  0
    5.9871   16.8836    4.6520 C   0  0  0  0  0  0  0  0  0  0  0  0
    6.4214   15.8747    5.4625 C   0  0  0  0  0  0  0  0  0  0  0  0
    6.0384   15.8496    6.7848 C   0  0  0  0  0  0  0  0  0  0  0  0
    5.2133   16.8695    7.2390 C   0  0  0  0  0  0  0  0  0  0  0  0
    4.7737   17.8901    6.4157 C   0  0  0  0  0  0  0  0  0  0  0  0
    6.6900   23.5569    5.0085 C   0  0  0  0  0  0  0  0  0  0  0  0
    6.0975   22.6190    6.0162 C   0  0  0  0  0  0  0  0  0  0  0  0
    4.6949   22.6550    6.1098 C   0  0  0  0  0  0  0  0  0  0  0  0
    4.1119   21.8432    7.0496 C   0  0  0  0  0  0  0  0  0  0  0  0
    4.8530   21.0361    7.8600 C   0  0  0  0  0  0  0  0  0  0  0  0
    6.2267   21.0039    7.7673 C   0  0  0  0  0  0  0  0  0  0  0  0
    6.8343   21.8072    6.8338 C   0  0  0  0  0  0  0  0  0  0  0  0
  7  8  1  0  0  0
  8  9  1  0  0  0
  9 10  2  0  0  0
 10 11  1  0  0  0
 11 12  2  0  0  0
 12  6  1  0  0  0
  6  2  1  0  0  0
  2  3  1  0  0  0
  3  4  2  0  0  0
  3  1  1  0  0  0
  1 52  1  0  0  0
 52 53  1  0  0  0
 53 54  2  0  0  0
 54 55  1  0  0  0
 55 56  2  0  0  0
 56 57  1  0  0  0
 57 58  2  0  0  0
  1 30  1  0  0  0
 30 31  1  0  0  0
 31 32  2  0  0  0
 31 34  1  0  0  0
 34 45  1  0  0  0
 45 46  1  0  0  0
 46 47  2  0  0  0
 47 48  1  0  0  0
 48 49  2  0  0  0
 49 50  1  0  0  0
 50 51  2  0  0  0
 34 35  1  0  0  0
 35 36  1  0  0  0
 36 37  2  0  0  0
 36 39  1  0  0  0
 39 40  2  0  0  0
 40 41  1  0  0  0
 41 42  2  0  0  0
 42 43  1  0  0  0
 43 44  2  0  0  0
 12 13  1  0  0  0
 13 14  2  0  0  0
 14 15  1  0  0  0
 15 16  1  0  0  0
 15 17  2  0  0  0
 17 21  1  0  0  0
 21 22  2  0  0  0
 21 23  1  0  0  0
 23 25  1  0  0  0
 25 26  1  0  0  0
 26 27  1  0  0  0
 26 28  2  0  0  0
 17 18  1  0  0  0
 18 19  2  0  0  0
 18  8  1  0  0  0
 14  9  1  0  0  0
 58 53  1  0  0  0
 51 46  1  0  0  0
 44 39  1  0  0  0
  2  5  1  0  0  0
 30 33  1  0  0  0
 35 38  1  0  0  0
 16 20  1  0  0  0
 23 24  1  0  0  0
 27 29  1  0  0  0
M  END
> <minimizedAffinity>
-7.03761

> <CNNscore>
0.1039099321

> <CNNaffinity>
6.8535842896

> <CNN_VS>
0.7121554613

> <CNNaffinity_variance>
0.3084657788

$$$$
[H]OC(=O)C([H])([H])N([H])C(=O)c1c(O[H])c2c([H])c(C([H])([H])N([H])C(=O)[C@]([H])(N([H])C(=O)[C@]([H])(N([H])C(=O)c3c([H])c([H])c([H])c([H])c3[H])C([H])([H])c3c([H])c([H])c([H])c([H])c3[H])C([H])([H])c3c([H])c([H])c([H])c([H])c3[H])c([H])c([H])c2n(C([H])([H])[H])c1=O


 58 62  0  0  0  0  0  0  0  0999 V2000
    7.1807   21.7295    1.8058 C   0  0  0  0  0  0  0  0  0  0  0  0
    8.9518   22.9858    0.3947 N   0  0  0  0  0  0  0  0  0  0  0  0
    7.8335   22.8816    1.2238 C   0  0  0  0  0  0  0  0  0  0  0  0
    7.2995   24.0259    1.5303 O   0  0  0  0  0  0  0  0  0  0  0  0
    9.4519   22.0649    0.1764 H   0  0  0  0  0  0  0  0  0  0  0  0
    9.5182   24.1737   -0.1329 C   0  0  0  0  0  0  0  0  0  0  0  0
   15.9682   23.9266    0.6252 C   0  0  0  0  0  0  0  0  0  0  0  0
   15.1481   24.4213   -0.4811 N   0  0  0  0  0  0  0  0  0  0  0  0
   13.8137   24.3601   -0.4548 C   0  0  0  0  0  0  0  0  0  0  0  0
   13.1847   23.8261    0.6484 C   0  0  0  0  0  0  0  0  0  0  0  0
   11.8023   23.7452    0.7553 C   0  0  0  0  0  0  0  0  0  0  0  0
   10.9922   24.2074   -0.2656 C   0  0  0  0  0  0  0  0  0  0  0  0
   11.6174   24.7439   -1.3811 C   0  0  0  0  0  0  0  0  0  0  0  0
   12.9884   24.8229   -1.4825 C   0  0  0  0  0  0  0  0  0  0  0  0
   13.6144   25.3693   -2.5734 C   0  0  0  0  0  0  0  0  0  0  0  0
   12.8840   25.8486   -3.6328 O   0  0  0  0  0  0  0  0  0  0  0  0
   15.0201   25.4494   -2.6315 C   0  0  0  0  0  0  0  0  0  0  0  0
   15.7461   24.9699   -1.5781 C   0  0  0  0  0  0  0  0  0  0  0  0
   17.0065   24.9899   -1.5231 O   0  0  0  0  0  0  0  0  0  0  0  0
   11.9025   25.8218   -3.6562 H   0  0  0  0  0  0  0  0  0  0  0  0
   15.6397   26.0385   -3.7848 C   0  0  0  0  0  0  0  0  0  0  0  0
   16.1854   25.2078   -4.6197 O   0  0  0  0  0  0  0  0  0  0  0  0
   15.7496   27.3772   -4.1597 N   0  0  0  0  0  0  0  0  0  0  0  0
   15.3604   28.1392   -3.5853 H   0  0  0  0  0  0  0  0  0  0  0  0
   16.4385   27.7482   -5.4096 C   0  0  0  0  0  0  0  0  0  0  0  0
   15.6853   27.1529   -6.5545 C   0  0  0  0  0  0  0  0  0  0  0  0
   14.3220   26.9285   -6.4644 O   0  0  0  0  0  0  0  0  0  0  0  0
   16.2652   26.8440   -7.6168 O   0  0  0  0  0  0  0  0  0  0  0  0
   13.8358   27.3034   -5.6635 H   0  0  0  0  0  0  0  0  0  0  0  0
    7.2759   21.6641    3.2438 N   0  0  0  0  0  0  0  0  0  0  0  0
    8.1095   22.4043    4.0956 C   0  0  0  0  0  0  0  0  0  0  0  0
    8.8765   23.2480    3.5669 O   0  0  0  0  0  0  0  0  0  0  0  0
    6.6252   20.9623    3.7147 H   0  0  0  0  0  0  0  0  0  0  0  0
    8.1078   22.2302    5.5617 C   0  0  0  0  0  0  0  0  0  0  0  0
    7.5759   23.3920    6.2430 N   0  0  0  0  0  0  0  0  0  0  0  0
    6.2403   23.8249    6.0469 C   0  0  0  0  0  0  0  0  0  0  0  0
    5.5293   23.1307    5.2336 O   0  0  0  0  0  0  0  0  0  0  0  0
    8.1954   23.9223    6.8806 H   0  0  0  0  0  0  0  0  0  0  0  0
    5.6100   24.9587    6.6694 C   0  0  0  0  0  0  0  0  0  0  0  0
    4.3417   24.9132    7.2188 C   0  0  0  0  0  0  0  0  0  0  0  0
    3.7677   26.0405    7.8042 C   0  0  0  0  0  0  0  0  0  0  0  0
    4.4365   27.2354    7.8592 C   0  0  0  0  0  0  0  0  0  0  0  0
    5.7084   27.2939    7.3130 C   0  0  0  0  0  0  0  0  0  0  0  0
    6.2599   26.1731    6.7386 C   0  0  0  0  0  0  0  0  0  0  0  0
    9.5440   22.0853    6.1029 C   0  0  0  0  0  0  0  0  0  0  0  0
   10.2879   21.0017    5.3703 C   0  0  0  0  0  0  0  0  0  0  0  0
   11.2279   21.3156    4.4155 C   0  0  0  0  0  0  0  0  0  0  0  0
   11.9328   20.3713    3.7266 C   0  0  0  0  0  0  0  0  0  0  0  0
   11.7126   19.0360    3.9808 C   0  0  0  0  0  0  0  0  0  0  0  0
   10.7667   18.7078    4.9424 C   0  0  0  0  0  0  0  0  0  0  0  0
   10.0529   19.6663    5.6383 C   0  0  0  0  0  0  0  0  0  0  0  0
    7.1344   20.4185    1.1255 C   0  0  0  0  0  0  0  0  0  0  0  0
    5.8672   20.2306    0.3477 C   0  0  0  0  0  0  0  0  0  0  0  0
    5.7895   20.9646   -0.8493 C   0  0  0  0  0  0  0  0  0  0  0  0
    4.6289   20.8559   -1.5729 C   0  0  0  0  0  0  0  0  0  0  0  0
    3.5936   20.0740   -1.1558 C   0  0  0  0  0  0  0  0  0  0  0  0
    3.6718   19.3573    0.0177 C   0  0  0  0  0  0  0  0  0  0  0  0
    4.8234   19.4490    0.7600 C   0  0  0  0  0  0  0  0  0  0  0  0
  7  8  1  0  0  0
  8  9  1  0  0  0
  9 10  2  0  0  0
 10 11  1  0  0  0
 11 12  2  0  0  0
 12  6  1  0  0  0
  6  2  1  0  0  0
  2  3  1  0  0  0
  3  4  2  0  0  0
  3  1  1  0  0  0
  1 52  1  0  0  0
 52 53  1  0  0  0
 53 54  2  0  0  0
 54 55  1  0  0  0
 55 56  2  0  0  0
 56 57  1  0  0  0
 57 58  2  0  0  0
  1 30  1  0  0  0
 30 31  1  0  0  0
 31 32  2  0  0  0
 31 34  1  0  0  0
 34 45  1  0  0  0
 45 46  1  0  0  0
 46 47  2  0  0  0
 47 48  1  0  0  0
 48 49  2  0  0  0
 49 50  1  0  0  0
 50 51  2  0  0  0
 34 35  1  0  0  0
 35 36  1  0  0  0
 36 37  2  0  0  0
 36 39  1  0  0  0
 39 40  2  0  0  0
 40 41  1  0  0  0
 41 42  2  0  0  0
 42 43  1  0  0  0
 43 44  2  0  0  0
 12 13  1  0  0  0
 13 14  2  0  0  0
 14 15  1  0  0  0
 15 16  1  0  0  0
 15 17  2  0  0  0
 17 21  1  0  0  0
 21 22  2  0  0  0
 21 23  1  0  0  0
 23 25  1  0  0  0
 25 26  1  0  0  0
 26 27  1  0  0  0
 26 28  2  0  0  0
 17 18  1  0  0  0
 18 19  2  0  0  0
 18  8  1  0  0  0
 14  9  1  0  0  0
 58 53  1  0  0  0
 51 46  1  0  0  0
 44 39  1  0  0  0
  2  5  1  0  0  0
 30 33  1  0  0  0
 35 38  1  0  0  0
 16 20  1  0  0  0
 23 24  1  0  0  0
 27 29  1  0  0  0
M  END
> <minimizedAffinity>
-7.91808

> <CNNscore>
0.0984798744

> <CNNaffinity>
7.0475974083

> <CNN_VS>
0.6940464973

> <CNNaffinity_variance>
0.1685486436

$$$$
[H]OC(=O)C([H])([H])N([H])C(=O)c1c(O[H])c2c([H])c(C([H])([H])N([H])C(=O)[C@]([H])(N([H])C(=O)[C@]([H])(N([H])C(=O)c3c([H])c([H])c([H])c([H])c3[H])C([H])([H])c3c([H])c([H])c([H])c([H])c3[H])C([H])([H])c3c([H])c([H])c([H])c([H])c3[H])c([H])c([H])c2n(C([H])([H])[H])c1=O


 58 62  0  0  0  0  0  0  0  0999 V2000
   12.5916   20.8299    2.0299 C   0  0  0  0  0  0  0  0  0  0  0  0
   11.5493   20.7454    4.3990 N   0  0  0  0  0  0  0  0  0  0  0  0
   11.8585   20.2470    3.1322 C   0  0  0  0  0  0  0  0  0  0  0  0
   11.4163   19.0438    2.9198 O   0  0  0  0  0  0  0  0  0  0  0  0
   11.9548   21.7094    4.6274 H   0  0  0  0  0  0  0  0  0  0  0  0
   10.8133   20.0918    5.4196 C   0  0  0  0  0  0  0  0  0  0  0  0
    5.0272   21.7936    7.8406 C   0  0  0  0  0  0  0  0  0  0  0  0
    6.0471   22.5788    7.1447 N   0  0  0  0  0  0  0  0  0  0  0  0
    7.2010   22.0399    6.7407 C   0  0  0  0  0  0  0  0  0  0  0  0
    7.4393   20.7033    6.9740 C   0  0  0  0  0  0  0  0  0  0  0  0
    8.6066   20.0695    6.5683 C   0  0  0  0  0  0  0  0  0  0  0  0
    9.5920   20.7749    5.9023 C   0  0  0  0  0  0  0  0  0  0  0  0
    9.3613   22.1217    5.6659 C   0  0  0  0  0  0  0  0  0  0  0  0
    8.2021   22.7459    6.0692 C   0  0  0  0  0  0  0  0  0  0  0  0
    7.9576   24.0725    5.8226 C   0  0  0  0  0  0  0  0  0  0  0  0
    8.8854   24.8461    5.1698 O   0  0  0  0  0  0  0  0  0  0  0  0
    6.7501   24.6706    6.2349 C   0  0  0  0  0  0  0  0  0  0  0  0
    5.8286   23.9008    6.8867 C   0  0  0  0  0  0  0  0  0  0  0  0
    4.7165   24.3304    7.3000 O   0  0  0  0  0  0  0  0  0  0  0  0
    9.7466   24.4918    4.8576 H   0  0  0  0  0  0  0  0  0  0  0  0
    6.5244   26.0593    5.9490 C   0  0  0  0  0  0  0  0  0  0  0  0
    7.4693   26.8719    6.3117 O   0  0  0  0  0  0  0  0  0  0  0  0
    5.4404   26.6847    5.3338 N   0  0  0  0  0  0  0  0  0  0  0  0
    4.6222   26.1552    4.9986 H   0  0  0  0  0  0  0  0  0  0  0  0
    5.4323   28.1468    5.1424 C   0  0  0  0  0  0  0  0  0  0  0  0
    5.4606   28.4278    3.6752 C   0  0  0  0  0  0  0  0  0  0  0  0
    4.7410   27.6427    2.7904 O   0  0  0  0  0  0  0  0  0  0  0  0
    6.1320   29.3742    3.2128 O   0  0  0  0  0  0  0  0  0  0  0  0
    4.0953   26.9702    3.1767 H   0  0  0  0  0  0  0  0  0  0  0  0
   11.7590   21.4885    1.0531 N   0  0  0  0  0  0  0  0  0  0  0  0
   11.0113   22.6665    1.1991 C   0  0  0  0  0  0  0  0  0  0  0  0
   11.0614   23.2512    2.3105 O   0  0  0  0  0  0  0  0  0  0  0  0
   11.7109   21.0154    0.0983 H   0  0  0  0  0  0  0  0  0  0  0  0
   10.1912   23.2306    0.1087 C   0  0  0  0  0  0  0  0  0  0  0  0
   10.8879   24.2820   -0.6028 N   0  0  0  0  0  0  0  0  0  0  0  0
   11.8519   23.9942   -1.6016 C   0  0  0  0  0  0  0  0  0  0  0  0
   12.0724   22.7519   -1.8404 O   0  0  0  0  0  0  0  0  0  0  0  0
   10.6798   25.2674   -0.3638 H   0  0  0  0  0  0  0  0  0  0  0  0
   12.5999   24.9548   -2.3685 C   0  0  0  0  0  0  0  0  0  0  0  0
   13.9601   24.8496   -2.5948 C   0  0  0  0  0  0  0  0  0  0  0  0
   14.6448   25.8101   -3.3374 C   0  0  0  0  0  0  0  0  0  0  0  0
   13.9984   26.8938   -3.8721 C   0  0  0  0  0  0  0  0  0  0  0  0
   12.6353   27.0104   -3.6531 C   0  0  0  0  0  0  0  0  0  0  0  0
   11.9749   26.0546   -2.9179 C   0  0  0  0  0  0  0  0  0  0  0  0
    8.9242   23.9105    0.6647 C   0  0  0  0  0  0  0  0  0  0  0  0
    7.9207   22.8864    1.1212 C   0  0  0  0  0  0  0  0  0  0  0  0
    7.5407   22.8137    2.4418 C   0  0  0  0  0  0  0  0  0  0  0  0
    6.6317   21.9071    2.9058 C   0  0  0  0  0  0  0  0  0  0  0  0
    6.0531   21.0138    2.0323 C   0  0  0  0  0  0  0  0  0  0  0  0
    6.4288   21.0783    0.6974 C   0  0  0  0  0  0  0  0  0  0  0  0
    7.3508   21.9970    0.2299 C   0  0  0  0  0  0  0  0  0  0  0  0
   13.8225   20.2186    1.4868 C   0  0  0  0  0  0  0  0  0  0  0  0
   14.3510   20.9702    0.3027 C   0  0  0  0  0  0  0  0  0  0  0  0
   14.9450   22.2094    0.6014 C   0  0  0  0  0  0  0  0  0  0  0  0
   15.4048   22.9513   -0.4571 C   0  0  0  0  0  0  0  0  0  0  0  0
   15.2936   22.5134   -1.7428 C   0  0  0  0  0  0  0  0  0  0  0  0
   14.7102   21.3000   -2.0326 C   0  0  0  0  0  0  0  0  0  0  0  0
   14.2422   20.5381   -0.9903 C   0  0  0  0  0  0  0  0  0  0  0  0
  7  8  1  0  0  0
  8  9  1  0  0  0
  9 10  2  0  0  0
 10 11  1  0  0  0
 11 12  2  0  0  0
 12  6  1  0  0  0
  6  2  1  0  0  0
  2  3  1  0  0  0
  3  4  2  0  0  0
  3  1  1  0  0  0
  1 52  1  0  0  0
 52 53  1  0  0  0
 53 54  2  0  0  0
 54 55  1  0  0  0
 55 56  2  0  0  0
 56 57  1  0  0  0
 57 58  2  0  0  0
  1 30  1  0  0  0
 30 31  1  0  0  0
 31 32  2  0  0  0
 31 34  1  0  0  0
 34 45  1  0  0  0
 45 46  1  0  0  0
 46 47  2  0  0  0
 47 48  1  0  0  0
 48 49  2  0  0  0
 49 50  1  0  0  0
 50 51  2  0  0  0
 34 35  1  0  0  0
 35 36  1  0  0  0
 36 37  2  0  0  0
 36 39  1  0  0  0
 39 40  2  0  0  0
 40 41  1  0  0  0
 41 42  2  0  0  0
 42 43  1  0  0  0
 43 44  2  0  0  0
 12 13  1  0  0  0
 13 14  2  0  0  0
 14 15  1  0  0  0
 15 16  1  0  0  0
 15 17  2  0  0  0
 17 21  1  0  0  0
 21 22  2  0  0  0
 21 23  1  0  0  0
 23 25  1  0  0  0
 25 26  1  0  0  0
 26 27  1  0  0  0
 26 28  2  0  0  0
 17 18  1  0  0  0
 18 19  2  0  0  0
 18  8  1  0  0  0
 14  9  1  0  0  0
 58 53  1  0  0  0
 51 46  1  0  0  0
 44 39  1  0  0  0
  2  5  1  0  0  0
 30 33  1  0  0  0
 35 38  1  0  0  0
 16 20  1  0  0  0
 23 24  1  0  0  0
 27 29  1  0  0  0
M  END
> <minimizedAffinity>
-6.65676

> <CNNscore>
0.0952164829

> <CNNaffinity>
6.8453912735

> <CNN_VS>
0.6517940760

> <CNNaffinity_variance>
0.3066505790

$$$$
[H]OC(=O)C([H])([H])N([H])C(=O)c1c(O[H])c2c([H])c(C([H])([H])N([H])C(=O)[C@]([H])(N([H])C(=O)[C@]([H])(N([H])C(=O)c3c([H])c([H])c([H])c([H])c3[H])C([H])([H])c3c([H])c([H])c([H])c([H])c3[H])C([H])([H])c3c([H])c([H])c([H])c([H])c3[H])c([H])c([H])c2n(C([H])([H])[H])c1=O


 58 62  0  0  0  0  0  0  0  0999 V2000
    6.3903   20.9943    0.4394 C   0  0  0  0  0  0  0  0  0  0  0  0
    8.3478   22.6861    0.3310 N   0  0  0  0  0  0  0  0  0  0  0  0
    7.2385   22.0672    0.9100 C   0  0  0  0  0  0  0  0  0  0  0  0
    6.9286   22.5358    2.0817 O   0  0  0  0  0  0  0  0  0  0  0  0
    8.6667   22.2790   -0.6061 H   0  0  0  0  0  0  0  0  0  0  0  0
    9.1185   23.7444    0.8756 C   0  0  0  0  0  0  0  0  0  0  0  0
   15.5938   23.4646    0.3971 C   0  0  0  0  0  0  0  0  0  0  0  0
   14.5905   24.0748   -0.4758 N   0  0  0  0  0  0  0  0  0  0  0  0
   13.2831   24.0003   -0.2107 C   0  0  0  0  0  0  0  0  0  0  0  0
   12.8613   23.3399    0.9223 C   0  0  0  0  0  0  0  0  0  0  0  0
   11.5214   23.2363    1.2728 C   0  0  0  0  0  0  0  0  0  0  0  0
   10.5431   23.8047    0.4777 C   0  0  0  0  0  0  0  0  0  0  0  0
   10.9589   24.4690   -0.6663 C   0  0  0  0  0  0  0  0  0  0  0  0
   12.2886   24.5700   -1.0094 C   0  0  0  0  0  0  0  0  0  0  0  0
   12.7099   25.2414   -2.1285 C   0  0  0  0  0  0  0  0  0  0  0  0
   11.8031   25.8317   -2.9739 O   0  0  0  0  0  0  0  0  0  0  0  0
   14.0817   25.3388   -2.4357 C   0  0  0  0  0  0  0  0  0  0  0  0
   14.9831   24.7489   -1.5954 C   0  0  0  0  0  0  0  0  0  0  0  0
   16.2323   24.7726   -1.7720 O   0  0  0  0  0  0  0  0  0  0  0  0
   10.8338   25.7999   -2.8185 H   0  0  0  0  0  0  0  0  0  0  0  0
   14.4858   26.0596   -3.6096 C   0  0  0  0  0  0  0  0  0  0  0  0
   13.7935   27.1221   -3.8868 O   0  0  0  0  0  0  0  0  0  0  0  0
   15.5177   25.8010   -4.5113 N   0  0  0  0  0  0  0  0  0  0  0  0
   16.1427   24.9881   -4.4080 H   0  0  0  0  0  0  0  0  0  0  0  0
   15.7482   26.6976   -5.6591 C   0  0  0  0  0  0  0  0  0  0  0  0
   16.3247   27.9771   -5.1462 C   0  0  0  0  0  0  0  0  0  0  0  0
   15.7337   29.1917   -5.4505 O   0  0  0  0  0  0  0  0  0  0  0  0
   17.3504   27.9821   -4.4333 O   0  0  0  0  0  0  0  0  0  0  0  0
   14.8342   29.1754   -5.9076 H   0  0  0  0  0  0  0  0  0  0  0  0
    5.9327   20.1068    1.4806 N   0  0  0  0  0  0  0  0  0  0  0  0
    4.6376   19.9723    2.0028 C   0  0  0  0  0  0  0  0  0  0  0  0
    3.7366   20.6989    1.5133 O   0  0  0  0  0  0  0  0  0  0  0  0
    6.6791   19.4724    1.9027 H   0  0  0  0  0  0  0  0  0  0  0  0
    4.3078   19.0195    3.0814 C   0  0  0  0  0  0  0  0  0  0  0  0
    5.4914   18.5643    3.7806 N   0  0  0  0  0  0  0  0  0  0  0  0
    5.5414   18.4959    5.1957 C   0  0  0  0  0  0  0  0  0  0  0  0
    4.4808   18.8586    5.8221 O   0  0  0  0  0  0  0  0  0  0  0  0
    6.3232   18.2933    3.2272 H   0  0  0  0  0  0  0  0  0  0  0  0
    6.6589   18.0601    5.9905 C   0  0  0  0  0  0  0  0  0  0  0  0
    6.6720   16.8664    6.6887 C   0  0  0  0  0  0  0  0  0  0  0  0
    7.7748   16.4894    7.4534 C   0  0  0  0  0  0  0  0  0  0  0  0
    8.8873   17.2847    7.5426 C   0  0  0  0  0  0  0  0  0  0  0  0
    8.8870   18.4830    6.8472 C   0  0  0  0  0  0  0  0  0  0  0  0
    7.7910   18.8404    6.0980 C   0  0  0  0  0  0  0  0  0  0  0  0
    3.6752   17.7350    2.5100 C   0  0  0  0  0  0  0  0  0  0  0  0
    4.4058   17.2786    1.2762 C   0  0  0  0  0  0  0  0  0  0  0  0
    3.8461   17.4351    0.0289 C   0  0  0  0  0  0  0  0  0  0  0  0
    4.4689   17.0427   -1.1207 C   0  0  0  0  0  0  0  0  0  0  0  0
    5.7157   16.4619   -1.0566 C   0  0  0  0  0  0  0  0  0  0  0  0
    6.2902   16.2995    0.1968 C   0  0  0  0  0  0  0  0  0  0  0  0
    5.6567   16.6968    1.3602 C   0  0  0  0  0  0  0  0  0  0  0  0
    6.5776   20.3586   -0.8815 C   0  0  0  0  0  0  0  0  0  0  0  0
    5.3696   20.5071   -1.7559 C   0  0  0  0  0  0  0  0  0  0  0  0
    5.3647   19.6982   -2.9062 C   0  0  0  0  0  0  0  0  0  0  0  0
    4.2975   19.8324   -3.7580 C   0  0  0  0  0  0  0  0  0  0  0  0
    3.2845   20.7088   -3.5070 C   0  0  0  0  0  0  0  0  0  0  0  0
    3.2926   21.5009   -2.3804 C   0  0  0  0  0  0  0  0  0  0  0  0
    4.3498   21.3850   -1.5117 C   0  0  0  0  0  0  0  0  0  0  0  0
  7  8  1  0  0  0
  8  9  1  0  0  0
  9 10  2  0  0  0
 10 11  1  0  0  0
 11 12  2  0  0  0
 12  6  1  0  0  0
  6  2  1  0  0  0
  2  3  1  0  0  0
  3  4  2  0  0  0
  3  1  1  0  0  0
  1 52  1  0  0  0
 52 53  1  0  0  0
 53 54  2  0  0  0
 54 55  1  0  0  0
 55 56  2  0  0  0
 56 57  1  0  0  0
 57 58  2  0  0  0
  1 30  1  0  0  0
 30 31  1  0  0  0
 31 32  2  0  0  0
 31 34  1  0  0  0
 34 45  1  0  0  0
 45 46  1  0  0  0
 46 47  2  0  0  0
 47 48  1  0  0  0
 48 49  2  0  0  0
 49 50  1  0  0  0
 50 51  2  0  0  0
 34 35  1  0  0  0
 35 36  1  0  0  0
 36 37  2  0  0  0
 36 39  1  0  0  0
 39 40  2  0  0  0
 40 41  1  0  0  0
 41 42  2  0  0  0
 42 43  1  0  0  0
 43 44  2  0  0  0
 12 13  1  0  0  0
 13 14  2  0  0  0
 14 15  1  0  0  0
 15 16  1  0  0  0
 15 17  2  0  0  0
 17 21  1  0  0  0
 21 22  2  0  0  0
 21 23  1  0  0  0
 23 25  1  0  0  0
 25 26  1  0  0  0
 26 27  1  0  0  0
 26 28  2  0  0  0
 17 18  1  0  0  0
 18 19  2  0  0  0
 18  8  1  0  0  0
 14  9  1  0  0  0
 58 53  1  0  0  0
 51 46  1  0  0  0
 44 39  1  0  0  0
  2  5  1  0  0  0
 30 33  1  0  0  0
 35 38  1  0  0  0
 16 20  1  0  0  0
 23 24  1  0  0  0
 27 29  1  0  0  0
M  END
> <minimizedAffinity>
-9.47853

> <CNNscore>
0.0891178101

> <CNNaffinity>
6.5590972900

> <CNN_VS>
0.5845323801

> <CNNaffinity_variance>
0.4841204584

$$$$
[H]OC(=O)C([H])([H])N([H])C(=O)c1c(O[H])c2c([H])c(C([H])([H])N([H])C(=O)[C@]([H])(N([H])C(=O)[C@]([H])(N([H])C(=O)c3c([H])c([H])c([H])c([H])c3[H])C([H])([H])c3c([H])c([H])c([H])c([H])c3[H])C([H])([H])c3c([H])c([H])c([H])c([H])c3[H])c([H])c([H])c2n(C([H])([H])[H])c1=O


 58 62  0  0  0  0  0  0  0  0999 V2000
    8.2473   21.0270    0.2905 C   0  0  0  0  0  0  0  0  0  0  0  0
   10.6600   20.0968    0.1510 N   0  0  0  0  0  0  0  0  0  0  0  0
    9.5328   20.7714   -0.3213 C   0  0  0  0  0  0  0  0  0  0  0  0
    9.6776   21.2623   -1.5156 O   0  0  0  0  0  0  0  0  0  0  0  0
   10.5945   19.7362    1.1568 H   0  0  0  0  0  0  0  0  0  0  0  0
   11.8849   19.8934   -0.5336 C   0  0  0  0  0  0  0  0  0  0  0  0
   16.0831   24.5575    1.1571 C   0  0  0  0  0  0  0  0  0  0  0  0
   15.5467   24.1738   -0.1490 N   0  0  0  0  0  0  0  0  0  0  0  0
   14.6980   23.1520   -0.2926 C   0  0  0  0  0  0  0  0  0  0  0  0
   14.3041   22.4411    0.8198 C   0  0  0  0  0  0  0  0  0  0  0  0
   13.4120   21.3788    0.7515 C   0  0  0  0  0  0  0  0  0  0  0  0
   12.8778   20.9892   -0.4630 C   0  0  0  0  0  0  0  0  0  0  0  0
   13.2713   21.6977   -1.5882 C   0  0  0  0  0  0  0  0  0  0  0  0
   14.1553   22.7509   -1.5158 C   0  0  0  0  0  0  0  0  0  0  0  0
   14.5349   23.4691   -2.6206 C   0  0  0  0  0  0  0  0  0  0  0  0
   14.0537   23.1459   -3.8654 O   0  0  0  0  0  0  0  0  0  0  0  0
   15.4278   24.5529   -2.5027 C   0  0  0  0  0  0  0  0  0  0  0  0
   15.9081   24.8722   -1.2642 C   0  0  0  0  0  0  0  0  0  0  0  0
   16.7108   25.8201   -1.0419 O   0  0  0  0  0  0  0  0  0  0  0  0
   13.4303   22.4022   -4.0167 H   0  0  0  0  0  0  0  0  0  0  0  0
   15.7934   25.2888   -3.6799 C   0  0  0  0  0  0  0  0  0  0  0  0
   17.0151   25.1305   -4.0888 O   0  0  0  0  0  0  0  0  0  0  0  0
   15.0372   26.1562   -4.4676 N   0  0  0  0  0  0  0  0  0  0  0  0
   14.0521   26.3704   -4.2533 H   0  0  0  0  0  0  0  0  0  0  0  0
   15.6350   26.8041   -5.6496 C   0  0  0  0  0  0  0  0  0  0  0  0
   16.1791   28.1315   -5.2318 C   0  0  0  0  0  0  0  0  0  0  0  0
   17.1732   28.2184   -4.2720 O   0  0  0  0  0  0  0  0  0  0  0  0
   15.7516   29.1912   -5.7363 O   0  0  0  0  0  0  0  0  0  0  0  0
   17.6102   27.3608   -3.9688 H   0  0  0  0  0  0  0  0  0  0  0  0
    8.3186   21.7963    1.5089 N   0  0  0  0  0  0  0  0  0  0  0  0
    8.3562   23.1909    1.6567 C   0  0  0  0  0  0  0  0  0  0  0  0
    8.3139   23.8864    0.6108 O   0  0  0  0  0  0  0  0  0  0  0  0
    8.3440   21.2262    2.4100 H   0  0  0  0  0  0  0  0  0  0  0  0
    8.4355   23.8510    2.9751 C   0  0  0  0  0  0  0  0  0  0  0  0
    7.9493   22.9956    4.0375 N   0  0  0  0  0  0  0  0  0  0  0  0
    8.7998   22.0779    4.7041 C   0  0  0  0  0  0  0  0  0  0  0  0
   10.0230   22.0476    4.3147 O   0  0  0  0  0  0  0  0  0  0  0  0
    6.9512   23.0529    4.3055 H   0  0  0  0  0  0  0  0  0  0  0  0
    8.4255   21.1852    5.7687 C   0  0  0  0  0  0  0  0  0  0  0  0
    7.2133   21.2613    6.4300 C   0  0  0  0  0  0  0  0  0  0  0  0
    6.8975   20.3795    7.4623 C   0  0  0  0  0  0  0  0  0  0  0  0
    7.7735   19.4039    7.8611 C   0  0  0  0  0  0  0  0  0  0  0  0
    8.9912   19.3167    7.2060 C   0  0  0  0  0  0  0  0  0  0  0  0
    9.2875   20.1946    6.1902 C   0  0  0  0  0  0  0  0  0  0  0  0
    7.5237   25.0929    3.0273 C   0  0  0  0  0  0  0  0  0  0  0  0
    7.3093   25.5433    4.4470 C   0  0  0  0  0  0  0  0  0  0  0  0
    8.3791   25.8360    5.2614 C   0  0  0  0  0  0  0  0  0  0  0  0
    8.2385   26.2525    6.5537 C   0  0  0  0  0  0  0  0  0  0  0  0
    6.9786   26.3952    7.0907 C   0  0  0  0  0  0  0  0  0  0  0  0
    5.8918   26.1029    6.2779 C   0  0  0  0  0  0  0  0  0  0  0  0
    6.0369   25.6800    4.9691 C   0  0  0  0  0  0  0  0  0  0  0  0
    7.1363   20.0543    0.2336 C   0  0  0  0  0  0  0  0  0  0  0  0
    6.1635   20.3717   -0.8613 C   0  0  0  0  0  0  0  0  0  0  0  0
    6.3020   19.5935   -2.0243 C   0  0  0  0  0  0  0  0  0  0  0  0
    5.4595   19.8785   -3.0690 C   0  0  0  0  0  0  0  0  0  0  0  0
    4.5283   20.8704   -2.9901 C   0  0  0  0  0  0  0  0  0  0  0  0
    4.3958   21.6321   -1.8504 C   0  0  0  0  0  0  0  0  0  0  0  0
    5.2273   21.3661   -0.7903 C   0  0  0  0  0  0  0  0  0  0  0  0
  7  8  1  0  0  0
  8  9  1  0  0  0
  9 10  2  0  0  0
 10 11  1  0  0  0
 11 12  2  0  0  0
 12  6  1  0  0  0
  6  2  1  0  0  0
  2  3  1  0  0  0
  3  4  2  0  0  0
  3  1  1  0  0  0
  1 52  1  0  0  0
 52 53  1  0  0  0
 53 54  2  0  0  0
 54 55  1  0  0  0
 55 56  2  0  0  0
 56 57  1  0  0  0
 57 58  2  0  0  0
  1 30  1  0  0  0
 30 31  1  0  0  0
 31 32  2  0  0  0
 31 34  1  0  0  0
 34 45  1  0  0  0
 45 46  1  0  0  0
 46 47  2  0  0  0
 47 48  1  0  0  0
 48 49  2  0  0  0
 49 50  1  0  0  0
 50 51  2  0  0  0
 34 35  1  0  0  0
 35 36  1  0  0  0
 36 37  2  0  0  0
 36 39  1  0  0  0
 39 40  2  0  0  0
 40 41  1  0  0  0
 41 42  2  0  0  0
 42 43  1  0  0  0
 43 44  2  0  0  0
 12 13  1  0  0  0
 13 14  2  0  0  0
 14 15  1  0  0  0
 15 16  1  0  0  0
 15 17  2  0  0  0
 17 21  1  0  0  0
 21 22  2  0  0  0
 21 23  1  0  0  0
 23 25  1  0  0  0
 25 26  1  0  0  0
 26 27  1  0  0  0
 26 28  2  0  0  0
 17 18  1  0  0  0
 18 19  2  0  0  0
 18  8  1  0  0  0
 14  9  1  0  0  0
 58 53  1  0  0  0
 51 46  1  0  0  0
 44 39  1  0  0  0
  2  5  1  0  0  0
 30 33  1  0  0  0
 35 38  1  0  0  0
 16 20  1  0  0  0
 23 24  1  0  0  0
 27 29  1  0  0  0
M  END
> <minimizedAffinity>
-6.56262

> <CNNscore>
0.0880401582

> <CNNaffinity>
6.8447980881

> <CNN_VS>
0.6026170850

> <CNNaffinity_variance>
0.1723481715

$$$$
[H]OC(=O)c1c([H])c([H])c(-c2c([H])c([H])c(N3C(=O)N(c4nc([H])c([H])nc4C([H])([H])[H])C4(C3=O)C([H])([H])C([H])([H])N(C([H])([H])c3nc([H])c([H])c([H])c3C([H])([H])[H])C([H])([H])C4([H])[H])c([H])c2[H])c(C([H])([H])[H])c1[H]


 44 49  0  0  0  0  0  0  0  0999 V2000
   15.5320   24.2661   -4.1586 N   0  0  0  0  0  0  0  0  0  0  0  0
   14.4807   23.4258   -4.3087 C   0  0  0  0  0  0  0  0  0  0  0  0
   13.9766   22.7150   -3.0796 C   0  0  0  0  0  0  0  0  0  0  0  0
   14.0258   23.5840   -1.8611 C   0  0  0  0  0  0  0  0  0  0  0  0
   15.4566   24.0098   -1.7118 C   0  0  0  0  0  0  0  0  0  0  0  0
   16.0878   24.5994   -2.9022 C   0  0  0  0  0  0  0  0  0  0  0  0
   13.0286   24.5898   -1.8312 N   0  0  0  0  0  0  0  0  0  0  0  0
   11.9453   24.1093   -1.0166 C   0  0  0  0  0  0  0  0  0  0  0  0
   10.7592   24.5846   -0.9325 O   0  0  0  0  0  0  0  0  0  0  0  0
   12.3794   22.9602   -0.2492 N   0  0  0  0  0  0  0  0  0  0  0  0
   13.7181   22.7518   -0.6415 C   0  0  0  0  0  0  0  0  0  0  0  0
   14.5030   21.9765   -0.0349 O   0  0  0  0  0  0  0  0  0  0  0  0
   12.9010   25.9043   -2.3861 C   0  0  0  0  0  0  0  0  0  0  0  0
   13.2274   26.1320   -3.6482 N   0  0  0  0  0  0  0  0  0  0  0  0
   13.0942   27.3300   -4.2175 C   0  0  0  0  0  0  0  0  0  0  0  0
   12.6042   28.3798   -3.4839 C   0  0  0  0  0  0  0  0  0  0  0  0
   12.2848   28.1212   -2.2172 N   0  0  0  0  0  0  0  0  0  0  0  0
   12.4025   26.9378   -1.6186 C   0  0  0  0  0  0  0  0  0  0  0  0
   12.0006   26.7446   -0.1776 C   0  0  0  0  0  0  0  0  0  0  0  0
   11.5444   22.3889    0.7668 C   0  0  0  0  0  0  0  0  0  0  0  0
   10.2208   22.2494    0.2686 C   0  0  0  0  0  0  0  0  0  0  0  0
    9.2379   21.6904    1.0117 C   0  0  0  0  0  0  0  0  0  0  0  0
    9.5306   21.2277    2.3421 C   0  0  0  0  0  0  0  0  0  0  0  0
   10.7808   21.3758    2.7896 C   0  0  0  0  0  0  0  0  0  0  0  0
   11.8093   21.9642    1.9999 C   0  0  0  0  0  0  0  0  0  0  0  0
    8.3362   20.7339    3.0173 C   0  0  0  0  0  0  0  0  0  0  0  0
    8.2924   21.0157    4.3995 C   0  0  0  0  0  0  0  0  0  0  0  0
    7.1681   20.7602    5.1130 C   0  0  0  0  0  0  0  0  0  0  0  0
    6.0471   20.2238    4.5151 C   0  0  0  0  0  0  0  0  0  0  0  0
    6.0719   19.9362    3.1776 C   0  0  0  0  0  0  0  0  0  0  0  0
    7.2359   20.1977    2.4346 C   0  0  0  0  0  0  0  0  0  0  0  0
    7.2448   19.8272    1.0119 C   0  0  0  0  0  0  0  0  0  0  0  0
    4.9002   20.0077    5.3786 C   0  0  0  0  0  0  0  0  0  0  0  0
    3.7438   19.4535    4.8781 O   0  0  0  0  0  0  0  0  0  0  0  0
    4.9535   20.3513    6.6186 O   0  0  0  0  0  0  0  0  0  0  0  0
    3.3111   19.9881    4.0735 H   0  0  0  0  0  0  0  0  0  0  0  0
   15.9627   25.2264   -5.1069 C   0  0  0  0  0  0  0  0  0  0  0  0
   15.9373   25.6667   -2.3691 C   0  0  0  0  0  0  0  0  0  0  0  0
   16.7024   26.6158   -3.2811 C   0  0  0  0  0  0  0  0  0  0  0  0
   17.2970   27.7315   -2.7679 C   0  0  0  0  0  0  0  0  0  0  0  0
   18.0245   28.5387   -3.6209 C   0  0  0  0  0  0  0  0  0  0  0  0
   18.1378   28.2248   -4.9389 C   0  0  0  0  0  0  0  0  0  0  0  0
   17.5288   27.0907   -5.4103 N   0  0  0  0  0  0  0  0  0  0  0  0
   16.8178   26.2973   -4.6138 C   0  0  0  0  0  0  0  0  0  0  0  0
 38 39  1  0  0  0
 39 40  2  0  0  0
 40 41  1  0  0  0
 41 42  2  0  0  0
 42 43  1  0  0  0
 43 44  2  0  0  0
 44 37  1  0  0  0
 37  1  1  0  0  0
  1  2  1  0  0  0
  2  3  1  0  0  0
  3  4  1  0  0  0
  4  5  1  0  0  0
  5  6  1  0  0  0
  4  7  1  0  0  0
  7  8  1  0  0  0
  8  9  2  0  0  0
  8 10  1  0  0  0
 10 11  1  0  0  0
 11 12  2  0  0  0
 10 20  1  0  0  0
 20 21  2  0  0  0
 21 22  1  0  0  0
 22 23  2  0  0  0
 23 24  1  0  0  0
 24 25  2  0  0  0
 23 26  1  0  0  0
 26 27  2  0  0  0
 27 28  1  0  0  0
 28 29  2  0  0  0
 29 30  1  0  0  0
 30 31  2  0  0  0
 31 32  1  0  0  0
 29 33  1  0  0  0
 33 34  1  0  0  0
 33 35  2  0  0  0
  7 13  1  0  0  0
 13 14  2  0  0  0
 14 15  1  0  0  0
 15 16  2  0  0  0
 16 17  1  0  0  0
 17 18  2  0  0  0
 18 19  1  0  0  0
 44 39  1  0  0  0
  6  1  1  0  0  0
 25 20  1  0  0  0
 31 26  1  0  0  0
 18 13  1  0  0  0
 11  4  1  0  0  0
 34 36  1  0  0  0
M  END
> <minimizedAffinity>
13.16389

> <CNNscore>
0.4562256336

> <CNNaffinity>
7.8060746193

> <CNN_VS>
3.5613312721

> <CNNaffinity_variance>
1.2923138142

$$$$
[H]OC(=O)c1c([H])c([H])c(-c2c([H])c([H])c(N3C(=O)N(c4nc([H])c([H])nc4C([H])([H])[H])C4(C3=O)C([H])([H])C([H])([H])N(C([H])([H])c3nc([H])c([H])c([H])c3C([H])([H])[H])C([H])([H])C4([H])[H])c([H])c2[H])c(C([H])([H])[H])c1[H]


 44 49  0  0  0  0  0  0  0  0999 V2000
   16.5892   24.5290   -4.7231 N   0  0  0  0  0  0  0  0  0  0  0  0
   15.4405   23.8678   -5.0010 C   0  0  0  0  0  0  0  0  0  0  0  0
   14.8532   23.0057   -3.9139 C   0  0  0  0  0  0  0  0  0  0  0  0
   15.0129   23.6168   -2.5562 C   0  0  0  0  0  0  0  0  0  0  0  0
   16.4860   23.8278   -2.3661 C   0  0  0  0  0  0  0  0  0  0  0  0
   17.1844   24.5489   -3.4410 C   0  0  0  0  0  0  0  0  0  0  0  0
   14.1498   24.7138   -2.3141 N   0  0  0  0  0  0  0  0  0  0  0  0
   13.0161   24.2254   -1.5766 C   0  0  0  0  0  0  0  0  0  0  0  0
   11.8991   24.8185   -1.3754 O   0  0  0  0  0  0  0  0  0  0  0  0
   13.3037   22.9079   -1.0482 N   0  0  0  0  0  0  0  0  0  0  0  0
   14.6051   22.6142   -1.5060 C   0  0  0  0  0  0  0  0  0  0  0  0
   15.2875   21.6480   -1.0747 O   0  0  0  0  0  0  0  0  0  0  0  0
   14.1872   26.1148   -2.6105 C   0  0  0  0  0  0  0  0  0  0  0  0
   13.2677   26.6578   -3.3923 N   0  0  0  0  0  0  0  0  0  0  0  0
   13.2422   27.9614   -3.6693 C   0  0  0  0  0  0  0  0  0  0  0  0
   14.1972   28.7881   -3.1354 C   0  0  0  0  0  0  0  0  0  0  0  0
   15.1095   28.2139   -2.3534 N   0  0  0  0  0  0  0  0  0  0  0  0
   15.1628   26.9177   -2.0543 C   0  0  0  0  0  0  0  0  0  0  0  0
   16.2332   26.3659   -1.1460 C   0  0  0  0  0  0  0  0  0  0  0  0
   12.4053   22.2625   -0.1359 C   0  0  0  0  0  0  0  0  0  0  0  0
   11.7961   23.2385    0.6984 C   0  0  0  0  0  0  0  0  0  0  0  0
   10.8664   22.9021    1.6222 C   0  0  0  0  0  0  0  0  0  0  0  0
   10.4832   21.5236    1.7733 C   0  0  0  0  0  0  0  0  0  0  0  0
   11.0749   20.6247    0.9814 C   0  0  0  0  0  0  0  0  0  0  0  0
   12.0514   20.9881    0.0109 C   0  0  0  0  0  0  0  0  0  0  0  0
    9.5364   21.3430    2.8673 C   0  0  0  0  0  0  0  0  0  0  0  0
    8.1991   21.1626    2.4539 C   0  0  0  0  0  0  0  0  0  0  0  0
    7.2460   20.8205    3.3555 C   0  0  0  0  0  0  0  0  0  0  0  0
    7.5526   20.6404    4.6880 C   0  0  0  0  0  0  0  0  0  0  0  0
    8.8418   20.8182    5.1104 C   0  0  0  0  0  0  0  0  0  0  0  0
    9.8326   21.1747    4.1795 C   0  0  0  0  0  0  0  0  0  0  0  0
   11.1959   21.4090    4.6775 C   0  0  0  0  0  0  0  0  0  0  0  0
    6.4511   20.2617    5.5547 C   0  0  0  0  0  0  0  0  0  0  0  0
    5.2379   20.9055    5.4638 O   0  0  0  0  0  0  0  0  0  0  0  0
    6.6102   19.3291    6.4286 O   0  0  0  0  0  0  0  0  0  0  0  0
    5.2819   21.9523    5.6148 H   0  0  0  0  0  0  0  0  0  0  0  0
   17.1355   25.5903   -5.4862 C   0  0  0  0  0  0  0  0  0  0  0  0
   14.8413   27.0298   -6.0820 C   0  0  0  0  0  0  0  0  0  0  0  0
   15.5446   26.2396   -7.1770 C   0  0  0  0  0  0  0  0  0  0  0  0
   15.0003   26.1621   -8.4257 C   0  0  0  0  0  0  0  0  0  0  0  0
   15.6962   25.4781   -9.4036 C   0  0  0  0  0  0  0  0  0  0  0  0
   16.8918   24.8959   -9.1205 C   0  0  0  0  0  0  0  0  0  0  0  0
   17.4042   25.0042   -7.8536 N   0  0  0  0  0  0  0  0  0  0  0  0
   16.7544   25.6521   -6.8905 C   0  0  0  0  0  0  0  0  0  0  0  0
 38 39  1  0  0  0
 39 40  2  0  0  0
 40 41  1  0  0  0
 41 42  2  0  0  0
 42 43  1  0  0  0
 43 44  2  0  0  0
 44 37  1  0  0  0
 37  1  1  0  0  0
  1  2  1  0  0  0
  2  3  1  0  0  0
  3  4  1  0  0  0
  4  5  1  0  0  0
  5  6  1  0  0  0
  4  7  1  0  0  0
  7  8  1  0  0  0
  8  9  2  0  0  0
  8 10  1  0  0  0
 10 11  1  0  0  0
 11 12  2  0  0  0
 10 20  1  0  0  0
 20 21  2  0  0  0
 21 22  1  0  0  0
 22 23  2  0  0  0
 23 24  1  0  0  0
 24 25  2  0  0  0
 23 26  1  0  0  0
 26 27  2  0  0  0
 27 28  1  0  0  0
 28 29  2  0  0  0
 29 30  1  0  0  0
 30 31  2  0  0  0
 31 32  1  0  0  0
 29 33  1  0  0  0
 33 34  1  0  0  0
 33 35  2  0  0  0
  7 13  1  0  0  0
 13 14  2  0  0  0
 14 15  1  0  0  0
 15 16  2  0  0  0
 16 17  1  0  0  0
 17 18  2  0  0  0
 18 19  1  0  0  0
 44 39  1  0  0  0
  6  1  1  0  0  0
 25 20  1  0  0  0
 31 26  1  0  0  0
 18 13  1  0  0  0
 11  4  1  0  0  0
 34 36  1  0  0  0
M  END
> <minimizedAffinity>
26.36108

> <CNNscore>
0.3713609874

> <CNNaffinity>
7.4972448349

> <CNN_VS>
2.7841842175

> <CNNaffinity_variance>
0.4648520947

$$$$
[H]OC(=O)c1c([H])c([H])c(-c2c([H])c([H])c(N3C(=O)N(c4nc([H])c([H])nc4C([H])([H])[H])C4(C3=O)C([H])([H])C([H])([H])N(C([H])([H])c3nc([H])c([H])c([H])c3C([H])([H])[H])C([H])([H])C4([H])[H])c([H])c2[H])c(C([H])([H])[H])c1[H]


 44 49  0  0  0  0  0  0  0  0999 V2000
   15.5582   25.8199   -4.3131 N   0  0  0  0  0  0  0  0  0  0  0  0
   14.6044   24.9874   -4.7939 C   0  0  0  0  0  0  0  0  0  0  0  0
   13.9988   23.9952   -3.8353 C   0  0  0  0  0  0  0  0  0  0  0  0
   13.8188   24.5684   -2.4636 C   0  0  0  0  0  0  0  0  0  0  0  0
   15.1798   25.0153   -2.0180 C   0  0  0  0  0  0  0  0  0  0  0  0
   15.9153   25.8867   -2.9469 C   0  0  0  0  0  0  0  0  0  0  0  0
   12.7514   25.4943   -2.3627 N   0  0  0  0  0  0  0  0  0  0  0  0
   11.6104   24.7930   -1.8391 C   0  0  0  0  0  0  0  0  0  0  0  0
   10.3903   25.1817   -1.8284 O   0  0  0  0  0  0  0  0  0  0  0  0
   12.0269   23.5218   -1.2838 N   0  0  0  0  0  0  0  0  0  0  0  0
   13.4179   23.4694   -1.5118 C   0  0  0  0  0  0  0  0  0  0  0  0
   14.1734   22.6144   -0.9795 O   0  0  0  0  0  0  0  0  0  0  0  0
   12.5966   26.8927   -2.6322 C   0  0  0  0  0  0  0  0  0  0  0  0
   12.4683   27.3239   -3.8768 N   0  0  0  0  0  0  0  0  0  0  0  0
   12.2887   28.6108   -4.1741 C   0  0  0  0  0  0  0  0  0  0  0  0
   12.2339   29.5394   -3.1665 C   0  0  0  0  0  0  0  0  0  0  0  0
   12.3666   29.0767   -1.9248 N   0  0  0  0  0  0  0  0  0  0  0  0
   12.5443   27.7998   -1.5927 C   0  0  0  0  0  0  0  0  0  0  0  0
   12.6722   27.3749   -0.1511 C   0  0  0  0  0  0  0  0  0  0  0  0
   11.1118   22.6981   -0.5490 C   0  0  0  0  0  0  0  0  0  0  0  0
   10.1099   23.5147    0.0419 C   0  0  0  0  0  0  0  0  0  0  0  0
    9.0904   22.9829    0.7553 C   0  0  0  0  0  0  0  0  0  0  0  0
    9.0144   21.5568    0.9288 C   0  0  0  0  0  0  0  0  0  0  0  0
    9.9717   20.8117    0.3687 C   0  0  0  0  0  0  0  0  0  0  0  0
   11.0402   21.3798   -0.3816 C   0  0  0  0  0  0  0  0  0  0  0  0
    7.9016   21.1760    1.7907 C   0  0  0  0  0  0  0  0  0  0  0  0
    7.4208   19.8670    1.5737 C   0  0  0  0  0  0  0  0  0  0  0  0
    6.5028   19.3289    2.4139 C   0  0  0  0  0  0  0  0  0  0  0  0
    6.0180   20.0373    3.4934 C   0  0  0  0  0  0  0  0  0  0  0  0
    6.4656   21.3109    3.7166 C   0  0  0  0  0  0  0  0  0  0  0  0
    7.4159   21.8733    2.8470 C   0  0  0  0  0  0  0  0  0  0  0  0
    7.8345   23.2620    3.0865 C   0  0  0  0  0  0  0  0  0  0  0  0
    5.0493   19.3509    4.3289 C   0  0  0  0  0  0  0  0  0  0  0  0
    4.7546   19.8226    5.5881 O   0  0  0  0  0  0  0  0  0  0  0  0
    4.4714   18.2826    3.9008 O   0  0  0  0  0  0  0  0  0  0  0  0
    5.5873   19.8956    6.2376 H   0  0  0  0  0  0  0  0  0  0  0  0
   16.0348   26.9881   -4.9574 C   0  0  0  0  0  0  0  0  0  0  0  0
   16.3711   26.5973   -2.2326 C   0  0  0  0  0  0  0  0  0  0  0  0
   17.2601   27.5891   -2.9703 C   0  0  0  0  0  0  0  0  0  0  0  0
   18.1569   28.3522   -2.2811 C   0  0  0  0  0  0  0  0  0  0  0  0
   18.9799   29.2023   -2.9942 C   0  0  0  0  0  0  0  0  0  0  0  0
   18.8902   29.2742   -4.3489 C   0  0  0  0  0  0  0  0  0  0  0  0
   17.9789   28.4846   -5.0009 N   0  0  0  0  0  0  0  0  0  0  0  0
   17.1700   27.6605   -4.3405 C   0  0  0  0  0  0  0  0  0  0  0  0
 38 39  1  0  0  0
 39 40  2  0  0  0
 40 41  1  0  0  0
 41 42  2  0  0  0
 42 43  1  0  0  0
 43 44  2  0  0  0
 44 37  1  0  0  0
 37  1  1  0  0  0
  1  2  1  0  0  0
  2  3  1  0  0  0
  3  4  1  0  0  0
  4  5  1  0  0  0
  5  6  1  0  0  0
  4  7  1  0  0  0
  7  8  1  0  0  0
  8  9  2  0  0  0
  8 10  1  0  0  0
 10 11  1  0  0  0
 11 12  2  0  0  0
 10 20  1  0  0  0
 20 21  2  0  0  0
 21 22  1  0  0  0
 22 23  2  0  0  0
 23 24  1  0  0  0
 24 25  2  0  0  0
 23 26  1  0  0  0
 26 27  2  0  0  0
 27 28  1  0  0  0
 28 29  2  0  0  0
 29 30  1  0  0  0
 30 31  2  0  0  0
 31 32  1  0  0  0
 29 33  1  0  0  0
 33 34  1  0  0  0
 33 35  2  0  0  0
  7 13  1  0  0  0
 13 14  2  0  0  0
 14 15  1  0  0  0
 15 16  2  0  0  0
 16 17  1  0  0  0
 17 18  2  0  0  0
 18 19  1  0  0  0
 44 39  1  0  0  0
  6  1  1  0  0  0
 25 20  1  0  0  0
 31 26  1  0  0  0
 18 13  1  0  0  0
 11  4  1  0  0  0
 34 36  1  0  0  0
M  END
> <minimizedAffinity>
28.71170

> <CNNscore>
0.3699868619

> <CNNaffinity>
7.2856779099

> <CNN_VS>
2.6956050396

> <CNNaffinity_variance>
0.7116599083

$$$$
[H]OC(=O)c1c([H])c([H])c(-c2c([H])c([H])c(N3C(=O)N(c4nc([H])c([H])nc4C([H])([H])[H])C4(C3=O)C([H])([H])C([H])([H])N(C([H])([H])c3nc([H])c([H])c([H])c3C([H])([H])[H])C([H])([H])C4([H])[H])c([H])c2[H])c(C([H])([H])[H])c1[H]


 44 49  0  0  0  0  0  0  0  0999 V2000
    7.6837   21.9154    3.2774 N   0  0  0  0  0  0  0  0  0  0  0  0
    7.8055   21.5210    1.9876 C   0  0  0  0  0  0  0  0  0  0  0  0
    8.6961   22.3405    1.0902 C   0  0  0  0  0  0  0  0  0  0  0  0
    9.9166   22.8370    1.8018 C   0  0  0  0  0  0  0  0  0  0  0  0
    9.4201   23.6329    2.9726 C   0  0  0  0  0  0  0  0  0  0  0  0
    8.4399   22.9670    3.8437 C   0  0  0  0  0  0  0  0  0  0  0  0
   10.8876   21.8348    2.0458 N   0  0  0  0  0  0  0  0  0  0  0  0
   11.8816   21.9258    1.0106 C   0  0  0  0  0  0  0  0  0  0  0  0
   12.7809   21.0646    0.7115 O   0  0  0  0  0  0  0  0  0  0  0  0
   11.7452   23.1846    0.3074 N   0  0  0  0  0  0  0  0  0  0  0  0
   10.6443   23.8197    0.9190 C   0  0  0  0  0  0  0  0  0  0  0  0
   10.3498   25.0286    0.7268 O   0  0  0  0  0  0  0  0  0  0  0  0
   11.0805   20.8381    3.0565 C   0  0  0  0  0  0  0  0  0  0  0  0
   11.1590   21.1847    4.3313 N   0  0  0  0  0  0  0  0  0  0  0  0
   11.3046   20.2905    5.3090 C   0  0  0  0  0  0  0  0  0  0  0  0
   11.3800   18.9559    5.0032 C   0  0  0  0  0  0  0  0  0  0  0  0
   11.2987   18.6370    3.7127 N   0  0  0  0  0  0  0  0  0  0  0  0
   11.1507   19.5030    2.7124 C   0  0  0  0  0  0  0  0  0  0  0  0
   11.0567   19.0384    1.2804 C   0  0  0  0  0  0  0  0  0  0  0  0
   12.7155   23.6009   -0.6628 C   0  0  0  0  0  0  0  0  0  0  0  0
   12.3521   24.8739   -1.1794 C   0  0  0  0  0  0  0  0  0  0  0  0
   13.1255   25.5208   -2.0819 C   0  0  0  0  0  0  0  0  0  0  0  0
   14.3450   24.9092   -2.5386 C   0  0  0  0  0  0  0  0  0  0  0  0
   14.6612   23.7095   -2.0424 C   0  0  0  0  0  0  0  0  0  0  0  0
   13.8418   23.0367   -1.0920 C   0  0  0  0  0  0  0  0  0  0  0  0
   14.9997   25.7108   -3.5656 C   0  0  0  0  0  0  0  0  0  0  0  0
   14.3697   25.6645   -4.8276 C   0  0  0  0  0  0  0  0  0  0  0  0
   14.7761   26.4892   -5.8242 C   0  0  0  0  0  0  0  0  0  0  0  0
   15.8053   27.3875   -5.6352 C   0  0  0  0  0  0  0  0  0  0  0  0
   16.4343   27.4426   -4.4214 C   0  0  0  0  0  0  0  0  0  0  0  0
   16.0175   26.5883   -3.3861 C   0  0  0  0  0  0  0  0  0  0  0  0
   16.7504   26.6377   -2.1126 C   0  0  0  0  0  0  0  0  0  0  0  0
   16.1414   28.2269   -6.7712 C   0  0  0  0  0  0  0  0  0  0  0  0
   15.9659   29.5907   -6.7078 O   0  0  0  0  0  0  0  0  0  0  0  0
   16.5908   27.6951   -7.8546 O   0  0  0  0  0  0  0  0  0  0  0  0
   14.9753   29.8984   -6.4971 H   0  0  0  0  0  0  0  0  0  0  0  0
    7.1404   21.1383    4.3300 C   0  0  0  0  0  0  0  0  0  0  0  0
    4.5677   20.1539    4.6497 C   0  0  0  0  0  0  0  0  0  0  0  0
    4.9766   21.4436    5.3478 C   0  0  0  0  0  0  0  0  0  0  0  0
    4.0574   22.1640    6.0533 C   0  0  0  0  0  0  0  0  0  0  0  0
    4.4813   23.3007    6.7140 C   0  0  0  0  0  0  0  0  0  0  0  0
    5.7833   23.6880    6.6553 C   0  0  0  0  0  0  0  0  0  0  0  0
    6.6739   22.9305    5.9396 N   0  0  0  0  0  0  0  0  0  0  0  0
    6.2937   21.8342    5.2892 C   0  0  0  0  0  0  0  0  0  0  0  0
 38 39  1  0  0  0
 39 40  2  0  0  0
 40 41  1  0  0  0
 41 42  2  0  0  0
 42 43  1  0  0  0
 43 44  2  0  0  0
 44 37  1  0  0  0
 37  1  1  0  0  0
  1  2  1  0  0  0
  2  3  1  0  0  0
  3  4  1  0  0  0
  4  5  1  0  0  0
  5  6  1  0  0  0
  4  7  1  0  0  0
  7  8  1  0  0  0
  8  9  2  0  0  0
  8 10  1  0  0  0
 10 11  1  0  0  0
 11 12  2  0  0  0
 10 20  1  0  0  0
 20 21  2  0  0  0
 21 22  1  0  0  0
 22 23  2  0  0  0
 23 24  1  0  0  0
 24 25  2  0  0  0
 23 26  1  0  0  0
 26 27  2  0  0  0
 27 28  1  0  0  0
 28 29  2  0  0  0
 29 30  1  0  0  0
 30 31  2  0  0  0
 31 32  1  0  0  0
 29 33  1  0  0  0
 33 34  1  0  0  0
 33 35  2  0  0  0
  7 13  1  0  0  0
 13 14  2  0  0  0
 14 15  1  0  0  0
 15 16  2  0  0  0
 16 17  1  0  0  0
 17 18  2  0  0  0
 18 19  1  0  0  0
 44 39  1  0  0  0
  6  1  1  0  0  0
 25 20  1  0  0  0
 31 26  1  0  0  0
 18 13  1  0  0  0
 11  4  1  0  0  0
 34 36  1  0  0  0
M  END
> <minimizedAffinity>
-4.71732

> <CNNscore>
0.3192057312

> <CNNaffinity>
7.2097244263

> <CNN_VS>
2.3013854027

> <CNNaffinity_variance>
0.1524559557

$$$$
[H]OC(=O)c1c([H])c([H])c(-c2c([H])c([H])c(N3C(=O)N(c4nc([H])c([H])nc4C([H])([H])[H])C4(C3=O)C([H])([H])C([H])([H])N(C([H])([H])c3nc([H])c([H])c([H])c3C([H])([H])[H])C([H])([H])C4([H])[H])c([H])c2[H])c(C([H])([H])[H])c1[H]


 44 49  0  0  0  0  0  0  0  0999 V2000
   14.5428   24.0455   -3.1390 N   0  0  0  0  0  0  0  0  0  0  0  0
   13.6410   24.9097   -2.6157 C   0  0  0  0  0  0  0  0  0  0  0  0
   12.3590   24.3339   -2.0726 C   0  0  0  0  0  0  0  0  0  0  0  0
   12.5734   23.0227   -1.3818 C   0  0  0  0  0  0  0  0  0  0  0  0
   13.2060   22.1168   -2.3967 C   0  0  0  0  0  0  0  0  0  0  0  0
   14.3956   22.6406   -3.0849 C   0  0  0  0  0  0  0  0  0  0  0  0
   13.1965   23.1354   -0.1145 N   0  0  0  0  0  0  0  0  0  0  0  0
   12.1648   23.0962    0.8865 C   0  0  0  0  0  0  0  0  0  0  0  0
   12.2619   23.4149    2.1230 O   0  0  0  0  0  0  0  0  0  0  0  0
   10.9296   22.6177    0.3009 N   0  0  0  0  0  0  0  0  0  0  0  0
   11.2365   22.4038   -1.0590 C   0  0  0  0  0  0  0  0  0  0  0  0
   10.4774   21.7839   -1.8493 O   0  0  0  0  0  0  0  0  0  0  0  0
   14.5503   23.2460    0.3407 C   0  0  0  0  0  0  0  0  0  0  0  0
   15.1663   24.4172    0.3288 N   0  0  0  0  0  0  0  0  0  0  0  0
   16.4131   24.5752    0.7732 C   0  0  0  0  0  0  0  0  0  0  0  0
   17.1014   23.4952    1.2634 C   0  0  0  0  0  0  0  0  0  0  0  0
   16.4567   22.3299    1.2624 N   0  0  0  0  0  0  0  0  0  0  0  0
   15.2126   22.1376    0.8292 C   0  0  0  0  0  0  0  0  0  0  0  0
   14.5656   20.7760    0.8818 C   0  0  0  0  0  0  0  0  0  0  0  0
    9.7868   22.3261    1.1163 C   0  0  0  0  0  0  0  0  0  0  0  0
   10.1287   21.3315    2.0721 C   0  0  0  0  0  0  0  0  0  0  0  0
    9.2417   20.9043    3.0004 C   0  0  0  0  0  0  0  0  0  0  0  0
    7.9158   21.4622    3.0239 C   0  0  0  0  0  0  0  0  0  0  0  0
    7.6172   22.3912    2.1111 C   0  0  0  0  0  0  0  0  0  0  0  0
    8.5575   22.8356    1.1387 C   0  0  0  0  0  0  0  0  0  0  0  0
    7.0792   20.8244    4.0335 C   0  0  0  0  0  0  0  0  0  0  0  0
    6.2273   19.8180    3.5302 C   0  0  0  0  0  0  0  0  0  0  0  0
    5.5195   19.0344    4.3806 C   0  0  0  0  0  0  0  0  0  0  0  0
    5.6109   19.1961    5.7472 C   0  0  0  0  0  0  0  0  0  0  0  0
    6.4253   20.1713    6.2550 C   0  0  0  0  0  0  0  0  0  0  0  0
    7.1594   20.9871    5.3770 C   0  0  0  0  0  0  0  0  0  0  0  0
    7.9830   22.0586    5.9557 C   0  0  0  0  0  0  0  0  0  0  0  0
    4.8164   18.2888    6.5556 C   0  0  0  0  0  0  0  0  0  0  0  0
    5.3146   17.0578    6.9177 O   0  0  0  0  0  0  0  0  0  0  0  0
    3.6295   18.6260    6.9245 O   0  0  0  0  0  0  0  0  0  0  0  0
    5.5914   16.4379    6.1055 H   0  0  0  0  0  0  0  0  0  0  0  0
   15.8971   24.3423   -3.4304 C   0  0  0  0  0  0  0  0  0  0  0  0
   15.1612   25.6802   -5.7452 C   0  0  0  0  0  0  0  0  0  0  0  0
   16.0253   26.3830   -4.7073 C   0  0  0  0  0  0  0  0  0  0  0  0
   16.5147   27.6326   -4.9533 C   0  0  0  0  0  0  0  0  0  0  0  0
   17.2515   28.2552   -3.9645 C   0  0  0  0  0  0  0  0  0  0  0  0
   17.4826   27.6304   -2.7792 C   0  0  0  0  0  0  0  0  0  0  0  0
   16.9664   26.3774   -2.5728 N   0  0  0  0  0  0  0  0  0  0  0  0
   16.2576   25.7513   -3.5082 C   0  0  0  0  0  0  0  0  0  0  0  0
 38 39  1  0  0  0
 39 40  2  0  0  0
 40 41  1  0  0  0
 41 42  2  0  0  0
 42 43  1  0  0  0
 43 44  2  0  0  0
 44 37  1  0  0  0
 37  1  1  0  0  0
  1  2  1  0  0  0
  2  3  1  0  0  0
  3  4  1  0  0  0
  4  5  1  0  0  0
  5  6  1  0  0  0
  4  7  1  0  0  0
  7  8  1  0  0  0
  8  9  2  0  0  0
  8 10  1  0  0  0
 10 11  1  0  0  0
 11 12  2  0  0  0
 10 20  1  0  0  0
 20 21  2  0  0  0
 21 22  1  0  0  0
 22 23  2  0  0  0
 23 24  1  0  0  0
 24 25  2  0  0  0
 23 26  1  0  0  0
 26 27  2  0  0  0
 27 28  1  0  0  0
 28 29  2  0  0  0
 29 30  1  0  0  0
 30 31  2  0  0  0
 31 32  1  0  0  0
 29 33  1  0  0  0
 33 34  1  0  0  0
 33 35  2  0  0  0
  7 13  1  0  0  0
 13 14  2  0  0  0
 14 15  1  0  0  0
 15 16  2  0  0  0
 16 17  1  0  0  0
 17 18  2  0  0  0
 18 19  1  0  0  0
 44 39  1  0  0  0
  6  1  1  0  0  0
 25 20  1  0  0  0
 31 26  1  0  0  0
 18 13  1  0  0  0
 11  4  1  0  0  0
 34 36  1  0  0  0
M  END
> <minimizedAffinity>
-6.00414

> <CNNscore>
0.2831085026

> <CNNaffinity>
7.9810585976

> <CNN_VS>
2.2595055103

> <CNNaffinity_variance>
0.0368958935

$$$$
[H]OC(=O)c1c([H])c([H])c(-c2c([H])c([H])c(N3C(=O)N(c4nc([H])c([H])nc4C([H])([H])[H])C4(C3=O)C([H])([H])C([H])([H])N(C([H])([H])c3nc([H])c([H])c([H])c3C([H])([H])[H])C([H])([H])C4([H])[H])c([H])c2[H])c(C([H])([H])[H])c1[H]


 44 49  0  0  0  0  0  0  0  0999 V2000
   14.6793   23.9594   -3.5135 N   0  0  0  0  0  0  0  0  0  0  0  0
   13.6960   24.6849   -2.9297 C   0  0  0  0  0  0  0  0  0  0  0  0
   12.6252   23.9323   -2.1834 C   0  0  0  0  0  0  0  0  0  0  0  0
   13.1720   22.7496   -1.4455 C   0  0  0  0  0  0  0  0  0  0  0  0
   13.8424   21.8902   -2.4763 C   0  0  0  0  0  0  0  0  0  0  0  0
   14.8159   22.5619   -3.3505 C   0  0  0  0  0  0  0  0  0  0  0  0
   13.9087   23.0870   -0.2834 N   0  0  0  0  0  0  0  0  0  0  0  0
   13.0320   22.9464    0.8478 C   0  0  0  0  0  0  0  0  0  0  0  0
   13.2129   23.3855    2.0371 O   0  0  0  0  0  0  0  0  0  0  0  0
   11.8524   22.1981    0.4656 N   0  0  0  0  0  0  0  0  0  0  0  0
   12.0297   21.9253   -0.9068 C   0  0  0  0  0  0  0  0  0  0  0  0
   11.3165   21.1084   -1.5466 O   0  0  0  0  0  0  0  0  0  0  0  0
   15.2597   23.4856   -0.0226 C   0  0  0  0  0  0  0  0  0  0  0  0
   15.6850   24.6851   -0.3854 N   0  0  0  0  0  0  0  0  0  0  0  0
   16.9224   25.1125   -0.1345 C   0  0  0  0  0  0  0  0  0  0  0  0
   17.8042   24.2924    0.5216 C   0  0  0  0  0  0  0  0  0  0  0  0
   17.3487   23.0916    0.8738 N   0  0  0  0  0  0  0  0  0  0  0  0
   16.1201   22.6345    0.6417 C   0  0  0  0  0  0  0  0  0  0  0  0
   15.6968   21.2589    1.0931 C   0  0  0  0  0  0  0  0  0  0  0  0
   10.8944   21.7735    1.4444 C   0  0  0  0  0  0  0  0  0  0  0  0
    9.6469   22.4051    1.1906 C   0  0  0  0  0  0  0  0  0  0  0  0
    8.5526   22.1428    1.9421 C   0  0  0  0  0  0  0  0  0  0  0  0
    8.6473   21.2061    3.0300 C   0  0  0  0  0  0  0  0  0  0  0  0
    9.8325   20.6304    3.2518 C   0  0  0  0  0  0  0  0  0  0  0  0
   10.9785   20.9116    2.4549 C   0  0  0  0  0  0  0  0  0  0  0  0
    7.3967   21.1143    3.7741 C   0  0  0  0  0  0  0  0  0  0  0  0
    7.5320   21.3179    5.1641 C   0  0  0  0  0  0  0  0  0  0  0  0
    6.4315   21.4236    5.9489 C   0  0  0  0  0  0  0  0  0  0  0  0
    5.1619   21.3365    5.4173 C   0  0  0  0  0  0  0  0  0  0  0  0
    5.0094   21.1314    4.0731 C   0  0  0  0  0  0  0  0  0  0  0  0
    6.1475   21.0195    3.2561 C   0  0  0  0  0  0  0  0  0  0  0  0
    5.9466   20.7467    1.8255 C   0  0  0  0  0  0  0  0  0  0  0  0
    4.0623   21.4786    6.3546 C   0  0  0  0  0  0  0  0  0  0  0  0
    3.5605   22.7238    6.6587 O   0  0  0  0  0  0  0  0  0  0  0  0
    3.5605   20.4369    6.9218 O   0  0  0  0  0  0  0  0  0  0  0  0
    4.2713   23.4008    7.0548 H   0  0  0  0  0  0  0  0  0  0  0  0
   15.9050   24.4744   -4.0028 C   0  0  0  0  0  0  0  0  0  0  0  0
   15.1261   25.5582   -6.4336 C   0  0  0  0  0  0  0  0  0  0  0  0
   15.7579   26.4512   -5.3747 C   0  0  0  0  0  0  0  0  0  0  0  0
   16.0263   27.7601   -5.6510 C   0  0  0  0  0  0  0  0  0  0  0  0
   16.5523   28.5485   -4.6460 C   0  0  0  0  0  0  0  0  0  0  0  0
   16.7972   28.0253   -3.4152 C   0  0  0  0  0  0  0  0  0  0  0  0
   16.5063   26.7065   -3.1800 N   0  0  0  0  0  0  0  0  0  0  0  0
   16.0041   25.9220   -4.1296 C   0  0  0  0  0  0  0  0  0  0  0  0
 38 39  1  0  0  0
 39 40  2  0  0  0
 40 41  1  0  0  0
 41 42  2  0  0  0
 42 43  1  0  0  0
 43 44  2  0  0  0
 44 37  1  0  0  0
 37  1  1  0  0  0
  1  2  1  0  0  0
  2  3  1  0  0  0
  3  4  1  0  0  0
  4  5  1  0  0  0
  5  6  1  0  0  0
  4  7  1  0  0  0
  7  8  1  0  0  0
  8  9  2  0  0  0
  8 10  1  0  0  0
 10 11  1  0  0  0
 11 12  2  0  0  0
 10 20  1  0  0  0
 20 21  2  0  0  0
 21 22  1  0  0  0
 22 23  2  0  0  0
 23 24  1  0  0  0
 24 25  2  0  0  0
 23 26  1  0  0  0
 26 27  2  0  0  0
 27 28  1  0  0  0
 28 29  2  0  0  0
 29 30  1  0  0  0
 30 31  2  0  0  0
 31 32  1  0  0  0
 29 33  1  0  0  0
 33 34  1  0  0  0
 33 35  2  0  0  0
  7 13  1  0  0  0
 13 14  2  0  0  0
 14 15  1  0  0  0
 15 16  2  0  0  0
 16 17  1  0  0  0
 17 18  2  0  0  0
 18 19  1  0  0  0
 44 39  1  0  0  0
  6  1  1  0  0  0
 25 20  1  0  0  0
 31 26  1  0  0  0
 18 13  1  0  0  0
 11  4  1  0  0  0
 34 36  1  0  0  0
M  END
> <minimizedAffinity>
-2.94859

> <CNNscore>
0.2496014535

> <CNNaffinity>
7.6312050819

> <CNN_VS>
1.9047598839

> <CNNaffinity_variance>
0.1642526090

$$$$
[H]OC(=O)c1c([H])c([H])c(-c2c([H])c([H])c(N3C(=O)N(c4nc([H])c([H])nc4C([H])([H])[H])C4(C3=O)C([H])([H])C([H])([H])N(C([H])([H])c3nc([H])c([H])c([H])c3C([H])([H])[H])C([H])([H])C4([H])[H])c([H])c2[H])c(C([H])([H])[H])c1[H]


 44 49  0  0  0  0  0  0  0  0999 V2000
   14.4086   23.9662   -3.1628 N   0  0  0  0  0  0  0  0  0  0  0  0
   13.4911   24.8249   -2.6580 C   0  0  0  0  0  0  0  0  0  0  0  0
   12.2378   24.2351   -2.0652 C   0  0  0  0  0  0  0  0  0  0  0  0
   12.5052   22.9615   -1.3244 C   0  0  0  0  0  0  0  0  0  0  0  0
   13.1455   22.0322   -2.3129 C   0  0  0  0  0  0  0  0  0  0  0  0
   14.3052   22.5611   -3.0467 C   0  0  0  0  0  0  0  0  0  0  0  0
   13.1487   23.1465   -0.0759 N   0  0  0  0  0  0  0  0  0  0  0  0
   12.1380   23.1196    0.9467 C   0  0  0  0  0  0  0  0  0  0  0  0
   12.2491   23.4934    2.1665 O   0  0  0  0  0  0  0  0  0  0  0  0
   10.9069   22.5802    0.4071 N   0  0  0  0  0  0  0  0  0  0  0  0
   11.1942   22.3176   -0.9486 C   0  0  0  0  0  0  0  0  0  0  0  0
   10.4392   21.6425   -1.6965 O   0  0  0  0  0  0  0  0  0  0  0  0
   14.5069   23.3163    0.3465 C   0  0  0  0  0  0  0  0  0  0  0  0
   15.0733   24.5119    0.3128 N   0  0  0  0  0  0  0  0  0  0  0  0
   16.3224   24.7247    0.7267 C   0  0  0  0  0  0  0  0  0  0  0  0
   17.0663   23.6777    1.2072 C   0  0  0  0  0  0  0  0  0  0  0  0
   16.4707   22.4867    1.2287 N   0  0  0  0  0  0  0  0  0  0  0  0
   15.2260   22.2399    0.8262 C   0  0  0  0  0  0  0  0  0  0  0  0
   14.6376   20.8531    0.9025 C   0  0  0  0  0  0  0  0  0  0  0  0
    9.7893   22.2900    1.2572 C   0  0  0  0  0  0  0  0  0  0  0  0
   10.1093   21.1923    2.1013 C   0  0  0  0  0  0  0  0  0  0  0  0
    9.2428   20.7406    3.0373 C   0  0  0  0  0  0  0  0  0  0  0  0
    7.9618   21.3786    3.1846 C   0  0  0  0  0  0  0  0  0  0  0  0
    7.6826   22.4042    2.3750 C   0  0  0  0  0  0  0  0  0  0  0  0
    8.6011   22.8737    1.3936 C   0  0  0  0  0  0  0  0  0  0  0  0
    7.1350   20.7067    4.1802 C   0  0  0  0  0  0  0  0  0  0  0  0
    6.1550   19.8485    3.6374 C   0  0  0  0  0  0  0  0  0  0  0  0
    5.4308   19.0392    4.4493 C   0  0  0  0  0  0  0  0  0  0  0  0
    5.6292   19.0313    5.8140 C   0  0  0  0  0  0  0  0  0  0  0  0
    6.5692   19.8617    6.3608 C   0  0  0  0  0  0  0  0  0  0  0  0
    7.3208   20.7035    5.5231 C   0  0  0  0  0  0  0  0  0  0  0  0
    8.2843   21.6201    6.1499 C   0  0  0  0  0  0  0  0  0  0  0  0
    4.8039   18.1127    6.5774 C   0  0  0  0  0  0  0  0  0  0  0  0
    5.2787   16.8668    6.9196 O   0  0  0  0  0  0  0  0  0  0  0  0
    3.6115   18.4541    6.9245 O   0  0  0  0  0  0  0  0  0  0  0  0
    5.5696   16.2651    6.0987 H   0  0  0  0  0  0  0  0  0  0  0  0
   15.7474   24.2902   -3.4940 C   0  0  0  0  0  0  0  0  0  0  0  0
   16.8452   26.6242   -2.4758 C   0  0  0  0  0  0  0  0  0  0  0  0
   16.3513   26.5856   -3.9154 C   0  0  0  0  0  0  0  0  0  0  0  0
   16.3616   27.7184   -4.6758 C   0  0  0  0  0  0  0  0  0  0  0  0
   15.9532   27.6288   -5.9924 C   0  0  0  0  0  0  0  0  0  0  0  0
   15.5487   26.4383   -6.5099 C   0  0  0  0  0  0  0  0  0  0  0  0
   15.5604   25.3242   -5.7113 N   0  0  0  0  0  0  0  0  0  0  0  0
   15.9436   25.3811   -4.4387 C   0  0  0  0  0  0  0  0  0  0  0  0
 38 39  1  0  0  0
 39 40  2  0  0  0
 40 41  1  0  0  0
 41 42  2  0  0  0
 42 43  1  0  0  0
 43 44  2  0  0  0
 44 37  1  0  0  0
 37  1  1  0  0  0
  1  2  1  0  0  0
  2  3  1  0  0  0
  3  4  1  0  0  0
  4  5  1  0  0  0
  5  6  1  0  0  0
  4  7  1  0  0  0
  7  8  1  0  0  0
  8  9  2  0  0  0
  8 10  1  0  0  0
 10 11  1  0  0  0
 11 12  2  0  0  0
 10 20  1  0  0  0
 20 21  2  0  0  0
 21 22  1  0  0  0
 22 23  2  0  0  0
 23 24  1  0  0  0
 24 25  2  0  0  0
 23 26  1  0  0  0
 26 27  2  0  0  0
 27 28  1  0  0  0
 28 29  2  0  0  0
 29 30  1  0  0  0
 30 31  2  0  0  0
 31 32  1  0  0  0
 29 33  1  0  0  0
 33 34  1  0  0  0
 33 35  2  0  0  0
  7 13  1  0  0  0
 13 14  2  0  0  0
 14 15  1  0  0  0
 15 16  2  0  0  0
 16 17  1  0  0  0
 17 18  2  0  0  0
 18 19  1  0  0  0
 44 39  1  0  0  0
  6  1  1  0  0  0
 25 20  1  0  0  0
 31 26  1  0  0  0
 18 13  1  0  0  0
 11  4  1  0  0  0
 34 36  1  0  0  0
M  END
> <minimizedAffinity>
-5.77831

> <CNNscore>
0.2353858054

> <CNNaffinity>
7.8141770363

> <CNN_VS>
1.8393464088

> <CNNaffinity_variance>
0.0438325889

$$$$
[H]OC(=O)c1c([H])c([H])c(-c2c([H])c([H])c(N3C(=O)N(c4nc([H])c([H])nc4C([H])([H])[H])C4(C3=O)C([H])([H])C([H])([H])N(C([H])([H])c3nc([H])c([H])c([H])c3C([H])([H])[H])C([H])([H])C4([H])[H])c([H])c2[H])c(C([H])([H])[H])c1[H]


 44 49  0  0  0  0  0  0  0  0999 V2000
    6.1226   20.0046    0.5319 N   0  0  0  0  0  0  0  0  0  0  0  0
    7.3621   19.4835    0.6936 C   0  0  0  0  0  0  0  0  0  0  0  0
    8.5290   20.2954    0.1944 C   0  0  0  0  0  0  0  0  0  0  0  0
    8.3380   21.7631    0.4214 C   0  0  0  0  0  0  0  0  0  0  0  0
    7.0630   22.1295   -0.2794 C   0  0  0  0  0  0  0  0  0  0  0  0
    5.8853   21.3087    0.0405 C   0  0  0  0  0  0  0  0  0  0  0  0
    8.4890   22.1606    1.7727 N   0  0  0  0  0  0  0  0  0  0  0  0
    9.8259   22.6651    1.9346 C   0  0  0  0  0  0  0  0  0  0  0  0
   10.4506   22.8885    3.0300 O   0  0  0  0  0  0  0  0  0  0  0  0
   10.4179   22.9143    0.6365 N   0  0  0  0  0  0  0  0  0  0  0  0
    9.4283   22.5246   -0.2899 C   0  0  0  0  0  0  0  0  0  0  0  0
    9.4879   22.7932   -1.5185 O   0  0  0  0  0  0  0  0  0  0  0  0
    7.6337   22.1849    2.9216 C   0  0  0  0  0  0  0  0  0  0  0  0
    7.3975   21.0753    3.6031 N   0  0  0  0  0  0  0  0  0  0  0  0
    6.6360   21.0549    4.6969 C   0  0  0  0  0  0  0  0  0  0  0  0
    6.0649   22.2170    5.1486 C   0  0  0  0  0  0  0  0  0  0  0  0
    6.3195   23.3172    4.4427 N   0  0  0  0  0  0  0  0  0  0  0  0
    7.0764   23.3734    3.3489 C   0  0  0  0  0  0  0  0  0  0  0  0
    7.3139   24.6757    2.6258 C   0  0  0  0  0  0  0  0  0  0  0  0
   11.6843   23.5755    0.5137 C   0  0  0  0  0  0  0  0  0  0  0  0
   12.6945   22.6153    0.2358 C   0  0  0  0  0  0  0  0  0  0  0  0
   13.9809   22.9789    0.0262 C   0  0  0  0  0  0  0  0  0  0  0  0
   14.3442   24.3695    0.0893 C   0  0  0  0  0  0  0  0  0  0  0  0
   13.3775   25.2518    0.3582 C   0  0  0  0  0  0  0  0  0  0  0  0
   12.0260   24.8602    0.5762 C   0  0  0  0  0  0  0  0  0  0  0  0
   15.7798   24.5610   -0.0793 C   0  0  0  0  0  0  0  0  0  0  0  0
   16.5711   23.8950    0.8810 C   0  0  0  0  0  0  0  0  0  0  0  0
   17.9193   23.8530    0.7443 C   0  0  0  0  0  0  0  0  0  0  0  0
   18.5495   24.4529   -0.3257 C   0  0  0  0  0  0  0  0  0  0  0  0
   17.8009   25.1104   -1.2636 C   0  0  0  0  0  0  0  0  0  0  0  0
   16.4031   25.1579   -1.1248 C   0  0  0  0  0  0  0  0  0  0  0  0
   15.6355   25.9176   -2.1223 C   0  0  0  0  0  0  0  0  0  0  0  0
   19.9953   24.3289   -0.3712 C   0  0  0  0  0  0  0  0  0  0  0  0
   20.7582   25.2811   -1.0084 O   0  0  0  0  0  0  0  0  0  0  0  0
   20.5722   23.3135    0.1718 O   0  0  0  0  0  0  0  0  0  0  0  0
   20.5212   25.4247   -2.0300 H   0  0  0  0  0  0  0  0  0  0  0  0
    4.9453   19.5476    1.1739 C   0  0  0  0  0  0  0  0  0  0  0  0
    3.9625   17.6126   -0.5523 C   0  0  0  0  0  0  0  0  0  0  0  0
    4.3395   17.2338    0.8734 C   0  0  0  0  0  0  0  0  0  0  0  0
    4.1093   15.9695    1.3319 C   0  0  0  0  0  0  0  0  0  0  0  0
    4.5131   15.6530    2.6145 C   0  0  0  0  0  0  0  0  0  0  0  0
    5.1210   16.5845    3.3963 C   0  0  0  0  0  0  0  0  0  0  0  0
    5.3379   17.8408    2.8925 N   0  0  0  0  0  0  0  0  0  0  0  0
    4.9555   18.1759    1.6632 C   0  0  0  0  0  0  0  0  0  0  0  0
 38 39  1  0  0  0
 39 40  2  0  0  0
 40 41  1  0  0  0
 41 42  2  0  0  0
 42 43  1  0  0  0
 43 44  2  0  0  0
 44 37  1  0  0  0
 37  1  1  0  0  0
  1  2  1  0  0  0
  2  3  1  0  0  0
  3  4  1  0  0  0
  4  5  1  0  0  0
  5  6  1  0  0  0
  4  7  1  0  0  0
  7  8  1  0  0  0
  8  9  2  0  0  0
  8 10  1  0  0  0
 10 11  1  0  0  0
 11 12  2  0  0  0
 10 20  1  0  0  0
 20 21  2  0  0  0
 21 22  1  0  0  0
 22 23  2  0  0  0
 23 24  1  0  0  0
 24 25  2  0  0  0
 23 26  1  0  0  0
 26 27  2  0  0  0
 27 28  1  0  0  0
 28 29  2  0  0  0
 29 30  1  0  0  0
 30 31  2  0  0  0
 31 32  1  0  0  0
 29 33  1  0  0  0
 33 34  1  0  0  0
 33 35  2  0  0  0
  7 13  1  0  0  0
 13 14  2  0  0  0
 14 15  1  0  0  0
 15 16  2  0  0  0
 16 17  1  0  0  0
 17 18  2  0  0  0
 18 19  1  0  0  0
 44 39  1  0  0  0
  6  1  1  0  0  0
 25 20  1  0  0  0
 31 26  1  0  0  0
 18 13  1  0  0  0
 11  4  1  0  0  0
 34 36  1  0  0  0
M  END
> <minimizedAffinity>
10.67614

> <CNNscore>
0.2141159773

> <CNNaffinity>
6.6567230225

> <CNN_VS>
1.4253107309

> <CNNaffinity_variance>
0.3764827847

$$$$
[H]OC(=O)c1c([H])c([H])c(-c2c([H])c([H])c(N3C(=O)N(c4nc([H])c([H])nc4C([H])([H])[H])C4(C3=O)C([H])([H])C([H])([H])N(C([H])([H])c3nc([H])c([H])c([H])c3C([H])([H])[H])C([H])([H])C4([H])[H])c([H])c2[H])c(C([H])([H])[H])c1[H]


 44 49  0  0  0  0  0  0  0  0999 V2000
    8.4216   19.7158    4.7148 N   0  0  0  0  0  0  0  0  0  0  0  0
    9.7265   19.9702    4.9724 C   0  0  0  0  0  0  0  0  0  0  0  0
   10.6332   20.2174    3.7948 C   0  0  0  0  0  0  0  0  0  0  0  0
    9.9558   20.9971    2.7106 C   0  0  0  0  0  0  0  0  0  0  0  0
    8.7428   20.2035    2.3238 C   0  0  0  0  0  0  0  0  0  0  0  0
    7.8541   19.7958    3.4224 C   0  0  0  0  0  0  0  0  0  0  0  0
    9.7807   22.3700    3.0130 N   0  0  0  0  0  0  0  0  0  0  0  0
   10.8512   23.0972    2.3860 C   0  0  0  0  0  0  0  0  0  0  0  0
   11.2115   24.3058    2.6084 O   0  0  0  0  0  0  0  0  0  0  0  0
   11.5102   22.2562    1.4081 N   0  0  0  0  0  0  0  0  0  0  0  0
   10.8366   21.0195    1.4866 C   0  0  0  0  0  0  0  0  0  0  0  0
   10.9804   20.0995    0.6391 O   0  0  0  0  0  0  0  0  0  0  0  0
    8.8090   23.1291    3.7420 C   0  0  0  0  0  0  0  0  0  0  0  0
    7.7060   23.5523    3.1455 N   0  0  0  0  0  0  0  0  0  0  0  0
    6.7586   24.2326    3.7907 C   0  0  0  0  0  0  0  0  0  0  0  0
    6.9146   24.5168    5.1231 C   0  0  0  0  0  0  0  0  0  0  0  0
    8.0341   24.0792    5.6965 N   0  0  0  0  0  0  0  0  0  0  0  0
    8.9981   23.3957    5.0833 C   0  0  0  0  0  0  0  0  0  0  0  0
   10.2262   22.9332    5.8270 C   0  0  0  0  0  0  0  0  0  0  0  0
   12.5049   22.7881    0.5229 C   0  0  0  0  0  0  0  0  0  0  0  0
   11.9086   23.7517   -0.3347 C   0  0  0  0  0  0  0  0  0  0  0  0
   12.6379   24.4438   -1.2403 C   0  0  0  0  0  0  0  0  0  0  0  0
   14.0518   24.2004   -1.3474 C   0  0  0  0  0  0  0  0  0  0  0  0
   14.5872   23.2853   -0.5342 C   0  0  0  0  0  0  0  0  0  0  0  0
   13.8122   22.5626    0.4168 C   0  0  0  0  0  0  0  0  0  0  0  0
   14.6528   24.9737   -2.4276 C   0  0  0  0  0  0  0  0  0  0  0  0
   13.7766   25.2543   -3.4978 C   0  0  0  0  0  0  0  0  0  0  0  0
   14.1556   26.1014   -4.4863 C   0  0  0  0  0  0  0  0  0  0  0  0
   15.3945   26.7071   -4.4743 C   0  0  0  0  0  0  0  0  0  0  0  0
   16.2617   26.4421   -3.4496 C   0  0  0  0  0  0  0  0  0  0  0  0
   15.8736   25.5632   -2.4239 C   0  0  0  0  0  0  0  0  0  0  0  0
   16.8501   25.2607   -1.3673 C   0  0  0  0  0  0  0  0  0  0  0  0
   15.6811   27.6045   -5.5790 C   0  0  0  0  0  0  0  0  0  0  0  0
   15.7688   28.9623   -5.3710 O   0  0  0  0  0  0  0  0  0  0  0  0
   15.8379   27.1337   -6.7675 O   0  0  0  0  0  0  0  0  0  0  0  0
   14.9001   29.4017   -4.9552 H   0  0  0  0  0  0  0  0  0  0  0  0
    7.3723   19.7424    5.6662 C   0  0  0  0  0  0  0  0  0  0  0  0
    6.7205   17.0492    5.7754 C   0  0  0  0  0  0  0  0  0  0  0  0
    5.7690   18.0315    5.1061 C   0  0  0  0  0  0  0  0  0  0  0  0
    4.6440   17.5800    4.4801 C   0  0  0  0  0  0  0  0  0  0  0  0
    3.7815   18.5084    3.9302 C   0  0  0  0  0  0  0  0  0  0  0  0
    4.0552   19.8377    4.0115 C   0  0  0  0  0  0  0  0  0  0  0  0
    5.1942   20.2470    4.6553 N   0  0  0  0  0  0  0  0  0  0  0  0
    6.0456   19.3759    5.1898 C   0  0  0  0  0  0  0  0  0  0  0  0
 38 39  1  0  0  0
 39 40  2  0  0  0
 40 41  1  0  0  0
 41 42  2  0  0  0
 42 43  1  0  0  0
 43 44  2  0  0  0
 44 37  1  0  0  0
 37  1  1  0  0  0
  1  2  1  0  0  0
  2  3  1  0  0  0
  3  4  1  0  0  0
  4  5  1  0  0  0
  5  6  1  0  0  0
  4  7  1  0  0  0
  7  8  1  0  0  0
  8  9  2  0  0  0
  8 10  1  0  0  0
 10 11  1  0  0  0
 11 12  2  0  0  0
 10 20  1  0  0  0
 20 21  2  0  0  0
 21 22  1  0  0  0
 22 23  2  0  0  0
 23 24  1  0  0  0
 24 25  2  0  0  0
 23 26  1  0  0  0
 26 27  2  0  0  0
 27 28  1  0  0  0
 28 29  2  0  0  0
 29 30  1  0  0  0
 30 31  2  0  0  0
 31 32  1  0  0  0
 29 33  1  0  0  0
 33 34  1  0  0  0
 33 35  2  0  0  0
  7 13  1  0  0  0
 13 14  2  0  0  0
 14 15  1  0  0  0
 15 16  2  0  0  0
 16 17  1  0  0  0
 17 18  2  0  0  0
 18 19  1  0  0  0
 44 39  1  0  0  0
  6  1  1  0  0  0
 25 20  1  0  0  0
 31 26  1  0  0  0
 18 13  1  0  0  0
 11  4  1  0  0  0
 34 36  1  0  0  0
M  END
> <minimizedAffinity>
-5.83139

> <CNNscore>
0.2112313062

> <CNNaffinity>
7.2566504478

> <CNN_VS>
1.5328317881

> <CNNaffinity_variance>
0.2243217528

$$$$
[H]c1nc([H])c(-c2c([H])c([H])c(N3C(=O)N(c4nc([H])n([H])c(=O)c4[H])C4(C3=O)C([H])([H])C([H])([H])N(C([H])([H])c3nc([H])c([H])c([H])c3C([H])([H])[H])C([H])([H])C4([H])[H])c([H])c2[H])c([H])n1


 40 45  0  0  0  0  0  0  0  0999 V2000
   16.2316   26.1984   -3.7606 N   0  0  0  0  0  0  0  0  0  0  0  0
   15.3183   25.1098   -3.8538 C   0  0  0  0  0  0  0  0  0  0  0  0
   15.4941   24.1944   -2.6539 C   0  0  0  0  0  0  0  0  0  0  0  0
   15.4576   24.9497   -1.3602 C   0  0  0  0  0  0  0  0  0  0  0  0
   16.0215   26.3212   -1.3921 C   0  0  0  0  0  0  0  0  0  0  0  0
   15.8337   27.0439   -2.6823 C   0  0  0  0  0  0  0  0  0  0  0  0
   16.0755   24.1472   -0.3045 N   0  0  0  0  0  0  0  0  0  0  0  0
   15.0106   23.3113    0.1925 C   0  0  0  0  0  0  0  0  0  0  0  0
   15.2167   22.2703    0.8709 O   0  0  0  0  0  0  0  0  0  0  0  0
   13.7384   23.8627   -0.2127 N   0  0  0  0  0  0  0  0  0  0  0  0
   14.0228   25.0331   -0.9573 C   0  0  0  0  0  0  0  0  0  0  0  0
   13.2377   25.9507   -1.2253 O   0  0  0  0  0  0  0  0  0  0  0  0
   17.4077   24.1389    0.1823 C   0  0  0  0  0  0  0  0  0  0  0  0
   17.7383   24.4155    1.4879 C   0  0  0  0  0  0  0  0  0  0  0  0
   19.0530   24.3978    1.9325 C   0  0  0  0  0  0  0  0  0  0  0  0
   19.3378   24.6568    3.1448 O   0  0  0  0  0  0  0  0  0  0  0  0
   20.0436   24.1037    1.0734 N   0  0  0  0  0  0  0  0  0  0  0  0
   19.7168   23.8346   -0.1980 C   0  0  0  0  0  0  0  0  0  0  0  0
   18.4609   23.8473   -0.6400 N   0  0  0  0  0  0  0  0  0  0  0  0
   21.0547   24.0869    1.3901 H   0  0  0  0  0  0  0  0  0  0  0  0
   12.4896   23.2893    0.1047 C   0  0  0  0  0  0  0  0  0  0  0  0
   12.2212   21.9646   -0.1693 C   0  0  0  0  0  0  0  0  0  0  0  0
   10.9876   21.4007    0.1433 C   0  0  0  0  0  0  0  0  0  0  0  0
   10.0108   22.1505    0.7307 C   0  0  0  0  0  0  0  0  0  0  0  0
   10.2607   23.4681    1.0099 C   0  0  0  0  0  0  0  0  0  0  0  0
   11.4880   24.0291    0.6986 C   0  0  0  0  0  0  0  0  0  0  0  0
    8.7280   21.5369    1.0480 C   0  0  0  0  0  0  0  0  0  0  0  0
    8.3151   21.3072    2.3418 C   0  0  0  0  0  0  0  0  0  0  0  0
    7.1095   20.7317    2.5651 N   0  0  0  0  0  0  0  0  0  0  0  0
    6.2805   20.3664    1.5766 C   0  0  0  0  0  0  0  0  0  0  0  0
    6.6695   20.5848    0.3097 N   0  0  0  0  0  0  0  0  0  0  0  0
    7.8662   21.1571    0.0407 C   0  0  0  0  0  0  0  0  0  0  0  0
   16.6361   26.8218   -4.9604 C   0  0  0  0  0  0  0  0  0  0  0  0
   13.8446   27.3498   -5.3099 C   0  0  0  0  0  0  0  0  0  0  0  0
   14.6519   26.6489   -6.3708 C   0  0  0  0  0  0  0  0  0  0  0  0
   14.0324   26.2476   -7.5386 C   0  0  0  0  0  0  0  0  0  0  0  0
   14.7357   25.6065   -8.5320 C   0  0  0  0  0  0  0  0  0  0  0  0
   16.0888   25.3770   -8.3206 C   0  0  0  0  0  0  0  0  0  0  0  0
   16.6694   25.7807   -7.1683 N   0  0  0  0  0  0  0  0  0  0  0  0
   15.9953   26.4040   -6.1975 C   0  0  0  0  0  0  0  0  0  0  0  0
 34 35  1  0  0  0
 35 36  2  0  0  0
 36 37  1  0  0  0
 37 38  2  0  0  0
 38 39  1  0  0  0
 39 40  2  0  0  0
 40 33  1  0  0  0
 33  1  1  0  0  0
  1  2  1  0  0  0
  2  3  1  0  0  0
  3  4  1  0  0  0
  4  5  1  0  0  0
  5  6  1  0  0  0
  4  7  1  0  0  0
  7  8  1  0  0  0
  8  9  2  0  0  0
  8 10  1  0  0  0
 10 11  1  0  0  0
 11 12  2  0  0  0
 10 21  1  0  0  0
 21 22  2  0  0  0
 22 23  1  0  0  0
 23 24  2  0  0  0
 24 25  1  0  0  0
 25 26  2  0  0  0
 24 27  1  0  0  0
 27 28  2  0  0  0
 28 29  1  0  0  0
 29 30  2  0  0  0
 30 31  1  0  0  0
 31 32  2  0  0  0
  7 13  1  0  0  0
 13 14  2  0  0  0
 14 15  1  0  0  0
 15 16  2  0  0  0
 15 17  1  0  0  0
 17 18  1  0  0  0
 18 19  2  0  0  0
 40 35  1  0  0  0
  6  1  1  0  0  0
 26 21  1  0  0  0
 32 27  1  0  0  0
 19 13  1  0  0  0
 11  4  1  0  0  0
 17 20  1  0  0  0
M  END
> <minimizedAffinity>
10.83882

> <CNNscore>
0.5367511511

> <CNNaffinity>
8.1063776016

> <CNN_VS>
4.3511075974

> <CNNaffinity_variance>
1.1644470692

$$$$
[H]c1nc([H])c(-c2c([H])c([H])c(N3C(=O)N(c4nc([H])n([H])c(=O)c4[H])C4(C3=O)C([H])([H])C([H])([H])N(C([H])([H])c3nc([H])c([H])c([H])c3C([H])([H])[H])C([H])([H])C4([H])[H])c([H])c2[H])c([H])n1


 40 45  0  0  0  0  0  0  0  0999 V2000
   14.1482   25.5465   -3.9937 N   0  0  0  0  0  0  0  0  0  0  0  0
   13.6911   24.2005   -4.0789 C   0  0  0  0  0  0  0  0  0  0  0  0
   13.8139   23.5347   -2.7187 C   0  0  0  0  0  0  0  0  0  0  0  0
   13.1866   24.3546   -1.6325 C   0  0  0  0  0  0  0  0  0  0  0  0
   13.2705   25.8262   -1.7980 C   0  0  0  0  0  0  0  0  0  0  0  0
   13.2229   26.2995   -3.2108 C   0  0  0  0  0  0  0  0  0  0  0  0
   13.7141   23.9366   -0.3336 N   0  0  0  0  0  0  0  0  0  0  0  0
   12.8776   22.8312    0.0642 C   0  0  0  0  0  0  0  0  0  0  0  0
   13.2106   22.0066    0.9562 O   0  0  0  0  0  0  0  0  0  0  0  0
   11.6582   22.8489   -0.7100 N   0  0  0  0  0  0  0  0  0  0  0  0
   11.7474   23.9617   -1.5811 C   0  0  0  0  0  0  0  0  0  0  0  0
   10.8161   24.5070   -2.1855 O   0  0  0  0  0  0  0  0  0  0  0  0
   14.7928   24.4530    0.4290 C   0  0  0  0  0  0  0  0  0  0  0  0
   16.0538   23.9053    0.4242 C   0  0  0  0  0  0  0  0  0  0  0  0
   17.0884   24.4362    1.1820 C   0  0  0  0  0  0  0  0  0  0  0  0
   18.2482   23.9143    1.1636 O   0  0  0  0  0  0  0  0  0  0  0  0
   16.8667   25.5174    1.9487 N   0  0  0  0  0  0  0  0  0  0  0  0
   15.6362   26.0480    1.9501 C   0  0  0  0  0  0  0  0  0  0  0  0
   14.6335   25.5508    1.2290 N   0  0  0  0  0  0  0  0  0  0  0  0
   17.6409   25.9380    2.5374 H   0  0  0  0  0  0  0  0  0  0  0  0
   10.6204   21.9035   -0.5747 C   0  0  0  0  0  0  0  0  0  0  0  0
    9.2970   22.2915   -0.5660 C   0  0  0  0  0  0  0  0  0  0  0  0
    8.2741   21.3572   -0.4308 C   0  0  0  0  0  0  0  0  0  0  0  0
    8.5597   20.0293   -0.3029 C   0  0  0  0  0  0  0  0  0  0  0  0
    9.8690   19.6266   -0.3095 C   0  0  0  0  0  0  0  0  0  0  0  0
   10.8867   20.5563   -0.4438 C   0  0  0  0  0  0  0  0  0  0  0  0
    7.4710   19.0712   -0.1628 C   0  0  0  0  0  0  0  0  0  0  0  0
    6.4653   19.2214    0.7663 C   0  0  0  0  0  0  0  0  0  0  0  0
    5.4835   18.2916    0.8428 N   0  0  0  0  0  0  0  0  0  0  0  0
    5.4364   17.2123    0.0485 C   0  0  0  0  0  0  0  0  0  0  0  0
    6.4101   17.0529   -0.8628 N   0  0  0  0  0  0  0  0  0  0  0  0
    7.4108   17.9575   -0.9737 C   0  0  0  0  0  0  0  0  0  0  0  0
   14.6450   26.1479   -5.1697 C   0  0  0  0  0  0  0  0  0  0  0  0
   16.6363   25.8590   -3.1340 C   0  0  0  0  0  0  0  0  0  0  0  0
   16.6173   27.0524   -4.0525 C   0  0  0  0  0  0  0  0  0  0  0  0
   17.5797   28.0332   -3.9089 C   0  0  0  0  0  0  0  0  0  0  0  0
   17.5972   29.1371   -4.7295 C   0  0  0  0  0  0  0  0  0  0  0  0
   16.6149   29.2316   -5.7065 C   0  0  0  0  0  0  0  0  0  0  0  0
   15.6853   28.2570   -5.8248 N   0  0  0  0  0  0  0  0  0  0  0  0
   15.6596   27.1810   -5.0329 C   0  0  0  0  0  0  0  0  0  0  0  0
 34 35  1  0  0  0
 35 36  2  0  0  0
 36 37  1  0  0  0
 37 38  2  0  0  0
 38 39  1  0  0  0
 39 40  2  0  0  0
 40 33  1  0  0  0
 33  1  1  0  0  0
  1  2  1  0  0  0
  2  3  1  0  0  0
  3  4  1  0  0  0
  4  5  1  0  0  0
  5  6  1  0  0  0
  4  7  1  0  0  0
  7  8  1  0  0  0
  8  9  2  0  0  0
  8 10  1  0  0  0
 10 11  1  0  0  0
 11 12  2  0  0  0
 10 21  1  0  0  0
 21 22  2  0  0  0
 22 23  1  0  0  0
 23 24  2  0  0  0
 24 25  1  0  0  0
 25 26  2  0  0  0
 24 27  1  0  0  0
 27 28  2  0  0  0
 28 29  1  0  0  0
 29 30  2  0  0  0
 30 31  1  0  0  0
 31 32  2  0  0  0
  7 13  1  0  0  0
 13 14  2  0  0  0
 14 15  1  0  0  0
 15 16  2  0  0  0
 15 17  1  0  0  0
 17 18  1  0  0  0
 18 19  2  0  0  0
 40 35  1  0  0  0
  6  1  1  0  0  0
 26 21  1  0  0  0
 32 27  1  0  0  0
 19 13  1  0  0  0
 11  4  1  0  0  0
 17 20  1  0  0  0
M  END
> <minimizedAffinity>
6.55243

> <CNNscore>
0.5247370601

> <CNNaffinity>
8.0047912598

> <CNN_VS>
4.2004108429

> <CNNaffinity_variance>
0.7235363722

$$$$
[H]c1nc([H])c(-c2c([H])c([H])c(N3C(=O)N(c4nc([H])n([H])c(=O)c4[H])C4(C3=O)C([H])([H])C([H])([H])N(C([H])([H])c3nc([H])c([H])c([H])c3C([H])([H])[H])C([H])([H])C4([H])[H])c([H])c2[H])c([H])n1


 40 45  0  0  0  0  0  0  0  0999 V2000
   10.9283   28.7603   -4.6269 N   0  0  0  0  0  0  0  0  0  0  0  0
   10.4467   27.4780   -4.2376 C   0  0  0  0  0  0  0  0  0  0  0  0
   11.5694   26.4596   -4.3429 C   0  0  0  0  0  0  0  0  0  0  0  0
   12.8108   26.9164   -3.6387 C   0  0  0  0  0  0  0  0  0  0  0  0
   13.0695   28.3768   -3.6587 C   0  0  0  0  0  0  0  0  0  0  0  0
   11.8460   29.2281   -3.6394 C   0  0  0  0  0  0  0  0  0  0  0  0
   13.9637   26.1672   -4.1385 N   0  0  0  0  0  0  0  0  0  0  0  0
   13.9945   24.9656   -3.3417 C   0  0  0  0  0  0  0  0  0  0  0  0
   14.6339   23.9348   -3.6811 O   0  0  0  0  0  0  0  0  0  0  0  0
   13.1991   25.1582   -2.1513 N   0  0  0  0  0  0  0  0  0  0  0  0
   12.6809   26.4743   -2.2189 C   0  0  0  0  0  0  0  0  0  0  0  0
   12.2102   27.1349   -1.2850 O   0  0  0  0  0  0  0  0  0  0  0  0
   14.8914   26.4848   -5.1633 C   0  0  0  0  0  0  0  0  0  0  0  0
   14.9267   25.8421   -6.3783 C   0  0  0  0  0  0  0  0  0  0  0  0
   15.8476   26.1783   -7.3609 C   0  0  0  0  0  0  0  0  0  0  0  0
   15.8637   25.5712   -8.4784 O   0  0  0  0  0  0  0  0  0  0  0  0
   16.7379   27.1588   -7.1330 N   0  0  0  0  0  0  0  0  0  0  0  0
   16.6996   27.7826   -5.9477 C   0  0  0  0  0  0  0  0  0  0  0  0
   15.8228   27.4721   -4.9951 N   0  0  0  0  0  0  0  0  0  0  0  0
   17.4516   27.4304   -7.8677 H   0  0  0  0  0  0  0  0  0  0  0  0
   13.0136   24.1771   -1.1554 C   0  0  0  0  0  0  0  0  0  0  0  0
   11.7700   23.9401   -0.6084 C   0  0  0  0  0  0  0  0  0  0  0  0
   11.5891   22.9723    0.3756 C   0  0  0  0  0  0  0  0  0  0  0  0
   12.6443   22.2326    0.8235 C   0  0  0  0  0  0  0  0  0  0  0  0
   13.8866   22.4549    0.2909 C   0  0  0  0  0  0  0  0  0  0  0  0
   14.0665   23.4180   -0.6880 C   0  0  0  0  0  0  0  0  0  0  0  0
   12.4289   21.2256    1.8542 C   0  0  0  0  0  0  0  0  0  0  0  0
   12.9980   19.9726    1.7979 C   0  0  0  0  0  0  0  0  0  0  0  0
   12.7548   19.0842    2.7909 N   0  0  0  0  0  0  0  0  0  0  0  0
   11.9754   19.3633    3.8456 C   0  0  0  0  0  0  0  0  0  0  0  0
   11.4140   20.5816    3.9144 N   0  0  0  0  0  0  0  0  0  0  0  0
   11.6299   21.5002    2.9441 C   0  0  0  0  0  0  0  0  0  0  0  0
    9.9937   29.6868   -5.1365 C   0  0  0  0  0  0  0  0  0  0  0  0
    8.2235   30.5379   -3.0545 C   0  0  0  0  0  0  0  0  0  0  0  0
    7.7407   29.6851   -4.1982 C   0  0  0  0  0  0  0  0  0  0  0  0
    6.4146   29.3006   -4.2437 C   0  0  0  0  0  0  0  0  0  0  0  0
    5.9349   28.5236   -5.2727 C   0  0  0  0  0  0  0  0  0  0  0  0
    6.8291   28.1395   -6.2632 C   0  0  0  0  0  0  0  0  0  0  0  0
    8.1215   28.5303   -6.1937 N   0  0  0  0  0  0  0  0  0  0  0  0
    8.5972   29.2848   -5.1987 C   0  0  0  0  0  0  0  0  0  0  0  0
 34 35  1  0  0  0
 35 36  2  0  0  0
 36 37  1  0  0  0
 37 38  2  0  0  0
 38 39  1  0  0  0
 39 40  2  0  0  0
 40 33  1  0  0  0
 33  1  1  0  0  0
  1  2  1  0  0  0
  2  3  1  0  0  0
  3  4  1  0  0  0
  4  5  1  0  0  0
  5  6  1  0  0  0
  4  7  1  0  0  0
  7  8  1  0  0  0
  8  9  2  0  0  0
  8 10  1  0  0  0
 10 11  1  0  0  0
 11 12  2  0  0  0
 10 21  1  0  0  0
 21 22  2  0  0  0
 22 23  1  0  0  0
 23 24  2  0  0  0
 24 25  1  0  0  0
 25 26  2  0  0  0
 24 27  1  0  0  0
 27 28  2  0  0  0
 28 29  1  0  0  0
 29 30  2  0  0  0
 30 31  1  0  0  0
 31 32  2  0  0  0
  7 13  1  0  0  0
 13 14  2  0  0  0
 14 15  1  0  0  0
 15 16  2  0  0  0
 15 17  1  0  0  0
 17 18  1  0  0  0
 18 19  2  0  0  0
 40 35  1  0  0  0
  6  1  1  0  0  0
 26 21  1  0  0  0
 32 27  1  0  0  0
 19 13  1  0  0  0
 11  4  1  0  0  0
 17 20  1  0  0  0
M  END
> <minimizedAffinity>
18.26768

> <CNNscore>
0.5077406168

> <CNNaffinity>
7.3628282547

> <CNN_VS>
3.7384068966

> <CNNaffinity_variance>
0.9164991379

$$$$
[H]c1nc([H])c(-c2c([H])c([H])c(N3C(=O)N(c4nc([H])n([H])c(=O)c4[H])C4(C3=O)C([H])([H])C([H])([H])N(C([H])([H])c3nc([H])c([H])c([H])c3C([H])([H])[H])C([H])([H])C4([H])[H])c([H])c2[H])c([H])n1


 40 45  0  0  0  0  0  0  0  0999 V2000
    7.9168   21.3893   -0.0835 N   0  0  0  0  0  0  0  0  0  0  0  0
    8.3407   22.7118   -0.3982 C   0  0  0  0  0  0  0  0  0  0  0  0
    9.5985   23.0431    0.3873 C   0  0  0  0  0  0  0  0  0  0  0  0
   10.6484   21.9839    0.2406 C   0  0  0  0  0  0  0  0  0  0  0  0
   10.1532   20.5929    0.0991 C   0  0  0  0  0  0  0  0  0  0  0  0
    8.8566   20.4622   -0.6248 C   0  0  0  0  0  0  0  0  0  0  0  0
   11.6142   22.0938    1.3339 N   0  0  0  0  0  0  0  0  0  0  0  0
   12.5777   23.0646    0.8768 C   0  0  0  0  0  0  0  0  0  0  0  0
   13.3691   23.6623    1.6532 O   0  0  0  0  0  0  0  0  0  0  0  0
   12.4679   23.2122   -0.5560 N   0  0  0  0  0  0  0  0  0  0  0  0
   11.4388   22.3349   -0.9760 C   0  0  0  0  0  0  0  0  0  0  0  0
   11.2302   21.9337   -2.1274 O   0  0  0  0  0  0  0  0  0  0  0  0
   11.6648   21.4278    2.5852 C   0  0  0  0  0  0  0  0  0  0  0  0
   12.0837   20.1267    2.7338 C   0  0  0  0  0  0  0  0  0  0  0  0
   12.1222   19.5043    3.9738 C   0  0  0  0  0  0  0  0  0  0  0  0
   12.5129   18.2995    4.0899 O   0  0  0  0  0  0  0  0  0  0  0  0
   11.7418   20.1801    5.0713 N   0  0  0  0  0  0  0  0  0  0  0  0
   11.3346   21.4480    4.9218 C   0  0  0  0  0  0  0  0  0  0  0  0
   11.2919   22.0592    3.7397 N   0  0  0  0  0  0  0  0  0  0  0  0
   11.7606   19.7243    6.0277 H   0  0  0  0  0  0  0  0  0  0  0  0
   13.2638   24.0860   -1.3254 C   0  0  0  0  0  0  0  0  0  0  0  0
   12.7038   25.1369   -2.0212 C   0  0  0  0  0  0  0  0  0  0  0  0
   13.4907   25.9974   -2.7813 C   0  0  0  0  0  0  0  0  0  0  0  0
   14.8413   25.8192   -2.8554 C   0  0  0  0  0  0  0  0  0  0  0  0
   15.4140   24.7804   -2.1704 C   0  0  0  0  0  0  0  0  0  0  0  0
   14.6309   23.9241   -1.4144 C   0  0  0  0  0  0  0  0  0  0  0  0
   15.6429   26.7337   -3.6578 C   0  0  0  0  0  0  0  0  0  0  0  0
   16.8679   27.2068   -3.2421 C   0  0  0  0  0  0  0  0  0  0  0  0
   17.5604   28.0558   -4.0384 N   0  0  0  0  0  0  0  0  0  0  0  0
   17.1098   28.4686   -5.2320 C   0  0  0  0  0  0  0  0  0  0  0  0
   15.9170   28.0150   -5.6508 N   0  0  0  0  0  0  0  0  0  0  0  0
   15.1911   27.1655   -4.8871 C   0  0  0  0  0  0  0  0  0  0  0  0
    6.5463   21.0859   -0.2298 C   0  0  0  0  0  0  0  0  0  0  0  0
    5.8087   20.2332   -2.8608 C   0  0  0  0  0  0  0  0  0  0  0  0
    5.8106   19.2787   -1.6957 C   0  0  0  0  0  0  0  0  0  0  0  0
    5.4449   17.9619   -1.8983 C   0  0  0  0  0  0  0  0  0  0  0  0
    5.4358   17.0592   -0.8603 C   0  0  0  0  0  0  0  0  0  0  0  0
    5.8067   17.5169    0.3972 C   0  0  0  0  0  0  0  0  0  0  0  0
    6.1602   18.8108    0.5668 N   0  0  0  0  0  0  0  0  0  0  0  0
    6.1723   19.6953   -0.4346 C   0  0  0  0  0  0  0  0  0  0  0  0
 34 35  1  0  0  0
 35 36  2  0  0  0
 36 37  1  0  0  0
 37 38  2  0  0  0
 38 39  1  0  0  0
 39 40  2  0  0  0
 40 33  1  0  0  0
 33  1  1  0  0  0
  1  2  1  0  0  0
  2  3  1  0  0  0
  3  4  1  0  0  0
  4  5  1  0  0  0
  5  6  1  0  0  0
  4  7  1  0  0  0
  7  8  1  0  0  0
  8  9  2  0  0  0
  8 10  1  0  0  0
 10 11  1  0  0  0
 11 12  2  0  0  0
 10 21  1  0  0  0
 21 22  2  0  0  0
 22 23  1  0  0  0
 23 24  2  0  0  0
 24 25  1  0  0  0
 25 26  2  0  0  0
 24 27  1  0  0  0
 27 28  2  0  0  0
 28 29  1  0  0  0
 29 30  2  0  0  0
 30 31  1  0  0  0
 31 32  2  0  0  0
  7 13  1  0  0  0
 13 14  2  0  0  0
 14 15  1  0  0  0
 15 16  2  0  0  0
 15 17  1  0  0  0
 17 18  1  0  0  0
 18 19  2  0  0  0
 40 35  1  0  0  0
  6  1  1  0  0  0
 26 21  1  0  0  0
 32 27  1  0  0  0
 19 13  1  0  0  0
 11  4  1  0  0  0
 17 20  1  0  0  0
M  END
> <minimizedAffinity>
-8.23173

> <CNNscore>
0.5037729740

> <CNNaffinity>
7.6753044128

> <CNN_VS>
3.8666110039

> <CNNaffinity_variance>
0.1445487887

$$$$
[H]c1nc([H])c(-c2c([H])c([H])c(N3C(=O)N(c4nc([H])n([H])c(=O)c4[H])C4(C3=O)C([H])([H])C([H])([H])N(C([H])([H])c3nc([H])c([H])c([H])c3C([H])([H])[H])C([H])([H])C4([H])[H])c([H])c2[H])c([H])n1


 40 45  0  0  0  0  0  0  0  0999 V2000
   15.6760   26.0752   -3.6888 N   0  0  0  0  0  0  0  0  0  0  0  0
   14.8604   24.9394   -3.9580 C   0  0  0  0  0  0  0  0  0  0  0  0
   14.9479   23.9637   -2.7965 C   0  0  0  0  0  0  0  0  0  0  0  0
   14.6961   24.6331   -1.4797 C   0  0  0  0  0  0  0  0  0  0  0  0
   15.1617   26.0367   -1.3643 C   0  0  0  0  0  0  0  0  0  0  0  0
   15.0872   26.8251   -2.6273 C   0  0  0  0  0  0  0  0  0  0  0  0
   15.2313   23.8068   -0.3975 N   0  0  0  0  0  0  0  0  0  0  0  0
   14.1737   22.8763   -0.0884 C   0  0  0  0  0  0  0  0  0  0  0  0
   14.3656   21.8100    0.5540 O   0  0  0  0  0  0  0  0  0  0  0  0
   12.9269   23.3708   -0.6248 N   0  0  0  0  0  0  0  0  0  0  0  0
   13.2197   24.6009   -1.2622 C   0  0  0  0  0  0  0  0  0  0  0  0
   12.4120   25.4823   -1.5800 O   0  0  0  0  0  0  0  0  0  0  0  0
   16.4889   23.8519    0.2567 C   0  0  0  0  0  0  0  0  0  0  0  0
   17.6767   24.0703   -0.4004 C   0  0  0  0  0  0  0  0  0  0  0  0
   18.8912   24.1095    0.2704 C   0  0  0  0  0  0  0  0  0  0  0  0
   19.9791   24.3129   -0.3562 O   0  0  0  0  0  0  0  0  0  0  0  0
   18.9236   23.9301    1.6019 N   0  0  0  0  0  0  0  0  0  0  0  0
   17.7636   23.7178    2.2382 C   0  0  0  0  0  0  0  0  0  0  0  0
   16.5907   23.6774    1.6094 N   0  0  0  0  0  0  0  0  0  0  0  0
   19.8396   23.9534    2.1343 H   0  0  0  0  0  0  0  0  0  0  0  0
   11.6916   22.7014   -0.5033 C   0  0  0  0  0  0  0  0  0  0  0  0
   11.3632   21.6510   -1.3346 C   0  0  0  0  0  0  0  0  0  0  0  0
   10.1428   20.9925   -1.2142 C   0  0  0  0  0  0  0  0  0  0  0  0
    9.2391   21.3738   -0.2659 C   0  0  0  0  0  0  0  0  0  0  0  0
    9.5493   22.4153    0.5682 C   0  0  0  0  0  0  0  0  0  0  0  0
   10.7634   23.0706    0.4482 C   0  0  0  0  0  0  0  0  0  0  0  0
    7.9687   20.6684   -0.1602 C   0  0  0  0  0  0  0  0  0  0  0  0
    7.7212   19.4832   -0.8168 C   0  0  0  0  0  0  0  0  0  0  0  0
    6.5166   18.8806   -0.6746 N   0  0  0  0  0  0  0  0  0  0  0  0
    5.5333   19.3846    0.0850 C   0  0  0  0  0  0  0  0  0  0  0  0
    5.7604   20.5396    0.7319 N   0  0  0  0  0  0  0  0  0  0  0  0
    6.9496   21.1759    0.6179 C   0  0  0  0  0  0  0  0  0  0  0  0
   16.1833   26.7964   -4.7907 C   0  0  0  0  0  0  0  0  0  0  0  0
   13.4725   27.2621   -5.5831 C   0  0  0  0  0  0  0  0  0  0  0  0
   14.4618   26.6063   -6.5102 C   0  0  0  0  0  0  0  0  0  0  0  0
   14.0531   26.2165   -7.7710 C   0  0  0  0  0  0  0  0  0  0  0  0
   14.9272   25.6164   -8.6475 C   0  0  0  0  0  0  0  0  0  0  0  0
   16.2336   25.4161   -8.2215 C   0  0  0  0  0  0  0  0  0  0  0  0
   16.6065   25.8076   -6.9823 N   0  0  0  0  0  0  0  0  0  0  0  0
   15.7653   26.3912   -6.1237 C   0  0  0  0  0  0  0  0  0  0  0  0
 34 35  1  0  0  0
 35 36  2  0  0  0
 36 37  1  0  0  0
 37 38  2  0  0  0
 38 39  1  0  0  0
 39 40  2  0  0  0
 40 33  1  0  0  0
 33  1  1  0  0  0
  1  2  1  0  0  0
  2  3  1  0  0  0
  3  4  1  0  0  0
  4  5  1  0  0  0
  5  6  1  0  0  0
  4  7  1  0  0  0
  7  8  1  0  0  0
  8  9  2  0  0  0
  8 10  1  0  0  0
 10 11  1  0  0  0
 11 12  2  0  0  0
 10 21  1  0  0  0
 21 22  2  0  0  0
 22 23  1  0  0  0
 23 24  2  0  0  0
 24 25  1  0  0  0
 25 26  2  0  0  0
 24 27  1  0  0  0
 27 28  2  0  0  0
 28 29  1  0  0  0
 29 30  2  0  0  0
 30 31  1  0  0  0
 31 32  2  0  0  0
  7 13  1  0  0  0
 13 14  2  0  0  0
 14 15  1  0  0  0
 15 16  2  0  0  0
 15 17  1  0  0  0
 17 18  1  0  0  0
 18 19  2  0  0  0
 40 35  1  0  0  0
  6  1  1  0  0  0
 26 21  1  0  0  0
 32 27  1  0  0  0
 19 13  1  0  0  0
 11  4  1  0  0  0
 17 20  1  0  0  0
M  END
> <minimizedAffinity>
11.02043

> <CNNscore>
0.4791249037

> <CNNaffinity>
8.0740756989

> <CNN_VS>
3.8684906960

> <CNNaffinity_variance>
1.2095367908

$$$$
[H]c1nc([H])c(-c2c([H])c([H])c(N3C(=O)N(c4nc([H])n([H])c(=O)c4[H])C4(C3=O)C([H])([H])C([H])([H])N(C([H])([H])c3nc([H])c([H])c([H])c3C([H])([H])[H])C([H])([H])C4([H])[H])c([H])c2[H])c([H])n1


 40 45  0  0  0  0  0  0  0  0999 V2000
   13.9053   25.6119   -5.0665 N   0  0  0  0  0  0  0  0  0  0  0  0
   13.1889   24.5241   -4.4910 C   0  0  0  0  0  0  0  0  0  0  0  0
   13.8842   24.0745   -3.2170 C   0  0  0  0  0  0  0  0  0  0  0  0
   14.1574   25.2206   -2.2910 C   0  0  0  0  0  0  0  0  0  0  0  0
   14.4639   26.5199   -2.9375 C   0  0  0  0  0  0  0  0  0  0  0  0
   13.7572   26.7572   -4.2285 C   0  0  0  0  0  0  0  0  0  0  0  0
   15.2008   24.8443   -1.3371 N   0  0  0  0  0  0  0  0  0  0  0  0
   14.4972   24.1881   -0.2628 C   0  0  0  0  0  0  0  0  0  0  0  0
   15.0697   23.4454    0.5781 O   0  0  0  0  0  0  0  0  0  0  0  0
   13.0940   24.5246   -0.3316 N   0  0  0  0  0  0  0  0  0  0  0  0
   12.9377   25.3841   -1.4461 C   0  0  0  0  0  0  0  0  0  0  0  0
   11.9780   26.1287   -1.6796 O   0  0  0  0  0  0  0  0  0  0  0  0
   16.6037   25.0483   -1.3824 C   0  0  0  0  0  0  0  0  0  0  0  0
   17.1885   26.1701   -1.9208 C   0  0  0  0  0  0  0  0  0  0  0  0
   18.5659   26.3392   -1.9486 C   0  0  0  0  0  0  0  0  0  0  0  0
   19.0873   27.3848   -2.4514 O   0  0  0  0  0  0  0  0  0  0  0  0
   19.3652   25.3870   -1.4383 N   0  0  0  0  0  0  0  0  0  0  0  0
   18.7908   24.2955   -0.9145 C   0  0  0  0  0  0  0  0  0  0  0  0
   17.4716   24.1183   -0.8801 N   0  0  0  0  0  0  0  0  0  0  0  0
   20.4194   25.4937   -1.4511 H   0  0  0  0  0  0  0  0  0  0  0  0
   12.1202   24.0481    0.5703 C   0  0  0  0  0  0  0  0  0  0  0  0
   12.1167   22.7343    0.9898 C   0  0  0  0  0  0  0  0  0  0  0  0
   11.1538   22.2654    1.8789 C   0  0  0  0  0  0  0  0  0  0  0  0
   10.1864   23.0998    2.3576 C   0  0  0  0  0  0  0  0  0  0  0  0
   10.1752   24.4079    1.9512 C   0  0  0  0  0  0  0  0  0  0  0  0
   11.1331   24.8743    1.0664 C   0  0  0  0  0  0  0  0  0  0  0  0
    9.1899   22.5846    3.2872 C   0  0  0  0  0  0  0  0  0  0  0  0
    8.0856   23.3133    3.6702 C   0  0  0  0  0  0  0  0  0  0  0  0
    7.1984   22.7731    4.5394 N   0  0  0  0  0  0  0  0  0  0  0  0
    7.3393   21.5443    5.0572 C   0  0  0  0  0  0  0  0  0  0  0  0
    8.4111   20.8216    4.6924 N   0  0  0  0  0  0  0  0  0  0  0  0
    9.3229   21.3224    3.8265 C   0  0  0  0  0  0  0  0  0  0  0  0
   13.7959   25.8075   -6.4599 C   0  0  0  0  0  0  0  0  0  0  0  0
   15.4808   28.0970   -6.1256 C   0  0  0  0  0  0  0  0  0  0  0  0
   15.8355   26.9924   -7.0860 C   0  0  0  0  0  0  0  0  0  0  0  0
   16.9982   27.0858   -7.8263 C   0  0  0  0  0  0  0  0  0  0  0  0
   17.3579   26.0967   -8.7123 C   0  0  0  0  0  0  0  0  0  0  0  0
   16.5125   25.0022   -8.8368 C   0  0  0  0  0  0  0  0  0  0  0  0
   15.3809   24.9367   -8.0998 N   0  0  0  0  0  0  0  0  0  0  0  0
   15.0227   25.8917   -7.2366 C   0  0  0  0  0  0  0  0  0  0  0  0
 34 35  1  0  0  0
 35 36  2  0  0  0
 36 37  1  0  0  0
 37 38  2  0  0  0
 38 39  1  0  0  0
 39 40  2  0  0  0
 40 33  1  0  0  0
 33  1  1  0  0  0
  1  2  1  0  0  0
  2  3  1  0  0  0
  3  4  1  0  0  0
  4  5  1  0  0  0
  5  6  1  0  0  0
  4  7  1  0  0  0
  7  8  1  0  0  0
  8  9  2  0  0  0
  8 10  1  0  0  0
 10 11  1  0  0  0
 11 12  2  0  0  0
 10 21  1  0  0  0
 21 22  2  0  0  0
 22 23  1  0  0  0
 23 24  2  0  0  0
 24 25  1  0  0  0
 25 26  2  0  0  0
 24 27  1  0  0  0
 27 28  2  0  0  0
 28 29  1  0  0  0
 29 30  2  0  0  0
 30 31  1  0  0  0
 31 32  2  0  0  0
  7 13  1  0  0  0
 13 14  2  0  0  0
 14 15  1  0  0  0
 15 16  2  0  0  0
 15 17  1  0  0  0
 17 18  1  0  0  0
 18 19  2  0  0  0
 40 35  1  0  0  0
  6  1  1  0  0  0
 26 21  1  0  0  0
 32 27  1  0  0  0
 19 13  1  0  0  0
 11  4  1  0  0  0
 17 20  1  0  0  0
M  END
> <minimizedAffinity>
24.86779

> <CNNscore>
0.4781765938

> <CNNaffinity>
7.4707207680

> <CNN_VS>
3.5723237991

> <CNNaffinity_variance>
0.8646017909

$$$$
[H]c1nc([H])c(-c2c([H])c([H])c(N3C(=O)N(c4nc([H])n([H])c(=O)c4[H])C4(C3=O)C([H])([H])C([H])([H])N(C([H])([H])c3nc([H])c([H])c([H])c3C([H])([H])[H])C([H])([H])C4([H])[H])c([H])c2[H])c([H])n1


 40 45  0  0  0  0  0  0  0  0999 V2000
   14.4891   25.6992   -4.0948 N   0  0  0  0  0  0  0  0  0  0  0  0
   13.6109   24.5833   -3.9879 C   0  0  0  0  0  0  0  0  0  0  0  0
   13.9604   23.7781   -2.7477 C   0  0  0  0  0  0  0  0  0  0  0  0
   14.0503   24.6395   -1.5248 C   0  0  0  0  0  0  0  0  0  0  0  0
   14.5567   26.0175   -1.7361 C   0  0  0  0  0  0  0  0  0  0  0  0
   14.1914   26.6227   -3.0486 C   0  0  0  0  0  0  0  0  0  0  0  0
   14.8174   23.9460   -0.4900 N   0  0  0  0  0  0  0  0  0  0  0  0
   13.8496   23.1280    0.1986 C   0  0  0  0  0  0  0  0  0  0  0  0
   14.1720   22.1541    0.9295 O   0  0  0  0  0  0  0  0  0  0  0  0
   12.5193   23.6097   -0.0931 N   0  0  0  0  0  0  0  0  0  0  0  0
   12.6712   24.7195   -0.9594 C   0  0  0  0  0  0  0  0  0  0  0  0
   11.8273   25.5903   -1.2041 O   0  0  0  0  0  0  0  0  0  0  0  0
   16.1972   24.0138   -0.1689 C   0  0  0  0  0  0  0  0  0  0  0  0
   17.1908   24.1079   -1.1146 C   0  0  0  0  0  0  0  0  0  0  0  0
   18.5328   24.1734   -0.7664 C   0  0  0  0  0  0  0  0  0  0  0  0
   19.4369   24.2600   -1.6569 O   0  0  0  0  0  0  0  0  0  0  0  0
   18.8877   24.1448    0.5294 N   0  0  0  0  0  0  0  0  0  0  0  0
   17.9160   24.0533    1.4477 C   0  0  0  0  0  0  0  0  0  0  0  0
   16.6246   23.9897    1.1301 N   0  0  0  0  0  0  0  0  0  0  0  0
   19.9062   24.1910    0.8183 H   0  0  0  0  0  0  0  0  0  0  0  0
   11.3384   23.0331    0.4186 C   0  0  0  0  0  0  0  0  0  0  0  0
   11.3362   21.7597    0.9482 C   0  0  0  0  0  0  0  0  0  0  0  0
   10.1693   21.1917    1.4515 C   0  0  0  0  0  0  0  0  0  0  0  0
    8.9951   21.8859    1.4316 C   0  0  0  0  0  0  0  0  0  0  0  0
    8.9794   23.1521    0.9091 C   0  0  0  0  0  0  0  0  0  0  0  0
   10.1404   23.7171    0.4083 C   0  0  0  0  0  0  0  0  0  0  0  0
    7.7874   21.2691    1.9645 C   0  0  0  0  0  0  0  0  0  0  0  0
    6.5250   21.7379    1.6750 C   0  0  0  0  0  0  0  0  0  0  0  0
    5.4448   21.1166    2.2055 N   0  0  0  0  0  0  0  0  0  0  0  0
    5.5391   20.0498    3.0124 C   0  0  0  0  0  0  0  0  0  0  0  0
    6.7638   19.5811    3.3030 N   0  0  0  0  0  0  0  0  0  0  0  0
    7.8708   20.1715    2.7950 C   0  0  0  0  0  0  0  0  0  0  0  0
   14.7259   26.2287   -5.3814 C   0  0  0  0  0  0  0  0  0  0  0  0
   16.7030   26.7489   -3.3780 C   0  0  0  0  0  0  0  0  0  0  0  0
   16.4736   27.7001   -4.5230 C   0  0  0  0  0  0  0  0  0  0  0  0
   17.2309   28.8524   -4.6085 C   0  0  0  0  0  0  0  0  0  0  0  0
   17.0527   29.7449   -5.6401 C   0  0  0  0  0  0  0  0  0  0  0  0
   16.0860   29.4479   -6.5917 C   0  0  0  0  0  0  0  0  0  0  0  0
   15.3593   28.3129   -6.4835 N   0  0  0  0  0  0  0  0  0  0  0  0
   15.5247   27.4397   -5.4856 C   0  0  0  0  0  0  0  0  0  0  0  0
 34 35  1  0  0  0
 35 36  2  0  0  0
 36 37  1  0  0  0
 37 38  2  0  0  0
 38 39  1  0  0  0
 39 40  2  0  0  0
 40 33  1  0  0  0
 33  1  1  0  0  0
  1  2  1  0  0  0
  2  3  1  0  0  0
  3  4  1  0  0  0
  4  5  1  0  0  0
  5  6  1  0  0  0
  4  7  1  0  0  0
  7  8  1  0  0  0
  8  9  2  0  0  0
  8 10  1  0  0  0
 10 11  1  0  0  0
 11 12  2  0  0  0
 10 21  1  0  0  0
 21 22  2  0  0  0
 22 23  1  0  0  0
 23 24  2  0  0  0
 24 25  1  0  0  0
 25 26  2  0  0  0
 24 27  1  0  0  0
 27 28  2  0  0  0
 28 29  1  0  0  0
 29 30  2  0  0  0
 30 31  1  0  0  0
 31 32  2  0  0  0
  7 13  1  0  0  0
 13 14  2  0  0  0
 14 15  1  0  0  0
 15 16  2  0  0  0
 15 17  1  0  0  0
 17 18  1  0  0  0
 18 19  2  0  0  0
 40 35  1  0  0  0
  6  1  1  0  0  0
 26 21  1  0  0  0
 32 27  1  0  0  0
 19 13  1  0  0  0
 11  4  1  0  0  0
 17 20  1  0  0  0
M  END
> <minimizedAffinity>
12.00768

> <CNNscore>
0.4731669426

> <CNNaffinity>
7.8406028748

> <CNN_VS>
3.7099142075

> <CNNaffinity_variance>
0.8212747574

$$$$
[H]c1nc([H])c(-c2c([H])c([H])c(N3C(=O)N(c4nc([H])n([H])c(=O)c4[H])C4(C3=O)C([H])([H])C([H])([H])N(C([H])([H])c3nc([H])c([H])c([H])c3C([H])([H])[H])C([H])([H])C4([H])[H])c([H])c2[H])c([H])n1


 40 45  0  0  0  0  0  0  0  0999 V2000
   15.0397   25.0945   -2.9485 N   0  0  0  0  0  0  0  0  0  0  0  0
   14.7032   23.7508   -2.6182 C   0  0  0  0  0  0  0  0  0  0  0  0
   14.0293   23.7152   -1.2568 C   0  0  0  0  0  0  0  0  0  0  0  0
   12.9019   24.6978   -1.1616 C   0  0  0  0  0  0  0  0  0  0  0  0
   13.0739   25.9602   -1.9211 C   0  0  0  0  0  0  0  0  0  0  0  0
   13.8383   25.8242   -3.1936 C   0  0  0  0  0  0  0  0  0  0  0  0
   12.5977   24.9627    0.2446 N   0  0  0  0  0  0  0  0  0  0  0  0
   11.6763   23.9201    0.6240 C   0  0  0  0  0  0  0  0  0  0  0  0
   11.4400   23.6180    1.8237 O   0  0  0  0  0  0  0  0  0  0  0  0
   11.1106   23.3236   -0.5638 N   0  0  0  0  0  0  0  0  0  0  0  0
   11.6847   23.9981   -1.6687 C   0  0  0  0  0  0  0  0  0  0  0  0
   11.2633   24.0089   -2.8316 O   0  0  0  0  0  0  0  0  0  0  0  0
   13.0573   25.9918    1.1057 C   0  0  0  0  0  0  0  0  0  0  0  0
   14.3866   26.2148    1.3766 C   0  0  0  0  0  0  0  0  0  0  0  0
   14.8032   27.2322    2.2240 C   0  0  0  0  0  0  0  0  0  0  0  0
   16.0382   27.4219    2.4617 O   0  0  0  0  0  0  0  0  0  0  0  0
   13.8922   28.0313    2.8048 N   0  0  0  0  0  0  0  0  0  0  0  0
   12.5977   27.8105    2.5377 C   0  0  0  0  0  0  0  0  0  0  0  0
   12.1820   26.8392    1.7274 N   0  0  0  0  0  0  0  0  0  0  0  0
   14.1872   28.8126    3.4571 H   0  0  0  0  0  0  0  0  0  0  0  0
   10.1732   22.2700   -0.5514 C   0  0  0  0  0  0  0  0  0  0  0  0
    9.1076   22.2720    0.3241 C   0  0  0  0  0  0  0  0  0  0  0  0
    8.1841   21.2305    0.3360 C   0  0  0  0  0  0  0  0  0  0  0  0
    8.3135   20.1786   -0.5230 C   0  0  0  0  0  0  0  0  0  0  0  0
    9.3662   20.1607   -1.3994 C   0  0  0  0  0  0  0  0  0  0  0  0
   10.2851   21.1969   -1.4110 C   0  0  0  0  0  0  0  0  0  0  0  0
    7.3336   19.1009   -0.4909 C   0  0  0  0  0  0  0  0  0  0  0  0
    7.3192   18.0831   -1.4189 C   0  0  0  0  0  0  0  0  0  0  0  0
    6.3787   17.1126   -1.3300 N   0  0  0  0  0  0  0  0  0  0  0  0
    5.4431   17.0881   -0.3698 C   0  0  0  0  0  0  0  0  0  0  0  0
    5.4452   18.0738    0.5426 N   0  0  0  0  0  0  0  0  0  0  0  0
    6.3666   19.0639    0.4916 C   0  0  0  0  0  0  0  0  0  0  0  0
   16.1192   25.3035   -3.8330 C   0  0  0  0  0  0  0  0  0  0  0  0
   16.2978   27.9972   -4.7844 C   0  0  0  0  0  0  0  0  0  0  0  0
   15.8938   26.8666   -5.6937 C   0  0  0  0  0  0  0  0  0  0  0  0
   15.5987   27.1337   -7.0167 C   0  0  0  0  0  0  0  0  0  0  0  0
   15.2279   26.1281   -7.8791 C   0  0  0  0  0  0  0  0  0  0  0  0
   15.1605   24.8363   -7.3743 C   0  0  0  0  0  0  0  0  0  0  0  0
   15.4548   24.6034   -6.0754 N   0  0  0  0  0  0  0  0  0  0  0  0
   15.8159   25.5729   -5.2298 C   0  0  0  0  0  0  0  0  0  0  0  0
 34 35  1  0  0  0
 35 36  2  0  0  0
 36 37  1  0  0  0
 37 38  2  0  0  0
 38 39  1  0  0  0
 39 40  2  0  0  0
 40 33  1  0  0  0
 33  1  1  0  0  0
  1  2  1  0  0  0
  2  3  1  0  0  0
  3  4  1  0  0  0
  4  5  1  0  0  0
  5  6  1  0  0  0
  4  7  1  0  0  0
  7  8  1  0  0  0
  8  9  2  0  0  0
  8 10  1  0  0  0
 10 11  1  0  0  0
 11 12  2  0  0  0
 10 21  1  0  0  0
 21 22  2  0  0  0
 22 23  1  0  0  0
 23 24  2  0  0  0
 24 25  1  0  0  0
 25 26  2  0  0  0
 24 27  1  0  0  0
 27 28  2  0  0  0
 28 29  1  0  0  0
 29 30  2  0  0  0
 30 31  1  0  0  0
 31 32  2  0  0  0
  7 13  1  0  0  0
 13 14  2  0  0  0
 14 15  1  0  0  0
 15 16  2  0  0  0
 15 17  1  0  0  0
 17 18  1  0  0  0
 18 19  2  0  0  0
 40 35  1  0  0  0
  6  1  1  0  0  0
 26 21  1  0  0  0
 32 27  1  0  0  0
 19 13  1  0  0  0
 11  4  1  0  0  0
 17 20  1  0  0  0
M  END
> <minimizedAffinity>
8.51690

> <CNNscore>
0.4573496878

> <CNNaffinity>
7.5829172134

> <CNN_VS>
3.4680447578

> <CNNaffinity_variance>
0.3889858127

$$$$
[H]c1nc([H])c(-c2c([H])c([H])c(N3C(=O)N(c4nc([H])n([H])c(=O)c4[H])C4(C3=O)C([H])([H])C([H])([H])N(C([H])([H])c3nc([H])c([H])c([H])c3C([H])([H])[H])C([H])([H])C4([H])[H])c([H])c2[H])c([H])n1


 40 45  0  0  0  0  0  0  0  0999 V2000
   13.1784   26.2190   -3.2865 N   0  0  0  0  0  0  0  0  0  0  0  0
   12.3628   25.0600   -3.1477 C   0  0  0  0  0  0  0  0  0  0  0  0
   12.9997   24.1065   -2.1508 C   0  0  0  0  0  0  0  0  0  0  0  0
   13.3589   24.7920   -0.8676 C   0  0  0  0  0  0  0  0  0  0  0  0
   13.7853   26.2078   -0.9842 C   0  0  0  0  0  0  0  0  0  0  0  0
   13.1190   26.9728   -2.0765 C   0  0  0  0  0  0  0  0  0  0  0  0
   14.3531   23.9969   -0.1467 N   0  0  0  0  0  0  0  0  0  0  0  0
   13.5811   23.0472    0.6161 C   0  0  0  0  0  0  0  0  0  0  0  0
   14.0759   21.9967    1.1041 O   0  0  0  0  0  0  0  0  0  0  0  0
   12.2134   23.5032    0.7076 N   0  0  0  0  0  0  0  0  0  0  0  0
   12.1469   24.7289    0.0015 C   0  0  0  0  0  0  0  0  0  0  0  0
   11.2585   25.5855    0.0848 O   0  0  0  0  0  0  0  0  0  0  0  0
   15.7688   24.0825   -0.1407 C   0  0  0  0  0  0  0  0  0  0  0  0
   16.5259   24.0237    1.0055 C   0  0  0  0  0  0  0  0  0  0  0  0
   17.9109   24.1097    0.9764 C   0  0  0  0  0  0  0  0  0  0  0  0
   18.5932   24.0532    2.0484 O   0  0  0  0  0  0  0  0  0  0  0  0
   18.5456   24.2552   -0.1992 N   0  0  0  0  0  0  0  0  0  0  0  0
   17.8037   24.3118   -1.3137 C   0  0  0  0  0  0  0  0  0  0  0  0
   16.4748   24.2307   -1.3027 N   0  0  0  0  0  0  0  0  0  0  0  0
   19.6019   24.3256   -0.2450 H   0  0  0  0  0  0  0  0  0  0  0  0
   11.1901   22.8072    1.3838 C   0  0  0  0  0  0  0  0  0  0  0  0
   11.3031   22.4931    2.7219 C   0  0  0  0  0  0  0  0  0  0  0  0
   10.2927   21.8048    3.3874 C   0  0  0  0  0  0  0  0  0  0  0  0
    9.1617   21.4231    2.7267 C   0  0  0  0  0  0  0  0  0  0  0  0
    9.0331   21.7271    1.3972 C   0  0  0  0  0  0  0  0  0  0  0  0
   10.0386   22.4117    0.7352 C   0  0  0  0  0  0  0  0  0  0  0  0
    8.1187   20.7036    3.4458 C   0  0  0  0  0  0  0  0  0  0  0  0
    8.3460   20.0748    4.6500 C   0  0  0  0  0  0  0  0  0  0  0  0
    7.3303   19.4229    5.2644 N   0  0  0  0  0  0  0  0  0  0  0  0
    6.0920   19.3549    4.7547 C   0  0  0  0  0  0  0  0  0  0  0  0
    5.8551   19.9639    3.5812 N   0  0  0  0  0  0  0  0  0  0  0  0
    6.8411   20.6266    2.9325 C   0  0  0  0  0  0  0  0  0  0  0  0
   13.1047   26.9332   -4.5015 C   0  0  0  0  0  0  0  0  0  0  0  0
   15.6052   28.1994   -3.9207 C   0  0  0  0  0  0  0  0  0  0  0  0
   15.4030   27.3968   -5.1790 C   0  0  0  0  0  0  0  0  0  0  0  0
   16.4456   27.2704   -6.0767 C   0  0  0  0  0  0  0  0  0  0  0  0
   16.3010   26.5441   -7.2360 C   0  0  0  0  0  0  0  0  0  0  0  0
   15.0718   25.9429   -7.4727 C   0  0  0  0  0  0  0  0  0  0  0  0
   14.0689   26.0829   -6.5769 N   0  0  0  0  0  0  0  0  0  0  0  0
   14.1992   26.7861   -5.4482 C   0  0  0  0  0  0  0  0  0  0  0  0
 34 35  1  0  0  0
 35 36  2  0  0  0
 36 37  1  0  0  0
 37 38  2  0  0  0
 38 39  1  0  0  0
 39 40  2  0  0  0
 40 33  1  0  0  0
 33  1  1  0  0  0
  1  2  1  0  0  0
  2  3  1  0  0  0
  3  4  1  0  0  0
  4  5  1  0  0  0
  5  6  1  0  0  0
  4  7  1  0  0  0
  7  8  1  0  0  0
  8  9  2  0  0  0
  8 10  1  0  0  0
 10 11  1  0  0  0
 11 12  2  0  0  0
 10 21  1  0  0  0
 21 22  2  0  0  0
 22 23  1  0  0  0
 23 24  2  0  0  0
 24 25  1  0  0  0
 25 26  2  0  0  0
 24 27  1  0  0  0
 27 28  2  0  0  0
 28 29  1  0  0  0
 29 30  2  0  0  0
 30 31  1  0  0  0
 31 32  2  0  0  0
  7 13  1  0  0  0
 13 14  2  0  0  0
 14 15  1  0  0  0
 15 16  2  0  0  0
 15 17  1  0  0  0
 17 18  1  0  0  0
 18 19  2  0  0  0
 40 35  1  0  0  0
  6  1  1  0  0  0
 26 21  1  0  0  0
 32 27  1  0  0  0
 19 13  1  0  0  0
 11  4  1  0  0  0
 17 20  1  0  0  0
M  END
> <minimizedAffinity>
6.02887

> <CNNscore>
0.4208244383

> <CNNaffinity>
7.7822480202

> <CNN_VS>
3.2749600410

> <CNNaffinity_variance>
0.8512431979

$$$$
[H]OC(=O)C([H])([H])N([H])C(=O)c1c(O[H])c2c([H])c(C([H])([H])N([H])C(=O)[C@@]([H])(N([H])C(=O)[C@@]([H])(N([H])C(=O)C([H])([H])[H])C([H])([H])c3c([H])c([H])c4c([H])c([H])c([H])c([H])c4c3[H])C([H])([H])c3c([H])c([H])c([H])c([H])c3[H])c([H])c([H])c2n(C([H])([H])[H])c1=O


 57 61  0  0  0  0  0  0  0  0999 V2000
   14.4766   24.3193   -2.5894 C   0  0  0  0  0  0  0  0  0  0  0  0
   14.2388   22.4934   -0.8366 C   0  0  0  0  0  0  0  0  0  0  0  0
   14.1156   23.2543    0.1468 O   0  0  0  0  0  0  0  0  0  0  0  0
   14.4147   22.9021   -2.1755 N   0  0  0  0  0  0  0  0  0  0  0  0
   14.5030   22.1404   -2.8918 H   0  0  0  0  0  0  0  0  0  0  0  0
   14.1849   21.0208   -0.4802 C   0  0  0  0  0  0  0  0  0  0  0  0
   16.7752   21.0992    2.3929 C   0  0  0  0  0  0  0  0  0  0  0  0
   16.0582   21.4386    1.1480 C   0  0  0  0  0  0  0  0  0  0  0  0
   16.4789   22.3851    0.4534 O   0  0  0  0  0  0  0  0  0  0  0  0
   14.9116   20.7294    0.7144 N   0  0  0  0  0  0  0  0  0  0  0  0
   14.5864   19.9314    1.3336 H   0  0  0  0  0  0  0  0  0  0  0  0
   12.7111   20.7241   -0.2973 C   0  0  0  0  0  0  0  0  0  0  0  0
   12.2492   20.9280    1.0912 C   0  0  0  0  0  0  0  0  0  0  0  0
   12.0868   22.1693    1.6610 C   0  0  0  0  0  0  0  0  0  0  0  0
   11.6487   22.3436    2.9577 C   0  0  0  0  0  0  0  0  0  0  0  0
   11.3560   21.2110    3.7277 C   0  0  0  0  0  0  0  0  0  0  0  0
   10.9149   21.3752    5.0249 C   0  0  0  0  0  0  0  0  0  0  0  0
   10.6293   20.2390    5.7662 C   0  0  0  0  0  0  0  0  0  0  0  0
   10.7876   18.9901    5.2081 C   0  0  0  0  0  0  0  0  0  0  0  0
   11.2238   18.8466    3.9280 C   0  0  0  0  0  0  0  0  0  0  0  0
   11.5098   19.9628    3.1826 C   0  0  0  0  0  0  0  0  0  0  0  0
   11.9523   19.8409    1.8780 C   0  0  0  0  0  0  0  0  0  0  0  0
   13.1372   24.8684   -2.3973 C   0  0  0  0  0  0  0  0  0  0  0  0
   12.7393   25.9533   -2.9252 O   0  0  0  0  0  0  0  0  0  0  0  0
   12.1494   24.2175   -1.5921 N   0  0  0  0  0  0  0  0  0  0  0  0
   12.3585   23.3074   -1.1345 H   0  0  0  0  0  0  0  0  0  0  0  0
   10.8184   24.7421   -1.3892 C   0  0  0  0  0  0  0  0  0  0  0  0
    9.9730   23.8654   -0.5265 C   0  0  0  0  0  0  0  0  0  0  0  0
    9.7323   24.2281    0.8001 C   0  0  0  0  0  0  0  0  0  0  0  0
    8.9591   23.4907    1.6566 C   0  0  0  0  0  0  0  0  0  0  0  0
    8.3938   22.3196    1.1516 C   0  0  0  0  0  0  0  0  0  0  0  0
    7.6349   21.6049    1.9898 N   0  0  0  0  0  0  0  0  0  0  0  0
    7.4172   22.0376    3.3647 C   0  0  0  0  0  0  0  0  0  0  0  0
    7.0638   20.4589    1.5265 C   0  0  0  0  0  0  0  0  0  0  0  0
    6.3536   19.8186    2.3619 O   0  0  0  0  0  0  0  0  0  0  0  0
    7.2161   19.9935    0.2641 C   0  0  0  0  0  0  0  0  0  0  0  0
    8.0247   20.7700   -0.5999 C   0  0  0  0  0  0  0  0  0  0  0  0
    8.2078   20.3400   -1.8827 O   0  0  0  0  0  0  0  0  0  0  0  0
    8.6097   21.9302   -0.1509 C   0  0  0  0  0  0  0  0  0  0  0  0
    9.4023   22.7120   -0.9809 C   0  0  0  0  0  0  0  0  0  0  0  0
    8.7250   20.7339   -2.6152 H   0  0  0  0  0  0  0  0  0  0  0  0
    6.6281   18.7984   -0.2894 C   0  0  0  0  0  0  0  0  0  0  0  0
    7.0784   18.3602   -1.4152 O   0  0  0  0  0  0  0  0  0  0  0  0
    5.5906   18.0711    0.3146 N   0  0  0  0  0  0  0  0  0  0  0  0
    5.1282   18.2806    1.2042 H   0  0  0  0  0  0  0  0  0  0  0  0
    5.1140   16.8702   -0.4136 C   0  0  0  0  0  0  0  0  0  0  0  0
    3.7196   17.0500   -0.8430 C   0  0  0  0  0  0  0  0  0  0  0  0
    2.8821   17.7434    0.0380 O   0  0  0  0  0  0  0  0  0  0  0  0
    3.2961   16.6166   -1.9225 O   0  0  0  0  0  0  0  0  0  0  0  0
    2.7537   17.3016    0.9463 H   0  0  0  0  0  0  0  0  0  0  0  0
   15.0923   24.3148   -3.9214 C   0  0  0  0  0  0  0  0  0  0  0  0
   15.5092   25.5591   -4.5497 C   0  0  0  0  0  0  0  0  0  0  0  0
   15.2081   25.8554   -5.8833 C   0  0  0  0  0  0  0  0  0  0  0  0
   15.5781   27.0606   -6.4414 C   0  0  0  0  0  0  0  0  0  0  0  0
   16.2535   28.0278   -5.7368 C   0  0  0  0  0  0  0  0  0  0  0  0
   16.5587   27.7530   -4.4200 C   0  0  0  0  0  0  0  0  0  0  0  0
   16.1846   26.5324   -3.8516 C   0  0  0  0  0  0  0  0  0  0  0  0
  7  8  1  0  0  0
  8  9  2  0  0  0
  8 10  1  0  0  0
 10  6  1  0  0  0
  6 12  1  0  0  0
 12 13  1  0  0  0
 13 14  2  0  0  0
 14 15  1  0  0  0
 15 16  2  0  0  0
 16 17  1  0  0  0
 17 18  2  0  0  0
 18 19  1  0  0  0
 19 20  2  0  0  0
 20 21  1  0  0  0
 21 22  2  0  0  0
  6  2  1  0  0  0
  2  3  2  0  0  0
  2  4  1  0  0  0
  4  1  1  0  0  0
  1 51  1  0  0  0
 51 52  1  0  0  0
 52 53  2  0  0  0
 53 54  1  0  0  0
 54 55  2  0  0  0
 55 56  1  0  0  0
 56 57  2  0  0  0
  1 23  1  0  0  0
 23 24  2  0  0  0
 23 25  1  0  0  0
 25 27  1  0  0  0
 27 28  1  0  0  0
 28 29  2  0  0  0
 29 30  1  0  0  0
 30 31  2  0  0  0
 31 32  1  0  0  0
 32 33  1  0  0  0
 32 34  1  0  0  0
 34 35  2  0  0  0
 34 36  1  0  0  0
 36 42  1  0  0  0
 42 43  2  0  0  0
 42 44  1  0  0  0
 44 46  1  0  0  0
 46 47  1  0  0  0
 47 48  1  0  0  0
 47 49  2  0  0  0
 36 37  2  0  0  0
 37 38  1  0  0  0
 37 39  1  0  0  0
 39 40  2  0  0  0
 22 13  1  0  0  0
 57 52  1  0  0  0
 40 28  1  0  0  0
 21 16  1  0  0  0
 39 31  1  0  0  0
 10 11  1  0  0  0
  4  5  1  0  0  0
 25 26  1  0  0  0
 44 45  1  0  0  0
 48 50  1  0  0  0
 38 41  1  0  0  0
M  END
> <minimizedAffinity>
-5.19230

> <CNNscore>
0.3089591861

> <CNNaffinity>
7.7792677879

> <CNN_VS>
2.4034762383

> <CNNaffinity_variance>
0.1974528432

$$$$
[H]OC(=O)C([H])([H])N([H])C(=O)c1c(O[H])c2c([H])c(C([H])([H])N([H])C(=O)[C@@]([H])(N([H])C(=O)[C@@]([H])(N([H])C(=O)C([H])([H])[H])C([H])([H])c3c([H])c([H])c4c([H])c([H])c([H])c([H])c4c3[H])C([H])([H])c3c([H])c([H])c([H])c([H])c3[H])c([H])c([H])c2n(C([H])([H])[H])c1=O


 57 61  0  0  0  0  0  0  0  0999 V2000
   12.4170   20.5738    1.3727 C   0  0  0  0  0  0  0  0  0  0  0  0
   10.1597   20.6350    0.2050 C   0  0  0  0  0  0  0  0  0  0  0  0
   10.0578   19.4027    0.0258 O   0  0  0  0  0  0  0  0  0  0  0  0
   11.2406   21.2879    0.8342 N   0  0  0  0  0  0  0  0  0  0  0  0
   11.1794   22.3327    0.9096 H   0  0  0  0  0  0  0  0  0  0  0  0
    8.9827   21.4290   -0.3267 C   0  0  0  0  0  0  0  0  0  0  0  0
    6.5745   19.1314   -2.2995 C   0  0  0  0  0  0  0  0  0  0  0  0
    7.2491   19.8156   -1.1789 C   0  0  0  0  0  0  0  0  0  0  0  0
    6.8776   19.5672   -0.0145 O   0  0  0  0  0  0  0  0  0  0  0  0
    8.3012   20.7424   -1.3776 N   0  0  0  0  0  0  0  0  0  0  0  0
    8.5870   20.9256   -2.3830 H   0  0  0  0  0  0  0  0  0  0  0  0
    8.0736   21.6153    0.8701 C   0  0  0  0  0  0  0  0  0  0  0  0
    8.3741   22.8412    1.6380 C   0  0  0  0  0  0  0  0  0  0  0  0
    9.5069   23.5970    1.4457 C   0  0  0  0  0  0  0  0  0  0  0  0
    9.7707   24.7433    2.1671 C   0  0  0  0  0  0  0  0  0  0  0  0
    8.8476   25.1568    3.1358 C   0  0  0  0  0  0  0  0  0  0  0  0
    9.1013   26.3032    3.8607 C   0  0  0  0  0  0  0  0  0  0  0  0
    8.1715   26.6934    4.8121 C   0  0  0  0  0  0  0  0  0  0  0  0
    7.0329   25.9457    5.0150 C   0  0  0  0  0  0  0  0  0  0  0  0
    6.7990   24.8181    4.2918 C   0  0  0  0  0  0  0  0  0  0  0  0
    7.7108   24.4205    3.3463 C   0  0  0  0  0  0  0  0  0  0  0  0
    7.4923   23.2786    2.5974 C   0  0  0  0  0  0  0  0  0  0  0  0
   12.1362   20.3113    2.7815 C   0  0  0  0  0  0  0  0  0  0  0  0
   12.3404   19.1899    3.3425 O   0  0  0  0  0  0  0  0  0  0  0  0
   11.6059   21.3112    3.6573 N   0  0  0  0  0  0  0  0  0  0  0  0
   11.4265   22.2747    3.3099 H   0  0  0  0  0  0  0  0  0  0  0  0
   11.3216   21.0737    5.0540 C   0  0  0  0  0  0  0  0  0  0  0  0
    9.8855   21.2878    5.3996 C   0  0  0  0  0  0  0  0  0  0  0  0
    9.5400   22.2547    6.3456 C   0  0  0  0  0  0  0  0  0  0  0  0
    8.2488   22.5258    6.7122 C   0  0  0  0  0  0  0  0  0  0  0  0
    7.2445   21.7822    6.0923 C   0  0  0  0  0  0  0  0  0  0  0  0
    5.9842   22.0536    6.4492 N   0  0  0  0  0  0  0  0  0  0  0  0
    5.6859   23.0788    7.4416 C   0  0  0  0  0  0  0  0  0  0  0  0
    4.9796   21.3491    5.8588 C   0  0  0  0  0  0  0  0  0  0  0  0
    3.8030   21.6456    6.2328 O   0  0  0  0  0  0  0  0  0  0  0  0
    5.1759   20.3853    4.9282 C   0  0  0  0  0  0  0  0  0  0  0  0
    6.5194   20.1195    4.5708 C   0  0  0  0  0  0  0  0  0  0  0  0
    6.7666   19.1552    3.6365 O   0  0  0  0  0  0  0  0  0  0  0  0
    7.5474   20.8202    5.1555 C   0  0  0  0  0  0  0  0  0  0  0  0
    8.8730   20.5817    4.8174 C   0  0  0  0  0  0  0  0  0  0  0  0
    7.6148   18.8337    3.2670 H   0  0  0  0  0  0  0  0  0  0  0  0
    4.1566   19.6160    4.2577 C   0  0  0  0  0  0  0  0  0  0  0  0
    3.4924   18.7506    4.9448 O   0  0  0  0  0  0  0  0  0  0  0  0
    3.8326   19.7421    2.8978 N   0  0  0  0  0  0  0  0  0  0  0  0
    4.2589   20.3806    2.2196 H   0  0  0  0  0  0  0  0  0  0  0  0
    2.7571   18.8565    2.3894 C   0  0  0  0  0  0  0  0  0  0  0  0
    3.3187   17.8173    1.5143 C   0  0  0  0  0  0  0  0  0  0  0  0
    4.4824   18.1557    0.8146 O   0  0  0  0  0  0  0  0  0  0  0  0
    2.8004   16.6996    1.3935 O   0  0  0  0  0  0  0  0  0  0  0  0
    4.3814   18.9304    0.1617 H   0  0  0  0  0  0  0  0  0  0  0  0
   13.5797   21.3812    0.9861 C   0  0  0  0  0  0  0  0  0  0  0  0
   13.4162   22.5705    0.1640 C   0  0  0  0  0  0  0  0  0  0  0  0
   13.0260   23.8000    0.7053 C   0  0  0  0  0  0  0  0  0  0  0  0
   12.9202   24.9216   -0.0896 C   0  0  0  0  0  0  0  0  0  0  0  0
   13.1855   24.9026   -1.4378 C   0  0  0  0  0  0  0  0  0  0  0  0
   13.5717   23.6985   -1.9888 C   0  0  0  0  0  0  0  0  0  0  0  0
   13.6802   22.5603   -1.1854 C   0  0  0  0  0  0  0  0  0  0  0  0
  7  8  1  0  0  0
  8  9  2  0  0  0
  8 10  1  0  0  0
 10  6  1  0  0  0
  6 12  1  0  0  0
 12 13  1  0  0  0
 13 14  2  0  0  0
 14 15  1  0  0  0
 15 16  2  0  0  0
 16 17  1  0  0  0
 17 18  2  0  0  0
 18 19  1  0  0  0
 19 20  2  0  0  0
 20 21  1  0  0  0
 21 22  2  0  0  0
  6  2  1  0  0  0
  2  3  2  0  0  0
  2  4  1  0  0  0
  4  1  1  0  0  0
  1 51  1  0  0  0
 51 52  1  0  0  0
 52 53  2  0  0  0
 53 54  1  0  0  0
 54 55  2  0  0  0
 55 56  1  0  0  0
 56 57  2  0  0  0
  1 23  1  0  0  0
 23 24  2  0  0  0
 23 25  1  0  0  0
 25 27  1  0  0  0
 27 28  1  0  0  0
 28 29  2  0  0  0
 29 30  1  0  0  0
 30 31  2  0  0  0
 31 32  1  0  0  0
 32 33  1  0  0  0
 32 34  1  0  0  0
 34 35  2  0  0  0
 34 36  1  0  0  0
 36 42  1  0  0  0
 42 43  2  0  0  0
 42 44  1  0  0  0
 44 46  1  0  0  0
 46 47  1  0  0  0
 47 48  1  0  0  0
 47 49  2  0  0  0
 36 37  2  0  0  0
 37 38  1  0  0  0
 37 39  1  0  0  0
 39 40  2  0  0  0
 22 13  1  0  0  0
 57 52  1  0  0  0
 40 28  1  0  0  0
 21 16  1  0  0  0
 39 31  1  0  0  0
 10 11  1  0  0  0
  4  5  1  0  0  0
 25 26  1  0  0  0
 44 45  1  0  0  0
 48 50  1  0  0  0
 38 41  1  0  0  0
M  END
> <minimizedAffinity>
-8.36747

> <CNNscore>
0.2568407059

> <CNNaffinity>
6.9821534157

> <CNN_VS>
1.7933012247

> <CNNaffinity_variance>
1.0468184948

$$$$
[H]OC(=O)C([H])([H])N([H])C(=O)c1c(O[H])c2c([H])c(C([H])([H])N([H])C(=O)[C@@]([H])(N([H])C(=O)[C@@]([H])(N([H])C(=O)C([H])([H])[H])C([H])([H])c3c([H])c([H])c4c([H])c([H])c([H])c([H])c4c3[H])C([H])([H])c3c([H])c([H])c([H])c([H])c3[H])c([H])c([H])c2n(C([H])([H])[H])c1=O


 57 61  0  0  0  0  0  0  0  0999 V2000
   13.8730   21.7467    0.8209 C   0  0  0  0  0  0  0  0  0  0  0  0
   12.0685   22.0707   -0.9402 C   0  0  0  0  0  0  0  0  0  0  0  0
   12.2676   20.9974   -1.5481 O   0  0  0  0  0  0  0  0  0  0  0  0
   12.7777   22.5163    0.1953 N   0  0  0  0  0  0  0  0  0  0  0  0
   12.4917   23.4438    0.5941 H   0  0  0  0  0  0  0  0  0  0  0  0
   10.9548   22.9112   -1.5331 C   0  0  0  0  0  0  0  0  0  0  0  0
    8.1274   23.1134    1.1004 C   0  0  0  0  0  0  0  0  0  0  0  0
    9.4202   23.3219    0.4191 C   0  0  0  0  0  0  0  0  0  0  0  0
   10.2789   24.0392    0.9701 O   0  0  0  0  0  0  0  0  0  0  0  0
    9.7204   22.7380   -0.8356 N   0  0  0  0  0  0  0  0  0  0  0  0
    8.9632   22.1349   -1.2703 H   0  0  0  0  0  0  0  0  0  0  0  0
   11.4446   24.3390   -1.4100 C   0  0  0  0  0  0  0  0  0  0  0  0
   12.5934   24.6332   -2.2912 C   0  0  0  0  0  0  0  0  0  0  0  0
   13.5948   23.7289   -2.5578 C   0  0  0  0  0  0  0  0  0  0  0  0
   14.6586   24.0167   -3.3881 C   0  0  0  0  0  0  0  0  0  0  0  0
   14.7233   25.2815   -3.9861 C   0  0  0  0  0  0  0  0  0  0  0  0
   15.7820   25.5779   -4.8200 C   0  0  0  0  0  0  0  0  0  0  0  0
   15.8226   26.8356   -5.4020 C   0  0  0  0  0  0  0  0  0  0  0  0
   14.8264   27.7507   -5.1435 C   0  0  0  0  0  0  0  0  0  0  0  0
   13.7903   27.4418   -4.3186 C   0  0  0  0  0  0  0  0  0  0  0  0
   13.7373   26.2003   -3.7362 C   0  0  0  0  0  0  0  0  0  0  0  0
   12.6917   25.8636   -2.8959 C   0  0  0  0  0  0  0  0  0  0  0  0
   13.2428   20.7490    1.6812 C   0  0  0  0  0  0  0  0  0  0  0  0
   13.4734   19.5024    1.5986 O   0  0  0  0  0  0  0  0  0  0  0  0
   12.3056   21.1000    2.7041 N   0  0  0  0  0  0  0  0  0  0  0  0
   12.0641   22.0964    2.8783 H   0  0  0  0  0  0  0  0  0  0  0  0
   11.6710   20.1300    3.5668 C   0  0  0  0  0  0  0  0  0  0  0  0
   10.5612   20.7112    4.3780 C   0  0  0  0  0  0  0  0  0  0  0  0
   10.0368   19.9863    5.4497 C   0  0  0  0  0  0  0  0  0  0  0  0
    9.0289   20.4483    6.2534 C   0  0  0  0  0  0  0  0  0  0  0  0
    8.5170   21.7133    5.9643 C   0  0  0  0  0  0  0  0  0  0  0  0
    7.5363   22.1632    6.7549 N   0  0  0  0  0  0  0  0  0  0  0  0
    7.0325   21.3603    7.8623 C   0  0  0  0  0  0  0  0  0  0  0  0
    7.0181   23.3970    6.5029 C   0  0  0  0  0  0  0  0  0  0  0  0
    6.0902   23.7762    7.2824 O   0  0  0  0  0  0  0  0  0  0  0  0
    7.4343   24.2023    5.4971 C   0  0  0  0  0  0  0  0  0  0  0  0
    8.4726   23.6997    4.6769 C   0  0  0  0  0  0  0  0  0  0  0  0
    8.9250   24.4763    3.6491 O   0  0  0  0  0  0  0  0  0  0  0  0
    9.0088   22.4566    4.9153 C   0  0  0  0  0  0  0  0  0  0  0  0
   10.0318   21.9441    4.1283 C   0  0  0  0  0  0  0  0  0  0  0  0
    9.6230   24.3034    2.9842 H   0  0  0  0  0  0  0  0  0  0  0  0
    6.9372   25.5205    5.1882 C   0  0  0  0  0  0  0  0  0  0  0  0
    5.6646   25.6788    5.0561 O   0  0  0  0  0  0  0  0  0  0  0  0
    7.7467   26.6547    5.0189 N   0  0  0  0  0  0  0  0  0  0  0  0
    8.7673   26.6999    5.0942 H   0  0  0  0  0  0  0  0  0  0  0  0
    7.0488   27.9232    4.6978 C   0  0  0  0  0  0  0  0  0  0  0  0
    7.0779   28.1726    3.2493 C   0  0  0  0  0  0  0  0  0  0  0  0
    6.8592   27.0646    2.4230 O   0  0  0  0  0  0  0  0  0  0  0  0
    7.2838   29.2966    2.7730 O   0  0  0  0  0  0  0  0  0  0  0  0
    7.5495   26.3211    2.5094 H   0  0  0  0  0  0  0  0  0  0  0  0
   14.7836   22.7472    1.3895 C   0  0  0  0  0  0  0  0  0  0  0  0
   15.3629   23.7846    0.5497 C   0  0  0  0  0  0  0  0  0  0  0  0
   14.8142   25.0689    0.4703 C   0  0  0  0  0  0  0  0  0  0  0  0
   15.4081   26.0458   -0.3003 C   0  0  0  0  0  0  0  0  0  0  0  0
   16.5540   25.8236   -1.0255 C   0  0  0  0  0  0  0  0  0  0  0  0
   17.1092   24.5627   -0.9591 C   0  0  0  0  0  0  0  0  0  0  0  0
   16.5096   23.5707   -0.1786 C   0  0  0  0  0  0  0  0  0  0  0  0
  7  8  1  0  0  0
  8  9  2  0  0  0
  8 10  1  0  0  0
 10  6  1  0  0  0
  6 12  1  0  0  0
 12 13  1  0  0  0
 13 14  2  0  0  0
 14 15  1  0  0  0
 15 16  2  0  0  0
 16 17  1  0  0  0
 17 18  2  0  0  0
 18 19  1  0  0  0
 19 20  2  0  0  0
 20 21  1  0  0  0
 21 22  2  0  0  0
  6  2  1  0  0  0
  2  3  2  0  0  0
  2  4  1  0  0  0
  4  1  1  0  0  0
  1 51  1  0  0  0
 51 52  1  0  0  0
 52 53  2  0  0  0
 53 54  1  0  0  0
 54 55  2  0  0  0
 55 56  1  0  0  0
 56 57  2  0  0  0
  1 23  1  0  0  0
 23 24  2  0  0  0
 23 25  1  0  0  0
 25 27  1  0  0  0
 27 28  1  0  0  0
 28 29  2  0  0  0
 29 30  1  0  0  0
 30 31  2  0  0  0
 31 32  1  0  0  0
 32 33  1  0  0  0
 32 34  1  0  0  0
 34 35  2  0  0  0
 34 36  1  0  0  0
 36 42  1  0  0  0
 42 43  2  0  0  0
 42 44  1  0  0  0
 44 46  1  0  0  0
 46 47  1  0  0  0
 47 48  1  0  0  0
 47 49  2  0  0  0
 36 37  2  0  0  0
 37 38  1  0  0  0
 37 39  1  0  0  0
 39 40  2  0  0  0
 22 13  1  0  0  0
 57 52  1  0  0  0
 40 28  1  0  0  0
 21 16  1  0  0  0
 39 31  1  0  0  0
 10 11  1  0  0  0
  4  5  1  0  0  0
 25 26  1  0  0  0
 44 45  1  0  0  0
 48 50  1  0  0  0
 38 41  1  0  0  0
M  END
> <minimizedAffinity>
-4.72801

> <CNNscore>
0.2553139627

> <CNNaffinity>
7.2871994972

> <CNN_VS>
1.8605238199

> <CNNaffinity_variance>
0.2022441626

$$$$
[H]OC(=O)C([H])([H])N([H])C(=O)c1c(O[H])c2c([H])c(C([H])([H])N([H])C(=O)[C@@]([H])(N([H])C(=O)[C@@]([H])(N([H])C(=O)C([H])([H])[H])C([H])([H])c3c([H])c([H])c4c([H])c([H])c([H])c([H])c4c3[H])C([H])([H])c3c([H])c([H])c([H])c([H])c3[H])c([H])c([H])c2n(C([H])([H])[H])c1=O


 57 61  0  0  0  0  0  0  0  0999 V2000
   12.7797   22.2549    1.8898 C   0  0  0  0  0  0  0  0  0  0  0  0
   13.5793   20.8860   -0.0975 C   0  0  0  0  0  0  0  0  0  0  0  0
   14.5065   20.2973    0.4980 O   0  0  0  0  0  0  0  0  0  0  0  0
   12.7040   21.8325    0.4758 N   0  0  0  0  0  0  0  0  0  0  0  0
   11.9728   22.2402   -0.1567 H   0  0  0  0  0  0  0  0  0  0  0  0
   13.4469   20.4977   -1.5570 C   0  0  0  0  0  0  0  0  0  0  0  0
    9.6729   21.0867   -2.1738 C   0  0  0  0  0  0  0  0  0  0  0  0
   10.9332   20.6259   -1.5588 C   0  0  0  0  0  0  0  0  0  0  0  0
   10.8773   19.9528   -0.5104 O   0  0  0  0  0  0  0  0  0  0  0  0
   12.2018   20.9200   -2.1153 N   0  0  0  0  0  0  0  0  0  0  0  0
   12.2057   21.4948   -3.0073 H   0  0  0  0  0  0  0  0  0  0  0  0
   14.6052   21.1897   -2.2447 C   0  0  0  0  0  0  0  0  0  0  0  0
   14.3069   22.5899   -2.6095 C   0  0  0  0  0  0  0  0  0  0  0  0
   13.2798   23.3156   -2.0525 C   0  0  0  0  0  0  0  0  0  0  0  0
   13.0173   24.6250   -2.3995 C   0  0  0  0  0  0  0  0  0  0  0  0
   13.8296   25.2434   -3.3583 C   0  0  0  0  0  0  0  0  0  0  0  0
   13.5765   26.5535   -3.7103 C   0  0  0  0  0  0  0  0  0  0  0  0
   14.3958   27.1445   -4.6598 C   0  0  0  0  0  0  0  0  0  0  0  0
   15.4277   26.4293   -5.2256 C   0  0  0  0  0  0  0  0  0  0  0  0
   15.6626   25.1386   -4.8673 C   0  0  0  0  0  0  0  0  0  0  0  0
   14.8597   24.5413   -3.9282 C   0  0  0  0  0  0  0  0  0  0  0  0
   15.0817   23.2306   -3.5467 C   0  0  0  0  0  0  0  0  0  0  0  0
   11.5764   21.7455    2.5419 C   0  0  0  0  0  0  0  0  0  0  0  0
   10.4184   21.7993    2.0223 O   0  0  0  0  0  0  0  0  0  0  0  0
   11.6055   21.1316    3.8343 N   0  0  0  0  0  0  0  0  0  0  0  0
   12.5061   21.0099    4.3398 H   0  0  0  0  0  0  0  0  0  0  0  0
   10.4280   20.6202    4.4974 C   0  0  0  0  0  0  0  0  0  0  0  0
    9.5349   21.6999    5.0113 C   0  0  0  0  0  0  0  0  0  0  0  0
    8.8374   21.5086    6.2055 C   0  0  0  0  0  0  0  0  0  0  0  0
    8.0084   22.4495    6.7555 C   0  0  0  0  0  0  0  0  0  0  0  0
    7.8713   23.6543    6.0658 C   0  0  0  0  0  0  0  0  0  0  0  0
    7.0648   24.5729    6.6090 N   0  0  0  0  0  0  0  0  0  0  0  0
    6.3655   24.3158    7.8619 C   0  0  0  0  0  0  0  0  0  0  0  0
    6.9133   25.7623    5.9636 C   0  0  0  0  0  0  0  0  0  0  0  0
    6.1374   26.5986    6.5212 O   0  0  0  0  0  0  0  0  0  0  0  0
    7.5302   26.0764    4.7999 C   0  0  0  0  0  0  0  0  0  0  0  0
    8.3768   25.0851    4.2485 C   0  0  0  0  0  0  0  0  0  0  0  0
    9.0201   25.3565    3.0753 O   0  0  0  0  0  0  0  0  0  0  0  0
    8.5429   23.8783    4.8853 C   0  0  0  0  0  0  0  0  0  0  0  0
    9.3723   22.8922    4.3673 C   0  0  0  0  0  0  0  0  0  0  0  0
    9.6347   24.8060    2.5477 H   0  0  0  0  0  0  0  0  0  0  0  0
    7.4222   27.3197    4.0768 C   0  0  0  0  0  0  0  0  0  0  0  0
    8.4862   28.0309    3.9208 O   0  0  0  0  0  0  0  0  0  0  0  0
    6.2307   27.8167    3.5258 N   0  0  0  0  0  0  0  0  0  0  0  0
    5.3067   27.3757    3.5570 H   0  0  0  0  0  0  0  0  0  0  0  0
    6.3204   29.1192    2.8223 C   0  0  0  0  0  0  0  0  0  0  0  0
    5.3812   29.1578    1.6919 C   0  0  0  0  0  0  0  0  0  0  0  0
    4.0969   29.6410    1.9667 O   0  0  0  0  0  0  0  0  0  0  0  0
    5.6963   28.7860    0.5540 O   0  0  0  0  0  0  0  0  0  0  0  0
    3.5682   29.0951    2.6442 H   0  0  0  0  0  0  0  0  0  0  0  0
   13.0517   23.6965    1.8569 C   0  0  0  0  0  0  0  0  0  0  0  0
   14.1924   24.2192    1.1204 C   0  0  0  0  0  0  0  0  0  0  0  0
   15.3515   23.4641    0.9120 C   0  0  0  0  0  0  0  0  0  0  0  0
   16.4011   23.9681    0.1736 C   0  0  0  0  0  0  0  0  0  0  0  0
   16.3758   25.2200   -0.3926 C   0  0  0  0  0  0  0  0  0  0  0  0
   15.2406   25.9787   -0.1974 C   0  0  0  0  0  0  0  0  0  0  0  0
   14.1750   25.4703    0.5502 C   0  0  0  0  0  0  0  0  0  0  0  0
  7  8  1  0  0  0
  8  9  2  0  0  0
  8 10  1  0  0  0
 10  6  1  0  0  0
  6 12  1  0  0  0
 12 13  1  0  0  0
 13 14  2  0  0  0
 14 15  1  0  0  0
 15 16  2  0  0  0
 16 17  1  0  0  0
 17 18  2  0  0  0
 18 19  1  0  0  0
 19 20  2  0  0  0
 20 21  1  0  0  0
 21 22  2  0  0  0
  6  2  1  0  0  0
  2  3  2  0  0  0
  2  4  1  0  0  0
  4  1  1  0  0  0
  1 51  1  0  0  0
 51 52  1  0  0  0
 52 53  2  0  0  0
 53 54  1  0  0  0
 54 55  2  0  0  0
 55 56  1  0  0  0
 56 57  2  0  0  0
  1 23  1  0  0  0
 23 24  2  0  0  0
 23 25  1  0  0  0
 25 27  1  0  0  0
 27 28  1  0  0  0
 28 29  2  0  0  0
 29 30  1  0  0  0
 30 31  2  0  0  0
 31 32  1  0  0  0
 32 33  1  0  0  0
 32 34  1  0  0  0
 34 35  2  0  0  0
 34 36  1  0  0  0
 36 42  1  0  0  0
 42 43  2  0  0  0
 42 44  1  0  0  0
 44 46  1  0  0  0
 46 47  1  0  0  0
 47 48  1  0  0  0
 47 49  2  0  0  0
 36 37  2  0  0  0
 37 38  1  0  0  0
 37 39  1  0  0  0
 39 40  2  0  0  0
 22 13  1  0  0  0
 57 52  1  0  0  0
 40 28  1  0  0  0
 21 16  1  0  0  0
 39 31  1  0  0  0
 10 11  1  0  0  0
  4  5  1  0  0  0
 25 26  1  0  0  0
 44 45  1  0  0  0
 48 50  1  0  0  0
 38 41  1  0  0  0
M  END
> <minimizedAffinity>
-5.13334

> <CNNscore>
0.2328884453

> <CNNaffinity>
7.3244543076

> <CNN_VS>
1.7057807446

> <CNNaffinity_variance>
0.1117031425

$$$$
[H]OC(=O)C([H])([H])N([H])C(=O)c1c(O[H])c2c([H])c(C([H])([H])N([H])C(=O)[C@@]([H])(N([H])C(=O)[C@@]([H])(N([H])C(=O)C([H])([H])[H])C([H])([H])c3c([H])c([H])c4c([H])c([H])c([H])c([H])c4c3[H])C([H])([H])c3c([H])c([H])c([H])c([H])c3[H])c([H])c([H])c2n(C([H])([H])[H])c1=O


 57 61  0  0  0  0  0  0  0  0999 V2000
   13.2483   21.4970    0.0304 C   0  0  0  0  0  0  0  0  0  0  0  0
   10.7714   21.0355   -0.3082 C   0  0  0  0  0  0  0  0  0  0  0  0
   10.8448   19.7911   -0.2230 O   0  0  0  0  0  0  0  0  0  0  0  0
   11.8553   21.9324   -0.2014 N   0  0  0  0  0  0  0  0  0  0  0  0
   11.6318   22.9533   -0.2951 H   0  0  0  0  0  0  0  0  0  0  0  0
    9.3654   21.5496   -0.5476 C   0  0  0  0  0  0  0  0  0  0  0  0
    6.8816   19.1107   -2.2367 C   0  0  0  0  0  0  0  0  0  0  0  0
    7.5784   19.9034   -1.2047 C   0  0  0  0  0  0  0  0  0  0  0  0
    7.1982   19.8117   -0.0205 O   0  0  0  0  0  0  0  0  0  0  0  0
    8.6616   20.7632   -1.5100 N   0  0  0  0  0  0  0  0  0  0  0  0
    8.9540   20.8126   -2.5289 H   0  0  0  0  0  0  0  0  0  0  0  0
    8.6919   21.4694    0.8065 C   0  0  0  0  0  0  0  0  0  0  0  0
    8.5186   22.7907    1.4443 C   0  0  0  0  0  0  0  0  0  0  0  0
    8.1072   23.9126    0.7632 C   0  0  0  0  0  0  0  0  0  0  0  0
    7.9444   25.1388    1.3744 C   0  0  0  0  0  0  0  0  0  0  0  0
    8.2077   25.2482    2.7456 C   0  0  0  0  0  0  0  0  0  0  0  0
    8.0453   26.4698    3.3664 C   0  0  0  0  0  0  0  0  0  0  0  0
    8.3098   26.5523    4.7248 C   0  0  0  0  0  0  0  0  0  0  0  0
    8.7226   25.4367    5.4189 C   0  0  0  0  0  0  0  0  0  0  0  0
    8.8778   24.2405    4.7910 C   0  0  0  0  0  0  0  0  0  0  0  0
    8.6190   24.1445    3.4467 C   0  0  0  0  0  0  0  0  0  0  0  0
    8.7676   22.9375    2.7880 C   0  0  0  0  0  0  0  0  0  0  0  0
   13.2322   20.6733    1.2362 C   0  0  0  0  0  0  0  0  0  0  0  0
   14.1640   19.8693    1.5513 O   0  0  0  0  0  0  0  0  0  0  0  0
   12.1534   20.7095    2.1757 N   0  0  0  0  0  0  0  0  0  0  0  0
   11.3499   21.3536    2.0312 H   0  0  0  0  0  0  0  0  0  0  0  0
   12.1172   19.9043    3.3750 C   0  0  0  0  0  0  0  0  0  0  0  0
   11.0308   20.3093    4.3148 C   0  0  0  0  0  0  0  0  0  0  0  0
   11.2480   21.3587    5.2096 C   0  0  0  0  0  0  0  0  0  0  0  0
   10.3037   21.8038    6.0959 C   0  0  0  0  0  0  0  0  0  0  0  0
    9.0679   21.1569    6.0832 C   0  0  0  0  0  0  0  0  0  0  0  0
    8.1464   21.5980    6.9468 N   0  0  0  0  0  0  0  0  0  0  0  0
    8.4316   22.7019    7.8551 C   0  0  0  0  0  0  0  0  0  0  0  0
    6.9272   20.9915    6.9563 C   0  0  0  0  0  0  0  0  0  0  0  0
    6.0895   21.4482    7.7942 O   0  0  0  0  0  0  0  0  0  0  0  0
    6.5860   19.9642    6.1430 C   0  0  0  0  0  0  0  0  0  0  0  0
    7.5811   19.5185    5.2404 C   0  0  0  0  0  0  0  0  0  0  0  0
    7.2830   18.4843    4.4005 O   0  0  0  0  0  0  0  0  0  0  0  0
    8.8178   20.1181    5.2155 C   0  0  0  0  0  0  0  0  0  0  0  0
    9.8085   19.7027    4.3353 C   0  0  0  0  0  0  0  0  0  0  0  0
    7.8313   18.0432    3.7193 H   0  0  0  0  0  0  0  0  0  0  0  0
    5.3113   19.2912    6.0950 C   0  0  0  0  0  0  0  0  0  0  0  0
    4.9782   18.5408    7.0891 O   0  0  0  0  0  0  0  0  0  0  0  0
    4.3983   19.3946    5.0339 N   0  0  0  0  0  0  0  0  0  0  0  0
    4.5076   19.9482    4.1790 H   0  0  0  0  0  0  0  0  0  0  0  0
    3.1406   18.6199    5.1658 C   0  0  0  0  0  0  0  0  0  0  0  0
    2.8893   17.8376    3.9468 C   0  0  0  0  0  0  0  0  0  0  0  0
    2.9659   18.5330    2.7348 O   0  0  0  0  0  0  0  0  0  0  0  0
    2.6232   16.6290    3.9765 O   0  0  0  0  0  0  0  0  0  0  0  0
    2.2900   19.2870    2.6285 H   0  0  0  0  0  0  0  0  0  0  0  0
   14.0577   22.7199   -0.0216 C   0  0  0  0  0  0  0  0  0  0  0  0
   13.8837   23.6787   -1.1020 C   0  0  0  0  0  0  0  0  0  0  0  0
   14.7109   23.6851   -2.2302 C   0  0  0  0  0  0  0  0  0  0  0  0
   14.4971   24.5772   -3.2594 C   0  0  0  0  0  0  0  0  0  0  0  0
   13.4782   25.4990   -3.2421 C   0  0  0  0  0  0  0  0  0  0  0  0
   12.6523   25.5071   -2.1373 C   0  0  0  0  0  0  0  0  0  0  0  0
   12.8664   24.6039   -1.0928 C   0  0  0  0  0  0  0  0  0  0  0  0
  7  8  1  0  0  0
  8  9  2  0  0  0
  8 10  1  0  0  0
 10  6  1  0  0  0
  6 12  1  0  0  0
 12 13  1  0  0  0
 13 14  2  0  0  0
 14 15  1  0  0  0
 15 16  2  0  0  0
 16 17  1  0  0  0
 17 18  2  0  0  0
 18 19  1  0  0  0
 19 20  2  0  0  0
 20 21  1  0  0  0
 21 22  2  0  0  0
  6  2  1  0  0  0
  2  3  2  0  0  0
  2  4  1  0  0  0
  4  1  1  0  0  0
  1 51  1  0  0  0
 51 52  1  0  0  0
 52 53  2  0  0  0
 53 54  1  0  0  0
 54 55  2  0  0  0
 55 56  1  0  0  0
 56 57  2  0  0  0
  1 23  1  0  0  0
 23 24  2  0  0  0
 23 25  1  0  0  0
 25 27  1  0  0  0
 27 28  1  0  0  0
 28 29  2  0  0  0
 29 30  1  0  0  0
 30 31  2  0  0  0
 31 32  1  0  0  0
 32 33  1  0  0  0
 32 34  1  0  0  0
 34 35  2  0  0  0
 34 36  1  0  0  0
 36 42  1  0  0  0
 42 43  2  0  0  0
 42 44  1  0  0  0
 44 46  1  0  0  0
 46 47  1  0  0  0
 47 48  1  0  0  0
 47 49  2  0  0  0
 36 37  2  0  0  0
 37 38  1  0  0  0
 37 39  1  0  0  0
 39 40  2  0  0  0
 22 13  1  0  0  0
 57 52  1  0  0  0
 40 28  1  0  0  0
 21 16  1  0  0  0
 39 31  1  0  0  0
 10 11  1  0  0  0
  4  5  1  0  0  0
 25 26  1  0  0  0
 44 45  1  0  0  0
 48 50  1  0  0  0
 38 41  1  0  0  0
M  END
> <minimizedAffinity>
-7.12917

> <CNNscore>
0.2306714356

> <CNNaffinity>
7.5082359314

> <CNN_VS>
1.7319356203

> <CNNaffinity_variance>
0.1461630315

$$$$
[H]OC(=O)C([H])([H])N([H])C(=O)c1c(O[H])c2c([H])c(C([H])([H])N([H])C(=O)[C@@]([H])(N([H])C(=O)[C@@]([H])(N([H])C(=O)C([H])([H])[H])C([H])([H])c3c([H])c([H])c4c([H])c([H])c([H])c([H])c4c3[H])C([H])([H])c3c([H])c([H])c([H])c([H])c3[H])c([H])c([H])c2n(C([H])([H])[H])c1=O


 57 61  0  0  0  0  0  0  0  0999 V2000
   14.0570   21.7160   -0.5902 C   0  0  0  0  0  0  0  0  0  0  0  0
   13.0867   23.9099    0.2513 C   0  0  0  0  0  0  0  0  0  0  0  0
   13.9311   24.1038    1.1515 O   0  0  0  0  0  0  0  0  0  0  0  0
   13.0609   22.8069   -0.6282 N   0  0  0  0  0  0  0  0  0  0  0  0
   12.2846   22.7863   -1.3339 H   0  0  0  0  0  0  0  0  0  0  0  0
   12.0322   24.9952    0.1586 C   0  0  0  0  0  0  0  0  0  0  0  0
   12.7737   26.6809   -3.2443 C   0  0  0  0  0  0  0  0  0  0  0  0
   12.4596   25.6523   -2.2332 C   0  0  0  0  0  0  0  0  0  0  0  0
   12.2980   24.4737   -2.6078 O   0  0  0  0  0  0  0  0  0  0  0  0
   12.3353   25.9546   -0.8553 N   0  0  0  0  0  0  0  0  0  0  0  0
   12.4802   26.9687   -0.5783 H   0  0  0  0  0  0  0  0  0  0  0  0
   10.7502   24.2577   -0.1670 C   0  0  0  0  0  0  0  0  0  0  0  0
    9.7345   24.3667    0.9003 C   0  0  0  0  0  0  0  0  0  0  0  0
    8.4936   23.7780    0.8282 C   0  0  0  0  0  0  0  0  0  0  0  0
    7.5575   23.8841    1.8364 C   0  0  0  0  0  0  0  0  0  0  0  0
    7.8823   24.6209    2.9822 C   0  0  0  0  0  0  0  0  0  0  0  0
    6.9537   24.7308    3.9970 C   0  0  0  0  0  0  0  0  0  0  0  0
    7.2995   25.4633    5.1221 C   0  0  0  0  0  0  0  0  0  0  0  0
    8.5387   26.0581    5.2073 C   0  0  0  0  0  0  0  0  0  0  0  0
    9.4417   25.9399    4.1974 C   0  0  0  0  0  0  0  0  0  0  0  0
    9.1128   25.2172    3.0780 C   0  0  0  0  0  0  0  0  0  0  0  0
   10.0164   25.0817    2.0398 C   0  0  0  0  0  0  0  0  0  0  0  0
   13.8374   20.9946    0.6604 C   0  0  0  0  0  0  0  0  0  0  0  0
   14.6179   20.0932    1.0989 O   0  0  0  0  0  0  0  0  0  0  0  0
   12.7128   21.2517    1.5072 N   0  0  0  0  0  0  0  0  0  0  0  0
   12.0238   21.9900    1.2587 H   0  0  0  0  0  0  0  0  0  0  0  0
   12.4766   20.5510    2.7486 C   0  0  0  0  0  0  0  0  0  0  0  0
   11.0943   20.7503    3.2749 C   0  0  0  0  0  0  0  0  0  0  0  0
   10.9107   21.1314    4.6054 C   0  0  0  0  0  0  0  0  0  0  0  0
    9.6805   21.3486    5.1663 C   0  0  0  0  0  0  0  0  0  0  0  0
    8.5684   21.1728    4.3427 C   0  0  0  0  0  0  0  0  0  0  0  0
    7.3688   21.3911    4.8929 N   0  0  0  0  0  0  0  0  0  0  0  0
    7.2412   21.7914    6.2888 C   0  0  0  0  0  0  0  0  0  0  0  0
    6.2627   21.2335    4.1145 C   0  0  0  0  0  0  0  0  0  0  0  0
    5.1497   21.4529    4.6850 O   0  0  0  0  0  0  0  0  0  0  0  0
    6.2996   20.8675    2.8114 C   0  0  0  0  0  0  0  0  0  0  0  0
    7.5823   20.6429    2.2566 C   0  0  0  0  0  0  0  0  0  0  0  0
    7.6694   20.2714    0.9457 O   0  0  0  0  0  0  0  0  0  0  0  0
    8.7108   20.7971    3.0262 C   0  0  0  0  0  0  0  0  0  0  0  0
    9.9802   20.5882    2.5034 C   0  0  0  0  0  0  0  0  0  0  0  0
    8.4541   20.0732    0.3942 H   0  0  0  0  0  0  0  0  0  0  0  0
    5.1685   20.6980    1.9327 C   0  0  0  0  0  0  0  0  0  0  0  0
    4.1715   19.9940    2.3480 O   0  0  0  0  0  0  0  0  0  0  0  0
    5.0739   21.2490    0.6451 N   0  0  0  0  0  0  0  0  0  0  0  0
    5.7707   21.8317    0.1718 H   0  0  0  0  0  0  0  0  0  0  0  0
    3.8311   20.9566   -0.1095 C   0  0  0  0  0  0  0  0  0  0  0  0
    4.1523   20.4854   -1.4645 C   0  0  0  0  0  0  0  0  0  0  0  0
    3.3554   19.4513   -1.9685 O   0  0  0  0  0  0  0  0  0  0  0  0
    5.0748   20.9681   -2.1341 O   0  0  0  0  0  0  0  0  0  0  0  0
    3.3969   18.5810   -1.4416 H   0  0  0  0  0  0  0  0  0  0  0  0
   15.3507   22.3534   -0.8614 C   0  0  0  0  0  0  0  0  0  0  0  0
   15.4901   23.3174   -1.9422 C   0  0  0  0  0  0  0  0  0  0  0  0
   15.9773   24.6108   -1.7260 C   0  0  0  0  0  0  0  0  0  0  0  0
   16.1397   25.4904   -2.7751 C   0  0  0  0  0  0  0  0  0  0  0  0
   15.8384   25.1589   -4.0742 C   0  0  0  0  0  0  0  0  0  0  0  0
   15.3567   23.8874   -4.3062 C   0  0  0  0  0  0  0  0  0  0  0  0
   15.1915   22.9936   -3.2448 C   0  0  0  0  0  0  0  0  0  0  0  0
  7  8  1  0  0  0
  8  9  2  0  0  0
  8 10  1  0  0  0
 10  6  1  0  0  0
  6 12  1  0  0  0
 12 13  1  0  0  0
 13 14  2  0  0  0
 14 15  1  0  0  0
 15 16  2  0  0  0
 16 17  1  0  0  0
 17 18  2  0  0  0
 18 19  1  0  0  0
 19 20  2  0  0  0
 20 21  1  0  0  0
 21 22  2  0  0  0
  6  2  1  0  0  0
  2  3  2  0  0  0
  2  4  1  0  0  0
  4  1  1  0  0  0
  1 51  1  0  0  0
 51 52  1  0  0  0
 52 53  2  0  0  0
 53 54  1  0  0  0
 54 55  2  0  0  0
 55 56  1  0  0  0
 56 57  2  0  0  0
  1 23  1  0  0  0
 23 24  2  0  0  0
 23 25  1  0  0  0
 25 27  1  0  0  0
 27 28  1  0  0  0
 28 29  2  0  0  0
 29 30  1  0  0  0
 30 31  2  0  0  0
 31 32  1  0  0  0
 32 33  1  0  0  0
 32 34  1  0  0  0
 34 35  2  0  0  0
 34 36  1  0  0  0
 36 42  1  0  0  0
 42 43  2  0  0  0
 42 44  1  0  0  0
 44 46  1  0  0  0
 46 47  1  0  0  0
 47 48  1  0  0  0
 47 49  2  0  0  0
 36 37  2  0  0  0
 37 38  1  0  0  0
 37 39  1  0  0  0
 39 40  2  0  0  0
 22 13  1  0  0  0
 57 52  1  0  0  0
 40 28  1  0  0  0
 21 16  1  0  0  0
 39 31  1  0  0  0
 10 11  1  0  0  0
  4  5  1  0  0  0
 25 26  1  0  0  0
 44 45  1  0  0  0
 48 50  1  0  0  0
 38 41  1  0  0  0
M  END
> <minimizedAffinity>
-6.18998

> <CNNscore>
0.2014213502

> <CNNaffinity>
7.4227552414

> <CNN_VS>
1.4951013327

> <CNNaffinity_variance>
0.1261217594

$$$$
[H]OC(=O)C([H])([H])N([H])C(=O)c1c(O[H])c2c([H])c(C([H])([H])N([H])C(=O)[C@@]([H])(N([H])C(=O)[C@@]([H])(N([H])C(=O)C([H])([H])[H])C([H])([H])c3c([H])c([H])c4c([H])c([H])c([H])c([H])c4c3[H])C([H])([H])c3c([H])c([H])c([H])c([H])c3[H])c([H])c([H])c2n(C([H])([H])[H])c1=O


 57 61  0  0  0  0  0  0  0  0999 V2000
   12.5875   20.7921   -0.2406 C   0  0  0  0  0  0  0  0  0  0  0  0
   12.0853   22.9985    0.9180 C   0  0  0  0  0  0  0  0  0  0  0  0
   12.7543   22.7741    1.9491 O   0  0  0  0  0  0  0  0  0  0  0  0
   11.9439   22.1209   -0.1776 N   0  0  0  0  0  0  0  0  0  0  0  0
   11.3464   22.4543   -0.9731 H   0  0  0  0  0  0  0  0  0  0  0  0
   11.3961   24.3488    0.9187 C   0  0  0  0  0  0  0  0  0  0  0  0
   12.3975   26.0614   -2.4032 C   0  0  0  0  0  0  0  0  0  0  0  0
   11.7962   25.1119   -1.4462 C   0  0  0  0  0  0  0  0  0  0  0  0
   11.1205   24.1619   -1.8892 O   0  0  0  0  0  0  0  0  0  0  0  0
   11.9584   25.2404   -0.0452 N   0  0  0  0  0  0  0  0  0  0  0  0
   12.5402   26.0619    0.2906 H   0  0  0  0  0  0  0  0  0  0  0  0
    9.9507   24.0419    0.5864 C   0  0  0  0  0  0  0  0  0  0  0  0
    9.0634   24.0942    1.7665 C   0  0  0  0  0  0  0  0  0  0  0  0
    8.1008   23.1486    2.0331 C   0  0  0  0  0  0  0  0  0  0  0  0
    7.2834   23.2081    3.1431 C   0  0  0  0  0  0  0  0  0  0  0  0
    7.4388   24.2745    4.0376 C   0  0  0  0  0  0  0  0  0  0  0  0
    6.6278   24.3414    5.1519 C   0  0  0  0  0  0  0  0  0  0  0  0
    6.8023   25.4052    6.0237 C   0  0  0  0  0  0  0  0  0  0  0  0
    7.7624   26.3590    5.7688 C   0  0  0  0  0  0  0  0  0  0  0  0
    8.5529   26.2777    4.6653 C   0  0  0  0  0  0  0  0  0  0  0  0
    8.3913   25.2297    3.7941 C   0  0  0  0  0  0  0  0  0  0  0  0
    9.1857   25.1255    2.6669 C   0  0  0  0  0  0  0  0  0  0  0  0
   12.8343   20.3828    1.1393 C   0  0  0  0  0  0  0  0  0  0  0  0
   13.9950   20.1976    1.6212 O   0  0  0  0  0  0  0  0  0  0  0  0
   11.7744   20.1592    2.0744 N   0  0  0  0  0  0  0  0  0  0  0  0
   10.7841   20.3089    1.7944 H   0  0  0  0  0  0  0  0  0  0  0  0
   11.9955   19.7550    3.4439 C   0  0  0  0  0  0  0  0  0  0  0  0
   10.9528   20.2718    4.3784 C   0  0  0  0  0  0  0  0  0  0  0  0
   11.2587   21.3293    5.2370 C   0  0  0  0  0  0  0  0  0  0  0  0
   10.3602   21.8734    6.1156 C   0  0  0  0  0  0  0  0  0  0  0  0
    9.0784   21.3232    6.1334 C   0  0  0  0  0  0  0  0  0  0  0  0
    8.2022   21.8609    6.9893 N   0  0  0  0  0  0  0  0  0  0  0  0
    8.5801   22.9679    7.8591 C   0  0  0  0  0  0  0  0  0  0  0  0
    6.9403   21.3504    7.0278 C   0  0  0  0  0  0  0  0  0  0  0  0
    6.1486   21.8963    7.8568 O   0  0  0  0  0  0  0  0  0  0  0  0
    6.5134   20.3270    6.2508 C   0  0  0  0  0  0  0  0  0  0  0  0
    7.4623   19.7778    5.3555 C   0  0  0  0  0  0  0  0  0  0  0  0
    7.0775   18.7434    4.5518 O   0  0  0  0  0  0  0  0  0  0  0  0
    8.7409   20.2796    5.3017 C   0  0  0  0  0  0  0  0  0  0  0  0
    9.6879   19.7617    4.4279 C   0  0  0  0  0  0  0  0  0  0  0  0
    7.5836   18.2401    3.8811 H   0  0  0  0  0  0  0  0  0  0  0  0
    5.1905   19.7526    6.2344 C   0  0  0  0  0  0  0  0  0  0  0  0
    4.6646   19.3963    7.3564 O   0  0  0  0  0  0  0  0  0  0  0  0
    4.4268   19.5509    5.0741 N   0  0  0  0  0  0  0  0  0  0  0  0
    4.6946   19.7814    4.1127 H   0  0  0  0  0  0  0  0  0  0  0  0
    3.0886   18.9396    5.2612 C   0  0  0  0  0  0  0  0  0  0  0  0
    3.1463   17.4919    5.0120 C   0  0  0  0  0  0  0  0  0  0  0  0
    3.6989   16.7071    6.0303 O   0  0  0  0  0  0  0  0  0  0  0  0
    2.7322   16.9818    3.9627 O   0  0  0  0  0  0  0  0  0  0  0  0
    4.6728   16.9090    6.2479 H   0  0  0  0  0  0  0  0  0  0  0  0
   13.7040   20.9387   -1.1817 C   0  0  0  0  0  0  0  0  0  0  0  0
   14.3255   22.2363   -1.3982 C   0  0  0  0  0  0  0  0  0  0  0  0
   14.8278   23.0050   -0.3429 C   0  0  0  0  0  0  0  0  0  0  0  0
   15.4506   24.2119   -0.5804 C   0  0  0  0  0  0  0  0  0  0  0  0
   15.6134   24.7263   -1.8442 C   0  0  0  0  0  0  0  0  0  0  0  0
   15.1242   23.9817   -2.8972 C   0  0  0  0  0  0  0  0  0  0  0  0
   14.4929   22.7579   -2.6595 C   0  0  0  0  0  0  0  0  0  0  0  0
  7  8  1  0  0  0
  8  9  2  0  0  0
  8 10  1  0  0  0
 10  6  1  0  0  0
  6 12  1  0  0  0
 12 13  1  0  0  0
 13 14  2  0  0  0
 14 15  1  0  0  0
 15 16  2  0  0  0
 16 17  1  0  0  0
 17 18  2  0  0  0
 18 19  1  0  0  0
 19 20  2  0  0  0
 20 21  1  0  0  0
 21 22  2  0  0  0
  6  2  1  0  0  0
  2  3  2  0  0  0
  2  4  1  0  0  0
  4  1  1  0  0  0
  1 51  1  0  0  0
 51 52  1  0  0  0
 52 53  2  0  0  0
 53 54  1  0  0  0
 54 55  2  0  0  0
 55 56  1  0  0  0
 56 57  2  0  0  0
  1 23  1  0  0  0
 23 24  2  0  0  0
 23 25  1  0  0  0
 25 27  1  0  0  0
 27 28  1  0  0  0
 28 29  2  0  0  0
 29 30  1  0  0  0
 30 31  2  0  0  0
 31 32  1  0  0  0
 32 33  1  0  0  0
 32 34  1  0  0  0
 34 35  2  0  0  0
 34 36  1  0  0  0
 36 42  1  0  0  0
 42 43  2  0  0  0
 42 44  1  0  0  0
 44 46  1  0  0  0
 46 47  1  0  0  0
 47 48  1  0  0  0
 47 49  2  0  0  0
 36 37  2  0  0  0
 37 38  1  0  0  0
 37 39  1  0  0  0
 39 40  2  0  0  0
 22 13  1  0  0  0
 57 52  1  0  0  0
 40 28  1  0  0  0
 21 16  1  0  0  0
 39 31  1  0  0  0
 10 11  1  0  0  0
  4  5  1  0  0  0
 25 26  1  0  0  0
 44 45  1  0  0  0
 48 50  1  0  0  0
 38 41  1  0  0  0
M  END
> <minimizedAffinity>
-7.57303

> <CNNscore>
0.1815828234

> <CNNaffinity>
7.2531080246

> <CNN_VS>
1.3170398474

> <CNNaffinity_variance>
0.4770583510

$$$$
[H]OC(=O)C([H])([H])N([H])C(=O)c1c(O[H])c2c([H])c(C([H])([H])N([H])C(=O)[C@@]([H])(N([H])C(=O)[C@@]([H])(N([H])C(=O)C([H])([H])[H])C([H])([H])c3c([H])c([H])c4c([H])c([H])c([H])c([H])c4c3[H])C([H])([H])c3c([H])c([H])c([H])c([H])c3[H])c([H])c([H])c2n(C([H])([H])[H])c1=O


 57 61  0  0  0  0  0  0  0  0999 V2000
   13.3967   23.6295   -0.5666 C   0  0  0  0  0  0  0  0  0  0  0  0
   12.6733   21.7062    0.9303 C   0  0  0  0  0  0  0  0  0  0  0  0
   12.7787   22.3203    2.0132 O   0  0  0  0  0  0  0  0  0  0  0  0
   12.9433   22.2402   -0.3475 N   0  0  0  0  0  0  0  0  0  0  0  0
   12.8069   21.5962   -1.1646 H   0  0  0  0  0  0  0  0  0  0  0  0
   12.2116   20.2705    1.0845 C   0  0  0  0  0  0  0  0  0  0  0  0
   10.6170   19.2521    4.4595 C   0  0  0  0  0  0  0  0  0  0  0  0
   11.5902   19.3869    3.3579 C   0  0  0  0  0  0  0  0  0  0  0  0
   12.7060   18.8418    3.4740 O   0  0  0  0  0  0  0  0  0  0  0  0
   11.3034   20.1116    2.1755 N   0  0  0  0  0  0  0  0  0  0  0  0
   10.3434   20.5599    2.1162 H   0  0  0  0  0  0  0  0  0  0  0  0
   11.5340   19.9421   -0.2295 C   0  0  0  0  0  0  0  0  0  0  0  0
   10.0863   20.2368   -0.2220 C   0  0  0  0  0  0  0  0  0  0  0  0
    9.5650   21.4658    0.1089 C   0  0  0  0  0  0  0  0  0  0  0  0
    8.2103   21.7273    0.1056 C   0  0  0  0  0  0  0  0  0  0  0  0
    7.3270   20.7002   -0.2497 C   0  0  0  0  0  0  0  0  0  0  0  0
    5.9704   20.9527   -0.2584 C   0  0  0  0  0  0  0  0  0  0  0  0
    5.1164   19.9208   -0.6160 C   0  0  0  0  0  0  0  0  0  0  0  0
    5.6249   18.6852   -0.9494 C   0  0  0  0  0  0  0  0  0  0  0  0
    6.9649   18.4537   -0.9352 C   0  0  0  0  0  0  0  0  0  0  0  0
    7.8218   19.4664   -0.5837 C   0  0  0  0  0  0  0  0  0  0  0  0
    9.1883   19.2543   -0.5646 C   0  0  0  0  0  0  0  0  0  0  0  0
   12.2801   24.4952   -0.1975 C   0  0  0  0  0  0  0  0  0  0  0  0
   12.1086   25.6620   -0.6700 O   0  0  0  0  0  0  0  0  0  0  0  0
   11.2722   24.0920    0.7350 N   0  0  0  0  0  0  0  0  0  0  0  0
   11.2987   23.1445    1.1627 H   0  0  0  0  0  0  0  0  0  0  0  0
   10.1589   24.9316    1.1137 C   0  0  0  0  0  0  0  0  0  0  0  0
    9.5445   24.5312    2.4136 C   0  0  0  0  0  0  0  0  0  0  0  0
    9.4153   25.4740    3.4353 C   0  0  0  0  0  0  0  0  0  0  0  0
    8.8527   25.1968    4.6526 C   0  0  0  0  0  0  0  0  0  0  0  0
    8.3924   23.8958    4.8566 C   0  0  0  0  0  0  0  0  0  0  0  0
    7.8387   23.6304    6.0450 N   0  0  0  0  0  0  0  0  0  0  0  0
    7.7285   24.6591    7.0719 C   0  0  0  0  0  0  0  0  0  0  0  0
    7.3742   22.3711    6.2745 C   0  0  0  0  0  0  0  0  0  0  0  0
    6.8582   22.1723    7.4175 O   0  0  0  0  0  0  0  0  0  0  0  0
    7.4375   21.3643    5.3714 C   0  0  0  0  0  0  0  0  0  0  0  0
    8.0289   21.6742    4.1233 C   0  0  0  0  0  0  0  0  0  0  0  0
    8.1154   20.6903    3.1808 O   0  0  0  0  0  0  0  0  0  0  0  0
    8.5034   22.9398    3.8726 C   0  0  0  0  0  0  0  0  0  0  0  0
    9.0823   23.2698    2.6542 C   0  0  0  0  0  0  0  0  0  0  0  0
    8.4862   20.7119    2.2746 H   0  0  0  0  0  0  0  0  0  0  0  0
    6.9523   20.0176    5.5484 C   0  0  0  0  0  0  0  0  0  0  0  0
    7.4522   19.0856    4.8110 O   0  0  0  0  0  0  0  0  0  0  0  0
    5.9651   19.6447    6.4740 N   0  0  0  0  0  0  0  0  0  0  0  0
    5.4745   20.2576    7.1318 H   0  0  0  0  0  0  0  0  0  0  0  0
    5.5941   18.2090    6.5026 C   0  0  0  0  0  0  0  0  0  0  0  0
    4.2574   18.0127    5.9230 C   0  0  0  0  0  0  0  0  0  0  0  0
    3.3626   19.0815    6.0473 O   0  0  0  0  0  0  0  0  0  0  0  0
    3.9282   16.9640    5.3535 O   0  0  0  0  0  0  0  0  0  0  0  0
    3.1274   19.3359    7.0047 H   0  0  0  0  0  0  0  0  0  0  0  0
   13.9376   23.6575   -1.9304 C   0  0  0  0  0  0  0  0  0  0  0  0
   14.7765   24.7609   -2.3727 C   0  0  0  0  0  0  0  0  0  0  0  0
   16.0218   25.0263   -1.7932 C   0  0  0  0  0  0  0  0  0  0  0  0
   16.8156   26.0521   -2.2603 C   0  0  0  0  0  0  0  0  0  0  0  0
   16.4406   26.8636   -3.3040 C   0  0  0  0  0  0  0  0  0  0  0  0
   15.2156   26.6165   -3.8878 C   0  0  0  0  0  0  0  0  0  0  0  0
   14.4091   25.5771   -3.4166 C   0  0  0  0  0  0  0  0  0  0  0  0
  7  8  1  0  0  0
  8  9  2  0  0  0
  8 10  1  0  0  0
 10  6  1  0  0  0
  6 12  1  0  0  0
 12 13  1  0  0  0
 13 14  2  0  0  0
 14 15  1  0  0  0
 15 16  2  0  0  0
 16 17  1  0  0  0
 17 18  2  0  0  0
 18 19  1  0  0  0
 19 20  2  0  0  0
 20 21  1  0  0  0
 21 22  2  0  0  0
  6  2  1  0  0  0
  2  3  2  0  0  0
  2  4  1  0  0  0
  4  1  1  0  0  0
  1 51  1  0  0  0
 51 52  1  0  0  0
 52 53  2  0  0  0
 53 54  1  0  0  0
 54 55  2  0  0  0
 55 56  1  0  0  0
 56 57  2  0  0  0
  1 23  1  0  0  0
 23 24  2  0  0  0
 23 25  1  0  0  0
 25 27  1  0  0  0
 27 28  1  0  0  0
 28 29  2  0  0  0
 29 30  1  0  0  0
 30 31  2  0  0  0
 31 32  1  0  0  0
 32 33  1  0  0  0
 32 34  1  0  0  0
 34 35  2  0  0  0
 34 36  1  0  0  0
 36 42  1  0  0  0
 42 43  2  0  0  0
 42 44  1  0  0  0
 44 46  1  0  0  0
 46 47  1  0  0  0
 47 48  1  0  0  0
 47 49  2  0  0  0
 36 37  2  0  0  0
 37 38  1  0  0  0
 37 39  1  0  0  0
 39 40  2  0  0  0
 22 13  1  0  0  0
 57 52  1  0  0  0
 40 28  1  0  0  0
 21 16  1  0  0  0
 39 31  1  0  0  0
 10 11  1  0  0  0
  4  5  1  0  0  0
 25 26  1  0  0  0
 44 45  1  0  0  0
 48 50  1  0  0  0
 38 41  1  0  0  0
M  END
> <minimizedAffinity>
-7.81799

> <CNNscore>
0.1664752066

> <CNNaffinity>
7.1094102859

> <CNN_VS>
1.1835405827

> <CNNaffinity_variance>
0.1293943375

$$$$
[H]OC(=O)C([H])([H])N([H])C(=O)c1c(O[H])c2c([H])c(C([H])([H])N([H])C(=O)[C@@]([H])(N([H])C(=O)[C@@]([H])(N([H])C(=O)C([H])([H])[H])C([H])([H])c3c([H])c([H])c4c([H])c([H])c([H])c([H])c4c3[H])C([H])([H])c3c([H])c([H])c([H])c([H])c3[H])c([H])c([H])c2n(C([H])([H])[H])c1=O


 57 61  0  0  0  0  0  0  0  0999 V2000
   10.9746   24.0507    0.3193 C   0  0  0  0  0  0  0  0  0  0  0  0
    9.2521   23.7740    2.1683 C   0  0  0  0  0  0  0  0  0  0  0  0
    8.2722   23.5673    1.4212 O   0  0  0  0  0  0  0  0  0  0  0  0
   10.5754   24.0136    1.7416 N   0  0  0  0  0  0  0  0  0  0  0  0
   11.2908   24.1698    2.4931 H   0  0  0  0  0  0  0  0  0  0  0  0
    8.9102   23.7502    3.6451 C   0  0  0  0  0  0  0  0  0  0  0  0
   10.7343   20.6960    5.1668 C   0  0  0  0  0  0  0  0  0  0  0  0
    9.7867   21.5074    4.3777 C   0  0  0  0  0  0  0  0  0  0  0  0
    8.9394   20.9229    3.6734 O   0  0  0  0  0  0  0  0  0  0  0  0
    9.8046   22.9234    4.3912 N   0  0  0  0  0  0  0  0  0  0  0  0
   10.5406   23.3816    5.0031 H   0  0  0  0  0  0  0  0  0  0  0  0
    9.0197   25.1944    4.0876 C   0  0  0  0  0  0  0  0  0  0  0  0
    7.7602   25.9476    3.9170 C   0  0  0  0  0  0  0  0  0  0  0  0
    6.5966   25.6384    4.5817 C   0  0  0  0  0  0  0  0  0  0  0  0
    5.4293   26.3553    4.4161 C   0  0  0  0  0  0  0  0  0  0  0  0
    5.4269   27.4441    3.5353 C   0  0  0  0  0  0  0  0  0  0  0  0
    4.2651   28.1688    3.3648 C   0  0  0  0  0  0  0  0  0  0  0  0
    4.2884   29.2437    2.4895 C   0  0  0  0  0  0  0  0  0  0  0  0
    5.4468   29.5642    1.8172 C   0  0  0  0  0  0  0  0  0  0  0  0
    6.5830   28.8388    1.9970 C   0  0  0  0  0  0  0  0  0  0  0  0
    6.5742   27.7725    2.8609 C   0  0  0  0  0  0  0  0  0  0  0  0
    7.7186   27.0223    3.0611 C   0  0  0  0  0  0  0  0  0  0  0  0
   10.8586   22.6840   -0.1819 C   0  0  0  0  0  0  0  0  0  0  0  0
   11.6739   21.7553    0.1124 O   0  0  0  0  0  0  0  0  0  0  0  0
    9.7999   22.2734   -1.0528 N   0  0  0  0  0  0  0  0  0  0  0  0
    9.0596   22.9465   -1.3362 H   0  0  0  0  0  0  0  0  0  0  0  0
    9.6653   20.9270   -1.5596 C   0  0  0  0  0  0  0  0  0  0  0  0
    8.3039   20.3563   -1.3398 C   0  0  0  0  0  0  0  0  0  0  0  0
    7.5822   19.8552   -2.4248 C   0  0  0  0  0  0  0  0  0  0  0  0
    6.3343   19.3027   -2.3120 C   0  0  0  0  0  0  0  0  0  0  0  0
    5.7777   19.2500   -1.0340 C   0  0  0  0  0  0  0  0  0  0  0  0
    4.5608   18.7049   -0.9272 N   0  0  0  0  0  0  0  0  0  0  0  0
    3.8578   18.1949   -2.0979 C   0  0  0  0  0  0  0  0  0  0  0  0
    3.9911   18.6332    0.3076 C   0  0  0  0  0  0  0  0  0  0  0  0
    2.8364   18.1072    0.3536 O   0  0  0  0  0  0  0  0  0  0  0  0
    4.5810   19.0815    1.4409 C   0  0  0  0  0  0  0  0  0  0  0  0
    5.8676   19.6537    1.2972 C   0  0  0  0  0  0  0  0  0  0  0  0
    6.5017   20.1202    2.4126 O   0  0  0  0  0  0  0  0  0  0  0  0
    6.4594   19.7348    0.0591 C   0  0  0  0  0  0  0  0  0  0  0  0
    7.7230   20.2865   -0.1068 C   0  0  0  0  0  0  0  0  0  0  0  0
    7.3795   20.5430    2.5122 H   0  0  0  0  0  0  0  0  0  0  0  0
    4.0376   19.0216    2.7756 C   0  0  0  0  0  0  0  0  0  0  0  0
    4.0198   20.1028    3.4777 O   0  0  0  0  0  0  0  0  0  0  0  0
    3.5221   17.8600    3.3716 N   0  0  0  0  0  0  0  0  0  0  0  0
    3.4594   16.9280    2.9514 H   0  0  0  0  0  0  0  0  0  0  0  0
    3.0133   17.9980    4.7578 C   0  0  0  0  0  0  0  0  0  0  0  0
    4.0696   17.6729    5.7271 C   0  0  0  0  0  0  0  0  0  0  0  0
    4.7843   18.7545    6.2542 O   0  0  0  0  0  0  0  0  0  0  0  0
    4.3237   16.5101    6.0672 O   0  0  0  0  0  0  0  0  0  0  0  0
    5.3049   19.2999    5.5700 H   0  0  0  0  0  0  0  0  0  0  0  0
   12.2676   24.7440    0.2904 C   0  0  0  0  0  0  0  0  0  0  0  0
   13.0035   24.8888   -0.9564 C   0  0  0  0  0  0  0  0  0  0  0  0
   14.1724   24.1661   -1.2175 C   0  0  0  0  0  0  0  0  0  0  0  0
   14.8266   24.2905   -2.4248 C   0  0  0  0  0  0  0  0  0  0  0  0
   14.3807   25.1170   -3.4280 C   0  0  0  0  0  0  0  0  0  0  0  0
   13.2293   25.8375   -3.1880 C   0  0  0  0  0  0  0  0  0  0  0  0
   12.5640   25.7130   -1.9655 C   0  0  0  0  0  0  0  0  0  0  0  0
  7  8  1  0  0  0
  8  9  2  0  0  0
  8 10  1  0  0  0
 10  6  1  0  0  0
  6 12  1  0  0  0
 12 13  1  0  0  0
 13 14  2  0  0  0
 14 15  1  0  0  0
 15 16  2  0  0  0
 16 17  1  0  0  0
 17 18  2  0  0  0
 18 19  1  0  0  0
 19 20  2  0  0  0
 20 21  1  0  0  0
 21 22  2  0  0  0
  6  2  1  0  0  0
  2  3  2  0  0  0
  2  4  1  0  0  0
  4  1  1  0  0  0
  1 51  1  0  0  0
 51 52  1  0  0  0
 52 53  2  0  0  0
 53 54  1  0  0  0
 54 55  2  0  0  0
 55 56  1  0  0  0
 56 57  2  0  0  0
  1 23  1  0  0  0
 23 24  2  0  0  0
 23 25  1  0  0  0
 25 27  1  0  0  0
 27 28  1  0  0  0
 28 29  2  0  0  0
 29 30  1  0  0  0
 30 31  2  0  0  0
 31 32  1  0  0  0
 32 33  1  0  0  0
 32 34  1  0  0  0
 34 35  2  0  0  0
 34 36  1  0  0  0
 36 42  1  0  0  0
 42 43  2  0  0  0
 42 44  1  0  0  0
 44 46  1  0  0  0
 46 47  1  0  0  0
 47 48  1  0  0  0
 47 49  2  0  0  0
 36 37  2  0  0  0
 37 38  1  0  0  0
 37 39  1  0  0  0
 39 40  2  0  0  0
 22 13  1  0  0  0
 57 52  1  0  0  0
 40 28  1  0  0  0
 21 16  1  0  0  0
 39 31  1  0  0  0
 10 11  1  0  0  0
  4  5  1  0  0  0
 25 26  1  0  0  0
 44 45  1  0  0  0
 48 50  1  0  0  0
 38 41  1  0  0  0
M  END
> <minimizedAffinity>
-10.13280

> <CNNscore>
0.1645347029

> <CNNaffinity>
6.7674179077

> <CNN_VS>
1.1134750843

> <CNNaffinity_variance>
0.7006794810

$$$$
[H]c1nc2c([H])c(N([H])C(=O)OC(C([H])([H])[H])(C([H])([H])[H])C([H])([H])[H])c([H])c(-c3c([H])c([H])c(C#N)c([H])c3[H])n2n1


 26 28  0  0  0  0  0  0  0  0999 V2000
   11.6312   23.9006   -0.4919 C   0  0  0  0  0  0  0  0  0  0  0  0
   12.1411   24.3084   -1.7331 C   0  0  0  0  0  0  0  0  0  0  0  0
   13.4609   24.5982   -1.8726 C   0  0  0  0  0  0  0  0  0  0  0  0
   14.3249   24.5102   -0.8491 N   0  0  0  0  0  0  0  0  0  0  0  0
   15.6414   24.7359   -0.7347 N   0  0  0  0  0  0  0  0  0  0  0  0
   16.0278   24.4943    0.5354 C   0  0  0  0  0  0  0  0  0  0  0  0
   14.9332   24.1076    1.2392 N   0  0  0  0  0  0  0  0  0  0  0  0
   13.9001   24.1279    0.3561 C   0  0  0  0  0  0  0  0  0  0  0  0
   12.5413   23.8201    0.5381 C   0  0  0  0  0  0  0  0  0  0  0  0
   14.0221   25.0318   -3.1782 C   0  0  0  0  0  0  0  0  0  0  0  0
   13.6401   26.2185   -3.7654 C   0  0  0  0  0  0  0  0  0  0  0  0
   14.1713   26.6058   -4.9782 C   0  0  0  0  0  0  0  0  0  0  0  0
   15.0988   25.8375   -5.6576 C   0  0  0  0  0  0  0  0  0  0  0  0
   15.4770   24.6505   -5.0642 C   0  0  0  0  0  0  0  0  0  0  0  0
   14.9459   24.2628   -3.8511 C   0  0  0  0  0  0  0  0  0  0  0  0
   15.6503   26.2421   -6.9195 C   0  0  0  0  0  0  0  0  0  0  0  0
   16.0996   26.5655   -7.9360 N   0  0  0  0  0  0  0  0  0  0  0  0
    9.4169   23.6445    0.7205 C   0  0  0  0  0  0  0  0  0  0  0  0
    9.8294   23.9363    1.8512 O   0  0  0  0  0  0  0  0  0  0  0  0
   10.2528   23.6198   -0.4051 N   0  0  0  0  0  0  0  0  0  0  0  0
    9.7902   23.3528   -1.3471 H   0  0  0  0  0  0  0  0  0  0  0  0
    8.0613   23.3292    0.5754 O   0  0  0  0  0  0  0  0  0  0  0  0
    8.6595   20.9906    0.3085 C   0  0  0  0  0  0  0  0  0  0  0  0
    7.5983   21.9985    0.7017 C   0  0  0  0  0  0  0  0  0  0  0  0
    6.3734   21.7402   -0.1486 C   0  0  0  0  0  0  0  0  0  0  0  0
    7.2264   21.7314    2.1321 C   0  0  0  0  0  0  0  0  0  0  0  0
 23 24  1  0  0  0
 24 25  1  0  0  0
 24 26  1  0  0  0
 24 22  1  0  0  0
 22 18  1  0  0  0
 18 19  2  0  0  0
 18 20  1  0  0  0
 20  1  1  0  0  0
  1  2  1  0  0  0
  2  3  2  0  0  0
  3 10  1  0  0  0
 10 11  2  0  0  0
 11 12  1  0  0  0
 12 13  2  0  0  0
 13 14  1  0  0  0
 14 15  2  0  0  0
 13 16  1  0  0  0
 16 17  3  0  0  0
  3  4  1  0  0  0
  4  5  1  0  0  0
  5  6  2  0  0  0
  6  7  1  0  0  0
  7  8  2  0  0  0
  8  9  1  0  0  0
  9  1  2  0  0  0
 15 10  1  0  0  0
  8  4  1  0  0  0
 20 21  1  0  0  0
M  END
> <minimizedAffinity>
-8.54287

> <CNNscore>
0.7571279407

> <CNNaffinity>
7.1352815628

> <CNN_VS>
5.4023208618

> <CNNaffinity_variance>
0.2157505304

$$$$
[H]c1nc2c([H])c(N([H])C(=O)OC(C([H])([H])[H])(C([H])([H])[H])C([H])([H])[H])c([H])c(-c3c([H])c([H])c(C#N)c([H])c3[H])n2n1


 26 28  0  0  0  0  0  0  0  0999 V2000
   11.1297   22.0714   -0.6834 C   0  0  0  0  0  0  0  0  0  0  0  0
   11.6572   23.0477   -1.5411 C   0  0  0  0  0  0  0  0  0  0  0  0
   12.9583   23.4240   -1.4367 C   0  0  0  0  0  0  0  0  0  0  0  0
   13.7867   22.8904   -0.5253 N   0  0  0  0  0  0  0  0  0  0  0  0
   15.0792   23.0882   -0.2296 N   0  0  0  0  0  0  0  0  0  0  0  0
   15.4327   22.2812    0.7925 C   0  0  0  0  0  0  0  0  0  0  0  0
   14.3414   21.5576    1.1508 N   0  0  0  0  0  0  0  0  0  0  0  0
   13.3437   21.9573    0.3187 C   0  0  0  0  0  0  0  0  0  0  0  0
   12.0033   21.5431    0.2404 C   0  0  0  0  0  0  0  0  0  0  0  0
   13.5376   24.4561   -2.3350 C   0  0  0  0  0  0  0  0  0  0  0  0
   12.9252   25.6775   -2.5142 C   0  0  0  0  0  0  0  0  0  0  0  0
   13.4769   26.6244   -3.3521 C   0  0  0  0  0  0  0  0  0  0  0  0
   14.6530   26.4025   -4.0447 C   0  0  0  0  0  0  0  0  0  0  0  0
   15.2611   25.1775   -3.8609 C   0  0  0  0  0  0  0  0  0  0  0  0
   14.7096   24.2301   -3.0228 C   0  0  0  0  0  0  0  0  0  0  0  0
   15.2255   27.3889   -4.9162 C   0  0  0  0  0  0  0  0  0  0  0  0
   15.6828   28.1875   -5.6182 N   0  0  0  0  0  0  0  0  0  0  0  0
    8.8353   21.3809    0.1517 C   0  0  0  0  0  0  0  0  0  0  0  0
    9.1204   21.3362    1.3561 O   0  0  0  0  0  0  0  0  0  0  0  0
    9.7717   21.7258   -0.8335 N   0  0  0  0  0  0  0  0  0  0  0  0
    9.4177   21.7359   -1.8568 H   0  0  0  0  0  0  0  0  0  0  0  0
    7.5237   21.0728   -0.2262 O   0  0  0  0  0  0  0  0  0  0  0  0
    6.3735   18.9755    0.1937 C   0  0  0  0  0  0  0  0  0  0  0  0
    7.1929   19.8096   -0.7703 C   0  0  0  0  0  0  0  0  0  0  0  0
    8.4236   19.0128   -1.1452 C   0  0  0  0  0  0  0  0  0  0  0  0
    6.3746   19.9994   -2.0153 C   0  0  0  0  0  0  0  0  0  0  0  0
 23 24  1  0  0  0
 24 25  1  0  0  0
 24 26  1  0  0  0
 24 22  1  0  0  0
 22 18  1  0  0  0
 18 19  2  0  0  0
 18 20  1  0  0  0
 20  1  1  0  0  0
  1  2  1  0  0  0
  2  3  2  0  0  0
  3 10  1  0  0  0
 10 11  2  0  0  0
 11 12  1  0  0  0
 12 13  2  0  0  0
 13 14  1  0  0  0
 14 15  2  0  0  0
 13 16  1  0  0  0
 16 17  3  0  0  0
  3  4  1  0  0  0
  4  5  1  0  0  0
  5  6  2  0  0  0
  6  7  1  0  0  0
  7  8  2  0  0  0
  8  9  1  0  0  0
  9  1  2  0  0  0
 15 10  1  0  0  0
  8  4  1  0  0  0
 20 21  1  0  0  0
M  END
> <minimizedAffinity>
-7.74965

> <CNNscore>
0.6419510841

> <CNNaffinity>
7.1981916428

> <CNN_VS>
4.6208868027

> <CNNaffinity_variance>
0.4604156613

$$$$
[H]c1nc2c([H])c(N([H])C(=O)OC(C([H])([H])[H])(C([H])([H])[H])C([H])([H])[H])c([H])c(-c3c([H])c([H])c(C#N)c([H])c3[H])n2n1


 26 28  0  0  0  0  0  0  0  0999 V2000
   13.0353   24.0708   -1.8680 C   0  0  0  0  0  0  0  0  0  0  0  0
   14.2741   24.6724   -2.1331 C   0  0  0  0  0  0  0  0  0  0  0  0
   14.3408   25.8164   -2.8626 C   0  0  0  0  0  0  0  0  0  0  0  0
   13.2455   26.4154   -3.3560 N   0  0  0  0  0  0  0  0  0  0  0  0
   13.0530   27.5224   -4.0872 N   0  0  0  0  0  0  0  0  0  0  0  0
   11.7332   27.6810   -4.3194 C   0  0  0  0  0  0  0  0  0  0  0  0
   11.0771   26.6531   -3.7228 N   0  0  0  0  0  0  0  0  0  0  0  0
   12.0386   25.8911   -3.1376 C   0  0  0  0  0  0  0  0  0  0  0  0
   11.9307   24.7082   -2.3871 C   0  0  0  0  0  0  0  0  0  0  0  0
   15.6424   26.4704   -3.1552 C   0  0  0  0  0  0  0  0  0  0  0  0
   15.9427   26.9403   -4.4153 C   0  0  0  0  0  0  0  0  0  0  0  0
   17.1562   27.5451   -4.6695 C   0  0  0  0  0  0  0  0  0  0  0  0
   18.1192   27.7091   -3.6908 C   0  0  0  0  0  0  0  0  0  0  0  0
   17.8123   27.2364   -2.4313 C   0  0  0  0  0  0  0  0  0  0  0  0
   16.5985   26.6315   -2.1766 C   0  0  0  0  0  0  0  0  0  0  0  0
   19.3814   28.3386   -3.9572 C   0  0  0  0  0  0  0  0  0  0  0  0
   20.3976   28.8472   -4.1771 N   0  0  0  0  0  0  0  0  0  0  0  0
   12.8476   22.7158    0.2691 C   0  0  0  0  0  0  0  0  0  0  0  0
   12.6627   23.6698    1.0368 O   0  0  0  0  0  0  0  0  0  0  0  0
   13.0279   22.8817   -1.1116 N   0  0  0  0  0  0  0  0  0  0  0  0
   13.1808   21.9807   -1.6925 H   0  0  0  0  0  0  0  0  0  0  0  0
   12.8753   21.4275    0.8147 O   0  0  0  0  0  0  0  0  0  0  0  0
   15.2824   21.4800    1.1328 C   0  0  0  0  0  0  0  0  0  0  0  0
   14.0573   20.6504    0.8053 C   0  0  0  0  0  0  0  0  0  0  0  0
   14.2896   19.9862   -0.5345 C   0  0  0  0  0  0  0  0  0  0  0  0
   13.9527   19.5672    1.8404 C   0  0  0  0  0  0  0  0  0  0  0  0
 23 24  1  0  0  0
 24 25  1  0  0  0
 24 26  1  0  0  0
 24 22  1  0  0  0
 22 18  1  0  0  0
 18 19  2  0  0  0
 18 20  1  0  0  0
 20  1  1  0  0  0
  1  2  1  0  0  0
  2  3  2  0  0  0
  3 10  1  0  0  0
 10 11  2  0  0  0
 11 12  1  0  0  0
 12 13  2  0  0  0
 13 14  1  0  0  0
 14 15  2  0  0  0
 13 16  1  0  0  0
 16 17  3  0  0  0
  3  4  1  0  0  0
  4  5  1  0  0  0
  5  6  2  0  0  0
  6  7  1  0  0  0
  7  8  2  0  0  0
  8  9  1  0  0  0
  9  1  2  0  0  0
 15 10  1  0  0  0
  8  4  1  0  0  0
 20 21  1  0  0  0
M  END
> <minimizedAffinity>
7.95592

> <CNNscore>
0.6273309588

> <CNNaffinity>
6.8099174500

> <CNN_VS>
4.2720718384

> <CNNaffinity_variance>
1.1787019968

$$$$
[H]c1nc2c([H])c(N([H])C(=O)OC(C([H])([H])[H])(C([H])([H])[H])C([H])([H])[H])c([H])c(-c3c([H])c([H])c(C#N)c([H])c3[H])n2n1


 26 28  0  0  0  0  0  0  0  0999 V2000
   13.7505   24.6932   -1.7859 C   0  0  0  0  0  0  0  0  0  0  0  0
   14.4722   24.6103   -2.9856 C   0  0  0  0  0  0  0  0  0  0  0  0
   14.2801   25.5282   -3.9684 C   0  0  0  0  0  0  0  0  0  0  0  0
   13.4070   26.5399   -3.8419 N   0  0  0  0  0  0  0  0  0  0  0  0
   13.0455   27.5490   -4.6470 N   0  0  0  0  0  0  0  0  0  0  0  0
   12.1105   28.3008   -4.0294 C   0  0  0  0  0  0  0  0  0  0  0  0
   11.8755   27.7563   -2.8083 N   0  0  0  0  0  0  0  0  0  0  0  0
   12.6910   26.6720   -2.7242 C   0  0  0  0  0  0  0  0  0  0  0  0
   12.8630   25.7411   -1.6860 C   0  0  0  0  0  0  0  0  0  0  0  0
   15.0338   25.4592   -5.2469 C   0  0  0  0  0  0  0  0  0  0  0  0
   15.2223   26.5770   -6.0305 C   0  0  0  0  0  0  0  0  0  0  0  0
   15.9248   26.4951   -7.2149 C   0  0  0  0  0  0  0  0  0  0  0  0
   16.4677   25.3080   -7.6711 C   0  0  0  0  0  0  0  0  0  0  0  0
   16.2755   24.1926   -6.8819 C   0  0  0  0  0  0  0  0  0  0  0  0
   15.5729   24.2742   -5.6971 C   0  0  0  0  0  0  0  0  0  0  0  0
   17.1984   25.2247   -8.9038 C   0  0  0  0  0  0  0  0  0  0  0  0
   17.7837   25.1606   -9.9004 N   0  0  0  0  0  0  0  0  0  0  0  0
   13.1666   23.3122    0.2611 C   0  0  0  0  0  0  0  0  0  0  0  0
   12.0591   23.8230    0.4767 O   0  0  0  0  0  0  0  0  0  0  0  0
   13.9865   23.7093   -0.8049 N   0  0  0  0  0  0  0  0  0  0  0  0
   14.9351   23.1966   -0.9042 H   0  0  0  0  0  0  0  0  0  0  0  0
   13.6038   22.3002    1.1230 O   0  0  0  0  0  0  0  0  0  0  0  0
   12.4951   20.7586   -0.3910 C   0  0  0  0  0  0  0  0  0  0  0  0
   13.3742   20.9354    0.8306 C   0  0  0  0  0  0  0  0  0  0  0  0
   12.7178   20.2099    1.9852 C   0  0  0  0  0  0  0  0  0  0  0  0
   14.6840   20.2562    0.5495 C   0  0  0  0  0  0  0  0  0  0  0  0
 23 24  1  0  0  0
 24 25  1  0  0  0
 24 26  1  0  0  0
 24 22  1  0  0  0
 22 18  1  0  0  0
 18 19  2  0  0  0
 18 20  1  0  0  0
 20  1  1  0  0  0
  1  2  1  0  0  0
  2  3  2  0  0  0
  3 10  1  0  0  0
 10 11  2  0  0  0
 11 12  1  0  0  0
 12 13  2  0  0  0
 13 14  1  0  0  0
 14 15  2  0  0  0
 13 16  1  0  0  0
 16 17  3  0  0  0
  3  4  1  0  0  0
  4  5  1  0  0  0
  5  6  2  0  0  0
  6  7  1  0  0  0
  7  8  2  0  0  0
  8  9  1  0  0  0
  9  1  2  0  0  0
 15 10  1  0  0  0
  8  4  1  0  0  0
 20 21  1  0  0  0
M  END
> <minimizedAffinity>
7.06676

> <CNNscore>
0.5951729417

> <CNNaffinity>
6.7069411278

> <CNN_VS>
3.9917898178

> <CNNaffinity_variance>
0.7544388175

$$$$
[H]c1nc2c([H])c(N([H])C(=O)OC(C([H])([H])[H])(C([H])([H])[H])C([H])([H])[H])c([H])c(-c3c([H])c([H])c(C#N)c([H])c3[H])n2n1


 26 28  0  0  0  0  0  0  0  0999 V2000
   12.6188   25.5835   -2.6437 C   0  0  0  0  0  0  0  0  0  0  0  0
   13.5698   24.8405   -1.9291 C   0  0  0  0  0  0  0  0  0  0  0  0
   13.1755   23.9385   -0.9930 C   0  0  0  0  0  0  0  0  0  0  0  0
   11.8816   23.7183   -0.7116 N   0  0  0  0  0  0  0  0  0  0  0  0
   11.2528   22.9027    0.1466 N   0  0  0  0  0  0  0  0  0  0  0  0
    9.9194   23.0742    0.0310 C   0  0  0  0  0  0  0  0  0  0  0  0
    9.6999   24.0177   -0.9200 N   0  0  0  0  0  0  0  0  0  0  0  0
   10.9304   24.3942   -1.3578 C   0  0  0  0  0  0  0  0  0  0  0  0
   11.3006   25.3357   -2.3329 C   0  0  0  0  0  0  0  0  0  0  0  0
   14.1659   23.1408   -0.2246 C   0  0  0  0  0  0  0  0  0  0  0  0
   14.0322   21.7770   -0.0797 C   0  0  0  0  0  0  0  0  0  0  0  0
   14.9612   21.0517    0.6373 C   0  0  0  0  0  0  0  0  0  0  0  0
   16.0567   21.6440    1.2383 C   0  0  0  0  0  0  0  0  0  0  0  0
   16.1847   23.0098    1.0895 C   0  0  0  0  0  0  0  0  0  0  0  0
   15.2557   23.7356    0.3723 C   0  0  0  0  0  0  0  0  0  0  0  0
   17.0223   20.8877    1.9840 C   0  0  0  0  0  0  0  0  0  0  0  0
   17.7972   20.2738    2.5859 N   0  0  0  0  0  0  0  0  0  0  0  0
   14.0585   26.3353   -4.5933 C   0  0  0  0  0  0  0  0  0  0  0  0
   14.6622   25.2662   -4.7559 O   0  0  0  0  0  0  0  0  0  0  0  0
   13.0864   26.5095   -3.5977 N   0  0  0  0  0  0  0  0  0  0  0  0
   12.6178   27.4841   -3.5426 H   0  0  0  0  0  0  0  0  0  0  0  0
   14.3687   27.4025   -5.4435 O   0  0  0  0  0  0  0  0  0  0  0  0
   16.2295   26.9895   -6.9484 C   0  0  0  0  0  0  0  0  0  0  0  0
   15.7100   27.7409   -5.7393 C   0  0  0  0  0  0  0  0  0  0  0  0
   16.6375   27.4532   -4.5787 C   0  0  0  0  0  0  0  0  0  0  0  0
   15.8006   29.2089   -6.0437 C   0  0  0  0  0  0  0  0  0  0  0  0
 23 24  1  0  0  0
 24 25  1  0  0  0
 24 26  1  0  0  0
 24 22  1  0  0  0
 22 18  1  0  0  0
 18 19  2  0  0  0
 18 20  1  0  0  0
 20  1  1  0  0  0
  1  2  1  0  0  0
  2  3  2  0  0  0
  3 10  1  0  0  0
 10 11  2  0  0  0
 11 12  1  0  0  0
 12 13  2  0  0  0
 13 14  1  0  0  0
 14 15  2  0  0  0
 13 16  1  0  0  0
 16 17  3  0  0  0
  3  4  1  0  0  0
  4  5  1  0  0  0
  5  6  2  0  0  0
  6  7  1  0  0  0
  7  8  2  0  0  0
  8  9  1  0  0  0
  9  1  2  0  0  0
 15 10  1  0  0  0
  8  4  1  0  0  0
 20 21  1  0  0  0
M  END
> <minimizedAffinity>
4.52625

> <CNNscore>
0.5915417075

> <CNNaffinity>
6.8558998108

> <CNN_VS>
4.0555505753

> <CNNaffinity_variance>
0.6810940504

$$$$
[H]c1nc2c([H])c(N([H])C(=O)OC(C([H])([H])[H])(C([H])([H])[H])C([H])([H])[H])c([H])c(-c3c([H])c([H])c(C#N)c([H])c3[H])n2n1


 26 28  0  0  0  0  0  0  0  0999 V2000
   12.0825   23.4808   -0.4340 C   0  0  0  0  0  0  0  0  0  0  0  0
   12.5240   23.8977   -1.6982 C   0  0  0  0  0  0  0  0  0  0  0  0
   13.7959   24.3429   -1.8700 C   0  0  0  0  0  0  0  0  0  0  0  0
   14.6753   24.4045   -0.8577 N   0  0  0  0  0  0  0  0  0  0  0  0
   15.9546   24.7962   -0.7733 N   0  0  0  0  0  0  0  0  0  0  0  0
   16.3820   24.6563    0.4990 C   0  0  0  0  0  0  0  0  0  0  0  0
   15.3520   24.1658    1.2347 N   0  0  0  0  0  0  0  0  0  0  0  0
   14.3147   24.0219    0.3681 C   0  0  0  0  0  0  0  0  0  0  0  0
   13.0069   23.5557    0.5837 C   0  0  0  0  0  0  0  0  0  0  0  0
   14.2843   24.7892   -3.2003 C   0  0  0  0  0  0  0  0  0  0  0  0
   15.1869   24.0390   -3.9225 C   0  0  0  0  0  0  0  0  0  0  0  0
   15.6300   24.4684   -5.1563 C   0  0  0  0  0  0  0  0  0  0  0  0
   15.1999   25.6535   -5.7243 C   0  0  0  0  0  0  0  0  0  0  0  0
   14.2962   26.3999   -4.9961 C   0  0  0  0  0  0  0  0  0  0  0  0
   13.8527   25.9707   -3.7619 C   0  0  0  0  0  0  0  0  0  0  0  0
   15.6621   26.0987   -7.0082 C   0  0  0  0  0  0  0  0  0  0  0  0
   16.0399   26.4584   -8.0415 N   0  0  0  0  0  0  0  0  0  0  0  0
   10.2657   21.7232   -0.2138 C   0  0  0  0  0  0  0  0  0  0  0  0
   11.0109   20.7341   -0.2218 O   0  0  0  0  0  0  0  0  0  0  0  0
   10.7509   23.0350   -0.3143 N   0  0  0  0  0  0  0  0  0  0  0  0
   10.0135   23.8277   -0.2958 H   0  0  0  0  0  0  0  0  0  0  0  0
    8.8877   21.5083   -0.0994 O   0  0  0  0  0  0  0  0  0  0  0  0
    7.9882   23.4549    1.0408 C   0  0  0  0  0  0  0  0  0  0  0  0
    8.1664   21.9500    1.0346 C   0  0  0  0  0  0  0  0  0  0  0  0
    8.8455   21.5564    2.3284 C   0  0  0  0  0  0  0  0  0  0  0  0
    6.7980   21.3309    1.0300 C   0  0  0  0  0  0  0  0  0  0  0  0
 23 24  1  0  0  0
 24 25  1  0  0  0
 24 26  1  0  0  0
 24 22  1  0  0  0
 22 18  1  0  0  0
 18 19  2  0  0  0
 18 20  1  0  0  0
 20  1  1  0  0  0
  1  2  1  0  0  0
  2  3  2  0  0  0
  3 10  1  0  0  0
 10 11  2  0  0  0
 11 12  1  0  0  0
 12 13  2  0  0  0
 13 14  1  0  0  0
 14 15  2  0  0  0
 13 16  1  0  0  0
 16 17  3  0  0  0
  3  4  1  0  0  0
  4  5  1  0  0  0
  5  6  2  0  0  0
  6  7  1  0  0  0
  7  8  2  0  0  0
  8  9  1  0  0  0
  9  1  2  0  0  0
 15 10  1  0  0  0
  8  4  1  0  0  0
 20 21  1  0  0  0
M  END
> <minimizedAffinity>
-7.90377

> <CNNscore>
0.5662001371

> <CNNaffinity>
6.9617066383

> <CNN_VS>
3.9417192936

> <CNNaffinity_variance>
0.2421220243

$$$$
[H]c1nc2c([H])c(N([H])C(=O)OC(C([H])([H])[H])(C([H])([H])[H])C([H])([H])[H])c([H])c(-c3c([H])c([H])c(C#N)c([H])c3[H])n2n1


 26 28  0  0  0  0  0  0  0  0999 V2000
   11.1868   23.9581    0.9019 C   0  0  0  0  0  0  0  0  0  0  0  0
   11.7191   24.5542   -0.2507 C   0  0  0  0  0  0  0  0  0  0  0  0
   12.7973   24.0088   -0.8715 C   0  0  0  0  0  0  0  0  0  0  0  0
   13.3945   22.8943   -0.4208 N   0  0  0  0  0  0  0  0  0  0  0  0
   14.4452   22.1779   -0.8452 N   0  0  0  0  0  0  0  0  0  0  0  0
   14.6332   21.1275   -0.0191 C   0  0  0  0  0  0  0  0  0  0  0  0
   13.6818   21.1803    0.9478 N   0  0  0  0  0  0  0  0  0  0  0  0
   12.9345   22.2815    0.6710 C   0  0  0  0  0  0  0  0  0  0  0  0
   11.8207   22.8170    1.3396 C   0  0  0  0  0  0  0  0  0  0  0  0
   13.3771   24.6236   -2.0935 C   0  0  0  0  0  0  0  0  0  0  0  0
   12.8799   25.8002   -2.6104 C   0  0  0  0  0  0  0  0  0  0  0  0
   13.4303   26.3574   -3.7461 C   0  0  0  0  0  0  0  0  0  0  0  0
   14.4915   25.7751   -4.4146 C   0  0  0  0  0  0  0  0  0  0  0  0
   14.9847   24.5972   -3.8919 C   0  0  0  0  0  0  0  0  0  0  0  0
   14.4344   24.0396   -2.7559 C   0  0  0  0  0  0  0  0  0  0  0  0
   15.0629   26.3562   -5.5962 C   0  0  0  0  0  0  0  0  0  0  0  0
   15.5283   26.8258   -6.5463 N   0  0  0  0  0  0  0  0  0  0  0  0
    8.7777   24.0645    1.6914 C   0  0  0  0  0  0  0  0  0  0  0  0
    8.4445   22.9337    1.3117 O   0  0  0  0  0  0  0  0  0  0  0  0
   10.0718   24.5720    1.5070 N   0  0  0  0  0  0  0  0  0  0  0  0
   10.2581   25.5721    1.8781 H   0  0  0  0  0  0  0  0  0  0  0  0
    7.8148   24.8555    2.3279 O   0  0  0  0  0  0  0  0  0  0  0  0
    8.5411   26.5738    3.8829 C   0  0  0  0  0  0  0  0  0  0  0  0
    7.9322   25.1989    3.6952 C   0  0  0  0  0  0  0  0  0  0  0  0
    8.7808   24.2058    4.4592 C   0  0  0  0  0  0  0  0  0  0  0  0
    6.5693   25.2159    4.3260 C   0  0  0  0  0  0  0  0  0  0  0  0
 23 24  1  0  0  0
 24 25  1  0  0  0
 24 26  1  0  0  0
 24 22  1  0  0  0
 22 18  1  0  0  0
 18 19  2  0  0  0
 18 20  1  0  0  0
 20  1  1  0  0  0
  1  2  1  0  0  0
  2  3  2  0  0  0
  3 10  1  0  0  0
 10 11  2  0  0  0
 11 12  1  0  0  0
 12 13  2  0  0  0
 13 14  1  0  0  0
 14 15  2  0  0  0
 13 16  1  0  0  0
 16 17  3  0  0  0
  3  4  1  0  0  0
  4  5  1  0  0  0
  5  6  2  0  0  0
  6  7  1  0  0  0
  7  8  2  0  0  0
  8  9  1  0  0  0
  9  1  2  0  0  0
 15 10  1  0  0  0
  8  4  1  0  0  0
 20 21  1  0  0  0
M  END
> <minimizedAffinity>
-9.19367

> <CNNscore>
0.5657206178

> <CNNaffinity>
6.6549162865

> <CNN_VS>
3.7648234367

> <CNNaffinity_variance>
0.0998240337

$$$$
[H]c1nc2c([H])c(N([H])C(=O)OC(C([H])([H])[H])(C([H])([H])[H])C([H])([H])[H])c([H])c(-c3c([H])c([H])c(C#N)c([H])c3[H])n2n1


 26 28  0  0  0  0  0  0  0  0999 V2000
   13.1888   24.0677   -0.7539 C   0  0  0  0  0  0  0  0  0  0  0  0
   14.3968   24.6651   -1.1420 C   0  0  0  0  0  0  0  0  0  0  0  0
   14.4188   25.5861   -2.1403 C   0  0  0  0  0  0  0  0  0  0  0  0
   13.3069   25.9622   -2.7916 N   0  0  0  0  0  0  0  0  0  0  0  0
   13.0727   26.8294   -3.7867 N   0  0  0  0  0  0  0  0  0  0  0  0
   11.7547   26.8322   -4.0764 C   0  0  0  0  0  0  0  0  0  0  0  0
   11.1424   25.9487   -3.2474 N   0  0  0  0  0  0  0  0  0  0  0  0
   12.1276   25.4296   -2.4679 C   0  0  0  0  0  0  0  0  0  0  0  0
   12.0662   24.4736   -1.4401 C   0  0  0  0  0  0  0  0  0  0  0  0
   15.6872   26.2314   -2.5673 C   0  0  0  0  0  0  0  0  0  0  0  0
   16.8631   26.0294   -1.8779 C   0  0  0  0  0  0  0  0  0  0  0  0
   18.0320   26.6364   -2.2882 C   0  0  0  0  0  0  0  0  0  0  0  0
   18.0852   27.4655   -3.3936 C   0  0  0  0  0  0  0  0  0  0  0  0
   16.9043   27.6636   -4.0795 C   0  0  0  0  0  0  0  0  0  0  0  0
   15.7350   27.0565   -3.6694 C   0  0  0  0  0  0  0  0  0  0  0  0
   19.3022   28.0963   -3.8190 C   0  0  0  0  0  0  0  0  0  0  0  0
   20.2825   28.6039   -4.1674 N   0  0  0  0  0  0  0  0  0  0  0  0
   13.3310   21.7184    0.1943 C   0  0  0  0  0  0  0  0  0  0  0  0
   13.4026   21.1226   -0.8891 O   0  0  0  0  0  0  0  0  0  0  0  0
   13.2278   23.1141    0.2830 N   0  0  0  0  0  0  0  0  0  0  0  0
   13.1726   23.5340    1.2796 H   0  0  0  0  0  0  0  0  0  0  0  0
   13.3550   20.9563    1.3676 O   0  0  0  0  0  0  0  0  0  0  0  0
   12.3798   19.4382    2.9932 C   0  0  0  0  0  0  0  0  0  0  0  0
   12.1603   20.5861    2.0285 C   0  0  0  0  0  0  0  0  0  0  0  0
   11.0767   20.1754    1.0552 C   0  0  0  0  0  0  0  0  0  0  0  0
   11.6444   21.7529    2.8211 C   0  0  0  0  0  0  0  0  0  0  0  0
 23 24  1  0  0  0
 24 25  1  0  0  0
 24 26  1  0  0  0
 24 22  1  0  0  0
 22 18  1  0  0  0
 18 19  2  0  0  0
 18 20  1  0  0  0
 20  1  1  0  0  0
  1  2  1  0  0  0
  2  3  2  0  0  0
  3 10  1  0  0  0
 10 11  2  0  0  0
 11 12  1  0  0  0
 12 13  2  0  0  0
 13 14  1  0  0  0
 14 15  2  0  0  0
 13 16  1  0  0  0
 16 17  3  0  0  0
  3  4  1  0  0  0
  4  5  1  0  0  0
  5  6  2  0  0  0
  6  7  1  0  0  0
  7  8  2  0  0  0
  8  9  1  0  0  0
  9  1  2  0  0  0
 15 10  1  0  0  0
  8  4  1  0  0  0
 20 21  1  0  0  0
M  END
> <minimizedAffinity>
3.15710

> <CNNscore>
0.5472282767

> <CNNaffinity>
6.5828218460

> <CNN_VS>
3.6023063660

> <CNNaffinity_variance>
0.8392933607

$$$$
[H]c1nc2c([H])c(N([H])C(=O)OC(C([H])([H])[H])(C([H])([H])[H])C([H])([H])[H])c([H])c(-c3c([H])c([H])c(C#N)c([H])c3[H])n2n1


 26 28  0  0  0  0  0  0  0  0999 V2000
   16.3515   24.0802   -0.9896 C   0  0  0  0  0  0  0  0  0  0  0  0
   15.0320   23.6401   -0.8107 C   0  0  0  0  0  0  0  0  0  0  0  0
   14.7289   22.7603    0.1790 C   0  0  0  0  0  0  0  0  0  0  0  0
   15.6594   22.2786    1.0180 N   0  0  0  0  0  0  0  0  0  0  0  0
   15.6139   21.4226    2.0487 N   0  0  0  0  0  0  0  0  0  0  0  0
   16.8527   21.2757    2.5631 C   0  0  0  0  0  0  0  0  0  0  0  0
   17.6997   22.0549    1.8430 N   0  0  0  0  0  0  0  0  0  0  0  0
   16.9321   22.6597    0.8982 C   0  0  0  0  0  0  0  0  0  0  0  0
   17.2830   23.5686   -0.1142 C   0  0  0  0  0  0  0  0  0  0  0  0
   13.3379   22.2811    0.3863 C   0  0  0  0  0  0  0  0  0  0  0  0
   12.2736   23.1559    0.4133 C   0  0  0  0  0  0  0  0  0  0  0  0
   10.9882   22.6938    0.6069 C   0  0  0  0  0  0  0  0  0  0  0  0
   10.7042   21.3518    0.7813 C   0  0  0  0  0  0  0  0  0  0  0  0
   11.7744   20.4811    0.7532 C   0  0  0  0  0  0  0  0  0  0  0  0
   13.0601   20.9430    0.5595 C   0  0  0  0  0  0  0  0  0  0  0  0
    9.3662   20.8727    0.9827 C   0  0  0  0  0  0  0  0  0  0  0  0
    8.2889   20.4837    1.1497 N   0  0  0  0  0  0  0  0  0  0  0  0
   16.3414   24.8518   -3.4068 C   0  0  0  0  0  0  0  0  0  0  0  0
   15.8124   23.8397   -3.8860 O   0  0  0  0  0  0  0  0  0  0  0  0
   16.6078   24.9879   -2.0369 N   0  0  0  0  0  0  0  0  0  0  0  0
   17.0719   25.9144   -1.7227 H   0  0  0  0  0  0  0  0  0  0  0  0
   16.6813   25.8923   -4.2786 O   0  0  0  0  0  0  0  0  0  0  0  0
   17.4490   28.1088   -4.9078 C   0  0  0  0  0  0  0  0  0  0  0  0
   17.2690   27.0878   -3.8026 C   0  0  0  0  0  0  0  0  0  0  0  0
   18.6219   26.8430   -3.1702 C   0  0  0  0  0  0  0  0  0  0  0  0
   16.3806   27.7012   -2.7583 C   0  0  0  0  0  0  0  0  0  0  0  0
 23 24  1  0  0  0
 24 25  1  0  0  0
 24 26  1  0  0  0
 24 22  1  0  0  0
 22 18  1  0  0  0
 18 19  2  0  0  0
 18 20  1  0  0  0
 20  1  1  0  0  0
  1  2  1  0  0  0
  2  3  2  0  0  0
  3 10  1  0  0  0
 10 11  2  0  0  0
 11 12  1  0  0  0
 12 13  2  0  0  0
 13 14  1  0  0  0
 14 15  2  0  0  0
 13 16  1  0  0  0
 16 17  3  0  0  0
  3  4  1  0  0  0
  4  5  1  0  0  0
  5  6  2  0  0  0
  6  7  1  0  0  0
  7  8  2  0  0  0
  8  9  1  0  0  0
  9  1  2  0  0  0
 15 10  1  0  0  0
  8  4  1  0  0  0
 20 21  1  0  0  0
M  END
> <minimizedAffinity>
11.18598

> <CNNscore>
0.5207136869

> <CNNaffinity>
6.8228783607

> <CNN_VS>
3.5527660847

> <CNNaffinity_variance>
1.3906891346

$$$$
