[H]OC(=O)c1c([H])c(Oc2c([H])c([H])c(O[H])c(O[H])c2[H])c2c([H])c(O[H])c(O[H])c([H])c2c1[H]


 29 31  0  0  0  0  0  0  0  0999 V2000
   13.6344   26.0707   -3.1316 C   0  0  0  0  0  0  0  0  0  0  0  0
   14.9634   25.8612   -2.8284 C   0  0  0  0  0  0  0  0  0  0  0  0
   15.3081   25.1543   -1.6962 C   0  0  0  0  0  0  0  0  0  0  0  0
   16.6299   24.9332   -1.3743 C   0  0  0  0  0  0  0  0  0  0  0  0
   16.9620   24.2254   -0.2403 C   0  0  0  0  0  0  0  0  0  0  0  0
   18.2846   23.9998    0.0890 O   0  0  0  0  0  0  0  0  0  0  0  0
   15.9800   23.7176    0.6055 C   0  0  0  0  0  0  0  0  0  0  0  0
   16.2883   23.0062    1.7458 O   0  0  0  0  0  0  0  0  0  0  0  0
   14.6706   23.9535    0.2592 C   0  0  0  0  0  0  0  0  0  0  0  0
   14.2972   24.6599   -0.8714 C   0  0  0  0  0  0  0  0  0  0  0  0
   12.9678   24.8575   -1.1554 C   0  0  0  0  0  0  0  0  0  0  0  0
   12.6391   25.5662   -2.2909 C   0  0  0  0  0  0  0  0  0  0  0  0
   18.5505   23.4842    0.9145 H   0  0  0  0  0  0  0  0  0  0  0  0
   15.5421   22.6618    2.3214 H   0  0  0  0  0  0  0  0  0  0  0  0
   12.0839   27.5339   -4.3977 O   0  0  0  0  0  0  0  0  0  0  0  0
   13.2554   26.8177   -4.3277 C   0  0  0  0  0  0  0  0  0  0  0  0
   14.0163   26.8144   -5.3338 O   0  0  0  0  0  0  0  0  0  0  0  0
   11.9547   28.3606   -4.9577 H   0  0  0  0  0  0  0  0  0  0  0  0
   12.0050   24.3601   -0.3272 O   0  0  0  0  0  0  0  0  0  0  0  0
   11.5075   23.0947   -0.3205 C   0  0  0  0  0  0  0  0  0  0  0  0
   10.9961   22.4963   -1.4494 C   0  0  0  0  0  0  0  0  0  0  0  0
   10.4910   21.1955   -1.4164 C   0  0  0  0  0  0  0  0  0  0  0  0
   10.4943   20.4871   -0.2572 C   0  0  0  0  0  0  0  0  0  0  0  0
   10.0008   19.2114   -0.2175 O   0  0  0  0  0  0  0  0  0  0  0  0
   11.0060   21.0718    0.8951 C   0  0  0  0  0  0  0  0  0  0  0  0
   11.0203   20.3717    2.0862 O   0  0  0  0  0  0  0  0  0  0  0  0
   11.5077   22.3716    0.8499 C   0  0  0  0  0  0  0  0  0  0  0  0
    9.9533   18.6038    0.5705 H   0  0  0  0  0  0  0  0  0  0  0  0
   11.3955   20.8149    2.9077 H   0  0  0  0  0  0  0  0  0  0  0  0
 15 16  1  0  0  0
 16 17  2  0  0  0
 16  1  1  0  0  0
  1  2  2  0  0  0
  2  3  1  0  0  0
  3  4  2  0  0  0
  4  5  1  0  0  0
  5  6  1  0  0  0
  5  7  2  0  0  0
  7  8  1  0  0  0
  7  9  1  0  0  0
  9 10  2  0  0  0
 10 11  1  0  0  0
 11 19  1  0  0  0
 19 20  1  0  0  0
 20 21  2  0  0  0
 21 22  1  0  0  0
 22 23  2  0  0  0
 23 24  1  0  0  0
 23 25  1  0  0  0
 25 26  1  0  0  0
 25 27  2  0  0  0
 11 12  2  0  0  0
 12  1  1  0  0  0
 10  3  1  0  0  0
 27 20  1  0  0  0
 15 18  1  0  0  0
  6 13  1  0  0  0
  8 14  1  0  0  0
 24 28  1  0  0  0
 26 29  1  0  0  0
M  END
> <minimizedAffinity>
-5.75498

> <CNNscore>
0.5704709888

> <CNNaffinity>
6.5181198120

> <CNN_VS>
3.7183983326

> <CNNaffinity_variance>
0.3515971303

$$$$
[H]OC(=O)c1c([H])c(Oc2c([H])c([H])c(O[H])c(O[H])c2[H])c2c([H])c(O[H])c(O[H])c([H])c2c1[H]


 29 31  0  0  0  0  0  0  0  0999 V2000
   15.9858   24.2253   -0.4492 C   0  0  0  0  0  0  0  0  0  0  0  0
   16.5963   25.1754   -1.2408 C   0  0  0  0  0  0  0  0  0  0  0  0
   15.9507   25.6575   -2.3594 C   0  0  0  0  0  0  0  0  0  0  0  0
   16.5423   26.6071   -3.1644 C   0  0  0  0  0  0  0  0  0  0  0  0
   15.8874   27.0813   -4.2795 C   0  0  0  0  0  0  0  0  0  0  0  0
   16.4738   28.0330   -5.0912 O   0  0  0  0  0  0  0  0  0  0  0  0
   14.6200   26.6185   -4.6219 C   0  0  0  0  0  0  0  0  0  0  0  0
   13.9453   27.0783   -5.7331 O   0  0  0  0  0  0  0  0  0  0  0  0
   14.0549   25.6718   -3.8008 C   0  0  0  0  0  0  0  0  0  0  0  0
   14.6810   25.1709   -2.6722 C   0  0  0  0  0  0  0  0  0  0  0  0
   14.0557   24.2249   -1.8970 C   0  0  0  0  0  0  0  0  0  0  0  0
   14.7138   23.7526   -0.7820 C   0  0  0  0  0  0  0  0  0  0  0  0
   16.0125   28.3942   -5.9126 H   0  0  0  0  0  0  0  0  0  0  0  0
   13.0334   26.7117   -5.9352 H   0  0  0  0  0  0  0  0  0  0  0  0
   16.1575   22.6431    1.4522 O   0  0  0  0  0  0  0  0  0  0  0  0
   16.6583   23.7061    0.7384 C   0  0  0  0  0  0  0  0  0  0  0  0
   17.7315   24.2395    1.1322 O   0  0  0  0  0  0  0  0  0  0  0  0
   16.7209   21.9916    1.9736 H   0  0  0  0  0  0  0  0  0  0  0  0
   12.8138   23.7710   -2.2319 O   0  0  0  0  0  0  0  0  0  0  0  0
   11.8575   23.3077   -1.3837 C   0  0  0  0  0  0  0  0  0  0  0  0
   10.9935   24.1457   -0.7163 C   0  0  0  0  0  0  0  0  0  0  0  0
   10.0198   23.6450    0.1495 C   0  0  0  0  0  0  0  0  0  0  0  0
    9.9047   22.3067    0.3527 C   0  0  0  0  0  0  0  0  0  0  0  0
    8.9525   21.8088    1.2001 O   0  0  0  0  0  0  0  0  0  0  0  0
   10.7668   21.4419   -0.3110 C   0  0  0  0  0  0  0  0  0  0  0  0
   10.6695   20.0769   -0.1209 O   0  0  0  0  0  0  0  0  0  0  0  0
   11.7352   21.9536   -1.1732 C   0  0  0  0  0  0  0  0  0  0  0  0
    8.7787   20.8536    1.4228 H   0  0  0  0  0  0  0  0  0  0  0  0
   11.3042   19.4699   -0.6117 H   0  0  0  0  0  0  0  0  0  0  0  0
 15 16  1  0  0  0
 16 17  2  0  0  0
 16  1  1  0  0  0
  1  2  2  0  0  0
  2  3  1  0  0  0
  3  4  2  0  0  0
  4  5  1  0  0  0
  5  6  1  0  0  0
  5  7  2  0  0  0
  7  8  1  0  0  0
  7  9  1  0  0  0
  9 10  2  0  0  0
 10 11  1  0  0  0
 11 19  1  0  0  0
 19 20  1  0  0  0
 20 21  2  0  0  0
 21 22  1  0  0  0
 22 23  2  0  0  0
 23 24  1  0  0  0
 23 25  1  0  0  0
 25 26  1  0  0  0
 25 27  2  0  0  0
 11 12  2  0  0  0
 12  1  1  0  0  0
 10  3  1  0  0  0
 27 20  1  0  0  0
 15 18  1  0  0  0
  6 13  1  0  0  0
  8 14  1  0  0  0
 24 28  1  0  0  0
 26 29  1  0  0  0
M  END
> <minimizedAffinity>
-8.50800

> <CNNscore>
0.5199183226

> <CNNaffinity>
6.4343414307

> <CNN_VS>
3.3453319073

> <CNNaffinity_variance>
0.0632684082

$$$$
[H]OC(=O)c1c([H])c(Oc2c([H])c([H])c(O[H])c(O[H])c2[H])c2c([H])c(O[H])c(O[H])c([H])c2c1[H]


 29 31  0  0  0  0  0  0  0  0999 V2000
   15.5823   25.3152   -5.5986 C   0  0  0  0  0  0  0  0  0  0  0  0
   15.9501   26.1987   -4.6055 C   0  0  0  0  0  0  0  0  0  0  0  0
   15.9423   25.7949   -3.2874 C   0  0  0  0  0  0  0  0  0  0  0  0
   16.3062   26.6613   -2.2791 C   0  0  0  0  0  0  0  0  0  0  0  0
   16.2944   26.2464   -0.9657 C   0  0  0  0  0  0  0  0  0  0  0  0
   16.6578   27.1089    0.0504 O   0  0  0  0  0  0  0  0  0  0  0  0
   15.9178   24.9510   -0.6227 C   0  0  0  0  0  0  0  0  0  0  0  0
   15.8983   24.5132    0.6847 O   0  0  0  0  0  0  0  0  0  0  0  0
   15.5601   24.1092   -1.6491 C   0  0  0  0  0  0  0  0  0  0  0  0
   15.5591   24.4890   -2.9804 C   0  0  0  0  0  0  0  0  0  0  0  0
   15.1893   23.5937   -3.9544 C   0  0  0  0  0  0  0  0  0  0  0  0
   15.2022   24.0122   -5.2675 C   0  0  0  0  0  0  0  0  0  0  0  0
   16.6565   26.8263    1.0190 H   0  0  0  0  0  0  0  0  0  0  0  0
   15.6187   23.5691    0.8779 H   0  0  0  0  0  0  0  0  0  0  0  0
   16.2349   26.8668   -7.4193 O   0  0  0  0  0  0  0  0  0  0  0  0
   15.5862   25.7299   -6.9987 C   0  0  0  0  0  0  0  0  0  0  0  0
   14.9801   25.0335   -7.8583 O   0  0  0  0  0  0  0  0  0  0  0  0
   16.6320   26.9893   -8.3364 H   0  0  0  0  0  0  0  0  0  0  0  0
   14.8202   22.3242   -3.6191 O   0  0  0  0  0  0  0  0  0  0  0  0
   14.3214   21.9072   -2.4249 C   0  0  0  0  0  0  0  0  0  0  0  0
   15.0522   21.1399   -1.5467 C   0  0  0  0  0  0  0  0  0  0  0  0
   14.5172   20.7244   -0.3263 C   0  0  0  0  0  0  0  0  0  0  0  0
   13.2512   21.0729    0.0223 C   0  0  0  0  0  0  0  0  0  0  0  0
   12.7203   20.6691    1.2172 O   0  0  0  0  0  0  0  0  0  0  0  0
   12.4951   21.8474   -0.8493 C   0  0  0  0  0  0  0  0  0  0  0  0
   11.2052   22.2147   -0.5174 O   0  0  0  0  0  0  0  0  0  0  0  0
   13.0401   22.2564   -2.0654 C   0  0  0  0  0  0  0  0  0  0  0  0
   11.8106   20.8641    1.5733 H   0  0  0  0  0  0  0  0  0  0  0  0
   10.6763   22.7755   -1.1638 H   0  0  0  0  0  0  0  0  0  0  0  0
 15 16  1  0  0  0
 16 17  2  0  0  0
 16  1  1  0  0  0
  1  2  2  0  0  0
  2  3  1  0  0  0
  3  4  2  0  0  0
  4  5  1  0  0  0
  5  6  1  0  0  0
  5  7  2  0  0  0
  7  8  1  0  0  0
  7  9  1  0  0  0
  9 10  2  0  0  0
 10 11  1  0  0  0
 11 19  1  0  0  0
 19 20  1  0  0  0
 20 21  2  0  0  0
 21 22  1  0  0  0
 22 23  2  0  0  0
 23 24  1  0  0  0
 23 25  1  0  0  0
 25 26  1  0  0  0
 25 27  2  0  0  0
 11 12  2  0  0  0
 12  1  1  0  0  0
 10  3  1  0  0  0
 27 20  1  0  0  0
 15 18  1  0  0  0
  6 13  1  0  0  0
  8 14  1  0  0  0
 24 28  1  0  0  0
 26 29  1  0  0  0
M  END
> <minimizedAffinity>
-1.24104

> <CNNscore>
0.5103983879

> <CNNaffinity>
6.2152490616

> <CNN_VS>
3.1722531319

> <CNNaffinity_variance>
0.5237793922

$$$$
[H]OC(=O)c1c([H])c(Oc2c([H])c([H])c(O[H])c(O[H])c2[H])c2c([H])c(O[H])c(O[H])c([H])c2c1[H]


 29 31  0  0  0  0  0  0  0  0999 V2000
   14.1592   25.8119   -3.1250 C   0  0  0  0  0  0  0  0  0  0  0  0
   15.2843   25.8616   -2.3289 C   0  0  0  0  0  0  0  0  0  0  0  0
   15.4737   24.9149   -1.3448 C   0  0  0  0  0  0  0  0  0  0  0  0
   16.5908   24.9456   -0.5381 C   0  0  0  0  0  0  0  0  0  0  0  0
   16.7690   23.9943    0.4419 C   0  0  0  0  0  0  0  0  0  0  0  0
   17.8860   24.0185    1.2545 O   0  0  0  0  0  0  0  0  0  0  0  0
   15.8336   22.9832    0.6433 C   0  0  0  0  0  0  0  0  0  0  0  0
   15.9906   22.0203    1.6177 O   0  0  0  0  0  0  0  0  0  0  0  0
   14.7297   22.9778   -0.1761 C   0  0  0  0  0  0  0  0  0  0  0  0
   14.5152   23.9159   -1.1713 C   0  0  0  0  0  0  0  0  0  0  0  0
   13.3879   23.8487   -1.9534 C   0  0  0  0  0  0  0  0  0  0  0  0
   13.2127   24.8022   -2.9330 C   0  0  0  0  0  0  0  0  0  0  0  0
   18.0368   23.3319    1.9783 H   0  0  0  0  0  0  0  0  0  0  0  0
   15.2864   21.3131    1.7213 H   0  0  0  0  0  0  0  0  0  0  0  0
   14.9841   27.3103   -4.9200 O   0  0  0  0  0  0  0  0  0  0  0  0
   13.9462   26.8083   -4.1709 C   0  0  0  0  0  0  0  0  0  0  0  0
   12.7805   27.2297   -4.4045 O   0  0  0  0  0  0  0  0  0  0  0  0
   14.8956   27.6372   -5.8682 H   0  0  0  0  0  0  0  0  0  0  0  0
   12.4710   22.8583   -1.7567 O   0  0  0  0  0  0  0  0  0  0  0  0
   11.5024   22.8197   -0.8032 C   0  0  0  0  0  0  0  0  0  0  0  0
   10.6536   23.8775   -0.5695 C   0  0  0  0  0  0  0  0  0  0  0  0
    9.6669   23.8131    0.4157 C   0  0  0  0  0  0  0  0  0  0  0  0
    9.5236   22.6931    1.1713 C   0  0  0  0  0  0  0  0  0  0  0  0
    8.5585   22.6230    2.1389 O   0  0  0  0  0  0  0  0  0  0  0  0
   10.3700   21.6128    0.9524 C   0  0  0  0  0  0  0  0  0  0  0  0
   10.2440   20.4628    1.7079 O   0  0  0  0  0  0  0  0  0  0  0  0
   11.3516   21.6888   -0.0343 C   0  0  0  0  0  0  0  0  0  0  0  0
    8.3644   21.8585    2.7473 H   0  0  0  0  0  0  0  0  0  0  0  0
   10.8676   19.6932    1.5321 H   0  0  0  0  0  0  0  0  0  0  0  0
 15 16  1  0  0  0
 16 17  2  0  0  0
 16  1  1  0  0  0
  1  2  2  0  0  0
  2  3  1  0  0  0
  3  4  2  0  0  0
  4  5  1  0  0  0
  5  6  1  0  0  0
  5  7  2  0  0  0
  7  8  1  0  0  0
  7  9  1  0  0  0
  9 10  2  0  0  0
 10 11  1  0  0  0
 11 19  1  0  0  0
 19 20  1  0  0  0
 20 21  2  0  0  0
 21 22  1  0  0  0
 22 23  2  0  0  0
 23 24  1  0  0  0
 23 25  1  0  0  0
 25 26  1  0  0  0
 25 27  2  0  0  0
 11 12  2  0  0  0
 12  1  1  0  0  0
 10  3  1  0  0  0
 27 20  1  0  0  0
 15 18  1  0  0  0
  6 13  1  0  0  0
  8 14  1  0  0  0
 24 28  1  0  0  0
 26 29  1  0  0  0
M  END
> <minimizedAffinity>
-7.27745

> <CNNscore>
0.5074453354

> <CNNaffinity>
6.5985360146

> <CNN_VS>
3.3483963013

> <CNNaffinity_variance>
0.4650835395

$$$$
[H]OC(=O)c1c([H])c(Oc2c([H])c([H])c(O[H])c(O[H])c2[H])c2c([H])c(O[H])c(O[H])c([H])c2c1[H]


 29 31  0  0  0  0  0  0  0  0999 V2000
   15.4030   23.2936   -3.5241 C   0  0  0  0  0  0  0  0  0  0  0  0
   14.4377   22.3191   -3.3810 C   0  0  0  0  0  0  0  0  0  0  0  0
   13.8745   22.0843   -2.1448 C   0  0  0  0  0  0  0  0  0  0  0  0
   12.9082   21.1154   -1.9792 C   0  0  0  0  0  0  0  0  0  0  0  0
   12.3529   20.8899   -0.7391 C   0  0  0  0  0  0  0  0  0  0  0  0
   11.3840   19.9206   -0.5652 O   0  0  0  0  0  0  0  0  0  0  0  0
   12.7486   21.6281    0.3727 C   0  0  0  0  0  0  0  0  0  0  0  0
   12.2070   21.4202    1.6236 O   0  0  0  0  0  0  0  0  0  0  0  0
   13.7139   22.5874    0.1774 C   0  0  0  0  0  0  0  0  0  0  0  0
   14.2955   22.8434   -1.0525 C   0  0  0  0  0  0  0  0  0  0  0  0
   15.2554   23.8185   -1.1737 C   0  0  0  0  0  0  0  0  0  0  0  0
   15.8090   24.0415   -2.4160 C   0  0  0  0  0  0  0  0  0  0  0  0
   10.9637   19.7386    0.3338 H   0  0  0  0  0  0  0  0  0  0  0  0
   12.5276   21.9800    2.3921 H   0  0  0  0  0  0  0  0  0  0  0  0
   16.8023   22.6249   -5.4587 O   0  0  0  0  0  0  0  0  0  0  0  0
   16.0077   23.5527   -4.8277 C   0  0  0  0  0  0  0  0  0  0  0  0
   15.8033   24.6564   -5.4032 O   0  0  0  0  0  0  0  0  0  0  0  0
   16.8949   22.5400   -6.4577 H   0  0  0  0  0  0  0  0  0  0  0  0
   15.6436   24.5423   -0.0848 O   0  0  0  0  0  0  0  0  0  0  0  0
   14.8965   25.4456    0.6041 C   0  0  0  0  0  0  0  0  0  0  0  0
   15.4116   26.6396    1.0548 C   0  0  0  0  0  0  0  0  0  0  0  0
   14.6235   27.5505    1.7602 C   0  0  0  0  0  0  0  0  0  0  0  0
   13.3188   27.2734    2.0184 C   0  0  0  0  0  0  0  0  0  0  0  0
   12.5403   28.1618    2.7094 O   0  0  0  0  0  0  0  0  0  0  0  0
   12.7777   26.0735    1.5726 C   0  0  0  0  0  0  0  0  0  0  0  0
   11.4535   25.7689    1.8228 O   0  0  0  0  0  0  0  0  0  0  0  0
   13.5745   25.1716    0.8692 C   0  0  0  0  0  0  0  0  0  0  0  0
   11.5795   28.0639    2.9536 H   0  0  0  0  0  0  0  0  0  0  0  0
   11.0832   24.8945    1.4907 H   0  0  0  0  0  0  0  0  0  0  0  0
 15 16  1  0  0  0
 16 17  2  0  0  0
 16  1  1  0  0  0
  1  2  2  0  0  0
  2  3  1  0  0  0
  3  4  2  0  0  0
  4  5  1  0  0  0
  5  6  1  0  0  0
  5  7  2  0  0  0
  7  8  1  0  0  0
  7  9  1  0  0  0
  9 10  2  0  0  0
 10 11  1  0  0  0
 11 19  1  0  0  0
 19 20  1  0  0  0
 20 21  2  0  0  0
 21 22  1  0  0  0
 22 23  2  0  0  0
 23 24  1  0  0  0
 23 25  1  0  0  0
 25 26  1  0  0  0
 25 27  2  0  0  0
 11 12  2  0  0  0
 12  1  1  0  0  0
 10  3  1  0  0  0
 27 20  1  0  0  0
 15 18  1  0  0  0
  6 13  1  0  0  0
  8 14  1  0  0  0
 24 28  1  0  0  0
 26 29  1  0  0  0
M  END
> <minimizedAffinity>
11.52400

> <CNNscore>
0.5017250776

> <CNNaffinity>
6.1062107086

> <CNN_VS>
3.0636389256

> <CNNaffinity_variance>
1.0751492977

$$$$
[H]OC(=O)c1c([H])c(Oc2c([H])c([H])c(O[H])c(O[H])c2[H])c2c([H])c(O[H])c(O[H])c([H])c2c1[H]


 29 31  0  0  0  0  0  0  0  0999 V2000
   12.6333   27.3587   -3.9297 C   0  0  0  0  0  0  0  0  0  0  0  0
   13.9334   27.8184   -3.9476 C   0  0  0  0  0  0  0  0  0  0  0  0
   14.9435   27.0479   -3.4123 C   0  0  0  0  0  0  0  0  0  0  0  0
   16.2497   27.4879   -3.4197 C   0  0  0  0  0  0  0  0  0  0  0  0
   17.2504   26.7092   -2.8817 C   0  0  0  0  0  0  0  0  0  0  0  0
   18.5619   27.1433   -2.8855 O   0  0  0  0  0  0  0  0  0  0  0  0
   16.9729   25.4661   -2.3202 C   0  0  0  0  0  0  0  0  0  0  0  0
   17.9579   24.6692   -1.7759 O   0  0  0  0  0  0  0  0  0  0  0  0
   15.6616   25.0534   -2.3269 C   0  0  0  0  0  0  0  0  0  0  0  0
   14.6286   25.8070   -2.8576 C   0  0  0  0  0  0  0  0  0  0  0  0
   13.3404   25.3309   -2.8299 C   0  0  0  0  0  0  0  0  0  0  0  0
   12.3415   26.1127   -3.3689 C   0  0  0  0  0  0  0  0  0  0  0  0
   19.3105   26.5895   -2.4970 H   0  0  0  0  0  0  0  0  0  0  0  0
   17.7042   23.7812   -1.3836 H   0  0  0  0  0  0  0  0  0  0  0  0
   11.3640   29.4786   -4.1363 O   0  0  0  0  0  0  0  0  0  0  0  0
   11.5539   28.1646   -4.4933 C   0  0  0  0  0  0  0  0  0  0  0  0
   10.7650   27.6524   -5.3338 O   0  0  0  0  0  0  0  0  0  0  0  0
   10.9635   30.1798   -4.7377 H   0  0  0  0  0  0  0  0  0  0  0  0
   13.0677   24.1129   -2.2798 O   0  0  0  0  0  0  0  0  0  0  0  0
   12.4535   23.8729   -1.0908 C   0  0  0  0  0  0  0  0  0  0  0  0
   11.2923   24.5104   -0.7175 C   0  0  0  0  0  0  0  0  0  0  0  0
   10.6809   24.2464    0.5092 C   0  0  0  0  0  0  0  0  0  0  0  0
   11.2257   23.3454    1.3678 C   0  0  0  0  0  0  0  0  0  0  0  0
   10.6317   23.0816    2.5720 O   0  0  0  0  0  0  0  0  0  0  0  0
   12.3980   22.6898    1.0113 C   0  0  0  0  0  0  0  0  0  0  0  0
   12.9714   21.7692    1.8673 O   0  0  0  0  0  0  0  0  0  0  0  0
   12.9996   22.9617   -0.2165 C   0  0  0  0  0  0  0  0  0  0  0  0
   10.9402   22.4456    3.2739 H   0  0  0  0  0  0  0  0  0  0  0  0
   13.8201   21.3067    1.5885 H   0  0  0  0  0  0  0  0  0  0  0  0
 15 16  1  0  0  0
 16 17  2  0  0  0
 16  1  1  0  0  0
  1  2  2  0  0  0
  2  3  1  0  0  0
  3  4  2  0  0  0
  4  5  1  0  0  0
  5  6  1  0  0  0
  5  7  2  0  0  0
  7  8  1  0  0  0
  7  9  1  0  0  0
  9 10  2  0  0  0
 10 11  1  0  0  0
 11 19  1  0  0  0
 19 20  1  0  0  0
 20 21  2  0  0  0
 21 22  1  0  0  0
 22 23  2  0  0  0
 23 24  1  0  0  0
 23 25  1  0  0  0
 25 26  1  0  0  0
 25 27  2  0  0  0
 11 12  2  0  0  0
 12  1  1  0  0  0
 10  3  1  0  0  0
 27 20  1  0  0  0
 15 18  1  0  0  0
  6 13  1  0  0  0
  8 14  1  0  0  0
 24 28  1  0  0  0
 26 29  1  0  0  0
M  END
> <minimizedAffinity>
2.50629

> <CNNscore>
0.4844569862

> <CNNaffinity>
6.1859712601

> <CNN_VS>
2.9968369007

> <CNNaffinity_variance>
1.0580112934

$$$$
[H]OC(=O)c1c([H])c(Oc2c([H])c([H])c(O[H])c(O[H])c2[H])c2c([H])c(O[H])c(O[H])c([H])c2c1[H]


 29 31  0  0  0  0  0  0  0  0999 V2000
   14.2032   25.2032   -3.6189 C   0  0  0  0  0  0  0  0  0  0  0  0
   14.8330   24.0112   -3.3280 C   0  0  0  0  0  0  0  0  0  0  0  0
   14.3786   23.2284   -2.2882 C   0  0  0  0  0  0  0  0  0  0  0  0
   14.9929   22.0336   -1.9802 C   0  0  0  0  0  0  0  0  0  0  0  0
   14.5298   21.2601   -0.9389 C   0  0  0  0  0  0  0  0  0  0  0  0
   15.1402   20.0614   -0.6241 O   0  0  0  0  0  0  0  0  0  0  0  0
   13.4373   21.6600   -0.1746 C   0  0  0  0  0  0  0  0  0  0  0  0
   12.9561   20.9024    0.8723 O   0  0  0  0  0  0  0  0  0  0  0  0
   12.8449   22.8558   -0.5048 C   0  0  0  0  0  0  0  0  0  0  0  0
   13.2808   23.6607   -1.5434 C   0  0  0  0  0  0  0  0  0  0  0  0
   12.6396   24.8444   -1.8167 C   0  0  0  0  0  0  0  0  0  0  0  0
   13.1056   25.6159   -2.8594 C   0  0  0  0  0  0  0  0  0  0  0  0
   14.8179   19.4791    0.1342 H   0  0  0  0  0  0  0  0  0  0  0  0
   12.1652   21.2364    1.3917 H   0  0  0  0  0  0  0  0  0  0  0  0
   15.2287   25.5064   -5.8560 O   0  0  0  0  0  0  0  0  0  0  0  0
   14.6742   26.0419   -4.7175 C   0  0  0  0  0  0  0  0  0  0  0  0
   14.5755   27.2966   -4.6326 O   0  0  0  0  0  0  0  0  0  0  0  0
   15.1820   25.9329   -6.7668 H   0  0  0  0  0  0  0  0  0  0  0  0
   11.5690   25.2368   -1.0683 O   0  0  0  0  0  0  0  0  0  0  0  0
   10.8841   24.4853   -0.1656 C   0  0  0  0  0  0  0  0  0  0  0  0
   11.1232   24.5570    1.1878 C   0  0  0  0  0  0  0  0  0  0  0  0
   10.4062   23.7746    2.0944 C   0  0  0  0  0  0  0  0  0  0  0  0
    9.4482   22.9178    1.6541 C   0  0  0  0  0  0  0  0  0  0  0  0
    8.7413   22.1477    2.5372 O   0  0  0  0  0  0  0  0  0  0  0  0
    9.1901   22.8292    0.2914 C   0  0  0  0  0  0  0  0  0  0  0  0
    8.2207   21.9654   -0.1810 O   0  0  0  0  0  0  0  0  0  0  0  0
    9.9126   23.6156   -0.6045 C   0  0  0  0  0  0  0  0  0  0  0  0
    8.0222   21.4908    2.3284 H   0  0  0  0  0  0  0  0  0  0  0  0
    8.0509   21.9177   -1.1714 H   0  0  0  0  0  0  0  0  0  0  0  0
 15 16  1  0  0  0
 16 17  2  0  0  0
 16  1  1  0  0  0
  1  2  2  0  0  0
  2  3  1  0  0  0
  3  4  2  0  0  0
  4  5  1  0  0  0
  5  6  1  0  0  0
  5  7  2  0  0  0
  7  8  1  0  0  0
  7  9  1  0  0  0
  9 10  2  0  0  0
 10 11  1  0  0  0
 11 19  1  0  0  0
 19 20  1  0  0  0
 20 21  2  0  0  0
 21 22  1  0  0  0
 22 23  2  0  0  0
 23 24  1  0  0  0
 23 25  1  0  0  0
 25 26  1  0  0  0
 25 27  2  0  0  0
 11 12  2  0  0  0
 12  1  1  0  0  0
 10  3  1  0  0  0
 27 20  1  0  0  0
 15 18  1  0  0  0
  6 13  1  0  0  0
  8 14  1  0  0  0
 24 28  1  0  0  0
 26 29  1  0  0  0
M  END
> <minimizedAffinity>
-8.12114

> <CNNscore>
0.4568596482

> <CNNaffinity>
6.2981376648

> <CNN_VS>
2.8773648739

> <CNNaffinity_variance>
0.3403586447

$$$$
[H]OC(=O)c1c([H])c(Oc2c([H])c([H])c(O[H])c(O[H])c2[H])c2c([H])c(O[H])c(O[H])c([H])c2c1[H]


 29 31  0  0  0  0  0  0  0  0999 V2000
   15.8172   25.9310   -2.1383 C   0  0  0  0  0  0  0  0  0  0  0  0
   14.8122   26.3662   -1.3000 C   0  0  0  0  0  0  0  0  0  0  0  0
   13.9582   25.4539   -0.7178 C   0  0  0  0  0  0  0  0  0  0  0  0
   12.9472   25.8668    0.1231 C   0  0  0  0  0  0  0  0  0  0  0  0
   12.1000   24.9459    0.6989 C   0  0  0  0  0  0  0  0  0  0  0  0
   11.0844   25.3521    1.5428 O   0  0  0  0  0  0  0  0  0  0  0  0
   12.2401   23.5836    0.4498 C   0  0  0  0  0  0  0  0  0  0  0  0
   11.4043   22.6436    1.0147 O   0  0  0  0  0  0  0  0  0  0  0  0
   13.2570   23.2013   -0.3927 C   0  0  0  0  0  0  0  0  0  0  0  0
   14.1281   24.0961   -0.9902 C   0  0  0  0  0  0  0  0  0  0  0  0
   15.1225   23.6422   -1.8221 C   0  0  0  0  0  0  0  0  0  0  0  0
   15.9683   24.5663   -2.3966 C   0  0  0  0  0  0  0  0  0  0  0  0
   10.4525   24.6950    1.9753 H   0  0  0  0  0  0  0  0  0  0  0  0
   11.5484   21.6736    0.8022 H   0  0  0  0  0  0  0  0  0  0  0  0
   17.4666   27.7785   -2.0199 O   0  0  0  0  0  0  0  0  0  0  0  0
   16.7287   26.8865   -2.7615 C   0  0  0  0  0  0  0  0  0  0  0  0
   16.8523   26.9049   -4.0167 O   0  0  0  0  0  0  0  0  0  0  0  0
   18.3649   28.1411   -2.2944 H   0  0  0  0  0  0  0  0  0  0  0  0
   15.2603   22.3074   -2.0666 O   0  0  0  0  0  0  0  0  0  0  0  0
   14.9363   21.6491   -3.2113 C   0  0  0  0  0  0  0  0  0  0  0  0
   15.5066   21.9552   -4.4259 C   0  0  0  0  0  0  0  0  0  0  0  0
   15.1569   21.2643   -5.5872 C   0  0  0  0  0  0  0  0  0  0  0  0
   14.2369   20.2656   -5.5409 C   0  0  0  0  0  0  0  0  0  0  0  0
   13.8892   19.5841   -6.6755 O   0  0  0  0  0  0  0  0  0  0  0  0
   13.6482   19.9398   -4.3249 C   0  0  0  0  0  0  0  0  0  0  0  0
   12.7101   18.9281   -4.2522 O   0  0  0  0  0  0  0  0  0  0  0  0
   14.0055   20.6368   -3.1718 C   0  0  0  0  0  0  0  0  0  0  0  0
   13.2321   18.8400   -6.7584 H   0  0  0  0  0  0  0  0  0  0  0  0
   12.2970   18.7094   -3.3613 H   0  0  0  0  0  0  0  0  0  0  0  0
 15 16  1  0  0  0
 16 17  2  0  0  0
 16  1  1  0  0  0
  1  2  2  0  0  0
  2  3  1  0  0  0
  3  4  2  0  0  0
  4  5  1  0  0  0
  5  6  1  0  0  0
  5  7  2  0  0  0
  7  8  1  0  0  0
  7  9  1  0  0  0
  9 10  2  0  0  0
 10 11  1  0  0  0
 11 19  1  0  0  0
 19 20  1  0  0  0
 20 21  2  0  0  0
 21 22  1  0  0  0
 22 23  2  0  0  0
 23 24  1  0  0  0
 23 25  1  0  0  0
 25 26  1  0  0  0
 25 27  2  0  0  0
 11 12  2  0  0  0
 12  1  1  0  0  0
 10  3  1  0  0  0
 27 20  1  0  0  0
 15 18  1  0  0  0
  6 13  1  0  0  0
  8 14  1  0  0  0
 24 28  1  0  0  0
 26 29  1  0  0  0
M  END
> <minimizedAffinity>
14.43742

> <CNNscore>
0.4498275518

> <CNNaffinity>
6.0281233788

> <CNN_VS>
2.7116160393

> <CNNaffinity_variance>
1.7839778662

$$$$
[H]OC(=O)c1c([H])c(Oc2c([H])c([H])c(O[H])c(O[H])c2[H])c2c([H])c(O[H])c(O[H])c([H])c2c1[H]


 29 31  0  0  0  0  0  0  0  0999 V2000
   13.6500   22.4083    0.1979 C   0  0  0  0  0  0  0  0  0  0  0  0
   13.6435   21.5844   -0.9081 C   0  0  0  0  0  0  0  0  0  0  0  0
   14.2254   22.0066   -2.0844 C   0  0  0  0  0  0  0  0  0  0  0  0
   14.2303   21.1994   -3.2016 C   0  0  0  0  0  0  0  0  0  0  0  0
   14.8148   21.6323   -4.3714 C   0  0  0  0  0  0  0  0  0  0  0  0
   14.8237   20.8290   -5.4953 O   0  0  0  0  0  0  0  0  0  0  0  0
   15.4120   22.8867   -4.4573 C   0  0  0  0  0  0  0  0  0  0  0  0
   16.0031   23.3413   -5.6172 O   0  0  0  0  0  0  0  0  0  0  0  0
   15.3919   23.6696   -3.3274 C   0  0  0  0  0  0  0  0  0  0  0  0
   14.8147   23.2702   -2.1341 C   0  0  0  0  0  0  0  0  0  0  0  0
   14.8318   24.1060   -1.0441 C   0  0  0  0  0  0  0  0  0  0  0  0
   14.2461   23.6697    0.1248 C   0  0  0  0  0  0  0  0  0  0  0  0
   15.2460   21.1257   -6.3623 H   0  0  0  0  0  0  0  0  0  0  0  0
   16.4197   24.2540   -5.6259 H   0  0  0  0  0  0  0  0  0  0  0  0
   13.4323   20.8243    2.0931 O   0  0  0  0  0  0  0  0  0  0  0  0
   13.0373   21.9735    1.4501 C   0  0  0  0  0  0  0  0  0  0  0  0
   12.1171   22.6635    1.9681 O   0  0  0  0  0  0  0  0  0  0  0  0
   13.3859   20.6846    3.0891 H   0  0  0  0  0  0  0  0  0  0  0  0
   15.4169   25.3352   -1.1275 O   0  0  0  0  0  0  0  0  0  0  0  0
   15.5280   26.1132   -2.2371 C   0  0  0  0  0  0  0  0  0  0  0  0
   14.4864   26.2967   -3.1177 C   0  0  0  0  0  0  0  0  0  0  0  0
   14.6259   27.1007   -4.2502 C   0  0  0  0  0  0  0  0  0  0  0  0
   15.8050   27.7243   -4.5082 C   0  0  0  0  0  0  0  0  0  0  0  0
   15.9488   28.5140   -5.6165 O   0  0  0  0  0  0  0  0  0  0  0  0
   16.8702   27.5530   -3.6323 C   0  0  0  0  0  0  0  0  0  0  0  0
   18.0794   28.1768   -3.8730 O   0  0  0  0  0  0  0  0  0  0  0  0
   16.7191   26.7477   -2.5046 C   0  0  0  0  0  0  0  0  0  0  0  0
   16.7607   29.0153   -5.9026 H   0  0  0  0  0  0  0  0  0  0  0  0
   18.8368   28.0384   -3.2254 H   0  0  0  0  0  0  0  0  0  0  0  0
 15 16  1  0  0  0
 16 17  2  0  0  0
 16  1  1  0  0  0
  1  2  2  0  0  0
  2  3  1  0  0  0
  3  4  2  0  0  0
  4  5  1  0  0  0
  5  6  1  0  0  0
  5  7  2  0  0  0
  7  8  1  0  0  0
  7  9  1  0  0  0
  9 10  2  0  0  0
 10 11  1  0  0  0
 11 19  1  0  0  0
 19 20  1  0  0  0
 20 21  2  0  0  0
 21 22  1  0  0  0
 22 23  2  0  0  0
 23 24  1  0  0  0
 23 25  1  0  0  0
 25 26  1  0  0  0
 25 27  2  0  0  0
 11 12  2  0  0  0
 12  1  1  0  0  0
 10  3  1  0  0  0
 27 20  1  0  0  0
 15 18  1  0  0  0
  6 13  1  0  0  0
  8 14  1  0  0  0
 24 28  1  0  0  0
 26 29  1  0  0  0
M  END
> <minimizedAffinity>
-3.60564

> <CNNscore>
0.4460455477

> <CNNaffinity>
6.3078541756

> <CNN_VS>
2.8135902882

> <CNNaffinity_variance>
0.4004144669

$$$$
[H]OC(C([H])([H])[H])(C([H])([H])[H])C([H])([H])C([H])([H])N([H])S(=O)(=O)c1c([H])c([H])c(C([H])([H])[H])c(-c2c([H])nc(N([H])[H])c(-c3c([H])nc(OC([H])([H])[H])nc3[H])c2[H])c1[H]


 36 38  0  0  0  0  0  0  0  0999 V2000
   10.9937   23.7286    0.4741 C   0  0  0  0  0  0  0  0  0  0  0  0
   10.4221   24.3743    1.5756 C   0  0  0  0  0  0  0  0  0  0  0  0
    9.1405   24.1662    1.9961 C   0  0  0  0  0  0  0  0  0  0  0  0
    8.3825   23.2631    1.2796 C   0  0  0  0  0  0  0  0  0  0  0  0
    8.8992   22.6015    0.1877 C   0  0  0  0  0  0  0  0  0  0  0  0
   10.2194   22.8366   -0.2196 C   0  0  0  0  0  0  0  0  0  0  0  0
   10.7640   22.1080   -1.3912 C   0  0  0  0  0  0  0  0  0  0  0  0
   13.9286   24.8063   -1.5924 C   0  0  0  0  0  0  0  0  0  0  0  0
   12.6377   24.5107   -1.1619 C   0  0  0  0  0  0  0  0  0  0  0  0
   12.3508   24.0231    0.1024 C   0  0  0  0  0  0  0  0  0  0  0  0
   13.4132   23.8289    0.9588 C   0  0  0  0  0  0  0  0  0  0  0  0
   14.6614   24.1126    0.5493 N   0  0  0  0  0  0  0  0  0  0  0  0
   14.9469   24.5906   -0.6880 C   0  0  0  0  0  0  0  0  0  0  0  0
   16.3010   24.8755   -1.0536 N   0  0  0  0  0  0  0  0  0  0  0  0
   17.0292   24.1316   -0.9332 H   0  0  0  0  0  0  0  0  0  0  0  0
   16.6130   25.7874   -1.4368 H   0  0  0  0  0  0  0  0  0  0  0  0
   14.7012   26.1896   -5.5039 C   0  0  0  0  0  0  0  0  0  0  0  0
   13.8784   26.8650   -4.6877 N   0  0  0  0  0  0  0  0  0  0  0  0
   13.5972   26.4645   -3.4200 C   0  0  0  0  0  0  0  0  0  0  0  0
   14.1767   25.3137   -2.9383 C   0  0  0  0  0  0  0  0  0  0  0  0
   15.0195   24.6341   -3.7931 C   0  0  0  0  0  0  0  0  0  0  0  0
   15.2705   25.0694   -5.0464 N   0  0  0  0  0  0  0  0  0  0  0  0
   15.6324   25.8536   -7.7477 C   0  0  0  0  0  0  0  0  0  0  0  0
   14.9599   26.6478   -6.8106 O   0  0  0  0  0  0  0  0  0  0  0  0
    8.4448   24.9841    3.3759 S   0  0  0  0  0  0  0  0  0  0  0  0
    8.8920   26.3999    3.3448 O   0  0  0  0  0  0  0  0  0  0  0  0
    6.9425   24.9747    3.2755 O   0  0  0  0  0  0  0  0  0  0  0  0
    8.9807   24.2746    4.8539 N   0  0  0  0  0  0  0  0  0  0  0  0
    9.9827   24.5689    4.9751 H   0  0  0  0  0  0  0  0  0  0  0  0
    8.8665   22.8567    4.7494 C   0  0  0  0  0  0  0  0  0  0  0  0
   10.1362   22.0897    4.9290 C   0  0  0  0  0  0  0  0  0  0  0  0
   10.3047   20.8978    4.0557 C   0  0  0  0  0  0  0  0  0  0  0  0
   10.6530   19.6938    4.8764 C   0  0  0  0  0  0  0  0  0  0  0  0
   11.5023   21.1751    3.1442 C   0  0  0  0  0  0  0  0  0  0  0  0
    9.2225   20.6747    3.2106 O   0  0  0  0  0  0  0  0  0  0  0  0
    9.1695   19.7007    2.9532 H   0  0  0  0  0  0  0  0  0  0  0  0
 23 24  1  0  0  0
 24 17  1  0  0  0
 17 18  2  0  0  0
 18 19  1  0  0  0
 19 20  2  0  0  0
 20 21  1  0  0  0
 21 22  2  0  0  0
 20  8  1  0  0  0
  8  9  2  0  0  0
  9 10  1  0  0  0
 10 11  2  0  0  0
 11 12  1  0  0  0
 12 13  2  0  0  0
 13 14  1  0  0  0
 10  1  1  0  0  0
  1  2  2  0  0  0
  2  3  1  0  0  0
  3  4  2  0  0  0
  4  5  1  0  0  0
  5  6  2  0  0  0
  6  7  1  0  0  0
  3 25  1  0  0  0
 25 26  2  0  0  0
 25 27  2  0  0  0
 25 28  1  0  0  0
 28 30  1  0  0  0
 30 31  1  0  0  0
 31 32  1  0  0  0
 32 33  1  0  0  0
 32 34  1  0  0  0
 32 35  1  0  0  0
 22 17  1  0  0  0
 13  8  1  0  0  0
  6  1  1  0  0  0
 14 15  1  0  0  0
 14 16  1  0  0  0
 28 29  1  0  0  0
 35 36  1  0  0  0
M  END
> <minimizedAffinity>
-8.76555

> <CNNscore>
0.6501888037

> <CNNaffinity>
7.4554977417

> <CNN_VS>
4.8474812508

> <CNNaffinity_variance>
0.0593216531

$$$$
[H]OC(C([H])([H])[H])(C([H])([H])[H])C([H])([H])C([H])([H])N([H])S(=O)(=O)c1c([H])c([H])c(C([H])([H])[H])c(-c2c([H])nc(N([H])[H])c(-c3c([H])nc(OC([H])([H])[H])nc3[H])c2[H])c1[H]


 36 38  0  0  0  0  0  0  0  0999 V2000
   14.0827   27.9230   -3.6716 C   0  0  0  0  0  0  0  0  0  0  0  0
   12.8874   28.6447   -3.7571 C   0  0  0  0  0  0  0  0  0  0  0  0
   12.8284   29.9969   -3.9320 C   0  0  0  0  0  0  0  0  0  0  0  0
   14.0281   30.6715   -4.0275 C   0  0  0  0  0  0  0  0  0  0  0  0
   15.2318   30.0067   -3.9496 C   0  0  0  0  0  0  0  0  0  0  0  0
   15.2597   28.6171   -3.7698 C   0  0  0  0  0  0  0  0  0  0  0  0
   16.5642   27.9149   -3.6986 C   0  0  0  0  0  0  0  0  0  0  0  0
   13.4085   24.6022   -2.0707 C   0  0  0  0  0  0  0  0  0  0  0  0
   13.4721   25.9688   -2.3302 C   0  0  0  0  0  0  0  0  0  0  0  0
   14.0418   26.4994   -3.4759 C   0  0  0  0  0  0  0  0  0  0  0  0
   14.5651   25.6098   -4.3894 C   0  0  0  0  0  0  0  0  0  0  0  0
   14.5065   24.2896   -4.1448 N   0  0  0  0  0  0  0  0  0  0  0  0
   13.9493   23.7656   -3.0241 C   0  0  0  0  0  0  0  0  0  0  0  0
   13.9176   22.3476   -2.8328 N   0  0  0  0  0  0  0  0  0  0  0  0
   14.8094   21.8025   -2.9089 H   0  0  0  0  0  0  0  0  0  0  0  0
   13.0531   21.8156   -2.6198 H   0  0  0  0  0  0  0  0  0  0  0  0
   11.5619   23.1336    1.4284 C   0  0  0  0  0  0  0  0  0  0  0  0
   12.8903   23.3131    1.3777 N   0  0  0  0  0  0  0  0  0  0  0  0
   13.5341   23.7841    0.2776 C   0  0  0  0  0  0  0  0  0  0  0  0
   12.8011   24.0954   -0.8440 C   0  0  0  0  0  0  0  0  0  0  0  0
   11.4369   23.9039   -0.7713 C   0  0  0  0  0  0  0  0  0  0  0  0
   10.8389   23.4331    0.3440 N   0  0  0  0  0  0  0  0  0  0  0  0
   11.2061   21.3548    3.0789 C   0  0  0  0  0  0  0  0  0  0  0  0
   10.9427   22.6421    2.5943 O   0  0  0  0  0  0  0  0  0  0  0  0
   11.3232   30.8803   -4.0361 S   0  0  0  0  0  0  0  0  0  0  0  0
   10.6951   30.8788   -2.6905 O   0  0  0  0  0  0  0  0  0  0  0  0
   11.5926   32.3122   -4.4156 O   0  0  0  0  0  0  0  0  0  0  0  0
   10.2376   30.1292   -5.1462 N   0  0  0  0  0  0  0  0  0  0  0  0
    9.5759   30.8815   -5.4651 H   0  0  0  0  0  0  0  0  0  0  0  0
    9.5438   29.0818   -4.4712 C   0  0  0  0  0  0  0  0  0  0  0  0
    8.9083   28.0540   -5.3503 C   0  0  0  0  0  0  0  0  0  0  0  0
    7.5608   28.3946   -5.8792 C   0  0  0  0  0  0  0  0  0  0  0  0
    6.6161   28.6860   -4.7537 C   0  0  0  0  0  0  0  0  0  0  0  0
    7.0306   27.1484   -6.5922 C   0  0  0  0  0  0  0  0  0  0  0  0
    7.5816   29.4044   -6.8357 O   0  0  0  0  0  0  0  0  0  0  0  0
    6.6926   29.8802   -6.8673 H   0  0  0  0  0  0  0  0  0  0  0  0
 23 24  1  0  0  0
 24 17  1  0  0  0
 17 18  2  0  0  0
 18 19  1  0  0  0
 19 20  2  0  0  0
 20 21  1  0  0  0
 21 22  2  0  0  0
 20  8  1  0  0  0
  8  9  2  0  0  0
  9 10  1  0  0  0
 10 11  2  0  0  0
 11 12  1  0  0  0
 12 13  2  0  0  0
 13 14  1  0  0  0
 10  1  1  0  0  0
  1  2  2  0  0  0
  2  3  1  0  0  0
  3  4  2  0  0  0
  4  5  1  0  0  0
  5  6  2  0  0  0
  6  7  1  0  0  0
  3 25  1  0  0  0
 25 26  2  0  0  0
 25 27  2  0  0  0
 25 28  1  0  0  0
 28 30  1  0  0  0
 30 31  1  0  0  0
 31 32  1  0  0  0
 32 33  1  0  0  0
 32 34  1  0  0  0
 32 35  1  0  0  0
 22 17  1  0  0  0
 13  8  1  0  0  0
  6  1  1  0  0  0
 14 15  1  0  0  0
 14 16  1  0  0  0
 28 29  1  0  0  0
 35 36  1  0  0  0
M  END
> <minimizedAffinity>
20.39657

> <CNNscore>
0.5541624427

> <CNNaffinity>
7.2232565880

> <CNN_VS>
4.0028576851

> <CNNaffinity_variance>
1.1480312347

$$$$
[H]OC(C([H])([H])[H])(C([H])([H])[H])C([H])([H])C([H])([H])N([H])S(=O)(=O)c1c([H])c([H])c(C([H])([H])[H])c(-c2c([H])nc(N([H])[H])c(-c3c([H])nc(OC([H])([H])[H])nc3[H])c2[H])c1[H]


 36 38  0  0  0  0  0  0  0  0999 V2000
   13.1441   26.3590   -3.7138 C   0  0  0  0  0  0  0  0  0  0  0  0
   13.9830   25.7781   -4.6707 C   0  0  0  0  0  0  0  0  0  0  0  0
   14.6748   26.4912   -5.6064 C   0  0  0  0  0  0  0  0  0  0  0  0
   14.5239   27.8625   -5.5898 C   0  0  0  0  0  0  0  0  0  0  0  0
   13.7099   28.4825   -4.6679 C   0  0  0  0  0  0  0  0  0  0  0  0
   13.0123   27.7225   -3.7193 C   0  0  0  0  0  0  0  0  0  0  0  0
   12.1480   28.4064   -2.7265 C   0  0  0  0  0  0  0  0  0  0  0  0
   12.4999   23.6327   -1.2243 C   0  0  0  0  0  0  0  0  0  0  0  0
   13.1136   24.4886   -2.1352 C   0  0  0  0  0  0  0  0  0  0  0  0
   12.4484   25.5213   -2.7752 C   0  0  0  0  0  0  0  0  0  0  0  0
   11.1128   25.6894   -2.4792 C   0  0  0  0  0  0  0  0  0  0  0  0
   10.5148   24.8667   -1.6007 N   0  0  0  0  0  0  0  0  0  0  0  0
   11.1626   23.8541   -0.9714 C   0  0  0  0  0  0  0  0  0  0  0  0
   10.4622   23.0200   -0.0429 N   0  0  0  0  0  0  0  0  0  0  0  0
    9.5724   22.5561   -0.3447 H   0  0  0  0  0  0  0  0  0  0  0  0
   10.7849   22.8423    0.9266 H   0  0  0  0  0  0  0  0  0  0  0  0
   14.5953   20.4513    0.5921 C   0  0  0  0  0  0  0  0  0  0  0  0
   15.0268   21.7155    0.7151 N   0  0  0  0  0  0  0  0  0  0  0  0
   14.3894   22.7754    0.1523 C   0  0  0  0  0  0  0  0  0  0  0  0
   13.2464   22.5559   -0.5810 C   0  0  0  0  0  0  0  0  0  0  0  0
   12.8193   21.2491   -0.6953 C   0  0  0  0  0  0  0  0  0  0  0  0
   13.4850   20.2258   -0.1184 N   0  0  0  0  0  0  0  0  0  0  0  0
   16.6766   19.2338    1.0399 C   0  0  0  0  0  0  0  0  0  0  0  0
   15.2933   19.3871    1.1958 O   0  0  0  0  0  0  0  0  0  0  0  0
   15.7184   25.7453   -6.7944 S   0  0  0  0  0  0  0  0  0  0  0  0
   14.8828   25.3485   -7.9560 O   0  0  0  0  0  0  0  0  0  0  0  0
   16.7378   26.7410   -7.2806 O   0  0  0  0  0  0  0  0  0  0  0  0
   16.4743   24.3319   -6.1572 N   0  0  0  0  0  0  0  0  0  0  0  0
   16.2135   23.5431   -6.8015 H   0  0  0  0  0  0  0  0  0  0  0  0
   15.9842   24.1056   -4.8371 C   0  0  0  0  0  0  0  0  0  0  0  0
   16.9877   24.2516   -3.7396 C   0  0  0  0  0  0  0  0  0  0  0  0
   16.6398   25.2191   -2.6651 C   0  0  0  0  0  0  0  0  0  0  0  0
   16.9188   26.6209   -3.1138 C   0  0  0  0  0  0  0  0  0  0  0  0
   17.5743   24.9360   -1.4867 C   0  0  0  0  0  0  0  0  0  0  0  0
   15.3470   25.0608   -2.1765 O   0  0  0  0  0  0  0  0  0  0  0  0
   15.0086   25.9263   -1.7842 H   0  0  0  0  0  0  0  0  0  0  0  0
 23 24  1  0  0  0
 24 17  1  0  0  0
 17 18  2  0  0  0
 18 19  1  0  0  0
 19 20  2  0  0  0
 20 21  1  0  0  0
 21 22  2  0  0  0
 20  8  1  0  0  0
  8  9  2  0  0  0
  9 10  1  0  0  0
 10 11  2  0  0  0
 11 12  1  0  0  0
 12 13  2  0  0  0
 13 14  1  0  0  0
 10  1  1  0  0  0
  1  2  2  0  0  0
  2  3  1  0  0  0
  3  4  2  0  0  0
  4  5  1  0  0  0
  5  6  2  0  0  0
  6  7  1  0  0  0
  3 25  1  0  0  0
 25 26  2  0  0  0
 25 27  2  0  0  0
 25 28  1  0  0  0
 28 30  1  0  0  0
 30 31  1  0  0  0
 31 32  1  0  0  0
 32 33  1  0  0  0
 32 34  1  0  0  0
 32 35  1  0  0  0
 22 17  1  0  0  0
 13  8  1  0  0  0
  6  1  1  0  0  0
 14 15  1  0  0  0
 14 16  1  0  0  0
 28 29  1  0  0  0
 35 36  1  0  0  0
M  END
> <minimizedAffinity>
12.85495

> <CNNscore>
0.5025199056

> <CNNaffinity>
7.4909224510

> <CNN_VS>
3.7643375397

> <CNNaffinity_variance>
1.0922707319

$$$$
[H]OC(C([H])([H])[H])(C([H])([H])[H])C([H])([H])C([H])([H])N([H])S(=O)(=O)c1c([H])c([H])c(C([H])([H])[H])c(-c2c([H])nc(N([H])[H])c(-c3c([H])nc(OC([H])([H])[H])nc3[H])c2[H])c1[H]


 36 38  0  0  0  0  0  0  0  0999 V2000
   11.8098   22.2784   -0.0948 C   0  0  0  0  0  0  0  0  0  0  0  0
   10.6998   22.8624    0.5248 C   0  0  0  0  0  0  0  0  0  0  0  0
    9.5291   22.2024    0.7625 C   0  0  0  0  0  0  0  0  0  0  0  0
    9.4575   20.8845    0.3608 C   0  0  0  0  0  0  0  0  0  0  0  0
   10.5227   20.2640   -0.2533 C   0  0  0  0  0  0  0  0  0  0  0  0
   11.7121   20.9684   -0.4836 C   0  0  0  0  0  0  0  0  0  0  0  0
   12.8537   20.2825   -1.1365 C   0  0  0  0  0  0  0  0  0  0  0  0
   14.3818   24.3747   -1.8372 C   0  0  0  0  0  0  0  0  0  0  0  0
   13.2482   23.6169   -1.5544 C   0  0  0  0  0  0  0  0  0  0  0  0
   12.9967   23.0600   -0.3113 C   0  0  0  0  0  0  0  0  0  0  0  0
   13.9301   23.2809    0.6785 C   0  0  0  0  0  0  0  0  0  0  0  0
   15.0261   24.0115    0.4118 N   0  0  0  0  0  0  0  0  0  0  0  0
   15.2763   24.5590   -0.8042 C   0  0  0  0  0  0  0  0  0  0  0  0
   16.4632   25.3307   -1.0145 N   0  0  0  0  0  0  0  0  0  0  0  0
   17.3926   24.9150   -0.7665 H   0  0  0  0  0  0  0  0  0  0  0  0
   16.4621   26.2922   -1.4035 H   0  0  0  0  0  0  0  0  0  0  0  0
   14.9672   26.0803   -5.6528 C   0  0  0  0  0  0  0  0  0  0  0  0
   15.5080   24.8927   -5.3423 N   0  0  0  0  0  0  0  0  0  0  0  0
   15.3492   24.2990   -4.1303 C   0  0  0  0  0  0  0  0  0  0  0  0
   14.6012   24.9352   -3.1670 C   0  0  0  0  0  0  0  0  0  0  0  0
   14.0538   26.1551   -3.5062 C   0  0  0  0  0  0  0  0  0  0  0  0
   14.2377   26.7080   -4.7243 N   0  0  0  0  0  0  0  0  0  0  0  0
   15.8964   25.9972   -7.9209 C   0  0  0  0  0  0  0  0  0  0  0  0
   15.1621   26.6531   -6.9249 O   0  0  0  0  0  0  0  0  0  0  0  0
    8.1529   22.9512    1.5386 S   0  0  0  0  0  0  0  0  0  0  0  0
    8.1415   24.3890    1.1671 O   0  0  0  0  0  0  0  0  0  0  0  0
    6.8771   22.3350    1.0289 O   0  0  0  0  0  0  0  0  0  0  0  0
    8.2667   22.8317    3.2555 N   0  0  0  0  0  0  0  0  0  0  0  0
    8.9006   22.0163    3.4521 H   0  0  0  0  0  0  0  0  0  0  0  0
    6.9615   22.6129    3.7872 C   0  0  0  0  0  0  0  0  0  0  0  0
    6.8573   21.5486    4.8308 C   0  0  0  0  0  0  0  0  0  0  0  0
    7.1103   20.1579    4.3686 C   0  0  0  0  0  0  0  0  0  0  0  0
    6.3749   19.8900    3.0912 C   0  0  0  0  0  0  0  0  0  0  0  0
    6.5213   19.2199    5.4248 C   0  0  0  0  0  0  0  0  0  0  0  0
    8.4621   19.8409    4.2847 O   0  0  0  0  0  0  0  0  0  0  0  0
    8.6110   19.1002    3.6162 H   0  0  0  0  0  0  0  0  0  0  0  0
 23 24  1  0  0  0
 24 17  1  0  0  0
 17 18  2  0  0  0
 18 19  1  0  0  0
 19 20  2  0  0  0
 20 21  1  0  0  0
 21 22  2  0  0  0
 20  8  1  0  0  0
  8  9  2  0  0  0
  9 10  1  0  0  0
 10 11  2  0  0  0
 11 12  1  0  0  0
 12 13  2  0  0  0
 13 14  1  0  0  0
 10  1  1  0  0  0
  1  2  2  0  0  0
  2  3  1  0  0  0
  3  4  2  0  0  0
  4  5  1  0  0  0
  5  6  2  0  0  0
  6  7  1  0  0  0
  3 25  1  0  0  0
 25 26  2  0  0  0
 25 27  2  0  0  0
 25 28  1  0  0  0
 28 30  1  0  0  0
 30 31  1  0  0  0
 31 32  1  0  0  0
 32 33  1  0  0  0
 32 34  1  0  0  0
 32 35  1  0  0  0
 22 17  1  0  0  0
 13  8  1  0  0  0
  6  1  1  0  0  0
 14 15  1  0  0  0
 14 16  1  0  0  0
 28 29  1  0  0  0
 35 36  1  0  0  0
M  END
> <minimizedAffinity>
-7.43670

> <CNNscore>
0.4783770442

> <CNNaffinity>
7.4195642471

> <CNN_VS>
3.5493493080

> <CNNaffinity_variance>
0.2420269549

$$$$
[H]OC(C([H])([H])[H])(C([H])([H])[H])C([H])([H])C([H])([H])N([H])S(=O)(=O)c1c([H])c([H])c(C([H])([H])[H])c(-c2c([H])nc(N([H])[H])c(-c3c([H])nc(OC([H])([H])[H])nc3[H])c2[H])c1[H]


 36 38  0  0  0  0  0  0  0  0999 V2000
   12.7117   24.0890   -1.7989 C   0  0  0  0  0  0  0  0  0  0  0  0
   12.4245   23.3045   -0.6769 C   0  0  0  0  0  0  0  0  0  0  0  0
   11.2915   23.4377    0.0722 C   0  0  0  0  0  0  0  0  0  0  0  0
   10.3909   24.4077   -0.3170 C   0  0  0  0  0  0  0  0  0  0  0  0
   10.6273   25.2057   -1.4143 C   0  0  0  0  0  0  0  0  0  0  0  0
   11.8005   25.0447   -2.1638 C   0  0  0  0  0  0  0  0  0  0  0  0
   12.0351   25.9050   -3.3490 C   0  0  0  0  0  0  0  0  0  0  0  0
   15.9698   24.8210   -3.5001 C   0  0  0  0  0  0  0  0  0  0  0  0
   14.7735   24.9490   -2.7991 C   0  0  0  0  0  0  0  0  0  0  0  0
   13.9389   23.8799   -2.5178 C   0  0  0  0  0  0  0  0  0  0  0  0
   14.3342   22.6375   -2.9649 C   0  0  0  0  0  0  0  0  0  0  0  0
   15.4879   22.5074   -3.6418 N   0  0  0  0  0  0  0  0  0  0  0  0
   16.3084   23.5517   -3.9193 C   0  0  0  0  0  0  0  0  0  0  0  0
   17.5256   23.3374   -4.6410 N   0  0  0  0  0  0  0  0  0  0  0  0
   17.4919   22.8355   -5.5604 H   0  0  0  0  0  0  0  0  0  0  0  0
   18.4553   23.6526   -4.3063 H   0  0  0  0  0  0  0  0  0  0  0  0
   18.4122   28.1923   -4.1924 C   0  0  0  0  0  0  0  0  0  0  0  0
   17.9765   27.4398   -5.2139 N   0  0  0  0  0  0  0  0  0  0  0  0
   17.1876   26.3461   -5.0463 C   0  0  0  0  0  0  0  0  0  0  0  0
   16.8107   25.9821   -3.7744 C   0  0  0  0  0  0  0  0  0  0  0  0
   17.2691   26.7689   -2.7381 C   0  0  0  0  0  0  0  0  0  0  0  0
   18.0520   27.8482   -2.9515 N   0  0  0  0  0  0  0  0  0  0  0  0
   19.1041   30.4826   -3.6534 C   0  0  0  0  0  0  0  0  0  0  0  0
   19.2289   29.3173   -4.4201 O   0  0  0  0  0  0  0  0  0  0  0  0
   10.9516   22.4465    1.4719 S   0  0  0  0  0  0  0  0  0  0  0  0
   12.1603   22.4389    2.3344 O   0  0  0  0  0  0  0  0  0  0  0  0
    9.8238   23.0491    2.2669 O   0  0  0  0  0  0  0  0  0  0  0  0
   10.5987   20.8220    1.0119 N   0  0  0  0  0  0  0  0  0  0  0  0
   10.9023   20.2162    1.8159 H   0  0  0  0  0  0  0  0  0  0  0  0
   11.3285   20.5126   -0.1738 C   0  0  0  0  0  0  0  0  0  0  0  0
   12.8137   20.4500   -0.0225 C   0  0  0  0  0  0  0  0  0  0  0  0
   13.3266   20.4755    1.3732 C   0  0  0  0  0  0  0  0  0  0  0  0
   14.0958   21.7363    1.6242 C   0  0  0  0  0  0  0  0  0  0  0  0
   14.3174   19.3168    1.5082 C   0  0  0  0  0  0  0  0  0  0  0  0
   12.3406   20.2507    2.3283 O   0  0  0  0  0  0  0  0  0  0  0  0
   12.6025   20.6630    3.2110 H   0  0  0  0  0  0  0  0  0  0  0  0
 23 24  1  0  0  0
 24 17  1  0  0  0
 17 18  2  0  0  0
 18 19  1  0  0  0
 19 20  2  0  0  0
 20 21  1  0  0  0
 21 22  2  0  0  0
 20  8  1  0  0  0
  8  9  2  0  0  0
  9 10  1  0  0  0
 10 11  2  0  0  0
 11 12  1  0  0  0
 12 13  2  0  0  0
 13 14  1  0  0  0
 10  1  1  0  0  0
  1  2  2  0  0  0
  2  3  1  0  0  0
  3  4  2  0  0  0
  4  5  1  0  0  0
  5  6  2  0  0  0
  6  7  1  0  0  0
  3 25  1  0  0  0
 25 26  2  0  0  0
 25 27  2  0  0  0
 25 28  1  0  0  0
 28 30  1  0  0  0
 30 31  1  0  0  0
 31 32  1  0  0  0
 32 33  1  0  0  0
 32 34  1  0  0  0
 32 35  1  0  0  0
 22 17  1  0  0  0
 13  8  1  0  0  0
  6  1  1  0  0  0
 14 15  1  0  0  0
 14 16  1  0  0  0
 28 29  1  0  0  0
 35 36  1  0  0  0
M  END
> <minimizedAffinity>
16.20236

> <CNNscore>
0.4751358926

> <CNNaffinity>
7.4143691063

> <CNN_VS>
3.5228328705

> <CNNaffinity_variance>
1.5537672043

$$$$
[H]OC(C([H])([H])[H])(C([H])([H])[H])C([H])([H])C([H])([H])N([H])S(=O)(=O)c1c([H])c([H])c(C([H])([H])[H])c(-c2c([H])nc(N([H])[H])c(-c3c([H])nc(OC([H])([H])[H])nc3[H])c2[H])c1[H]


 36 38  0  0  0  0  0  0  0  0999 V2000
   14.8106   27.5910   -3.9018 C   0  0  0  0  0  0  0  0  0  0  0  0
   14.4130   27.2004   -5.1848 C   0  0  0  0  0  0  0  0  0  0  0  0
   15.0729   27.5569   -6.3250 C   0  0  0  0  0  0  0  0  0  0  0  0
   16.1939   28.3481   -6.1814 C   0  0  0  0  0  0  0  0  0  0  0  0
   16.6265   28.7590   -4.9401 C   0  0  0  0  0  0  0  0  0  0  0  0
   15.9273   28.3762   -3.7874 C   0  0  0  0  0  0  0  0  0  0  0  0
   16.4123   28.8184   -2.4572 C   0  0  0  0  0  0  0  0  0  0  0  0
   13.1794   25.3506   -1.3788 C   0  0  0  0  0  0  0  0  0  0  0  0
   13.9163   25.8265   -2.4603 C   0  0  0  0  0  0  0  0  0  0  0  0
   14.0426   27.1727   -2.7608 C   0  0  0  0  0  0  0  0  0  0  0  0
   13.3971   28.0662   -1.9333 C   0  0  0  0  0  0  0  0  0  0  0  0
   12.6845   27.6131   -0.8877 N   0  0  0  0  0  0  0  0  0  0  0  0
   12.5584   26.2955   -0.5896 C   0  0  0  0  0  0  0  0  0  0  0  0
   11.7869   25.8857    0.5441 N   0  0  0  0  0  0  0  0  0  0  0  0
   10.8008   26.2271    0.6405 H   0  0  0  0  0  0  0  0  0  0  0  0
   12.1480   25.2616    1.2897 H   0  0  0  0  0  0  0  0  0  0  0  0
   12.9643   21.1994   -0.6494 C   0  0  0  0  0  0  0  0  0  0  0  0
   12.0545   22.0355   -0.1273 N   0  0  0  0  0  0  0  0  0  0  0  0
   12.0770   23.3786   -0.3321 C   0  0  0  0  0  0  0  0  0  0  0  0
   13.0744   23.9199   -1.1094 C   0  0  0  0  0  0  0  0  0  0  0  0
   13.9998   23.0434   -1.6371 C   0  0  0  0  0  0  0  0  0  0  0  0
   13.9386   21.7142   -1.4071 N   0  0  0  0  0  0  0  0  0  0  0  0
   12.8491   18.8857   -1.4545 C   0  0  0  0  0  0  0  0  0  0  0  0
   12.8962   19.8135   -0.4066 O   0  0  0  0  0  0  0  0  0  0  0  0
   14.5588   27.0579   -7.9199 S   0  0  0  0  0  0  0  0  0  0  0  0
   13.2977   27.7731   -8.2413 O   0  0  0  0  0  0  0  0  0  0  0  0
   15.5887   27.4612   -8.9416 O   0  0  0  0  0  0  0  0  0  0  0  0
   14.2528   25.3612   -7.9716 N   0  0  0  0  0  0  0  0  0  0  0  0
   13.4292   25.1916   -7.3405 H   0  0  0  0  0  0  0  0  0  0  0  0
   15.4118   24.6722   -7.5067 C   0  0  0  0  0  0  0  0  0  0  0  0
   16.1610   25.3389   -6.3990 C   0  0  0  0  0  0  0  0  0  0  0  0
   16.3033   24.5523   -5.1449 C   0  0  0  0  0  0  0  0  0  0  0  0
   15.0169   23.8595   -4.8139 C   0  0  0  0  0  0  0  0  0  0  0  0
   16.5725   25.5510   -4.0170 C   0  0  0  0  0  0  0  0  0  0  0  0
   17.3907   23.6848   -5.1572 O   0  0  0  0  0  0  0  0  0  0  0  0
   17.2355   22.9139   -4.5254 H   0  0  0  0  0  0  0  0  0  0  0  0
 23 24  1  0  0  0
 24 17  1  0  0  0
 17 18  2  0  0  0
 18 19  1  0  0  0
 19 20  2  0  0  0
 20 21  1  0  0  0
 21 22  2  0  0  0
 20  8  1  0  0  0
  8  9  2  0  0  0
  9 10  1  0  0  0
 10 11  2  0  0  0
 11 12  1  0  0  0
 12 13  2  0  0  0
 13 14  1  0  0  0
 10  1  1  0  0  0
  1  2  2  0  0  0
  2  3  1  0  0  0
  3  4  2  0  0  0
  4  5  1  0  0  0
  5  6  2  0  0  0
  6  7  1  0  0  0
  3 25  1  0  0  0
 25 26  2  0  0  0
 25 27  2  0  0  0
 25 28  1  0  0  0
 28 30  1  0  0  0
 30 31  1  0  0  0
 31 32  1  0  0  0
 32 33  1  0  0  0
 32 34  1  0  0  0
 32 35  1  0  0  0
 22 17  1  0  0  0
 13  8  1  0  0  0
  6  1  1  0  0  0
 14 15  1  0  0  0
 14 16  1  0  0  0
 28 29  1  0  0  0
 35 36  1  0  0  0
M  END
> <minimizedAffinity>
34.13514

> <CNNscore>
0.4477112889

> <CNNaffinity>
6.9301595688

> <CNN_VS>
3.1027107239

> <CNNaffinity_variance>
1.3567787409

$$$$
[H]OC(C([H])([H])[H])(C([H])([H])[H])C([H])([H])C([H])([H])N([H])S(=O)(=O)c1c([H])c([H])c(C([H])([H])[H])c(-c2c([H])nc(N([H])[H])c(-c3c([H])nc(OC([H])([H])[H])nc3[H])c2[H])c1[H]


 36 38  0  0  0  0  0  0  0  0999 V2000
   12.2675   23.7591   -0.7358 C   0  0  0  0  0  0  0  0  0  0  0  0
   12.1940   22.5799    0.0132 C   0  0  0  0  0  0  0  0  0  0  0  0
   11.0221   21.9678    0.3516 C   0  0  0  0  0  0  0  0  0  0  0  0
    9.8546   22.5629   -0.0799 C   0  0  0  0  0  0  0  0  0  0  0  0
    9.8735   23.7242   -0.8201 C   0  0  0  0  0  0  0  0  0  0  0  0
   11.0934   24.3291   -1.1519 C   0  0  0  0  0  0  0  0  0  0  0  0
   11.0970   25.5737   -1.9587 C   0  0  0  0  0  0  0  0  0  0  0  0
   15.0759   25.2989   -2.6820 C   0  0  0  0  0  0  0  0  0  0  0  0
   13.8503   24.7446   -2.3215 C   0  0  0  0  0  0  0  0  0  0  0  0
   13.5511   24.3343   -1.0328 C   0  0  0  0  0  0  0  0  0  0  0  0
   14.5319   24.4926   -0.0775 C   0  0  0  0  0  0  0  0  0  0  0  0
   15.7167   25.0271   -0.4191 N   0  0  0  0  0  0  0  0  0  0  0  0
   16.0140   25.4306   -1.6800 C   0  0  0  0  0  0  0  0  0  0  0  0
   17.2962   25.9965   -1.9701 N   0  0  0  0  0  0  0  0  0  0  0  0
   18.1599   25.4680   -1.7003 H   0  0  0  0  0  0  0  0  0  0  0  0
   17.4273   26.9126   -2.4384 H   0  0  0  0  0  0  0  0  0  0  0  0
   15.8391   26.3910   -6.6864 C   0  0  0  0  0  0  0  0  0  0  0  0
   15.6826   27.3269   -5.7383 N   0  0  0  0  0  0  0  0  0  0  0  0
   15.4369   27.0296   -4.4353 C   0  0  0  0  0  0  0  0  0  0  0  0
   15.3417   25.7105   -4.0569 C   0  0  0  0  0  0  0  0  0  0  0  0
   15.5059   24.7637   -5.0467 C   0  0  0  0  0  0  0  0  0  0  0  0
   15.7489   25.1052   -6.3303 N   0  0  0  0  0  0  0  0  0  0  0  0
   16.5568   25.8207   -8.9612 C   0  0  0  0  0  0  0  0  0  0  0  0
   16.0924   26.7523   -8.0242 O   0  0  0  0  0  0  0  0  0  0  0  0
   10.9521   20.4937    1.2892 S   0  0  0  0  0  0  0  0  0  0  0  0
   10.0801   20.7382    2.4661 O   0  0  0  0  0  0  0  0  0  0  0  0
   10.3249   19.3947    0.4732 O   0  0  0  0  0  0  0  0  0  0  0  0
   12.5179   20.0419    1.8543 N   0  0  0  0  0  0  0  0  0  0  0  0
   12.3774   19.6286    2.8107 H   0  0  0  0  0  0  0  0  0  0  0  0
   13.3390   21.2068    1.9092 C   0  0  0  0  0  0  0  0  0  0  0  0
   14.6525   21.1073    1.2037 C   0  0  0  0  0  0  0  0  0  0  0  0
   14.6459   20.3552   -0.0792 C   0  0  0  0  0  0  0  0  0  0  0  0
   15.7322   19.3237   -0.0857 C   0  0  0  0  0  0  0  0  0  0  0  0
   14.9780   21.3565   -1.1880 C   0  0  0  0  0  0  0  0  0  0  0  0
   13.4013   19.8240   -0.4019 O   0  0  0  0  0  0  0  0  0  0  0  0
   13.5045   19.0224   -1.0056 H   0  0  0  0  0  0  0  0  0  0  0  0
 23 24  1  0  0  0
 24 17  1  0  0  0
 17 18  2  0  0  0
 18 19  1  0  0  0
 19 20  2  0  0  0
 20 21  1  0  0  0
 21 22  2  0  0  0
 20  8  1  0  0  0
  8  9  2  0  0  0
  9 10  1  0  0  0
 10 11  2  0  0  0
 11 12  1  0  0  0
 12 13  2  0  0  0
 13 14  1  0  0  0
 10  1  1  0  0  0
  1  2  2  0  0  0
  2  3  1  0  0  0
  3  4  2  0  0  0
  4  5  1  0  0  0
  5  6  2  0  0  0
  6  7  1  0  0  0
  3 25  1  0  0  0
 25 26  2  0  0  0
 25 27  2  0  0  0
 25 28  1  0  0  0
 28 30  1  0  0  0
 30 31  1  0  0  0
 31 32  1  0  0  0
 32 33  1  0  0  0
 32 34  1  0  0  0
 32 35  1  0  0  0
 22 17  1  0  0  0
 13  8  1  0  0  0
  6  1  1  0  0  0
 14 15  1  0  0  0
 14 16  1  0  0  0
 28 29  1  0  0  0
 35 36  1  0  0  0
M  END
> <minimizedAffinity>
-0.91231

> <CNNscore>
0.4469248354

> <CNNaffinity>
7.5938558578

> <CNN_VS>
3.3938827515

> <CNNaffinity_variance>
0.4279859066

$$$$
[H]OC(C([H])([H])[H])(C([H])([H])[H])C([H])([H])C([H])([H])N([H])S(=O)(=O)c1c([H])c([H])c(C([H])([H])[H])c(-c2c([H])nc(N([H])[H])c(-c3c([H])nc(OC([H])([H])[H])nc3[H])c2[H])c1[H]


 36 38  0  0  0  0  0  0  0  0999 V2000
   13.0117   22.6444    0.3446 C   0  0  0  0  0  0  0  0  0  0  0  0
   11.7902   23.2163    0.7157 C   0  0  0  0  0  0  0  0  0  0  0  0
   10.7212   22.4969    1.1656 C   0  0  0  0  0  0  0  0  0  0  0  0
   10.8755   21.1286    1.2518 C   0  0  0  0  0  0  0  0  0  0  0  0
   12.0581   20.5175    0.8985 C   0  0  0  0  0  0  0  0  0  0  0  0
   13.1383   21.2837    0.4399 C   0  0  0  0  0  0  0  0  0  0  0  0
   14.4086   20.6112    0.0735 C   0  0  0  0  0  0  0  0  0  0  0  0
   15.1064   24.7124   -1.9751 C   0  0  0  0  0  0  0  0  0  0  0  0
   14.1007   23.9065   -1.4477 C   0  0  0  0  0  0  0  0  0  0  0  0
   14.0769   23.4862   -0.1281 C   0  0  0  0  0  0  0  0  0  0  0  0
   15.1115   23.8992    0.6834 C   0  0  0  0  0  0  0  0  0  0  0  0
   16.0851   24.6772    0.1804 N   0  0  0  0  0  0  0  0  0  0  0  0
   16.1122   25.0914   -1.1114 C   0  0  0  0  0  0  0  0  0  0  0  0
   17.1791   25.9241   -1.5769 N   0  0  0  0  0  0  0  0  0  0  0  0
   18.1694   25.6170   -1.4249 H   0  0  0  0  0  0  0  0  0  0  0  0
   17.0321   26.8282   -2.0636 H   0  0  0  0  0  0  0  0  0  0  0  0
   15.0059   25.9890   -5.9964 C   0  0  0  0  0  0  0  0  0  0  0  0
   15.5871   24.8278   -5.6599 N   0  0  0  0  0  0  0  0  0  0  0  0
   15.6455   24.3701   -4.3818 C   0  0  0  0  0  0  0  0  0  0  0  0
   15.0863   25.1232   -3.3756 C   0  0  0  0  0  0  0  0  0  0  0  0
   14.4937   26.3136   -3.7425 C   0  0  0  0  0  0  0  0  0  0  0  0
   14.4588   26.7296   -5.0266 N   0  0  0  0  0  0  0  0  0  0  0  0
   15.7818   25.8311   -8.3176 C   0  0  0  0  0  0  0  0  0  0  0  0
   14.9721   26.4187   -7.3375 O   0  0  0  0  0  0  0  0  0  0  0  0
    9.2024   23.2315    1.6245 S   0  0  0  0  0  0  0  0  0  0  0  0
    8.7661   22.6230    2.9069 O   0  0  0  0  0  0  0  0  0  0  0  0
    9.3946   24.7065    1.8579 O   0  0  0  0  0  0  0  0  0  0  0  0
    7.9858   22.9360    0.4380 N   0  0  0  0  0  0  0  0  0  0  0  0
    7.3294   23.7563    0.4793 H   0  0  0  0  0  0  0  0  0  0  0  0
    7.3155   21.7196    0.7622 C   0  0  0  0  0  0  0  0  0  0  0  0
    6.4875   21.1252   -0.3306 C   0  0  0  0  0  0  0  0  0  0  0  0
    7.2009   20.2130   -1.2637 C   0  0  0  0  0  0  0  0  0  0  0  0
    6.3736   19.9670   -2.4882 C   0  0  0  0  0  0  0  0  0  0  0  0
    7.3485   18.8671   -0.5501 C   0  0  0  0  0  0  0  0  0  0  0  0
    8.4928   20.6312   -1.5655 O   0  0  0  0  0  0  0  0  0  0  0  0
    8.7842   20.2633   -2.4585 H   0  0  0  0  0  0  0  0  0  0  0  0
 23 24  1  0  0  0
 24 17  1  0  0  0
 17 18  2  0  0  0
 18 19  1  0  0  0
 19 20  2  0  0  0
 20 21  1  0  0  0
 21 22  2  0  0  0
 20  8  1  0  0  0
  8  9  2  0  0  0
  9 10  1  0  0  0
 10 11  2  0  0  0
 11 12  1  0  0  0
 12 13  2  0  0  0
 13 14  1  0  0  0
 10  1  1  0  0  0
  1  2  2  0  0  0
  2  3  1  0  0  0
  3  4  2  0  0  0
  4  5  1  0  0  0
  5  6  2  0  0  0
  6  7  1  0  0  0
  3 25  1  0  0  0
 25 26  2  0  0  0
 25 27  2  0  0  0
 25 28  1  0  0  0
 28 30  1  0  0  0
 30 31  1  0  0  0
 31 32  1  0  0  0
 32 33  1  0  0  0
 32 34  1  0  0  0
 32 35  1  0  0  0
 22 17  1  0  0  0
 13  8  1  0  0  0
  6  1  1  0  0  0
 14 15  1  0  0  0
 14 16  1  0  0  0
 28 29  1  0  0  0
 35 36  1  0  0  0
M  END
> <minimizedAffinity>
-7.81592

> <CNNscore>
0.4434723556

> <CNNaffinity>
7.5733060837

> <CNN_VS>
3.3585519791

> <CNNaffinity_variance>
0.0785355419

$$$$
[H]OC(C([H])([H])[H])(C([H])([H])[H])C([H])([H])C([H])([H])N([H])S(=O)(=O)c1c([H])c([H])c(C([H])([H])[H])c(-c2c([H])nc(N([H])[H])c(-c3c([H])nc(OC([H])([H])[H])nc3[H])c2[H])c1[H]


 36 38  0  0  0  0  0  0  0  0999 V2000
   12.5112   22.3394    0.2116 C   0  0  0  0  0  0  0  0  0  0  0  0
   11.5603   22.8353    1.1097 C   0  0  0  0  0  0  0  0  0  0  0  0
   10.4558   22.1387    1.5065 C   0  0  0  0  0  0  0  0  0  0  0  0
   10.2866   20.8749    0.9796 C   0  0  0  0  0  0  0  0  0  0  0  0
   11.1945   20.3416    0.0918 C   0  0  0  0  0  0  0  0  0  0  0  0
   12.3194   21.0818   -0.2965 C   0  0  0  0  0  0  0  0  0  0  0  0
   13.2933   20.4888   -1.2452 C   0  0  0  0  0  0  0  0  0  0  0  0
   14.7819   24.4972   -1.8459 C   0  0  0  0  0  0  0  0  0  0  0  0
   13.7161   23.7081   -1.4213 C   0  0  0  0  0  0  0  0  0  0  0  0
   13.6375   23.1547   -0.1540 C   0  0  0  0  0  0  0  0  0  0  0  0
   14.6787   23.4122    0.7116 C   0  0  0  0  0  0  0  0  0  0  0  0
   15.7102   24.1732    0.3078 N   0  0  0  0  0  0  0  0  0  0  0  0
   15.7911   24.7175   -0.9325 C   0  0  0  0  0  0  0  0  0  0  0  0
   16.9184   25.5228   -1.2918 N   0  0  0  0  0  0  0  0  0  0  0  0
   17.8837   25.1375   -1.1587 H   0  0  0  0  0  0  0  0  0  0  0  0
   16.8394   26.4804   -1.6823 H   0  0  0  0  0  0  0  0  0  0  0  0
   14.9400   26.0214   -5.7781 C   0  0  0  0  0  0  0  0  0  0  0  0
   14.2259   26.6450   -4.8292 N   0  0  0  0  0  0  0  0  0  0  0  0
   14.1428   26.1978   -3.5487 C   0  0  0  0  0  0  0  0  0  0  0  0
   14.8179   25.0526   -3.1953 C   0  0  0  0  0  0  0  0  0  0  0  0
   15.5464   24.4266   -4.1855 C   0  0  0  0  0  0  0  0  0  0  0  0
   15.6007   24.9072   -5.4462 N   0  0  0  0  0  0  0  0  0  0  0  0
   15.5619   25.7910   -8.1393 C   0  0  0  0  0  0  0  0  0  0  0  0
   14.9935   26.5268   -7.0920 O   0  0  0  0  0  0  0  0  0  0  0  0
    9.2786   22.7772    2.6305 S   0  0  0  0  0  0  0  0  0  0  0  0
    8.0930   21.8831    2.6120 O   0  0  0  0  0  0  0  0  0  0  0  0
    9.8415   22.7646    4.0269 O   0  0  0  0  0  0  0  0  0  0  0  0
    8.7751   24.3613    2.1699 N   0  0  0  0  0  0  0  0  0  0  0  0
    9.6444   24.9525    2.1517 H   0  0  0  0  0  0  0  0  0  0  0  0
    7.8411   24.8437    3.1337 C   0  0  0  0  0  0  0  0  0  0  0  0
    7.2792   26.2025    2.8677 C   0  0  0  0  0  0  0  0  0  0  0  0
    7.5311   27.2267    3.9161 C   0  0  0  0  0  0  0  0  0  0  0  0
    8.7817   26.9018    4.6742 C   0  0  0  0  0  0  0  0  0  0  0  0
    6.3731   27.1423    4.9132 C   0  0  0  0  0  0  0  0  0  0  0  0
    7.5238   28.5296    3.4287 O   0  0  0  0  0  0  0  0  0  0  0  0
    8.0753   29.1320    4.0209 H   0  0  0  0  0  0  0  0  0  0  0  0
 23 24  1  0  0  0
 24 17  1  0  0  0
 17 18  2  0  0  0
 18 19  1  0  0  0
 19 20  2  0  0  0
 20 21  1  0  0  0
 21 22  2  0  0  0
 20  8  1  0  0  0
  8  9  2  0  0  0
  9 10  1  0  0  0
 10 11  2  0  0  0
 11 12  1  0  0  0
 12 13  2  0  0  0
 13 14  1  0  0  0
 10  1  1  0  0  0
  1  2  2  0  0  0
  2  3  1  0  0  0
  3  4  2  0  0  0
  4  5  1  0  0  0
  5  6  2  0  0  0
  6  7  1  0  0  0
  3 25  1  0  0  0
 25 26  2  0  0  0
 25 27  2  0  0  0
 25 28  1  0  0  0
 28 30  1  0  0  0
 30 31  1  0  0  0
 31 32  1  0  0  0
 32 33  1  0  0  0
 32 34  1  0  0  0
 32 35  1  0  0  0
 22 17  1  0  0  0
 13  8  1  0  0  0
  6  1  1  0  0  0
 14 15  1  0  0  0
 14 16  1  0  0  0
 28 29  1  0  0  0
 35 36  1  0  0  0
M  END
> <minimizedAffinity>
-8.38161

> <CNNscore>
0.4433991313

> <CNNaffinity>
7.5467567444

> <CNN_VS>
3.3462255001

> <CNNaffinity_variance>
0.1542581320

$$$$
[H]c1nn([H])c([H])c1-c1c([H])c([H])c2c(nc([H])n2-c2sc(C(=O)N([H])[H])c(O[C@@]([H])(c3c([H])c([H])c([H])c([H])c3C(F)(F)F)C([H])([H])[H])c2[H])c1[H]


 38 42  0  0  0  0  0  0  0  0999 V2000
   11.4489   23.5963    0.8459 C   0  0  0  0  0  0  0  0  0  0  0  0
   11.6799   24.5806   -0.0191 C   0  0  0  0  0  0  0  0  0  0  0  0
   12.4864   24.3146   -1.1055 C   0  0  0  0  0  0  0  0  0  0  0  0
   12.8959   22.6789   -0.8722 S   0  0  0  0  0  0  0  0  0  0  0  0
   12.0507   22.3738    0.5710 C   0  0  0  0  0  0  0  0  0  0  0  0
   12.8588   25.2276   -2.1521 N   0  0  0  0  0  0  0  0  0  0  0  0
   12.1256   25.7694   -3.1291 C   0  0  0  0  0  0  0  0  0  0  0  0
   12.8884   26.5789   -3.8955 N   0  0  0  0  0  0  0  0  0  0  0  0
   14.1218   26.5617   -3.4129 C   0  0  0  0  0  0  0  0  0  0  0  0
   15.3301   27.1598   -3.7381 C   0  0  0  0  0  0  0  0  0  0  0  0
   16.4951   26.9594   -3.0428 C   0  0  0  0  0  0  0  0  0  0  0  0
   16.4430   26.1072   -1.9560 C   0  0  0  0  0  0  0  0  0  0  0  0
   15.2681   25.4917   -1.5957 C   0  0  0  0  0  0  0  0  0  0  0  0
   14.1001   25.7029   -2.3063 C   0  0  0  0  0  0  0  0  0  0  0  0
   17.7304   27.6203   -3.4392 C   0  0  0  0  0  0  0  0  0  0  0  0
   19.0069   27.1520   -3.1720 C   0  0  0  0  0  0  0  0  0  0  0  0
   19.8717   28.0372   -3.6975 N   0  0  0  0  0  0  0  0  0  0  0  0
   19.2393   29.0374   -4.2811 N   0  0  0  0  0  0  0  0  0  0  0  0
   17.9197   28.8000   -4.1335 C   0  0  0  0  0  0  0  0  0  0  0  0
   19.6874   29.8667   -4.7711 H   0  0  0  0  0  0  0  0  0  0  0  0
   11.9916   21.1194    1.3159 C   0  0  0  0  0  0  0  0  0  0  0  0
   11.2772   20.0222    0.8133 N   0  0  0  0  0  0  0  0  0  0  0  0
   12.5908   21.0459    2.4094 O   0  0  0  0  0  0  0  0  0  0  0  0
   11.6197   19.0368    0.9544 H   0  0  0  0  0  0  0  0  0  0  0  0
   10.3821   20.1097    0.2803 H   0  0  0  0  0  0  0  0  0  0  0  0
   10.6509   23.6711    2.0167 O   0  0  0  0  0  0  0  0  0  0  0  0
    8.7837   23.3756    0.5427 C   0  0  0  0  0  0  0  0  0  0  0  0
    9.3444   23.2727    2.0090 C   0  0  0  0  0  0  0  0  0  0  0  0
    8.3858   23.8266    2.9372 C   0  0  0  0  0  0  0  0  0  0  0  0
    7.9102   25.1346    2.7404 C   0  0  0  0  0  0  0  0  0  0  0  0
    6.9863   25.7418    3.5463 C   0  0  0  0  0  0  0  0  0  0  0  0
    6.4772   25.0470    4.6227 C   0  0  0  0  0  0  0  0  0  0  0  0
    6.9266   23.7786    4.8298 C   0  0  0  0  0  0  0  0  0  0  0  0
    7.8818   23.1438    4.0021 C   0  0  0  0  0  0  0  0  0  0  0  0
    8.3263   21.7978    4.3158 C   0  0  0  0  0  0  0  0  0  0  0  0
    7.9060   21.5253    5.6501 F   0  0  0  0  0  0  0  0  0  0  0  0
    7.7561   20.7772    3.6042 F   0  0  0  0  0  0  0  0  0  0  0  0
    9.6987   21.6797    4.4900 F   0  0  0  0  0  0  0  0  0  0  0  0
 27 28  1  0  0  0
 28 26  1  0  0  0
 26  1  1  0  0  0
  1  2  1  0  0  0
  2  3  2  0  0  0
  3  4  1  0  0  0
  4  5  1  0  0  0
  5 21  1  0  0  0
 21 22  1  0  0  0
 21 23  2  0  0  0
  3  6  1  0  0  0
  6  7  1  0  0  0
  7  8  2  0  0  0
  8  9  1  0  0  0
  9 10  2  0  0  0
 10 11  1  0  0  0
 11 12  2  0  0  0
 12 13  1  0  0  0
 13 14  2  0  0  0
 11 15  1  0  0  0
 15 16  1  0  0  0
 16 17  2  0  0  0
 17 18  1  0  0  0
 18 19  1  0  0  0
 28 29  1  0  0  0
 29 30  2  0  0  0
 30 31  1  0  0  0
 31 32  2  0  0  0
 32 33  1  0  0  0
 33 34  2  0  0  0
 34 35  1  0  0  0
 35 36  1  0  0  0
 35 37  1  0  0  0
 35 38  1  0  0  0
  5  1  2  0  0  0
 14  6  1  0  0  0
 19 15  2  0  0  0
 34 29  1  0  0  0
 14  9  1  0  0  0
 22 24  1  0  0  0
 22 25  1  0  0  0
 18 20  1  0  0  0
M  END
> <minimizedAffinity>
-2.85560

> <CNNscore>
0.3813158870

> <CNNaffinity>
7.1980667114

> <CNN_VS>
2.7447371483

> <CNNaffinity_variance>
0.4762746394

$$$$
[H]c1nn([H])c([H])c1-c1c([H])c([H])c2c(nc([H])n2-c2sc(C(=O)N([H])[H])c(O[C@@]([H])(c3c([H])c([H])c([H])c([H])c3C(F)(F)F)C([H])([H])[H])c2[H])c1[H]


 38 42  0  0  0  0  0  0  0  0999 V2000
   13.6417   24.3940   -2.7147 C   0  0  0  0  0  0  0  0  0  0  0  0
   13.5381   23.4701   -1.7628 C   0  0  0  0  0  0  0  0  0  0  0  0
   12.7392   23.7467   -0.6734 C   0  0  0  0  0  0  0  0  0  0  0  0
   12.1575   25.3071   -1.0264 S   0  0  0  0  0  0  0  0  0  0  0  0
   12.9256   25.5694   -2.5201 C   0  0  0  0  0  0  0  0  0  0  0  0
   12.4893   22.8934    0.4566 N   0  0  0  0  0  0  0  0  0  0  0  0
   13.1724   21.8393    0.9127 C   0  0  0  0  0  0  0  0  0  0  0  0
   12.5740   21.3313    2.0119 N   0  0  0  0  0  0  0  0  0  0  0  0
   11.4980   22.0596    2.2695 C   0  0  0  0  0  0  0  0  0  0  0  0
   10.4942   22.0549    3.2266 C   0  0  0  0  0  0  0  0  0  0  0  0
    9.4630   22.9584    3.2589 C   0  0  0  0  0  0  0  0  0  0  0  0
    9.4388   23.9242    2.2705 C   0  0  0  0  0  0  0  0  0  0  0  0
   10.4120   23.9684    1.3010 C   0  0  0  0  0  0  0  0  0  0  0  0
   11.4467   23.0504    1.2805 C   0  0  0  0  0  0  0  0  0  0  0  0
    8.4409   22.8961    4.2940 C   0  0  0  0  0  0  0  0  0  0  0  0
    7.9953   21.7356    4.9062 C   0  0  0  0  0  0  0  0  0  0  0  0
    7.0557   22.0941    5.7984 N   0  0  0  0  0  0  0  0  0  0  0  0
    6.8689   23.4003    5.8000 N   0  0  0  0  0  0  0  0  0  0  0  0
    7.7123   23.9131    4.8807 C   0  0  0  0  0  0  0  0  0  0  0  0
    6.1854   23.9388    6.4094 H   0  0  0  0  0  0  0  0  0  0  0  0
   12.8338   26.7540   -3.3687 C   0  0  0  0  0  0  0  0  0  0  0  0
   11.7867   26.8937   -4.2911 N   0  0  0  0  0  0  0  0  0  0  0  0
   13.7080   27.6390   -3.2545 O   0  0  0  0  0  0  0  0  0  0  0  0
   11.3555   27.8333   -4.4893 H   0  0  0  0  0  0  0  0  0  0  0  0
   11.3777   26.0949   -4.8273 H   0  0  0  0  0  0  0  0  0  0  0  0
   14.4080   24.2976   -3.9050 O   0  0  0  0  0  0  0  0  0  0  0  0
   16.4337   23.8465   -2.7049 C   0  0  0  0  0  0  0  0  0  0  0  0
   15.7438   24.5836   -3.9114 C   0  0  0  0  0  0  0  0  0  0  0  0
   16.2187   25.9460   -3.9861 C   0  0  0  0  0  0  0  0  0  0  0  0
   16.8706   26.5118   -2.8767 C   0  0  0  0  0  0  0  0  0  0  0  0
   17.3773   27.7824   -2.8537 C   0  0  0  0  0  0  0  0  0  0  0  0
   17.2523   28.5736   -3.9757 C   0  0  0  0  0  0  0  0  0  0  0  0
   16.6231   28.0428   -5.0601 C   0  0  0  0  0  0  0  0  0  0  0  0
   16.0959   26.7307   -5.0921 C   0  0  0  0  0  0  0  0  0  0  0  0
   15.4132   26.2573   -6.2828 C   0  0  0  0  0  0  0  0  0  0  0  0
   16.0367   26.8926   -7.3957 F   0  0  0  0  0  0  0  0  0  0  0  0
   15.5421   24.9279   -6.5814 F   0  0  0  0  0  0  0  0  0  0  0  0
   14.1274   26.7583   -6.4365 F   0  0  0  0  0  0  0  0  0  0  0  0
 27 28  1  0  0  0
 28 26  1  0  0  0
 26  1  1  0  0  0
  1  2  1  0  0  0
  2  3  2  0  0  0
  3  4  1  0  0  0
  4  5  1  0  0  0
  5 21  1  0  0  0
 21 22  1  0  0  0
 21 23  2  0  0  0
  3  6  1  0  0  0
  6  7  1  0  0  0
  7  8  2  0  0  0
  8  9  1  0  0  0
  9 10  2  0  0  0
 10 11  1  0  0  0
 11 12  2  0  0  0
 12 13  1  0  0  0
 13 14  2  0  0  0
 11 15  1  0  0  0
 15 16  1  0  0  0
 16 17  2  0  0  0
 17 18  1  0  0  0
 18 19  1  0  0  0
 28 29  1  0  0  0
 29 30  2  0  0  0
 30 31  1  0  0  0
 31 32  2  0  0  0
 32 33  1  0  0  0
 33 34  2  0  0  0
 34 35  1  0  0  0
 35 36  1  0  0  0
 35 37  1  0  0  0
 35 38  1  0  0  0
  5  1  2  0  0  0
 14  6  1  0  0  0
 19 15  2  0  0  0
 34 29  1  0  0  0
 14  9  1  0  0  0
 22 24  1  0  0  0
 22 25  1  0  0  0
 18 20  1  0  0  0
M  END
> <minimizedAffinity>
-6.71778

> <CNNscore>
0.3696065247

> <CNNaffinity>
7.4637336731

> <CNN_VS>
2.7586445808

> <CNNaffinity_variance>
0.3252315521

$$$$
[H]c1nn([H])c([H])c1-c1c([H])c([H])c2c(nc([H])n2-c2sc(C(=O)N([H])[H])c(O[C@@]([H])(c3c([H])c([H])c([H])c([H])c3C(F)(F)F)C([H])([H])[H])c2[H])c1[H]


 38 42  0  0  0  0  0  0  0  0999 V2000
   10.9362   22.7001    1.9664 C   0  0  0  0  0  0  0  0  0  0  0  0
   11.6124   22.8582    0.8314 C   0  0  0  0  0  0  0  0  0  0  0  0
   12.5448   21.9007    0.4922 C   0  0  0  0  0  0  0  0  0  0  0  0
   12.4391   20.8036    1.7894 S   0  0  0  0  0  0  0  0  0  0  0  0
   11.2368   21.5688    2.7162 C   0  0  0  0  0  0  0  0  0  0  0  0
   13.3760   21.8780   -0.6810 N   0  0  0  0  0  0  0  0  0  0  0  0
   13.9866   20.8568   -1.2891 C   0  0  0  0  0  0  0  0  0  0  0  0
   14.6700   21.2937   -2.3693 N   0  0  0  0  0  0  0  0  0  0  0  0
   14.5014   22.6042   -2.4616 C   0  0  0  0  0  0  0  0  0  0  0  0
   14.9263   23.6081   -3.3191 C   0  0  0  0  0  0  0  0  0  0  0  0
   14.5899   24.9299   -3.1766 C   0  0  0  0  0  0  0  0  0  0  0  0
   13.7780   25.2631   -2.1088 C   0  0  0  0  0  0  0  0  0  0  0  0
   13.3322   24.3024   -1.2327 C   0  0  0  0  0  0  0  0  0  0  0  0
   13.6796   22.9724   -1.3885 C   0  0  0  0  0  0  0  0  0  0  0  0
   15.0715   25.9337   -4.1148 C   0  0  0  0  0  0  0  0  0  0  0  0
   15.1493   25.7695   -5.4885 C   0  0  0  0  0  0  0  0  0  0  0  0
   15.6407   26.9129   -5.9970 N   0  0  0  0  0  0  0  0  0  0  0  0
   15.8826   27.7958   -5.0467 N   0  0  0  0  0  0  0  0  0  0  0  0
   15.5388   27.2128   -3.8800 C   0  0  0  0  0  0  0  0  0  0  0  0
   16.2725   28.7750   -5.1801 H   0  0  0  0  0  0  0  0  0  0  0  0
   10.6770   21.1198    3.9877 C   0  0  0  0  0  0  0  0  0  0  0  0
   10.5538   22.0059    5.0677 N   0  0  0  0  0  0  0  0  0  0  0  0
   10.3108   19.9300    4.0916 O   0  0  0  0  0  0  0  0  0  0  0  0
    9.7350   21.9524    5.7271 H   0  0  0  0  0  0  0  0  0  0  0  0
   11.2488   22.7569    5.2820 H   0  0  0  0  0  0  0  0  0  0  0  0
    9.9415   23.5692    2.4846 O   0  0  0  0  0  0  0  0  0  0  0  0
    8.0562   23.8997    1.0412 C   0  0  0  0  0  0  0  0  0  0  0  0
    8.6132   23.2712    2.3715 C   0  0  0  0  0  0  0  0  0  0  0  0
    7.6921   23.5278    3.4545 C   0  0  0  0  0  0  0  0  0  0  0  0
    6.9907   22.4559    4.0332 C   0  0  0  0  0  0  0  0  0  0  0  0
    6.1155   22.5889    5.0764 C   0  0  0  0  0  0  0  0  0  0  0  0
    5.8930   23.8412    5.6081 C   0  0  0  0  0  0  0  0  0  0  0  0
    6.5631   24.8921    5.0601 C   0  0  0  0  0  0  0  0  0  0  0  0
    7.4688   24.7634    3.9814 C   0  0  0  0  0  0  0  0  0  0  0  0
    8.1171   25.9444    3.4400 C   0  0  0  0  0  0  0  0  0  0  0  0
    7.8520   27.0121    4.3459 F   0  0  0  0  0  0  0  0  0  0  0  0
    9.4844   25.9274    3.3835 F   0  0  0  0  0  0  0  0  0  0  0  0
    7.5018   26.4603    2.3072 F   0  0  0  0  0  0  0  0  0  0  0  0
 27 28  1  0  0  0
 28 26  1  0  0  0
 26  1  1  0  0  0
  1  2  1  0  0  0
  2  3  2  0  0  0
  3  4  1  0  0  0
  4  5  1  0  0  0
  5 21  1  0  0  0
 21 22  1  0  0  0
 21 23  2  0  0  0
  3  6  1  0  0  0
  6  7  1  0  0  0
  7  8  2  0  0  0
  8  9  1  0  0  0
  9 10  2  0  0  0
 10 11  1  0  0  0
 11 12  2  0  0  0
 12 13  1  0  0  0
 13 14  2  0  0  0
 11 15  1  0  0  0
 15 16  1  0  0  0
 16 17  2  0  0  0
 17 18  1  0  0  0
 18 19  1  0  0  0
 28 29  1  0  0  0
 29 30  2  0  0  0
 30 31  1  0  0  0
 31 32  2  0  0  0
 32 33  1  0  0  0
 33 34  2  0  0  0
 34 35  1  0  0  0
 35 36  1  0  0  0
 35 37  1  0  0  0
 35 38  1  0  0  0
  5  1  2  0  0  0
 14  6  1  0  0  0
 19 15  2  0  0  0
 34 29  1  0  0  0
 14  9  1  0  0  0
 22 24  1  0  0  0
 22 25  1  0  0  0
 18 20  1  0  0  0
M  END
> <minimizedAffinity>
-8.97469

> <CNNscore>
0.3170424402

> <CNNaffinity>
7.3063325882

> <CNN_VS>
2.3164174557

> <CNNaffinity_variance>
0.1531814188

$$$$
[H]c1nn([H])c([H])c1-c1c([H])c([H])c2c(nc([H])n2-c2sc(C(=O)N([H])[H])c(O[C@@]([H])(c3c([H])c([H])c([H])c([H])c3C(F)(F)F)C([H])([H])[H])c2[H])c1[H]


 38 42  0  0  0  0  0  0  0  0999 V2000
    9.1142   23.5438    1.2040 C   0  0  0  0  0  0  0  0  0  0  0  0
   10.3684   23.9286    0.9820 C   0  0  0  0  0  0  0  0  0  0  0  0
   11.2005   23.0678    0.2979 C   0  0  0  0  0  0  0  0  0  0  0  0
   10.1848   21.7373   -0.0115 S   0  0  0  0  0  0  0  0  0  0  0  0
    8.7536   22.2918    0.7196 C   0  0  0  0  0  0  0  0  0  0  0  0
   12.5792   23.2867   -0.0469 N   0  0  0  0  0  0  0  0  0  0  0  0
   13.6947   22.7714    0.4782 C   0  0  0  0  0  0  0  0  0  0  0  0
   14.7822   23.2578   -0.1584 N   0  0  0  0  0  0  0  0  0  0  0  0
   14.3695   24.0924   -1.1006 C   0  0  0  0  0  0  0  0  0  0  0  0
   14.9716   24.8875   -2.0644 C   0  0  0  0  0  0  0  0  0  0  0  0
   14.2801   25.6822   -2.9424 C   0  0  0  0  0  0  0  0  0  0  0  0
   12.9013   25.6778   -2.8464 C   0  0  0  0  0  0  0  0  0  0  0  0
   12.2603   24.9059   -1.9070 C   0  0  0  0  0  0  0  0  0  0  0  0
   12.9706   24.1088   -1.0274 C   0  0  0  0  0  0  0  0  0  0  0  0
   14.9763   26.4932   -3.9311 C   0  0  0  0  0  0  0  0  0  0  0  0
   14.5241   26.7471   -5.2161 C   0  0  0  0  0  0  0  0  0  0  0  0
   15.4415   27.5289   -5.8116 N   0  0  0  0  0  0  0  0  0  0  0  0
   16.4473   27.7926   -4.9993 N   0  0  0  0  0  0  0  0  0  0  0  0
   16.1804   27.1644   -3.8359 C   0  0  0  0  0  0  0  0  0  0  0  0
   17.2998   28.3857   -5.2232 H   0  0  0  0  0  0  0  0  0  0  0  0
    7.4724   21.5964    0.8012 C   0  0  0  0  0  0  0  0  0  0  0  0
    6.5058   21.7579   -0.2021 N   0  0  0  0  0  0  0  0  0  0  0  0
    7.2569   20.8555    1.7835 O   0  0  0  0  0  0  0  0  0  0  0  0
    5.8900   20.9582   -0.5008 H   0  0  0  0  0  0  0  0  0  0  0  0
    6.3389   22.6593   -0.7049 H   0  0  0  0  0  0  0  0  0  0  0  0
    8.1119   24.2833    1.8836 O   0  0  0  0  0  0  0  0  0  0  0  0
    9.1661   23.5986    3.9248 C   0  0  0  0  0  0  0  0  0  0  0  0
    8.2732   24.6624    3.1859 C   0  0  0  0  0  0  0  0  0  0  0  0
    7.1394   25.0057    4.0130 C   0  0  0  0  0  0  0  0  0  0  0  0
    6.4995   24.0011    4.7592 C   0  0  0  0  0  0  0  0  0  0  0  0
    5.4352   24.2255    5.5891 C   0  0  0  0  0  0  0  0  0  0  0  0
    4.9442   25.5073    5.7167 C   0  0  0  0  0  0  0  0  0  0  0  0
    5.5510   26.4938    5.0010 C   0  0  0  0  0  0  0  0  0  0  0  0
    6.6510   26.2704    4.1404 C   0  0  0  0  0  0  0  0  0  0  0  0
    7.2170   27.3782    3.3919 C   0  0  0  0  0  0  0  0  0  0  0  0
    6.7061   28.5739    3.9754 F   0  0  0  0  0  0  0  0  0  0  0  0
    8.5715   27.5539    3.4780 F   0  0  0  0  0  0  0  0  0  0  0  0
    6.6996   27.5209    2.1113 F   0  0  0  0  0  0  0  0  0  0  0  0
 27 28  1  0  0  0
 28 26  1  0  0  0
 26  1  1  0  0  0
  1  2  1  0  0  0
  2  3  2  0  0  0
  3  4  1  0  0  0
  4  5  1  0  0  0
  5 21  1  0  0  0
 21 22  1  0  0  0
 21 23  2  0  0  0
  3  6  1  0  0  0
  6  7  1  0  0  0
  7  8  2  0  0  0
  8  9  1  0  0  0
  9 10  2  0  0  0
 10 11  1  0  0  0
 11 12  2  0  0  0
 12 13  1  0  0  0
 13 14  2  0  0  0
 11 15  1  0  0  0
 15 16  1  0  0  0
 16 17  2  0  0  0
 17 18  1  0  0  0
 18 19  1  0  0  0
 28 29  1  0  0  0
 29 30  2  0  0  0
 30 31  1  0  0  0
 31 32  2  0  0  0
 32 33  1  0  0  0
 33 34  2  0  0  0
 34 35  1  0  0  0
 35 36  1  0  0  0
 35 37  1  0  0  0
 35 38  1  0  0  0
  5  1  2  0  0  0
 14  6  1  0  0  0
 19 15  2  0  0  0
 34 29  1  0  0  0
 14  9  1  0  0  0
 22 24  1  0  0  0
 22 25  1  0  0  0
 18 20  1  0  0  0
M  END
> <minimizedAffinity>
-9.71492

> <CNNscore>
0.3015605211

> <CNNaffinity>
7.2090291977

> <CNN_VS>
2.1739585400

> <CNNaffinity_variance>
0.2177624404

$$$$
[H]c1nn([H])c([H])c1-c1c([H])c([H])c2c(nc([H])n2-c2sc(C(=O)N([H])[H])c(O[C@@]([H])(c3c([H])c([H])c([H])c([H])c3C(F)(F)F)C([H])([H])[H])c2[H])c1[H]


 38 42  0  0  0  0  0  0  0  0999 V2000
   10.8228   22.8056    2.2756 C   0  0  0  0  0  0  0  0  0  0  0  0
   11.5395   22.9974    1.1711 C   0  0  0  0  0  0  0  0  0  0  0  0
   12.3193   21.9561    0.7140 C   0  0  0  0  0  0  0  0  0  0  0  0
   12.0170   20.7348    1.8606 S   0  0  0  0  0  0  0  0  0  0  0  0
   10.9283   21.5562    2.8755 C   0  0  0  0  0  0  0  0  0  0  0  0
   13.1619   21.9513   -0.4513 N   0  0  0  0  0  0  0  0  0  0  0  0
   13.7871   20.9409   -1.0628 C   0  0  0  0  0  0  0  0  0  0  0  0
   14.4770   21.3934   -2.1322 N   0  0  0  0  0  0  0  0  0  0  0  0
   14.2982   22.7033   -2.2142 C   0  0  0  0  0  0  0  0  0  0  0  0
   14.7227   23.7186   -3.0583 C   0  0  0  0  0  0  0  0  0  0  0  0
   14.3736   25.0362   -2.9070 C   0  0  0  0  0  0  0  0  0  0  0  0
   13.5487   25.3526   -1.8441 C   0  0  0  0  0  0  0  0  0  0  0  0
   13.1028   24.3802   -0.9812 C   0  0  0  0  0  0  0  0  0  0  0  0
   13.4629   23.0547   -1.1458 C   0  0  0  0  0  0  0  0  0  0  0  0
   14.8557   26.0527   -3.8313 C   0  0  0  0  0  0  0  0  0  0  0  0
   14.2226   26.4279   -5.0053 C   0  0  0  0  0  0  0  0  0  0  0  0
   14.9752   27.3869   -5.5722 N   0  0  0  0  0  0  0  0  0  0  0  0
   16.0437   27.6512   -4.8445 N   0  0  0  0  0  0  0  0  0  0  0  0
   15.9892   26.8405   -3.7679 C   0  0  0  0  0  0  0  0  0  0  0  0
   16.7978   28.3654   -5.0678 H   0  0  0  0  0  0  0  0  0  0  0  0
   10.2785   21.0440    4.0785 C   0  0  0  0  0  0  0  0  0  0  0  0
   10.8673   21.2195    5.3392 N   0  0  0  0  0  0  0  0  0  0  0  0
    9.1878   20.4469    3.9595 O   0  0  0  0  0  0  0  0  0  0  0  0
   10.2812   21.3958    6.1957 H   0  0  0  0  0  0  0  0  0  0  0  0
   11.8989   21.1871    5.5054 H   0  0  0  0  0  0  0  0  0  0  0  0
    9.9639   23.7476    2.8988 O   0  0  0  0  0  0  0  0  0  0  0  0
    8.4024   23.7806    1.0803 C   0  0  0  0  0  0  0  0  0  0  0  0
    8.6232   23.7634    2.6378 C   0  0  0  0  0  0  0  0  0  0  0  0
    7.7484   24.7272    3.2646 C   0  0  0  0  0  0  0  0  0  0  0  0
    7.7524   26.0588    2.8145 C   0  0  0  0  0  0  0  0  0  0  0  0
    6.9473   27.0407    3.3239 C   0  0  0  0  0  0  0  0  0  0  0  0
    6.0710   26.7274    4.3410 C   0  0  0  0  0  0  0  0  0  0  0  0
    6.0533   25.4425    4.7907 C   0  0  0  0  0  0  0  0  0  0  0  0
    6.8825   24.4217    4.2702 C   0  0  0  0  0  0  0  0  0  0  0  0
    6.8178   23.0843    4.8316 C   0  0  0  0  0  0  0  0  0  0  0  0
    5.7695   23.0927    5.7970 F   0  0  0  0  0  0  0  0  0  0  0  0
    6.4421   22.0766    3.9853 F   0  0  0  0  0  0  0  0  0  0  0  0
    7.8814   22.7671    5.6659 F   0  0  0  0  0  0  0  0  0  0  0  0
 27 28  1  0  0  0
 28 26  1  0  0  0
 26  1  1  0  0  0
  1  2  1  0  0  0
  2  3  2  0  0  0
  3  4  1  0  0  0
  4  5  1  0  0  0
  5 21  1  0  0  0
 21 22  1  0  0  0
 21 23  2  0  0  0
  3  6  1  0  0  0
  6  7  1  0  0  0
  7  8  2  0  0  0
  8  9  1  0  0  0
  9 10  2  0  0  0
 10 11  1  0  0  0
 11 12  2  0  0  0
 12 13  1  0  0  0
 13 14  2  0  0  0
 11 15  1  0  0  0
 15 16  1  0  0  0
 16 17  2  0  0  0
 17 18  1  0  0  0
 18 19  1  0  0  0
 28 29  1  0  0  0
 29 30  2  0  0  0
 30 31  1  0  0  0
 31 32  2  0  0  0
 32 33  1  0  0  0
 33 34  2  0  0  0
 34 35  1  0  0  0
 35 36  1  0  0  0
 35 37  1  0  0  0
 35 38  1  0  0  0
  5  1  2  0  0  0
 14  6  1  0  0  0
 19 15  2  0  0  0
 34 29  1  0  0  0
 14  9  1  0  0  0
 22 24  1  0  0  0
 22 25  1  0  0  0
 18 20  1  0  0  0
M  END
> <minimizedAffinity>
-9.77939

> <CNNscore>
0.2540330887

> <CNNaffinity>
7.2745637894

> <CNN_VS>
1.8479799032

> <CNNaffinity_variance>
0.1466721594

$$$$
[H]c1nn([H])c([H])c1-c1c([H])c([H])c2c(nc([H])n2-c2sc(C(=O)N([H])[H])c(O[C@@]([H])(c3c([H])c([H])c([H])c([H])c3C(F)(F)F)C([H])([H])[H])c2[H])c1[H]


 38 42  0  0  0  0  0  0  0  0999 V2000
   10.6226   21.5355    1.3781 C   0  0  0  0  0  0  0  0  0  0  0  0
   11.2282   21.7629    0.2154 C   0  0  0  0  0  0  0  0  0  0  0  0
   12.5831   21.5212    0.1306 C   0  0  0  0  0  0  0  0  0  0  0  0
   12.9623   20.9795    1.6992 S   0  0  0  0  0  0  0  0  0  0  0  0
   11.4229   21.0694    2.4146 C   0  0  0  0  0  0  0  0  0  0  0  0
   13.4241   21.6970   -1.0225 N   0  0  0  0  0  0  0  0  0  0  0  0
   14.0447   20.7933   -1.7865 C   0  0  0  0  0  0  0  0  0  0  0  0
   14.7349   21.4062   -2.7727 N   0  0  0  0  0  0  0  0  0  0  0  0
   14.5607   22.7133   -2.6472 C   0  0  0  0  0  0  0  0  0  0  0  0
   14.9879   23.8473   -3.3218 C   0  0  0  0  0  0  0  0  0  0  0  0
   14.6438   25.1258   -2.9643 C   0  0  0  0  0  0  0  0  0  0  0  0
   13.8215   25.2738   -1.8634 C   0  0  0  0  0  0  0  0  0  0  0  0
   13.3732   24.1792   -1.1634 C   0  0  0  0  0  0  0  0  0  0  0  0
   13.7282   22.8949   -1.5352 C   0  0  0  0  0  0  0  0  0  0  0  0
   15.1284   26.2734   -3.7180 C   0  0  0  0  0  0  0  0  0  0  0  0
   14.4208   26.9323   -4.7106 C   0  0  0  0  0  0  0  0  0  0  0  0
   15.2034   27.9288   -5.1600 N   0  0  0  0  0  0  0  0  0  0  0  0
   16.3602   27.9538   -4.5258 N   0  0  0  0  0  0  0  0  0  0  0  0
   16.3344   26.9426   -3.6335 C   0  0  0  0  0  0  0  0  0  0  0  0
   17.1546   28.6397   -4.6899 H   0  0  0  0  0  0  0  0  0  0  0  0
   11.0621   20.7309    3.7884 C   0  0  0  0  0  0  0  0  0  0  0  0
   10.1775   21.5404    4.5157 N   0  0  0  0  0  0  0  0  0  0  0  0
   11.5586   19.7054    4.3004 O   0  0  0  0  0  0  0  0  0  0  0  0
    9.4882   21.1239    5.1936 H   0  0  0  0  0  0  0  0  0  0  0  0
   10.1464   22.5822    4.4339 H   0  0  0  0  0  0  0  0  0  0  0  0
    9.2449   21.7207    1.6629 O   0  0  0  0  0  0  0  0  0  0  0  0
    7.8853   23.3455    0.5411 C   0  0  0  0  0  0  0  0  0  0  0  0
    8.3251   21.8397    0.6601 C   0  0  0  0  0  0  0  0  0  0  0  0
    7.1606   20.9863    0.6053 C   0  0  0  0  0  0  0  0  0  0  0  0
    6.1051   21.1995    1.5086 C   0  0  0  0  0  0  0  0  0  0  0  0
    4.9516   20.4639    1.5242 C   0  0  0  0  0  0  0  0  0  0  0  0
    4.7935   19.4469    0.6071 C   0  0  0  0  0  0  0  0  0  0  0  0
    5.8059   19.2251   -0.2758 C   0  0  0  0  0  0  0  0  0  0  0  0
    7.0016   19.9801   -0.2983 C   0  0  0  0  0  0  0  0  0  0  0  0
    8.0421   19.6537   -1.2569 C   0  0  0  0  0  0  0  0  0  0  0  0
    7.6157   18.4806   -1.9447 F   0  0  0  0  0  0  0  0  0  0  0  0
    8.2455   20.5449   -2.2754 F   0  0  0  0  0  0  0  0  0  0  0  0
    9.2069   19.1606   -0.6840 F   0  0  0  0  0  0  0  0  0  0  0  0
 27 28  1  0  0  0
 28 26  1  0  0  0
 26  1  1  0  0  0
  1  2  1  0  0  0
  2  3  2  0  0  0
  3  4  1  0  0  0
  4  5  1  0  0  0
  5 21  1  0  0  0
 21 22  1  0  0  0
 21 23  2  0  0  0
  3  6  1  0  0  0
  6  7  1  0  0  0
  7  8  2  0  0  0
  8  9  1  0  0  0
  9 10  2  0  0  0
 10 11  1  0  0  0
 11 12  2  0  0  0
 12 13  1  0  0  0
 13 14  2  0  0  0
 11 15  1  0  0  0
 15 16  1  0  0  0
 16 17  2  0  0  0
 17 18  1  0  0  0
 18 19  1  0  0  0
 28 29  1  0  0  0
 29 30  2  0  0  0
 30 31  1  0  0  0
 31 32  2  0  0  0
 32 33  1  0  0  0
 33 34  2  0  0  0
 34 35  1  0  0  0
 35 36  1  0  0  0
 35 37  1  0  0  0
 35 38  1  0  0  0
  5  1  2  0  0  0
 14  6  1  0  0  0
 19 15  2  0  0  0
 34 29  1  0  0  0
 14  9  1  0  0  0
 22 24  1  0  0  0
 22 25  1  0  0  0
 18 20  1  0  0  0
M  END
> <minimizedAffinity>
-8.45626

> <CNNscore>
0.2370431274

> <CNNaffinity>
7.3874526024

> <CNN_VS>
1.7511448860

> <CNNaffinity_variance>
0.2495498210

$$$$
[H]c1nn([H])c([H])c1-c1c([H])c([H])c2c(nc([H])n2-c2sc(C(=O)N([H])[H])c(O[C@@]([H])(c3c([H])c([H])c([H])c([H])c3C(F)(F)F)C([H])([H])[H])c2[H])c1[H]


 38 42  0  0  0  0  0  0  0  0999 V2000
   13.8024   24.0200   -2.4080 C   0  0  0  0  0  0  0  0  0  0  0  0
   13.6558   23.1026   -1.4555 C   0  0  0  0  0  0  0  0  0  0  0  0
   12.8385   23.4017   -0.3859 C   0  0  0  0  0  0  0  0  0  0  0  0
   12.3008   24.9734   -0.7578 S   0  0  0  0  0  0  0  0  0  0  0  0
   13.1090   25.2121   -2.2343 C   0  0  0  0  0  0  0  0  0  0  0  0
   12.5431   22.5589    0.7411 N   0  0  0  0  0  0  0  0  0  0  0  0
   13.2323   21.5405    1.2640 C   0  0  0  0  0  0  0  0  0  0  0  0
   12.5786   21.0284    2.3294 N   0  0  0  0  0  0  0  0  0  0  0  0
   11.4604   21.7183    2.4977 C   0  0  0  0  0  0  0  0  0  0  0  0
   10.3934   21.6908    3.3833 C   0  0  0  0  0  0  0  0  0  0  0  0
    9.3289   22.5535    3.3265 C   0  0  0  0  0  0  0  0  0  0  0  0
    9.3368   23.5003    2.3197 C   0  0  0  0  0  0  0  0  0  0  0  0
   10.3728   23.5659    1.4188 C   0  0  0  0  0  0  0  0  0  0  0  0
   11.4405   22.6891    1.4879 C   0  0  0  0  0  0  0  0  0  0  0  0
    8.2404   22.4690    4.2897 C   0  0  0  0  0  0  0  0  0  0  0  0
    7.5913   21.3020    4.6597 C   0  0  0  0  0  0  0  0  0  0  0  0
    6.6546   21.6390    5.5632 N   0  0  0  0  0  0  0  0  0  0  0  0
    6.6587   22.9376    5.7971 N   0  0  0  0  0  0  0  0  0  0  0  0
    7.6279   23.4674    5.0230 C   0  0  0  0  0  0  0  0  0  0  0  0
    6.0201   23.4598    6.4666 H   0  0  0  0  0  0  0  0  0  0  0  0
   13.0639   26.3951   -3.0889 C   0  0  0  0  0  0  0  0  0  0  0  0
   12.6499   26.2966   -4.4252 N   0  0  0  0  0  0  0  0  0  0  0  0
   13.4020   27.4952   -2.6035 O   0  0  0  0  0  0  0  0  0  0  0  0
   12.0898   27.0625   -4.8811 H   0  0  0  0  0  0  0  0  0  0  0  0
   12.8653   25.4779   -5.0387 H   0  0  0  0  0  0  0  0  0  0  0  0
   14.5936   23.9013   -3.5798 O   0  0  0  0  0  0  0  0  0  0  0  0
   16.2583   25.0633   -2.3050 C   0  0  0  0  0  0  0  0  0  0  0  0
   15.7550   24.6059   -3.7236 C   0  0  0  0  0  0  0  0  0  0  0  0
   15.8542   25.7066   -4.6541 C   0  0  0  0  0  0  0  0  0  0  0  0
   15.3748   25.5474   -5.9657 C   0  0  0  0  0  0  0  0  0  0  0  0
   15.4005   26.5331   -6.9142 C   0  0  0  0  0  0  0  0  0  0  0  0
   15.9237   27.7654   -6.5853 C   0  0  0  0  0  0  0  0  0  0  0  0
   16.3936   27.9383   -5.3192 C   0  0  0  0  0  0  0  0  0  0  0  0
   16.3715   26.9246   -4.3330 C   0  0  0  0  0  0  0  0  0  0  0  0
   16.9224   27.1885   -3.0159 C   0  0  0  0  0  0  0  0  0  0  0  0
   17.0234   28.6043   -2.8873 F   0  0  0  0  0  0  0  0  0  0  0  0
   16.1488   26.8412   -1.9418 F   0  0  0  0  0  0  0  0  0  0  0  0
   18.2654   26.8604   -2.8865 F   0  0  0  0  0  0  0  0  0  0  0  0
 27 28  1  0  0  0
 28 26  1  0  0  0
 26  1  1  0  0  0
  1  2  1  0  0  0
  2  3  2  0  0  0
  3  4  1  0  0  0
  4  5  1  0  0  0
  5 21  1  0  0  0
 21 22  1  0  0  0
 21 23  2  0  0  0
  3  6  1  0  0  0
  6  7  1  0  0  0
  7  8  2  0  0  0
  8  9  1  0  0  0
  9 10  2  0  0  0
 10 11  1  0  0  0
 11 12  2  0  0  0
 12 13  1  0  0  0
 13 14  2  0  0  0
 11 15  1  0  0  0
 15 16  1  0  0  0
 16 17  2  0  0  0
 17 18  1  0  0  0
 18 19  1  0  0  0
 28 29  1  0  0  0
 29 30  2  0  0  0
 30 31  1  0  0  0
 31 32  2  0  0  0
 32 33  1  0  0  0
 33 34  2  0  0  0
 34 35  1  0  0  0
 35 36  1  0  0  0
 35 37  1  0  0  0
 35 38  1  0  0  0
  5  1  2  0  0  0
 14  6  1  0  0  0
 19 15  2  0  0  0
 34 29  1  0  0  0
 14  9  1  0  0  0
 22 24  1  0  0  0
 22 25  1  0  0  0
 18 20  1  0  0  0
M  END
> <minimizedAffinity>
-6.31997

> <CNNscore>
0.2260216624

> <CNNaffinity>
7.1733398438

> <CNN_VS>
1.6213301420

> <CNNaffinity_variance>
0.4262351096

$$$$
[H]c1nn([H])c([H])c1-c1c([H])c([H])c2c(nc([H])n2-c2sc(C(=O)N([H])[H])c(O[C@@]([H])(c3c([H])c([H])c([H])c([H])c3C(F)(F)F)C([H])([H])[H])c2[H])c1[H]


 38 42  0  0  0  0  0  0  0  0999 V2000
   11.0802   21.4056    0.9907 C   0  0  0  0  0  0  0  0  0  0  0  0
   12.1795   22.1414    1.1343 C   0  0  0  0  0  0  0  0  0  0  0  0
   12.9656   22.3583    0.0224 C   0  0  0  0  0  0  0  0  0  0  0  0
   12.1274   21.5142   -1.1952 S   0  0  0  0  0  0  0  0  0  0  0  0
   10.8224   20.9162   -0.2845 C   0  0  0  0  0  0  0  0  0  0  0  0
   14.1839   23.1194   -0.0421 N   0  0  0  0  0  0  0  0  0  0  0  0
   15.2408   23.1315    0.7754 C   0  0  0  0  0  0  0  0  0  0  0  0
   16.1696   24.0053    0.3300 N   0  0  0  0  0  0  0  0  0  0  0  0
   15.7124   24.5621   -0.7815 C   0  0  0  0  0  0  0  0  0  0  0  0
   16.1727   25.5043   -1.6893 C   0  0  0  0  0  0  0  0  0  0  0  0
   15.4688   25.9110   -2.7938 C   0  0  0  0  0  0  0  0  0  0  0  0
   14.2283   25.3369   -2.9983 C   0  0  0  0  0  0  0  0  0  0  0  0
   13.7306   24.3989   -2.1256 C   0  0  0  0  0  0  0  0  0  0  0  0
   14.4517   23.9979   -1.0153 C   0  0  0  0  0  0  0  0  0  0  0  0
   16.0122   26.9059   -3.7074 C   0  0  0  0  0  0  0  0  0  0  0  0
   17.1781   27.6259   -3.5011 C   0  0  0  0  0  0  0  0  0  0  0  0
   17.3367   28.4356   -4.5625 N   0  0  0  0  0  0  0  0  0  0  0  0
   16.3558   28.2846   -5.4321 N   0  0  0  0  0  0  0  0  0  0  0  0
   15.5294   27.3471   -4.9246 C   0  0  0  0  0  0  0  0  0  0  0  0
   16.2435   28.8034   -6.3523 H   0  0  0  0  0  0  0  0  0  0  0  0
    9.7148   20.0911   -0.7580 C   0  0  0  0  0  0  0  0  0  0  0  0
    8.7886   20.5984   -1.6808 N   0  0  0  0  0  0  0  0  0  0  0  0
    9.6110   18.9247   -0.3230 O   0  0  0  0  0  0  0  0  0  0  0  0
    8.3719   19.9861   -2.4289 H   0  0  0  0  0  0  0  0  0  0  0  0
    8.4607   21.5911   -1.6852 H   0  0  0  0  0  0  0  0  0  0  0  0
   10.1480   21.0732    2.0075 O   0  0  0  0  0  0  0  0  0  0  0  0
   10.9235   20.8331    4.2631 C   0  0  0  0  0  0  0  0  0  0  0  0
   10.1557   21.7170    3.2122 C   0  0  0  0  0  0  0  0  0  0  0  0
    8.9370   22.2239    3.7995 C   0  0  0  0  0  0  0  0  0  0  0  0
    8.9254   22.5929    5.1558 C   0  0  0  0  0  0  0  0  0  0  0  0
    7.8321   23.1046    5.7998 C   0  0  0  0  0  0  0  0  0  0  0  0
    6.6599   23.2773    5.0950 C   0  0  0  0  0  0  0  0  0  0  0  0
    6.6518   22.9248    3.7800 C   0  0  0  0  0  0  0  0  0  0  0  0
    7.7771   22.3946    3.1069 C   0  0  0  0  0  0  0  0  0  0  0  0
    7.6691   22.0177    1.7089 C   0  0  0  0  0  0  0  0  0  0  0  0
    6.3087   22.2148    1.3327 F   0  0  0  0  0  0  0  0  0  0  0  0
    8.3481   22.7906    0.8064 F   0  0  0  0  0  0  0  0  0  0  0  0
    7.7637   20.6513    1.4808 F   0  0  0  0  0  0  0  0  0  0  0  0
 27 28  1  0  0  0
 28 26  1  0  0  0
 26  1  1  0  0  0
  1  2  1  0  0  0
  2  3  2  0  0  0
  3  4  1  0  0  0
  4  5  1  0  0  0
  5 21  1  0  0  0
 21 22  1  0  0  0
 21 23  2  0  0  0
  3  6  1  0  0  0
  6  7  1  0  0  0
  7  8  2  0  0  0
  8  9  1  0  0  0
  9 10  2  0  0  0
 10 11  1  0  0  0
 11 12  2  0  0  0
 12 13  1  0  0  0
 13 14  2  0  0  0
 11 15  1  0  0  0
 15 16  1  0  0  0
 16 17  2  0  0  0
 17 18  1  0  0  0
 18 19  1  0  0  0
 28 29  1  0  0  0
 29 30  2  0  0  0
 30 31  1  0  0  0
 31 32  2  0  0  0
 32 33  1  0  0  0
 33 34  2  0  0  0
 34 35  1  0  0  0
 35 36  1  0  0  0
 35 37  1  0  0  0
 35 38  1  0  0  0
  5  1  2  0  0  0
 14  6  1  0  0  0
 19 15  2  0  0  0
 34 29  1  0  0  0
 14  9  1  0  0  0
 22 24  1  0  0  0
 22 25  1  0  0  0
 18 20  1  0  0  0
M  END
> <minimizedAffinity>
-7.53493

> <CNNscore>
0.2130303979

> <CNNaffinity>
7.5065374374

> <CNN_VS>
1.5991206169

> <CNNaffinity_variance>
0.4267382622

$$$$
[H]c1nn([H])c([H])c1-c1c([H])c([H])c2c(nc([H])n2-c2sc(C(=O)N([H])[H])c(O[C@@]([H])(c3c([H])c([H])c([H])c([H])c3C(F)(F)F)C([H])([H])[H])c2[H])c1[H]


 38 42  0  0  0  0  0  0  0  0999 V2000
   10.8993   23.1492    2.1889 C   0  0  0  0  0  0  0  0  0  0  0  0
   12.1379   23.1083    1.7046 C   0  0  0  0  0  0  0  0  0  0  0  0
   12.4875   24.0259    0.7366 C   0  0  0  0  0  0  0  0  0  0  0  0
   11.0531   24.9207    0.5382 S   0  0  0  0  0  0  0  0  0  0  0  0
   10.0601   24.1265    1.6665 C   0  0  0  0  0  0  0  0  0  0  0  0
   13.7635   24.1560    0.0866 N   0  0  0  0  0  0  0  0  0  0  0  0
   14.9845   23.8023    0.4987 C   0  0  0  0  0  0  0  0  0  0  0  0
   15.9054   24.1128   -0.4394 N   0  0  0  0  0  0  0  0  0  0  0  0
   15.2784   24.6704   -1.4643 C   0  0  0  0  0  0  0  0  0  0  0  0
   15.6449   25.1906   -2.6966 C   0  0  0  0  0  0  0  0  0  0  0  0
   14.7585   25.7247   -3.5964 C   0  0  0  0  0  0  0  0  0  0  0  0
   13.4241   25.7369   -3.2367 C   0  0  0  0  0  0  0  0  0  0  0  0
   13.0135   25.2325   -2.0259 C   0  0  0  0  0  0  0  0  0  0  0  0
   13.9188   24.6966   -1.1275 C   0  0  0  0  0  0  0  0  0  0  0  0
   15.2119   26.2544   -4.8746 C   0  0  0  0  0  0  0  0  0  0  0  0
   15.3327   25.5212   -6.0442 C   0  0  0  0  0  0  0  0  0  0  0  0
   15.7780   26.3617   -6.9944 N   0  0  0  0  0  0  0  0  0  0  0  0
   15.9504   27.5792   -6.5157 N   0  0  0  0  0  0  0  0  0  0  0  0
   15.6074   27.5347   -5.2120 C   0  0  0  0  0  0  0  0  0  0  0  0
   16.2931   28.4268   -7.0567 H   0  0  0  0  0  0  0  0  0  0  0  0
    8.6668   24.4241    1.9861 C   0  0  0  0  0  0  0  0  0  0  0  0
    8.2978   24.8137    3.2818 N   0  0  0  0  0  0  0  0  0  0  0  0
    7.8123   24.3238    1.0806 O   0  0  0  0  0  0  0  0  0  0  0  0
    7.5385   25.5249    3.4426 H   0  0  0  0  0  0  0  0  0  0  0  0
    8.7411   24.4330    4.1487 H   0  0  0  0  0  0  0  0  0  0  0  0
   10.3528   22.2969    3.1830 O   0  0  0  0  0  0  0  0  0  0  0  0
   10.8780   20.1691    2.2117 C   0  0  0  0  0  0  0  0  0  0  0  0
    9.7838   21.0996    2.8535 C   0  0  0  0  0  0  0  0  0  0  0  0
    8.5705   21.0358    2.0717 C   0  0  0  0  0  0  0  0  0  0  0  0
    7.3260   21.1089    2.7210 C   0  0  0  0  0  0  0  0  0  0  0  0
    6.1220   21.0813    2.0719 C   0  0  0  0  0  0  0  0  0  0  0  0
    6.1046   20.9760    0.6975 C   0  0  0  0  0  0  0  0  0  0  0  0
    7.3006   20.9034    0.0510 C   0  0  0  0  0  0  0  0  0  0  0  0
    8.5495   20.9305    0.7143 C   0  0  0  0  0  0  0  0  0  0  0  0
    9.7762   20.8174   -0.0541 C   0  0  0  0  0  0  0  0  0  0  0  0
    9.8242   21.9462   -0.9227 F   0  0  0  0  0  0  0  0  0  0  0  0
   10.9514   20.9188    0.6398 F   0  0  0  0  0  0  0  0  0  0  0  0
    9.7574   19.8080   -1.0074 F   0  0  0  0  0  0  0  0  0  0  0  0
 27 28  1  0  0  0
 28 26  1  0  0  0
 26  1  1  0  0  0
  1  2  1  0  0  0
  2  3  2  0  0  0
  3  4  1  0  0  0
  4  5  1  0  0  0
  5 21  1  0  0  0
 21 22  1  0  0  0
 21 23  2  0  0  0
  3  6  1  0  0  0
  6  7  1  0  0  0
  7  8  2  0  0  0
  8  9  1  0  0  0
  9 10  2  0  0  0
 10 11  1  0  0  0
 11 12  2  0  0  0
 12 13  1  0  0  0
 13 14  2  0  0  0
 11 15  1  0  0  0
 15 16  1  0  0  0
 16 17  2  0  0  0
 17 18  1  0  0  0
 18 19  1  0  0  0
 28 29  1  0  0  0
 29 30  2  0  0  0
 30 31  1  0  0  0
 31 32  2  0  0  0
 32 33  1  0  0  0
 33 34  2  0  0  0
 34 35  1  0  0  0
 35 36  1  0  0  0
 35 37  1  0  0  0
 35 38  1  0  0  0
  5  1  2  0  0  0
 14  6  1  0  0  0
 19 15  2  0  0  0
 34 29  1  0  0  0
 14  9  1  0  0  0
 22 24  1  0  0  0
 22 25  1  0  0  0
 18 20  1  0  0  0
M  END
> <minimizedAffinity>
-7.09074

> <CNNscore>
0.1965031475

> <CNNaffinity>
7.4152107239

> <CNN_VS>
1.4571121931

> <CNNaffinity_variance>
0.3050175905

$$$$
[H]OC(=O)[C@@]([H])(N([H])C(=O)[C@@]([H])(N([H])C(=O)[C@]([H])(C([H])([H])S[H])C([H])([H])c1c([H])c([H])c([H])c([H])c1[H])C([H])([H])[H])C([H])([H])c1c([H])c([H])c([H])c([H])c1[H]


 33 34  0  0  0  0  0  0  0  0999 V2000
   10.5840   21.7759   -1.5832 C   0  0  0  0  0  0  0  0  0  0  0  0
   11.2718   23.0881   -1.3219 C   0  0  0  0  0  0  0  0  0  0  0  0
   12.6940   23.0455   -1.5452 N   0  0  0  0  0  0  0  0  0  0  0  0
   13.4596   24.1053   -2.0386 C   0  0  0  0  0  0  0  0  0  0  0  0
   12.9108   25.1861   -2.3203 O   0  0  0  0  0  0  0  0  0  0  0  0
   13.1626   22.1389   -1.3115 H   0  0  0  0  0  0  0  0  0  0  0  0
   14.9208   23.9558   -2.2267 C   0  0  0  0  0  0  0  0  0  0  0  0
   15.7149   24.7853   -1.2563 C   0  0  0  0  0  0  0  0  0  0  0  0
   15.2133   24.3890    0.4286 S   0  0  0  0  0  0  0  0  0  0  0  0
   14.5858   25.4644    1.0649 H   0  0  0  0  0  0  0  0  0  0  0  0
   15.3840   24.0363   -3.6381 C   0  0  0  0  0  0  0  0  0  0  0  0
   15.5957   25.3597   -4.2223 C   0  0  0  0  0  0  0  0  0  0  0  0
   16.2489   26.3635   -3.5693 C   0  0  0  0  0  0  0  0  0  0  0  0
   16.4472   27.6009   -4.1795 C   0  0  0  0  0  0  0  0  0  0  0  0
   15.9790   27.8193   -5.4616 C   0  0  0  0  0  0  0  0  0  0  0  0
   15.3161   26.8334   -6.1537 C   0  0  0  0  0  0  0  0  0  0  0  0
   15.1423   25.6413   -5.5253 C   0  0  0  0  0  0  0  0  0  0  0  0
   11.0228   23.4462    0.0887 C   0  0  0  0  0  0  0  0  0  0  0  0
   11.2296   24.6199    0.4665 O   0  0  0  0  0  0  0  0  0  0  0  0
   10.5540   22.4429    0.9784 N   0  0  0  0  0  0  0  0  0  0  0  0
   10.3793   21.4556    0.6632 H   0  0  0  0  0  0  0  0  0  0  0  0
   10.2957   22.7425    2.3694 C   0  0  0  0  0  0  0  0  0  0  0  0
   10.9736   21.7939    3.2691 C   0  0  0  0  0  0  0  0  0  0  0  0
   12.2965   21.4591    3.0446 O   0  0  0  0  0  0  0  0  0  0  0  0
   10.4008   21.2580    4.2556 O   0  0  0  0  0  0  0  0  0  0  0  0
   13.0600   21.8905    3.5867 H   0  0  0  0  0  0  0  0  0  0  0  0
    8.7879   22.7817    2.6446 C   0  0  0  0  0  0  0  0  0  0  0  0
    8.4234   24.1075    3.2380 C   0  0  0  0  0  0  0  0  0  0  0  0
    9.3331   25.1361    3.1984 C   0  0  0  0  0  0  0  0  0  0  0  0
    9.0102   26.3757    3.7457 C   0  0  0  0  0  0  0  0  0  0  0  0
    7.7724   26.5330    4.3171 C   0  0  0  0  0  0  0  0  0  0  0  0
    6.8378   25.5215    4.3729 C   0  0  0  0  0  0  0  0  0  0  0  0
    7.1778   24.3034    3.8255 C   0  0  0  0  0  0  0  0  0  0  0  0
  1  2  1  0  0  0
  2  3  1  0  0  0
  3  4  1  0  0  0
  4  5  2  0  0  0
  4  7  1  0  0  0
  7  8  1  0  0  0
  8  9  1  0  0  0
  7 11  1  0  0  0
 11 12  1  0  0  0
 12 13  2  0  0  0
 13 14  1  0  0  0
 14 15  2  0  0  0
 15 16  1  0  0  0
 16 17  2  0  0  0
  2 18  1  0  0  0
 18 19  2  0  0  0
 18 20  1  0  0  0
 20 22  1  0  0  0
 22 27  1  0  0  0
 27 28  1  0  0  0
 28 29  2  0  0  0
 29 30  1  0  0  0
 30 31  2  0  0  0
 31 32  1  0  0  0
 32 33  2  0  0  0
 22 23  1  0  0  0
 23 24  1  0  0  0
 23 25  2  0  0  0
 17 12  1  0  0  0
 33 28  1  0  0  0
  3  6  1  0  0  0
  9 10  1  0  0  0
 20 21  1  0  0  0
 24 26  1  0  0  0
M  END
> <minimizedAffinity>
-8.60211

> <CNNscore>
0.6891512275

> <CNNaffinity>
7.0141539574

> <CNN_VS>
4.8338127136

> <CNNaffinity_variance>
0.0291952826

$$$$
[H]OC(=O)[C@@]([H])(N([H])C(=O)[C@@]([H])(N([H])C(=O)[C@]([H])(C([H])([H])S[H])C([H])([H])c1c([H])c([H])c([H])c([H])c1[H])C([H])([H])[H])C([H])([H])c1c([H])c([H])c([H])c([H])c1[H]


 33 34  0  0  0  0  0  0  0  0999 V2000
   10.6811   24.7942    1.4474 C   0  0  0  0  0  0  0  0  0  0  0  0
   11.3168   23.4409    1.6134 C   0  0  0  0  0  0  0  0  0  0  0  0
   11.8794   22.9173    0.3952 N   0  0  0  0  0  0  0  0  0  0  0  0
   13.1795   23.1599   -0.0558 C   0  0  0  0  0  0  0  0  0  0  0  0
   13.9430   23.8782    0.6149 O   0  0  0  0  0  0  0  0  0  0  0  0
   11.2425   22.3130   -0.1750 H   0  0  0  0  0  0  0  0  0  0  0  0
   13.6600   22.5667   -1.3247 C   0  0  0  0  0  0  0  0  0  0  0  0
   13.8525   21.0788   -1.2291 C   0  0  0  0  0  0  0  0  0  0  0  0
   14.8364   20.6895    0.2297 S   0  0  0  0  0  0  0  0  0  0  0  0
   16.0845   20.1504   -0.0974 H   0  0  0  0  0  0  0  0  0  0  0  0
   14.7798   23.2982   -1.9758 C   0  0  0  0  0  0  0  0  0  0  0  0
   14.4539   24.4065   -2.8718 C   0  0  0  0  0  0  0  0  0  0  0  0
   13.4463   25.2914   -2.6219 C   0  0  0  0  0  0  0  0  0  0  0  0
   13.1909   26.3471   -3.4955 C   0  0  0  0  0  0  0  0  0  0  0  0
   13.9646   26.5046   -4.6301 C   0  0  0  0  0  0  0  0  0  0  0  0
   14.9896   25.6344   -4.9177 C   0  0  0  0  0  0  0  0  0  0  0  0
   15.2073   24.6182   -4.0424 C   0  0  0  0  0  0  0  0  0  0  0  0
   10.2702   22.5148    2.0898 C   0  0  0  0  0  0  0  0  0  0  0  0
   10.4949   21.2849    2.0854 O   0  0  0  0  0  0  0  0  0  0  0  0
    9.0342   23.0503    2.5409 N   0  0  0  0  0  0  0  0  0  0  0  0
    8.8430   24.0837    2.5457 H   0  0  0  0  0  0  0  0  0  0  0  0
    7.9771   22.1857    3.0165 C   0  0  0  0  0  0  0  0  0  0  0  0
    7.2099   21.5965    1.9060 C   0  0  0  0  0  0  0  0  0  0  0  0
    6.8683   22.3767    0.8164 O   0  0  0  0  0  0  0  0  0  0  0  0
    6.8389   20.3920    1.8940 O   0  0  0  0  0  0  0  0  0  0  0  0
    7.4012   22.3324   -0.0650 H   0  0  0  0  0  0  0  0  0  0  0  0
    7.0563   22.9374    3.9849 C   0  0  0  0  0  0  0  0  0  0  0  0
    7.5192   24.3557    4.1139 C   0  0  0  0  0  0  0  0  0  0  0  0
    7.1710   25.2683    3.1478 C   0  0  0  0  0  0  0  0  0  0  0  0
    7.5931   26.5917    3.2525 C   0  0  0  0  0  0  0  0  0  0  0  0
    8.3567   26.9482    4.3357 C   0  0  0  0  0  0  0  0  0  0  0  0
    8.7229   26.0571    5.3214 C   0  0  0  0  0  0  0  0  0  0  0  0
    8.2945   24.7532    5.1983 C   0  0  0  0  0  0  0  0  0  0  0  0
  1  2  1  0  0  0
  2  3  1  0  0  0
  3  4  1  0  0  0
  4  5  2  0  0  0
  4  7  1  0  0  0
  7  8  1  0  0  0
  8  9  1  0  0  0
  7 11  1  0  0  0
 11 12  1  0  0  0
 12 13  2  0  0  0
 13 14  1  0  0  0
 14 15  2  0  0  0
 15 16  1  0  0  0
 16 17  2  0  0  0
  2 18  1  0  0  0
 18 19  2  0  0  0
 18 20  1  0  0  0
 20 22  1  0  0  0
 22 27  1  0  0  0
 27 28  1  0  0  0
 28 29  2  0  0  0
 29 30  1  0  0  0
 30 31  2  0  0  0
 31 32  1  0  0  0
 32 33  2  0  0  0
 22 23  1  0  0  0
 23 24  1  0  0  0
 23 25  2  0  0  0
 17 12  1  0  0  0
 33 28  1  0  0  0
  3  6  1  0  0  0
  9 10  1  0  0  0
 20 21  1  0  0  0
 24 26  1  0  0  0
M  END
> <minimizedAffinity>
-7.98233

> <CNNscore>
0.6709652543

> <CNNaffinity>
6.8356323242

> <CNN_VS>
4.5864715576

> <CNNaffinity_variance>
0.0879431814

$$$$
[H]OC(=O)[C@@]([H])(N([H])C(=O)[C@@]([H])(N([H])C(=O)[C@]([H])(C([H])([H])S[H])C([H])([H])c1c([H])c([H])c([H])c([H])c1[H])C([H])([H])[H])C([H])([H])c1c([H])c([H])c([H])c([H])c1[H]


 33 34  0  0  0  0  0  0  0  0999 V2000
   10.4225   24.3571   -1.6989 C   0  0  0  0  0  0  0  0  0  0  0  0
   11.4214   24.4111   -0.5753 C   0  0  0  0  0  0  0  0  0  0  0  0
   12.7536   24.0343   -0.9726 N   0  0  0  0  0  0  0  0  0  0  0  0
   13.5736   24.7740   -1.8289 C   0  0  0  0  0  0  0  0  0  0  0  0
   13.1606   25.8457   -2.3080 O   0  0  0  0  0  0  0  0  0  0  0  0
   13.1075   23.1331   -0.5744 H   0  0  0  0  0  0  0  0  0  0  0  0
   14.9331   24.2960   -2.1698 C   0  0  0  0  0  0  0  0  0  0  0  0
   16.0032   24.9789   -1.3643 C   0  0  0  0  0  0  0  0  0  0  0  0
   15.7877   24.5873    0.3815 S   0  0  0  0  0  0  0  0  0  0  0  0
   15.4444   25.7099    1.1413 H   0  0  0  0  0  0  0  0  0  0  0  0
   15.2180   24.1987   -3.6266 C   0  0  0  0  0  0  0  0  0  0  0  0
   15.5065   25.4308   -4.3589 C   0  0  0  0  0  0  0  0  0  0  0  0
   15.1454   25.6226   -5.6603 C   0  0  0  0  0  0  0  0  0  0  0  0
   15.4216   26.8259   -6.3073 C   0  0  0  0  0  0  0  0  0  0  0  0
   16.0685   27.8407   -5.6274 C   0  0  0  0  0  0  0  0  0  0  0  0
   16.4487   27.6870   -4.3150 C   0  0  0  0  0  0  0  0  0  0  0  0
   16.1621   26.5001   -3.7190 C   0  0  0  0  0  0  0  0  0  0  0  0
   10.9583   23.4823    0.4748 C   0  0  0  0  0  0  0  0  0  0  0  0
   11.0560   23.8194    1.6748 O   0  0  0  0  0  0  0  0  0  0  0  0
   10.4134   22.2283    0.0895 N   0  0  0  0  0  0  0  0  0  0  0  0
   10.3302   21.9426   -0.9185 H   0  0  0  0  0  0  0  0  0  0  0  0
    9.9464   21.2832    1.0795 C   0  0  0  0  0  0  0  0  0  0  0  0
    9.0892   21.9266    2.0896 C   0  0  0  0  0  0  0  0  0  0  0  0
    8.0996   22.8067    1.6914 O   0  0  0  0  0  0  0  0  0  0  0  0
    9.2110   21.7141    3.3259 O   0  0  0  0  0  0  0  0  0  0  0  0
    7.1127   22.5146    1.6302 H   0  0  0  0  0  0  0  0  0  0  0  0
   11.1272   20.5603    1.7383 C   0  0  0  0  0  0  0  0  0  0  0  0
   12.3252   20.6437    0.8436 C   0  0  0  0  0  0  0  0  0  0  0  0
   12.1840   20.3807   -0.4973 C   0  0  0  0  0  0  0  0  0  0  0  0
   13.2881   20.4539   -1.3435 C   0  0  0  0  0  0  0  0  0  0  0  0
   14.5029   20.7919   -0.8018 C   0  0  0  0  0  0  0  0  0  0  0  0
   14.6777   21.0614    0.5386 C   0  0  0  0  0  0  0  0  0  0  0  0
   13.5723   20.9834    1.3578 C   0  0  0  0  0  0  0  0  0  0  0  0
  1  2  1  0  0  0
  2  3  1  0  0  0
  3  4  1  0  0  0
  4  5  2  0  0  0
  4  7  1  0  0  0
  7  8  1  0  0  0
  8  9  1  0  0  0
  7 11  1  0  0  0
 11 12  1  0  0  0
 12 13  2  0  0  0
 13 14  1  0  0  0
 14 15  2  0  0  0
 15 16  1  0  0  0
 16 17  2  0  0  0
  2 18  1  0  0  0
 18 19  2  0  0  0
 18 20  1  0  0  0
 20 22  1  0  0  0
 22 27  1  0  0  0
 27 28  1  0  0  0
 28 29  2  0  0  0
 29 30  1  0  0  0
 30 31  2  0  0  0
 31 32  1  0  0  0
 32 33  2  0  0  0
 22 23  1  0  0  0
 23 24  1  0  0  0
 23 25  2  0  0  0
 17 12  1  0  0  0
 33 28  1  0  0  0
  3  6  1  0  0  0
  9 10  1  0  0  0
 20 21  1  0  0  0
 24 26  1  0  0  0
M  END
> <minimizedAffinity>
-7.87274

> <CNNscore>
0.6634160280

> <CNNaffinity>
7.5218033791

> <CNN_VS>
4.9900851250

> <CNNaffinity_variance>
0.0727846101

$$$$
[H]OC(=O)[C@@]([H])(N([H])C(=O)[C@@]([H])(N([H])C(=O)[C@]([H])(C([H])([H])S[H])C([H])([H])c1c([H])c([H])c([H])c([H])c1[H])C([H])([H])[H])C([H])([H])c1c([H])c([H])c([H])c([H])c1[H]


 33 34  0  0  0  0  0  0  0  0999 V2000
   14.9364   20.6130    0.7428 C   0  0  0  0  0  0  0  0  0  0  0  0
   13.6860   20.9655   -0.0158 C   0  0  0  0  0  0  0  0  0  0  0  0
   13.6900   22.3081   -0.5375 N   0  0  0  0  0  0  0  0  0  0  0  0
   14.1180   22.6687   -1.8179 C   0  0  0  0  0  0  0  0  0  0  0  0
   14.5358   21.7950   -2.5993 O   0  0  0  0  0  0  0  0  0  0  0  0
   13.3409   23.0488    0.1147 H   0  0  0  0  0  0  0  0  0  0  0  0
   14.0758   24.0826   -2.2562 C   0  0  0  0  0  0  0  0  0  0  0  0
   12.7314   24.7164   -2.0304 C   0  0  0  0  0  0  0  0  0  0  0  0
   12.6209   25.3099   -0.3324 S   0  0  0  0  0  0  0  0  0  0  0  0
   11.6660   24.6135    0.4148 H   0  0  0  0  0  0  0  0  0  0  0  0
   14.6692   24.3432   -3.5952 C   0  0  0  0  0  0  0  0  0  0  0  0
   15.4362   25.5733   -3.7844 C   0  0  0  0  0  0  0  0  0  0  0  0
   15.2765   26.3886   -4.8664 C   0  0  0  0  0  0  0  0  0  0  0  0
   16.0147   27.5646   -4.9887 C   0  0  0  0  0  0  0  0  0  0  0  0
   16.9208   27.9143   -4.0051 C   0  0  0  0  0  0  0  0  0  0  0  0
   17.1109   27.1199   -2.8991 C   0  0  0  0  0  0  0  0  0  0  0  0
   16.3731   25.9820   -2.8159 C   0  0  0  0  0  0  0  0  0  0  0  0
   12.5477   20.8204    0.9134 C   0  0  0  0  0  0  0  0  0  0  0  0
   11.4396   20.4497    0.4686 O   0  0  0  0  0  0  0  0  0  0  0  0
   12.7458   21.1072    2.2905 N   0  0  0  0  0  0  0  0  0  0  0  0
   13.6764   21.4189    2.6668 H   0  0  0  0  0  0  0  0  0  0  0  0
   11.6632   20.9811    3.2409 C   0  0  0  0  0  0  0  0  0  0  0  0
   11.6038   19.6317    3.8279 C   0  0  0  0  0  0  0  0  0  0  0  0
   12.6527   18.7513    3.6347 O   0  0  0  0  0  0  0  0  0  0  0  0
   10.6267   19.2259    4.5126 O   0  0  0  0  0  0  0  0  0  0  0  0
   13.3651   18.5952    4.3634 H   0  0  0  0  0  0  0  0  0  0  0  0
   10.3262   21.3597    2.5929 C   0  0  0  0  0  0  0  0  0  0  0  0
    9.8898   22.7008    3.0963 C   0  0  0  0  0  0  0  0  0  0  0  0
   10.0070   23.7981    2.2782 C   0  0  0  0  0  0  0  0  0  0  0  0
    9.6057   25.0530    2.7308 C   0  0  0  0  0  0  0  0  0  0  0  0
    9.0974   25.1553    4.0015 C   0  0  0  0  0  0  0  0  0  0  0  0
    8.9670   24.0744    4.8467 C   0  0  0  0  0  0  0  0  0  0  0  0
    9.3699   22.8424    4.3789 C   0  0  0  0  0  0  0  0  0  0  0  0
  1  2  1  0  0  0
  2  3  1  0  0  0
  3  4  1  0  0  0
  4  5  2  0  0  0
  4  7  1  0  0  0
  7  8  1  0  0  0
  8  9  1  0  0  0
  7 11  1  0  0  0
 11 12  1  0  0  0
 12 13  2  0  0  0
 13 14  1  0  0  0
 14 15  2  0  0  0
 15 16  1  0  0  0
 16 17  2  0  0  0
  2 18  1  0  0  0
 18 19  2  0  0  0
 18 20  1  0  0  0
 20 22  1  0  0  0
 22 27  1  0  0  0
 27 28  1  0  0  0
 28 29  2  0  0  0
 29 30  1  0  0  0
 30 31  2  0  0  0
 31 32  1  0  0  0
 32 33  2  0  0  0
 22 23  1  0  0  0
 23 24  1  0  0  0
 23 25  2  0  0  0
 17 12  1  0  0  0
 33 28  1  0  0  0
  3  6  1  0  0  0
  9 10  1  0  0  0
 20 21  1  0  0  0
 24 26  1  0  0  0
M  END
> <minimizedAffinity>
-9.29715

> <CNNscore>
0.6427261233

> <CNNaffinity>
7.0712547302

> <CNN_VS>
4.5448799133

> <CNNaffinity_variance>
0.0521009043

$$$$
[H]OC(=O)[C@@]([H])(N([H])C(=O)[C@@]([H])(N([H])C(=O)[C@]([H])(C([H])([H])S[H])C([H])([H])c1c([H])c([H])c([H])c([H])c1[H])C([H])([H])[H])C([H])([H])c1c([H])c([H])c([H])c([H])c1[H]


 33 34  0  0  0  0  0  0  0  0999 V2000
    9.4023   20.7500    0.0300 C   0  0  0  0  0  0  0  0  0  0  0  0
    9.7813   22.1858    0.2704 C   0  0  0  0  0  0  0  0  0  0  0  0
   11.1192   22.5059   -0.1563 N   0  0  0  0  0  0  0  0  0  0  0  0
   11.4512   23.5195   -1.0591 C   0  0  0  0  0  0  0  0  0  0  0  0
   10.5534   24.2229   -1.5569 O   0  0  0  0  0  0  0  0  0  0  0  0
   11.8799   21.9175    0.2574 H   0  0  0  0  0  0  0  0  0  0  0  0
   12.8639   23.7678   -1.4273 C   0  0  0  0  0  0  0  0  0  0  0  0
   13.8300   23.1727   -0.4410 C   0  0  0  0  0  0  0  0  0  0  0  0
   14.5565   24.4838    0.5593 S   0  0  0  0  0  0  0  0  0  0  0  0
   15.9280   24.6314    0.3302 H   0  0  0  0  0  0  0  0  0  0  0  0
   13.1711   25.1657   -1.8327 C   0  0  0  0  0  0  0  0  0  0  0  0
   13.8382   25.3833   -3.1153 C   0  0  0  0  0  0  0  0  0  0  0  0
   13.5990   26.4725   -3.9010 C   0  0  0  0  0  0  0  0  0  0  0  0
   14.2797   26.6471   -5.1048 C   0  0  0  0  0  0  0  0  0  0  0  0
   15.2095   25.7090   -5.5124 C   0  0  0  0  0  0  0  0  0  0  0  0
   15.4795   24.5977   -4.7491 C   0  0  0  0  0  0  0  0  0  0  0  0
   14.7958   24.4628   -3.5827 C   0  0  0  0  0  0  0  0  0  0  0  0
    9.6729   22.4361    1.7215 C   0  0  0  0  0  0  0  0  0  0  0  0
   10.5904   23.0531    2.3051 O   0  0  0  0  0  0  0  0  0  0  0  0
    8.5250   21.9668    2.4144 N   0  0  0  0  0  0  0  0  0  0  0  0
    7.7524   21.4479    1.9261 H   0  0  0  0  0  0  0  0  0  0  0  0
    8.3716   22.1858    3.8356 C   0  0  0  0  0  0  0  0  0  0  0  0
    8.2548   20.9179    4.5758 C   0  0  0  0  0  0  0  0  0  0  0  0
    9.2562   19.9692    4.4765 O   0  0  0  0  0  0  0  0  0  0  0  0
    7.2693   20.6437    5.3120 O   0  0  0  0  0  0  0  0  0  0  0  0
    9.9709   19.8625    5.2118 H   0  0  0  0  0  0  0  0  0  0  0  0
    7.1739   23.1006    4.1170 C   0  0  0  0  0  0  0  0  0  0  0  0
    7.6393   24.5219    4.1952 C   0  0  0  0  0  0  0  0  0  0  0  0
    8.3233   24.9463    5.3084 C   0  0  0  0  0  0  0  0  0  0  0  0
    8.7634   26.2650    5.3972 C   0  0  0  0  0  0  0  0  0  0  0  0
    8.4950   27.1132    4.3522 C   0  0  0  0  0  0  0  0  0  0  0  0
    7.8113   26.7186    3.2222 C   0  0  0  0  0  0  0  0  0  0  0  0
    7.3852   25.4099    3.1550 C   0  0  0  0  0  0  0  0  0  0  0  0
  1  2  1  0  0  0
  2  3  1  0  0  0
  3  4  1  0  0  0
  4  5  2  0  0  0
  4  7  1  0  0  0
  7  8  1  0  0  0
  8  9  1  0  0  0
  7 11  1  0  0  0
 11 12  1  0  0  0
 12 13  2  0  0  0
 13 14  1  0  0  0
 14 15  2  0  0  0
 15 16  1  0  0  0
 16 17  2  0  0  0
  2 18  1  0  0  0
 18 19  2  0  0  0
 18 20  1  0  0  0
 20 22  1  0  0  0
 22 27  1  0  0  0
 27 28  1  0  0  0
 28 29  2  0  0  0
 29 30  1  0  0  0
 30 31  2  0  0  0
 31 32  1  0  0  0
 32 33  2  0  0  0
 22 23  1  0  0  0
 23 24  1  0  0  0
 23 25  2  0  0  0
 17 12  1  0  0  0
 33 28  1  0  0  0
  3  6  1  0  0  0
  9 10  1  0  0  0
 20 21  1  0  0  0
 24 26  1  0  0  0
M  END
> <minimizedAffinity>
-7.79713

> <CNNscore>
0.5662661195

> <CNNaffinity>
6.6566863060

> <CNN_VS>
3.7694559097

> <CNNaffinity_variance>
0.0243694019

$$$$
[H]OC(=O)[C@@]([H])(N([H])C(=O)[C@@]([H])(N([H])C(=O)[C@]([H])(C([H])([H])S[H])C([H])([H])c1c([H])c([H])c([H])c([H])c1[H])C([H])([H])[H])C([H])([H])c1c([H])c([H])c([H])c([H])c1[H]


 33 34  0  0  0  0  0  0  0  0999 V2000
   11.2455   21.5998   -0.8879 C   0  0  0  0  0  0  0  0  0  0  0  0
   12.2199   22.5067   -0.1871 C   0  0  0  0  0  0  0  0  0  0  0  0
   13.4528   22.6920   -0.9083 N   0  0  0  0  0  0  0  0  0  0  0  0
   13.8472   23.8803   -1.5287 C   0  0  0  0  0  0  0  0  0  0  0  0
   13.1065   24.8792   -1.4795 O   0  0  0  0  0  0  0  0  0  0  0  0
   14.0807   21.8556   -0.9550 H   0  0  0  0  0  0  0  0  0  0  0  0
   15.1419   23.9641   -2.2425 C   0  0  0  0  0  0  0  0  0  0  0  0
   16.0765   24.9673   -1.6257 C   0  0  0  0  0  0  0  0  0  0  0  0
   16.1708   24.6913    0.1526 S   0  0  0  0  0  0  0  0  0  0  0  0
   15.6302   25.7520    0.8861 H   0  0  0  0  0  0  0  0  0  0  0  0
   15.0385   24.0397   -3.7247 C   0  0  0  0  0  0  0  0  0  0  0  0
   15.3760   25.3032   -4.3781 C   0  0  0  0  0  0  0  0  0  0  0  0
   15.1506   25.5371   -5.7030 C   0  0  0  0  0  0  0  0  0  0  0  0
   15.4675   26.7685   -6.2742 C   0  0  0  0  0  0  0  0  0  0  0  0
   16.0167   27.7685   -5.4938 C   0  0  0  0  0  0  0  0  0  0  0  0
   16.2591   27.5727   -4.1546 C   0  0  0  0  0  0  0  0  0  0  0  0
   15.9370   26.3594   -3.6348 C   0  0  0  0  0  0  0  0  0  0  0  0
   12.5235   21.9022    1.1253 C   0  0  0  0  0  0  0  0  0  0  0  0
   13.7043   21.5944    1.3975 O   0  0  0  0  0  0  0  0  0  0  0  0
   11.4611   21.6871    2.0435 N   0  0  0  0  0  0  0  0  0  0  0  0
   10.4677   21.9450    1.8170 H   0  0  0  0  0  0  0  0  0  0  0  0
   11.7059   21.0976    3.3411 C   0  0  0  0  0  0  0  0  0  0  0  0
   11.6894   19.6260    3.2862 C   0  0  0  0  0  0  0  0  0  0  0  0
   11.8727   18.8928    4.4445 O   0  0  0  0  0  0  0  0  0  0  0  0
   11.5133   18.9832    2.2166 O   0  0  0  0  0  0  0  0  0  0  0  0
   11.0758   18.4779    4.9501 H   0  0  0  0  0  0  0  0  0  0  0  0
   10.7007   21.6220    4.3732 C   0  0  0  0  0  0  0  0  0  0  0  0
    9.6223   22.3904    3.6736 C   0  0  0  0  0  0  0  0  0  0  0  0
    9.7299   23.7557    3.5656 C   0  0  0  0  0  0  0  0  0  0  0  0
    8.7358   24.4856    2.9179 C   0  0  0  0  0  0  0  0  0  0  0  0
    7.6619   23.8064    2.3994 C   0  0  0  0  0  0  0  0  0  0  0  0
    7.5244   22.4380    2.4911 C   0  0  0  0  0  0  0  0  0  0  0  0
    8.5192   21.7354    3.1357 C   0  0  0  0  0  0  0  0  0  0  0  0
  1  2  1  0  0  0
  2  3  1  0  0  0
  3  4  1  0  0  0
  4  5  2  0  0  0
  4  7  1  0  0  0
  7  8  1  0  0  0
  8  9  1  0  0  0
  7 11  1  0  0  0
 11 12  1  0  0  0
 12 13  2  0  0  0
 13 14  1  0  0  0
 14 15  2  0  0  0
 15 16  1  0  0  0
 16 17  2  0  0  0
  2 18  1  0  0  0
 18 19  2  0  0  0
 18 20  1  0  0  0
 20 22  1  0  0  0
 22 27  1  0  0  0
 27 28  1  0  0  0
 28 29  2  0  0  0
 29 30  1  0  0  0
 30 31  2  0  0  0
 31 32  1  0  0  0
 32 33  2  0  0  0
 22 23  1  0  0  0
 23 24  1  0  0  0
 23 25  2  0  0  0
 17 12  1  0  0  0
 33 28  1  0  0  0
  3  6  1  0  0  0
  9 10  1  0  0  0
 20 21  1  0  0  0
 24 26  1  0  0  0
M  END
> <minimizedAffinity>
-7.78505

> <CNNscore>
0.5325064659

> <CNNaffinity>
7.0229744911

> <CNN_VS>
3.7397792339

> <CNNaffinity_variance>
0.0723415464

$$$$
[H]OC(=O)[C@@]([H])(N([H])C(=O)[C@@]([H])(N([H])C(=O)[C@]([H])(C([H])([H])S[H])C([H])([H])c1c([H])c([H])c([H])c([H])c1[H])C([H])([H])[H])C([H])([H])c1c([H])c([H])c([H])c([H])c1[H]


 33 34  0  0  0  0  0  0  0  0999 V2000
    9.9305   20.9537   -0.1018 C   0  0  0  0  0  0  0  0  0  0  0  0
   10.7007   22.1373    0.4170 C   0  0  0  0  0  0  0  0  0  0  0  0
   11.8177   22.5050   -0.4147 N   0  0  0  0  0  0  0  0  0  0  0  0
   12.0818   23.7972   -0.8762 C   0  0  0  0  0  0  0  0  0  0  0  0
   11.3189   24.7314   -0.5697 O   0  0  0  0  0  0  0  0  0  0  0  0
   12.4634   21.7240   -0.6777 H   0  0  0  0  0  0  0  0  0  0  0  0
   13.2647   24.0672   -1.7251 C   0  0  0  0  0  0  0  0  0  0  0  0
   14.5533   23.6653   -1.0633 C   0  0  0  0  0  0  0  0  0  0  0  0
   14.6964   24.4913    0.5319 S   0  0  0  0  0  0  0  0  0  0  0  0
   15.7507   25.4092    0.5643 H   0  0  0  0  0  0  0  0  0  0  0  0
   13.2862   25.4106   -2.3638 C   0  0  0  0  0  0  0  0  0  0  0  0
   14.0227   25.5693   -3.6167 C   0  0  0  0  0  0  0  0  0  0  0  0
   14.9891   24.6975   -4.0251 C   0  0  0  0  0  0  0  0  0  0  0  0
   15.6459   24.8789   -5.2411 C   0  0  0  0  0  0  0  0  0  0  0  0
   15.3183   25.9530   -6.0471 C   0  0  0  0  0  0  0  0  0  0  0  0
   14.3499   26.8540   -5.6716 C   0  0  0  0  0  0  0  0  0  0  0  0
   13.7326   26.6434   -4.4797 C   0  0  0  0  0  0  0  0  0  0  0  0
   11.2037   21.7852    1.7597 C   0  0  0  0  0  0  0  0  0  0  0  0
   12.3637   22.1200    2.0845 O   0  0  0  0  0  0  0  0  0  0  0  0
   10.3519   21.0737    2.6463 N   0  0  0  0  0  0  0  0  0  0  0  0
    9.3764   20.7911    2.3755 H   0  0  0  0  0  0  0  0  0  0  0  0
   10.7974   20.7046    3.9716 C   0  0  0  0  0  0  0  0  0  0  0  0
   11.5742   19.4535    3.9599 C   0  0  0  0  0  0  0  0  0  0  0  0
   12.7516   19.3821    3.2378 O   0  0  0  0  0  0  0  0  0  0  0  0
   11.2166   18.4201    4.5865 O   0  0  0  0  0  0  0  0  0  0  0  0
   13.6704   19.4719    3.6969 H   0  0  0  0  0  0  0  0  0  0  0  0
    9.6090   20.6065    4.9353 C   0  0  0  0  0  0  0  0  0  0  0  0
    8.7961   21.8616    4.8544 C   0  0  0  0  0  0  0  0  0  0  0  0
    7.5178   21.8050    4.3543 C   0  0  0  0  0  0  0  0  0  0  0  0
    6.7480   22.9631    4.2722 C   0  0  0  0  0  0  0  0  0  0  0  0
    7.3002   24.1442    4.7004 C   0  0  0  0  0  0  0  0  0  0  0  0
    8.5790   24.2345    5.2067 C   0  0  0  0  0  0  0  0  0  0  0  0
    9.3231   23.0769    5.2793 C   0  0  0  0  0  0  0  0  0  0  0  0
  1  2  1  0  0  0
  2  3  1  0  0  0
  3  4  1  0  0  0
  4  5  2  0  0  0
  4  7  1  0  0  0
  7  8  1  0  0  0
  8  9  1  0  0  0
  7 11  1  0  0  0
 11 12  1  0  0  0
 12 13  2  0  0  0
 13 14  1  0  0  0
 14 15  2  0  0  0
 15 16  1  0  0  0
 16 17  2  0  0  0
  2 18  1  0  0  0
 18 19  2  0  0  0
 18 20  1  0  0  0
 20 22  1  0  0  0
 22 27  1  0  0  0
 27 28  1  0  0  0
 28 29  2  0  0  0
 29 30  1  0  0  0
 30 31  2  0  0  0
 31 32  1  0  0  0
 32 33  2  0  0  0
 22 23  1  0  0  0
 23 24  1  0  0  0
 23 25  2  0  0  0
 17 12  1  0  0  0
 33 28  1  0  0  0
  3  6  1  0  0  0
  9 10  1  0  0  0
 20 21  1  0  0  0
 24 26  1  0  0  0
M  END
> <minimizedAffinity>
-7.99522

> <CNNscore>
0.4980474710

> <CNNaffinity>
6.6881155968

> <CNN_VS>
3.3309991360

> <CNNaffinity_variance>
0.1789414138

$$$$
[H]OC(=O)[C@@]([H])(N([H])C(=O)[C@@]([H])(N([H])C(=O)[C@]([H])(C([H])([H])S[H])C([H])([H])c1c([H])c([H])c([H])c([H])c1[H])C([H])([H])[H])C([H])([H])c1c([H])c([H])c([H])c([H])c1[H]


 33 34  0  0  0  0  0  0  0  0999 V2000
   10.3449   23.1334   -1.3408 C   0  0  0  0  0  0  0  0  0  0  0  0
   11.0699   24.3112   -0.7488 C   0  0  0  0  0  0  0  0  0  0  0  0
   12.4685   24.3555   -1.0902 N   0  0  0  0  0  0  0  0  0  0  0  0
   13.0196   25.1341   -2.1113 C   0  0  0  0  0  0  0  0  0  0  0  0
   12.2817   25.8587   -2.8035 O   0  0  0  0  0  0  0  0  0  0  0  0
   13.0955   23.7475   -0.5129 H   0  0  0  0  0  0  0  0  0  0  0  0
   14.4763   25.1083   -2.3761 C   0  0  0  0  0  0  0  0  0  0  0  0
   14.8980   26.1430   -3.3820 C   0  0  0  0  0  0  0  0  0  0  0  0
   15.2704   25.3418   -4.9527 S   0  0  0  0  0  0  0  0  0  0  0  0
   16.6235   25.4376   -5.2924 H   0  0  0  0  0  0  0  0  0  0  0  0
   15.0505   23.7541   -2.5988 C   0  0  0  0  0  0  0  0  0  0  0  0
   14.7558   22.7083   -1.6207 C   0  0  0  0  0  0  0  0  0  0  0  0
   14.0928   21.5595   -1.9392 C   0  0  0  0  0  0  0  0  0  0  0  0
   13.8578   20.5806   -0.9751 C   0  0  0  0  0  0  0  0  0  0  0  0
   14.2997   20.7704    0.3208 C   0  0  0  0  0  0  0  0  0  0  0  0
   14.9719   21.9141    0.6822 C   0  0  0  0  0  0  0  0  0  0  0  0
   15.1815   22.8447   -0.2854 C   0  0  0  0  0  0  0  0  0  0  0  0
   10.9419   24.2186    0.7192 C   0  0  0  0  0  0  0  0  0  0  0  0
   11.2804   25.1938    1.4245 O   0  0  0  0  0  0  0  0  0  0  0  0
   10.4362   23.0197    1.2892 N   0  0  0  0  0  0  0  0  0  0  0  0
   10.1510   22.1985    0.6984 H   0  0  0  0  0  0  0  0  0  0  0  0
   10.2923   22.8786    2.7212 C   0  0  0  0  0  0  0  0  0  0  0  0
   10.8990   21.6298    3.2124 C   0  0  0  0  0  0  0  0  0  0  0  0
   10.8635   21.3330    4.5627 O   0  0  0  0  0  0  0  0  0  0  0  0
   11.4619   20.7973    2.4519 O   0  0  0  0  0  0  0  0  0  0  0  0
   10.1730   20.6728    4.9504 H   0  0  0  0  0  0  0  0  0  0  0  0
    8.8175   22.9729    3.1297 C   0  0  0  0  0  0  0  0  0  0  0  0
    8.5143   24.3668    3.5855 C   0  0  0  0  0  0  0  0  0  0  0  0
    7.8523   25.2230    2.7394 C   0  0  0  0  0  0  0  0  0  0  0  0
    7.5623   26.5229    3.1477 C   0  0  0  0  0  0  0  0  0  0  0  0
    7.9538   26.9140    4.4036 C   0  0  0  0  0  0  0  0  0  0  0  0
    8.6191   26.0796    5.2758 C   0  0  0  0  0  0  0  0  0  0  0  0
    8.8959   24.7980    4.8519 C   0  0  0  0  0  0  0  0  0  0  0  0
  1  2  1  0  0  0
  2  3  1  0  0  0
  3  4  1  0  0  0
  4  5  2  0  0  0
  4  7  1  0  0  0
  7  8  1  0  0  0
  8  9  1  0  0  0
  7 11  1  0  0  0
 11 12  1  0  0  0
 12 13  2  0  0  0
 13 14  1  0  0  0
 14 15  2  0  0  0
 15 16  1  0  0  0
 16 17  2  0  0  0
  2 18  1  0  0  0
 18 19  2  0  0  0
 18 20  1  0  0  0
 20 22  1  0  0  0
 22 27  1  0  0  0
 27 28  1  0  0  0
 28 29  2  0  0  0
 29 30  1  0  0  0
 30 31  2  0  0  0
 31 32  1  0  0  0
 32 33  2  0  0  0
 22 23  1  0  0  0
 23 24  1  0  0  0
 23 25  2  0  0  0
 17 12  1  0  0  0
 33 28  1  0  0  0
  3  6  1  0  0  0
  9 10  1  0  0  0
 20 21  1  0  0  0
 24 26  1  0  0  0
M  END
> <minimizedAffinity>
-6.30571

> <CNNscore>
0.3883554041

> <CNNaffinity>
6.4898667336

> <CNN_VS>
2.5203747749

> <CNNaffinity_variance>
0.0556386635

$$$$
[H]OC(=O)[C@@]([H])(N([H])C(=O)[C@@]([H])(N([H])C(=O)[C@]([H])(C([H])([H])S[H])C([H])([H])c1c([H])c([H])c([H])c([H])c1[H])C([H])([H])[H])C([H])([H])c1c([H])c([H])c([H])c([H])c1[H]


 33 34  0  0  0  0  0  0  0  0999 V2000
   14.9809   20.8102    0.8410 C   0  0  0  0  0  0  0  0  0  0  0  0
   13.9340   21.4228   -0.0489 C   0  0  0  0  0  0  0  0  0  0  0  0
   14.2393   22.7720   -0.4501 N   0  0  0  0  0  0  0  0  0  0  0  0
   14.3493   23.2089   -1.7729 C   0  0  0  0  0  0  0  0  0  0  0  0
   14.1789   22.4039   -2.7064 O   0  0  0  0  0  0  0  0  0  0  0  0
   14.3852   23.4549    0.3299 H   0  0  0  0  0  0  0  0  0  0  0  0
   14.6637   24.6240   -2.0754 C   0  0  0  0  0  0  0  0  0  0  0  0
   13.4651   25.3897   -2.5624 C   0  0  0  0  0  0  0  0  0  0  0  0
   12.0941   25.1587   -1.4157 S   0  0  0  0  0  0  0  0  0  0  0  0
   11.0324   24.4524   -1.9894 H   0  0  0  0  0  0  0  0  0  0  0  0
   15.9025   24.8360   -2.8714 C   0  0  0  0  0  0  0  0  0  0  0  0
   15.8312   25.7071   -4.0433 C   0  0  0  0  0  0  0  0  0  0  0  0
   16.1580   27.0310   -4.0051 C   0  0  0  0  0  0  0  0  0  0  0  0
   16.0972   27.8143   -5.1565 C   0  0  0  0  0  0  0  0  0  0  0  0
   15.7021   27.2485   -6.3542 C   0  0  0  0  0  0  0  0  0  0  0  0
   15.3649   25.9180   -6.4346 C   0  0  0  0  0  0  0  0  0  0  0  0
   15.4365   25.1876   -5.2911 C   0  0  0  0  0  0  0  0  0  0  0  0
   12.6618   21.4264    0.7005 C   0  0  0  0  0  0  0  0  0  0  0  0
   12.6650   21.1126    1.9107 O   0  0  0  0  0  0  0  0  0  0  0  0
   11.4673   21.7875    0.0219 N   0  0  0  0  0  0  0  0  0  0  0  0
   11.4620   22.0517   -0.9954 H   0  0  0  0  0  0  0  0  0  0  0  0
   10.1958   21.8059    0.7106 C   0  0  0  0  0  0  0  0  0  0  0  0
    9.2052   20.9351    0.0554 C   0  0  0  0  0  0  0  0  0  0  0  0
    7.9494   21.4290   -0.2476 O   0  0  0  0  0  0  0  0  0  0  0  0
    9.4447   19.7364   -0.2515 O   0  0  0  0  0  0  0  0  0  0  0  0
    7.7082   21.7366   -1.2015 H   0  0  0  0  0  0  0  0  0  0  0  0
    9.6695   23.2402    0.8390 C   0  0  0  0  0  0  0  0  0  0  0  0
    9.4572   23.5661    2.2851 C   0  0  0  0  0  0  0  0  0  0  0  0
    9.1910   24.8632    2.6512 C   0  0  0  0  0  0  0  0  0  0  0  0
    8.9909   25.1836    3.9920 C   0  0  0  0  0  0  0  0  0  0  0  0
    9.0676   24.1763    4.9209 C   0  0  0  0  0  0  0  0  0  0  0  0
    9.3329   22.8658    4.5864 C   0  0  0  0  0  0  0  0  0  0  0  0
    9.5275   22.5708    3.2544 C   0  0  0  0  0  0  0  0  0  0  0  0
  1  2  1  0  0  0
  2  3  1  0  0  0
  3  4  1  0  0  0
  4  5  2  0  0  0
  4  7  1  0  0  0
  7  8  1  0  0  0
  8  9  1  0  0  0
  7 11  1  0  0  0
 11 12  1  0  0  0
 12 13  2  0  0  0
 13 14  1  0  0  0
 14 15  2  0  0  0
 15 16  1  0  0  0
 16 17  2  0  0  0
  2 18  1  0  0  0
 18 19  2  0  0  0
 18 20  1  0  0  0
 20 22  1  0  0  0
 22 27  1  0  0  0
 27 28  1  0  0  0
 28 29  2  0  0  0
 29 30  1  0  0  0
 30 31  2  0  0  0
 31 32  1  0  0  0
 32 33  2  0  0  0
 22 23  1  0  0  0
 23 24  1  0  0  0
 23 25  2  0  0  0
 17 12  1  0  0  0
 33 28  1  0  0  0
  3  6  1  0  0  0
  9 10  1  0  0  0
 20 21  1  0  0  0
 24 26  1  0  0  0
M  END
> <minimizedAffinity>
-8.81788

> <CNNscore>
0.3348656595

> <CNNaffinity>
6.7362442017

> <CNN_VS>
2.2557368279

> <CNNaffinity_variance>
0.0657622069

$$$$
[H]OC(=O)c1c([H])c([H])c(-c2sc(N([H])C(=O)c3c([H])c([H])c(OC([H])([H])[H])c([H])c3[H])nc2[H])c(OC([H])([H])c2c([H])c([H])c([H])c([H])c2[H])c1[H]


 35 38  0  0  0  0  0  0  0  0999 V2000
   13.3503   25.2223   -2.4447 C   0  0  0  0  0  0  0  0  0  0  0  0
   12.8661   26.3443   -3.1343 C   0  0  0  0  0  0  0  0  0  0  0  0
   13.5026   26.7555   -4.2768 C   0  0  0  0  0  0  0  0  0  0  0  0
   14.6174   26.0932   -4.7763 C   0  0  0  0  0  0  0  0  0  0  0  0
   15.0918   24.9973   -4.1048 C   0  0  0  0  0  0  0  0  0  0  0  0
   14.4484   24.5796   -2.9468 C   0  0  0  0  0  0  0  0  0  0  0  0
   10.8875   23.9960    0.5319 C   0  0  0  0  0  0  0  0  0  0  0  0
   12.0874   24.3546    0.9475 N   0  0  0  0  0  0  0  0  0  0  0  0
   12.9706   24.7679    0.0872 C   0  0  0  0  0  0  0  0  0  0  0  0
   12.6324   24.8193   -1.2221 C   0  0  0  0  0  0  0  0  0  0  0  0
   10.9849   24.2445   -1.1483 S   0  0  0  0  0  0  0  0  0  0  0  0
    9.3071   24.2955    2.4025 C   0  0  0  0  0  0  0  0  0  0  0  0
    9.8124   25.4271    2.6553 O   0  0  0  0  0  0  0  0  0  0  0  0
    9.7956   23.5168    1.3485 N   0  0  0  0  0  0  0  0  0  0  0  0
    9.3817   22.5921    1.1429 H   0  0  0  0  0  0  0  0  0  0  0  0
    6.0907   23.0101    4.8279 C   0  0  0  0  0  0  0  0  0  0  0  0
    6.5001   24.3067    4.7895 C   0  0  0  0  0  0  0  0  0  0  0  0
    7.5395   24.7331    4.0076 C   0  0  0  0  0  0  0  0  0  0  0  0
    8.2086   23.8021    3.2164 C   0  0  0  0  0  0  0  0  0  0  0  0
    7.7866   22.5031    3.2650 C   0  0  0  0  0  0  0  0  0  0  0  0
    6.7355   22.0754    4.0564 C   0  0  0  0  0  0  0  0  0  0  0  0
    4.7192   21.3172    5.8487 C   0  0  0  0  0  0  0  0  0  0  0  0
    5.0218   22.6913    5.6605 O   0  0  0  0  0  0  0  0  0  0  0  0
   15.2917   26.5249   -5.9824 C   0  0  0  0  0  0  0  0  0  0  0  0
   15.4963   25.6489   -7.0207 O   0  0  0  0  0  0  0  0  0  0  0  0
   15.6914   27.7019   -6.0828 O   0  0  0  0  0  0  0  0  0  0  0  0
   16.4540   25.4559   -7.3383 H   0  0  0  0  0  0  0  0  0  0  0  0
   14.9068   23.4801   -2.2562 O   0  0  0  0  0  0  0  0  0  0  0  0
   14.6465   22.1434   -2.4258 C   0  0  0  0  0  0  0  0  0  0  0  0
   13.9803   21.5903   -1.2240 C   0  0  0  0  0  0  0  0  0  0  0  0
   12.6659   21.1241   -1.3466 C   0  0  0  0  0  0  0  0  0  0  0  0
   11.9924   20.6031   -0.2919 C   0  0  0  0  0  0  0  0  0  0  0  0
   12.6148   20.5292    0.9337 C   0  0  0  0  0  0  0  0  0  0  0  0
   13.9134   20.9867    1.0670 C   0  0  0  0  0  0  0  0  0  0  0  0
   14.5939   21.5148   -0.0059 C   0  0  0  0  0  0  0  0  0  0  0  0
 22 23  1  0  0  0
 23 16  1  0  0  0
 16 17  2  0  0  0
 17 18  1  0  0  0
 18 19  2  0  0  0
 19 20  1  0  0  0
 20 21  2  0  0  0
 19 12  1  0  0  0
 12 13  2  0  0  0
 12 14  1  0  0  0
 14  7  1  0  0  0
  7  8  2  0  0  0
  8  9  1  0  0  0
  9 10  2  0  0  0
 10 11  1  0  0  0
 10  1  1  0  0  0
  1  2  2  0  0  0
  2  3  1  0  0  0
  3  4  2  0  0  0
  4  5  1  0  0  0
  5  6  2  0  0  0
  6 28  1  0  0  0
 28 29  1  0  0  0
 29 30  1  0  0  0
 30 31  2  0  0  0
 31 32  1  0  0  0
 32 33  2  0  0  0
 33 34  1  0  0  0
 34 35  2  0  0  0
  4 24  1  0  0  0
 24 25  1  0  0  0
 24 26  2  0  0  0
 21 16  1  0  0  0
 11  7  1  0  0  0
  6  1  1  0  0  0
 35 30  1  0  0  0
 14 15  1  0  0  0
 25 27  1  0  0  0
M  END
> <minimizedAffinity>
-9.15577

> <CNNscore>
0.5932093263

> <CNNaffinity>
7.1890945435

> <CNN_VS>
4.2646379471

> <CNNaffinity_variance>
0.0934792310

$$$$
[H]OC(=O)c1c([H])c([H])c(-c2sc(N([H])C(=O)c3c([H])c([H])c(OC([H])([H])[H])c([H])c3[H])nc2[H])c(OC([H])([H])c2c([H])c([H])c([H])c([H])c2[H])c1[H]


 35 38  0  0  0  0  0  0  0  0999 V2000
   13.3322   25.1828   -2.4081 C   0  0  0  0  0  0  0  0  0  0  0  0
   12.8492   26.3110   -3.0885 C   0  0  0  0  0  0  0  0  0  0  0  0
   13.4782   26.7232   -4.2347 C   0  0  0  0  0  0  0  0  0  0  0  0
   14.5843   26.0560   -4.7469 C   0  0  0  0  0  0  0  0  0  0  0  0
   15.0575   24.9540   -4.0845 C   0  0  0  0  0  0  0  0  0  0  0  0
   14.4217   24.5353   -2.9227 C   0  0  0  0  0  0  0  0  0  0  0  0
   10.8832   23.9730    0.5866 C   0  0  0  0  0  0  0  0  0  0  0  0
   12.0982   24.2938    0.9892 N   0  0  0  0  0  0  0  0  0  0  0  0
   12.9788   24.6978    0.1219 C   0  0  0  0  0  0  0  0  0  0  0  0
   12.6224   24.7789   -1.1810 C   0  0  0  0  0  0  0  0  0  0  0  0
   10.9618   24.2457   -1.0909 S   0  0  0  0  0  0  0  0  0  0  0  0
    9.2856   24.3184    2.4345 C   0  0  0  0  0  0  0  0  0  0  0  0
    9.7747   25.4647    2.6502 O   0  0  0  0  0  0  0  0  0  0  0  0
    9.7916   23.5090    1.4123 N   0  0  0  0  0  0  0  0  0  0  0  0
    9.3910   22.5724    1.2370 H   0  0  0  0  0  0  0  0  0  0  0  0
    6.1119   22.7796    4.7668 C   0  0  0  0  0  0  0  0  0  0  0  0
    6.8369   22.0001    3.9201 C   0  0  0  0  0  0  0  0  0  0  0  0
    7.8664   22.4881    3.1613 C   0  0  0  0  0  0  0  0  0  0  0  0
    8.1876   23.8402    3.2580 C   0  0  0  0  0  0  0  0  0  0  0  0
    7.4507   24.6114    4.1126 C   0  0  0  0  0  0  0  0  0  0  0  0
    6.4109   24.1149    4.8782 C   0  0  0  0  0  0  0  0  0  0  0  0
    4.8480   20.7936    5.2641 C   0  0  0  0  0  0  0  0  0  0  0  0
    5.0873   22.1746    5.4890 O   0  0  0  0  0  0  0  0  0  0  0  0
   15.2508   26.4888   -5.9570 C   0  0  0  0  0  0  0  0  0  0  0  0
   15.7173   27.7754   -6.0762 O   0  0  0  0  0  0  0  0  0  0  0  0
   15.4043   25.6888   -6.9013 O   0  0  0  0  0  0  0  0  0  0  0  0
   15.3684   28.3716   -6.8366 H   0  0  0  0  0  0  0  0  0  0  0  0
   14.8789   23.4298   -2.2411 O   0  0  0  0  0  0  0  0  0  0  0  0
   14.6256   22.0941   -2.4282 C   0  0  0  0  0  0  0  0  0  0  0  0
   13.8993   21.5379   -1.2632 C   0  0  0  0  0  0  0  0  0  0  0  0
   14.5631   21.4770   -0.0321 C   0  0  0  0  0  0  0  0  0  0  0  0
   13.9629   20.9827    1.0784 C   0  0  0  0  0  0  0  0  0  0  0  0
   12.6663   20.5279    0.9964 C   0  0  0  0  0  0  0  0  0  0  0  0
   12.0003   20.5832   -0.2147 C   0  0  0  0  0  0  0  0  0  0  0  0
   12.6127   21.0855   -1.3397 C   0  0  0  0  0  0  0  0  0  0  0  0
 22 23  1  0  0  0
 23 16  1  0  0  0
 16 17  2  0  0  0
 17 18  1  0  0  0
 18 19  2  0  0  0
 19 20  1  0  0  0
 20 21  2  0  0  0
 19 12  1  0  0  0
 12 13  2  0  0  0
 12 14  1  0  0  0
 14  7  1  0  0  0
  7  8  2  0  0  0
  8  9  1  0  0  0
  9 10  2  0  0  0
 10 11  1  0  0  0
 10  1  1  0  0  0
  1  2  2  0  0  0
  2  3  1  0  0  0
  3  4  2  0  0  0
  4  5  1  0  0  0
  5  6  2  0  0  0
  6 28  1  0  0  0
 28 29  1  0  0  0
 29 30  1  0  0  0
 30 31  2  0  0  0
 31 32  1  0  0  0
 32 33  2  0  0  0
 33 34  1  0  0  0
 34 35  2  0  0  0
  4 24  1  0  0  0
 24 25  1  0  0  0
 24 26  2  0  0  0
 21 16  1  0  0  0
 11  7  1  0  0  0
  6  1  1  0  0  0
 35 30  1  0  0  0
 14 15  1  0  0  0
 25 27  1  0  0  0
M  END
> <minimizedAffinity>
-9.08137

> <CNNscore>
0.5793133974

> <CNNaffinity>
7.1369957924

> <CNN_VS>
4.1345572472

> <CNNaffinity_variance>
0.0933977962

$$$$
[H]OC(=O)c1c([H])c([H])c(-c2sc(N([H])C(=O)c3c([H])c([H])c(OC([H])([H])[H])c([H])c3[H])nc2[H])c(OC([H])([H])c2c([H])c([H])c([H])c([H])c2[H])c1[H]


 35 38  0  0  0  0  0  0  0  0999 V2000
   14.1312   25.5206   -3.1572 C   0  0  0  0  0  0  0  0  0  0  0  0
   13.2242   25.9562   -4.1352 C   0  0  0  0  0  0  0  0  0  0  0  0
   13.6753   26.2025   -5.4061 C   0  0  0  0  0  0  0  0  0  0  0  0
   15.0087   26.0336   -5.7585 C   0  0  0  0  0  0  0  0  0  0  0  0
   15.8962   25.6080   -4.8054 C   0  0  0  0  0  0  0  0  0  0  0  0
   15.4409   25.3585   -3.5171 C   0  0  0  0  0  0  0  0  0  0  0  0
   12.0953   24.8720    0.2872 C   0  0  0  0  0  0  0  0  0  0  0  0
   13.4066   24.8605    0.4336 N   0  0  0  0  0  0  0  0  0  0  0  0
   14.1722   25.0568   -0.5990 C   0  0  0  0  0  0  0  0  0  0  0  0
   13.5985   25.2692   -1.8061 C   0  0  0  0  0  0  0  0  0  0  0  0
   11.9083   25.1718   -1.3770 S   0  0  0  0  0  0  0  0  0  0  0  0
   10.7281   23.3798    1.6981 C   0  0  0  0  0  0  0  0  0  0  0  0
   11.2443   22.3695    1.1392 O   0  0  0  0  0  0  0  0  0  0  0  0
   11.1066   24.6727    1.3223 N   0  0  0  0  0  0  0  0  0  0  0  0
   10.6840   25.4976    1.7800 H   0  0  0  0  0  0  0  0  0  0  0  0
    7.8220   22.6796    4.6888 C   0  0  0  0  0  0  0  0  0  0  0  0
    8.2838   21.6905    3.8773 C   0  0  0  0  0  0  0  0  0  0  0  0
    9.2246   21.9064    2.9068 C   0  0  0  0  0  0  0  0  0  0  0  0
    9.7326   23.1928    2.7404 C   0  0  0  0  0  0  0  0  0  0  0  0
    9.2594   24.1767    3.5627 C   0  0  0  0  0  0  0  0  0  0  0  0
    8.3085   23.9550    4.5427 C   0  0  0  0  0  0  0  0  0  0  0  0
    6.4729   20.9820    5.7315 C   0  0  0  0  0  0  0  0  0  0  0  0
    6.8643   22.3436    5.6413 O   0  0  0  0  0  0  0  0  0  0  0  0
   15.4882   26.2929   -7.0997 C   0  0  0  0  0  0  0  0  0  0  0  0
   16.3175   27.3588   -7.3518 O   0  0  0  0  0  0  0  0  0  0  0  0
   15.1474   25.5437   -8.0366 O   0  0  0  0  0  0  0  0  0  0  0  0
   16.0246   28.0800   -8.0221 H   0  0  0  0  0  0  0  0  0  0  0  0
   16.3144   24.9288   -2.5433 O   0  0  0  0  0  0  0  0  0  0  0  0
   17.3395   25.5833   -1.9076 C   0  0  0  0  0  0  0  0  0  0  0  0
   17.6792   26.8330   -2.6268 C   0  0  0  0  0  0  0  0  0  0  0  0
   18.9824   26.9870   -3.1146 C   0  0  0  0  0  0  0  0  0  0  0  0
   19.3665   28.1016   -3.7837 C   0  0  0  0  0  0  0  0  0  0  0  0
   18.4531   29.1104   -3.9907 C   0  0  0  0  0  0  0  0  0  0  0  0
   17.1625   28.9694   -3.5133 C   0  0  0  0  0  0  0  0  0  0  0  0
   16.7762   27.8366   -2.8346 C   0  0  0  0  0  0  0  0  0  0  0  0
 22 23  1  0  0  0
 23 16  1  0  0  0
 16 17  2  0  0  0
 17 18  1  0  0  0
 18 19  2  0  0  0
 19 20  1  0  0  0
 20 21  2  0  0  0
 19 12  1  0  0  0
 12 13  2  0  0  0
 12 14  1  0  0  0
 14  7  1  0  0  0
  7  8  2  0  0  0
  8  9  1  0  0  0
  9 10  2  0  0  0
 10 11  1  0  0  0
 10  1  1  0  0  0
  1  2  2  0  0  0
  2  3  1  0  0  0
  3  4  2  0  0  0
  4  5  1  0  0  0
  5  6  2  0  0  0
  6 28  1  0  0  0
 28 29  1  0  0  0
 29 30  1  0  0  0
 30 31  2  0  0  0
 31 32  1  0  0  0
 32 33  2  0  0  0
 33 34  1  0  0  0
 34 35  2  0  0  0
  4 24  1  0  0  0
 24 25  1  0  0  0
 24 26  2  0  0  0
 21 16  1  0  0  0
 11  7  1  0  0  0
  6  1  1  0  0  0
 35 30  1  0  0  0
 14 15  1  0  0  0
 25 27  1  0  0  0
M  END
> <minimizedAffinity>
-0.85931

> <CNNscore>
0.5431839824

> <CNNaffinity>
6.7309098244

> <CNN_VS>
3.6561224461

> <CNNaffinity_variance>
0.1607691050

$$$$
[H]OC(=O)c1c([H])c([H])c(-c2sc(N([H])C(=O)c3c([H])c([H])c(OC([H])([H])[H])c([H])c3[H])nc2[H])c(OC([H])([H])c2c([H])c([H])c([H])c([H])c2[H])c1[H]


 35 38  0  0  0  0  0  0  0  0999 V2000
   13.1955   25.3366   -2.4584 C   0  0  0  0  0  0  0  0  0  0  0  0
   12.7469   26.4413   -3.1982 C   0  0  0  0  0  0  0  0  0  0  0  0
   13.4544   26.8412   -4.3022 C   0  0  0  0  0  0  0  0  0  0  0  0
   14.6074   26.1841   -4.7142 C   0  0  0  0  0  0  0  0  0  0  0  0
   15.0472   25.1050   -3.9936 C   0  0  0  0  0  0  0  0  0  0  0  0
   14.3318   24.6988   -2.8745 C   0  0  0  0  0  0  0  0  0  0  0  0
   10.6236   23.9809    0.3658 C   0  0  0  0  0  0  0  0  0  0  0  0
   11.6420   24.6618    0.8560 N   0  0  0  0  0  0  0  0  0  0  0  0
   12.5382   25.1503    0.0504 C   0  0  0  0  0  0  0  0  0  0  0  0
   12.4011   24.9452   -1.2802 C   0  0  0  0  0  0  0  0  0  0  0  0
   10.9218   24.0173   -1.3088 S   0  0  0  0  0  0  0  0  0  0  0  0
    9.8173   22.6481    2.2789 C   0  0  0  0  0  0  0  0  0  0  0  0
   11.0050   22.5123    2.6918 O   0  0  0  0  0  0  0  0  0  0  0  0
    9.5466   23.3743    1.1147 N   0  0  0  0  0  0  0  0  0  0  0  0
    8.5754   23.4846    0.7784 H   0  0  0  0  0  0  0  0  0  0  0  0
    6.7443   20.8546    4.5637 C   0  0  0  0  0  0  0  0  0  0  0  0
    8.0219   20.9600    5.0184 C   0  0  0  0  0  0  0  0  0  0  0  0
    9.0237   21.5392    4.2871 C   0  0  0  0  0  0  0  0  0  0  0  0
    8.7253   22.0429    3.0231 C   0  0  0  0  0  0  0  0  0  0  0  0
    7.4376   21.9299    2.5791 C   0  0  0  0  0  0  0  0  0  0  0  0
    6.4274   21.3440    3.3208 C   0  0  0  0  0  0  0  0  0  0  0  0
    6.1590   19.0042    5.9859 C   0  0  0  0  0  0  0  0  0  0  0  0
    5.8079   20.2460    5.3945 O   0  0  0  0  0  0  0  0  0  0  0  0
   15.3569   26.6040   -5.8795 C   0  0  0  0  0  0  0  0  0  0  0  0
   15.6078   25.7237   -6.9039 O   0  0  0  0  0  0  0  0  0  0  0  0
   15.7797   27.7747   -5.9571 O   0  0  0  0  0  0  0  0  0  0  0  0
   16.5791   25.5157   -7.1655 H   0  0  0  0  0  0  0  0  0  0  0  0
   14.7543   23.6163   -2.1360 O   0  0  0  0  0  0  0  0  0  0  0  0
   14.5857   22.2701   -2.3428 C   0  0  0  0  0  0  0  0  0  0  0  0
   13.9271   21.6461   -1.1719 C   0  0  0  0  0  0  0  0  0  0  0  0
   12.6581   21.0808   -1.3449 C   0  0  0  0  0  0  0  0  0  0  0  0
   11.9943   20.4907   -0.3208 C   0  0  0  0  0  0  0  0  0  0  0  0
   12.5810   20.4446    0.9235 C   0  0  0  0  0  0  0  0  0  0  0  0
   13.8347   20.9999    1.1065 C   0  0  0  0  0  0  0  0  0  0  0  0
   14.5054   21.5979    0.0647 C   0  0  0  0  0  0  0  0  0  0  0  0
 22 23  1  0  0  0
 23 16  1  0  0  0
 16 17  2  0  0  0
 17 18  1  0  0  0
 18 19  2  0  0  0
 19 20  1  0  0  0
 20 21  2  0  0  0
 19 12  1  0  0  0
 12 13  2  0  0  0
 12 14  1  0  0  0
 14  7  1  0  0  0
  7  8  2  0  0  0
  8  9  1  0  0  0
  9 10  2  0  0  0
 10 11  1  0  0  0
 10  1  1  0  0  0
  1  2  2  0  0  0
  2  3  1  0  0  0
  3  4  2  0  0  0
  4  5  1  0  0  0
  5  6  2  0  0  0
  6 28  1  0  0  0
 28 29  1  0  0  0
 29 30  1  0  0  0
 30 31  2  0  0  0
 31 32  1  0  0  0
 32 33  2  0  0  0
 33 34  1  0  0  0
 34 35  2  0  0  0
  4 24  1  0  0  0
 24 25  1  0  0  0
 24 26  2  0  0  0
 21 16  1  0  0  0
 11  7  1  0  0  0
  6  1  1  0  0  0
 35 30  1  0  0  0
 14 15  1  0  0  0
 25 27  1  0  0  0
M  END
> <minimizedAffinity>
-8.98339

> <CNNscore>
0.4940021336

> <CNNaffinity>
7.0719895363

> <CNN_VS>
3.4935779572

> <CNNaffinity_variance>
0.0767080337

$$$$
[H]OC(=O)c1c([H])c([H])c(-c2sc(N([H])C(=O)c3c([H])c([H])c(OC([H])([H])[H])c([H])c3[H])nc2[H])c(OC([H])([H])c2c([H])c([H])c([H])c([H])c2[H])c1[H]


 35 38  0  0  0  0  0  0  0  0999 V2000
   14.1913   25.8754   -3.6767 C   0  0  0  0  0  0  0  0  0  0  0  0
   13.5994   26.1007   -4.9287 C   0  0  0  0  0  0  0  0  0  0  0  0
   14.2631   26.8597   -5.8576 C   0  0  0  0  0  0  0  0  0  0  0  0
   15.5097   27.4157   -5.5975 C   0  0  0  0  0  0  0  0  0  0  0  0
   16.0899   27.1969   -4.3757 C   0  0  0  0  0  0  0  0  0  0  0  0
   15.4185   26.4284   -3.4333 C   0  0  0  0  0  0  0  0  0  0  0  0
   11.8777   24.1629   -0.8231 C   0  0  0  0  0  0  0  0  0  0  0  0
   12.5961   23.2991   -1.5151 N   0  0  0  0  0  0  0  0  0  0  0  0
   13.3804   23.7248   -2.4609 C   0  0  0  0  0  0  0  0  0  0  0  0
   13.4390   25.0532   -2.7120 C   0  0  0  0  0  0  0  0  0  0  0  0
   12.3115   25.6527   -1.5207 S   0  0  0  0  0  0  0  0  0  0  0  0
   11.3403   22.9886    1.2791 C   0  0  0  0  0  0  0  0  0  0  0  0
   12.4856   22.4522    1.2785 O   0  0  0  0  0  0  0  0  0  0  0  0
   10.9621   23.8615    0.2538 N   0  0  0  0  0  0  0  0  0  0  0  0
   10.0257   24.2994    0.2555 H   0  0  0  0  0  0  0  0  0  0  0  0
    8.5869   22.2852    4.4103 C   0  0  0  0  0  0  0  0  0  0  0  0
    8.7201   23.5026    3.8184 C   0  0  0  0  0  0  0  0  0  0  0  0
    9.6077   23.7406    2.8039 C   0  0  0  0  0  0  0  0  0  0  0  0
   10.4103   22.6936    2.3564 C   0  0  0  0  0  0  0  0  0  0  0  0
   10.2658   21.4760    2.9602 C   0  0  0  0  0  0  0  0  0  0  0  0
    9.3676   21.2388    3.9854 C   0  0  0  0  0  0  0  0  0  0  0  0
    7.4231   20.8625    5.9629 C   0  0  0  0  0  0  0  0  0  0  0  0
    7.6512   22.1596    5.4331 O   0  0  0  0  0  0  0  0  0  0  0  0
   16.2131   28.2178   -6.5762 C   0  0  0  0  0  0  0  0  0  0  0  0
   16.2319   29.5876   -6.4742 O   0  0  0  0  0  0  0  0  0  0  0  0
   16.8084   27.6631   -7.5213 O   0  0  0  0  0  0  0  0  0  0  0  0
   15.8575   30.1572   -7.2427 H   0  0  0  0  0  0  0  0  0  0  0  0
   15.9829   26.1942   -2.1994 O   0  0  0  0  0  0  0  0  0  0  0  0
   17.1153   25.5027   -1.8491 C   0  0  0  0  0  0  0  0  0  0  0  0
   16.8319   24.5847   -0.7216 C   0  0  0  0  0  0  0  0  0  0  0  0
   17.8754   24.2658    0.1555 C   0  0  0  0  0  0  0  0  0  0  0  0
   17.6917   23.4346    1.2105 C   0  0  0  0  0  0  0  0  0  0  0  0
   16.4472   22.8881    1.4277 C   0  0  0  0  0  0  0  0  0  0  0  0
   15.4084   23.1960    0.5676 C   0  0  0  0  0  0  0  0  0  0  0  0
   15.5986   24.0401   -0.5021 C   0  0  0  0  0  0  0  0  0  0  0  0
 22 23  1  0  0  0
 23 16  1  0  0  0
 16 17  2  0  0  0
 17 18  1  0  0  0
 18 19  2  0  0  0
 19 20  1  0  0  0
 20 21  2  0  0  0
 19 12  1  0  0  0
 12 13  2  0  0  0
 12 14  1  0  0  0
 14  7  1  0  0  0
  7  8  2  0  0  0
  8  9  1  0  0  0
  9 10  2  0  0  0
 10 11  1  0  0  0
 10  1  1  0  0  0
  1  2  2  0  0  0
  2  3  1  0  0  0
  3  4  2  0  0  0
  4  5  1  0  0  0
  5  6  2  0  0  0
  6 28  1  0  0  0
 28 29  1  0  0  0
 29 30  1  0  0  0
 30 31  2  0  0  0
 31 32  1  0  0  0
 32 33  2  0  0  0
 33 34  1  0  0  0
 34 35  2  0  0  0
  4 24  1  0  0  0
 24 25  1  0  0  0
 24 26  2  0  0  0
 21 16  1  0  0  0
 11  7  1  0  0  0
  6  1  1  0  0  0
 35 30  1  0  0  0
 14 15  1  0  0  0
 25 27  1  0  0  0
M  END
> <minimizedAffinity>
-1.76817

> <CNNscore>
0.4893101454

> <CNNaffinity>
7.1090545654

> <CNN_VS>
3.4785325527

> <CNNaffinity_variance>
0.3401953578

$$$$
[H]OC(=O)c1c([H])c([H])c(-c2sc(N([H])C(=O)c3c([H])c([H])c(OC([H])([H])[H])c([H])c3[H])nc2[H])c(OC([H])([H])c2c([H])c([H])c([H])c([H])c2[H])c1[H]


 35 38  0  0  0  0  0  0  0  0999 V2000
   13.8478   24.9519   -3.4768 C   0  0  0  0  0  0  0  0  0  0  0  0
   13.4453   26.2404   -3.8597 C   0  0  0  0  0  0  0  0  0  0  0  0
   14.0293   26.8288   -4.9515 C   0  0  0  0  0  0  0  0  0  0  0  0
   15.0119   26.1866   -5.6950 C   0  0  0  0  0  0  0  0  0  0  0  0
   15.4064   24.9283   -5.3233 C   0  0  0  0  0  0  0  0  0  0  0  0
   14.8160   24.3309   -4.2171 C   0  0  0  0  0  0  0  0  0  0  0  0
   11.7245   23.8765   -0.1959 C   0  0  0  0  0  0  0  0  0  0  0  0
   12.5593   22.9461   -0.6183 N   0  0  0  0  0  0  0  0  0  0  0  0
   13.2986   23.1703   -1.6643 C   0  0  0  0  0  0  0  0  0  0  0  0
   13.1908   24.3618   -2.2967 C   0  0  0  0  0  0  0  0  0  0  0  0
   11.9755   25.1370   -1.3107 S   0  0  0  0  0  0  0  0  0  0  0  0
    9.4507   23.8325    0.7604 C   0  0  0  0  0  0  0  0  0  0  0  0
    8.9555   23.9433   -0.3981 O   0  0  0  0  0  0  0  0  0  0  0  0
   10.8369   23.7919    0.9415 N   0  0  0  0  0  0  0  0  0  0  0  0
   11.2404   23.7013    1.8889 H   0  0  0  0  0  0  0  0  0  0  0  0
    6.8381   23.4360    4.0615 C   0  0  0  0  0  0  0  0  0  0  0  0
    6.9849   22.4575    3.1282 C   0  0  0  0  0  0  0  0  0  0  0  0
    7.8281   22.5755    2.0565 C   0  0  0  0  0  0  0  0  0  0  0  0
    8.5688   23.7465    1.9125 C   0  0  0  0  0  0  0  0  0  0  0  0
    8.4112   24.7212    2.8576 C   0  0  0  0  0  0  0  0  0  0  0  0
    7.5581   24.5986    3.9398 C   0  0  0  0  0  0  0  0  0  0  0  0
    5.5609   21.8643    5.3605 C   0  0  0  0  0  0  0  0  0  0  0  0
    5.9513   23.2058    5.1094 O   0  0  0  0  0  0  0  0  0  0  0  0
   15.6306   26.8052   -6.8485 C   0  0  0  0  0  0  0  0  0  0  0  0
   16.6030   27.7627   -6.6908 O   0  0  0  0  0  0  0  0  0  0  0  0
   15.2799   26.4680   -7.9967 O   0  0  0  0  0  0  0  0  0  0  0  0
   16.4585   28.7001   -7.0853 H   0  0  0  0  0  0  0  0  0  0  0  0
   15.1957   23.0665   -3.8259 O   0  0  0  0  0  0  0  0  0  0  0  0
   15.9971   22.6515   -2.7920 C   0  0  0  0  0  0  0  0  0  0  0  0
   16.1523   23.7336   -1.7924 C   0  0  0  0  0  0  0  0  0  0  0  0
   16.5373   25.0030   -2.2399 C   0  0  0  0  0  0  0  0  0  0  0  0
   16.6977   26.0425   -1.3847 C   0  0  0  0  0  0  0  0  0  0  0  0
   16.4768   25.8479   -0.0401 C   0  0  0  0  0  0  0  0  0  0  0  0
   16.0959   24.5978    0.4137 C   0  0  0  0  0  0  0  0  0  0  0  0
   15.9341   23.5451   -0.4572 C   0  0  0  0  0  0  0  0  0  0  0  0
 22 23  1  0  0  0
 23 16  1  0  0  0
 16 17  2  0  0  0
 17 18  1  0  0  0
 18 19  2  0  0  0
 19 20  1  0  0  0
 20 21  2  0  0  0
 19 12  1  0  0  0
 12 13  2  0  0  0
 12 14  1  0  0  0
 14  7  1  0  0  0
  7  8  2  0  0  0
  8  9  1  0  0  0
  9 10  2  0  0  0
 10 11  1  0  0  0
 10  1  1  0  0  0
  1  2  2  0  0  0
  2  3  1  0  0  0
  3  4  2  0  0  0
  4  5  1  0  0  0
  5  6  2  0  0  0
  6 28  1  0  0  0
 28 29  1  0  0  0
 29 30  1  0  0  0
 30 31  2  0  0  0
 31 32  1  0  0  0
 32 33  2  0  0  0
 33 34  1  0  0  0
 34 35  2  0  0  0
  4 24  1  0  0  0
 24 25  1  0  0  0
 24 26  2  0  0  0
 21 16  1  0  0  0
 11  7  1  0  0  0
  6  1  1  0  0  0
 35 30  1  0  0  0
 14 15  1  0  0  0
 25 27  1  0  0  0
M  END
> <minimizedAffinity>
-2.91967

> <CNNscore>
0.4626212418

> <CNNaffinity>
6.9140167236

> <CNN_VS>
3.1985709667

> <CNNaffinity_variance>
0.3826303482

$$$$
[H]OC(=O)c1c([H])c([H])c(-c2sc(N([H])C(=O)c3c([H])c([H])c(OC([H])([H])[H])c([H])c3[H])nc2[H])c(OC([H])([H])c2c([H])c([H])c([H])c([H])c2[H])c1[H]


 35 38  0  0  0  0  0  0  0  0999 V2000
   15.1621   26.4644   -2.6458 C   0  0  0  0  0  0  0  0  0  0  0  0
   15.7033   27.5561   -1.9499 C   0  0  0  0  0  0  0  0  0  0  0  0
   16.8871   28.1018   -2.3741 C   0  0  0  0  0  0  0  0  0  0  0  0
   17.5718   27.6060   -3.4770 C   0  0  0  0  0  0  0  0  0  0  0  0
   17.0452   26.5403   -4.1583 C   0  0  0  0  0  0  0  0  0  0  0  0
   15.8460   25.9859   -3.7295 C   0  0  0  0  0  0  0  0  0  0  0  0
   11.9201   24.9892   -0.7114 C   0  0  0  0  0  0  0  0  0  0  0  0
   11.7690   25.0684   -2.0198 N   0  0  0  0  0  0  0  0  0  0  0  0
   12.7395   25.5264   -2.7541 C   0  0  0  0  0  0  0  0  0  0  0  0
   13.8878   25.9128   -2.1515 C   0  0  0  0  0  0  0  0  0  0  0  0
   13.4976   25.5833   -0.4814 S   0  0  0  0  0  0  0  0  0  0  0  0
   10.5136   23.1794    0.2012 C   0  0  0  0  0  0  0  0  0  0  0  0
   10.9617   22.3830   -0.6732 O   0  0  0  0  0  0  0  0  0  0  0  0
   10.9493   24.5077    0.2449 N   0  0  0  0  0  0  0  0  0  0  0  0
   10.5824   25.1575    0.9601 H   0  0  0  0  0  0  0  0  0  0  0  0
    7.5739   21.7674    2.8928 C   0  0  0  0  0  0  0  0  0  0  0  0
    7.4072   21.7214    1.5437 C   0  0  0  0  0  0  0  0  0  0  0  0
    8.3526   22.1752    0.6639 C   0  0  0  0  0  0  0  0  0  0  0  0
    9.5369   22.7074    1.1686 C   0  0  0  0  0  0  0  0  0  0  0  0
    9.6908   22.7474    2.5261 C   0  0  0  0  0  0  0  0  0  0  0  0
    8.7332   22.2878    3.4125 C   0  0  0  0  0  0  0  0  0  0  0  0
    6.2229   21.9990    4.8702 C   0  0  0  0  0  0  0  0  0  0  0  0
    6.5446   21.2769    3.6911 O   0  0  0  0  0  0  0  0  0  0  0  0
   18.8222   28.1800   -3.9274 C   0  0  0  0  0  0  0  0  0  0  0  0
   18.9221   29.5264   -4.1813 O   0  0  0  0  0  0  0  0  0  0  0  0
   19.8193   27.4482   -4.0873 O   0  0  0  0  0  0  0  0  0  0  0  0
   19.1939   29.8454   -5.1191 H   0  0  0  0  0  0  0  0  0  0  0  0
   15.2974   24.9154   -4.3996 O   0  0  0  0  0  0  0  0  0  0  0  0
   15.6220   23.5822   -4.3760 C   0  0  0  0  0  0  0  0  0  0  0  0
   15.1961   22.9695   -3.0964 C   0  0  0  0  0  0  0  0  0  0  0  0
   15.8035   23.4079   -1.9137 C   0  0  0  0  0  0  0  0  0  0  0  0
   15.4647   22.8955   -0.7053 C   0  0  0  0  0  0  0  0  0  0  0  0
   14.4981   21.9180   -0.6360 C   0  0  0  0  0  0  0  0  0  0  0  0
   13.8908   21.4769   -1.7981 C   0  0  0  0  0  0  0  0  0  0  0  0
   14.2373   21.9993   -3.0228 C   0  0  0  0  0  0  0  0  0  0  0  0
 22 23  1  0  0  0
 23 16  1  0  0  0
 16 17  2  0  0  0
 17 18  1  0  0  0
 18 19  2  0  0  0
 19 20  1  0  0  0
 20 21  2  0  0  0
 19 12  1  0  0  0
 12 13  2  0  0  0
 12 14  1  0  0  0
 14  7  1  0  0  0
  7  8  2  0  0  0
  8  9  1  0  0  0
  9 10  2  0  0  0
 10 11  1  0  0  0
 10  1  1  0  0  0
  1  2  2  0  0  0
  2  3  1  0  0  0
  3  4  2  0  0  0
  4  5  1  0  0  0
  5  6  2  0  0  0
  6 28  1  0  0  0
 28 29  1  0  0  0
 29 30  1  0  0  0
 30 31  2  0  0  0
 31 32  1  0  0  0
 32 33  2  0  0  0
 33 34  1  0  0  0
 34 35  2  0  0  0
  4 24  1  0  0  0
 24 25  1  0  0  0
 24 26  2  0  0  0
 21 16  1  0  0  0
 11  7  1  0  0  0
  6  1  1  0  0  0
 35 30  1  0  0  0
 14 15  1  0  0  0
 25 27  1  0  0  0
M  END
> <minimizedAffinity>
1.55644

> <CNNscore>
0.4364732504

> <CNNaffinity>
6.9260721207

> <CNN_VS>
3.0230453014

> <CNNaffinity_variance>
0.7935241461

$$$$
[H]OC(=O)c1c([H])c([H])c(-c2sc(N([H])C(=O)c3c([H])c([H])c(OC([H])([H])[H])c([H])c3[H])nc2[H])c(OC([H])([H])c2c([H])c([H])c([H])c([H])c2[H])c1[H]


 35 38  0  0  0  0  0  0  0  0999 V2000
   15.1479   24.5870   -4.7156 C   0  0  0  0  0  0  0  0  0  0  0  0
   14.7660   23.7534   -5.7777 C   0  0  0  0  0  0  0  0  0  0  0  0
   15.2997   23.9660   -7.0224 C   0  0  0  0  0  0  0  0  0  0  0  0
   16.2115   24.9857   -7.2670 C   0  0  0  0  0  0  0  0  0  0  0  0
   16.5861   25.8007   -6.2314 C   0  0  0  0  0  0  0  0  0  0  0  0
   16.0459   25.5870   -4.9697 C   0  0  0  0  0  0  0  0  0  0  0  0
   13.7682   23.2794   -1.1357 C   0  0  0  0  0  0  0  0  0  0  0  0
   13.3952   24.5096   -1.4328 N   0  0  0  0  0  0  0  0  0  0  0  0
   13.7739   25.0444   -2.5560 C   0  0  0  0  0  0  0  0  0  0  0  0
   14.5470   24.3186   -3.3967 C   0  0  0  0  0  0  0  0  0  0  0  0
   14.6982   22.8343   -2.4890 S   0  0  0  0  0  0  0  0  0  0  0  0
   12.3069   21.7183    0.0949 C   0  0  0  0  0  0  0  0  0  0  0  0
   11.5584   21.6113   -0.9191 O   0  0  0  0  0  0  0  0  0  0  0  0
   13.4384   22.5397    0.0614 N   0  0  0  0  0  0  0  0  0  0  0  0
   14.0493   22.6262    0.8906 H   0  0  0  0  0  0  0  0  0  0  0  0
   11.5122   19.4875    3.5980 C   0  0  0  0  0  0  0  0  0  0  0  0
   12.6484   19.3181    2.8697 C   0  0  0  0  0  0  0  0  0  0  0  0
   12.9155   20.0354    1.7349 C   0  0  0  0  0  0  0  0  0  0  0  0
   11.9861   20.9796    1.3048 C   0  0  0  0  0  0  0  0  0  0  0  0
   10.8490   21.1391    2.0462 C   0  0  0  0  0  0  0  0  0  0  0  0
   10.5822   20.4125    3.1928 C   0  0  0  0  0  0  0  0  0  0  0  0
   10.2530   18.9999    5.5895 C   0  0  0  0  0  0  0  0  0  0  0  0
   11.3470   18.7020    4.7352 O   0  0  0  0  0  0  0  0  0  0  0  0
   16.7768   25.2128   -8.5803 C   0  0  0  0  0  0  0  0  0  0  0  0
   15.9907   25.1291   -9.7038 O   0  0  0  0  0  0  0  0  0  0  0  0
   17.9878   25.4873   -8.6959 O   0  0  0  0  0  0  0  0  0  0  0  0
   16.2289   24.4517  -10.4385 H   0  0  0  0  0  0  0  0  0  0  0  0
   16.4088   26.3927   -3.9138 O   0  0  0  0  0  0  0  0  0  0  0  0
   15.8268   27.5307   -3.4142 C   0  0  0  0  0  0  0  0  0  0  0  0
   14.4374   27.6612   -3.9109 C   0  0  0  0  0  0  0  0  0  0  0  0
   14.1348   27.1577   -5.1817 C   0  0  0  0  0  0  0  0  0  0  0  0
   12.8858   27.2390   -5.7024 C   0  0  0  0  0  0  0  0  0  0  0  0
   11.8865   27.8317   -4.9643 C   0  0  0  0  0  0  0  0  0  0  0  0
   12.1736   28.3328   -3.7073 C   0  0  0  0  0  0  0  0  0  0  0  0
   13.4425   28.2484   -3.1821 C   0  0  0  0  0  0  0  0  0  0  0  0
 22 23  1  0  0  0
 23 16  1  0  0  0
 16 17  2  0  0  0
 17 18  1  0  0  0
 18 19  2  0  0  0
 19 20  1  0  0  0
 20 21  2  0  0  0
 19 12  1  0  0  0
 12 13  2  0  0  0
 12 14  1  0  0  0
 14  7  1  0  0  0
  7  8  2  0  0  0
  8  9  1  0  0  0
  9 10  2  0  0  0
 10 11  1  0  0  0
 10  1  1  0  0  0
  1  2  2  0  0  0
  2  3  1  0  0  0
  3  4  2  0  0  0
  4  5  1  0  0  0
  5  6  2  0  0  0
  6 28  1  0  0  0
 28 29  1  0  0  0
 29 30  1  0  0  0
 30 31  2  0  0  0
 31 32  1  0  0  0
 32 33  2  0  0  0
 33 34  1  0  0  0
 34 35  2  0  0  0
  4 24  1  0  0  0
 24 25  1  0  0  0
 24 26  2  0  0  0
 21 16  1  0  0  0
 11  7  1  0  0  0
  6  1  1  0  0  0
 35 30  1  0  0  0
 14 15  1  0  0  0
 25 27  1  0  0  0
M  END
> <minimizedAffinity>
15.44450

> <CNNscore>
0.4191822410

> <CNNaffinity>
6.7192831039

> <CNN_VS>
2.8166041374

> <CNNaffinity_variance>
0.9216312170

$$$$
[H]OC(=O)c1c([H])c([H])c(-c2sc(N([H])C(=O)c3c([H])c([H])c(OC([H])([H])[H])c([H])c3[H])nc2[H])c(OC([H])([H])c2c([H])c([H])c([H])c([H])c2[H])c1[H]


 35 38  0  0  0  0  0  0  0  0999 V2000
   12.8790   25.3527   -2.4450 C   0  0  0  0  0  0  0  0  0  0  0  0
   12.7854   26.6810   -2.8872 C   0  0  0  0  0  0  0  0  0  0  0  0
   13.5265   27.0816   -3.9688 C   0  0  0  0  0  0  0  0  0  0  0  0
   14.3715   26.2098   -4.6445 C   0  0  0  0  0  0  0  0  0  0  0  0
   14.4644   24.9122   -4.2147 C   0  0  0  0  0  0  0  0  0  0  0  0
   13.7146   24.5048   -3.1188 C   0  0  0  0  0  0  0  0  0  0  0  0
   10.2870   23.9709    0.3481 C   0  0  0  0  0  0  0  0  0  0  0  0
   11.2321   24.7504    0.8382 N   0  0  0  0  0  0  0  0  0  0  0  0
   12.1263   25.2577    0.0421 C   0  0  0  0  0  0  0  0  0  0  0  0
   12.0630   24.9700   -1.2787 C   0  0  0  0  0  0  0  0  0  0  0  0
   10.6556   23.9364   -1.3125 S   0  0  0  0  0  0  0  0  0  0  0  0
    9.4905   22.2090    1.8804 C   0  0  0  0  0  0  0  0  0  0  0  0
   10.6632   21.7423    1.9618 O   0  0  0  0  0  0  0  0  0  0  0  0
    9.2235   23.3296    1.0873 N   0  0  0  0  0  0  0  0  0  0  0  0
    8.2646   23.7102    1.0217 H   0  0  0  0  0  0  0  0  0  0  0  0
    6.2588   20.3747    3.8982 C   0  0  0  0  0  0  0  0  0  0  0  0
    6.1682   20.7902    2.6062 C   0  0  0  0  0  0  0  0  0  0  0  0
    7.2083   21.3844    1.9438 C   0  0  0  0  0  0  0  0  0  0  0  0
    8.4122   21.5731    2.6188 C   0  0  0  0  0  0  0  0  0  0  0  0
    8.4889   21.1509    3.9165 C   0  0  0  0  0  0  0  0  0  0  0  0
    7.4356   20.5506    4.5830 C   0  0  0  0  0  0  0  0  0  0  0  0
    4.9942   19.8631    5.8801 C   0  0  0  0  0  0  0  0  0  0  0  0
    5.1362   19.7829    4.4700 O   0  0  0  0  0  0  0  0  0  0  0  0
   15.1554   26.6298   -5.7869 C   0  0  0  0  0  0  0  0  0  0  0  0
   15.7032   27.8887   -5.8341 O   0  0  0  0  0  0  0  0  0  0  0  0
   15.3369   25.8439   -6.7380 O   0  0  0  0  0  0  0  0  0  0  0  0
   15.4504   28.5218   -6.6026 H   0  0  0  0  0  0  0  0  0  0  0  0
   13.7910   23.2053   -2.6700 O   0  0  0  0  0  0  0  0  0  0  0  0
   14.0840   22.7026   -1.4271 C   0  0  0  0  0  0  0  0  0  0  0  0
   15.2019   23.4576   -0.8150 C   0  0  0  0  0  0  0  0  0  0  0  0
   15.5536   23.1693    0.5090 C   0  0  0  0  0  0  0  0  0  0  0  0
   16.5663   23.8172    1.1354 C   0  0  0  0  0  0  0  0  0  0  0  0
   17.2693   24.7848    0.4540 C   0  0  0  0  0  0  0  0  0  0  0  0
   16.9308   25.0782   -0.8548 C   0  0  0  0  0  0  0  0  0  0  0  0
   15.9024   24.4185   -1.4873 C   0  0  0  0  0  0  0  0  0  0  0  0
 22 23  1  0  0  0
 23 16  1  0  0  0
 16 17  2  0  0  0
 17 18  1  0  0  0
 18 19  2  0  0  0
 19 20  1  0  0  0
 20 21  2  0  0  0
 19 12  1  0  0  0
 12 13  2  0  0  0
 12 14  1  0  0  0
 14  7  1  0  0  0
  7  8  2  0  0  0
  8  9  1  0  0  0
  9 10  2  0  0  0
 10 11  1  0  0  0
 10  1  1  0  0  0
  1  2  2  0  0  0
  2  3  1  0  0  0
  3  4  2  0  0  0
  4  5  1  0  0  0
  5  6  2  0  0  0
  6 28  1  0  0  0
 28 29  1  0  0  0
 29 30  1  0  0  0
 30 31  2  0  0  0
 31 32  1  0  0  0
 32 33  2  0  0  0
 33 34  1  0  0  0
 34 35  2  0  0  0
  4 24  1  0  0  0
 24 25  1  0  0  0
 24 26  2  0  0  0
 21 16  1  0  0  0
 11  7  1  0  0  0
  6  1  1  0  0  0
 35 30  1  0  0  0
 14 15  1  0  0  0
 25 27  1  0  0  0
M  END
> <minimizedAffinity>
-6.29560

> <CNNscore>
0.4111330509

> <CNNaffinity>
6.9100732803

> <CNN_VS>
2.8409595490

> <CNNaffinity_variance>
0.1761874855

$$$$
[H]c1c([H])c([H])c2c(c1[H])OC([H])([H])C(=O)N2C1([H])C([H])([H])C([H])([H])N(C(=O)c2c([H])c(OC([H])([H])[H])c(OC([H])([H])[H])c(OC([H])([H])[H])c2[H])C([H])([H])C1([H])[H]


 31 34  0  0  0  0  0  0  0  0999 V2000
   12.6291   26.4610   -2.8083 C   0  0  0  0  0  0  0  0  0  0  0  0
   13.9448   26.5689   -2.7552 O   0  0  0  0  0  0  0  0  0  0  0  0
   12.1739   25.3255   -2.1461 N   0  0  0  0  0  0  0  0  0  0  0  0
   13.1692   24.4332   -1.5187 C   0  0  0  0  0  0  0  0  0  0  0  0
   12.9136   24.3723   -0.0346 C   0  0  0  0  0  0  0  0  0  0  0  0
   11.4069   24.2620    0.2546 C   0  0  0  0  0  0  0  0  0  0  0  0
   10.8098   23.7160   -1.0180 C   0  0  0  0  0  0  0  0  0  0  0  0
   10.8253   24.9194   -1.9947 C   0  0  0  0  0  0  0  0  0  0  0  0
   11.2678   23.4416    1.3945 N   0  0  0  0  0  0  0  0  0  0  0  0
   10.4197   23.7918    2.4986 C   0  0  0  0  0  0  0  0  0  0  0  0
   10.1144   24.9708    2.6673 O   0  0  0  0  0  0  0  0  0  0  0  0
    9.9369   22.7194    3.4031 C   0  0  0  0  0  0  0  0  0  0  0  0
   11.0034   21.8170    3.6341 O   0  0  0  0  0  0  0  0  0  0  0  0
   11.8362   21.4103    2.6190 C   0  0  0  0  0  0  0  0  0  0  0  0
   12.5366   20.2051    2.7093 C   0  0  0  0  0  0  0  0  0  0  0  0
   13.3661   19.7717    1.7294 C   0  0  0  0  0  0  0  0  0  0  0  0
   13.5297   20.5283    0.6151 C   0  0  0  0  0  0  0  0  0  0  0  0
   12.8381   21.7343    0.5087 C   0  0  0  0  0  0  0  0  0  0  0  0
   11.9840   22.2054    1.4907 C   0  0  0  0  0  0  0  0  0  0  0  0
   10.3960   28.4680   -5.1391 C   0  0  0  0  0  0  0  0  0  0  0  0
   11.0161   27.3677   -4.5115 C   0  0  0  0  0  0  0  0  0  0  0  0
   11.9498   27.5058   -3.5172 C   0  0  0  0  0  0  0  0  0  0  0  0
   12.2399   28.8441   -3.1734 C   0  0  0  0  0  0  0  0  0  0  0  0
   11.6681   29.9285   -3.7504 C   0  0  0  0  0  0  0  0  0  0  0  0
   10.7371   29.7392   -4.7427 C   0  0  0  0  0  0  0  0  0  0  0  0
    8.0822   28.4412   -5.8628 C   0  0  0  0  0  0  0  0  0  0  0  0
    9.4659   28.2601   -6.1309 O   0  0  0  0  0  0  0  0  0  0  0  0
   12.0092   31.2281   -3.3535 O   0  0  0  0  0  0  0  0  0  0  0  0
   12.8229   32.0116   -4.2004 C   0  0  0  0  0  0  0  0  0  0  0  0
   10.1739   30.8736   -5.3089 O   0  0  0  0  0  0  0  0  0  0  0  0
    8.9193   31.3893   -4.9323 C   0  0  0  0  0  0  0  0  0  0  0  0
 26 27  1  0  0  0
 27 20  1  0  0  0
 20 21  2  0  0  0
 21 22  1  0  0  0
 22 23  2  0  0  0
 23 24  1  0  0  0
 24 28  1  0  0  0
 28 29  1  0  0  0
 24 25  2  0  0  0
 25 30  1  0  0  0
 30 31  1  0  0  0
 22  1  1  0  0  0
  1  2  2  0  0  0
  1  3  1  0  0  0
  3  4  1  0  0  0
  4  5  1  0  0  0
  5  6  1  0  0  0
  6  7  1  0  0  0
  7  8  1  0  0  0
  6  9  1  0  0  0
  9 10  1  0  0  0
 10 11  2  0  0  0
 10 12  1  0  0  0
 12 13  1  0  0  0
 13 14  1  0  0  0
 14 15  2  0  0  0
 15 16  1  0  0  0
 16 17  2  0  0  0
 17 18  1  0  0  0
 18 19  2  0  0  0
 25 20  1  0  0  0
  8  3  1  0  0  0
 19  9  1  0  0  0
 19 14  1  0  0  0
M  END
> <minimizedAffinity>
21.24168

> <CNNscore>
0.5100371242

> <CNNaffinity>
6.0895638466

> <CNN_VS>
3.1059036255

> <CNNaffinity_variance>
0.7045480013

$$$$
[H]c1c([H])c([H])c2c(c1[H])OC([H])([H])C(=O)N2C1([H])C([H])([H])C([H])([H])N(C(=O)c2c([H])c(OC([H])([H])[H])c(OC([H])([H])[H])c(OC([H])([H])[H])c2[H])C([H])([H])C1([H])[H]


 31 34  0  0  0  0  0  0  0  0999 V2000
   12.8723   26.1820   -2.8923 C   0  0  0  0  0  0  0  0  0  0  0  0
   14.1786   26.3605   -2.8066 O   0  0  0  0  0  0  0  0  0  0  0  0
   12.4774   24.9650   -2.3463 N   0  0  0  0  0  0  0  0  0  0  0  0
   13.5162   24.0771   -1.7872 C   0  0  0  0  0  0  0  0  0  0  0  0
   13.2471   23.8628   -0.3198 C   0  0  0  0  0  0  0  0  0  0  0  0
   11.7463   23.6389   -0.0682 C   0  0  0  0  0  0  0  0  0  0  0  0
   11.1978   23.1807   -1.3962 C   0  0  0  0  0  0  0  0  0  0  0  0
   11.1534   24.4692   -2.2566 C   0  0  0  0  0  0  0  0  0  0  0  0
   11.6426   22.7086    0.9881 N   0  0  0  0  0  0  0  0  0  0  0  0
   12.3006   21.4331    0.9604 C   0  0  0  0  0  0  0  0  0  0  0  0
   12.6300   20.9538   -0.1229 O   0  0  0  0  0  0  0  0  0  0  0  0
   12.5636   20.7315    2.2410 C   0  0  0  0  0  0  0  0  0  0  0  0
   11.4294   20.8853    3.0749 O   0  0  0  0  0  0  0  0  0  0  0  0
   10.7681   22.0858    3.1780 C   0  0  0  0  0  0  0  0  0  0  0  0
   10.0036   22.3853    4.3080 C   0  0  0  0  0  0  0  0  0  0  0  0
    9.3379   23.5576    4.4451 C   0  0  0  0  0  0  0  0  0  0  0  0
    9.4098   24.4817    3.4542 C   0  0  0  0  0  0  0  0  0  0  0  0
   10.1686   24.1989    2.3192 C   0  0  0  0  0  0  0  0  0  0  0  0
   10.8600   23.0120    2.1481 C   0  0  0  0  0  0  0  0  0  0  0  0
   10.5098   28.2605   -5.0244 C   0  0  0  0  0  0  0  0  0  0  0  0
   11.1814   27.1430   -4.4867 C   0  0  0  0  0  0  0  0  0  0  0  0
   12.1407   27.2475   -3.5130 C   0  0  0  0  0  0  0  0  0  0  0  0
   12.4013   28.5699   -3.0925 C   0  0  0  0  0  0  0  0  0  0  0  0
   11.7800   29.6699   -3.5822 C   0  0  0  0  0  0  0  0  0  0  0  0
   10.8250   29.5144   -4.5574 C   0  0  0  0  0  0  0  0  0  0  0  0
    8.1791   28.2521   -5.6919 C   0  0  0  0  0  0  0  0  0  0  0  0
    9.5562   28.0864   -6.0003 O   0  0  0  0  0  0  0  0  0  0  0  0
   12.0943   30.9520   -3.1128 O   0  0  0  0  0  0  0  0  0  0  0  0
   12.9021   31.7936   -3.9079 C   0  0  0  0  0  0  0  0  0  0  0  0
   10.2112   30.6638   -5.0332 O   0  0  0  0  0  0  0  0  0  0  0  0
    8.9477   31.1071   -4.5986 C   0  0  0  0  0  0  0  0  0  0  0  0
 26 27  1  0  0  0
 27 20  1  0  0  0
 20 21  2  0  0  0
 21 22  1  0  0  0
 22 23  2  0  0  0
 23 24  1  0  0  0
 24 28  1  0  0  0
 28 29  1  0  0  0
 24 25  2  0  0  0
 25 30  1  0  0  0
 30 31  1  0  0  0
 22  1  1  0  0  0
  1  2  2  0  0  0
  1  3  1  0  0  0
  3  4  1  0  0  0
  4  5  1  0  0  0
  5  6  1  0  0  0
  6  7  1  0  0  0
  7  8  1  0  0  0
  6  9  1  0  0  0
  9 10  1  0  0  0
 10 11  2  0  0  0
 10 12  1  0  0  0
 12 13  1  0  0  0
 13 14  1  0  0  0
 14 15  2  0  0  0
 15 16  1  0  0  0
 16 17  2  0  0  0
 17 18  1  0  0  0
 18 19  2  0  0  0
 25 20  1  0  0  0
  8  3  1  0  0  0
 19  9  1  0  0  0
 19 14  1  0  0  0
M  END
> <minimizedAffinity>
18.94855

> <CNNscore>
0.5092477798

> <CNNaffinity>
6.2907576561

> <CNN_VS>
3.2035543919

> <CNNaffinity_variance>
1.0448167324

$$$$
[H]c1c([H])c([H])c2c(c1[H])OC([H])([H])C(=O)N2C1([H])C([H])([H])C([H])([H])N(C(=O)c2c([H])c(OC([H])([H])[H])c(OC([H])([H])[H])c(OC([H])([H])[H])c2[H])C([H])([H])C1([H])[H]


 31 34  0  0  0  0  0  0  0  0999 V2000
   13.1839   26.1865   -3.1883 C   0  0  0  0  0  0  0  0  0  0  0  0
   12.0271   26.7945   -3.3818 O   0  0  0  0  0  0  0  0  0  0  0  0
   13.2136   25.4989   -1.9793 N   0  0  0  0  0  0  0  0  0  0  0  0
   12.0180   25.5496   -1.1142 C   0  0  0  0  0  0  0  0  0  0  0  0
   11.4815   24.1534   -0.9287 C   0  0  0  0  0  0  0  0  0  0  0  0
   12.6285   23.1557   -0.6951 C   0  0  0  0  0  0  0  0  0  0  0  0
   13.7778   23.9990   -0.2029 C   0  0  0  0  0  0  0  0  0  0  0  0
   14.2881   24.7278   -1.4721 C   0  0  0  0  0  0  0  0  0  0  0  0
   12.1500   22.1872    0.2133 N   0  0  0  0  0  0  0  0  0  0  0  0
   12.9753   21.1249    0.7146 C   0  0  0  0  0  0  0  0  0  0  0  0
   13.9722   20.7909    0.0770 O   0  0  0  0  0  0  0  0  0  0  0  0
   12.5999   20.4620    1.9877 C   0  0  0  0  0  0  0  0  0  0  0  0
   11.1949   20.2859    2.0015 O   0  0  0  0  0  0  0  0  0  0  0  0
   10.3406   21.2718    1.5685 C   0  0  0  0  0  0  0  0  0  0  0  0
    9.0186   21.3189    2.0169 C   0  0  0  0  0  0  0  0  0  0  0  0
    8.1478   22.2750    1.6124 C   0  0  0  0  0  0  0  0  0  0  0  0
    8.5649   23.2267    0.7398 C   0  0  0  0  0  0  0  0  0  0  0  0
    9.8815   23.1944    0.2821 C   0  0  0  0  0  0  0  0  0  0  0  0
   10.7955   22.2322    0.6754 C   0  0  0  0  0  0  0  0  0  0  0  0
   15.1755   25.9668   -6.4183 C   0  0  0  0  0  0  0  0  0  0  0  0
   14.1777   25.7236   -5.4517 C   0  0  0  0  0  0  0  0  0  0  0  0
   14.1524   26.3504   -4.2327 C   0  0  0  0  0  0  0  0  0  0  0  0
   15.2109   27.2613   -4.0249 C   0  0  0  0  0  0  0  0  0  0  0  0
   16.1885   27.5240   -4.9254 C   0  0  0  0  0  0  0  0  0  0  0  0
   16.1712   26.8709   -6.1339 C   0  0  0  0  0  0  0  0  0  0  0  0
   13.9093   25.1207   -8.3048 C   0  0  0  0  0  0  0  0  0  0  0  0
   15.1426   25.3040   -7.6231 O   0  0  0  0  0  0  0  0  0  0  0  0
   17.2077   28.4436   -4.6449 O   0  0  0  0  0  0  0  0  0  0  0  0
   17.9899   28.2659   -3.4831 C   0  0  0  0  0  0  0  0  0  0  0  0
   17.1884   27.1666   -7.0295 O   0  0  0  0  0  0  0  0  0  0  0  0
   17.0443   28.0709   -8.0987 C   0  0  0  0  0  0  0  0  0  0  0  0
 26 27  1  0  0  0
 27 20  1  0  0  0
 20 21  2  0  0  0
 21 22  1  0  0  0
 22 23  2  0  0  0
 23 24  1  0  0  0
 24 28  1  0  0  0
 28 29  1  0  0  0
 24 25  2  0  0  0
 25 30  1  0  0  0
 30 31  1  0  0  0
 22  1  1  0  0  0
  1  2  2  0  0  0
  1  3  1  0  0  0
  3  4  1  0  0  0
  4  5  1  0  0  0
  5  6  1  0  0  0
  6  7  1  0  0  0
  7  8  1  0  0  0
  6  9  1  0  0  0
  9 10  1  0  0  0
 10 11  2  0  0  0
 10 12  1  0  0  0
 12 13  1  0  0  0
 13 14  1  0  0  0
 14 15  2  0  0  0
 15 16  1  0  0  0
 16 17  2  0  0  0
 17 18  1  0  0  0
 18 19  2  0  0  0
 25 20  1  0  0  0
  8  3  1  0  0  0
 19  9  1  0  0  0
 19 14  1  0  0  0
M  END
> <minimizedAffinity>
2.19612

> <CNNscore>
0.4700354934

> <CNNaffinity>
6.7930374146

> <CNN_VS>
3.1929686069

> <CNNaffinity_variance>
0.6510628462

$$$$
[H]c1c([H])c([H])c2c(c1[H])OC([H])([H])C(=O)N2C1([H])C([H])([H])C([H])([H])N(C(=O)c2c([H])c(OC([H])([H])[H])c(OC([H])([H])[H])c(OC([H])([H])[H])c2[H])C([H])([H])C1([H])[H]


 31 34  0  0  0  0  0  0  0  0999 V2000
   14.4465   23.1529   -2.4610 C   0  0  0  0  0  0  0  0  0  0  0  0
   15.1284   22.0341   -2.6307 O   0  0  0  0  0  0  0  0  0  0  0  0
   13.2806   22.9451   -1.7311 N   0  0  0  0  0  0  0  0  0  0  0  0
   12.9706   21.5736   -1.2803 C   0  0  0  0  0  0  0  0  0  0  0  0
   12.9158   21.5479    0.2257 C   0  0  0  0  0  0  0  0  0  0  0  0
   12.1734   22.7823    0.7649 C   0  0  0  0  0  0  0  0  0  0  0  0
   11.3249   23.2553   -0.3885 C   0  0  0  0  0  0  0  0  0  0  0  0
   12.3332   23.9284   -1.3542 C   0  0  0  0  0  0  0  0  0  0  0  0
   11.4652   22.3653    1.9123 N   0  0  0  0  0  0  0  0  0  0  0  0
   11.6346   21.0633    2.4928 C   0  0  0  0  0  0  0  0  0  0  0  0
   12.0790   20.1519    1.7973 O   0  0  0  0  0  0  0  0  0  0  0  0
   11.2680   20.8570    3.9156 C   0  0  0  0  0  0  0  0  0  0  0  0
   10.0634   21.5560    4.1717 O   0  0  0  0  0  0  0  0  0  0  0  0
    9.8442   22.8196    3.6770 C   0  0  0  0  0  0  0  0  0  0  0  0
    8.9355   23.6812    4.2960 C   0  0  0  0  0  0  0  0  0  0  0  0
    8.6933   24.9330    3.8374 C   0  0  0  0  0  0  0  0  0  0  0  0
    9.3522   25.3761    2.7372 C   0  0  0  0  0  0  0  0  0  0  0  0
   10.2628   24.5289    2.1071 C   0  0  0  0  0  0  0  0  0  0  0  0
   10.5330   23.2456    2.5496 C   0  0  0  0  0  0  0  0  0  0  0  0
   16.4485   26.3113   -3.1421 C   0  0  0  0  0  0  0  0  0  0  0  0
   15.9283   25.1849   -2.4715 C   0  0  0  0  0  0  0  0  0  0  0  0
   15.0264   24.3267   -3.0455 C   0  0  0  0  0  0  0  0  0  0  0  0
   14.6605   24.6653   -4.3665 C   0  0  0  0  0  0  0  0  0  0  0  0
   15.1356   25.7367   -5.0462 C   0  0  0  0  0  0  0  0  0  0  0  0
   16.0383   26.5680   -4.4287 C   0  0  0  0  0  0  0  0  0  0  0  0
   18.2598   27.9178   -3.2690 C   0  0  0  0  0  0  0  0  0  0  0  0
   17.3516   27.1330   -2.5086 O   0  0  0  0  0  0  0  0  0  0  0  0
   14.7235   26.0068   -6.3578 O   0  0  0  0  0  0  0  0  0  0  0  0
   15.5574   25.6234   -7.4305 C   0  0  0  0  0  0  0  0  0  0  0  0
   16.5018   27.6539   -5.1569 O   0  0  0  0  0  0  0  0  0  0  0  0
   15.7341   28.8072   -5.4067 C   0  0  0  0  0  0  0  0  0  0  0  0
 26 27  1  0  0  0
 27 20  1  0  0  0
 20 21  2  0  0  0
 21 22  1  0  0  0
 22 23  2  0  0  0
 23 24  1  0  0  0
 24 28  1  0  0  0
 28 29  1  0  0  0
 24 25  2  0  0  0
 25 30  1  0  0  0
 30 31  1  0  0  0
 22  1  1  0  0  0
  1  2  2  0  0  0
  1  3  1  0  0  0
  3  4  1  0  0  0
  4  5  1  0  0  0
  5  6  1  0  0  0
  6  7  1  0  0  0
  7  8  1  0  0  0
  6  9  1  0  0  0
  9 10  1  0  0  0
 10 11  2  0  0  0
 10 12  1  0  0  0
 12 13  1  0  0  0
 13 14  1  0  0  0
 14 15  2  0  0  0
 15 16  1  0  0  0
 16 17  2  0  0  0
 17 18  1  0  0  0
 18 19  2  0  0  0
 25 20  1  0  0  0
  8  3  1  0  0  0
 19  9  1  0  0  0
 19 14  1  0  0  0
M  END
> <minimizedAffinity>
-8.15006

> <CNNscore>
0.4162749946

> <CNNaffinity>
6.9419159889

> <CNN_VS>
2.8897459507

> <CNNaffinity_variance>
0.2232118845

$$$$
[H]c1c([H])c([H])c2c(c1[H])OC([H])([H])C(=O)N2C1([H])C([H])([H])C([H])([H])N(C(=O)c2c([H])c(OC([H])([H])[H])c(OC([H])([H])[H])c(OC([H])([H])[H])c2[H])C([H])([H])C1([H])[H]


 31 34  0  0  0  0  0  0  0  0999 V2000
   13.4256   22.9560    0.7547 C   0  0  0  0  0  0  0  0  0  0  0  0
   14.5999   22.3729    0.9176 O   0  0  0  0  0  0  0  0  0  0  0  0
   13.5250   24.1234    0.0046 N   0  0  0  0  0  0  0  0  0  0  0  0
   14.8593   24.5398   -0.4712 C   0  0  0  0  0  0  0  0  0  0  0  0
   14.8598   24.5723   -1.9781 C   0  0  0  0  0  0  0  0  0  0  0  0
   13.5601   25.2002   -2.5097 C   0  0  0  0  0  0  0  0  0  0  0  0
   13.0336   26.0246   -1.3620 C   0  0  0  0  0  0  0  0  0  0  0  0
   12.4606   24.9791   -0.3715 C   0  0  0  0  0  0  0  0  0  0  0  0
   13.9006   25.9224   -3.6735 N   0  0  0  0  0  0  0  0  0  0  0  0
   13.4683   27.2729   -3.8978 C   0  0  0  0  0  0  0  0  0  0  0  0
   12.4806   27.6918   -3.2973 O   0  0  0  0  0  0  0  0  0  0  0  0
   14.2274   28.1226   -4.8481 C   0  0  0  0  0  0  0  0  0  0  0  0
   14.5776   27.3333   -5.9705 O   0  0  0  0  0  0  0  0  0  0  0  0
   15.0313   26.0433   -5.8311 C   0  0  0  0  0  0  0  0  0  0  0  0
   15.8170   25.4515   -6.8230 C   0  0  0  0  0  0  0  0  0  0  0  0
   16.2821   24.1829   -6.7207 C   0  0  0  0  0  0  0  0  0  0  0  0
   15.9797   23.4516   -5.6186 C   0  0  0  0  0  0  0  0  0  0  0  0
   15.1964   24.0271   -4.6189 C   0  0  0  0  0  0  0  0  0  0  0  0
   14.7058   25.3192   -4.6924 C   0  0  0  0  0  0  0  0  0  0  0  0
   11.1447   20.4799    2.5192 C   0  0  0  0  0  0  0  0  0  0  0  0
   12.2973   21.0409    1.9312 C   0  0  0  0  0  0  0  0  0  0  0  0
   12.3127   22.2895    1.3653 C   0  0  0  0  0  0  0  0  0  0  0  0
   11.0759   22.9683    1.4198 C   0  0  0  0  0  0  0  0  0  0  0  0
    9.9461   22.4664    1.9744 C   0  0  0  0  0  0  0  0  0  0  0  0
    9.9803   21.2103    2.5296 C   0  0  0  0  0  0  0  0  0  0  0  0
   11.9042   19.0000    4.2830 C   0  0  0  0  0  0  0  0  0  0  0  0
   11.1969   19.2208    3.0705 O   0  0  0  0  0  0  0  0  0  0  0  0
    8.7544   23.2030    1.9897 O   0  0  0  0  0  0  0  0  0  0  0  0
    8.1611   23.5716    0.7629 C   0  0  0  0  0  0  0  0  0  0  0  0
    8.8041   20.7312    3.0876 O   0  0  0  0  0  0  0  0  0  0  0  0
    8.2363   21.2485    4.2674 C   0  0  0  0  0  0  0  0  0  0  0  0
 26 27  1  0  0  0
 27 20  1  0  0  0
 20 21  2  0  0  0
 21 22  1  0  0  0
 22 23  2  0  0  0
 23 24  1  0  0  0
 24 28  1  0  0  0
 28 29  1  0  0  0
 24 25  2  0  0  0
 25 30  1  0  0  0
 30 31  1  0  0  0
 22  1  1  0  0  0
  1  2  2  0  0  0
  1  3  1  0  0  0
  3  4  1  0  0  0
  4  5  1  0  0  0
  5  6  1  0  0  0
  6  7  1  0  0  0
  7  8  1  0  0  0
  6  9  1  0  0  0
  9 10  1  0  0  0
 10 11  2  0  0  0
 10 12  1  0  0  0
 12 13  1  0  0  0
 13 14  1  0  0  0
 14 15  2  0  0  0
 15 16  1  0  0  0
 16 17  2  0  0  0
 17 18  1  0  0  0
 18 19  2  0  0  0
 25 20  1  0  0  0
  8  3  1  0  0  0
 19  9  1  0  0  0
 19 14  1  0  0  0
M  END
> <minimizedAffinity>
-2.07459

> <CNNscore>
0.4003649354

> <CNNaffinity>
6.9626135826

> <CNN_VS>
2.7875864506

> <CNNaffinity_variance>
0.8558891416

$$$$
[H]c1c([H])c([H])c2c(c1[H])OC([H])([H])C(=O)N2C1([H])C([H])([H])C([H])([H])N(C(=O)c2c([H])c(OC([H])([H])[H])c(OC([H])([H])[H])c(OC([H])([H])[H])c2[H])C([H])([H])C1([H])[H]


 31 34  0  0  0  0  0  0  0  0999 V2000
   13.8450   24.1743   -2.5740 C   0  0  0  0  0  0  0  0  0  0  0  0
   14.5189   23.7268   -3.6185 O   0  0  0  0  0  0  0  0  0  0  0  0
   13.3528   25.4583   -2.7847 N   0  0  0  0  0  0  0  0  0  0  0  0
   13.6457   26.1191   -4.0722 C   0  0  0  0  0  0  0  0  0  0  0  0
   12.3499   26.4158   -4.7826 C   0  0  0  0  0  0  0  0  0  0  0  0
   11.2996   26.9557   -3.7970 C   0  0  0  0  0  0  0  0  0  0  0  0
   12.1003   27.4913   -2.6367 C   0  0  0  0  0  0  0  0  0  0  0  0
   12.5744   26.2234   -1.8817 C   0  0  0  0  0  0  0  0  0  0  0  0
   10.5311   27.9087   -4.4992 N   0  0  0  0  0  0  0  0  0  0  0  0
    9.4224   27.5422   -5.3342 C   0  0  0  0  0  0  0  0  0  0  0  0
    9.3611   26.3972   -5.7780 O   0  0  0  0  0  0  0  0  0  0  0  0
    8.3833   28.5572   -5.6365 C   0  0  0  0  0  0  0  0  0  0  0  0
    9.0262   29.7957   -5.8774 O   0  0  0  0  0  0  0  0  0  0  0  0
   10.0728   30.2281   -5.0983 C   0  0  0  0  0  0  0  0  0  0  0  0
   10.3757   31.5881   -4.9999 C   0  0  0  0  0  0  0  0  0  0  0  0
   11.3991   32.0516   -4.2423 C   0  0  0  0  0  0  0  0  0  0  0  0
   12.1642   31.1709   -3.5496 C   0  0  0  0  0  0  0  0  0  0  0  0
   11.8757   29.8096   -3.6366 C   0  0  0  0  0  0  0  0  0  0  0  0
   10.8384   29.3037   -4.4008 C   0  0  0  0  0  0  0  0  0  0  0  0
   14.5638   21.6448    0.1705 C   0  0  0  0  0  0  0  0  0  0  0  0
   14.7547   22.4924   -0.9404 C   0  0  0  0  0  0  0  0  0  0  0  0
   13.7562   23.2739   -1.4617 C   0  0  0  0  0  0  0  0  0  0  0  0
   12.5183   23.1592   -0.7926 C   0  0  0  0  0  0  0  0  0  0  0  0
   12.2924   22.3582    0.2766 C   0  0  0  0  0  0  0  0  0  0  0  0
   13.3247   21.5935    0.7633 C   0  0  0  0  0  0  0  0  0  0  0  0
   16.6080   21.4779    1.4634 C   0  0  0  0  0  0  0  0  0  0  0  0
   15.6086   20.8861    0.6447 O   0  0  0  0  0  0  0  0  0  0  0  0
   11.0329   22.2989    0.8875 O   0  0  0  0  0  0  0  0  0  0  0  0
   10.5735   23.4151    1.6196 C   0  0  0  0  0  0  0  0  0  0  0  0
   13.0546   20.7867    1.8589 O   0  0  0  0  0  0  0  0  0  0  0  0
   12.6171   19.4528    1.7530 C   0  0  0  0  0  0  0  0  0  0  0  0
 26 27  1  0  0  0
 27 20  1  0  0  0
 20 21  2  0  0  0
 21 22  1  0  0  0
 22 23  2  0  0  0
 23 24  1  0  0  0
 24 28  1  0  0  0
 28 29  1  0  0  0
 24 25  2  0  0  0
 25 30  1  0  0  0
 30 31  1  0  0  0
 22  1  1  0  0  0
  1  2  2  0  0  0
  1  3  1  0  0  0
  3  4  1  0  0  0
  4  5  1  0  0  0
  5  6  1  0  0  0
  6  7  1  0  0  0
  7  8  1  0  0  0
  6  9  1  0  0  0
  9 10  1  0  0  0
 10 11  2  0  0  0
 10 12  1  0  0  0
 12 13  1  0  0  0
 13 14  1  0  0  0
 14 15  2  0  0  0
 15 16  1  0  0  0
 16 17  2  0  0  0
 17 18  1  0  0  0
 18 19  2  0  0  0
 25 20  1  0  0  0
  8  3  1  0  0  0
 19  9  1  0  0  0
 19 14  1  0  0  0
M  END
> <minimizedAffinity>
32.86201

> <CNNscore>
0.3989156485

> <CNNaffinity>
6.1333742142

> <CNN_VS>
2.4466989040

> <CNNaffinity_variance>
0.8866461515

$$$$
[H]c1c([H])c([H])c2c(c1[H])OC([H])([H])C(=O)N2C1([H])C([H])([H])C([H])([H])N(C(=O)c2c([H])c(OC([H])([H])[H])c(OC([H])([H])[H])c(OC([H])([H])[H])c2[H])C([H])([H])C1([H])[H]


 31 34  0  0  0  0  0  0  0  0999 V2000
   14.0535   23.4717   -2.3537 C   0  0  0  0  0  0  0  0  0  0  0  0
   14.6259   22.2887   -2.4887 O   0  0  0  0  0  0  0  0  0  0  0  0
   12.8667   23.3952   -1.6318 N   0  0  0  0  0  0  0  0  0  0  0  0
   12.4222   22.0717   -1.1515 C   0  0  0  0  0  0  0  0  0  0  0  0
   12.3522   22.0892    0.3541 C   0  0  0  0  0  0  0  0  0  0  0  0
   11.7275   23.4024    0.8551 C   0  0  0  0  0  0  0  0  0  0  0  0
   10.9384   23.9255   -0.3188 C   0  0  0  0  0  0  0  0  0  0  0  0
   12.0152   24.4742   -1.2893 C   0  0  0  0  0  0  0  0  0  0  0  0
   10.9725   23.0842    2.0043 N   0  0  0  0  0  0  0  0  0  0  0  0
    9.9768   23.9674    2.5424 C   0  0  0  0  0  0  0  0  0  0  0  0
   10.0327   25.1659    2.2734 O   0  0  0  0  0  0  0  0  0  0  0  0
    8.9098   23.4066    3.4074 C   0  0  0  0  0  0  0  0  0  0  0  0
    9.4929   22.4458    4.2689 O   0  0  0  0  0  0  0  0  0  0  0  0
   10.4282   21.5457    3.8167 C   0  0  0  0  0  0  0  0  0  0  0  0
   10.6324   20.3338    4.4807 C   0  0  0  0  0  0  0  0  0  0  0  0
   11.5448   19.4223    4.0648 C   0  0  0  0  0  0  0  0  0  0  0  0
   12.2928   19.6862    2.9640 C   0  0  0  0  0  0  0  0  0  0  0  0
   12.1017   20.8913    2.2892 C   0  0  0  0  0  0  0  0  0  0  0  0
   11.1789   21.8430    2.6876 C   0  0  0  0  0  0  0  0  0  0  0  0
   16.3664   26.3956   -3.0943 C   0  0  0  0  0  0  0  0  0  0  0  0
   15.7357   25.3405   -2.4029 C   0  0  0  0  0  0  0  0  0  0  0  0
   14.7486   24.5694   -2.9600 C   0  0  0  0  0  0  0  0  0  0  0  0
   14.4151   24.9202   -4.2863 C   0  0  0  0  0  0  0  0  0  0  0  0
   14.9952   25.9251   -4.9858 C   0  0  0  0  0  0  0  0  0  0  0  0
   15.9804   26.6702   -4.3847 C   0  0  0  0  0  0  0  0  0  0  0  0
   18.2991   27.8507   -3.2535 C   0  0  0  0  0  0  0  0  0  0  0  0
   17.3511   27.1314   -2.4769 O   0  0  0  0  0  0  0  0  0  0  0  0
   14.6086   26.2128   -6.3014 O   0  0  0  0  0  0  0  0  0  0  0  0
   15.4170   25.7614   -7.3672 C   0  0  0  0  0  0  0  0  0  0  0  0
   16.5504   27.6898   -5.1329 O   0  0  0  0  0  0  0  0  0  0  0  0
   15.8946   28.9013   -5.4229 C   0  0  0  0  0  0  0  0  0  0  0  0
 26 27  1  0  0  0
 27 20  1  0  0  0
 20 21  2  0  0  0
 21 22  1  0  0  0
 22 23  2  0  0  0
 23 24  1  0  0  0
 24 28  1  0  0  0
 28 29  1  0  0  0
 24 25  2  0  0  0
 25 30  1  0  0  0
 30 31  1  0  0  0
 22  1  1  0  0  0
  1  2  2  0  0  0
  1  3  1  0  0  0
  3  4  1  0  0  0
  4  5  1  0  0  0
  5  6  1  0  0  0
  6  7  1  0  0  0
  7  8  1  0  0  0
  6  9  1  0  0  0
  9 10  1  0  0  0
 10 11  2  0  0  0
 10 12  1  0  0  0
 12 13  1  0  0  0
 13 14  1  0  0  0
 14 15  2  0  0  0
 15 16  1  0  0  0
 16 17  2  0  0  0
 17 18  1  0  0  0
 18 19  2  0  0  0
 25 20  1  0  0  0
  8  3  1  0  0  0
 19  9  1  0  0  0
 19 14  1  0  0  0
M  END
> <minimizedAffinity>
-8.42311

> <CNNscore>
0.3974656463

> <CNNaffinity>
6.8223848343

> <CNN_VS>
2.7116634846

> <CNNaffinity_variance>
0.0586940832

$$$$
[H]c1c([H])c([H])c2c(c1[H])OC([H])([H])C(=O)N2C1([H])C([H])([H])C([H])([H])N(C(=O)c2c([H])c(OC([H])([H])[H])c(OC([H])([H])[H])c(OC([H])([H])[H])c2[H])C([H])([H])C1([H])[H]


 31 34  0  0  0  0  0  0  0  0999 V2000
   14.9629   23.6692   -1.3401 C   0  0  0  0  0  0  0  0  0  0  0  0
   15.9218   24.0201   -0.5017 O   0  0  0  0  0  0  0  0  0  0  0  0
   14.1684   22.6507   -0.8237 N   0  0  0  0  0  0  0  0  0  0  0  0
   14.4941   22.1170    0.5140 C   0  0  0  0  0  0  0  0  0  0  0  0
   13.3260   22.3494    1.4377 C   0  0  0  0  0  0  0  0  0  0  0  0
   11.9984   22.0397    0.7255 C   0  0  0  0  0  0  0  0  0  0  0  0
   12.3758   21.1214   -0.4096 C   0  0  0  0  0  0  0  0  0  0  0  0
   13.0461   22.0548   -1.4497 C   0  0  0  0  0  0  0  0  0  0  0  0
   11.1331   21.4878    1.6944 N   0  0  0  0  0  0  0  0  0  0  0  0
   11.5948   20.6043    2.7275 C   0  0  0  0  0  0  0  0  0  0  0  0
   12.6486   19.9924    2.5638 O   0  0  0  0  0  0  0  0  0  0  0  0
   10.7855   20.4564    3.9621 C   0  0  0  0  0  0  0  0  0  0  0  0
    9.4184   20.4070    3.5962 O   0  0  0  0  0  0  0  0  0  0  0  0
    8.8978   21.2451    2.6391 C   0  0  0  0  0  0  0  0  0  0  0  0
    7.5344   21.5487    2.6209 C   0  0  0  0  0  0  0  0  0  0  0  0
    6.9854   22.3702    1.6936 C   0  0  0  0  0  0  0  0  0  0  0  0
    7.7799   22.9237    0.7432 C   0  0  0  0  0  0  0  0  0  0  0  0
    9.1431   22.6311    0.7468 C   0  0  0  0  0  0  0  0  0  0  0  0
    9.7351   21.7967    1.6791 C   0  0  0  0  0  0  0  0  0  0  0  0
   15.3872   24.7893   -4.9474 C   0  0  0  0  0  0  0  0  0  0  0  0
   15.4871   24.0102   -3.7760 C   0  0  0  0  0  0  0  0  0  0  0  0
   14.9313   24.3871   -2.5808 C   0  0  0  0  0  0  0  0  0  0  0  0
   14.2494   25.6228   -2.6201 C   0  0  0  0  0  0  0  0  0  0  0  0
   14.1301   26.4014   -3.7225 C   0  0  0  0  0  0  0  0  0  0  0  0
   14.7042   25.9812   -4.8977 C   0  0  0  0  0  0  0  0  0  0  0  0
   15.7055   25.0260   -7.3392 C   0  0  0  0  0  0  0  0  0  0  0  0
   15.9682   24.3532   -6.1155 O   0  0  0  0  0  0  0  0  0  0  0  0
   13.4361   27.6179   -3.6819 O   0  0  0  0  0  0  0  0  0  0  0  0
   12.0991   27.6591   -4.1332 C   0  0  0  0  0  0  0  0  0  0  0  0
   14.5603   26.8053   -6.0042 O   0  0  0  0  0  0  0  0  0  0  0  0
   15.4763   27.8193   -6.3427 C   0  0  0  0  0  0  0  0  0  0  0  0
 26 27  1  0  0  0
 27 20  1  0  0  0
 20 21  2  0  0  0
 21 22  1  0  0  0
 22 23  2  0  0  0
 23 24  1  0  0  0
 24 28  1  0  0  0
 28 29  1  0  0  0
 24 25  2  0  0  0
 25 30  1  0  0  0
 30 31  1  0  0  0
 22  1  1  0  0  0
  1  2  2  0  0  0
  1  3  1  0  0  0
  3  4  1  0  0  0
  4  5  1  0  0  0
  5  6  1  0  0  0
  6  7  1  0  0  0
  7  8  1  0  0  0
  6  9  1  0  0  0
  9 10  1  0  0  0
 10 11  2  0  0  0
 10 12  1  0  0  0
 12 13  1  0  0  0
 13 14  1  0  0  0
 14 15  2  0  0  0
 15 16  1  0  0  0
 16 17  2  0  0  0
 17 18  1  0  0  0
 18 19  2  0  0  0
 25 20  1  0  0  0
  8  3  1  0  0  0
 19  9  1  0  0  0
 19 14  1  0  0  0
M  END
> <minimizedAffinity>
-4.28539

> <CNNscore>
0.3963309228

> <CNNaffinity>
6.7717537880

> <CNN_VS>
2.6838555336

> <CNNaffinity_variance>
0.3764768541

$$$$
[H]c1c([H])c([H])c2c(c1[H])OC([H])([H])C(=O)N2C1([H])C([H])([H])C([H])([H])N(C(=O)c2c([H])c(OC([H])([H])[H])c(OC([H])([H])[H])c(OC([H])([H])[H])c2[H])C([H])([H])C1([H])[H]


 31 34  0  0  0  0  0  0  0  0999 V2000
   13.2570   25.9503   -2.3517 C   0  0  0  0  0  0  0  0  0  0  0  0
   12.1430   26.6441   -2.5035 O   0  0  0  0  0  0  0  0  0  0  0  0
   13.2818   25.2659   -1.1407 N   0  0  0  0  0  0  0  0  0  0  0  0
   12.1285   25.4101   -0.2300 C   0  0  0  0  0  0  0  0  0  0  0  0
   11.4950   24.0594   -0.0155 C   0  0  0  0  0  0  0  0  0  0  0  0
   12.5712   22.9778    0.1791 C   0  0  0  0  0  0  0  0  0  0  0  0
   13.7997   23.7326    0.6211 C   0  0  0  0  0  0  0  0  0  0  0  0
   14.3137   24.4166   -0.6712 C   0  0  0  0  0  0  0  0  0  0  0  0
   12.0565   22.0513    1.1111 N   0  0  0  0  0  0  0  0  0  0  0  0
   12.4669   20.6759    1.1390 C   0  0  0  0  0  0  0  0  0  0  0  0
   12.9551   20.1771    0.1268 O   0  0  0  0  0  0  0  0  0  0  0  0
   12.2892   19.8976    2.3896 C   0  0  0  0  0  0  0  0  0  0  0  0
   11.0345   20.2366    2.9516 O   0  0  0  0  0  0  0  0  0  0  0  0
   10.5898   21.5366    2.9905 C   0  0  0  0  0  0  0  0  0  0  0  0
    9.6431   21.9396    3.9353 C   0  0  0  0  0  0  0  0  0  0  0  0
    9.1813   23.2117    4.0041 C   0  0  0  0  0  0  0  0  0  0  0  0
    9.6489   24.1361    3.1279 C   0  0  0  0  0  0  0  0  0  0  0  0
   10.5942   23.7507    2.1782 C   0  0  0  0  0  0  0  0  0  0  0  0
   11.0861   22.4606    2.0812 C   0  0  0  0  0  0  0  0  0  0  0  0
   15.0720   25.6127   -5.6741 C   0  0  0  0  0  0  0  0  0  0  0  0
   14.0940   25.4534   -4.6705 C   0  0  0  0  0  0  0  0  0  0  0  0
   14.1933   26.0369   -3.4340 C   0  0  0  0  0  0  0  0  0  0  0  0
   15.3587   26.8120   -3.2483 C   0  0  0  0  0  0  0  0  0  0  0  0
   16.3217   26.9907   -4.1845 C   0  0  0  0  0  0  0  0  0  0  0  0
   16.1775   26.3855   -5.4094 C   0  0  0  0  0  0  0  0  0  0  0  0
   14.4185   25.7362   -8.0056 C   0  0  0  0  0  0  0  0  0  0  0  0
   14.9114   24.9995   -6.8950 O   0  0  0  0  0  0  0  0  0  0  0  0
   17.4521   27.7764   -3.9242 O   0  0  0  0  0  0  0  0  0  0  0  0
   17.2757   29.0960   -3.4545 C   0  0  0  0  0  0  0  0  0  0  0  0
   17.1839   26.5923   -6.3415 O   0  0  0  0  0  0  0  0  0  0  0  0
   16.9487   27.0581   -7.6490 C   0  0  0  0  0  0  0  0  0  0  0  0
 26 27  1  0  0  0
 27 20  1  0  0  0
 20 21  2  0  0  0
 21 22  1  0  0  0
 22 23  2  0  0  0
 23 24  1  0  0  0
 24 28  1  0  0  0
 28 29  1  0  0  0
 24 25  2  0  0  0
 25 30  1  0  0  0
 30 31  1  0  0  0
 22  1  1  0  0  0
  1  2  2  0  0  0
  1  3  1  0  0  0
  3  4  1  0  0  0
  4  5  1  0  0  0
  5  6  1  0  0  0
  6  7  1  0  0  0
  7  8  1  0  0  0
  6  9  1  0  0  0
  9 10  1  0  0  0
 10 11  2  0  0  0
 10 12  1  0  0  0
 12 13  1  0  0  0
 13 14  1  0  0  0
 14 15  2  0  0  0
 15 16  1  0  0  0
 16 17  2  0  0  0
 17 18  1  0  0  0
 18 19  2  0  0  0
 25 20  1  0  0  0
  8  3  1  0  0  0
 19  9  1  0  0  0
 19 14  1  0  0  0
M  END
> <minimizedAffinity>
1.22542

> <CNNscore>
0.3885314763

> <CNNaffinity>
6.6021332741

> <CNN_VS>
2.5651366711

> <CNNaffinity_variance>
0.7423798442

$$$$
[H]c1c([H])c([H])c(C2(C(=O)N3C([H])([H])C([H])([H])C([H])([H])C([H])([H])C3([H])[H])C([H])([H])C([H])([H])N(C([H])([H])C([H])([H])[C@@]3(c4c([H])c([H])c(F)c([H])c4[H])C([H])([H])N(C(=O)c4c([H])c(OC([H])([H])[H])c(OC([H])([H])[H])c(OC([H])([H])[H])c4[H])C([H])([H])C3([H])[H])C([H])([H])C2([H])[H])c([H])c1[H]


 48 53  0  0  0  0  0  0  0  0999 V2000
   11.3724   23.9378   -1.3888 C   0  0  0  0  0  0  0  0  0  0  0  0
   12.0593   22.8239   -1.4819 O   0  0  0  0  0  0  0  0  0  0  0  0
   11.7672   24.9848   -2.2190 N   0  0  0  0  0  0  0  0  0  0  0  0
   11.3502   26.3381   -2.4159 C   0  0  0  0  0  0  0  0  0  0  0  0
   12.4320   27.0272   -3.2327 C   0  0  0  0  0  0  0  0  0  0  0  0
   13.5589   26.0604   -3.1986 C   0  0  0  0  0  0  0  0  0  0  0  0
   12.8608   24.7256   -3.2189 C   0  0  0  0  0  0  0  0  0  0  0  0
   14.3766   26.1079   -4.4419 C   0  0  0  0  0  0  0  0  0  0  0  0
   14.6393   27.2333   -5.1710 C   0  0  0  0  0  0  0  0  0  0  0  0
   15.3957   27.1825   -6.3367 C   0  0  0  0  0  0  0  0  0  0  0  0
   15.8963   25.9778   -6.7783 C   0  0  0  0  0  0  0  0  0  0  0  0
   16.6446   25.9104   -7.9307 F   0  0  0  0  0  0  0  0  0  0  0  0
   15.6432   24.8416   -6.0626 C   0  0  0  0  0  0  0  0  0  0  0  0
   14.8872   24.9094   -4.9013 C   0  0  0  0  0  0  0  0  0  0  0  0
    9.4888   24.7603    1.6743 C   0  0  0  0  0  0  0  0  0  0  0  0
   10.4430   24.7477    0.6902 C   0  0  0  0  0  0  0  0  0  0  0  0
   10.3022   23.9204   -0.4404 C   0  0  0  0  0  0  0  0  0  0  0  0
    9.1844   23.1386   -0.5155 C   0  0  0  0  0  0  0  0  0  0  0  0
    8.2208   23.1609    0.4936 C   0  0  0  0  0  0  0  0  0  0  0  0
    8.3723   23.9732    1.5918 C   0  0  0  0  0  0  0  0  0  0  0  0
    8.7273   26.5273    3.2245 C   0  0  0  0  0  0  0  0  0  0  0  0
    9.6777   25.6037    2.7784 O   0  0  0  0  0  0  0  0  0  0  0  0
    7.1209   22.3431    0.3422 O   0  0  0  0  0  0  0  0  0  0  0  0
    7.0117   21.0896   -0.2213 C   0  0  0  0  0  0  0  0  0  0  0  0
    7.4095   23.9812    2.5795 O   0  0  0  0  0  0  0  0  0  0  0  0
    7.5373   23.0025    3.6137 C   0  0  0  0  0  0  0  0  0  0  0  0
   14.3393   26.1420   -1.9277 C   0  0  0  0  0  0  0  0  0  0  0  0
   15.8155   26.1965   -2.0327 C   0  0  0  0  0  0  0  0  0  0  0  0
   16.4669   25.1920   -1.2264 N   0  0  0  0  0  0  0  0  0  0  0  0
   15.9566   25.1331    0.1406 C   0  0  0  0  0  0  0  0  0  0  0  0
   16.1181   23.7049    0.6873 C   0  0  0  0  0  0  0  0  0  0  0  0
   14.9436   22.8961    0.0905 C   0  0  0  0  0  0  0  0  0  0  0  0
   14.8078   23.4443   -1.3159 C   0  0  0  0  0  0  0  0  0  0  0  0
   16.1535   23.8712   -1.8048 C   0  0  0  0  0  0  0  0  0  0  0  0
   13.7720   23.2435    0.9273 C   0  0  0  0  0  0  0  0  0  0  0  0
   13.5265   24.4988    1.1594 O   0  0  0  0  0  0  0  0  0  0  0  0
   12.8534   22.3433    1.5254 N   0  0  0  0  0  0  0  0  0  0  0  0
   11.8114   22.9486    2.3371 C   0  0  0  0  0  0  0  0  0  0  0  0
   11.0421   22.0587    3.2195 C   0  0  0  0  0  0  0  0  0  0  0  0
   11.7302   20.7641    3.4596 C   0  0  0  0  0  0  0  0  0  0  0  0
   12.0816   20.0851    2.1788 C   0  0  0  0  0  0  0  0  0  0  0  0
   12.9628   20.9393    1.2906 C   0  0  0  0  0  0  0  0  0  0  0  0
   15.3101   21.4859    0.1212 C   0  0  0  0  0  0  0  0  0  0  0  0
   16.2498   21.1170    1.0907 C   0  0  0  0  0  0  0  0  0  0  0  0
   16.6521   19.8072    1.1693 C   0  0  0  0  0  0  0  0  0  0  0  0
   16.1631   18.8222    0.3225 C   0  0  0  0  0  0  0  0  0  0  0  0
   15.2390   19.1977   -0.6270 C   0  0  0  0  0  0  0  0  0  0  0  0
   14.8240   20.5082   -0.7211 C   0  0  0  0  0  0  0  0  0  0  0  0
 21 22  1  0  0  0
 22 15  1  0  0  0
 15 16  2  0  0  0
 16 17  1  0  0  0
 17 18  2  0  0  0
 18 19  1  0  0  0
 19 23  1  0  0  0
 23 24  1  0  0  0
 19 20  2  0  0  0
 20 25  1  0  0  0
 25 26  1  0  0  0
 17  1  1  0  0  0
  1  2  2  0  0  0
  1  3  1  0  0  0
  3  4  1  0  0  0
  4  5  1  0  0  0
  5  6  1  0  0  0
  6 27  1  0  0  0
 27 28  1  0  0  0
 28 29  1  0  0  0
 29 30  1  0  0  0
 30 31  1  0  0  0
 31 32  1  0  0  0
 32 33  1  0  0  0
 33 34  1  0  0  0
 32 35  1  0  0  0
 35 36  2  0  0  0
 35 37  1  0  0  0
 37 38  1  0  0  0
 38 39  1  0  0  0
 39 40  1  0  0  0
 40 41  1  0  0  0
 41 42  1  0  0  0
 32 43  1  0  0  0
 43 44  2  0  0  0
 44 45  1  0  0  0
 45 46  2  0  0  0
 46 47  1  0  0  0
 47 48  2  0  0  0
  6  7  1  0  0  0
  6  8  1  0  0  0
  8  9  2  0  0  0
  9 10  1  0  0  0
 10 11  2  0  0  0
 11 12  1  0  0  0
 11 13  1  0  0  0
 13 14  2  0  0  0
 20 15  1  0  0  0
  7  3  1  0  0  0
 14  8  1  0  0  0
 34 29  1  0  0  0
 42 37  1  0  0  0
 48 43  1  0  0  0
M  END
> <minimizedAffinity>
6.95430

> <CNNscore>
0.5448073745

> <CNNaffinity>
8.3610696793

> <CNN_VS>
4.5551724434

> <CNNaffinity_variance>
0.4269155860

$$$$
[H]c1c([H])c([H])c(C2(C(=O)N3C([H])([H])C([H])([H])C([H])([H])C([H])([H])C3([H])[H])C([H])([H])C([H])([H])N(C([H])([H])C([H])([H])[C@@]3(c4c([H])c([H])c(F)c([H])c4[H])C([H])([H])N(C(=O)c4c([H])c(OC([H])([H])[H])c(OC([H])([H])[H])c(OC([H])([H])[H])c4[H])C([H])([H])C3([H])[H])C([H])([H])C2([H])[H])c([H])c1[H]


 48 53  0  0  0  0  0  0  0  0999 V2000
   14.1828   23.8132    0.3101 C   0  0  0  0  0  0  0  0  0  0  0  0
   14.2705   24.9157    1.0159 O   0  0  0  0  0  0  0  0  0  0  0  0
   14.4478   23.9232   -1.0533 N   0  0  0  0  0  0  0  0  0  0  0  0
   14.4305   23.0272   -2.1673 C   0  0  0  0  0  0  0  0  0  0  0  0
   14.4870   23.8762   -3.4277 C   0  0  0  0  0  0  0  0  0  0  0  0
   14.2372   25.2525   -2.9283 C   0  0  0  0  0  0  0  0  0  0  0  0
   14.9133   25.2523   -1.5822 C   0  0  0  0  0  0  0  0  0  0  0  0
   14.9478   26.2804   -3.7375 C   0  0  0  0  0  0  0  0  0  0  0  0
   16.0851   26.9360   -3.3578 C   0  0  0  0  0  0  0  0  0  0  0  0
   16.6710   27.9017   -4.1687 C   0  0  0  0  0  0  0  0  0  0  0  0
   16.1024   28.2152   -5.3834 C   0  0  0  0  0  0  0  0  0  0  0  0
   16.6685   29.1698   -6.1962 F   0  0  0  0  0  0  0  0  0  0  0  0
   14.9645   27.5706   -5.7795 C   0  0  0  0  0  0  0  0  0  0  0  0
   14.3927   26.6091   -4.9590 C   0  0  0  0  0  0  0  0  0  0  0  0
   14.2484   20.2857    1.3869 C   0  0  0  0  0  0  0  0  0  0  0  0
   14.5521   21.4679    0.7630 C   0  0  0  0  0  0  0  0  0  0  0  0
   13.8264   22.6406    1.0469 C   0  0  0  0  0  0  0  0  0  0  0  0
   12.8165   22.5520    1.9627 C   0  0  0  0  0  0  0  0  0  0  0  0
   12.5175   21.3420    2.5903 C   0  0  0  0  0  0  0  0  0  0  0  0
   13.2344   20.2053    2.3024 C   0  0  0  0  0  0  0  0  0  0  0  0
   16.0546   19.1441    0.1461 C   0  0  0  0  0  0  0  0  0  0  0  0
   15.0035   19.1480    1.0683 O   0  0  0  0  0  0  0  0  0  0  0  0
   11.4842   21.3363    3.5034 O   0  0  0  0  0  0  0  0  0  0  0  0
   11.4945   21.5572    4.8642 C   0  0  0  0  0  0  0  0  0  0  0  0
   12.9237   19.0182    2.9324 O   0  0  0  0  0  0  0  0  0  0  0  0
   11.5442   18.7846    3.2257 C   0  0  0  0  0  0  0  0  0  0  0  0
   12.7851   25.5205   -2.7037 C   0  0  0  0  0  0  0  0  0  0  0  0
   11.9263   24.3730   -2.3310 C   0  0  0  0  0  0  0  0  0  0  0  0
   10.7848   24.7675   -1.5407 N   0  0  0  0  0  0  0  0  0  0  0  0
    9.6458   23.8654   -1.6867 C   0  0  0  0  0  0  0  0  0  0  0  0
    8.8099   23.8816   -0.3960 C   0  0  0  0  0  0  0  0  0  0  0  0
    9.5590   22.9624    0.5959 C   0  0  0  0  0  0  0  0  0  0  0  0
   11.0209   23.2515    0.3197 C   0  0  0  0  0  0  0  0  0  0  0  0
   11.1627   24.6731   -0.1175 C   0  0  0  0  0  0  0  0  0  0  0  0
    9.1903   21.5844    0.1979 C   0  0  0  0  0  0  0  0  0  0  0  0
   10.1289   20.6878    0.1265 O   0  0  0  0  0  0  0  0  0  0  0  0
    7.8941   21.1071   -0.1247 N   0  0  0  0  0  0  0  0  0  0  0  0
    7.8147   19.7131   -0.5261 C   0  0  0  0  0  0  0  0  0  0  0  0
    6.5680   19.2655   -1.1647 C   0  0  0  0  0  0  0  0  0  0  0  0
    5.7580   20.3978   -1.6838 C   0  0  0  0  0  0  0  0  0  0  0  0
    5.4894   21.4106   -0.6221 C   0  0  0  0  0  0  0  0  0  0  0  0
    6.7607   21.9684   -0.0158 C   0  0  0  0  0  0  0  0  0  0  0  0
    9.1486   23.3311    1.9449 C   0  0  0  0  0  0  0  0  0  0  0  0
    9.5762   24.5854    2.3952 C   0  0  0  0  0  0  0  0  0  0  0  0
    9.2382   24.9935    3.6612 C   0  0  0  0  0  0  0  0  0  0  0  0
    8.4828   24.2105    4.5230 C   0  0  0  0  0  0  0  0  0  0  0  0
    8.0680   22.9785    4.0683 C   0  0  0  0  0  0  0  0  0  0  0  0
    8.3986   22.5519    2.8005 C   0  0  0  0  0  0  0  0  0  0  0  0
 21 22  1  0  0  0
 22 15  1  0  0  0
 15 16  2  0  0  0
 16 17  1  0  0  0
 17 18  2  0  0  0
 18 19  1  0  0  0
 19 23  1  0  0  0
 23 24  1  0  0  0
 19 20  2  0  0  0
 20 25  1  0  0  0
 25 26  1  0  0  0
 17  1  1  0  0  0
  1  2  2  0  0  0
  1  3  1  0  0  0
  3  4  1  0  0  0
  4  5  1  0  0  0
  5  6  1  0  0  0
  6 27  1  0  0  0
 27 28  1  0  0  0
 28 29  1  0  0  0
 29 30  1  0  0  0
 30 31  1  0  0  0
 31 32  1  0  0  0
 32 33  1  0  0  0
 33 34  1  0  0  0
 32 35  1  0  0  0
 35 36  2  0  0  0
 35 37  1  0  0  0
 37 38  1  0  0  0
 38 39  1  0  0  0
 39 40  1  0  0  0
 40 41  1  0  0  0
 41 42  1  0  0  0
 32 43  1  0  0  0
 43 44  2  0  0  0
 44 45  1  0  0  0
 45 46  2  0  0  0
 46 47  1  0  0  0
 47 48  2  0  0  0
  6  7  1  0  0  0
  6  8  1  0  0  0
  8  9  2  0  0  0
  9 10  1  0  0  0
 10 11  2  0  0  0
 11 12  1  0  0  0
 11 13  1  0  0  0
 13 14  2  0  0  0
 20 15  1  0  0  0
  7  3  1  0  0  0
 14  8  1  0  0  0
 34 29  1  0  0  0
 42 37  1  0  0  0
 48 43  1  0  0  0
M  END
> <minimizedAffinity>
0.83675

> <CNNscore>
0.5190687776

> <CNNaffinity>
8.0468120575

> <CNN_VS>
4.1768488884

> <CNNaffinity_variance>
0.3755433261

$$$$
[H]c1c([H])c([H])c(C2(C(=O)N3C([H])([H])C([H])([H])C([H])([H])C([H])([H])C3([H])[H])C([H])([H])C([H])([H])N(C([H])([H])C([H])([H])[C@@]3(c4c([H])c([H])c(F)c([H])c4[H])C([H])([H])N(C(=O)c4c([H])c(OC([H])([H])[H])c(OC([H])([H])[H])c(OC([H])([H])[H])c4[H])C([H])([H])C3([H])[H])C([H])([H])C2([H])[H])c([H])c1[H]


 48 53  0  0  0  0  0  0  0  0999 V2000
   11.9110   23.5300   -1.9130 C   0  0  0  0  0  0  0  0  0  0  0  0
   12.7871   22.5688   -2.0858 O   0  0  0  0  0  0  0  0  0  0  0  0
   12.1518   24.7223   -2.5924 N   0  0  0  0  0  0  0  0  0  0  0  0
   11.5118   25.9989   -2.6627 C   0  0  0  0  0  0  0  0  0  0  0  0
   12.4907   26.9564   -3.3240 C   0  0  0  0  0  0  0  0  0  0  0  0
   13.7678   26.1982   -3.3254 C   0  0  0  0  0  0  0  0  0  0  0  0
   13.3177   24.7769   -3.5414 C   0  0  0  0  0  0  0  0  0  0  0  0
   14.6192   26.5355   -4.4992 C   0  0  0  0  0  0  0  0  0  0  0  0
   15.2327   27.7383   -4.7094 C   0  0  0  0  0  0  0  0  0  0  0  0
   15.9934   27.9755   -5.8490 C   0  0  0  0  0  0  0  0  0  0  0  0
   16.1391   26.9856   -6.7954 C   0  0  0  0  0  0  0  0  0  0  0  0
   16.8865   27.2052   -7.9293 F   0  0  0  0  0  0  0  0  0  0  0  0
   15.5322   25.7765   -6.6027 C   0  0  0  0  0  0  0  0  0  0  0  0
   14.7771   25.5557   -5.4600 C   0  0  0  0  0  0  0  0  0  0  0  0
    9.3406   21.4836   -0.2360 C   0  0  0  0  0  0  0  0  0  0  0  0
   10.4085   21.8692   -1.0041 C   0  0  0  0  0  0  0  0  0  0  0  0
   10.8192   23.2153   -1.0447 C   0  0  0  0  0  0  0  0  0  0  0  0
   10.1158   24.1130   -0.2925 C   0  0  0  0  0  0  0  0  0  0  0  0
    9.0303   23.7072    0.4848 C   0  0  0  0  0  0  0  0  0  0  0  0
    8.6407   22.3895    0.5139 C   0  0  0  0  0  0  0  0  0  0  0  0
    8.3664   19.4836   -1.3113 C   0  0  0  0  0  0  0  0  0  0  0  0
    8.9745   20.1301   -0.2307 O   0  0  0  0  0  0  0  0  0  0  0  0
    8.3736   24.6743    1.2163 O   0  0  0  0  0  0  0  0  0  0  0  0
    8.0714   24.7249    2.5604 C   0  0  0  0  0  0  0  0  0  0  0  0
    7.5647   22.0073    1.2878 O   0  0  0  0  0  0  0  0  0  0  0  0
    6.3589   21.6723    0.5968 C   0  0  0  0  0  0  0  0  0  0  0  0
   14.4637   26.2552   -2.0050 C   0  0  0  0  0  0  0  0  0  0  0  0
   15.9434   26.3160   -2.0127 C   0  0  0  0  0  0  0  0  0  0  0  0
   16.5433   25.3498   -1.1239 N   0  0  0  0  0  0  0  0  0  0  0  0
   15.9380   25.3385    0.2050 C   0  0  0  0  0  0  0  0  0  0  0  0
   16.0709   23.9341    0.8172 C   0  0  0  0  0  0  0  0  0  0  0  0
   14.9474   23.0912    0.1712 C   0  0  0  0  0  0  0  0  0  0  0  0
   14.9075   23.5835   -1.2617 C   0  0  0  0  0  0  0  0  0  0  0  0
   16.2813   24.0047   -1.6709 C   0  0  0  0  0  0  0  0  0  0  0  0
   13.7171   23.4588    0.9092 C   0  0  0  0  0  0  0  0  0  0  0  0
   13.4112   24.7177    1.0161 O   0  0  0  0  0  0  0  0  0  0  0  0
   12.8001   22.5748    1.5335 N   0  0  0  0  0  0  0  0  0  0  0  0
   11.6908   23.2025    2.2309 C   0  0  0  0  0  0  0  0  0  0  0  0
   10.9059   22.3596    3.1451 C   0  0  0  0  0  0  0  0  0  0  0  0
   11.6275   21.1210    3.5355 C   0  0  0  0  0  0  0  0  0  0  0  0
   12.0778   20.3501    2.3405 C   0  0  0  0  0  0  0  0  0  0  0  0
   12.9759   21.1618    1.4297 C   0  0  0  0  0  0  0  0  0  0  0  0
   15.3210   21.6869    0.2827 C   0  0  0  0  0  0  0  0  0  0  0  0
   14.7541   20.8241   -0.6624 C   0  0  0  0  0  0  0  0  0  0  0  0
   15.0509   19.4852   -0.6100 C   0  0  0  0  0  0  0  0  0  0  0  0
   15.8973   18.9434    0.3473 C   0  0  0  0  0  0  0  0  0  0  0  0
   16.4489   19.8025    1.2715 C   0  0  0  0  0  0  0  0  0  0  0  0
   16.1617   21.1496    1.2348 C   0  0  0  0  0  0  0  0  0  0  0  0
 21 22  1  0  0  0
 22 15  1  0  0  0
 15 16  2  0  0  0
 16 17  1  0  0  0
 17 18  2  0  0  0
 18 19  1  0  0  0
 19 23  1  0  0  0
 23 24  1  0  0  0
 19 20  2  0  0  0
 20 25  1  0  0  0
 25 26  1  0  0  0
 17  1  1  0  0  0
  1  2  2  0  0  0
  1  3  1  0  0  0
  3  4  1  0  0  0
  4  5  1  0  0  0
  5  6  1  0  0  0
  6 27  1  0  0  0
 27 28  1  0  0  0
 28 29  1  0  0  0
 29 30  1  0  0  0
 30 31  1  0  0  0
 31 32  1  0  0  0
 32 33  1  0  0  0
 33 34  1  0  0  0
 32 35  1  0  0  0
 35 36  2  0  0  0
 35 37  1  0  0  0
 37 38  1  0  0  0
 38 39  1  0  0  0
 39 40  1  0  0  0
 40 41  1  0  0  0
 41 42  1  0  0  0
 32 43  1  0  0  0
 43 44  2  0  0  0
 44 45  1  0  0  0
 45 46  2  0  0  0
 46 47  1  0  0  0
 47 48  2  0  0  0
  6  7  1  0  0  0
  6  8  1  0  0  0
  8  9  2  0  0  0
  9 10  1  0  0  0
 10 11  2  0  0  0
 11 12  1  0  0  0
 11 13  1  0  0  0
 13 14  2  0  0  0
 20 15  1  0  0  0
  7  3  1  0  0  0
 14  8  1  0  0  0
 34 29  1  0  0  0
 42 37  1  0  0  0
 48 43  1  0  0  0
M  END
> <minimizedAffinity>
4.69794

> <CNNscore>
0.5160096884

> <CNNaffinity>
8.3041133881

> <CNN_VS>
4.2850031853

> <CNNaffinity_variance>
0.3922443092

$$$$
[H]c1c([H])c([H])c(C2(C(=O)N3C([H])([H])C([H])([H])C([H])([H])C([H])([H])C3([H])[H])C([H])([H])C([H])([H])N(C([H])([H])C([H])([H])[C@@]3(c4c([H])c([H])c(F)c([H])c4[H])C([H])([H])N(C(=O)c4c([H])c(OC([H])([H])[H])c(OC([H])([H])[H])c(OC([H])([H])[H])c4[H])C([H])([H])C3([H])[H])C([H])([H])C2([H])[H])c([H])c1[H]


 48 53  0  0  0  0  0  0  0  0999 V2000
   10.8083   25.5361    1.8571 C   0  0  0  0  0  0  0  0  0  0  0  0
   11.5133   26.0320    2.8462 O   0  0  0  0  0  0  0  0  0  0  0  0
    9.4469   25.8325    1.8520 N   0  0  0  0  0  0  0  0  0  0  0  0
    8.3340   25.4832    1.0252 C   0  0  0  0  0  0  0  0  0  0  0  0
    7.0731   25.8673    1.7833 C   0  0  0  0  0  0  0  0  0  0  0  0
    7.5685   26.1569    3.1532 C   0  0  0  0  0  0  0  0  0  0  0  0
    8.9200   26.7727    2.9015 C   0  0  0  0  0  0  0  0  0  0  0  0
    6.7637   27.2109    3.8297 C   0  0  0  0  0  0  0  0  0  0  0  0
    6.6183   28.4966    3.3901 C   0  0  0  0  0  0  0  0  0  0  0  0
    5.8642   29.4250    4.0993 C   0  0  0  0  0  0  0  0  0  0  0  0
    5.2458   29.0545    5.2728 C   0  0  0  0  0  0  0  0  0  0  0  0
    4.4981   29.9617    5.9873 F   0  0  0  0  0  0  0  0  0  0  0  0
    5.3806   27.7733    5.7285 C   0  0  0  0  0  0  0  0  0  0  0  0
    6.1360   26.8589    5.0088 C   0  0  0  0  0  0  0  0  0  0  0  0
   12.7808   24.7690   -1.1642 C   0  0  0  0  0  0  0  0  0  0  0  0
   12.0996   25.4430   -0.1839 C   0  0  0  0  0  0  0  0  0  0  0  0
   11.5438   24.7550    0.9116 C   0  0  0  0  0  0  0  0  0  0  0  0
   11.7111   23.3999    0.9570 C   0  0  0  0  0  0  0  0  0  0  0  0
   12.4066   22.7260   -0.0478 C   0  0  0  0  0  0  0  0  0  0  0  0
   12.9431   23.4111   -1.1116 C   0  0  0  0  0  0  0  0  0  0  0  0
   12.5581   26.3373   -3.0604 C   0  0  0  0  0  0  0  0  0  0  0  0
   13.3155   25.5028   -2.2326 O   0  0  0  0  0  0  0  0  0  0  0  0
   12.5326   21.3581    0.0723 O   0  0  0  0  0  0  0  0  0  0  0  0
   13.6391   20.5480   -0.0696 C   0  0  0  0  0  0  0  0  0  0  0  0
   13.6266   22.7276   -2.0956 O   0  0  0  0  0  0  0  0  0  0  0  0
   14.8236   23.3332   -2.5897 C   0  0  0  0  0  0  0  0  0  0  0  0
    7.7810   24.9146    3.9549 C   0  0  0  0  0  0  0  0  0  0  0  0
    8.5010   23.7952    3.3055 C   0  0  0  0  0  0  0  0  0  0  0  0
    7.9141   23.4159    2.0426 N   0  0  0  0  0  0  0  0  0  0  0  0
    8.8751   22.8196    1.1188 C   0  0  0  0  0  0  0  0  0  0  0  0
    8.1471   21.8403    0.1828 C   0  0  0  0  0  0  0  0  0  0  0  0
    7.9567   20.5444    1.0040 C   0  0  0  0  0  0  0  0  0  0  0  0
    7.6483   21.0461    2.4006 C   0  0  0  0  0  0  0  0  0  0  0  0
    6.9267   22.3506    2.3018 C   0  0  0  0  0  0  0  0  0  0  0  0
    9.2671   19.8566    0.9480 C   0  0  0  0  0  0  0  0  0  0  0  0
    9.5411   19.1288   -0.0937 O   0  0  0  0  0  0  0  0  0  0  0  0
   10.2949   19.8976    1.9247 N   0  0  0  0  0  0  0  0  0  0  0  0
   11.4708   19.0930    1.6403 C   0  0  0  0  0  0  0  0  0  0  0  0
   12.4084   18.8548    2.7477 C   0  0  0  0  0  0  0  0  0  0  0  0
   11.7944   19.1107    4.0762 C   0  0  0  0  0  0  0  0  0  0  0  0
   11.2034   20.4781    4.1518 C   0  0  0  0  0  0  0  0  0  0  0  0
   10.1553   20.7183    3.0845 C   0  0  0  0  0  0  0  0  0  0  0  0
    6.8564   19.7958    0.4099 C   0  0  0  0  0  0  0  0  0  0  0  0
    6.5328   20.1252   -0.9114 C   0  0  0  0  0  0  0  0  0  0  0  0
    5.4983   19.4700   -1.5309 C   0  0  0  0  0  0  0  0  0  0  0  0
    4.7519   18.4846   -0.8997 C   0  0  0  0  0  0  0  0  0  0  0  0
    5.0801   18.1694    0.4001 C   0  0  0  0  0  0  0  0  0  0  0  0
    6.1151   18.8174    1.0383 C   0  0  0  0  0  0  0  0  0  0  0  0
 21 22  1  0  0  0
 22 15  1  0  0  0
 15 16  2  0  0  0
 16 17  1  0  0  0
 17 18  2  0  0  0
 18 19  1  0  0  0
 19 23  1  0  0  0
 23 24  1  0  0  0
 19 20  2  0  0  0
 20 25  1  0  0  0
 25 26  1  0  0  0
 17  1  1  0  0  0
  1  2  2  0  0  0
  1  3  1  0  0  0
  3  4  1  0  0  0
  4  5  1  0  0  0
  5  6  1  0  0  0
  6 27  1  0  0  0
 27 28  1  0  0  0
 28 29  1  0  0  0
 29 30  1  0  0  0
 30 31  1  0  0  0
 31 32  1  0  0  0
 32 33  1  0  0  0
 33 34  1  0  0  0
 32 35  1  0  0  0
 35 36  2  0  0  0
 35 37  1  0  0  0
 37 38  1  0  0  0
 38 39  1  0  0  0
 39 40  1  0  0  0
 40 41  1  0  0  0
 41 42  1  0  0  0
 32 43  1  0  0  0
 43 44  2  0  0  0
 44 45  1  0  0  0
 45 46  2  0  0  0
 46 47  1  0  0  0
 47 48  2  0  0  0
  6  7  1  0  0  0
  6  8  1  0  0  0
  8  9  2  0  0  0
  9 10  1  0  0  0
 10 11  2  0  0  0
 11 12  1  0  0  0
 11 13  1  0  0  0
 13 14  2  0  0  0
 20 15  1  0  0  0
  7  3  1  0  0  0
 14  8  1  0  0  0
 34 29  1  0  0  0
 42 37  1  0  0  0
 48 43  1  0  0  0
M  END
> <minimizedAffinity>
6.66771

> <CNNscore>
0.4394258261

> <CNNaffinity>
7.3034973145

> <CNN_VS>
3.2093453407

> <CNNaffinity_variance>
0.2131993473

$$$$
[H]c1c([H])c([H])c(C2(C(=O)N3C([H])([H])C([H])([H])C([H])([H])C([H])([H])C3([H])[H])C([H])([H])C([H])([H])N(C([H])([H])C([H])([H])[C@@]3(c4c([H])c([H])c(F)c([H])c4[H])C([H])([H])N(C(=O)c4c([H])c(OC([H])([H])[H])c(OC([H])([H])[H])c(OC([H])([H])[H])c4[H])C([H])([H])C3([H])[H])C([H])([H])C2([H])[H])c([H])c1[H]


 48 53  0  0  0  0  0  0  0  0999 V2000
   10.5493   22.4696   -1.8550 C   0  0  0  0  0  0  0  0  0  0  0  0
   11.3561   21.6146   -2.4377 O   0  0  0  0  0  0  0  0  0  0  0  0
   10.8189   23.8209   -2.0612 N   0  0  0  0  0  0  0  0  0  0  0  0
   10.2515   25.0514   -1.6050 C   0  0  0  0  0  0  0  0  0  0  0  0
   11.2439   26.1544   -1.9378 C   0  0  0  0  0  0  0  0  0  0  0  0
   12.4722   25.4108   -2.3172 C   0  0  0  0  0  0  0  0  0  0  0  0
   11.9280   24.1882   -3.0088 C   0  0  0  0  0  0  0  0  0  0  0  0
   13.2713   26.1342   -3.3442 C   0  0  0  0  0  0  0  0  0  0  0  0
   12.8645   27.2516   -4.0174 C   0  0  0  0  0  0  0  0  0  0  0  0
   13.6683   27.8511   -4.9808 C   0  0  0  0  0  0  0  0  0  0  0  0
   14.9035   27.3167   -5.2737 C   0  0  0  0  0  0  0  0  0  0  0  0
   15.7097   27.8966   -6.2257 F   0  0  0  0  0  0  0  0  0  0  0  0
   15.3267   26.1989   -4.6112 C   0  0  0  0  0  0  0  0  0  0  0  0
   14.5129   25.6132   -3.6524 C   0  0  0  0  0  0  0  0  0  0  0  0
    8.3400   21.8769    1.0388 C   0  0  0  0  0  0  0  0  0  0  0  0
    9.2974   22.4040    0.2114 C   0  0  0  0  0  0  0  0  0  0  0  0
    9.4941   21.8890   -1.0841 C   0  0  0  0  0  0  0  0  0  0  0  0
    8.6972   20.8519   -1.4790 C   0  0  0  0  0  0  0  0  0  0  0  0
    7.7265   20.3244   -0.6266 C   0  0  0  0  0  0  0  0  0  0  0  0
    7.5465   20.8372    0.6358 C   0  0  0  0  0  0  0  0  0  0  0  0
    7.0381   23.1083    2.7400 C   0  0  0  0  0  0  0  0  0  0  0  0
    8.1849   22.4281    2.3187 O   0  0  0  0  0  0  0  0  0  0  0  0
    6.9624   19.2790   -1.1008 O   0  0  0  0  0  0  0  0  0  0  0  0
    5.9498   19.2664   -2.0362 C   0  0  0  0  0  0  0  0  0  0  0  0
    6.5823   20.3023    1.4645 O   0  0  0  0  0  0  0  0  0  0  0  0
    6.2809   18.9154    1.2933 C   0  0  0  0  0  0  0  0  0  0  0  0
   13.2469   24.9484   -1.1268 C   0  0  0  0  0  0  0  0  0  0  0  0
   12.5354   24.8831    0.1703 C   0  0  0  0  0  0  0  0  0  0  0  0
   12.8898   23.7143    0.9397 N   0  0  0  0  0  0  0  0  0  0  0  0
   12.3498   22.4761    0.3849 C   0  0  0  0  0  0  0  0  0  0  0  0
   13.2744   21.3035    0.7522 C   0  0  0  0  0  0  0  0  0  0  0  0
   14.4520   21.3740   -0.2470 C   0  0  0  0  0  0  0  0  0  0  0  0
   14.6990   22.8608   -0.4068 C   0  0  0  0  0  0  0  0  0  0  0  0
   14.3548   23.5525    0.8719 C   0  0  0  0  0  0  0  0  0  0  0  0
   13.9344   20.7692   -1.4959 C   0  0  0  0  0  0  0  0  0  0  0  0
   13.1398   19.7444   -1.4053 O   0  0  0  0  0  0  0  0  0  0  0  0
   14.2082   21.1867   -2.8236 N   0  0  0  0  0  0  0  0  0  0  0  0
   13.6027   20.3884   -3.8757 C   0  0  0  0  0  0  0  0  0  0  0  0
   14.1050   20.5838   -5.2438 C   0  0  0  0  0  0  0  0  0  0  0  0
   15.4343   21.2470   -5.2710 C   0  0  0  0  0  0  0  0  0  0  0  0
   15.4214   22.5301   -4.5104 C   0  0  0  0  0  0  0  0  0  0  0  0
   15.0070   22.3451   -3.0651 C   0  0  0  0  0  0  0  0  0  0  0  0
   15.5820   20.6673    0.3426 C   0  0  0  0  0  0  0  0  0  0  0  0
   16.8310   20.9133   -0.2393 C   0  0  0  0  0  0  0  0  0  0  0  0
   17.9386   20.2719    0.2558 C   0  0  0  0  0  0  0  0  0  0  0  0
   17.8750   19.3821    1.3192 C   0  0  0  0  0  0  0  0  0  0  0  0
   16.6406   19.1484    1.8832 C   0  0  0  0  0  0  0  0  0  0  0  0
   15.5175   19.7828    1.3987 C   0  0  0  0  0  0  0  0  0  0  0  0
 21 22  1  0  0  0
 22 15  1  0  0  0
 15 16  2  0  0  0
 16 17  1  0  0  0
 17 18  2  0  0  0
 18 19  1  0  0  0
 19 23  1  0  0  0
 23 24  1  0  0  0
 19 20  2  0  0  0
 20 25  1  0  0  0
 25 26  1  0  0  0
 17  1  1  0  0  0
  1  2  2  0  0  0
  1  3  1  0  0  0
  3  4  1  0  0  0
  4  5  1  0  0  0
  5  6  1  0  0  0
  6 27  1  0  0  0
 27 28  1  0  0  0
 28 29  1  0  0  0
 29 30  1  0  0  0
 30 31  1  0  0  0
 31 32  1  0  0  0
 32 33  1  0  0  0
 33 34  1  0  0  0
 32 35  1  0  0  0
 35 36  2  0  0  0
 35 37  1  0  0  0
 37 38  1  0  0  0
 38 39  1  0  0  0
 39 40  1  0  0  0
 40 41  1  0  0  0
 41 42  1  0  0  0
 32 43  1  0  0  0
 43 44  2  0  0  0
 44 45  1  0  0  0
 45 46  2  0  0  0
 46 47  1  0  0  0
 47 48  2  0  0  0
  6  7  1  0  0  0
  6  8  1  0  0  0
  8  9  2  0  0  0
  9 10  1  0  0  0
 10 11  2  0  0  0
 11 12  1  0  0  0
 11 13  1  0  0  0
 13 14  2  0  0  0
 20 15  1  0  0  0
  7  3  1  0  0  0
 14  8  1  0  0  0
 34 29  1  0  0  0
 42 37  1  0  0  0
 48 43  1  0  0  0
M  END
> <minimizedAffinity>
28.44257

> <CNNscore>
0.4316843450

> <CNNaffinity>
7.9865837097

> <CNN_VS>
3.4476830959

> <CNNaffinity_variance>
0.5039962530

$$$$
[H]c1c([H])c([H])c(C2(C(=O)N3C([H])([H])C([H])([H])C([H])([H])C([H])([H])C3([H])[H])C([H])([H])C([H])([H])N(C([H])([H])C([H])([H])[C@@]3(c4c([H])c([H])c(F)c([H])c4[H])C([H])([H])N(C(=O)c4c([H])c(OC([H])([H])[H])c(OC([H])([H])[H])c(OC([H])([H])[H])c4[H])C([H])([H])C3([H])[H])C([H])([H])C2([H])[H])c([H])c1[H]


 48 53  0  0  0  0  0  0  0  0999 V2000
   13.0848   25.3441   -2.8455 C   0  0  0  0  0  0  0  0  0  0  0  0
   11.9265   25.9567   -2.7786 O   0  0  0  0  0  0  0  0  0  0  0  0
   13.1090   24.0109   -2.4415 N   0  0  0  0  0  0  0  0  0  0  0  0
   14.1185   23.0067   -2.3115 C   0  0  0  0  0  0  0  0  0  0  0  0
   13.5231   21.8752   -1.4883 C   0  0  0  0  0  0  0  0  0  0  0  0
   12.2692   22.4621   -0.9507 C   0  0  0  0  0  0  0  0  0  0  0  0
   11.8062   23.3564   -2.0709 C   0  0  0  0  0  0  0  0  0  0  0  0
   11.1996   21.4405   -0.7806 C   0  0  0  0  0  0  0  0  0  0  0  0
   10.0146   21.4180   -1.4609 C   0  0  0  0  0  0  0  0  0  0  0  0
    9.0592   20.4365   -1.2215 C   0  0  0  0  0  0  0  0  0  0  0  0
    9.2987   19.4603   -0.2800 C   0  0  0  0  0  0  0  0  0  0  0  0
    8.3627   18.4836   -0.0298 F   0  0  0  0  0  0  0  0  0  0  0  0
   10.4777   19.4672    0.4109 C   0  0  0  0  0  0  0  0  0  0  0  0
   11.4209   20.4532    0.1597 C   0  0  0  0  0  0  0  0  0  0  0  0
   15.4480   26.8100   -5.2690 C   0  0  0  0  0  0  0  0  0  0  0  0
   14.4006   26.1167   -4.7199 C   0  0  0  0  0  0  0  0  0  0  0  0
   14.1707   26.1378   -3.3310 C   0  0  0  0  0  0  0  0  0  0  0  0
   15.0269   26.8723   -2.5604 C   0  0  0  0  0  0  0  0  0  0  0  0
   16.0895   27.5732   -3.1322 C   0  0  0  0  0  0  0  0  0  0  0  0
   16.3017   27.5426   -4.4897 C   0  0  0  0  0  0  0  0  0  0  0  0
   14.8773   25.9445   -7.5119 C   0  0  0  0  0  0  0  0  0  0  0  0
   15.6309   26.7560   -6.6581 O   0  0  0  0  0  0  0  0  0  0  0  0
   16.9076   28.2916   -2.2859 O   0  0  0  0  0  0  0  0  0  0  0  0
   18.2671   28.2064   -2.0737 C   0  0  0  0  0  0  0  0  0  0  0  0
   17.3579   28.2412   -5.0367 O   0  0  0  0  0  0  0  0  0  0  0  0
   18.6380   27.6056   -5.0051 C   0  0  0  0  0  0  0  0  0  0  0  0
   12.5123   23.3247    0.2442 C   0  0  0  0  0  0  0  0  0  0  0  0
   11.6185   23.1460    1.4113 C   0  0  0  0  0  0  0  0  0  0  0  0
   10.5044   24.0637    1.4030 N   0  0  0  0  0  0  0  0  0  0  0  0
    9.2469   23.4368    1.0054 C   0  0  0  0  0  0  0  0  0  0  0  0
    8.0729   24.1760    1.6690 C   0  0  0  0  0  0  0  0  0  0  0  0
    8.0136   23.6443    3.1194 C   0  0  0  0  0  0  0  0  0  0  0  0
    9.4711   23.4850    3.5035 C   0  0  0  0  0  0  0  0  0  0  0  0
   10.2795   24.5182    2.7887 C   0  0  0  0  0  0  0  0  0  0  0  0
    7.3284   22.3350    3.0221 C   0  0  0  0  0  0  0  0  0  0  0  0
    6.4463   22.1653    2.0824 O   0  0  0  0  0  0  0  0  0  0  0  0
    7.5247   21.2049    3.8566 N   0  0  0  0  0  0  0  0  0  0  0  0
    6.6879   20.0526    3.5689 C   0  0  0  0  0  0  0  0  0  0  0  0
    6.6289   18.9918    4.5855 C   0  0  0  0  0  0  0  0  0  0  0  0
    7.0893   19.4575    5.9191 C   0  0  0  0  0  0  0  0  0  0  0  0
    8.4504   20.0636    5.8473 C   0  0  0  0  0  0  0  0  0  0  0  0
    8.5174   21.2296    4.8824 C   0  0  0  0  0  0  0  0  0  0  0  0
    7.3139   24.6328    3.9301 C   0  0  0  0  0  0  0  0  0  0  0  0
    7.1710   25.9034    3.3608 C   0  0  0  0  0  0  0  0  0  0  0  0
    6.5340   26.8887    4.0728 C   0  0  0  0  0  0  0  0  0  0  0  0
    6.0190   26.6788    5.3445 C   0  0  0  0  0  0  0  0  0  0  0  0
    6.1657   25.4245    5.8938 C   0  0  0  0  0  0  0  0  0  0  0  0
    6.8032   24.4233    5.1939 C   0  0  0  0  0  0  0  0  0  0  0  0
 21 22  1  0  0  0
 22 15  1  0  0  0
 15 16  2  0  0  0
 16 17  1  0  0  0
 17 18  2  0  0  0
 18 19  1  0  0  0
 19 23  1  0  0  0
 23 24  1  0  0  0
 19 20  2  0  0  0
 20 25  1  0  0  0
 25 26  1  0  0  0
 17  1  1  0  0  0
  1  2  2  0  0  0
  1  3  1  0  0  0
  3  4  1  0  0  0
  4  5  1  0  0  0
  5  6  1  0  0  0
  6 27  1  0  0  0
 27 28  1  0  0  0
 28 29  1  0  0  0
 29 30  1  0  0  0
 30 31  1  0  0  0
 31 32  1  0  0  0
 32 33  1  0  0  0
 33 34  1  0  0  0
 32 35  1  0  0  0
 35 36  2  0  0  0
 35 37  1  0  0  0
 37 38  1  0  0  0
 38 39  1  0  0  0
 39 40  1  0  0  0
 40 41  1  0  0  0
 41 42  1  0  0  0
 32 43  1  0  0  0
 43 44  2  0  0  0
 44 45  1  0  0  0
 45 46  2  0  0  0
 46 47  1  0  0  0
 47 48  2  0  0  0
  6  7  1  0  0  0
  6  8  1  0  0  0
  8  9  2  0  0  0
  9 10  1  0  0  0
 10 11  2  0  0  0
 11 12  1  0  0  0
 11 13  1  0  0  0
 13 14  2  0  0  0
 20 15  1  0  0  0
  7  3  1  0  0  0
 14  8  1  0  0  0
 34 29  1  0  0  0
 42 37  1  0  0  0
 48 43  1  0  0  0
M  END
> <minimizedAffinity>
2.72689

> <CNNscore>
0.3908752203

> <CNNaffinity>
7.5378160477

> <CNN_VS>
2.9463455677

> <CNNaffinity_variance>
0.0242379755

$$$$
[H]c1c([H])c([H])c(C2(C(=O)N3C([H])([H])C([H])([H])C([H])([H])C([H])([H])C3([H])[H])C([H])([H])C([H])([H])N(C([H])([H])C([H])([H])[C@@]3(c4c([H])c([H])c(F)c([H])c4[H])C([H])([H])N(C(=O)c4c([H])c(OC([H])([H])[H])c(OC([H])([H])[H])c(OC([H])([H])[H])c4[H])C([H])([H])C3([H])[H])C([H])([H])C2([H])[H])c([H])c1[H]


 48 53  0  0  0  0  0  0  0  0999 V2000
   12.6408   23.6035   -1.6793 C   0  0  0  0  0  0  0  0  0  0  0  0
   11.3356   23.7355   -1.6562 O   0  0  0  0  0  0  0  0  0  0  0  0
   13.1923   22.7027   -0.7707 N   0  0  0  0  0  0  0  0  0  0  0  0
   14.5169   22.2879   -0.4279 C   0  0  0  0  0  0  0  0  0  0  0  0
   14.4240   21.5289    0.8865 C   0  0  0  0  0  0  0  0  0  0  0  0
   13.0459   21.8212    1.3572 C   0  0  0  0  0  0  0  0  0  0  0  0
   12.2564   21.8839    0.0759 C   0  0  0  0  0  0  0  0  0  0  0  0
   12.4669   20.6907    2.1339 C   0  0  0  0  0  0  0  0  0  0  0  0
   11.8134   19.6174    1.5970 C   0  0  0  0  0  0  0  0  0  0  0  0
   11.2818   18.6151    2.4010 C   0  0  0  0  0  0  0  0  0  0  0  0
   11.4084   18.6938    3.7702 C   0  0  0  0  0  0  0  0  0  0  0  0
   10.8862   17.7116    4.5795 F   0  0  0  0  0  0  0  0  0  0  0  0
   12.0580   19.7603    4.3252 C   0  0  0  0  0  0  0  0  0  0  0  0
   12.5832   20.7516    3.5090 C   0  0  0  0  0  0  0  0  0  0  0  0
   15.1701   24.5406   -4.1956 C   0  0  0  0  0  0  0  0  0  0  0  0
   14.4294   23.8267   -3.2896 C   0  0  0  0  0  0  0  0  0  0  0  0
   13.3213   24.4091   -2.6452 C   0  0  0  0  0  0  0  0  0  0  0  0
   13.0172   25.7036   -2.9586 C   0  0  0  0  0  0  0  0  0  0  0  0
   13.7798   26.4192   -3.8826 C   0  0  0  0  0  0  0  0  0  0  0  0
   14.8593   25.8374   -4.5031 C   0  0  0  0  0  0  0  0  0  0  0  0
   16.1917   22.6651   -5.4381 C   0  0  0  0  0  0  0  0  0  0  0  0
   16.2629   23.9121   -4.8094 O   0  0  0  0  0  0  0  0  0  0  0  0
   13.4066   27.7205   -4.1448 O   0  0  0  0  0  0  0  0  0  0  0  0
   12.1593   28.2633   -4.3689 C   0  0  0  0  0  0  0  0  0  0  0  0
   15.6017   26.5608   -5.4132 O   0  0  0  0  0  0  0  0  0  0  0  0
   15.2942   26.3680   -6.7959 C   0  0  0  0  0  0  0  0  0  0  0  0
   12.9423   23.1573    2.0168 C   0  0  0  0  0  0  0  0  0  0  0  0
   11.6044   23.7893    2.0773 C   0  0  0  0  0  0  0  0  0  0  0  0
   10.6668   23.0295    2.8692 N   0  0  0  0  0  0  0  0  0  0  0  0
    9.7424   23.8687    3.6267 C   0  0  0  0  0  0  0  0  0  0  0  0
    8.4192   23.1138    3.8371 C   0  0  0  0  0  0  0  0  0  0  0  0
    7.6430   23.2575    2.5079 C   0  0  0  0  0  0  0  0  0  0  0  0
    8.7222   23.1555    1.4487 C   0  0  0  0  0  0  0  0  0  0  0  0
    9.8104   22.2605    1.9459 C   0  0  0  0  0  0  0  0  0  0  0  0
    7.0490   24.6134    2.5532 C   0  0  0  0  0  0  0  0  0  0  0  0
    7.1578   25.3731    1.5040 O   0  0  0  0  0  0  0  0  0  0  0  0
    6.3511   25.2037    3.6379 N   0  0  0  0  0  0  0  0  0  0  0  0
    5.9050   26.5713    3.4344 C   0  0  0  0  0  0  0  0  0  0  0  0
    5.4668   27.3209    4.6211 C   0  0  0  0  0  0  0  0  0  0  0  0
    5.9501   26.7123    5.8874 C   0  0  0  0  0  0  0  0  0  0  0  0
    5.5680   25.2737    5.9840 C   0  0  0  0  0  0  0  0  0  0  0  0
    6.0955   24.4529    4.8250 C   0  0  0  0  0  0  0  0  0  0  0  0
    6.6702   22.1746    2.4385 C   0  0  0  0  0  0  0  0  0  0  0  0
    6.1251   21.9192    1.1749 C   0  0  0  0  0  0  0  0  0  0  0  0
    5.1924   20.9220    1.0368 C   0  0  0  0  0  0  0  0  0  0  0  0
    4.7621   20.1470    2.1047 C   0  0  0  0  0  0  0  0  0  0  0  0
    5.3058   20.4077    3.3428 C   0  0  0  0  0  0  0  0  0  0  0  0
    6.2428   21.4056    3.5005 C   0  0  0  0  0  0  0  0  0  0  0  0
 21 22  1  0  0  0
 22 15  1  0  0  0
 15 16  2  0  0  0
 16 17  1  0  0  0
 17 18  2  0  0  0
 18 19  1  0  0  0
 19 23  1  0  0  0
 23 24  1  0  0  0
 19 20  2  0  0  0
 20 25  1  0  0  0
 25 26  1  0  0  0
 17  1  1  0  0  0
  1  2  2  0  0  0
  1  3  1  0  0  0
  3  4  1  0  0  0
  4  5  1  0  0  0
  5  6  1  0  0  0
  6 27  1  0  0  0
 27 28  1  0  0  0
 28 29  1  0  0  0
 29 30  1  0  0  0
 30 31  1  0  0  0
 31 32  1  0  0  0
 32 33  1  0  0  0
 33 34  1  0  0  0
 32 35  1  0  0  0
 35 36  2  0  0  0
 35 37  1  0  0  0
 37 38  1  0  0  0
 38 39  1  0  0  0
 39 40  1  0  0  0
 40 41  1  0  0  0
 41 42  1  0  0  0
 32 43  1  0  0  0
 43 44  2  0  0  0
 44 45  1  0  0  0
 45 46  2  0  0  0
 46 47  1  0  0  0
 47 48  2  0  0  0
  6  7  1  0  0  0
  6  8  1  0  0  0
  8  9  2  0  0  0
  9 10  1  0  0  0
 10 11  2  0  0  0
 11 12  1  0  0  0
 11 13  1  0  0  0
 13 14  2  0  0  0
 20 15  1  0  0  0
  7  3  1  0  0  0
 14  8  1  0  0  0
 34 29  1  0  0  0
 42 37  1  0  0  0
 48 43  1  0  0  0
M  END
> <minimizedAffinity>
4.58501

> <CNNscore>
0.3896825314

> <CNNaffinity>
7.3175668716

> <CNN_VS>
2.8515279293

> <CNNaffinity_variance>
0.4103980660

$$$$
[H]c1c([H])c([H])c(C2(C(=O)N3C([H])([H])C([H])([H])C([H])([H])C([H])([H])C3([H])[H])C([H])([H])C([H])([H])N(C([H])([H])C([H])([H])[C@@]3(c4c([H])c([H])c(F)c([H])c4[H])C([H])([H])N(C(=O)c4c([H])c(OC([H])([H])[H])c(OC([H])([H])[H])c(OC([H])([H])[H])c4[H])C([H])([H])C3([H])[H])C([H])([H])C2([H])[H])c([H])c1[H]


 48 53  0  0  0  0  0  0  0  0999 V2000
   11.7362   25.5413    1.3526 C   0  0  0  0  0  0  0  0  0  0  0  0
   12.3078   26.2950    2.2617 O   0  0  0  0  0  0  0  0  0  0  0  0
   10.3763   25.2874    1.5186 N   0  0  0  0  0  0  0  0  0  0  0  0
    9.3946   24.5148    0.8233 C   0  0  0  0  0  0  0  0  0  0  0  0
    8.1844   24.3990    1.7368 C   0  0  0  0  0  0  0  0  0  0  0  0
    8.6903   24.8906    3.0439 C   0  0  0  0  0  0  0  0  0  0  0  0
    9.6572   25.9753    2.6468 C   0  0  0  0  0  0  0  0  0  0  0  0
    7.6280   25.5668    3.8382 C   0  0  0  0  0  0  0  0  0  0  0  0
    7.4899   25.4927    5.1956 C   0  0  0  0  0  0  0  0  0  0  0  0
    6.4509   26.1396    5.8556 C   0  0  0  0  0  0  0  0  0  0  0  0
    5.5330   26.8736    5.1376 C   0  0  0  0  0  0  0  0  0  0  0  0
    4.4981   27.5176    5.7753 F   0  0  0  0  0  0  0  0  0  0  0  0
    5.6545   26.9584    3.7791 C   0  0  0  0  0  0  0  0  0  0  0  0
    6.6973   26.3075    3.1359 C   0  0  0  0  0  0  0  0  0  0  0  0
   14.6002   23.8470   -0.2392 C   0  0  0  0  0  0  0  0  0  0  0  0
   13.6960   24.2914    0.6904 C   0  0  0  0  0  0  0  0  0  0  0  0
   12.5970   25.0833    0.3065 C   0  0  0  0  0  0  0  0  0  0  0  0
   12.4700   25.3868   -1.0194 C   0  0  0  0  0  0  0  0  0  0  0  0
   13.3978   24.9283   -1.9554 C   0  0  0  0  0  0  0  0  0  0  0  0
   14.4661   24.1565   -1.5656 C   0  0  0  0  0  0  0  0  0  0  0  0
   15.5355   21.7733    0.7253 C   0  0  0  0  0  0  0  0  0  0  0  0
   15.6758   23.0603    0.1967 O   0  0  0  0  0  0  0  0  0  0  0  0
   13.1979   25.2774   -3.2744 O   0  0  0  0  0  0  0  0  0  0  0  0
   13.1877   26.5169   -3.8777 C   0  0  0  0  0  0  0  0  0  0  0  0
   15.3734   23.7130   -2.5051 O   0  0  0  0  0  0  0  0  0  0  0  0
   16.1511   24.7096   -3.1725 C   0  0  0  0  0  0  0  0  0  0  0  0
    9.4619   23.8470    3.7833 C   0  0  0  0  0  0  0  0  0  0  0  0
    9.2887   22.4386    3.3598 C   0  0  0  0  0  0  0  0  0  0  0  0
    8.0556   22.2225    2.6413 N   0  0  0  0  0  0  0  0  0  0  0  0
    8.1366   22.6041    1.2340 C   0  0  0  0  0  0  0  0  0  0  0  0
    7.1588   21.7468    0.4131 C   0  0  0  0  0  0  0  0  0  0  0  0
    7.8692   20.3895    0.2059 C   0  0  0  0  0  0  0  0  0  0  0  0
    8.5816   20.1522    1.5224 C   0  0  0  0  0  0  0  0  0  0  0  0
    7.7869   20.7718    2.6254 C   0  0  0  0  0  0  0  0  0  0  0  0
    8.8275   20.6209   -0.8994 C   0  0  0  0  0  0  0  0  0  0  0  0
    8.3872   20.5739   -2.1216 O   0  0  0  0  0  0  0  0  0  0  0  0
   10.2137   20.8982   -0.7830 N   0  0  0  0  0  0  0  0  0  0  0  0
   10.9375   21.0427   -2.0344 C   0  0  0  0  0  0  0  0  0  0  0  0
   12.4064   21.0141   -1.9707 C   0  0  0  0  0  0  0  0  0  0  0  0
   12.9081   20.4169   -0.7061 C   0  0  0  0  0  0  0  0  0  0  0  0
   12.3273   21.0963    0.4881 C   0  0  0  0  0  0  0  0  0  0  0  0
   10.8131   21.0510    0.5037 C   0  0  0  0  0  0  0  0  0  0  0  0
    6.8486   19.3893   -0.0800 C   0  0  0  0  0  0  0  0  0  0  0  0
    5.5399   19.8680   -0.2113 C   0  0  0  0  0  0  0  0  0  0  0  0
    4.5247   18.9808   -0.4676 C   0  0  0  0  0  0  0  0  0  0  0  0
    4.7402   17.6165   -0.6048 C   0  0  0  0  0  0  0  0  0  0  0  0
    6.0321   17.1578   -0.4736 C   0  0  0  0  0  0  0  0  0  0  0  0
    7.0638   18.0338   -0.2155 C   0  0  0  0  0  0  0  0  0  0  0  0
 21 22  1  0  0  0
 22 15  1  0  0  0
 15 16  2  0  0  0
 16 17  1  0  0  0
 17 18  2  0  0  0
 18 19  1  0  0  0
 19 23  1  0  0  0
 23 24  1  0  0  0
 19 20  2  0  0  0
 20 25  1  0  0  0
 25 26  1  0  0  0
 17  1  1  0  0  0
  1  2  2  0  0  0
  1  3  1  0  0  0
  3  4  1  0  0  0
  4  5  1  0  0  0
  5  6  1  0  0  0
  6 27  1  0  0  0
 27 28  1  0  0  0
 28 29  1  0  0  0
 29 30  1  0  0  0
 30 31  1  0  0  0
 31 32  1  0  0  0
 32 33  1  0  0  0
 33 34  1  0  0  0
 32 35  1  0  0  0
 35 36  2  0  0  0
 35 37  1  0  0  0
 37 38  1  0  0  0
 38 39  1  0  0  0
 39 40  1  0  0  0
 40 41  1  0  0  0
 41 42  1  0  0  0
 32 43  1  0  0  0
 43 44  2  0  0  0
 44 45  1  0  0  0
 45 46  2  0  0  0
 46 47  1  0  0  0
 47 48  2  0  0  0
  6  7  1  0  0  0
  6  8  1  0  0  0
  8  9  2  0  0  0
  9 10  1  0  0  0
 10 11  2  0  0  0
 11 12  1  0  0  0
 11 13  1  0  0  0
 13 14  2  0  0  0
 20 15  1  0  0  0
  7  3  1  0  0  0
 14  8  1  0  0  0
 34 29  1  0  0  0
 42 37  1  0  0  0
 48 43  1  0  0  0
M  END
> <minimizedAffinity>
-1.12525

> <CNNscore>
0.3433176875

> <CNNaffinity>
7.5382552147

> <CNN_VS>
2.5880162716

> <CNNaffinity_variance>
0.3064586520

$$$$
[H]c1c([H])c([H])c(C2(C(=O)N3C([H])([H])C([H])([H])C([H])([H])C([H])([H])C3([H])[H])C([H])([H])C([H])([H])N(C([H])([H])C([H])([H])[C@@]3(c4c([H])c([H])c(F)c([H])c4[H])C([H])([H])N(C(=O)c4c([H])c(OC([H])([H])[H])c(OC([H])([H])[H])c(OC([H])([H])[H])c4[H])C([H])([H])C3([H])[H])C([H])([H])C2([H])[H])c([H])c1[H]


 48 53  0  0  0  0  0  0  0  0999 V2000
   14.6861   23.0469   -2.5485 C   0  0  0  0  0  0  0  0  0  0  0  0
   14.6147   21.8446   -3.0688 O   0  0  0  0  0  0  0  0  0  0  0  0
   14.2350   23.1866   -1.2377 N   0  0  0  0  0  0  0  0  0  0  0  0
   14.0921   24.2760   -0.3229 C   0  0  0  0  0  0  0  0  0  0  0  0
   13.2154   23.7903    0.8207 C   0  0  0  0  0  0  0  0  0  0  0  0
   12.6706   22.5042    0.3159 C   0  0  0  0  0  0  0  0  0  0  0  0
   13.8113   21.9483   -0.4958 C   0  0  0  0  0  0  0  0  0  0  0  0
   12.4394   21.5239    1.4124 C   0  0  0  0  0  0  0  0  0  0  0  0
   12.4545   21.8152    2.7474 C   0  0  0  0  0  0  0  0  0  0  0  0
   12.2510   20.8300    3.7073 C   0  0  0  0  0  0  0  0  0  0  0  0
   12.0294   19.5276    3.3181 C   0  0  0  0  0  0  0  0  0  0  0  0
   11.8286   18.5409    4.2555 F   0  0  0  0  0  0  0  0  0  0  0  0
   12.0117   19.2172    1.9874 C   0  0  0  0  0  0  0  0  0  0  0  0
   12.2158   20.2120    1.0422 C   0  0  0  0  0  0  0  0  0  0  0  0
   16.4295   26.1465   -3.5282 C   0  0  0  0  0  0  0  0  0  0  0  0
   15.9198   25.1114   -2.7879 C   0  0  0  0  0  0  0  0  0  0  0  0
   15.2246   24.0554   -3.4075 C   0  0  0  0  0  0  0  0  0  0  0  0
   15.0814   24.1044   -4.7653 C   0  0  0  0  0  0  0  0  0  0  0  0
   15.6050   25.1641   -5.5069 C   0  0  0  0  0  0  0  0  0  0  0  0
   16.2808   26.1884   -4.8880 C   0  0  0  0  0  0  0  0  0  0  0  0
   16.7585   27.6524   -1.5971 C   0  0  0  0  0  0  0  0  0  0  0  0
   17.1145   27.1721   -2.8611 O   0  0  0  0  0  0  0  0  0  0  0  0
   15.4189   25.1389   -6.8730 O   0  0  0  0  0  0  0  0  0  0  0  0
   14.9881   26.1262   -7.7334 C   0  0  0  0  0  0  0  0  0  0  0  0
   16.7908   27.2279   -5.6377 O   0  0  0  0  0  0  0  0  0  0  0  0
   16.0202   28.4312   -5.6813 C   0  0  0  0  0  0  0  0  0  0  0  0
   11.5134   22.7008   -0.6078 C   0  0  0  0  0  0  0  0  0  0  0  0
   10.1614   22.7679   -0.0074 C   0  0  0  0  0  0  0  0  0  0  0  0
   10.1604   22.4341    1.3969 N   0  0  0  0  0  0  0  0  0  0  0  0
    9.8804   23.5789    2.2591 C   0  0  0  0  0  0  0  0  0  0  0  0
    9.2072   23.0935    3.5537 C   0  0  0  0  0  0  0  0  0  0  0  0
    7.7237   22.8587    3.1879 C   0  0  0  0  0  0  0  0  0  0  0  0
    7.7859   22.2811    1.7881 C   0  0  0  0  0  0  0  0  0  0  0  0
    9.0481   21.4956    1.6403 C   0  0  0  0  0  0  0  0  0  0  0  0
    7.1070   24.2051    3.1961 C   0  0  0  0  0  0  0  0  0  0  0  0
    6.2394   24.4952    2.2724 O   0  0  0  0  0  0  0  0  0  0  0  0
    7.3549   25.2518    4.1208 N   0  0  0  0  0  0  0  0  0  0  0  0
    6.6439   26.4948    3.8753 C   0  0  0  0  0  0  0  0  0  0  0  0
    7.1004   27.6876    4.6042 C   0  0  0  0  0  0  0  0  0  0  0  0
    8.4749   27.5303    5.1458 C   0  0  0  0  0  0  0  0  0  0  0  0
    8.5952   26.3035    5.9857 C   0  0  0  0  0  0  0  0  0  0  0  0
    8.2305   25.0428    5.2289 C   0  0  0  0  0  0  0  0  0  0  0  0
    7.1634   21.9325    4.1637 C   0  0  0  0  0  0  0  0  0  0  0  0
    7.8726   20.7413    4.3570 C   0  0  0  0  0  0  0  0  0  0  0  0
    7.3964   19.8158    5.2515 C   0  0  0  0  0  0  0  0  0  0  0  0
    6.2318   20.0108    5.9811 C   0  0  0  0  0  0  0  0  0  0  0  0
    5.5431   21.1866    5.7822 C   0  0  0  0  0  0  0  0  0  0  0  0
    6.0058   22.1269    4.8876 C   0  0  0  0  0  0  0  0  0  0  0  0
 21 22  1  0  0  0
 22 15  1  0  0  0
 15 16  2  0  0  0
 16 17  1  0  0  0
 17 18  2  0  0  0
 18 19  1  0  0  0
 19 23  1  0  0  0
 23 24  1  0  0  0
 19 20  2  0  0  0
 20 25  1  0  0  0
 25 26  1  0  0  0
 17  1  1  0  0  0
  1  2  2  0  0  0
  1  3  1  0  0  0
  3  4  1  0  0  0
  4  5  1  0  0  0
  5  6  1  0  0  0
  6 27  1  0  0  0
 27 28  1  0  0  0
 28 29  1  0  0  0
 29 30  1  0  0  0
 30 31  1  0  0  0
 31 32  1  0  0  0
 32 33  1  0  0  0
 33 34  1  0  0  0
 32 35  1  0  0  0
 35 36  2  0  0  0
 35 37  1  0  0  0
 37 38  1  0  0  0
 38 39  1  0  0  0
 39 40  1  0  0  0
 40 41  1  0  0  0
 41 42  1  0  0  0
 32 43  1  0  0  0
 43 44  2  0  0  0
 44 45  1  0  0  0
 45 46  2  0  0  0
 46 47  1  0  0  0
 47 48  2  0  0  0
  6  7  1  0  0  0
  6  8  1  0  0  0
  8  9  2  0  0  0
  9 10  1  0  0  0
 10 11  2  0  0  0
 11 12  1  0  0  0
 11 13  1  0  0  0
 13 14  2  0  0  0
 20 15  1  0  0  0
  7  3  1  0  0  0
 14  8  1  0  0  0
 34 29  1  0  0  0
 42 37  1  0  0  0
 48 43  1  0  0  0
M  END
> <minimizedAffinity>
-1.47987

> <CNNscore>
0.3374680281

> <CNNaffinity>
7.6663527489

> <CNN_VS>
2.5871489048

> <CNNaffinity_variance>
0.1555593014

$$$$
[H]OC(=O)[C@@]([H])(N([H])C(=O)[C@@]([H])(N([H])C(=O)[C@@]([H])(N([H])C(=O)[C@@]([H])(N([H])C(=O)[C@@]([H])(N([H])C(=O)[C@@]([H])(N([H])C(=O)c1c(O[H])c2c([H])c([H])c([H])c([H])c2n1[H])C([H])([H])c1c([H])c([H])c([H])c([H])c1[H])C([H])([H])C([H])(C([H])([H])[H])C([H])([H])[H])C([H])(C([H])([H])[H])C([H])([H])[H])C([H])(C([H])([H])[H])C([H])([H])[H])C([H])(C([H])([H])[H])C([H])([H])[H])C([H])([H])c1c([H])c([H])c([H])c([H])c1[H]


 73 76  0  0  0  0  0  0  0  0999 V2000
   12.4926   20.5240   -0.5165 C   0  0  0  0  0  0  0  0  0  0  0  0
   12.2934   19.4172   -1.0406 O   0  0  0  0  0  0  0  0  0  0  0  0
   11.7738   21.0857    0.5552 N   0  0  0  0  0  0  0  0  0  0  0  0
   12.0367   22.0093    0.9427 H   0  0  0  0  0  0  0  0  0  0  0  0
   10.6219   20.4243    1.2051 C   0  0  0  0  0  0  0  0  0  0  0  0
    9.4268   20.7097    0.4294 C   0  0  0  0  0  0  0  0  0  0  0  0
    9.2503   21.9226    0.0602 O   0  0  0  0  0  0  0  0  0  0  0  0
    8.4217   19.7830    0.0348 N   0  0  0  0  0  0  0  0  0  0  0  0
    8.5502   18.7866    0.2793 H   0  0  0  0  0  0  0  0  0  0  0  0
    7.2507   20.2901   -0.7126 C   0  0  0  0  0  0  0  0  0  0  0  0
    6.0833   20.3820    0.2026 C   0  0  0  0  0  0  0  0  0  0  0  0
    5.5349   21.5277    0.2614 O   0  0  0  0  0  0  0  0  0  0  0  0
    5.6083   19.2810    0.9500 N   0  0  0  0  0  0  0  0  0  0  0  0
    6.1245   18.3730    0.8335 H   0  0  0  0  0  0  0  0  0  0  0  0
    4.4858   19.3555    1.8295 C   0  0  0  0  0  0  0  0  0  0  0  0
    4.8610   19.4981    3.2481 C   0  0  0  0  0  0  0  0  0  0  0  0
    5.5244   18.5913    3.8235 O   0  0  0  0  0  0  0  0  0  0  0  0
    4.5117   20.6229    4.0390 N   0  0  0  0  0  0  0  0  0  0  0  0
    3.9749   21.3877    3.6022 H   0  0  0  0  0  0  0  0  0  0  0  0
    4.8779   20.7470    5.4325 C   0  0  0  0  0  0  0  0  0  0  0  0
    3.6774   20.6180    6.3101 C   0  0  0  0  0  0  0  0  0  0  0  0
    2.5070   20.0075    5.8881 O   0  0  0  0  0  0  0  0  0  0  0  0
    3.6733   21.0665    7.4948 O   0  0  0  0  0  0  0  0  0  0  0  0
    1.6237   20.4926    5.8037 H   0  0  0  0  0  0  0  0  0  0  0  0
    5.7044   21.9530    5.7194 C   0  0  0  0  0  0  0  0  0  0  0  0
    7.0870   21.6488    6.1094 C   0  0  0  0  0  0  0  0  0  0  0  0
    8.0288   22.6358    6.2372 C   0  0  0  0  0  0  0  0  0  0  0  0
    9.3231   22.2976    6.6078 C   0  0  0  0  0  0  0  0  0  0  0  0
    9.6744   20.9880    6.8491 C   0  0  0  0  0  0  0  0  0  0  0  0
    8.7064   20.0183    6.7129 C   0  0  0  0  0  0  0  0  0  0  0  0
    7.4278   20.3507    6.3470 C   0  0  0  0  0  0  0  0  0  0  0  0
    3.5397   18.1726    1.6410 C   0  0  0  0  0  0  0  0  0  0  0  0
    3.3998   17.7201    0.2341 C   0  0  0  0  0  0  0  0  0  0  0  0
    2.2563   18.3686    2.3944 C   0  0  0  0  0  0  0  0  0  0  0  0
    7.0036   19.3445   -1.8560 C   0  0  0  0  0  0  0  0  0  0  0  0
    7.0711   17.9225   -1.4212 C   0  0  0  0  0  0  0  0  0  0  0  0
    5.7584   19.6907   -2.6203 C   0  0  0  0  0  0  0  0  0  0  0  0
   10.5024   21.0631    2.6194 C   0  0  0  0  0  0  0  0  0  0  0  0
    9.0877   21.0479    3.0912 C   0  0  0  0  0  0  0  0  0  0  0  0
   11.4061   20.2874    3.5320 C   0  0  0  0  0  0  0  0  0  0  0  0
   13.6194   21.4020   -1.0504 C   0  0  0  0  0  0  0  0  0  0  0  0
   13.2338   22.7632   -0.9972 N   0  0  0  0  0  0  0  0  0  0  0  0
   12.0086   23.2785   -1.4674 C   0  0  0  0  0  0  0  0  0  0  0  0
   11.1634   22.4395   -1.9393 O   0  0  0  0  0  0  0  0  0  0  0  0
   13.9191   23.5004   -0.5750 H   0  0  0  0  0  0  0  0  0  0  0  0
   11.6023   24.6688   -1.4848 C   0  0  0  0  0  0  0  0  0  0  0  0
   10.6363   24.9780   -0.4158 N   0  0  0  0  0  0  0  0  0  0  0  0
   10.8490   24.5676    0.9082 C   0  0  0  0  0  0  0  0  0  0  0  0
   11.8684   23.9162    1.2349 O   0  0  0  0  0  0  0  0  0  0  0  0
    9.7758   25.5127   -0.6513 H   0  0  0  0  0  0  0  0  0  0  0  0
    9.8764   24.8981    1.9476 C   0  0  0  0  0  0  0  0  0  0  0  0
   10.1160   25.6092    3.0695 N   0  0  0  0  0  0  0  0  0  0  0  0
    9.0012   25.7184    3.8005 C   0  0  0  0  0  0  0  0  0  0  0  0
    8.7220   26.3410    5.0247 C   0  0  0  0  0  0  0  0  0  0  0  0
    7.4538   26.2884    5.5553 C   0  0  0  0  0  0  0  0  0  0  0  0
    6.4508   25.6225    4.8874 C   0  0  0  0  0  0  0  0  0  0  0  0
    6.7411   25.0098    3.6728 C   0  0  0  0  0  0  0  0  0  0  0  0
    8.0010   25.0631    3.1468 C   0  0  0  0  0  0  0  0  0  0  0  0
    8.5479   24.5419    1.9739 C   0  0  0  0  0  0  0  0  0  0  0  0
    7.8032   23.8192    1.0772 O   0  0  0  0  0  0  0  0  0  0  0  0
   11.0409   26.0169    3.3317 H   0  0  0  0  0  0  0  0  0  0  0  0
    8.0994   23.4111    0.2238 H   0  0  0  0  0  0  0  0  0  0  0  0
   12.4866   25.7837   -1.7929 C   0  0  0  0  0  0  0  0  0  0  0  0
   13.3721   25.7953   -2.9315 C   0  0  0  0  0  0  0  0  0  0  0  0
   13.2285   26.7063   -3.9443 C   0  0  0  0  0  0  0  0  0  0  0  0
   14.0494   26.7581   -5.0439 C   0  0  0  0  0  0  0  0  0  0  0  0
   15.0905   25.8575   -5.1739 C   0  0  0  0  0  0  0  0  0  0  0  0
   15.2541   24.9387   -4.1767 C   0  0  0  0  0  0  0  0  0  0  0  0
   14.4300   24.8902   -3.0763 C   0  0  0  0  0  0  0  0  0  0  0  0
   14.8289   20.9772   -0.3429 C   0  0  0  0  0  0  0  0  0  0  0  0
   15.3867   23.1401    0.5562 C   0  0  0  0  0  0  0  0  0  0  0  0
   15.3185   21.6113    0.8806 C   0  0  0  0  0  0  0  0  0  0  0  0
   16.6806   21.2851    1.3727 C   0  0  0  0  0  0  0  0  0  0  0  0
 71 72  1  0  0  0
 72 73  1  0  0  0
 72 70  1  0  0  0
 70 41  1  0  0  0
 41 42  1  0  0  0
 42 43  1  0  0  0
 43 44  2  0  0  0
 43 46  1  0  0  0
 46 63  1  0  0  0
 63 64  1  0  0  0
 64 65  2  0  0  0
 65 66  1  0  0  0
 66 67  2  0  0  0
 67 68  1  0  0  0
 68 69  2  0  0  0
 46 47  1  0  0  0
 47 48  1  0  0  0
 48 49  2  0  0  0
 48 51  1  0  0  0
 51 52  1  0  0  0
 52 53  1  0  0  0
 53 54  2  0  0  0
 54 55  1  0  0  0
 55 56  2  0  0  0
 56 57  1  0  0  0
 57 58  2  0  0  0
 58 59  1  0  0  0
 59 60  1  0  0  0
 41  1  1  0  0  0
  1  2  2  0  0  0
  1  3  1  0  0  0
  3  5  1  0  0  0
  5 38  1  0  0  0
 38 39  1  0  0  0
 38 40  1  0  0  0
  5  6  1  0  0  0
  6  7  2  0  0  0
  6  8  1  0  0  0
  8 10  1  0  0  0
 10 35  1  0  0  0
 35 36  1  0  0  0
 35 37  1  0  0  0
 10 11  1  0  0  0
 11 12  2  0  0  0
 11 13  1  0  0  0
 13 15  1  0  0  0
 15 32  1  0  0  0
 32 33  1  0  0  0
 32 34  1  0  0  0
 15 16  1  0  0  0
 16 17  2  0  0  0
 16 18  1  0  0  0
 18 20  1  0  0  0
 20 25  1  0  0  0
 25 26  1  0  0  0
 26 27  2  0  0  0
 27 28  1  0  0  0
 28 29  2  0  0  0
 29 30  1  0  0  0
 30 31  2  0  0  0
 20 21  1  0  0  0
 21 22  1  0  0  0
 21 23  2  0  0  0
 69 64  1  0  0  0
 59 51  2  0  0  0
 31 26  1  0  0  0
 58 53  1  0  0  0
 42 45  1  0  0  0
 47 50  1  0  0  0
 52 61  1  0  0  0
 60 62  1  0  0  0
  3  4  1  0  0  0
  8  9  1  0  0  0
 13 14  1  0  0  0
 18 19  1  0  0  0
 22 24  1  0  0  0
M  END
> <minimizedAffinity>
-6.85562

> <CNNscore>
0.1511057019

> <CNNaffinity>
7.9857931137

> <CNN_VS>
1.2066988945

> <CNNaffinity_variance>
0.4715920389

$$$$
[H]OC(=O)[C@@]([H])(N([H])C(=O)[C@@]([H])(N([H])C(=O)[C@@]([H])(N([H])C(=O)[C@@]([H])(N([H])C(=O)[C@@]([H])(N([H])C(=O)[C@@]([H])(N([H])C(=O)c1c(O[H])c2c([H])c([H])c([H])c([H])c2n1[H])C([H])([H])c1c([H])c([H])c([H])c([H])c1[H])C([H])([H])C([H])(C([H])([H])[H])C([H])([H])[H])C([H])(C([H])([H])[H])C([H])([H])[H])C([H])(C([H])([H])[H])C([H])([H])[H])C([H])(C([H])([H])[H])C([H])([H])[H])C([H])([H])c1c([H])c([H])c([H])c([H])c1[H]


 73 76  0  0  0  0  0  0  0  0999 V2000
    6.5543   18.3566    5.0026 C   0  0  0  0  0  0  0  0  0  0  0  0
    7.1222   17.2552    4.9391 O   0  0  0  0  0  0  0  0  0  0  0  0
    5.6464   18.8867    4.0671 N   0  0  0  0  0  0  0  0  0  0  0  0
    5.2015   19.8084    4.2249 H   0  0  0  0  0  0  0  0  0  0  0  0
    5.2556   18.1934    2.8209 C   0  0  0  0  0  0  0  0  0  0  0  0
    5.9352   18.8297    1.7051 C   0  0  0  0  0  0  0  0  0  0  0  0
    6.3989   18.0604    0.7930 O   0  0  0  0  0  0  0  0  0  0  0  0
    6.1466   20.2238    1.5150 N   0  0  0  0  0  0  0  0  0  0  0  0
    5.7506   20.8791    2.2099 H   0  0  0  0  0  0  0  0  0  0  0  0
    6.9125   20.6646    0.3292 C   0  0  0  0  0  0  0  0  0  0  0  0
    7.8170   21.7799    0.7127 C   0  0  0  0  0  0  0  0  0  0  0  0
    7.2668   22.9250    0.7647 O   0  0  0  0  0  0  0  0  0  0  0  0
    9.1860   21.5888    1.0055 N   0  0  0  0  0  0  0  0  0  0  0  0
    9.5505   20.6053    0.9388 H   0  0  0  0  0  0  0  0  0  0  0  0
   10.0642   22.6511    1.3787 C   0  0  0  0  0  0  0  0  0  0  0  0
   11.3344   22.6521    0.6301 C   0  0  0  0  0  0  0  0  0  0  0  0
   12.4341   22.7212    1.2460 O   0  0  0  0  0  0  0  0  0  0  0  0
   11.4069   22.5818   -0.7849 N   0  0  0  0  0  0  0  0  0  0  0  0
   10.5292   22.5179   -1.3230 H   0  0  0  0  0  0  0  0  0  0  0  0
   12.6591   22.5928   -1.5084 C   0  0  0  0  0  0  0  0  0  0  0  0
   13.3766   21.2939   -1.3470 C   0  0  0  0  0  0  0  0  0  0  0  0
   14.7330   21.1552   -1.5949 O   0  0  0  0  0  0  0  0  0  0  0  0
   12.7712   20.2464   -0.9720 O   0  0  0  0  0  0  0  0  0  0  0  0
   15.1096   20.5617   -2.3220 H   0  0  0  0  0  0  0  0  0  0  0  0
   13.5014   23.7850   -1.2102 C   0  0  0  0  0  0  0  0  0  0  0  0
   13.7091   24.6712   -2.3624 C   0  0  0  0  0  0  0  0  0  0  0  0
   12.9241   25.7754   -2.5675 C   0  0  0  0  0  0  0  0  0  0  0  0
   13.1595   26.5821   -3.6723 C   0  0  0  0  0  0  0  0  0  0  0  0
   14.1683   26.2906   -4.5635 C   0  0  0  0  0  0  0  0  0  0  0  0
   14.9407   25.1748   -4.3309 C   0  0  0  0  0  0  0  0  0  0  0  0
   14.7094   24.3771   -3.2403 C   0  0  0  0  0  0  0  0  0  0  0  0
   10.3274   22.6660    2.8822 C   0  0  0  0  0  0  0  0  0  0  0  0
   10.2121   21.3383    3.5359 C   0  0  0  0  0  0  0  0  0  0  0  0
    9.5993   23.7917    3.5574 C   0  0  0  0  0  0  0  0  0  0  0  0
    5.9174   21.0754   -0.7212 C   0  0  0  0  0  0  0  0  0  0  0  0
    6.0395   20.2468   -1.9518 C   0  0  0  0  0  0  0  0  0  0  0  0
    4.5201   21.1592   -0.1780 C   0  0  0  0  0  0  0  0  0  0  0  0
    3.7172   18.3874    2.6863 C   0  0  0  0  0  0  0  0  0  0  0  0
    2.9827   17.2248    3.2634 C   0  0  0  0  0  0  0  0  0  0  0  0
    3.3714   19.6707    3.3827 C   0  0  0  0  0  0  0  0  0  0  0  0
    6.8340   19.2640    6.1958 C   0  0  0  0  0  0  0  0  0  0  0  0
    5.8336   20.2619    6.2850 N   0  0  0  0  0  0  0  0  0  0  0  0
    5.9705   21.4896    6.9645 C   0  0  0  0  0  0  0  0  0  0  0  0
    7.1054   21.7359    7.5054 O   0  0  0  0  0  0  0  0  0  0  0  0
    4.8645   20.0961    5.8109 H   0  0  0  0  0  0  0  0  0  0  0  0
    4.9534   22.5080    7.1283 C   0  0  0  0  0  0  0  0  0  0  0  0
    5.0739   23.5791    6.1234 N   0  0  0  0  0  0  0  0  0  0  0  0
    5.4605   24.8796    6.4782 C   0  0  0  0  0  0  0  0  0  0  0  0
    5.7146   25.1848    7.6667 O   0  0  0  0  0  0  0  0  0  0  0  0
    4.8656   23.3635    5.1275 H   0  0  0  0  0  0  0  0  0  0  0  0
    5.5798   25.9177    5.4566 C   0  0  0  0  0  0  0  0  0  0  0  0
    4.5636   26.4976    4.7838 N   0  0  0  0  0  0  0  0  0  0  0  0
    5.0325   27.4046    3.9198 C   0  0  0  0  0  0  0  0  0  0  0  0
    4.4062   28.2604    3.0036 C   0  0  0  0  0  0  0  0  0  0  0  0
    5.1572   29.1069    2.2212 C   0  0  0  0  0  0  0  0  0  0  0  0
    6.5294   29.1178    2.3326 C   0  0  0  0  0  0  0  0  0  0  0  0
    7.1383   28.2642    3.2467 C   0  0  0  0  0  0  0  0  0  0  0  0
    6.3912   27.4242    4.0233 C   0  0  0  0  0  0  0  0  0  0  0  0
    6.7439   26.4860    4.9936 C   0  0  0  0  0  0  0  0  0  0  0  0
    8.0487   26.2527    5.3462 O   0  0  0  0  0  0  0  0  0  0  0  0
    3.5530   26.2708    4.9172 H   0  0  0  0  0  0  0  0  0  0  0  0
    8.3962   25.6120    6.0180 H   0  0  0  0  0  0  0  0  0  0  0  0
    3.5752   22.2438    7.5162 C   0  0  0  0  0  0  0  0  0  0  0  0
    3.0733   20.9187    7.7864 C   0  0  0  0  0  0  0  0  0  0  0  0
    2.4950   20.1557    6.8066 C   0  0  0  0  0  0  0  0  0  0  0  0
    2.0080   18.8890    7.0160 C   0  0  0  0  0  0  0  0  0  0  0  0
    2.0861   18.3158    8.2719 C   0  0  0  0  0  0  0  0  0  0  0  0
    2.6584   19.0573    9.2659 C   0  0  0  0  0  0  0  0  0  0  0  0
    3.1457   20.3258    9.0522 C   0  0  0  0  0  0  0  0  0  0  0  0
    7.0524   18.3719    7.3362 C   0  0  0  0  0  0  0  0  0  0  0  0
    6.5736   18.8512    9.6468 C   0  0  0  0  0  0  0  0  0  0  0  0
    6.0499   18.1153    8.3695 C   0  0  0  0  0  0  0  0  0  0  0  0
    5.8168   16.7218    8.8253 C   0  0  0  0  0  0  0  0  0  0  0  0
 71 72  1  0  0  0
 72 73  1  0  0  0
 72 70  1  0  0  0
 70 41  1  0  0  0
 41 42  1  0  0  0
 42 43  1  0  0  0
 43 44  2  0  0  0
 43 46  1  0  0  0
 46 63  1  0  0  0
 63 64  1  0  0  0
 64 65  2  0  0  0
 65 66  1  0  0  0
 66 67  2  0  0  0
 67 68  1  0  0  0
 68 69  2  0  0  0
 46 47  1  0  0  0
 47 48  1  0  0  0
 48 49  2  0  0  0
 48 51  1  0  0  0
 51 52  1  0  0  0
 52 53  1  0  0  0
 53 54  2  0  0  0
 54 55  1  0  0  0
 55 56  2  0  0  0
 56 57  1  0  0  0
 57 58  2  0  0  0
 58 59  1  0  0  0
 59 60  1  0  0  0
 41  1  1  0  0  0
  1  2  2  0  0  0
  1  3  1  0  0  0
  3  5  1  0  0  0
  5 38  1  0  0  0
 38 39  1  0  0  0
 38 40  1  0  0  0
  5  6  1  0  0  0
  6  7  2  0  0  0
  6  8  1  0  0  0
  8 10  1  0  0  0
 10 35  1  0  0  0
 35 36  1  0  0  0
 35 37  1  0  0  0
 10 11  1  0  0  0
 11 12  2  0  0  0
 11 13  1  0  0  0
 13 15  1  0  0  0
 15 32  1  0  0  0
 32 33  1  0  0  0
 32 34  1  0  0  0
 15 16  1  0  0  0
 16 17  2  0  0  0
 16 18  1  0  0  0
 18 20  1  0  0  0
 20 25  1  0  0  0
 25 26  1  0  0  0
 26 27  2  0  0  0
 27 28  1  0  0  0
 28 29  2  0  0  0
 29 30  1  0  0  0
 30 31  2  0  0  0
 20 21  1  0  0  0
 21 22  1  0  0  0
 21 23  2  0  0  0
 69 64  1  0  0  0
 59 51  2  0  0  0
 31 26  1  0  0  0
 58 53  1  0  0  0
 42 45  1  0  0  0
 47 50  1  0  0  0
 52 61  1  0  0  0
 60 62  1  0  0  0
  3  4  1  0  0  0
  8  9  1  0  0  0
 13 14  1  0  0  0
 18 19  1  0  0  0
 22 24  1  0  0  0
M  END
> <minimizedAffinity>
-7.97241

> <CNNscore>
0.1317824423

> <CNNaffinity>
7.1172943115

> <CNN_VS>
0.9379343987

> <CNNaffinity_variance>
1.0442166328

$$$$
[H]OC(=O)[C@@]([H])(N([H])C(=O)[C@@]([H])(N([H])C(=O)[C@@]([H])(N([H])C(=O)[C@@]([H])(N([H])C(=O)[C@@]([H])(N([H])C(=O)[C@@]([H])(N([H])C(=O)c1c(O[H])c2c([H])c([H])c([H])c([H])c2n1[H])C([H])([H])c1c([H])c([H])c([H])c([H])c1[H])C([H])([H])C([H])(C([H])([H])[H])C([H])([H])[H])C([H])(C([H])([H])[H])C([H])([H])[H])C([H])(C([H])([H])[H])C([H])([H])[H])C([H])(C([H])([H])[H])C([H])([H])[H])C([H])([H])c1c([H])c([H])c([H])c([H])c1[H]


 73 76  0  0  0  0  0  0  0  0999 V2000
    8.5428   22.4009    1.0218 C   0  0  0  0  0  0  0  0  0  0  0  0
    8.4040   23.4948    0.4528 O   0  0  0  0  0  0  0  0  0  0  0  0
    7.8404   21.2144    0.7402 N   0  0  0  0  0  0  0  0  0  0  0  0
    8.0498   20.3404    1.2547 H   0  0  0  0  0  0  0  0  0  0  0  0
    6.7811   21.1135   -0.2866 C   0  0  0  0  0  0  0  0  0  0  0  0
    5.4939   21.0350    0.3831 C   0  0  0  0  0  0  0  0  0  0  0  0
    5.4333   21.4875    1.5791 O   0  0  0  0  0  0  0  0  0  0  0  0
    4.2850   20.5036   -0.1467 N   0  0  0  0  0  0  0  0  0  0  0  0
    4.2845   20.1663   -1.1241 H   0  0  0  0  0  0  0  0  0  0  0  0
    3.0896   20.4700    0.7233 C   0  0  0  0  0  0  0  0  0  0  0  0
    3.0560   19.1829    1.4659 C   0  0  0  0  0  0  0  0  0  0  0  0
    1.9204   18.6119    1.5010 O   0  0  0  0  0  0  0  0  0  0  0  0
    4.1979   18.6258    2.0838 N   0  0  0  0  0  0  0  0  0  0  0  0
    5.0935   19.1690    1.9986 H   0  0  0  0  0  0  0  0  0  0  0  0
    4.1793   17.3886    2.7966 C   0  0  0  0  0  0  0  0  0  0  0  0
    4.5875   17.5186    4.2074 C   0  0  0  0  0  0  0  0  0  0  0  0
    5.4428   18.3840    4.5435 O   0  0  0  0  0  0  0  0  0  0  0  0
    4.0688   16.7064    5.2484 N   0  0  0  0  0  0  0  0  0  0  0  0
    3.3629   15.9919    5.0138 H   0  0  0  0  0  0  0  0  0  0  0  0
    4.4841   16.8375    6.6275 C   0  0  0  0  0  0  0  0  0  0  0  0
    5.4246   15.7417    7.0049 C   0  0  0  0  0  0  0  0  0  0  0  0
    6.7591   15.7423    6.6312 O   0  0  0  0  0  0  0  0  0  0  0  0
    5.0413   14.7488    7.6918 O   0  0  0  0  0  0  0  0  0  0  0  0
    7.1696   15.0434    6.0264 H   0  0  0  0  0  0  0  0  0  0  0  0
    3.3443   17.0025    7.5728 C   0  0  0  0  0  0  0  0  0  0  0  0
    2.6221   18.2719    7.4197 C   0  0  0  0  0  0  0  0  0  0  0  0
    1.4272   18.3401    6.7526 C   0  0  0  0  0  0  0  0  0  0  0  0
    0.7830   19.5639    6.6340 C   0  0  0  0  0  0  0  0  0  0  0  0
    1.3250   20.7083    7.1757 C   0  0  0  0  0  0  0  0  0  0  0  0
    2.5266   20.6084    7.8405 C   0  0  0  0  0  0  0  0  0  0  0  0
    3.1640   19.4004    7.9586 C   0  0  0  0  0  0  0  0  0  0  0  0
    5.0103   16.3182    2.0940 C   0  0  0  0  0  0  0  0  0  0  0  0
    5.8892   16.8367    1.0159 C   0  0  0  0  0  0  0  0  0  0  0  0
    4.1782   15.1205    1.7387 C   0  0  0  0  0  0  0  0  0  0  0  0
    1.8855   20.6481   -0.1604 C   0  0  0  0  0  0  0  0  0  0  0  0
    1.2154   21.9560    0.0763 C   0  0  0  0  0  0  0  0  0  0  0  0
    2.1947   20.3730   -1.6037 C   0  0  0  0  0  0  0  0  0  0  0  0
    7.0585   19.7920   -1.0608 C   0  0  0  0  0  0  0  0  0  0  0  0
    6.5651   19.8856   -2.4650 C   0  0  0  0  0  0  0  0  0  0  0  0
    8.5377   19.5478   -1.0014 C   0  0  0  0  0  0  0  0  0  0  0  0
    9.5662   22.2776    2.1456 C   0  0  0  0  0  0  0  0  0  0  0  0
    8.9029   22.0602    3.3773 N   0  0  0  0  0  0  0  0  0  0  0  0
    8.5426   23.0689    4.2939 C   0  0  0  0  0  0  0  0  0  0  0  0
    8.7984   24.2796    3.9624 O   0  0  0  0  0  0  0  0  0  0  0  0
    8.6448   21.0429    3.6771 H   0  0  0  0  0  0  0  0  0  0  0  0
    7.9180   22.8821    5.5876 C   0  0  0  0  0  0  0  0  0  0  0  0
    7.4332   24.1513    6.1581 N   0  0  0  0  0  0  0  0  0  0  0  0
    7.8354   24.5869    7.4291 C   0  0  0  0  0  0  0  0  0  0  0  0
    8.6205   23.9107    8.1337 O   0  0  0  0  0  0  0  0  0  0  0  0
    6.7760   24.7364    5.6036 H   0  0  0  0  0  0  0  0  0  0  0  0
    7.3440   25.8553    7.9632 C   0  0  0  0  0  0  0  0  0  0  0  0
    6.1664   26.4447    7.6672 N   0  0  0  0  0  0  0  0  0  0  0  0
    6.0412   27.5984    8.3321 C   0  0  0  0  0  0  0  0  0  0  0  0
    5.0316   28.5697    8.3728 C   0  0  0  0  0  0  0  0  0  0  0  0
    5.1759   29.6863    9.1634 C   0  0  0  0  0  0  0  0  0  0  0  0
    6.3140   29.8572    9.9191 C   0  0  0  0  0  0  0  0  0  0  0  0
    7.3078   28.8851    9.8704 C   0  0  0  0  0  0  0  0  0  0  0  0
    7.1631   27.7765    9.0849 C   0  0  0  0  0  0  0  0  0  0  0  0
    7.9913   26.6774    8.8562 C   0  0  0  0  0  0  0  0  0  0  0  0
    9.2122   26.5414    9.4662 O   0  0  0  0  0  0  0  0  0  0  0  0
    5.4528   26.0563    7.0112 H   0  0  0  0  0  0  0  0  0  0  0  0
    9.8667   25.8034    9.3681 H   0  0  0  0  0  0  0  0  0  0  0  0
    7.0859   21.7423    5.9459 C   0  0  0  0  0  0  0  0  0  0  0  0
    7.5025   20.7263    6.8813 C   0  0  0  0  0  0  0  0  0  0  0  0
    8.8254   20.5033    7.1581 C   0  0  0  0  0  0  0  0  0  0  0  0
    9.2681   19.5517    8.0436 C   0  0  0  0  0  0  0  0  0  0  0  0
    8.3596   18.7529    8.7133 C   0  0  0  0  0  0  0  0  0  0  0  0
    7.0342   18.9560    8.4538 C   0  0  0  0  0  0  0  0  0  0  0  0
    6.5944   19.9107    7.5665 C   0  0  0  0  0  0  0  0  0  0  0  0
   10.5515   21.2970    1.6855 C   0  0  0  0  0  0  0  0  0  0  0  0
   12.9020   21.0165    1.2448 C   0  0  0  0  0  0  0  0  0  0  0  0
   11.8163   21.0344    2.3709 C   0  0  0  0  0  0  0  0  0  0  0  0
   12.0056   19.7417    3.0760 C   0  0  0  0  0  0  0  0  0  0  0  0
 71 72  1  0  0  0
 72 73  1  0  0  0
 72 70  1  0  0  0
 70 41  1  0  0  0
 41 42  1  0  0  0
 42 43  1  0  0  0
 43 44  2  0  0  0
 43 46  1  0  0  0
 46 63  1  0  0  0
 63 64  1  0  0  0
 64 65  2  0  0  0
 65 66  1  0  0  0
 66 67  2  0  0  0
 67 68  1  0  0  0
 68 69  2  0  0  0
 46 47  1  0  0  0
 47 48  1  0  0  0
 48 49  2  0  0  0
 48 51  1  0  0  0
 51 52  1  0  0  0
 52 53  1  0  0  0
 53 54  2  0  0  0
 54 55  1  0  0  0
 55 56  2  0  0  0
 56 57  1  0  0  0
 57 58  2  0  0  0
 58 59  1  0  0  0
 59 60  1  0  0  0
 41  1  1  0  0  0
  1  2  2  0  0  0
  1  3  1  0  0  0
  3  5  1  0  0  0
  5 38  1  0  0  0
 38 39  1  0  0  0
 38 40  1  0  0  0
  5  6  1  0  0  0
  6  7  2  0  0  0
  6  8  1  0  0  0
  8 10  1  0  0  0
 10 35  1  0  0  0
 35 36  1  0  0  0
 35 37  1  0  0  0
 10 11  1  0  0  0
 11 12  2  0  0  0
 11 13  1  0  0  0
 13 15  1  0  0  0
 15 32  1  0  0  0
 32 33  1  0  0  0
 32 34  1  0  0  0
 15 16  1  0  0  0
 16 17  2  0  0  0
 16 18  1  0  0  0
 18 20  1  0  0  0
 20 25  1  0  0  0
 25 26  1  0  0  0
 26 27  2  0  0  0
 27 28  1  0  0  0
 28 29  2  0  0  0
 29 30  1  0  0  0
 30 31  2  0  0  0
 20 21  1  0  0  0
 21 22  1  0  0  0
 21 23  2  0  0  0
 69 64  1  0  0  0
 59 51  2  0  0  0
 31 26  1  0  0  0
 58 53  1  0  0  0
 42 45  1  0  0  0
 47 50  1  0  0  0
 52 61  1  0  0  0
 60 62  1  0  0  0
  3  4  1  0  0  0
  8  9  1  0  0  0
 13 14  1  0  0  0
 18 19  1  0  0  0
 22 24  1  0  0  0
M  END
> <minimizedAffinity>
-6.56091

> <CNNscore>
0.0988431573

> <CNNaffinity>
6.7247338295

> <CNN_VS>
0.6646939516

> <CNNaffinity_variance>
0.7970927954

$$$$
[H]OC(=O)[C@@]([H])(N([H])C(=O)[C@@]([H])(N([H])C(=O)[C@@]([H])(N([H])C(=O)[C@@]([H])(N([H])C(=O)[C@@]([H])(N([H])C(=O)[C@@]([H])(N([H])C(=O)c1c(O[H])c2c([H])c([H])c([H])c([H])c2n1[H])C([H])([H])c1c([H])c([H])c([H])c([H])c1[H])C([H])([H])C([H])(C([H])([H])[H])C([H])([H])[H])C([H])(C([H])([H])[H])C([H])([H])[H])C([H])(C([H])([H])[H])C([H])([H])[H])C([H])(C([H])([H])[H])C([H])([H])[H])C([H])([H])c1c([H])c([H])c([H])c([H])c1[H]


 73 76  0  0  0  0  0  0  0  0999 V2000
   11.3033   20.2498    2.6088 C   0  0  0  0  0  0  0  0  0  0  0  0
   11.6484   19.1564    3.0832 O   0  0  0  0  0  0  0  0  0  0  0  0
   10.2421   21.0596    3.0544 N   0  0  0  0  0  0  0  0  0  0  0  0
   10.0506   21.9742    2.6081 H   0  0  0  0  0  0  0  0  0  0  0  0
    9.3414   20.6905    4.1675 C   0  0  0  0  0  0  0  0  0  0  0  0
    7.9676   20.8749    3.7312 C   0  0  0  0  0  0  0  0  0  0  0  0
    7.2302   21.6412    4.4438 O   0  0  0  0  0  0  0  0  0  0  0  0
    7.3461   20.2904    2.5925 N   0  0  0  0  0  0  0  0  0  0  0  0
    7.9212   19.6983    1.9698 H   0  0  0  0  0  0  0  0  0  0  0  0
    5.9134   20.5674    2.3524 C   0  0  0  0  0  0  0  0  0  0  0  0
    5.0966   19.4556    2.9054 C   0  0  0  0  0  0  0  0  0  0  0  0
    4.1840   19.8106    3.7165 O   0  0  0  0  0  0  0  0  0  0  0  0
    5.3082   18.1031    2.5557 N   0  0  0  0  0  0  0  0  0  0  0  0
    6.0845   17.9071    1.8749 H   0  0  0  0  0  0  0  0  0  0  0  0
    4.5281   17.0267    3.0770 C   0  0  0  0  0  0  0  0  0  0  0  0
    4.8652   16.6790    4.4696 C   0  0  0  0  0  0  0  0  0  0  0  0
    5.8513   15.9304    4.7160 O   0  0  0  0  0  0  0  0  0  0  0  0
    4.1287   17.1420    5.5902 N   0  0  0  0  0  0  0  0  0  0  0  0
    3.3196   17.7611    5.4293 H   0  0  0  0  0  0  0  0  0  0  0  0
    4.4640   16.7864    6.9513 C   0  0  0  0  0  0  0  0  0  0  0  0
    3.2668   16.2636    7.6734 C   0  0  0  0  0  0  0  0  0  0  0  0
    3.1295   16.3492    9.0497 O   0  0  0  0  0  0  0  0  0  0  0  0
    2.3104   15.7106    7.0537 O   0  0  0  0  0  0  0  0  0  0  0  0
    3.0765   15.5419    9.6565 H   0  0  0  0  0  0  0  0  0  0  0  0
    5.1815   17.8679    7.6831 C   0  0  0  0  0  0  0  0  0  0  0  0
    6.5780   17.5459    8.0030 C   0  0  0  0  0  0  0  0  0  0  0  0
    6.9980   16.2503    8.1532 C   0  0  0  0  0  0  0  0  0  0  0  0
    8.3287   15.9971    8.4563 C   0  0  0  0  0  0  0  0  0  0  0  0
    9.2317   17.0259    8.6076 C   0  0  0  0  0  0  0  0  0  0  0  0
    8.7803   18.3171    8.4505 C   0  0  0  0  0  0  0  0  0  0  0  0
    7.4664   18.5688    8.1510 C   0  0  0  0  0  0  0  0  0  0  0  0
    4.5996   15.7913    2.1832 C   0  0  0  0  0  0  0  0  0  0  0  0
    5.7394   15.7902    1.2323 C   0  0  0  0  0  0  0  0  0  0  0  0
    3.2589   15.4586    1.5958 C   0  0  0  0  0  0  0  0  0  0  0  0
    5.7287   20.7246    0.8679 C   0  0  0  0  0  0  0  0  0  0  0  0
    4.2948   20.8895    0.5042 C   0  0  0  0  0  0  0  0  0  0  0  0
    6.6297   21.7787    0.2920 C   0  0  0  0  0  0  0  0  0  0  0  0
    9.6671   21.6757    5.3276 C   0  0  0  0  0  0  0  0  0  0  0  0
    8.6690   21.5484    6.4284 C   0  0  0  0  0  0  0  0  0  0  0  0
   11.0588   21.3641    5.7938 C   0  0  0  0  0  0  0  0  0  0  0  0
   12.0763   20.8173    1.4231 C   0  0  0  0  0  0  0  0  0  0  0  0
   11.8669   22.2150    1.3380 N   0  0  0  0  0  0  0  0  0  0  0  0
   10.8825   22.8413    0.5466 C   0  0  0  0  0  0  0  0  0  0  0  0
   10.0897   22.0805   -0.1120 O   0  0  0  0  0  0  0  0  0  0  0  0
   12.5067   22.8906    1.9087 H   0  0  0  0  0  0  0  0  0  0  0  0
   10.6754   24.2661    0.3872 C   0  0  0  0  0  0  0  0  0  0  0  0
    9.5957   24.7702    1.2543 N   0  0  0  0  0  0  0  0  0  0  0  0
    9.5898   24.5297    2.6359 C   0  0  0  0  0  0  0  0  0  0  0  0
   10.5015   23.8712    3.1887 O   0  0  0  0  0  0  0  0  0  0  0  0
    8.8194   25.3164    0.8292 H   0  0  0  0  0  0  0  0  0  0  0  0
    8.5094   25.0512    3.4703 C   0  0  0  0  0  0  0  0  0  0  0  0
    7.3344   24.4403    3.7305 N   0  0  0  0  0  0  0  0  0  0  0  0
    6.5779   25.2025    4.5278 C   0  0  0  0  0  0  0  0  0  0  0  0
    5.2998   25.0313    5.0769 C   0  0  0  0  0  0  0  0  0  0  0  0
    4.7544   26.0064    5.8796 C   0  0  0  0  0  0  0  0  0  0  0  0
    5.4604   27.1576    6.1477 C   0  0  0  0  0  0  0  0  0  0  0  0
    6.7283   27.3144    5.5973 C   0  0  0  0  0  0  0  0  0  0  0  0
    7.2689   26.3450    4.8005 C   0  0  0  0  0  0  0  0  0  0  0  0
    8.4916   26.2557    4.1347 C   0  0  0  0  0  0  0  0  0  0  0  0
    9.4349   27.2492    4.1998 O   0  0  0  0  0  0  0  0  0  0  0  0
    7.0535   23.5046    3.3616 H   0  0  0  0  0  0  0  0  0  0  0  0
   10.3253   27.2775    3.7652 H   0  0  0  0  0  0  0  0  0  0  0  0
   11.7402   25.2374    0.1811 C   0  0  0  0  0  0  0  0  0  0  0  0
   12.7297   25.1120   -0.8611 C   0  0  0  0  0  0  0  0  0  0  0  0
   12.5244   25.6291   -2.1128 C   0  0  0  0  0  0  0  0  0  0  0  0
   13.4384   25.5382   -3.1335 C   0  0  0  0  0  0  0  0  0  0  0  0
   14.6454   24.8960   -2.9270 C   0  0  0  0  0  0  0  0  0  0  0  0
   14.8735   24.3716   -1.6867 C   0  0  0  0  0  0  0  0  0  0  0  0
   13.9556   24.4651   -0.6665 C   0  0  0  0  0  0  0  0  0  0  0  0
   13.4434   20.3097    1.5549 C   0  0  0  0  0  0  0  0  0  0  0  0
   15.4407   21.4818    0.8957 C   0  0  0  0  0  0  0  0  0  0  0  0
   14.4344   20.3584    0.4806 C   0  0  0  0  0  0  0  0  0  0  0  0
   14.0047   20.7453   -0.8868 C   0  0  0  0  0  0  0  0  0  0  0  0
 71 72  1  0  0  0
 72 73  1  0  0  0
 72 70  1  0  0  0
 70 41  1  0  0  0
 41 42  1  0  0  0
 42 43  1  0  0  0
 43 44  2  0  0  0
 43 46  1  0  0  0
 46 63  1  0  0  0
 63 64  1  0  0  0
 64 65  2  0  0  0
 65 66  1  0  0  0
 66 67  2  0  0  0
 67 68  1  0  0  0
 68 69  2  0  0  0
 46 47  1  0  0  0
 47 48  1  0  0  0
 48 49  2  0  0  0
 48 51  1  0  0  0
 51 52  1  0  0  0
 52 53  1  0  0  0
 53 54  2  0  0  0
 54 55  1  0  0  0
 55 56  2  0  0  0
 56 57  1  0  0  0
 57 58  2  0  0  0
 58 59  1  0  0  0
 59 60  1  0  0  0
 41  1  1  0  0  0
  1  2  2  0  0  0
  1  3  1  0  0  0
  3  5  1  0  0  0
  5 38  1  0  0  0
 38 39  1  0  0  0
 38 40  1  0  0  0
  5  6  1  0  0  0
  6  7  2  0  0  0
  6  8  1  0  0  0
  8 10  1  0  0  0
 10 35  1  0  0  0
 35 36  1  0  0  0
 35 37  1  0  0  0
 10 11  1  0  0  0
 11 12  2  0  0  0
 11 13  1  0  0  0
 13 15  1  0  0  0
 15 32  1  0  0  0
 32 33  1  0  0  0
 32 34  1  0  0  0
 15 16  1  0  0  0
 16 17  2  0  0  0
 16 18  1  0  0  0
 18 20  1  0  0  0
 20 25  1  0  0  0
 25 26  1  0  0  0
 26 27  2  0  0  0
 27 28  1  0  0  0
 28 29  2  0  0  0
 29 30  1  0  0  0
 30 31  2  0  0  0
 20 21  1  0  0  0
 21 22  1  0  0  0
 21 23  2  0  0  0
 69 64  1  0  0  0
 59 51  2  0  0  0
 31 26  1  0  0  0
 58 53  1  0  0  0
 42 45  1  0  0  0
 47 50  1  0  0  0
 52 61  1  0  0  0
 60 62  1  0  0  0
  3  4  1  0  0  0
  8  9  1  0  0  0
 13 14  1  0  0  0
 18 19  1  0  0  0
 22 24  1  0  0  0
M  END
> <minimizedAffinity>
-7.59608

> <CNNscore>
0.0629614741

> <CNNaffinity>
7.2751212120

> <CNN_VS>
0.4580523670

> <CNNaffinity_variance>
0.9131735563

$$$$
[H]OC(=O)[C@@]([H])(N([H])C(=O)[C@@]([H])(N([H])C(=O)[C@@]([H])(N([H])C(=O)[C@@]([H])(N([H])C(=O)[C@@]([H])(N([H])C(=O)[C@@]([H])(N([H])C(=O)c1c(O[H])c2c([H])c([H])c([H])c([H])c2n1[H])C([H])([H])c1c([H])c([H])c([H])c([H])c1[H])C([H])([H])C([H])(C([H])([H])[H])C([H])([H])[H])C([H])(C([H])([H])[H])C([H])([H])[H])C([H])(C([H])([H])[H])C([H])([H])[H])C([H])(C([H])([H])[H])C([H])([H])[H])C([H])([H])c1c([H])c([H])c([H])c([H])c1[H]


 73 76  0  0  0  0  0  0  0  0999 V2000
    8.3786   22.6516    1.1029 C   0  0  0  0  0  0  0  0  0  0  0  0
    8.0262   23.7402    0.6230 O   0  0  0  0  0  0  0  0  0  0  0  0
    7.8948   21.3803    0.7420 N   0  0  0  0  0  0  0  0  0  0  0  0
    8.2750   20.5242    1.1834 H   0  0  0  0  0  0  0  0  0  0  0  0
    6.8402   21.1624   -0.2714 C   0  0  0  0  0  0  0  0  0  0  0  0
    5.5595   21.0633    0.4079 C   0  0  0  0  0  0  0  0  0  0  0  0
    5.4951   21.5338    1.5967 O   0  0  0  0  0  0  0  0  0  0  0  0
    4.3609   20.4936   -0.1053 N   0  0  0  0  0  0  0  0  0  0  0  0
    4.3628   20.1403   -1.0770 H   0  0  0  0  0  0  0  0  0  0  0  0
    3.1721   20.4448    0.7730 C   0  0  0  0  0  0  0  0  0  0  0  0
    3.1474   19.1477    1.4982 C   0  0  0  0  0  0  0  0  0  0  0  0
    2.0174   18.5651    1.5197 O   0  0  0  0  0  0  0  0  0  0  0  0
    4.2915   18.5938    2.1149 N   0  0  0  0  0  0  0  0  0  0  0  0
    5.1822   19.1470    2.0417 H   0  0  0  0  0  0  0  0  0  0  0  0
    4.2816   17.3471    2.8111 C   0  0  0  0  0  0  0  0  0  0  0  0
    4.8149   17.4373    4.1826 C   0  0  0  0  0  0  0  0  0  0  0  0
    4.2777   18.2111    5.0230 O   0  0  0  0  0  0  0  0  0  0  0  0
    5.9321   16.6902    4.6368 N   0  0  0  0  0  0  0  0  0  0  0  0
    6.3941   16.0422    3.9806 H   0  0  0  0  0  0  0  0  0  0  0  0
    6.4517   16.7943    5.9824 C   0  0  0  0  0  0  0  0  0  0  0  0
    7.8582   17.2940    5.9709 C   0  0  0  0  0  0  0  0  0  0  0  0
    8.8980   16.6094    6.5798 O   0  0  0  0  0  0  0  0  0  0  0  0
    8.1693   18.3798    5.3976 O   0  0  0  0  0  0  0  0  0  0  0  0
    9.4299   16.9787    7.3566 H   0  0  0  0  0  0  0  0  0  0  0  0
    6.2621   15.5533    6.7848 C   0  0  0  0  0  0  0  0  0  0  0  0
    5.2690   15.6839    7.8585 C   0  0  0  0  0  0  0  0  0  0  0  0
    4.7013   16.8925    8.1661 C   0  0  0  0  0  0  0  0  0  0  0  0
    3.7674   16.9648    9.1904 C   0  0  0  0  0  0  0  0  0  0  0  0
    3.4028   15.8426    9.9007 C   0  0  0  0  0  0  0  0  0  0  0  0
    3.9900   14.6423    9.5686 C   0  0  0  0  0  0  0  0  0  0  0  0
    4.9124   14.5693    8.5572 C   0  0  0  0  0  0  0  0  0  0  0  0
    5.0024   16.2546    2.0258 C   0  0  0  0  0  0  0  0  0  0  0  0
    5.7964   16.7523    0.8745 C   0  0  0  0  0  0  0  0  0  0  0  0
    4.0960   15.0927    1.7402 C   0  0  0  0  0  0  0  0  0  0  0  0
    1.9610   20.6315   -0.0994 C   0  0  0  0  0  0  0  0  0  0  0  0
    1.3197   21.9564    0.1222 C   0  0  0  0  0  0  0  0  0  0  0  0
    2.2470   20.3253   -1.5412 C   0  0  0  0  0  0  0  0  0  0  0  0
    7.1815   19.8098   -0.9617 C   0  0  0  0  0  0  0  0  0  0  0  0
    6.6703   19.7846   -2.3625 C   0  0  0  0  0  0  0  0  0  0  0  0
    8.6722   19.6495   -0.9059 C   0  0  0  0  0  0  0  0  0  0  0  0
    9.4416   22.6359    2.1962 C   0  0  0  0  0  0  0  0  0  0  0  0
    8.8447   22.3251    3.4418 N   0  0  0  0  0  0  0  0  0  0  0  0
    8.4407   23.2706    4.4064 C   0  0  0  0  0  0  0  0  0  0  0  0
    8.5874   24.5083    4.1102 O   0  0  0  0  0  0  0  0  0  0  0  0
    8.6793   21.2809    3.7135 H   0  0  0  0  0  0  0  0  0  0  0  0
    7.8824   22.9913    5.7136 C   0  0  0  0  0  0  0  0  0  0  0  0
    7.2405   24.1773    6.3077 N   0  0  0  0  0  0  0  0  0  0  0  0
    5.8779   24.4486    6.1167 C   0  0  0  0  0  0  0  0  0  0  0  0
    5.1515   23.6949    5.4279 O   0  0  0  0  0  0  0  0  0  0  0  0
    7.8139   24.8283    6.8814 H   0  0  0  0  0  0  0  0  0  0  0  0
    5.2687   25.6284    6.7271 C   0  0  0  0  0  0  0  0  0  0  0  0
    5.8923   26.7890    7.0199 N   0  0  0  0  0  0  0  0  0  0  0  0
    5.0351   27.6529    7.5748 C   0  0  0  0  0  0  0  0  0  0  0  0
    5.1777   28.9633    8.0511 C   0  0  0  0  0  0  0  0  0  0  0  0
    4.0986   29.6266    8.5880 C   0  0  0  0  0  0  0  0  0  0  0  0
    2.8716   29.0065    8.6620 C   0  0  0  0  0  0  0  0  0  0  0  0
    2.7435   27.7062    8.1847 C   0  0  0  0  0  0  0  0  0  0  0  0
    3.8160   27.0488    7.6514 C   0  0  0  0  0  0  0  0  0  0  0  0
    3.9568   25.7679    7.1168 C   0  0  0  0  0  0  0  0  0  0  0  0
    2.9082   24.8869    7.0413 O   0  0  0  0  0  0  0  0  0  0  0  0
    6.9018   26.9862    6.8400 H   0  0  0  0  0  0  0  0  0  0  0  0
    2.9095   23.9631    6.6818 H   0  0  0  0  0  0  0  0  0  0  0  0
    7.2270   21.7445    6.0824 C   0  0  0  0  0  0  0  0  0  0  0  0
    7.3789   21.1280    7.3776 C   0  0  0  0  0  0  0  0  0  0  0  0
    8.4338   21.4298    8.1977 C   0  0  0  0  0  0  0  0  0  0  0  0
    8.6168   20.8722    9.4392 C   0  0  0  0  0  0  0  0  0  0  0  0
    7.7083   19.9499    9.9249 C   0  0  0  0  0  0  0  0  0  0  0  0
    6.6478   19.6322    9.1251 C   0  0  0  0  0  0  0  0  0  0  0  0
    6.4675   20.1933    7.8822 C   0  0  0  0  0  0  0  0  0  0  0  0
   10.5222   21.7855    1.6933 C   0  0  0  0  0  0  0  0  0  0  0  0
   12.8275   21.1410    1.4314 C   0  0  0  0  0  0  0  0  0  0  0  0
   11.7000   21.4199    2.4794 C   0  0  0  0  0  0  0  0  0  0  0  0
   11.6659   20.1896    3.3096 C   0  0  0  0  0  0  0  0  0  0  0  0
 71 72  1  0  0  0
 72 73  1  0  0  0
 72 70  1  0  0  0
 70 41  1  0  0  0
 41 42  1  0  0  0
 42 43  1  0  0  0
 43 44  2  0  0  0
 43 46  1  0  0  0
 46 63  1  0  0  0
 63 64  1  0  0  0
 64 65  2  0  0  0
 65 66  1  0  0  0
 66 67  2  0  0  0
 67 68  1  0  0  0
 68 69  2  0  0  0
 46 47  1  0  0  0
 47 48  1  0  0  0
 48 49  2  0  0  0
 48 51  1  0  0  0
 51 52  1  0  0  0
 52 53  1  0  0  0
 53 54  2  0  0  0
 54 55  1  0  0  0
 55 56  2  0  0  0
 56 57  1  0  0  0
 57 58  2  0  0  0
 58 59  1  0  0  0
 59 60  1  0  0  0
 41  1  1  0  0  0
  1  2  2  0  0  0
  1  3  1  0  0  0
  3  5  1  0  0  0
  5 38  1  0  0  0
 38 39  1  0  0  0
 38 40  1  0  0  0
  5  6  1  0  0  0
  6  7  2  0  0  0
  6  8  1  0  0  0
  8 10  1  0  0  0
 10 35  1  0  0  0
 35 36  1  0  0  0
 35 37  1  0  0  0
 10 11  1  0  0  0
 11 12  2  0  0  0
 11 13  1  0  0  0
 13 15  1  0  0  0
 15 32  1  0  0  0
 32 33  1  0  0  0
 32 34  1  0  0  0
 15 16  1  0  0  0
 16 17  2  0  0  0
 16 18  1  0  0  0
 18 20  1  0  0  0
 20 25  1  0  0  0
 25 26  1  0  0  0
 26 27  2  0  0  0
 27 28  1  0  0  0
 28 29  2  0  0  0
 29 30  1  0  0  0
 30 31  2  0  0  0
 20 21  1  0  0  0
 21 22  1  0  0  0
 21 23  2  0  0  0
 69 64  1  0  0  0
 59 51  2  0  0  0
 31 26  1  0  0  0
 58 53  1  0  0  0
 42 45  1  0  0  0
 47 50  1  0  0  0
 52 61  1  0  0  0
 60 62  1  0  0  0
  3  4  1  0  0  0
  8  9  1  0  0  0
 13 14  1  0  0  0
 18 19  1  0  0  0
 22 24  1  0  0  0
M  END
> <minimizedAffinity>
-6.57897

> <CNNscore>
0.0628157482

> <CNNaffinity>
6.5451493263

> <CNN_VS>
0.4111384451

> <CNNaffinity_variance>
1.2195813656

$$$$
[H]OC(=O)[C@@]([H])(N([H])C(=O)[C@@]([H])(N([H])C(=O)[C@@]([H])(N([H])C(=O)[C@@]([H])(N([H])C(=O)[C@@]([H])(N([H])C(=O)[C@@]([H])(N([H])C(=O)c1c(O[H])c2c([H])c([H])c([H])c([H])c2n1[H])C([H])([H])c1c([H])c([H])c([H])c([H])c1[H])C([H])([H])C([H])(C([H])([H])[H])C([H])([H])[H])C([H])(C([H])([H])[H])C([H])([H])[H])C([H])(C([H])([H])[H])C([H])([H])[H])C([H])(C([H])([H])[H])C([H])([H])[H])C([H])([H])c1c([H])c([H])c([H])c([H])c1[H]


 73 76  0  0  0  0  0  0  0  0999 V2000
   10.3911   20.3406    0.0618 C   0  0  0  0  0  0  0  0  0  0  0  0
   10.2909   19.1112   -0.0719 O   0  0  0  0  0  0  0  0  0  0  0  0
    9.5275   21.1775    0.7930 N   0  0  0  0  0  0  0  0  0  0  0  0
    9.7133   22.1934    0.8685 H   0  0  0  0  0  0  0  0  0  0  0  0
    8.3225   20.6937    1.5003 C   0  0  0  0  0  0  0  0  0  0  0  0
    7.1474   21.1958    0.8084 C   0  0  0  0  0  0  0  0  0  0  0  0
    6.6455   22.2925    1.2376 O   0  0  0  0  0  0  0  0  0  0  0  0
    6.4862   20.5966   -0.2999 N   0  0  0  0  0  0  0  0  0  0  0  0
    6.8865   19.7316   -0.7005 H   0  0  0  0  0  0  0  0  0  0  0  0
    5.2672   21.2463   -0.8280 C   0  0  0  0  0  0  0  0  0  0  0  0
    4.0997   20.8556    0.0046 C   0  0  0  0  0  0  0  0  0  0  0  0
    3.2351   21.7709    0.1818 O   0  0  0  0  0  0  0  0  0  0  0  0
    3.9514   19.5633    0.5562 N   0  0  0  0  0  0  0  0  0  0  0  0
    4.7165   18.8721    0.3526 H   0  0  0  0  0  0  0  0  0  0  0  0
    2.8330   19.1745    1.3543 C   0  0  0  0  0  0  0  0  0  0  0  0
    3.2148   18.5524    2.6353 C   0  0  0  0  0  0  0  0  0  0  0  0
    4.0526   17.6084    2.6576 O   0  0  0  0  0  0  0  0  0  0  0  0
    2.6835   18.9543    3.8877 N   0  0  0  0  0  0  0  0  0  0  0  0
    2.0006   19.7270    3.9107 H   0  0  0  0  0  0  0  0  0  0  0  0
    3.0592   18.3299    5.1368 C   0  0  0  0  0  0  0  0  0  0  0  0
    1.9441   17.4916    5.6676 C   0  0  0  0  0  0  0  0  0  0  0  0
    0.7525   18.0353    6.1205 O   0  0  0  0  0  0  0  0  0  0  0  0
    2.0371   16.2298    5.7293 O   0  0  0  0  0  0  0  0  0  0  0  0
    0.4343   17.9627    7.0777 H   0  0  0  0  0  0  0  0  0  0  0  0
    3.6146   19.2899    6.1318 C   0  0  0  0  0  0  0  0  0  0  0  0
    5.0565   19.1388    6.3650 C   0  0  0  0  0  0  0  0  0  0  0  0
    5.7500   20.0170    7.1557 C   0  0  0  0  0  0  0  0  0  0  0  0
    7.1126   19.8321    7.3452 C   0  0  0  0  0  0  0  0  0  0  0  0
    7.7768   18.7813    6.7524 C   0  0  0  0  0  0  0  0  0  0  0  0
    7.0532   17.9152    5.9637 C   0  0  0  0  0  0  0  0  0  0  0  0
    5.7075   18.0965    5.7756 C   0  0  0  0  0  0  0  0  0  0  0  0
    1.8745   18.2706    0.5834 C   0  0  0  0  0  0  0  0  0  0  0  0
    2.4849   17.5880   -0.5850 C   0  0  0  0  0  0  0  0  0  0  0  0
    0.5608   18.9508    0.3292 C   0  0  0  0  0  0  0  0  0  0  0  0
    5.1133   20.8155   -2.2609 C   0  0  0  0  0  0  0  0  0  0  0  0
    5.6652   19.4522   -2.4900 C   0  0  0  0  0  0  0  0  0  0  0  0
    3.7092   20.9975   -2.7610 C   0  0  0  0  0  0  0  0  0  0  0  0
    8.3942   21.2982    2.9328 C   0  0  0  0  0  0  0  0  0  0  0  0
    7.2154   20.8803    3.7452 C   0  0  0  0  0  0  0  0  0  0  0  0
    9.6861   20.8384    3.5417 C   0  0  0  0  0  0  0  0  0  0  0  0
   11.5506   21.0650   -0.6137 C   0  0  0  0  0  0  0  0  0  0  0  0
   11.7450   22.3297   -0.0078 N   0  0  0  0  0  0  0  0  0  0  0  0
   11.2367   23.5504   -0.4966 C   0  0  0  0  0  0  0  0  0  0  0  0
   10.5060   23.5012   -1.5477 O   0  0  0  0  0  0  0  0  0  0  0  0
   12.3390   22.4033    0.9050 H   0  0  0  0  0  0  0  0  0  0  0  0
   11.4623   24.8687    0.0600 C   0  0  0  0  0  0  0  0  0  0  0  0
   11.0350   24.9571    1.4675 N   0  0  0  0  0  0  0  0  0  0  0  0
    9.7133   24.6896    1.8525 C   0  0  0  0  0  0  0  0  0  0  0  0
    8.8400   24.3688    1.0130 O   0  0  0  0  0  0  0  0  0  0  0  0
   11.7318   25.2258    2.1914 H   0  0  0  0  0  0  0  0  0  0  0  0
    9.3229   24.7769    3.2580 C   0  0  0  0  0  0  0  0  0  0  0  0
    9.3837   23.7818    4.1678 N   0  0  0  0  0  0  0  0  0  0  0  0
    8.9441   24.2082    5.3568 C   0  0  0  0  0  0  0  0  0  0  0  0
    8.8042   23.5801    6.6019 C   0  0  0  0  0  0  0  0  0  0  0  0
    8.3086   24.2787    7.6785 C   0  0  0  0  0  0  0  0  0  0  0  0
    7.9456   25.5995    7.5392 C   0  0  0  0  0  0  0  0  0  0  0  0
    8.0904   26.2110    6.2983 C   0  0  0  0  0  0  0  0  0  0  0  0
    8.5831   25.5161    5.2300 C   0  0  0  0  0  0  0  0  0  0  0  0
    8.8202   25.8821    3.9048 C   0  0  0  0  0  0  0  0  0  0  0  0
    8.5628   27.1455    3.4370 O   0  0  0  0  0  0  0  0  0  0  0  0
    9.7251   22.8144    3.9725 H   0  0  0  0  0  0  0  0  0  0  0  0
    8.6966   27.4979    2.5202 H   0  0  0  0  0  0  0  0  0  0  0  0
   12.6167   25.7044   -0.2380 C   0  0  0  0  0  0  0  0  0  0  0  0
   13.3336   25.6404   -1.4881 C   0  0  0  0  0  0  0  0  0  0  0  0
   14.5516   25.0215   -1.5870 C   0  0  0  0  0  0  0  0  0  0  0  0
   15.2675   24.9320   -2.7554 C   0  0  0  0  0  0  0  0  0  0  0  0
   14.7659   25.4853   -3.9191 C   0  0  0  0  0  0  0  0  0  0  0  0
   13.5527   26.1084   -3.8458 C   0  0  0  0  0  0  0  0  0  0  0  0
   12.8382   26.1956   -2.6736 C   0  0  0  0  0  0  0  0  0  0  0  0
   12.6604   20.1102   -0.6390 C   0  0  0  0  0  0  0  0  0  0  0  0
   14.6674   20.8586    0.4609 C   0  0  0  0  0  0  0  0  0  0  0  0
   14.0454   20.4830   -0.9244 C   0  0  0  0  0  0  0  0  0  0  0  0
   14.3178   21.6680   -1.7762 C   0  0  0  0  0  0  0  0  0  0  0  0
 71 72  1  0  0  0
 72 73  1  0  0  0
 72 70  1  0  0  0
 70 41  1  0  0  0
 41 42  1  0  0  0
 42 43  1  0  0  0
 43 44  2  0  0  0
 43 46  1  0  0  0
 46 63  1  0  0  0
 63 64  1  0  0  0
 64 65  2  0  0  0
 65 66  1  0  0  0
 66 67  2  0  0  0
 67 68  1  0  0  0
 68 69  2  0  0  0
 46 47  1  0  0  0
 47 48  1  0  0  0
 48 49  2  0  0  0
 48 51  1  0  0  0
 51 52  1  0  0  0
 52 53  1  0  0  0
 53 54  2  0  0  0
 54 55  1  0  0  0
 55 56  2  0  0  0
 56 57  1  0  0  0
 57 58  2  0  0  0
 58 59  1  0  0  0
 59 60  1  0  0  0
 41  1  1  0  0  0
  1  2  2  0  0  0
  1  3  1  0  0  0
  3  5  1  0  0  0
  5 38  1  0  0  0
 38 39  1  0  0  0
 38 40  1  0  0  0
  5  6  1  0  0  0
  6  7  2  0  0  0
  6  8  1  0  0  0
  8 10  1  0  0  0
 10 35  1  0  0  0
 35 36  1  0  0  0
 35 37  1  0  0  0
 10 11  1  0  0  0
 11 12  2  0  0  0
 11 13  1  0  0  0
 13 15  1  0  0  0
 15 32  1  0  0  0
 32 33  1  0  0  0
 32 34  1  0  0  0
 15 16  1  0  0  0
 16 17  2  0  0  0
 16 18  1  0  0  0
 18 20  1  0  0  0
 20 25  1  0  0  0
 25 26  1  0  0  0
 26 27  2  0  0  0
 27 28  1  0  0  0
 28 29  2  0  0  0
 29 30  1  0  0  0
 30 31  2  0  0  0
 20 21  1  0  0  0
 21 22  1  0  0  0
 21 23  2  0  0  0
 69 64  1  0  0  0
 59 51  2  0  0  0
 31 26  1  0  0  0
 58 53  1  0  0  0
 42 45  1  0  0  0
 47 50  1  0  0  0
 52 61  1  0  0  0
 60 62  1  0  0  0
  3  4  1  0  0  0
  8  9  1  0  0  0
 13 14  1  0  0  0
 18 19  1  0  0  0
 22 24  1  0  0  0
M  END
> <minimizedAffinity>
-7.99820

> <CNNscore>
0.0624267161

> <CNNaffinity>
7.3001823425

> <CNN_VS>
0.4557264149

> <CNNaffinity_variance>
1.3988102674

$$$$
[H]OC(=O)[C@@]([H])(N([H])C(=O)[C@@]([H])(N([H])C(=O)[C@@]([H])(N([H])C(=O)[C@@]([H])(N([H])C(=O)[C@@]([H])(N([H])C(=O)[C@@]([H])(N([H])C(=O)c1c(O[H])c2c([H])c([H])c([H])c([H])c2n1[H])C([H])([H])c1c([H])c([H])c([H])c([H])c1[H])C([H])([H])C([H])(C([H])([H])[H])C([H])([H])[H])C([H])(C([H])([H])[H])C([H])([H])[H])C([H])(C([H])([H])[H])C([H])([H])[H])C([H])(C([H])([H])[H])C([H])([H])[H])C([H])([H])c1c([H])c([H])c([H])c([H])c1[H]


 73 76  0  0  0  0  0  0  0  0999 V2000
   11.7243   20.0496    3.4504 C   0  0  0  0  0  0  0  0  0  0  0  0
   12.2853   18.9657    3.6739 O   0  0  0  0  0  0  0  0  0  0  0  0
   10.9573   20.8000    4.3611 N   0  0  0  0  0  0  0  0  0  0  0  0
   10.5516   21.7122    4.0858 H   0  0  0  0  0  0  0  0  0  0  0  0
   10.6786   20.3689    5.7477 C   0  0  0  0  0  0  0  0  0  0  0  0
    9.6907   19.3038    5.7111 C   0  0  0  0  0  0  0  0  0  0  0  0
    8.8947   19.2847    4.7088 O   0  0  0  0  0  0  0  0  0  0  0  0
    9.5071   18.2739    6.6757 N   0  0  0  0  0  0  0  0  0  0  0  0
   10.1575   18.2323    7.4784 H   0  0  0  0  0  0  0  0  0  0  0  0
    8.4029   17.3108    6.4759 C   0  0  0  0  0  0  0  0  0  0  0  0
    7.1270   18.0526    6.3000 C   0  0  0  0  0  0  0  0  0  0  0  0
    6.7716   18.7555    7.2982 O   0  0  0  0  0  0  0  0  0  0  0  0
    6.3636   17.9913    5.1127 N   0  0  0  0  0  0  0  0  0  0  0  0
    6.7393   17.3858    4.3402 H   0  0  0  0  0  0  0  0  0  0  0  0
    5.1385   18.7020    4.9301 C   0  0  0  0  0  0  0  0  0  0  0  0
    4.3360   18.2054    3.7974 C   0  0  0  0  0  0  0  0  0  0  0  0
    3.0922   18.4177    3.7595 O   0  0  0  0  0  0  0  0  0  0  0  0
    4.8852   17.4767    2.7112 N   0  0  0  0  0  0  0  0  0  0  0  0
    5.8994   17.2889    2.7036 H   0  0  0  0  0  0  0  0  0  0  0  0
    4.0857   16.9868    1.6102 C   0  0  0  0  0  0  0  0  0  0  0  0
    3.7109   15.5575    1.8213 C   0  0  0  0  0  0  0  0  0  0  0  0
    4.5391   14.5077    1.4574 O   0  0  0  0  0  0  0  0  0  0  0  0
    2.6053   15.2350    2.3486 O   0  0  0  0  0  0  0  0  0  0  0  0
    4.2949   13.8218    0.7556 H   0  0  0  0  0  0  0  0  0  0  0  0
    4.6912   17.2579    0.2761 C   0  0  0  0  0  0  0  0  0  0  0  0
    4.9931   18.6747    0.0355 C   0  0  0  0  0  0  0  0  0  0  0  0
    4.0144   19.6327    0.0771 C   0  0  0  0  0  0  0  0  0  0  0  0
    4.3498   20.9590   -0.1579 C   0  0  0  0  0  0  0  0  0  0  0  0
    5.6488   21.3261   -0.4313 C   0  0  0  0  0  0  0  0  0  0  0  0
    6.6104   20.3414   -0.4661 C   0  0  0  0  0  0  0  0  0  0  0  0
    6.2807   19.0312   -0.2341 C   0  0  0  0  0  0  0  0  0  0  0  0
    5.3698   20.2056    4.8055 C   0  0  0  0  0  0  0  0  0  0  0  0
    4.3296   21.0400    5.4577 C   0  0  0  0  0  0  0  0  0  0  0  0
    5.7311   20.5925    3.4008 C   0  0  0  0  0  0  0  0  0  0  0  0
    8.3733   16.4057    7.6770 C   0  0  0  0  0  0  0  0  0  0  0  0
    8.8917   17.0869    8.8947 C   0  0  0  0  0  0  0  0  0  0  0  0
    7.0330   15.7554    7.8652 C   0  0  0  0  0  0  0  0  0  0  0  0
   10.0910   21.6137    6.4742 C   0  0  0  0  0  0  0  0  0  0  0  0
    9.3071   22.4595    5.5285 C   0  0  0  0  0  0  0  0  0  0  0  0
    9.2460   21.1066    7.6055 C   0  0  0  0  0  0  0  0  0  0  0  0
   11.8494   20.6741    2.0649 C   0  0  0  0  0  0  0  0  0  0  0  0
   11.5788   22.0619    2.1375 N   0  0  0  0  0  0  0  0  0  0  0  0
   10.8945   22.8076    1.1561 C   0  0  0  0  0  0  0  0  0  0  0  0
   10.4463   22.1672    0.1411 O   0  0  0  0  0  0  0  0  0  0  0  0
   11.9218   22.6324    3.0025 H   0  0  0  0  0  0  0  0  0  0  0  0
   10.6502   24.2355    1.1657 C   0  0  0  0  0  0  0  0  0  0  0  0
    9.7959   24.6446    2.2946 N   0  0  0  0  0  0  0  0  0  0  0  0
    8.4059   24.4600    2.2690 C   0  0  0  0  0  0  0  0  0  0  0  0
    7.8332   23.9434    1.2815 O   0  0  0  0  0  0  0  0  0  0  0  0
   10.2363   25.0817    3.1293 H   0  0  0  0  0  0  0  0  0  0  0  0
    7.5871   24.8679    3.4086 C   0  0  0  0  0  0  0  0  0  0  0  0
    6.7075   24.0939    4.0786 N   0  0  0  0  0  0  0  0  0  0  0  0
    6.1288   24.7894    5.0636 C   0  0  0  0  0  0  0  0  0  0  0  0
    5.1658   24.4569    6.0261 C   0  0  0  0  0  0  0  0  0  0  0  0
    4.7425   25.3977    6.9364 C   0  0  0  0  0  0  0  0  0  0  0  0
    5.2616   26.6725    6.9068 C   0  0  0  0  0  0  0  0  0  0  0  0
    6.2175   26.9890    5.9470 C   0  0  0  0  0  0  0  0  0  0  0  0
    6.6372   26.0536    5.0438 C   0  0  0  0  0  0  0  0  0  0  0  0
    7.5602   26.1100    3.9992 C   0  0  0  0  0  0  0  0  0  0  0  0
    8.2608   27.2511    3.7023 O   0  0  0  0  0  0  0  0  0  0  0  0
    6.5056   23.0930    3.8598 H   0  0  0  0  0  0  0  0  0  0  0  0
    8.9319   27.3885    2.9857 H   0  0  0  0  0  0  0  0  0  0  0  0
   11.6353   25.2442    0.8026 C   0  0  0  0  0  0  0  0  0  0  0  0
   12.6679   25.0191   -0.1792 C   0  0  0  0  0  0  0  0  0  0  0  0
   13.9312   24.6323    0.1825 C   0  0  0  0  0  0  0  0  0  0  0  0
   14.9436   24.4021   -0.7162 C   0  0  0  0  0  0  0  0  0  0  0  0
   14.7160   24.5592   -2.0710 C   0  0  0  0  0  0  0  0  0  0  0  0
   13.4638   24.9448   -2.4566 C   0  0  0  0  0  0  0  0  0  0  0  0
   12.4519   25.1740   -1.5534 C   0  0  0  0  0  0  0  0  0  0  0  0
   13.1408   20.2279    1.5385 C   0  0  0  0  0  0  0  0  0  0  0  0
   13.5498   20.7264   -0.7815 C   0  0  0  0  0  0  0  0  0  0  0  0
   13.9961   21.0494    0.6827 C   0  0  0  0  0  0  0  0  0  0  0  0
   15.4611   20.8095    0.6753 C   0  0  0  0  0  0  0  0  0  0  0  0
 71 72  1  0  0  0
 72 73  1  0  0  0
 72 70  1  0  0  0
 70 41  1  0  0  0
 41 42  1  0  0  0
 42 43  1  0  0  0
 43 44  2  0  0  0
 43 46  1  0  0  0
 46 63  1  0  0  0
 63 64  1  0  0  0
 64 65  2  0  0  0
 65 66  1  0  0  0
 66 67  2  0  0  0
 67 68  1  0  0  0
 68 69  2  0  0  0
 46 47  1  0  0  0
 47 48  1  0  0  0
 48 49  2  0  0  0
 48 51  1  0  0  0
 51 52  1  0  0  0
 52 53  1  0  0  0
 53 54  2  0  0  0
 54 55  1  0  0  0
 55 56  2  0  0  0
 56 57  1  0  0  0
 57 58  2  0  0  0
 58 59  1  0  0  0
 59 60  1  0  0  0
 41  1  1  0  0  0
  1  2  2  0  0  0
  1  3  1  0  0  0
  3  5  1  0  0  0
  5 38  1  0  0  0
 38 39  1  0  0  0
 38 40  1  0  0  0
  5  6  1  0  0  0
  6  7  2  0  0  0
  6  8  1  0  0  0
  8 10  1  0  0  0
 10 35  1  0  0  0
 35 36  1  0  0  0
 35 37  1  0  0  0
 10 11  1  0  0  0
 11 12  2  0  0  0
 11 13  1  0  0  0
 13 15  1  0  0  0
 15 32  1  0  0  0
 32 33  1  0  0  0
 32 34  1  0  0  0
 15 16  1  0  0  0
 16 17  2  0  0  0
 16 18  1  0  0  0
 18 20  1  0  0  0
 20 25  1  0  0  0
 25 26  1  0  0  0
 26 27  2  0  0  0
 27 28  1  0  0  0
 28 29  2  0  0  0
 29 30  1  0  0  0
 30 31  2  0  0  0
 20 21  1  0  0  0
 21 22  1  0  0  0
 21 23  2  0  0  0
 69 64  1  0  0  0
 59 51  2  0  0  0
 31 26  1  0  0  0
 58 53  1  0  0  0
 42 45  1  0  0  0
 47 50  1  0  0  0
 52 61  1  0  0  0
 60 62  1  0  0  0
  3  4  1  0  0  0
  8  9  1  0  0  0
 13 14  1  0  0  0
 18 19  1  0  0  0
 22 24  1  0  0  0
M  END
> <minimizedAffinity>
-9.09517

> <CNNscore>
0.0569445752

> <CNNaffinity>
7.0328583717

> <CNN_VS>
0.4004831314

> <CNNaffinity_variance>
1.8403596878

$$$$
[H]OC(=O)[C@@]([H])(N([H])C(=O)[C@@]([H])(N([H])C(=O)[C@@]([H])(N([H])C(=O)[C@@]([H])(N([H])C(=O)[C@@]([H])(N([H])C(=O)[C@@]([H])(N([H])C(=O)c1c(O[H])c2c([H])c([H])c([H])c([H])c2n1[H])C([H])([H])c1c([H])c([H])c([H])c([H])c1[H])C([H])([H])C([H])(C([H])([H])[H])C([H])([H])[H])C([H])(C([H])([H])[H])C([H])([H])[H])C([H])(C([H])([H])[H])C([H])([H])[H])C([H])(C([H])([H])[H])C([H])([H])[H])C([H])([H])c1c([H])c([H])c([H])c([H])c1[H]


 73 76  0  0  0  0  0  0  0  0999 V2000
    9.0379   21.6375    5.5319 C   0  0  0  0  0  0  0  0  0  0  0  0
   10.2696   21.5314    5.4254 O   0  0  0  0  0  0  0  0  0  0  0  0
    8.2215   21.0047    6.4876 N   0  0  0  0  0  0  0  0  0  0  0  0
    7.2013   21.1807    6.5122 H   0  0  0  0  0  0  0  0  0  0  0  0
    8.7334   20.0688    7.5116 C   0  0  0  0  0  0  0  0  0  0  0  0
    8.3092   18.7236    7.1620 C   0  0  0  0  0  0  0  0  0  0  0  0
    8.9429   18.1435    6.2130 O   0  0  0  0  0  0  0  0  0  0  0  0
    7.2570   17.9758    7.7605 N   0  0  0  0  0  0  0  0  0  0  0  0
    6.7492   18.3953    8.5575 H   0  0  0  0  0  0  0  0  0  0  0  0
    6.9502   16.6343    7.2191 C   0  0  0  0  0  0  0  0  0  0  0  0
    5.5731   16.6311    6.6598 C   0  0  0  0  0  0  0  0  0  0  0  0
    5.1636   15.5009    6.2454 O   0  0  0  0  0  0  0  0  0  0  0  0
    4.7705   17.7921    6.5957 N   0  0  0  0  0  0  0  0  0  0  0  0
    5.1938   18.6801    6.9656 H   0  0  0  0  0  0  0  0  0  0  0  0
    3.4451   17.8013    6.0643 C   0  0  0  0  0  0  0  0  0  0  0  0
    3.3624   17.2836    4.6863 C   0  0  0  0  0  0  0  0  0  0  0  0
    2.3304   16.6673    4.3007 O   0  0  0  0  0  0  0  0  0  0  0  0
    4.4015   17.4333    3.7322 N   0  0  0  0  0  0  0  0  0  0  0  0
    5.2583   17.9369    4.0084 H   0  0  0  0  0  0  0  0  0  0  0  0
    4.3122   16.9129    2.3859 C   0  0  0  0  0  0  0  0  0  0  0  0
    5.4087   15.9355    2.1210 C   0  0  0  0  0  0  0  0  0  0  0  0
    5.7105   15.4802    0.8473 O   0  0  0  0  0  0  0  0  0  0  0  0
    6.1218   15.4716    3.0595 O   0  0  0  0  0  0  0  0  0  0  0  0
    5.6226   14.5130    0.5651 H   0  0  0  0  0  0  0  0  0  0  0  0
    4.1930   17.9768    1.3497 C   0  0  0  0  0  0  0  0  0  0  0  0
    2.9807   17.8747    0.5274 C   0  0  0  0  0  0  0  0  0  0  0  0
    1.8068   18.4722    0.9047 C   0  0  0  0  0  0  0  0  0  0  0  0
    0.6876   18.3462    0.0934 C   0  0  0  0  0  0  0  0  0  0  0  0
    0.7388   17.6317   -1.0829 C   0  0  0  0  0  0  0  0  0  0  0  0
    1.9323   17.0428   -1.4358 C   0  0  0  0  0  0  0  0  0  0  0  0
    3.0385   17.1664   -0.6357 C   0  0  0  0  0  0  0  0  0  0  0  0
    2.8079   19.1853    6.1568 C   0  0  0  0  0  0  0  0  0  0  0  0
    1.3264   19.1834    6.0631 C   0  0  0  0  0  0  0  0  0  0  0  0
    3.5163   20.1771    5.2807 C   0  0  0  0  0  0  0  0  0  0  0  0
    7.1090   15.6486    8.3441 C   0  0  0  0  0  0  0  0  0  0  0  0
    8.5379   15.4622    8.7174 C   0  0  0  0  0  0  0  0  0  0  0  0
    6.2108   15.9628    9.5056 C   0  0  0  0  0  0  0  0  0  0  0  0
    8.0760   20.5008    8.8547 C   0  0  0  0  0  0  0  0  0  0  0  0
    8.2534   19.4478    9.8957 C   0  0  0  0  0  0  0  0  0  0  0  0
    8.7088   21.8002    9.2579 C   0  0  0  0  0  0  0  0  0  0  0  0
    8.2865   22.5335    4.5530 C   0  0  0  0  0  0  0  0  0  0  0  0
    8.5226   22.0992    3.2263 N   0  0  0  0  0  0  0  0  0  0  0  0
    9.4039   22.7163    2.3153 C   0  0  0  0  0  0  0  0  0  0  0  0
   10.0740   23.7225    2.7392 O   0  0  0  0  0  0  0  0  0  0  0  0
    7.9892   21.2276    2.8426 H   0  0  0  0  0  0  0  0  0  0  0  0
    9.6281   22.3389    0.9348 C   0  0  0  0  0  0  0  0  0  0  0  0
    8.3653   22.1283    0.2050 N   0  0  0  0  0  0  0  0  0  0  0  0
    7.9780   20.8567   -0.2420 C   0  0  0  0  0  0  0  0  0  0  0  0
    8.6939   19.8477   -0.0428 O   0  0  0  0  0  0  0  0  0  0  0  0
    7.7481   22.9440    0.0170 H   0  0  0  0  0  0  0  0  0  0  0  0
    6.7148   20.6791   -0.9549 C   0  0  0  0  0  0  0  0  0  0  0  0
    6.5608   20.1587   -2.1906 N   0  0  0  0  0  0  0  0  0  0  0  0
    5.2685   20.1483   -2.5355 C   0  0  0  0  0  0  0  0  0  0  0  0
    4.5935   19.7229   -3.6877 C   0  0  0  0  0  0  0  0  0  0  0  0
    3.2251   19.8380   -3.7712 C   0  0  0  0  0  0  0  0  0  0  0  0
    2.5100   20.3731   -2.7234 C   0  0  0  0  0  0  0  0  0  0  0  0
    3.1922   20.7904   -1.5853 C   0  0  0  0  0  0  0  0  0  0  0  0
    4.5512   20.6752   -1.5036 C   0  0  0  0  0  0  0  0  0  0  0  0
    5.4601   21.0130   -0.5005 C   0  0  0  0  0  0  0  0  0  0  0  0
    5.0644   21.5723    0.6877 O   0  0  0  0  0  0  0  0  0  0  0  0
    7.3397   19.8129   -2.7941 H   0  0  0  0  0  0  0  0  0  0  0  0
    5.6303   21.8449    1.4545 H   0  0  0  0  0  0  0  0  0  0  0  0
   10.6888   22.8753    0.0939 C   0  0  0  0  0  0  0  0  0  0  0  0
   11.9458   22.1993   -0.1153 C   0  0  0  0  0  0  0  0  0  0  0  0
   12.0384   21.0814   -0.9016 C   0  0  0  0  0  0  0  0  0  0  0  0
   13.2128   20.4085   -1.1329 C   0  0  0  0  0  0  0  0  0  0  0  0
   14.3897   20.8514   -0.5580 C   0  0  0  0  0  0  0  0  0  0  0  0
   14.3230   21.9644    0.2309 C   0  0  0  0  0  0  0  0  0  0  0  0
   13.1447   22.6363    0.4599 C   0  0  0  0  0  0  0  0  0  0  0  0
    6.9092   22.5995    5.0454 C   0  0  0  0  0  0  0  0  0  0  0  0
    6.5685   24.9348    4.5674 C   0  0  0  0  0  0  0  0  0  0  0  0
    6.3084   23.8042    5.6169 C   0  0  0  0  0  0  0  0  0  0  0  0
    6.8511   24.3554    6.8840 C   0  0  0  0  0  0  0  0  0  0  0  0
 71 72  1  0  0  0
 72 73  1  0  0  0
 72 70  1  0  0  0
 70 41  1  0  0  0
 41 42  1  0  0  0
 42 43  1  0  0  0
 43 44  2  0  0  0
 43 46  1  0  0  0
 46 63  1  0  0  0
 63 64  1  0  0  0
 64 65  2  0  0  0
 65 66  1  0  0  0
 66 67  2  0  0  0
 67 68  1  0  0  0
 68 69  2  0  0  0
 46 47  1  0  0  0
 47 48  1  0  0  0
 48 49  2  0  0  0
 48 51  1  0  0  0
 51 52  1  0  0  0
 52 53  1  0  0  0
 53 54  2  0  0  0
 54 55  1  0  0  0
 55 56  2  0  0  0
 56 57  1  0  0  0
 57 58  2  0  0  0
 58 59  1  0  0  0
 59 60  1  0  0  0
 41  1  1  0  0  0
  1  2  2  0  0  0
  1  3  1  0  0  0
  3  5  1  0  0  0
  5 38  1  0  0  0
 38 39  1  0  0  0
 38 40  1  0  0  0
  5  6  1  0  0  0
  6  7  2  0  0  0
  6  8  1  0  0  0
  8 10  1  0  0  0
 10 35  1  0  0  0
 35 36  1  0  0  0
 35 37  1  0  0  0
 10 11  1  0  0  0
 11 12  2  0  0  0
 11 13  1  0  0  0
 13 15  1  0  0  0
 15 32  1  0  0  0
 32 33  1  0  0  0
 32 34  1  0  0  0
 15 16  1  0  0  0
 16 17  2  0  0  0
 16 18  1  0  0  0
 18 20  1  0  0  0
 20 25  1  0  0  0
 25 26  1  0  0  0
 26 27  2  0  0  0
 27 28  1  0  0  0
 28 29  2  0  0  0
 29 30  1  0  0  0
 30 31  2  0  0  0
 20 21  1  0  0  0
 21 22  1  0  0  0
 21 23  2  0  0  0
 69 64  1  0  0  0
 59 51  2  0  0  0
 31 26  1  0  0  0
 58 53  1  0  0  0
 42 45  1  0  0  0
 47 50  1  0  0  0
 52 61  1  0  0  0
 60 62  1  0  0  0
  3  4  1  0  0  0
  8  9  1  0  0  0
 13 14  1  0  0  0
 18 19  1  0  0  0
 22 24  1  0  0  0
M  END
> <minimizedAffinity>
-7.79581

> <CNNscore>
0.0516573451

> <CNNaffinity>
6.5225067139

> <CNN_VS>
0.3369353712

> <CNNaffinity_variance>
2.5488371849

$$$$
[H]OC(=O)[C@@]([H])(N([H])C(=O)[C@@]([H])(N([H])C(=O)[C@@]([H])(N([H])C(=O)[C@@]([H])(N([H])C(=O)[C@@]([H])(N([H])C(=O)[C@@]([H])(N([H])C(=O)c1c(O[H])c2c([H])c([H])c([H])c([H])c2n1[H])C([H])([H])c1c([H])c([H])c([H])c([H])c1[H])C([H])([H])C([H])(C([H])([H])[H])C([H])([H])[H])C([H])(C([H])([H])[H])C([H])([H])[H])C([H])(C([H])([H])[H])C([H])([H])[H])C([H])(C([H])([H])[H])C([H])([H])[H])C([H])([H])c1c([H])c([H])c([H])c([H])c1[H]


 73 76  0  0  0  0  0  0  0  0999 V2000
    5.9302   20.9536    0.0265 C   0  0  0  0  0  0  0  0  0  0  0  0
    5.7863   22.1699    0.2249 O   0  0  0  0  0  0  0  0  0  0  0  0
    4.9667   19.9499    0.2385 N   0  0  0  0  0  0  0  0  0  0  0  0
    5.1748   18.9606    0.0144 H   0  0  0  0  0  0  0  0  0  0  0  0
    3.6143   20.2128    0.7756 C   0  0  0  0  0  0  0  0  0  0  0  0
    3.1493   19.0192    1.4619 C   0  0  0  0  0  0  0  0  0  0  0  0
    2.0570   18.4982    1.0446 O   0  0  0  0  0  0  0  0  0  0  0  0
    3.7774   18.3628    2.5570 N   0  0  0  0  0  0  0  0  0  0  0  0
    4.6827   18.7305    2.8952 H   0  0  0  0  0  0  0  0  0  0  0  0
    3.1091   17.1837    3.1484 C   0  0  0  0  0  0  0  0  0  0  0  0
    2.7971   17.4576    4.5756 C   0  0  0  0  0  0  0  0  0  0  0  0
    1.7795   18.1943    4.7717 O   0  0  0  0  0  0  0  0  0  0  0  0
    3.5655   16.9365    5.6406 N   0  0  0  0  0  0  0  0  0  0  0  0
    4.3869   16.3348    5.3802 H   0  0  0  0  0  0  0  0  0  0  0  0
    3.2739   17.1892    7.0154 C   0  0  0  0  0  0  0  0  0  0  0  0
    3.7358   18.5101    7.4795 C   0  0  0  0  0  0  0  0  0  0  0  0
    3.9195   18.7219    8.7103 O   0  0  0  0  0  0  0  0  0  0  0  0
    3.9932   19.5984    6.6066 N   0  0  0  0  0  0  0  0  0  0  0  0
    3.8604   19.4619    5.5928 H   0  0  0  0  0  0  0  0  0  0  0  0
    4.4372   20.8925    7.0750 C   0  0  0  0  0  0  0  0  0  0  0  0
    3.3783   21.9238    6.8677 C   0  0  0  0  0  0  0  0  0  0  0  0
    3.0727   22.4385    5.6178 O   0  0  0  0  0  0  0  0  0  0  0  0
    2.7027   22.3815    7.8366 O   0  0  0  0  0  0  0  0  0  0  0  0
    3.1962   23.4111    5.3694 H   0  0  0  0  0  0  0  0  0  0  0  0
    5.7714   21.2864    6.5412 C   0  0  0  0  0  0  0  0  0  0  0  0
    6.7998   20.2477    6.6819 C   0  0  0  0  0  0  0  0  0  0  0  0
    7.2185   19.8166    7.9133 C   0  0  0  0  0  0  0  0  0  0  0  0
    8.1942   18.8325    7.9942 C   0  0  0  0  0  0  0  0  0  0  0  0
    8.7463   18.2835    6.8582 C   0  0  0  0  0  0  0  0  0  0  0  0
    8.3052   18.7367    5.6351 C   0  0  0  0  0  0  0  0  0  0  0  0
    7.3417   19.7084    5.5536 C   0  0  0  0  0  0  0  0  0  0  0  0
    3.8122   16.0841    7.9204 C   0  0  0  0  0  0  0  0  0  0  0  0
    5.1232   15.5315    7.4966 C   0  0  0  0  0  0  0  0  0  0  0  0
    2.7515   15.0728    8.2449 C   0  0  0  0  0  0  0  0  0  0  0  0
    4.0375   16.0116    2.9843 C   0  0  0  0  0  0  0  0  0  0  0  0
    3.6261   15.1353    1.8536 C   0  0  0  0  0  0  0  0  0  0  0  0
    5.4786   16.4307    2.9389 C   0  0  0  0  0  0  0  0  0  0  0  0
    2.7112   20.5018   -0.4586 C   0  0  0  0  0  0  0  0  0  0  0  0
    2.4384   21.9624   -0.5868 C   0  0  0  0  0  0  0  0  0  0  0  0
    3.4211   19.9562   -1.6625 C   0  0  0  0  0  0  0  0  0  0  0  0
    7.2672   20.4445   -0.5013 C   0  0  0  0  0  0  0  0  0  0  0  0
    8.3056   21.3206   -0.1032 N   0  0  0  0  0  0  0  0  0  0  0  0
    8.7435   21.5100    1.2235 C   0  0  0  0  0  0  0  0  0  0  0  0
    8.1848   20.7996    2.1314 O   0  0  0  0  0  0  0  0  0  0  0  0
    8.8220   21.9197   -0.8554 H   0  0  0  0  0  0  0  0  0  0  0  0
    9.7594   22.4377    1.6772 C   0  0  0  0  0  0  0  0  0  0  0  0
   10.4485   23.0985    0.5546 N   0  0  0  0  0  0  0  0  0  0  0  0
   11.8462   23.0864    0.4408 C   0  0  0  0  0  0  0  0  0  0  0  0
   12.5666   22.5165    1.2931 O   0  0  0  0  0  0  0  0  0  0  0  0
    9.8828   23.5861   -0.1692 H   0  0  0  0  0  0  0  0  0  0  0  0
   12.4994   23.7430   -0.6896 C   0  0  0  0  0  0  0  0  0  0  0  0
   12.1324   24.9118   -1.2561 N   0  0  0  0  0  0  0  0  0  0  0  0
   12.9485   25.2156   -2.2712 C   0  0  0  0  0  0  0  0  0  0  0  0
   12.9962   26.2939   -3.1652 C   0  0  0  0  0  0  0  0  0  0  0  0
   13.9687   26.3457   -4.1370 C   0  0  0  0  0  0  0  0  0  0  0  0
   14.9009   25.3376   -4.2381 C   0  0  0  0  0  0  0  0  0  0  0  0
   14.8429   24.2737   -3.3438 C   0  0  0  0  0  0  0  0  0  0  0  0
   13.8767   24.2237   -2.3790 C   0  0  0  0  0  0  0  0  0  0  0  0
   13.5983   23.2890   -1.3815 C   0  0  0  0  0  0  0  0  0  0  0  0
   14.3510   22.1553   -1.2099 O   0  0  0  0  0  0  0  0  0  0  0  0
   11.3249   25.4973   -0.9470 H   0  0  0  0  0  0  0  0  0  0  0  0
   14.2328   21.4381   -0.5360 H   0  0  0  0  0  0  0  0  0  0  0  0
    9.6334   23.2917    2.8497 C   0  0  0  0  0  0  0  0  0  0  0  0
    9.7873   22.8048    4.1988 C   0  0  0  0  0  0  0  0  0  0  0  0
   10.6073   21.7474    4.4919 C   0  0  0  0  0  0  0  0  0  0  0  0
   10.7885   21.2531    5.7601 C   0  0  0  0  0  0  0  0  0  0  0  0
   10.1238   21.8265    6.8284 C   0  0  0  0  0  0  0  0  0  0  0  0
    9.2998   22.8825    6.5614 C   0  0  0  0  0  0  0  0  0  0  0  0
    9.1212   23.3753    5.2896 C   0  0  0  0  0  0  0  0  0  0  0  0
    7.3400   19.0337   -0.1159 C   0  0  0  0  0  0  0  0  0  0  0  0
    6.7665   18.4783   -2.3876 C   0  0  0  0  0  0  0  0  0  0  0  0
    7.4218   17.9334   -1.0758 C   0  0  0  0  0  0  0  0  0  0  0  0
    6.6865   16.6734   -0.8007 C   0  0  0  0  0  0  0  0  0  0  0  0
 71 72  1  0  0  0
 72 73  1  0  0  0
 72 70  1  0  0  0
 70 41  1  0  0  0
 41 42  1  0  0  0
 42 43  1  0  0  0
 43 44  2  0  0  0
 43 46  1  0  0  0
 46 63  1  0  0  0
 63 64  1  0  0  0
 64 65  2  0  0  0
 65 66  1  0  0  0
 66 67  2  0  0  0
 67 68  1  0  0  0
 68 69  2  0  0  0
 46 47  1  0  0  0
 47 48  1  0  0  0
 48 49  2  0  0  0
 48 51  1  0  0  0
 51 52  1  0  0  0
 52 53  1  0  0  0
 53 54  2  0  0  0
 54 55  1  0  0  0
 55 56  2  0  0  0
 56 57  1  0  0  0
 57 58  2  0  0  0
 58 59  1  0  0  0
 59 60  1  0  0  0
 41  1  1  0  0  0
  1  2  2  0  0  0
  1  3  1  0  0  0
  3  5  1  0  0  0
  5 38  1  0  0  0
 38 39  1  0  0  0
 38 40  1  0  0  0
  5  6  1  0  0  0
  6  7  2  0  0  0
  6  8  1  0  0  0
  8 10  1  0  0  0
 10 35  1  0  0  0
 35 36  1  0  0  0
 35 37  1  0  0  0
 10 11  1  0  0  0
 11 12  2  0  0  0
 11 13  1  0  0  0
 13 15  1  0  0  0
 15 32  1  0  0  0
 32 33  1  0  0  0
 32 34  1  0  0  0
 15 16  1  0  0  0
 16 17  2  0  0  0
 16 18  1  0  0  0
 18 20  1  0  0  0
 20 25  1  0  0  0
 25 26  1  0  0  0
 26 27  2  0  0  0
 27 28  1  0  0  0
 28 29  2  0  0  0
 29 30  1  0  0  0
 30 31  2  0  0  0
 20 21  1  0  0  0
 21 22  1  0  0  0
 21 23  2  0  0  0
 69 64  1  0  0  0
 59 51  2  0  0  0
 31 26  1  0  0  0
 58 53  1  0  0  0
 42 45  1  0  0  0
 47 50  1  0  0  0
 52 61  1  0  0  0
 60 62  1  0  0  0
  3  4  1  0  0  0
  8  9  1  0  0  0
 13 14  1  0  0  0
 18 19  1  0  0  0
 22 24  1  0  0  0
M  END
> <minimizedAffinity>
-7.60112

> <CNNscore>
0.0473501086

> <CNNaffinity>
7.1599068642

> <CNN_VS>
0.3390223682

> <CNNaffinity_variance>
1.0917863846

$$$$
[H]N=C(N([H])[H])N([H])C([H])([H])C([H])([H])C([H])([H])[C@@]([H])(C(=O)c1nc2c([H])c([H])c([H])c([H])c2s1)N([H])C(=O)[C@@]([H])(N([H])C(=O)C([H])([H])[H])C([H])([H])C([H])([H])C([H])([H])N([H])C(=N[H])N([H])[H]


 44 45  0  0  0  0  0  0  0  0999 V2000
   14.4182   23.3334   -0.8828 C   0  0  0  0  0  0  0  0  0  0  0  0
   12.2047   23.7237    0.1415 C   0  0  0  0  0  0  0  0  0  0  0  0
   12.7829   23.4077    1.2419 O   0  0  0  0  0  0  0  0  0  0  0  0
   12.9923   23.7173   -1.0272 N   0  0  0  0  0  0  0  0  0  0  0  0
   12.6756   23.9519   -1.9837 H   0  0  0  0  0  0  0  0  0  0  0  0
   10.7556   24.0817    0.1402 C   0  0  0  0  0  0  0  0  0  0  0  0
    9.3200   20.7129   -1.1618 C   0  0  0  0  0  0  0  0  0  0  0  0
   10.0508   21.6907   -0.3077 C   0  0  0  0  0  0  0  0  0  0  0  0
   10.6376   21.1947    0.7097 O   0  0  0  0  0  0  0  0  0  0  0  0
   10.0787   23.0653   -0.6236 N   0  0  0  0  0  0  0  0  0  0  0  0
    9.5686   23.3805   -1.4846 H   0  0  0  0  0  0  0  0  0  0  0  0
   10.2908   24.2185    1.5433 C   0  0  0  0  0  0  0  0  0  0  0  0
    8.7865   24.2425    1.6749 C   0  0  0  0  0  0  0  0  0  0  0  0
    8.3361   24.5988    3.0707 C   0  0  0  0  0  0  0  0  0  0  0  0
    7.6408   25.8509    3.1486 N   0  0  0  0  0  0  0  0  0  0  0  0
    6.6453   25.9862    2.7823 H   0  0  0  0  0  0  0  0  0  0  0  0
    8.1870   27.0376    3.7073 C   0  0  0  0  0  0  0  0  0  0  0  0
    9.3544   27.0499    4.5062 N   0  0  0  0  0  0  0  0  0  0  0  0
    7.5871   28.1547    3.4762 N   0  0  0  0  0  0  0  0  0  0  0  0
    9.5943   26.2818    5.1367 H   0  0  0  0  0  0  0  0  0  0  0  0
    9.9832   27.8925    4.4277 H   0  0  0  0  0  0  0  0  0  0  0  0
    6.7276   28.1797    2.8962 H   0  0  0  0  0  0  0  0  0  0  0  0
   15.1605   24.5894   -1.1634 C   0  0  0  0  0  0  0  0  0  0  0  0
   15.6749   25.2305   -0.2302 O   0  0  0  0  0  0  0  0  0  0  0  0
   15.2729   25.0471   -2.5599 C   0  0  0  0  0  0  0  0  0  0  0  0
   15.5687   26.2681   -2.9772 N   0  0  0  0  0  0  0  0  0  0  0  0
   15.6524   26.5144   -4.2583 C   0  0  0  0  0  0  0  0  0  0  0  0
   15.9606   27.7683   -4.8418 C   0  0  0  0  0  0  0  0  0  0  0  0
   16.0094   27.8562   -6.2041 C   0  0  0  0  0  0  0  0  0  0  0  0
   15.7907   26.8521   -7.0867 C   0  0  0  0  0  0  0  0  0  0  0  0
   15.4834   25.5995   -6.5182 C   0  0  0  0  0  0  0  0  0  0  0  0
   15.4258   25.4799   -5.1226 C   0  0  0  0  0  0  0  0  0  0  0  0
   15.1029   24.1968   -4.0262 S   0  0  0  0  0  0  0  0  0  0  0  0
   14.7158   22.2621   -1.9328 C   0  0  0  0  0  0  0  0  0  0  0  0
   13.5425   21.3579   -2.1035 C   0  0  0  0  0  0  0  0  0  0  0  0
   13.4261   20.2179   -1.1509 C   0  0  0  0  0  0  0  0  0  0  0  0
   14.5150   20.1085   -0.2423 N   0  0  0  0  0  0  0  0  0  0  0  0
   15.3295   19.4949   -0.5581 H   0  0  0  0  0  0  0  0  0  0  0  0
   14.6611   20.7113    1.0287 C   0  0  0  0  0  0  0  0  0  0  0  0
   15.9237   21.2212    1.4278 N   0  0  0  0  0  0  0  0  0  0  0  0
   13.6282   20.7732    1.8252 N   0  0  0  0  0  0  0  0  0  0  0  0
   16.2638   22.1913    1.2697 H   0  0  0  0  0  0  0  0  0  0  0  0
   16.5782   20.5830    1.9196 H   0  0  0  0  0  0  0  0  0  0  0  0
   13.7154   21.2154    2.7712 H   0  0  0  0  0  0  0  0  0  0  0  0
  7  8  1  0  0  0
  8  9  2  0  0  0
  8 10  1  0  0  0
 10  6  1  0  0  0
  6 12  1  0  0  0
 12 13  1  0  0  0
 13 14  1  0  0  0
 14 15  1  0  0  0
 15 17  1  0  0  0
 17 18  1  0  0  0
 17 19  2  0  0  0
  6  2  1  0  0  0
  2  3  2  0  0  0
  2  4  1  0  0  0
  4  1  1  0  0  0
  1 34  1  0  0  0
 34 35  1  0  0  0
 35 36  1  0  0  0
 36 37  1  0  0  0
 37 39  1  0  0  0
 39 40  1  0  0  0
 39 41  2  0  0  0
  1 23  1  0  0  0
 23 24  2  0  0  0
 23 25  1  0  0  0
 25 26  2  0  0  0
 26 27  1  0  0  0
 27 28  2  0  0  0
 28 29  1  0  0  0
 29 30  2  0  0  0
 30 31  1  0  0  0
 31 32  2  0  0  0
 32 33  1  0  0  0
 33 25  1  0  0  0
 32 27  1  0  0  0
 10 11  1  0  0  0
 15 16  1  0  0  0
 18 20  1  0  0  0
 18 21  1  0  0  0
 19 22  1  0  0  0
  4  5  1  0  0  0
 37 38  1  0  0  0
 40 42  1  0  0  0
 40 43  1  0  0  0
 41 44  1  0  0  0
M  END
> <minimizedAffinity>
-7.52148

> <CNNscore>
0.4275180399

> <CNNaffinity>
7.6767683029

> <CNN_VS>
3.2819569111

> <CNNaffinity_variance>
0.0805023387

$$$$
[H]N=C(N([H])[H])N([H])C([H])([H])C([H])([H])C([H])([H])[C@@]([H])(C(=O)c1nc2c([H])c([H])c([H])c([H])c2s1)N([H])C(=O)[C@@]([H])(N([H])C(=O)C([H])([H])[H])C([H])([H])C([H])([H])C([H])([H])N([H])C(=N[H])N([H])[H]


 44 45  0  0  0  0  0  0  0  0999 V2000
   12.7592   24.6539   -0.4915 C   0  0  0  0  0  0  0  0  0  0  0  0
   13.6053   22.5087    0.3937 C   0  0  0  0  0  0  0  0  0  0  0  0
   14.5371   23.2198    0.9144 O   0  0  0  0  0  0  0  0  0  0  0  0
   12.6221   23.1825   -0.3585 N   0  0  0  0  0  0  0  0  0  0  0  0
   11.8097   22.7533   -0.8336 H   0  0  0  0  0  0  0  0  0  0  0  0
   13.5948   21.0306    0.6018 C   0  0  0  0  0  0  0  0  0  0  0  0
   11.6018   20.2559    3.8472 C   0  0  0  0  0  0  0  0  0  0  0  0
   11.9073   20.4675    2.4045 C   0  0  0  0  0  0  0  0  0  0  0  0
   10.9206   20.3202    1.6106 O   0  0  0  0  0  0  0  0  0  0  0  0
   13.2057   20.8080    1.9706 N   0  0  0  0  0  0  0  0  0  0  0  0
   13.9542   20.9111    2.6987 H   0  0  0  0  0  0  0  0  0  0  0  0
   12.7027   20.4073   -0.4077 C   0  0  0  0  0  0  0  0  0  0  0  0
   13.3204   20.3280   -1.7835 C   0  0  0  0  0  0  0  0  0  0  0  0
   14.5840   21.1458   -1.8956 C   0  0  0  0  0  0  0  0  0  0  0  0
   14.6819   21.8880   -3.1191 N   0  0  0  0  0  0  0  0  0  0  0  0
   14.3399   21.5075   -4.0582 H   0  0  0  0  0  0  0  0  0  0  0  0
   15.2399   23.1905   -3.2240 C   0  0  0  0  0  0  0  0  0  0  0  0
   15.6537   23.9469   -2.1026 N   0  0  0  0  0  0  0  0  0  0  0  0
   15.3718   23.7065   -4.3977 N   0  0  0  0  0  0  0  0  0  0  0  0
   15.1746   23.8960   -1.2010 H   0  0  0  0  0  0  0  0  0  0  0  0
   16.4903   24.5762   -2.2280 H   0  0  0  0  0  0  0  0  0  0  0  0
   15.0760   23.1789   -5.2403 H   0  0  0  0  0  0  0  0  0  0  0  0
   11.8910   25.1962    0.5853 C   0  0  0  0  0  0  0  0  0  0  0  0
   12.1570   26.2936    1.1062 O   0  0  0  0  0  0  0  0  0  0  0  0
   10.7189   24.4107    1.0111 C   0  0  0  0  0  0  0  0  0  0  0  0
   10.0007   23.5837    0.2677 N   0  0  0  0  0  0  0  0  0  0  0  0
    8.9957   22.9385    0.7993 C   0  0  0  0  0  0  0  0  0  0  0  0
    8.1475   22.0261    0.1241 C   0  0  0  0  0  0  0  0  0  0  0  0
    7.1387   21.4335    0.8293 C   0  0  0  0  0  0  0  0  0  0  0  0
    6.8486   21.6237    2.1387 C   0  0  0  0  0  0  0  0  0  0  0  0
    7.6858   22.5290    2.8215 C   0  0  0  0  0  0  0  0  0  0  0  0
    8.7289   23.1527    2.1227 C   0  0  0  0  0  0  0  0  0  0  0  0
    9.9569   24.2837    2.5294 S   0  0  0  0  0  0  0  0  0  0  0  0
   12.2397   25.0419   -1.8766 C   0  0  0  0  0  0  0  0  0  0  0  0
   12.8890   26.3001   -2.3442 C   0  0  0  0  0  0  0  0  0  0  0  0
   13.2906   26.3584   -3.7781 C   0  0  0  0  0  0  0  0  0  0  0  0
   14.6558   26.7004   -3.9841 N   0  0  0  0  0  0  0  0  0  0  0  0
   15.2985   26.5945   -3.1384 H   0  0  0  0  0  0  0  0  0  0  0  0
   15.2758   27.1614   -5.1688 C   0  0  0  0  0  0  0  0  0  0  0  0
   15.4261   26.2850   -6.2745 N   0  0  0  0  0  0  0  0  0  0  0  0
   15.7175   28.3892   -5.2184 N   0  0  0  0  0  0  0  0  0  0  0  0
   14.7412   26.1602   -7.0474 H   0  0  0  0  0  0  0  0  0  0  0  0
   16.2877   25.7090   -6.3313 H   0  0  0  0  0  0  0  0  0  0  0  0
   16.1802   28.7502   -6.0866 H   0  0  0  0  0  0  0  0  0  0  0  0
  7  8  1  0  0  0
  8  9  2  0  0  0
  8 10  1  0  0  0
 10  6  1  0  0  0
  6 12  1  0  0  0
 12 13  1  0  0  0
 13 14  1  0  0  0
 14 15  1  0  0  0
 15 17  1  0  0  0
 17 18  1  0  0  0
 17 19  2  0  0  0
  6  2  1  0  0  0
  2  3  2  0  0  0
  2  4  1  0  0  0
  4  1  1  0  0  0
  1 34  1  0  0  0
 34 35  1  0  0  0
 35 36  1  0  0  0
 36 37  1  0  0  0
 37 39  1  0  0  0
 39 40  1  0  0  0
 39 41  2  0  0  0
  1 23  1  0  0  0
 23 24  2  0  0  0
 23 25  1  0  0  0
 25 26  2  0  0  0
 26 27  1  0  0  0
 27 28  2  0  0  0
 28 29  1  0  0  0
 29 30  2  0  0  0
 30 31  1  0  0  0
 31 32  2  0  0  0
 32 33  1  0  0  0
 33 25  1  0  0  0
 32 27  1  0  0  0
 10 11  1  0  0  0
 15 16  1  0  0  0
 18 20  1  0  0  0
 18 21  1  0  0  0
 19 22  1  0  0  0
  4  5  1  0  0  0
 37 38  1  0  0  0
 40 42  1  0  0  0
 40 43  1  0  0  0
 41 44  1  0  0  0
M  END
> <minimizedAffinity>
-6.12436

> <CNNscore>
0.3883861005

> <CNNaffinity>
7.6913924217

> <CNN_VS>
2.9872298241

> <CNNaffinity_variance>
0.1369280368

$$$$
[H]N=C(N([H])[H])N([H])C([H])([H])C([H])([H])C([H])([H])[C@@]([H])(C(=O)c1nc2c([H])c([H])c([H])c([H])c2s1)N([H])C(=O)[C@@]([H])(N([H])C(=O)C([H])([H])[H])C([H])([H])C([H])([H])C([H])([H])N([H])C(=N[H])N([H])[H]


 44 45  0  0  0  0  0  0  0  0999 V2000
   14.1350   24.2426   -1.6479 C   0  0  0  0  0  0  0  0  0  0  0  0
   13.8702   22.5620    0.1427 C   0  0  0  0  0  0  0  0  0  0  0  0
   14.4902   23.4111    0.8773 O   0  0  0  0  0  0  0  0  0  0  0  0
   13.6342   22.9198   -1.1999 N   0  0  0  0  0  0  0  0  0  0  0  0
   13.1463   22.3496   -1.9118 H   0  0  0  0  0  0  0  0  0  0  0  0
   13.4290   21.2597    0.7238 C   0  0  0  0  0  0  0  0  0  0  0  0
   11.1677   21.0949    3.8805 C   0  0  0  0  0  0  0  0  0  0  0  0
   12.1156   20.6774    2.8096 C   0  0  0  0  0  0  0  0  0  0  0  0
   12.5227   19.4714    2.8811 O   0  0  0  0  0  0  0  0  0  0  0  0
   12.5193   21.5719    1.7961 N   0  0  0  0  0  0  0  0  0  0  0  0
   12.1280   22.5451    1.8173 H   0  0  0  0  0  0  0  0  0  0  0  0
   12.8529   20.4197   -0.3560 C   0  0  0  0  0  0  0  0  0  0  0  0
   11.4557   20.8326   -0.7535 C   0  0  0  0  0  0  0  0  0  0  0  0
   10.4122   19.8376   -0.3073 C   0  0  0  0  0  0  0  0  0  0  0  0
    9.0665   20.3142   -0.4468 N   0  0  0  0  0  0  0  0  0  0  0  0
    8.7256   21.2280   -0.0084 H   0  0  0  0  0  0  0  0  0  0  0  0
    8.0467   19.6360   -1.1673 C   0  0  0  0  0  0  0  0  0  0  0  0
    7.4522   20.1565   -2.3406 N   0  0  0  0  0  0  0  0  0  0  0  0
    7.6437   18.4935   -0.7274 N   0  0  0  0  0  0  0  0  0  0  0  0
    7.3058   21.1584   -2.4819 H   0  0  0  0  0  0  0  0  0  0  0  0
    7.1609   19.4647   -3.0809 H   0  0  0  0  0  0  0  0  0  0  0  0
    8.0575   18.0851    0.1315 H   0  0  0  0  0  0  0  0  0  0  0  0
   12.9188   25.0952   -1.6856 C   0  0  0  0  0  0  0  0  0  0  0  0
   12.8905   26.1080   -2.4066 O   0  0  0  0  0  0  0  0  0  0  0  0
   11.7604   24.7110   -0.8594 C   0  0  0  0  0  0  0  0  0  0  0  0
   11.5992   24.9264    0.4367 N   0  0  0  0  0  0  0  0  0  0  0  0
   10.4982   24.5420    1.0273 C   0  0  0  0  0  0  0  0  0  0  0  0
   10.1938   24.7090    2.4011 C   0  0  0  0  0  0  0  0  0  0  0  0
    8.9926   24.2488    2.8608 C   0  0  0  0  0  0  0  0  0  0  0  0
    8.0308   23.6335    2.1318 C   0  0  0  0  0  0  0  0  0  0  0  0
    8.3219   23.4618    0.7634 C   0  0  0  0  0  0  0  0  0  0  0  0
    9.5476   23.9237    0.2640 C   0  0  0  0  0  0  0  0  0  0  0  0
   10.3038   23.9336   -1.2790 S   0  0  0  0  0  0  0  0  0  0  0  0
   14.7331   24.0606   -3.0436 C   0  0  0  0  0  0  0  0  0  0  0  0
   16.1132   24.6224   -3.0977 C   0  0  0  0  0  0  0  0  0  0  0  0
   16.2339   26.1041   -3.2023 C   0  0  0  0  0  0  0  0  0  0  0  0
   15.3402   26.6936   -4.1387 N   0  0  0  0  0  0  0  0  0  0  0  0
   14.3004   26.6069   -3.9133 H   0  0  0  0  0  0  0  0  0  0  0  0
   15.6510   27.3849   -5.3328 C   0  0  0  0  0  0  0  0  0  0  0  0
   15.6308   26.6964   -6.5733 N   0  0  0  0  0  0  0  0  0  0  0  0
   15.9701   28.6496   -5.2703 N   0  0  0  0  0  0  0  0  0  0  0  0
   14.8082   26.6052   -7.2033 H   0  0  0  0  0  0  0  0  0  0  0  0
   16.5041   26.2359   -6.8940 H   0  0  0  0  0  0  0  0  0  0  0  0
   16.2041   29.1799   -6.1433 H   0  0  0  0  0  0  0  0  0  0  0  0
  7  8  1  0  0  0
  8  9  2  0  0  0
  8 10  1  0  0  0
 10  6  1  0  0  0
  6 12  1  0  0  0
 12 13  1  0  0  0
 13 14  1  0  0  0
 14 15  1  0  0  0
 15 17  1  0  0  0
 17 18  1  0  0  0
 17 19  2  0  0  0
  6  2  1  0  0  0
  2  3  2  0  0  0
  2  4  1  0  0  0
  4  1  1  0  0  0
  1 34  1  0  0  0
 34 35  1  0  0  0
 35 36  1  0  0  0
 36 37  1  0  0  0
 37 39  1  0  0  0
 39 40  1  0  0  0
 39 41  2  0  0  0
  1 23  1  0  0  0
 23 24  2  0  0  0
 23 25  1  0  0  0
 25 26  2  0  0  0
 26 27  1  0  0  0
 27 28  2  0  0  0
 28 29  1  0  0  0
 29 30  2  0  0  0
 30 31  1  0  0  0
 31 32  2  0  0  0
 32 33  1  0  0  0
 33 25  1  0  0  0
 32 27  1  0  0  0
 10 11  1  0  0  0
 15 16  1  0  0  0
 18 20  1  0  0  0
 18 21  1  0  0  0
 19 22  1  0  0  0
  4  5  1  0  0  0
 37 38  1  0  0  0
 40 42  1  0  0  0
 40 43  1  0  0  0
 41 44  1  0  0  0
M  END
> <minimizedAffinity>
-7.20160

> <CNNscore>
0.3491740823

> <CNNaffinity>
7.4475493431

> <CNN_VS>
2.6004912853

> <CNNaffinity_variance>
0.0468052998

$$$$
[H]N=C(N([H])[H])N([H])C([H])([H])C([H])([H])C([H])([H])[C@@]([H])(C(=O)c1nc2c([H])c([H])c([H])c([H])c2s1)N([H])C(=O)[C@@]([H])(N([H])C(=O)C([H])([H])[H])C([H])([H])C([H])([H])C([H])([H])N([H])C(=N[H])N([H])[H]


 44 45  0  0  0  0  0  0  0  0999 V2000
   11.3180   24.5576   -0.9721 C   0  0  0  0  0  0  0  0  0  0  0  0
   13.2082   25.0682   -2.4779 C   0  0  0  0  0  0  0  0  0  0  0  0
   12.7285   26.2576   -2.4934 O   0  0  0  0  0  0  0  0  0  0  0  0
   12.5322   24.1090   -1.6973 N   0  0  0  0  0  0  0  0  0  0  0  0
   12.7957   23.1158   -1.5790 H   0  0  0  0  0  0  0  0  0  0  0  0
   14.4367   24.7526   -3.2649 C   0  0  0  0  0  0  0  0  0  0  0  0
   15.7796   27.4650   -5.7029 C   0  0  0  0  0  0  0  0  0  0  0  0
   15.3437   26.1399   -5.1798 C   0  0  0  0  0  0  0  0  0  0  0  0
   15.4245   25.1733   -6.0072 O   0  0  0  0  0  0  0  0  0  0  0  0
   14.8785   25.9892   -3.8566 N   0  0  0  0  0  0  0  0  0  0  0  0
   14.8508   26.8427   -3.2469 H   0  0  0  0  0  0  0  0  0  0  0  0
   15.4277   24.1011   -2.3722 C   0  0  0  0  0  0  0  0  0  0  0  0
   15.9955   25.0332   -1.3284 C   0  0  0  0  0  0  0  0  0  0  0  0
   16.0640   24.3950    0.0376 C   0  0  0  0  0  0  0  0  0  0  0  0
   14.9363   23.5620    0.3403 N   0  0  0  0  0  0  0  0  0  0  0  0
   13.9477   23.9479    0.4714 H   0  0  0  0  0  0  0  0  0  0  0  0
   15.0022   22.1520    0.5033 C   0  0  0  0  0  0  0  0  0  0  0  0
   14.2572   21.2466   -0.2881 N   0  0  0  0  0  0  0  0  0  0  0  0
   15.7761   21.6777    1.4183 N   0  0  0  0  0  0  0  0  0  0  0  0
   13.3219   21.4662   -0.6374 H   0  0  0  0  0  0  0  0  0  0  0  0
   14.7071   20.3199   -0.5126 H   0  0  0  0  0  0  0  0  0  0  0  0
   16.3340   22.3147    2.0172 H   0  0  0  0  0  0  0  0  0  0  0  0
   11.7672   24.6877    0.4381 C   0  0  0  0  0  0  0  0  0  0  0  0
   12.4422   25.6717    0.7884 O   0  0  0  0  0  0  0  0  0  0  0  0
   11.3927   23.6350    1.3993 C   0  0  0  0  0  0  0  0  0  0  0  0
   12.0427   22.5071    1.6396 N   0  0  0  0  0  0  0  0  0  0  0  0
   11.5926   21.6778    2.5442 C   0  0  0  0  0  0  0  0  0  0  0  0
   12.1858   20.4419    2.9027 C   0  0  0  0  0  0  0  0  0  0  0  0
   11.5859   19.6910    3.8735 C   0  0  0  0  0  0  0  0  0  0  0  0
   10.4560   20.0023    4.5527 C   0  0  0  0  0  0  0  0  0  0  0  0
    9.8566   21.2298    4.2051 C   0  0  0  0  0  0  0  0  0  0  0  0
   10.4500   22.0210    3.2115 C   0  0  0  0  0  0  0  0  0  0  0  0
   10.0872   23.5373    2.4892 S   0  0  0  0  0  0  0  0  0  0  0  0
   10.2603   23.4633   -1.1228 C   0  0  0  0  0  0  0  0  0  0  0  0
   10.8893   22.1869   -1.5684 C   0  0  0  0  0  0  0  0  0  0  0  0
   10.3031   20.9248   -1.0354 C   0  0  0  0  0  0  0  0  0  0  0  0
    9.0278   20.6039   -1.5776 N   0  0  0  0  0  0  0  0  0  0  0  0
    8.9390   20.6723   -2.6391 H   0  0  0  0  0  0  0  0  0  0  0  0
    7.8585   20.2019   -0.8911 C   0  0  0  0  0  0  0  0  0  0  0  0
    6.8778   21.1660   -0.5417 N   0  0  0  0  0  0  0  0  0  0  0  0
    7.7088   18.9442   -0.5734 N   0  0  0  0  0  0  0  0  0  0  0  0
    6.0661   21.4462   -1.1286 H   0  0  0  0  0  0  0  0  0  0  0  0
    6.9643   21.6448    0.3753 H   0  0  0  0  0  0  0  0  0  0  0  0
    6.8499   18.6259   -0.0644 H   0  0  0  0  0  0  0  0  0  0  0  0
  7  8  1  0  0  0
  8  9  2  0  0  0
  8 10  1  0  0  0
 10  6  1  0  0  0
  6 12  1  0  0  0
 12 13  1  0  0  0
 13 14  1  0  0  0
 14 15  1  0  0  0
 15 17  1  0  0  0
 17 18  1  0  0  0
 17 19  2  0  0  0
  6  2  1  0  0  0
  2  3  2  0  0  0
  2  4  1  0  0  0
  4  1  1  0  0  0
  1 34  1  0  0  0
 34 35  1  0  0  0
 35 36  1  0  0  0
 36 37  1  0  0  0
 37 39  1  0  0  0
 39 40  1  0  0  0
 39 41  2  0  0  0
  1 23  1  0  0  0
 23 24  2  0  0  0
 23 25  1  0  0  0
 25 26  2  0  0  0
 26 27  1  0  0  0
 27 28  2  0  0  0
 28 29  1  0  0  0
 29 30  2  0  0  0
 30 31  1  0  0  0
 31 32  2  0  0  0
 32 33  1  0  0  0
 33 25  1  0  0  0
 32 27  1  0  0  0
 10 11  1  0  0  0
 15 16  1  0  0  0
 18 20  1  0  0  0
 18 21  1  0  0  0
 19 22  1  0  0  0
  4  5  1  0  0  0
 37 38  1  0  0  0
 40 42  1  0  0  0
 40 43  1  0  0  0
 41 44  1  0  0  0
M  END
> <minimizedAffinity>
-7.41424

> <CNNscore>
0.3326539397

> <CNNaffinity>
7.2390656471

> <CNN_VS>
2.4081037045

> <CNNaffinity_variance>
0.4037744999

$$$$
[H]N=C(N([H])[H])N([H])C([H])([H])C([H])([H])C([H])([H])[C@@]([H])(C(=O)c1nc2c([H])c([H])c([H])c([H])c2s1)N([H])C(=O)[C@@]([H])(N([H])C(=O)C([H])([H])[H])C([H])([H])C([H])([H])C([H])([H])N([H])C(=N[H])N([H])[H]


 44 45  0  0  0  0  0  0  0  0999 V2000
   12.5773   20.9761    0.8150 C   0  0  0  0  0  0  0  0  0  0  0  0
   11.1897   22.9056    1.4877 C   0  0  0  0  0  0  0  0  0  0  0  0
   10.7853   22.1414    2.4351 O   0  0  0  0  0  0  0  0  0  0  0  0
   12.1390   22.3757    0.5908 N   0  0  0  0  0  0  0  0  0  0  0  0
   12.5631   22.8650   -0.2159 H   0  0  0  0  0  0  0  0  0  0  0  0
   10.6560   24.2951    1.3753 C   0  0  0  0  0  0  0  0  0  0  0  0
   12.2957   25.7441   -1.8366 C   0  0  0  0  0  0  0  0  0  0  0  0
   12.1180   25.3251   -0.4180 C   0  0  0  0  0  0  0  0  0  0  0  0
   13.1164   25.5429    0.3444 O   0  0  0  0  0  0  0  0  0  0  0  0
   10.9184   24.7317    0.0280 N   0  0  0  0  0  0  0  0  0  0  0  0
   10.1492   24.5956   -0.6724 H   0  0  0  0  0  0  0  0  0  0  0  0
    9.2226   24.2943    1.7610 C   0  0  0  0  0  0  0  0  0  0  0  0
    8.9981   24.5744    3.2279 C   0  0  0  0  0  0  0  0  0  0  0  0
    7.5335   24.6797    3.5767 C   0  0  0  0  0  0  0  0  0  0  0  0
    7.1553   25.9651    4.0886 N   0  0  0  0  0  0  0  0  0  0  0  0
    6.1884   26.1653    4.4992 H   0  0  0  0  0  0  0  0  0  0  0  0
    8.0056   27.1034    4.1042 C   0  0  0  0  0  0  0  0  0  0  0  0
    9.2419   27.1356    4.7911 N   0  0  0  0  0  0  0  0  0  0  0  0
    7.6293   28.1567    3.4637 N   0  0  0  0  0  0  0  0  0  0  0  0
    9.3936   26.6339    5.6688 H   0  0  0  0  0  0  0  0  0  0  0  0
   10.0183   27.7033    4.3593 H   0  0  0  0  0  0  0  0  0  0  0  0
    6.7273   28.1665    2.9518 H   0  0  0  0  0  0  0  0  0  0  0  0
   14.0333   21.0022    0.5204 C   0  0  0  0  0  0  0  0  0  0  0  0
   14.7677   20.0853    0.9286 O   0  0  0  0  0  0  0  0  0  0  0  0
   14.5761   22.1271   -0.2620 C   0  0  0  0  0  0  0  0  0  0  0  0
   14.4323   22.3374   -1.5610 N   0  0  0  0  0  0  0  0  0  0  0  0
   14.9595   23.4005   -2.1094 C   0  0  0  0  0  0  0  0  0  0  0  0
   14.8826   23.7493   -3.4806 C   0  0  0  0  0  0  0  0  0  0  0  0
   15.4909   24.9008   -3.8929 C   0  0  0  0  0  0  0  0  0  0  0  0
   16.1789   25.7731   -3.1178 C   0  0  0  0  0  0  0  0  0  0  0  0
   16.2621   25.4371   -1.7515 C   0  0  0  0  0  0  0  0  0  0  0  0
   15.6478   24.2606   -1.3001 C   0  0  0  0  0  0  0  0  0  0  0  0
   15.4923   23.4792    0.2223 S   0  0  0  0  0  0  0  0  0  0  0  0
   11.8221   20.0918   -0.1783 C   0  0  0  0  0  0  0  0  0  0  0  0
   10.8073   20.8914   -0.9226 C   0  0  0  0  0  0  0  0  0  0  0  0
    9.3913   20.4360   -0.8312 C   0  0  0  0  0  0  0  0  0  0  0  0
    8.6517   21.0500    0.2173 N   0  0  0  0  0  0  0  0  0  0  0  0
    9.2147   21.3577    1.0703 H   0  0  0  0  0  0  0  0  0  0  0  0
    7.2626   21.3094    0.2757 C   0  0  0  0  0  0  0  0  0  0  0  0
    6.4560   21.1000   -0.8726 N   0  0  0  0  0  0  0  0  0  0  0  0
    6.7460   21.7566    1.3885 N   0  0  0  0  0  0  0  0  0  0  0  0
    5.9682   20.2148   -1.1184 H   0  0  0  0  0  0  0  0  0  0  0  0
    6.3333   21.8879   -1.5372 H   0  0  0  0  0  0  0  0  0  0  0  0
    5.7191   21.9554    1.4525 H   0  0  0  0  0  0  0  0  0  0  0  0
  7  8  1  0  0  0
  8  9  2  0  0  0
  8 10  1  0  0  0
 10  6  1  0  0  0
  6 12  1  0  0  0
 12 13  1  0  0  0
 13 14  1  0  0  0
 14 15  1  0  0  0
 15 17  1  0  0  0
 17 18  1  0  0  0
 17 19  2  0  0  0
  6  2  1  0  0  0
  2  3  2  0  0  0
  2  4  1  0  0  0
  4  1  1  0  0  0
  1 34  1  0  0  0
 34 35  1  0  0  0
 35 36  1  0  0  0
 36 37  1  0  0  0
 37 39  1  0  0  0
 39 40  1  0  0  0
 39 41  2  0  0  0
  1 23  1  0  0  0
 23 24  2  0  0  0
 23 25  1  0  0  0
 25 26  2  0  0  0
 26 27  1  0  0  0
 27 28  2  0  0  0
 28 29  1  0  0  0
 29 30  2  0  0  0
 30 31  1  0  0  0
 31 32  2  0  0  0
 32 33  1  0  0  0
 33 25  1  0  0  0
 32 27  1  0  0  0
 10 11  1  0  0  0
 15 16  1  0  0  0
 18 20  1  0  0  0
 18 21  1  0  0  0
 19 22  1  0  0  0
  4  5  1  0  0  0
 37 38  1  0  0  0
 40 42  1  0  0  0
 40 43  1  0  0  0
 41 44  1  0  0  0
M  END
> <minimizedAffinity>
-6.76470

> <CNNscore>
0.3112415969

> <CNNaffinity>
7.0084714890

> <CNN_VS>
2.1813278198

> <CNNaffinity_variance>
0.0449763499

$$$$
[H]N=C(N([H])[H])N([H])C([H])([H])C([H])([H])C([H])([H])[C@@]([H])(C(=O)c1nc2c([H])c([H])c([H])c([H])c2s1)N([H])C(=O)[C@@]([H])(N([H])C(=O)C([H])([H])[H])C([H])([H])C([H])([H])C([H])([H])N([H])C(=N[H])N([H])[H]


 44 45  0  0  0  0  0  0  0  0999 V2000
   12.9338   24.0457   -0.9437 C   0  0  0  0  0  0  0  0  0  0  0  0
   12.3723   21.9475    0.2324 C   0  0  0  0  0  0  0  0  0  0  0  0
   11.5564   21.7534   -0.7380 O   0  0  0  0  0  0  0  0  0  0  0  0
   13.1434   23.1269    0.2022 N   0  0  0  0  0  0  0  0  0  0  0  0
   13.8441   23.4217    0.9037 H   0  0  0  0  0  0  0  0  0  0  0  0
   12.4753   20.9398    1.3289 C   0  0  0  0  0  0  0  0  0  0  0  0
   16.2535   20.2421    0.7429 C   0  0  0  0  0  0  0  0  0  0  0  0
   14.8197   20.5330    0.4613 C   0  0  0  0  0  0  0  0  0  0  0  0
   14.5196   20.6544   -0.7718 O   0  0  0  0  0  0  0  0  0  0  0  0
   13.8773   20.6598    1.5035 N   0  0  0  0  0  0  0  0  0  0  0  0
   14.2174   20.5398    2.4887 H   0  0  0  0  0  0  0  0  0  0  0  0
   11.7914   21.4681    2.5358 C   0  0  0  0  0  0  0  0  0  0  0  0
   10.4845   20.7729    2.8346 C   0  0  0  0  0  0  0  0  0  0  0  0
    9.3113   21.7225    2.8240 C   0  0  0  0  0  0  0  0  0  0  0  0
    8.2643   21.3327    1.9245 N   0  0  0  0  0  0  0  0  0  0  0  0
    7.5044   20.6280    2.1882 H   0  0  0  0  0  0  0  0  0  0  0  0
    8.1209   21.8257    0.5997 C   0  0  0  0  0  0  0  0  0  0  0  0
    8.6878   21.1875   -0.5284 N   0  0  0  0  0  0  0  0  0  0  0  0
    7.4441   22.9077    0.4197 N   0  0  0  0  0  0  0  0  0  0  0  0
    9.5814   20.6929   -0.4859 H   0  0  0  0  0  0  0  0  0  0  0  0
    8.1474   21.2373   -1.4323 H   0  0  0  0  0  0  0  0  0  0  0  0
    7.0175   23.4012    1.2260 H   0  0  0  0  0  0  0  0  0  0  0  0
   14.2846   24.6037   -1.2107 C   0  0  0  0  0  0  0  0  0  0  0  0
   15.0915   24.7554   -0.2766 O   0  0  0  0  0  0  0  0  0  0  0  0
   14.6396   24.9641   -2.5950 C   0  0  0  0  0  0  0  0  0  0  0  0
   14.8146   26.1827   -3.0816 N   0  0  0  0  0  0  0  0  0  0  0  0
   15.1509   26.3399   -4.3350 C   0  0  0  0  0  0  0  0  0  0  0  0
   15.3708   27.5802   -4.9839 C   0  0  0  0  0  0  0  0  0  0  0  0
   15.7191   27.5692   -6.3048 C   0  0  0  0  0  0  0  0  0  0  0  0
   15.8833   26.4762   -7.0878 C   0  0  0  0  0  0  0  0  0  0  0  0
   15.6676   25.2361   -6.4534 C   0  0  0  0  0  0  0  0  0  0  0  0
   15.3085   25.2170   -5.0984 C   0  0  0  0  0  0  0  0  0  0  0  0
   14.9602   23.9853   -3.9519 S   0  0  0  0  0  0  0  0  0  0  0  0
   11.9595   25.1337   -0.4900 C   0  0  0  0  0  0  0  0  0  0  0  0
   11.7634   25.0763    0.9869 C   0  0  0  0  0  0  0  0  0  0  0  0
   10.3843   24.7888    1.4729 C   0  0  0  0  0  0  0  0  0  0  0  0
   10.0460   25.4544    2.6836 N   0  0  0  0  0  0  0  0  0  0  0  0
   10.7205   26.2174    3.0035 H   0  0  0  0  0  0  0  0  0  0  0  0
    8.9267   25.2380    3.5206 C   0  0  0  0  0  0  0  0  0  0  0  0
    7.6630   24.9416    2.9476 N   0  0  0  0  0  0  0  0  0  0  0  0
    9.0732   25.3324    4.8148 N   0  0  0  0  0  0  0  0  0  0  0  0
    7.3011   23.9898    2.7355 H   0  0  0  0  0  0  0  0  0  0  0  0
    7.0331   25.7320    2.7110 H   0  0  0  0  0  0  0  0  0  0  0  0
    8.2565   25.1761    5.4523 H   0  0  0  0  0  0  0  0  0  0  0  0
  7  8  1  0  0  0
  8  9  2  0  0  0
  8 10  1  0  0  0
 10  6  1  0  0  0
  6 12  1  0  0  0
 12 13  1  0  0  0
 13 14  1  0  0  0
 14 15  1  0  0  0
 15 17  1  0  0  0
 17 18  1  0  0  0
 17 19  2  0  0  0
  6  2  1  0  0  0
  2  3  2  0  0  0
  2  4  1  0  0  0
  4  1  1  0  0  0
  1 34  1  0  0  0
 34 35  1  0  0  0
 35 36  1  0  0  0
 36 37  1  0  0  0
 37 39  1  0  0  0
 39 40  1  0  0  0
 39 41  2  0  0  0
  1 23  1  0  0  0
 23 24  2  0  0  0
 23 25  1  0  0  0
 25 26  2  0  0  0
 26 27  1  0  0  0
 27 28  2  0  0  0
 28 29  1  0  0  0
 29 30  2  0  0  0
 30 31  1  0  0  0
 31 32  2  0  0  0
 32 33  1  0  0  0
 33 25  1  0  0  0
 32 27  1  0  0  0
 10 11  1  0  0  0
 15 16  1  0  0  0
 18 20  1  0  0  0
 18 21  1  0  0  0
 19 22  1  0  0  0
  4  5  1  0  0  0
 37 38  1  0  0  0
 40 42  1  0  0  0
 40 43  1  0  0  0
 41 44  1  0  0  0
M  END
> <minimizedAffinity>
-6.06520

> <CNNscore>
0.2842396498

> <CNNaffinity>
6.9264516830

> <CNN_VS>
1.9687721729

> <CNNaffinity_variance>
0.2017130107

$$$$
[H]N=C(N([H])[H])N([H])C([H])([H])C([H])([H])C([H])([H])[C@@]([H])(C(=O)c1nc2c([H])c([H])c([H])c([H])c2s1)N([H])C(=O)[C@@]([H])(N([H])C(=O)C([H])([H])[H])C([H])([H])C([H])([H])C([H])([H])N([H])C(=N[H])N([H])[H]


 44 45  0  0  0  0  0  0  0  0999 V2000
   12.5203   23.9739   -0.0609 C   0  0  0  0  0  0  0  0  0  0  0  0
   14.0288   24.8908   -1.7886 C   0  0  0  0  0  0  0  0  0  0  0  0
   14.9333   24.8082   -0.8830 O   0  0  0  0  0  0  0  0  0  0  0  0
   12.7295   24.4668   -1.4446 N   0  0  0  0  0  0  0  0  0  0  0  0
   11.8991   24.4664   -2.0615 H   0  0  0  0  0  0  0  0  0  0  0  0
   14.3782   25.4163   -3.1414 C   0  0  0  0  0  0  0  0  0  0  0  0
   17.3236   27.9072   -3.6158 C   0  0  0  0  0  0  0  0  0  0  0  0
   16.0395   27.1902   -3.8539 C   0  0  0  0  0  0  0  0  0  0  0  0
   15.3834   27.5717   -4.8784 O   0  0  0  0  0  0  0  0  0  0  0  0
   15.6011   26.1626   -2.9925 N   0  0  0  0  0  0  0  0  0  0  0  0
   16.2110   25.9148   -2.1756 H   0  0  0  0  0  0  0  0  0  0  0  0
   14.4541   24.2815   -4.0953 C   0  0  0  0  0  0  0  0  0  0  0  0
   15.4808   23.2435   -3.7089 C   0  0  0  0  0  0  0  0  0  0  0  0
   14.8509   21.9876   -3.1576 C   0  0  0  0  0  0  0  0  0  0  0  0
   15.1440   21.7577   -1.7724 N   0  0  0  0  0  0  0  0  0  0  0  0
   15.9654   22.2206   -1.2679 H   0  0  0  0  0  0  0  0  0  0  0  0
   14.3924   20.8988   -0.9261 C   0  0  0  0  0  0  0  0  0  0  0  0
   14.7439   20.6377    0.4191 N   0  0  0  0  0  0  0  0  0  0  0  0
   13.3423   20.3293   -1.4099 N   0  0  0  0  0  0  0  0  0  0  0  0
   15.7161   20.5942    0.7322 H   0  0  0  0  0  0  0  0  0  0  0  0
   13.9554   20.4883    1.1028 H   0  0  0  0  0  0  0  0  0  0  0  0
   13.0585   20.4980   -2.3931 H   0  0  0  0  0  0  0  0  0  0  0  0
   11.5200   22.8859   -0.2126 C   0  0  0  0  0  0  0  0  0  0  0  0
   10.9955   22.6722   -1.3197 O   0  0  0  0  0  0  0  0  0  0  0  0
   11.1736   22.0745    0.9680 C   0  0  0  0  0  0  0  0  0  0  0  0
   11.9364   21.1745    1.5684 N   0  0  0  0  0  0  0  0  0  0  0  0
   11.4922   20.5479    2.6262 C   0  0  0  0  0  0  0  0  0  0  0  0
   12.1988   19.5667    3.3648 C   0  0  0  0  0  0  0  0  0  0  0  0
   11.5883   19.0069    4.4511 C   0  0  0  0  0  0  0  0  0  0  0  0
   10.3484   19.2914    4.9166 C   0  0  0  0  0  0  0  0  0  0  0  0
    9.6354   20.2664    4.1902 C   0  0  0  0  0  0  0  0  0  0  0  0
   10.2370   20.8575    3.0703 C   0  0  0  0  0  0  0  0  0  0  0  0
    9.7647   22.0485    1.9254 S   0  0  0  0  0  0  0  0  0  0  0  0
   11.9621   25.1352    0.7628 C   0  0  0  0  0  0  0  0  0  0  0  0
   10.5369   24.8834    1.1215 C   0  0  0  0  0  0  0  0  0  0  0  0
   10.1495   25.1100    2.5425 C   0  0  0  0  0  0  0  0  0  0  0  0
    8.8526   25.6704    2.7073 N   0  0  0  0  0  0  0  0  0  0  0  0
    8.0846   25.2659    2.0860 H   0  0  0  0  0  0  0  0  0  0  0  0
    8.4458   26.6957    3.5925 C   0  0  0  0  0  0  0  0  0  0  0  0
    7.1096   27.1717    3.5558 N   0  0  0  0  0  0  0  0  0  0  0  0
    9.3179   27.2018    4.4223 N   0  0  0  0  0  0  0  0  0  0  0  0
    6.3165   26.7971    4.1149 H   0  0  0  0  0  0  0  0  0  0  0  0
    6.8863   27.9605    2.9191 H   0  0  0  0  0  0  0  0  0  0  0  0
    9.0369   27.9625    5.0860 H   0  0  0  0  0  0  0  0  0  0  0  0
  7  8  1  0  0  0
  8  9  2  0  0  0
  8 10  1  0  0  0
 10  6  1  0  0  0
  6 12  1  0  0  0
 12 13  1  0  0  0
 13 14  1  0  0  0
 14 15  1  0  0  0
 15 17  1  0  0  0
 17 18  1  0  0  0
 17 19  2  0  0  0
  6  2  1  0  0  0
  2  3  2  0  0  0
  2  4  1  0  0  0
  4  1  1  0  0  0
  1 34  1  0  0  0
 34 35  1  0  0  0
 35 36  1  0  0  0
 36 37  1  0  0  0
 37 39  1  0  0  0
 39 40  1  0  0  0
 39 41  2  0  0  0
  1 23  1  0  0  0
 23 24  2  0  0  0
 23 25  1  0  0  0
 25 26  2  0  0  0
 26 27  1  0  0  0
 27 28  2  0  0  0
 28 29  1  0  0  0
 29 30  2  0  0  0
 30 31  1  0  0  0
 31 32  2  0  0  0
 32 33  1  0  0  0
 33 25  1  0  0  0
 32 27  1  0  0  0
 10 11  1  0  0  0
 15 16  1  0  0  0
 18 20  1  0  0  0
 18 21  1  0  0  0
 19 22  1  0  0  0
  4  5  1  0  0  0
 37 38  1  0  0  0
 40 42  1  0  0  0
 40 43  1  0  0  0
 41 44  1  0  0  0
M  END
> <minimizedAffinity>
-5.86630

> <CNNscore>
0.2677311301

> <CNNaffinity>
7.2123436928

> <CNN_VS>
1.9309688807

> <CNNaffinity_variance>
0.1460843980

$$$$
[H]N=C(N([H])[H])N([H])C([H])([H])C([H])([H])C([H])([H])[C@@]([H])(C(=O)c1nc2c([H])c([H])c([H])c([H])c2s1)N([H])C(=O)[C@@]([H])(N([H])C(=O)C([H])([H])[H])C([H])([H])C([H])([H])C([H])([H])N([H])C(=N[H])N([H])[H]


 44 45  0  0  0  0  0  0  0  0999 V2000
   14.4768   24.4779   -2.2405 C   0  0  0  0  0  0  0  0  0  0  0  0
   14.2070   22.0858   -1.6873 C   0  0  0  0  0  0  0  0  0  0  0  0
   14.3201   21.8962   -2.9508 O   0  0  0  0  0  0  0  0  0  0  0  0
   14.2840   23.4146   -1.2239 N   0  0  0  0  0  0  0  0  0  0  0  0
   14.2166   23.7279   -0.2403 H   0  0  0  0  0  0  0  0  0  0  0  0
   14.0068   20.9202   -0.7765 C   0  0  0  0  0  0  0  0  0  0  0  0
   17.0336   21.4218    1.6094 C   0  0  0  0  0  0  0  0  0  0  0  0
   15.7540   21.6811    0.8918 C   0  0  0  0  0  0  0  0  0  0  0  0
   15.1812   22.7834    1.1788 O   0  0  0  0  0  0  0  0  0  0  0  0
   15.2325   20.7568   -0.0377 N   0  0  0  0  0  0  0  0  0  0  0  0
   15.7770   19.8771   -0.2118 H   0  0  0  0  0  0  0  0  0  0  0  0
   12.8041   21.1616    0.0594 C   0  0  0  0  0  0  0  0  0  0  0  0
   11.6119   20.3324   -0.3551 C   0  0  0  0  0  0  0  0  0  0  0  0
   10.7181   19.9858    0.8106 C   0  0  0  0  0  0  0  0  0  0  0  0
   10.8181   20.9068    1.9056 N   0  0  0  0  0  0  0  0  0  0  0  0
   10.6097   21.9510    1.8072 H   0  0  0  0  0  0  0  0  0  0  0  0
   11.2042   20.5452    3.2243 C   0  0  0  0  0  0  0  0  0  0  0  0
   12.1560   19.5362    3.5021 N   0  0  0  0  0  0  0  0  0  0  0  0
   10.6578   21.1654    4.2133 N   0  0  0  0  0  0  0  0  0  0  0  0
   12.2552   18.7020    2.9196 H   0  0  0  0  0  0  0  0  0  0  0  0
   12.7739   19.6756    4.3449 H   0  0  0  0  0  0  0  0  0  0  0  0
    9.9546   21.9087    4.0437 H   0  0  0  0  0  0  0  0  0  0  0  0
   13.1884   25.2179   -2.2377 C   0  0  0  0  0  0  0  0  0  0  0  0
   12.9472   26.0514   -3.1285 O   0  0  0  0  0  0  0  0  0  0  0  0
   12.2150   24.9382   -1.1671 C   0  0  0  0  0  0  0  0  0  0  0  0
   11.0860   24.2553   -1.2746 N   0  0  0  0  0  0  0  0  0  0  0  0
   10.3339   24.0733   -0.2211 C   0  0  0  0  0  0  0  0  0  0  0  0
    9.1069   23.3650   -0.1922 C   0  0  0  0  0  0  0  0  0  0  0  0
    8.4421   23.2659    0.9971 C   0  0  0  0  0  0  0  0  0  0  0  0
    8.8335   23.7822    2.1867 C   0  0  0  0  0  0  0  0  0  0  0  0
   10.0529   24.4890    2.1708 C   0  0  0  0  0  0  0  0  0  0  0  0
   10.7567   24.6072    0.9641 C   0  0  0  0  0  0  0  0  0  0  0  0
   12.2316   25.3481    0.4864 S   0  0  0  0  0  0  0  0  0  0  0  0
   14.7238   23.7914   -3.5846 C   0  0  0  0  0  0  0  0  0  0  0  0
   15.8332   24.4646   -4.3188 C   0  0  0  0  0  0  0  0  0  0  0  0
   15.4564   25.5749   -5.2386 C   0  0  0  0  0  0  0  0  0  0  0  0
   15.3576   26.8444   -4.6046 N   0  0  0  0  0  0  0  0  0  0  0  0
   14.5364   26.9712   -3.9346 H   0  0  0  0  0  0  0  0  0  0  0  0
   16.2106   27.9638   -4.7447 C   0  0  0  0  0  0  0  0  0  0  0  0
   17.4078   28.0388   -3.9868 N   0  0  0  0  0  0  0  0  0  0  0  0
   15.8705   28.9235   -5.5622 N   0  0  0  0  0  0  0  0  0  0  0  0
   18.3377   27.6803   -4.2842 H   0  0  0  0  0  0  0  0  0  0  0  0
   17.3694   28.4854   -3.0505 H   0  0  0  0  0  0  0  0  0  0  0  0
   16.4883   29.7616   -5.6802 H   0  0  0  0  0  0  0  0  0  0  0  0
  7  8  1  0  0  0
  8  9  2  0  0  0
  8 10  1  0  0  0
 10  6  1  0  0  0
  6 12  1  0  0  0
 12 13  1  0  0  0
 13 14  1  0  0  0
 14 15  1  0  0  0
 15 17  1  0  0  0
 17 18  1  0  0  0
 17 19  2  0  0  0
  6  2  1  0  0  0
  2  3  2  0  0  0
  2  4  1  0  0  0
  4  1  1  0  0  0
  1 34  1  0  0  0
 34 35  1  0  0  0
 35 36  1  0  0  0
 36 37  1  0  0  0
 37 39  1  0  0  0
 39 40  1  0  0  0
 39 41  2  0  0  0
  1 23  1  0  0  0
 23 24  2  0  0  0
 23 25  1  0  0  0
 25 26  2  0  0  0
 26 27  1  0  0  0
 27 28  2  0  0  0
 28 29  1  0  0  0
 29 30  2  0  0  0
 30 31  1  0  0  0
 31 32  2  0  0  0
 32 33  1  0  0  0
 33 25  1  0  0  0
 32 27  1  0  0  0
 10 11  1  0  0  0
 15 16  1  0  0  0
 18 20  1  0  0  0
 18 21  1  0  0  0
 19 22  1  0  0  0
  4  5  1  0  0  0
 37 38  1  0  0  0
 40 42  1  0  0  0
 40 43  1  0  0  0
 41 44  1  0  0  0
M  END
> <minimizedAffinity>
-6.16041

> <CNNscore>
0.2594741881

> <CNNaffinity>
7.5894532204

> <CNN_VS>
1.9692672491

> <CNNaffinity_variance>
0.0340287276

$$$$
[H]N=C(N([H])[H])N([H])C([H])([H])C([H])([H])C([H])([H])[C@@]([H])(C(=O)c1nc2c([H])c([H])c([H])c([H])c2s1)N([H])C(=O)[C@@]([H])(N([H])C(=O)C([H])([H])[H])C([H])([H])C([H])([H])C([H])([H])N([H])C(=N[H])N([H])[H]


 44 45  0  0  0  0  0  0  0  0999 V2000
   11.3642   23.7607    0.0310 C   0  0  0  0  0  0  0  0  0  0  0  0
    9.9266   23.8841    2.0358 C   0  0  0  0  0  0  0  0  0  0  0  0
   10.6682   22.9404    2.4880 O   0  0  0  0  0  0  0  0  0  0  0  0
   10.2254   24.3816    0.7514 N   0  0  0  0  0  0  0  0  0  0  0  0
    9.7269   25.1393    0.2540 H   0  0  0  0  0  0  0  0  0  0  0  0
    8.8046   24.4104    2.8679 C   0  0  0  0  0  0  0  0  0  0  0  0
    7.2337   21.5536    4.9835 C   0  0  0  0  0  0  0  0  0  0  0  0
    7.4242   22.5509    3.8932 C   0  0  0  0  0  0  0  0  0  0  0  0
    6.5189   22.5577    2.9956 O   0  0  0  0  0  0  0  0  0  0  0  0
    8.5368   23.4182    3.8771 N   0  0  0  0  0  0  0  0  0  0  0  0
    9.2290   23.3416    4.6617 H   0  0  0  0  0  0  0  0  0  0  0  0
    9.1792   25.7471    3.3936 C   0  0  0  0  0  0  0  0  0  0  0  0
    8.0408   26.4572    4.0868 C   0  0  0  0  0  0  0  0  0  0  0  0
    6.9044   26.7781    3.1468 C   0  0  0  0  0  0  0  0  0  0  0  0
    6.3201   28.0688    3.3706 N   0  0  0  0  0  0  0  0  0  0  0  0
    5.6620   28.2746    4.1880 H   0  0  0  0  0  0  0  0  0  0  0  0
    6.5403   29.2026    2.5432 C   0  0  0  0  0  0  0  0  0  0  0  0
    6.3306   29.1914    1.1442 N   0  0  0  0  0  0  0  0  0  0  0  0
    6.9535   30.2916    3.0952 N   0  0  0  0  0  0  0  0  0  0  0  0
    6.5031   28.3623    0.5716 H   0  0  0  0  0  0  0  0  0  0  0  0
    5.9817   30.0826    0.7021 H   0  0  0  0  0  0  0  0  0  0  0  0
    7.1191   30.3323    4.1183 H   0  0  0  0  0  0  0  0  0  0  0  0
   12.3058   24.8874   -0.1952 C   0  0  0  0  0  0  0  0  0  0  0  0
   12.4441   25.7672    0.6729 O   0  0  0  0  0  0  0  0  0  0  0  0
   13.0649   24.9317   -1.4577 C   0  0  0  0  0  0  0  0  0  0  0  0
   12.9846   25.8537   -2.4041 N   0  0  0  0  0  0  0  0  0  0  0  0
   13.7445   25.7648   -3.4641 C   0  0  0  0  0  0  0  0  0  0  0  0
   13.7634   26.6771   -4.5481 C   0  0  0  0  0  0  0  0  0  0  0  0
   14.6220   26.4378   -5.5834 C   0  0  0  0  0  0  0  0  0  0  0  0
   15.4828   25.3979   -5.6949 C   0  0  0  0  0  0  0  0  0  0  0  0
   15.4735   24.4835   -4.6223 C   0  0  0  0  0  0  0  0  0  0  0  0
   14.6020   24.7035   -3.5465 C   0  0  0  0  0  0  0  0  0  0  0  0
   14.2606   23.8865   -2.0739 S   0  0  0  0  0  0  0  0  0  0  0  0
   10.8275   23.2074   -1.2899 C   0  0  0  0  0  0  0  0  0  0  0  0
   10.7800   21.7176   -1.2512 C   0  0  0  0  0  0  0  0  0  0  0  0
   11.9825   21.0188   -0.7162 C   0  0  0  0  0  0  0  0  0  0  0  0
   12.3872   21.4659    0.5721 N   0  0  0  0  0  0  0  0  0  0  0  0
   12.0094   22.4159    0.8788 H   0  0  0  0  0  0  0  0  0  0  0  0
   13.2259   20.8118    1.5043 C   0  0  0  0  0  0  0  0  0  0  0  0
   12.6684   20.2433    2.6787 N   0  0  0  0  0  0  0  0  0  0  0  0
   14.5103   20.7573    1.2746 N   0  0  0  0  0  0  0  0  0  0  0  0
   12.3191   19.2682    2.7740 H   0  0  0  0  0  0  0  0  0  0  0  0
   12.5930   20.8394    3.5252 H   0  0  0  0  0  0  0  0  0  0  0  0
   15.1490   20.2777    1.9530 H   0  0  0  0  0  0  0  0  0  0  0  0
  7  8  1  0  0  0
  8  9  2  0  0  0
  8 10  1  0  0  0
 10  6  1  0  0  0
  6 12  1  0  0  0
 12 13  1  0  0  0
 13 14  1  0  0  0
 14 15  1  0  0  0
 15 17  1  0  0  0
 17 18  1  0  0  0
 17 19  2  0  0  0
  6  2  1  0  0  0
  2  3  2  0  0  0
  2  4  1  0  0  0
  4  1  1  0  0  0
  1 34  1  0  0  0
 34 35  1  0  0  0
 35 36  1  0  0  0
 36 37  1  0  0  0
 37 39  1  0  0  0
 39 40  1  0  0  0
 39 41  2  0  0  0
  1 23  1  0  0  0
 23 24  2  0  0  0
 23 25  1  0  0  0
 25 26  2  0  0  0
 26 27  1  0  0  0
 27 28  2  0  0  0
 28 29  1  0  0  0
 29 30  2  0  0  0
 30 31  1  0  0  0
 31 32  2  0  0  0
 32 33  1  0  0  0
 33 25  1  0  0  0
 32 27  1  0  0  0
 10 11  1  0  0  0
 15 16  1  0  0  0
 18 20  1  0  0  0
 18 21  1  0  0  0
 19 22  1  0  0  0
  4  5  1  0  0  0
 37 38  1  0  0  0
 40 42  1  0  0  0
 40 43  1  0  0  0
 41 44  1  0  0  0
M  END
> <minimizedAffinity>
-8.07727

> <CNNscore>
0.2585037649

> <CNNaffinity>
6.7743711472

> <CNN_VS>
1.7512004375

> <CNNaffinity_variance>
0.1062549725

$$$$
[H]c1c([H])c(C2([H])c3c(nc(-c4c([H])c(C(=O)N([H])C(C([H])([H])[H])(C([H])([H])[H])C([H])([H])[H])c([H])c([H])c4OC([H])([H])[H])n3C([H])(C([H])([H])[H])C([H])([H])[H])C(=O)N2c2c([H])c(Cl)c([H])c([H])c2C([H])([H])[H])c([H])c([H])c1Cl


 43 47  0  0  0  0  0  0  0  0999 V2000
   13.6902   23.8763   -0.5408 C   0  0  0  0  0  0  0  0  0  0  0  0
   15.0220   23.9366   -0.2216 N   0  0  0  0  0  0  0  0  0  0  0  0
   15.6434   24.7869   -1.0523 C   0  0  0  0  0  0  0  0  0  0  0  0
   16.9487   25.4115   -1.3632 C   0  0  0  0  0  0  0  0  0  0  0  0
   17.9917   25.1219   -0.6996 O   0  0  0  0  0  0  0  0  0  0  0  0
   16.7076   26.2721   -2.4311 N   0  0  0  0  0  0  0  0  0  0  0  0
   15.3633   26.1736   -2.8548 C   0  0  0  0  0  0  0  0  0  0  0  0
   14.7058   25.2613   -1.8970 C   0  0  0  0  0  0  0  0  0  0  0  0
   13.5018   24.6826   -1.5587 N   0  0  0  0  0  0  0  0  0  0  0  0
   17.7489   27.1368   -2.9437 C   0  0  0  0  0  0  0  0  0  0  0  0
   19.0640   26.7086   -2.9233 C   0  0  0  0  0  0  0  0  0  0  0  0
   20.0807   27.5007   -3.4011 C   0  0  0  0  0  0  0  0  0  0  0  0
   21.7480   26.9469   -3.3722 Cl  0  0  0  0  0  0  0  0  0  0  0  0
   19.7960   28.7550   -3.9159 C   0  0  0  0  0  0  0  0  0  0  0  0
   18.4871   29.1629   -3.9289 C   0  0  0  0  0  0  0  0  0  0  0  0
   17.4506   28.3493   -3.4395 C   0  0  0  0  0  0  0  0  0  0  0  0
   16.1043   28.9283   -3.5267 C   0  0  0  0  0  0  0  0  0  0  0  0
   15.1440   25.7913   -4.2472 C   0  0  0  0  0  0  0  0  0  0  0  0
   15.4349   24.5300   -4.6989 C   0  0  0  0  0  0  0  0  0  0  0  0
   15.2290   24.2410   -6.0160 C   0  0  0  0  0  0  0  0  0  0  0  0
   14.7362   25.1820   -6.9111 C   0  0  0  0  0  0  0  0  0  0  0  0
   14.4771   24.8027   -8.5984 Cl  0  0  0  0  0  0  0  0  0  0  0  0
   14.4437   26.4421   -6.4667 C   0  0  0  0  0  0  0  0  0  0  0  0
   14.6528   26.7348   -5.1284 C   0  0  0  0  0  0  0  0  0  0  0  0
   12.8156   21.6520   -0.1782 C   0  0  0  0  0  0  0  0  0  0  0  0
   11.9613   20.7442    0.4240 C   0  0  0  0  0  0  0  0  0  0  0  0
   11.0433   21.1590    1.3598 C   0  0  0  0  0  0  0  0  0  0  0  0
   10.9685   22.5012    1.7072 C   0  0  0  0  0  0  0  0  0  0  0  0
   11.8324   23.3716    1.0884 C   0  0  0  0  0  0  0  0  0  0  0  0
   12.7487   22.9910    0.1618 C   0  0  0  0  0  0  0  0  0  0  0  0
    9.9886   22.9510    2.6961 C   0  0  0  0  0  0  0  0  0  0  0  0
    9.3008   22.1033    3.2909 O   0  0  0  0  0  0  0  0  0  0  0  0
    9.8166   24.3216    2.9855 N   0  0  0  0  0  0  0  0  0  0  0  0
   10.4169   25.0148    2.4728 H   0  0  0  0  0  0  0  0  0  0  0  0
    8.8439   24.7793    3.9651 C   0  0  0  0  0  0  0  0  0  0  0  0
    9.0417   26.2641    4.1650 C   0  0  0  0  0  0  0  0  0  0  0  0
    7.4515   24.6205    3.3502 C   0  0  0  0  0  0  0  0  0  0  0  0
    8.9530   24.0908    5.2822 C   0  0  0  0  0  0  0  0  0  0  0  0
   14.8238   20.3983   -0.8294 C   0  0  0  0  0  0  0  0  0  0  0  0
   13.7280   21.2105   -1.1150 O   0  0  0  0  0  0  0  0  0  0  0  0
   12.3057   24.9625   -2.2831 C   0  0  0  0  0  0  0  0  0  0  0  0
   12.1028   26.3417   -2.7939 C   0  0  0  0  0  0  0  0  0  0  0  0
   11.0561   24.6155   -1.4444 C   0  0  0  0  0  0  0  0  0  0  0  0
 39 40  1  0  0  0
 40 25  1  0  0  0
 25 26  2  0  0  0
 26 27  1  0  0  0
 27 28  2  0  0  0
 28 29  1  0  0  0
 29 30  2  0  0  0
 30  1  1  0  0  0
  1  2  2  0  0  0
  2  3  1  0  0  0
  3  4  1  0  0  0
  4  5  2  0  0  0
  4  6  1  0  0  0
  6  7  1  0  0  0
  7  8  1  0  0  0
  8  9  1  0  0  0
  9 41  1  0  0  0
 41 42  1  0  0  0
 41 43  1  0  0  0
  7 18  1  0  0  0
 18 19  2  0  0  0
 19 20  1  0  0  0
 20 21  2  0  0  0
 21 22  1  0  0  0
 21 23  1  0  0  0
 23 24  2  0  0  0
  6 10  1  0  0  0
 10 11  2  0  0  0
 11 12  1  0  0  0
 12 13  1  0  0  0
 12 14  2  0  0  0
 14 15  1  0  0  0
 15 16  2  0  0  0
 16 17  1  0  0  0
 28 31  1  0  0  0
 31 32  2  0  0  0
 31 33  1  0  0  0
 33 35  1  0  0  0
 35 36  1  0  0  0
 35 37  1  0  0  0
 35 38  1  0  0  0
 30 25  1  0  0  0
  9  1  1  0  0  0
 24 18  1  0  0  0
 16 10  1  0  0  0
  8  3  2  0  0  0
 33 34  1  0  0  0
M  END
> <minimizedAffinity>
8.48861

> <CNNscore>
0.4990960658

> <CNNaffinity>
8.3075447083

> <CNN_VS>
4.1462626457

> <CNNaffinity_variance>
0.7213872671

$$$$
[H]c1c([H])c(C2([H])c3c(nc(-c4c([H])c(C(=O)N([H])C(C([H])([H])[H])(C([H])([H])[H])C([H])([H])[H])c([H])c([H])c4OC([H])([H])[H])n3C([H])(C([H])([H])[H])C([H])([H])[H])C(=O)N2c2c([H])c(Cl)c([H])c([H])c2C([H])([H])[H])c([H])c([H])c1Cl


 43 47  0  0  0  0  0  0  0  0999 V2000
   12.4464   25.1874   -1.6876 C   0  0  0  0  0  0  0  0  0  0  0  0
   11.2324   24.6840   -1.2974 N   0  0  0  0  0  0  0  0  0  0  0  0
   11.4062   23.8472   -0.2636 C   0  0  0  0  0  0  0  0  0  0  0  0
   10.6949   22.9794    0.7016 C   0  0  0  0  0  0  0  0  0  0  0  0
    9.4335   22.8415    0.6574 O   0  0  0  0  0  0  0  0  0  0  0  0
   11.6818   22.4548    1.5321 N   0  0  0  0  0  0  0  0  0  0  0  0
   12.9626   22.8749    1.1084 C   0  0  0  0  0  0  0  0  0  0  0  0
   12.7286   23.8199   -0.0025 C   0  0  0  0  0  0  0  0  0  0  0  0
   13.3527   24.6605   -0.8984 N   0  0  0  0  0  0  0  0  0  0  0  0
   11.3393   21.6301    2.6712 C   0  0  0  0  0  0  0  0  0  0  0  0
   11.9122   20.3782    2.8050 C   0  0  0  0  0  0  0  0  0  0  0  0
   11.6125   19.5658    3.8725 C   0  0  0  0  0  0  0  0  0  0  0  0
   12.3467   17.9777    4.0342 Cl  0  0  0  0  0  0  0  0  0  0  0  0
   10.7203   19.9975    4.8405 C   0  0  0  0  0  0  0  0  0  0  0  0
   10.1626   21.2412    4.6922 C   0  0  0  0  0  0  0  0  0  0  0  0
   10.4723   22.0687    3.5990 C   0  0  0  0  0  0  0  0  0  0  0  0
    9.7950   23.3712    3.5864 C   0  0  0  0  0  0  0  0  0  0  0  0
   13.9158   21.8217    0.7685 C   0  0  0  0  0  0  0  0  0  0  0  0
   13.6017   20.8320   -0.1267 C   0  0  0  0  0  0  0  0  0  0  0  0
   14.5269   19.8636   -0.3855 C   0  0  0  0  0  0  0  0  0  0  0  0
   15.7729   19.8486    0.2284 C   0  0  0  0  0  0  0  0  0  0  0  0
   16.9520   18.6019   -0.1084 Cl  0  0  0  0  0  0  0  0  0  0  0  0
   16.0925   20.8334    1.1222 C   0  0  0  0  0  0  0  0  0  0  0  0
   15.1521   21.8171    1.3843 C   0  0  0  0  0  0  0  0  0  0  0  0
   13.6578   25.8413   -3.6748 C   0  0  0  0  0  0  0  0  0  0  0  0
   13.8810   26.6535   -4.7734 C   0  0  0  0  0  0  0  0  0  0  0  0
   13.0532   27.7190   -5.0379 C   0  0  0  0  0  0  0  0  0  0  0  0
   11.9813   27.9870   -4.1970 C   0  0  0  0  0  0  0  0  0  0  0  0
   11.7921   27.1591   -3.1174 C   0  0  0  0  0  0  0  0  0  0  0  0
   12.5923   26.1003   -2.8317 C   0  0  0  0  0  0  0  0  0  0  0  0
   11.1011   29.1239   -4.4677 C   0  0  0  0  0  0  0  0  0  0  0  0
   11.5169   30.2738   -4.2435 O   0  0  0  0  0  0  0  0  0  0  0  0
    9.7992   28.9364   -4.9791 N   0  0  0  0  0  0  0  0  0  0  0  0
    9.4775   27.9538   -5.1659 H   0  0  0  0  0  0  0  0  0  0  0  0
    8.9156   30.0596   -5.2496 C   0  0  0  0  0  0  0  0  0  0  0  0
    7.9320   29.6370   -6.3162 C   0  0  0  0  0  0  0  0  0  0  0  0
    8.0848   30.3142   -3.9898 C   0  0  0  0  0  0  0  0  0  0  0  0
    9.6301   31.2862   -5.7030 C   0  0  0  0  0  0  0  0  0  0  0  0
   15.4093   24.2605   -4.3547 C   0  0  0  0  0  0  0  0  0  0  0  0
   14.5036   24.7782   -3.4307 O   0  0  0  0  0  0  0  0  0  0  0  0
   14.7679   24.8366   -0.9003 C   0  0  0  0  0  0  0  0  0  0  0  0
   15.6156   23.6912   -1.3172 C   0  0  0  0  0  0  0  0  0  0  0  0
   15.2735   25.2745    0.4919 C   0  0  0  0  0  0  0  0  0  0  0  0
 39 40  1  0  0  0
 40 25  1  0  0  0
 25 26  2  0  0  0
 26 27  1  0  0  0
 27 28  2  0  0  0
 28 29  1  0  0  0
 29 30  2  0  0  0
 30  1  1  0  0  0
  1  2  2  0  0  0
  2  3  1  0  0  0
  3  4  1  0  0  0
  4  5  2  0  0  0
  4  6  1  0  0  0
  6  7  1  0  0  0
  7  8  1  0  0  0
  8  9  1  0  0  0
  9 41  1  0  0  0
 41 42  1  0  0  0
 41 43  1  0  0  0
  7 18  1  0  0  0
 18 19  2  0  0  0
 19 20  1  0  0  0
 20 21  2  0  0  0
 21 22  1  0  0  0
 21 23  1  0  0  0
 23 24  2  0  0  0
  6 10  1  0  0  0
 10 11  2  0  0  0
 11 12  1  0  0  0
 12 13  1  0  0  0
 12 14  2  0  0  0
 14 15  1  0  0  0
 15 16  2  0  0  0
 16 17  1  0  0  0
 28 31  1  0  0  0
 31 32  2  0  0  0
 31 33  1  0  0  0
 33 35  1  0  0  0
 35 36  1  0  0  0
 35 37  1  0  0  0
 35 38  1  0  0  0
 30 25  1  0  0  0
  9  1  1  0  0  0
 24 18  1  0  0  0
 16 10  1  0  0  0
  8  3  2  0  0  0
 33 34  1  0  0  0
M  END
> <minimizedAffinity>
11.64910

> <CNNscore>
0.4856639206

> <CNNaffinity>
7.8698434830

> <CNN_VS>
3.8220989704

> <CNNaffinity_variance>
0.2462692708

$$$$
[H]c1c([H])c(C2([H])c3c(nc(-c4c([H])c(C(=O)N([H])C(C([H])([H])[H])(C([H])([H])[H])C([H])([H])[H])c([H])c([H])c4OC([H])([H])[H])n3C([H])(C([H])([H])[H])C([H])([H])[H])C(=O)N2c2c([H])c(Cl)c([H])c([H])c2C([H])([H])[H])c([H])c([H])c1Cl


 43 47  0  0  0  0  0  0  0  0999 V2000
   11.1135   23.5387   -0.7872 C   0  0  0  0  0  0  0  0  0  0  0  0
   11.0024   24.7731   -1.3732 N   0  0  0  0  0  0  0  0  0  0  0  0
   12.1750   25.1118   -1.9294 C   0  0  0  0  0  0  0  0  0  0  0  0
   12.8631   26.1571   -2.7196 C   0  0  0  0  0  0  0  0  0  0  0  0
   12.2633   27.2206   -3.0679 O   0  0  0  0  0  0  0  0  0  0  0  0
   14.1556   25.6816   -2.9254 N   0  0  0  0  0  0  0  0  0  0  0  0
   14.3440   24.4502   -2.2585 C   0  0  0  0  0  0  0  0  0  0  0  0
   13.0269   24.0938   -1.6929 C   0  0  0  0  0  0  0  0  0  0  0  0
   12.3445   23.1291   -0.9838 N   0  0  0  0  0  0  0  0  0  0  0  0
   15.0948   26.4053   -3.7554 C   0  0  0  0  0  0  0  0  0  0  0  0
   16.2818   26.8582   -3.2084 C   0  0  0  0  0  0  0  0  0  0  0  0
   17.1990   27.5489   -3.9641 C   0  0  0  0  0  0  0  0  0  0  0  0
   18.7048   28.1187   -3.2602 Cl  0  0  0  0  0  0  0  0  0  0  0  0
   16.9416   27.8031   -5.3014 C   0  0  0  0  0  0  0  0  0  0  0  0
   15.7606   27.3464   -5.8271 C   0  0  0  0  0  0  0  0  0  0  0  0
   14.8256   26.6402   -5.0505 C   0  0  0  0  0  0  0  0  0  0  0  0
   13.6126   26.2163   -5.7607 C   0  0  0  0  0  0  0  0  0  0  0  0
   15.4195   24.4002   -1.2717 C   0  0  0  0  0  0  0  0  0  0  0  0
   15.1596   24.4246    0.0742 C   0  0  0  0  0  0  0  0  0  0  0  0
   16.2086   24.3980    0.9457 C   0  0  0  0  0  0  0  0  0  0  0  0
   17.5278   24.3479    0.5134 C   0  0  0  0  0  0  0  0  0  0  0  0
   18.8663   24.3157    1.6382 Cl  0  0  0  0  0  0  0  0  0  0  0  0
   17.7938   24.3229   -0.8280 C   0  0  0  0  0  0  0  0  0  0  0  0
   16.7275   24.3497   -1.7128 C   0  0  0  0  0  0  0  0  0  0  0  0
    9.8930   23.2654    1.2816 C   0  0  0  0  0  0  0  0  0  0  0  0
    8.8862   22.7178    2.0580 C   0  0  0  0  0  0  0  0  0  0  0  0
    7.9930   21.8223    1.5189 C   0  0  0  0  0  0  0  0  0  0  0  0
    8.0983   21.4604    0.1825 C   0  0  0  0  0  0  0  0  0  0  0  0
    9.1099   22.0247   -0.5557 C   0  0  0  0  0  0  0  0  0  0  0  0
   10.0056   22.9112   -0.0507 C   0  0  0  0  0  0  0  0  0  0  0  0
    7.1563   20.5018   -0.3958 C   0  0  0  0  0  0  0  0  0  0  0  0
    6.0405   20.9040   -0.7679 O   0  0  0  0  0  0  0  0  0  0  0  0
    7.4944   19.1392   -0.5401 N   0  0  0  0  0  0  0  0  0  0  0  0
    8.4472   18.8294   -0.2239 H   0  0  0  0  0  0  0  0  0  0  0  0
    6.5646   18.1779   -1.1118 C   0  0  0  0  0  0  0  0  0  0  0  0
    5.9627   18.7895   -2.3558 C   0  0  0  0  0  0  0  0  0  0  0  0
    7.3753   16.9704   -1.5880 C   0  0  0  0  0  0  0  0  0  0  0  0
    5.4685   17.7818   -0.1834 C   0  0  0  0  0  0  0  0  0  0  0  0
   10.5410   25.5288    1.9788 C   0  0  0  0  0  0  0  0  0  0  0  0
   10.7775   24.1618    1.8466 O   0  0  0  0  0  0  0  0  0  0  0  0
   12.9777   21.9253   -0.5555 C   0  0  0  0  0  0  0  0  0  0  0  0
   12.4310   20.6342   -1.0440 C   0  0  0  0  0  0  0  0  0  0  0  0
   13.0099   21.8345    0.9860 C   0  0  0  0  0  0  0  0  0  0  0  0
 39 40  1  0  0  0
 40 25  1  0  0  0
 25 26  2  0  0  0
 26 27  1  0  0  0
 27 28  2  0  0  0
 28 29  1  0  0  0
 29 30  2  0  0  0
 30  1  1  0  0  0
  1  2  2  0  0  0
  2  3  1  0  0  0
  3  4  1  0  0  0
  4  5  2  0  0  0
  4  6  1  0  0  0
  6  7  1  0  0  0
  7  8  1  0  0  0
  8  9  1  0  0  0
  9 41  1  0  0  0
 41 42  1  0  0  0
 41 43  1  0  0  0
  7 18  1  0  0  0
 18 19  2  0  0  0
 19 20  1  0  0  0
 20 21  2  0  0  0
 21 22  1  0  0  0
 21 23  1  0  0  0
 23 24  2  0  0  0
  6 10  1  0  0  0
 10 11  2  0  0  0
 11 12  1  0  0  0
 12 13  1  0  0  0
 12 14  2  0  0  0
 14 15  1  0  0  0
 15 16  2  0  0  0
 16 17  1  0  0  0
 28 31  1  0  0  0
 31 32  2  0  0  0
 31 33  1  0  0  0
 33 35  1  0  0  0
 35 36  1  0  0  0
 35 37  1  0  0  0
 35 38  1  0  0  0
 30 25  1  0  0  0
  9  1  1  0  0  0
 24 18  1  0  0  0
 16 10  1  0  0  0
  8  3  2  0  0  0
 33 34  1  0  0  0
M  END
> <minimizedAffinity>
-2.21275

> <CNNscore>
0.4620383978

> <CNNaffinity>
8.2210693359

> <CNN_VS>
3.7984497547

> <CNNaffinity_variance>
0.3836150169

$$$$
[H]c1c([H])c(C2([H])c3c(nc(-c4c([H])c(C(=O)N([H])C(C([H])([H])[H])(C([H])([H])[H])C([H])([H])[H])c([H])c([H])c4OC([H])([H])[H])n3C([H])(C([H])([H])[H])C([H])([H])[H])C(=O)N2c2c([H])c(Cl)c([H])c([H])c2C([H])([H])[H])c([H])c([H])c1Cl


 43 47  0  0  0  0  0  0  0  0999 V2000
   12.3220   21.8184   -0.7398 C   0  0  0  0  0  0  0  0  0  0  0  0
   12.4044   22.3241   -2.0113 N   0  0  0  0  0  0  0  0  0  0  0  0
   13.2887   23.3323   -2.0357 C   0  0  0  0  0  0  0  0  0  0  0  0
   13.9501   24.3182   -2.9195 C   0  0  0  0  0  0  0  0  0  0  0  0
   13.6678   24.3878   -4.1554 O   0  0  0  0  0  0  0  0  0  0  0  0
   14.8311   25.0222   -2.1027 N   0  0  0  0  0  0  0  0  0  0  0  0
   14.7130   24.5959   -0.7608 C   0  0  0  0  0  0  0  0  0  0  0  0
   13.7627   23.4652   -0.7805 C   0  0  0  0  0  0  0  0  0  0  0  0
   13.1488   22.5138    0.0049 N   0  0  0  0  0  0  0  0  0  0  0  0
   15.7316   26.0126   -2.6535 C   0  0  0  0  0  0  0  0  0  0  0  0
   17.0608   26.0151   -2.2708 C   0  0  0  0  0  0  0  0  0  0  0  0
   17.9466   26.9391   -2.7718 C   0  0  0  0  0  0  0  0  0  0  0  0
   19.6337   26.9330   -2.2805 Cl  0  0  0  0  0  0  0  0  0  0  0  0
   17.5122   27.8922   -3.6785 C   0  0  0  0  0  0  0  0  0  0  0  0
   16.1917   27.8745   -4.0471 C   0  0  0  0  0  0  0  0  0  0  0  0
   15.2895   26.9275   -3.5324 C   0  0  0  0  0  0  0  0  0  0  0  0
   13.9121   27.0392   -4.0281 C   0  0  0  0  0  0  0  0  0  0  0  0
   14.3604   25.6186    0.2205 C   0  0  0  0  0  0  0  0  0  0  0  0
   15.2839   26.1116    1.1057 C   0  0  0  0  0  0  0  0  0  0  0  0
   14.8873   27.0498    2.0131 C   0  0  0  0  0  0  0  0  0  0  0  0
   13.5810   27.5191    2.0684 C   0  0  0  0  0  0  0  0  0  0  0  0
   13.0815   28.7208    3.2364 Cl  0  0  0  0  0  0  0  0  0  0  0  0
   12.6550   27.0315    1.1877 C   0  0  0  0  0  0  0  0  0  0  0  0
   13.0588   26.0786    0.2660 C   0  0  0  0  0  0  0  0  0  0  0  0
   11.9385   19.7127    0.3842 C   0  0  0  0  0  0  0  0  0  0  0  0
   11.1477   18.6414    0.7629 C   0  0  0  0  0  0  0  0  0  0  0  0
    9.8268   18.5770    0.3869 C   0  0  0  0  0  0  0  0  0  0  0  0
    9.2762   19.5945   -0.3808 C   0  0  0  0  0  0  0  0  0  0  0  0
   10.0919   20.6407   -0.7370 C   0  0  0  0  0  0  0  0  0  0  0  0
   11.3987   20.7312   -0.3802 C   0  0  0  0  0  0  0  0  0  0  0  0
    7.8735   19.5286   -0.7915 C   0  0  0  0  0  0  0  0  0  0  0  0
    7.0484   18.9922   -0.0320 O   0  0  0  0  0  0  0  0  0  0  0  0
    7.4458   20.0642   -2.0252 N   0  0  0  0  0  0  0  0  0  0  0  0
    8.1640   20.5183   -2.6432 H   0  0  0  0  0  0  0  0  0  0  0  0
    6.0543   20.0021   -2.4437 C   0  0  0  0  0  0  0  0  0  0  0  0
    5.4750   18.6946   -1.9552 C   0  0  0  0  0  0  0  0  0  0  0  0
    5.2934   21.1020   -1.6999 C   0  0  0  0  0  0  0  0  0  0  0  0
    5.8693   20.0968   -3.9193 C   0  0  0  0  0  0  0  0  0  0  0  0
   13.7993   19.0141    1.8259 C   0  0  0  0  0  0  0  0  0  0  0  0
   13.2620   19.7537    0.7740 O   0  0  0  0  0  0  0  0  0  0  0  0
   13.4195   22.4058    1.4009 C   0  0  0  0  0  0  0  0  0  0  0  0
   14.1124   21.1863    1.8878 C   0  0  0  0  0  0  0  0  0  0  0  0
   12.1217   22.5346    2.2284 C   0  0  0  0  0  0  0  0  0  0  0  0
 39 40  1  0  0  0
 40 25  1  0  0  0
 25 26  2  0  0  0
 26 27  1  0  0  0
 27 28  2  0  0  0
 28 29  1  0  0  0
 29 30  2  0  0  0
 30  1  1  0  0  0
  1  2  2  0  0  0
  2  3  1  0  0  0
  3  4  1  0  0  0
  4  5  2  0  0  0
  4  6  1  0  0  0
  6  7  1  0  0  0
  7  8  1  0  0  0
  8  9  1  0  0  0
  9 41  1  0  0  0
 41 42  1  0  0  0
 41 43  1  0  0  0
  7 18  1  0  0  0
 18 19  2  0  0  0
 19 20  1  0  0  0
 20 21  2  0  0  0
 21 22  1  0  0  0
 21 23  1  0  0  0
 23 24  2  0  0  0
  6 10  1  0  0  0
 10 11  2  0  0  0
 11 12  1  0  0  0
 12 13  1  0  0  0
 12 14  2  0  0  0
 14 15  1  0  0  0
 15 16  2  0  0  0
 16 17  1  0  0  0
 28 31  1  0  0  0
 31 32  2  0  0  0
 31 33  1  0  0  0
 33 35  1  0  0  0
 35 36  1  0  0  0
 35 37  1  0  0  0
 35 38  1  0  0  0
 30 25  1  0  0  0
  9  1  1  0  0  0
 24 18  1  0  0  0
 16 10  1  0  0  0
  8  3  2  0  0  0
 33 34  1  0  0  0
M  END
> <minimizedAffinity>
20.85948

> <CNNscore>
0.4574866593

> <CNNaffinity>
7.4076013565

> <CNN_VS>
3.3888788223

> <CNNaffinity_variance>
0.6582627296

$$$$
[H]c1c([H])c(C2([H])c3c(nc(-c4c([H])c(C(=O)N([H])C(C([H])([H])[H])(C([H])([H])[H])C([H])([H])[H])c([H])c([H])c4OC([H])([H])[H])n3C([H])(C([H])([H])[H])C([H])([H])[H])C(=O)N2c2c([H])c(Cl)c([H])c([H])c2C([H])([H])[H])c([H])c([H])c1Cl


 43 47  0  0  0  0  0  0  0  0999 V2000
   13.6580   23.1406   -0.0192 C   0  0  0  0  0  0  0  0  0  0  0  0
   14.9806   23.2960    0.3063 N   0  0  0  0  0  0  0  0  0  0  0  0
   15.5521   24.1617   -0.5440 C   0  0  0  0  0  0  0  0  0  0  0  0
   16.8167   24.8610   -0.8643 C   0  0  0  0  0  0  0  0  0  0  0  0
   17.8710   24.6580   -0.1865 O   0  0  0  0  0  0  0  0  0  0  0  0
   16.5289   25.6744   -1.9572 N   0  0  0  0  0  0  0  0  0  0  0  0
   15.1971   25.4773   -2.3862 C   0  0  0  0  0  0  0  0  0  0  0  0
   14.5925   24.5509   -1.4074 C   0  0  0  0  0  0  0  0  0  0  0  0
   13.4259   23.9048   -1.0603 N   0  0  0  0  0  0  0  0  0  0  0  0
   17.5160   26.5905   -2.4875 C   0  0  0  0  0  0  0  0  0  0  0  0
   17.1036   27.6978   -3.2065 C   0  0  0  0  0  0  0  0  0  0  0  0
   18.0105   28.5908   -3.7257 C   0  0  0  0  0  0  0  0  0  0  0  0
   17.4764   29.9954   -4.6364 Cl  0  0  0  0  0  0  0  0  0  0  0  0
   19.3674   28.3891   -3.5323 C   0  0  0  0  0  0  0  0  0  0  0  0
   19.7582   27.2868   -2.8167 C   0  0  0  0  0  0  0  0  0  0  0  0
   18.8272   26.3765   -2.2873 C   0  0  0  0  0  0  0  0  0  0  0  0
   19.4044   25.2501   -1.5434 C   0  0  0  0  0  0  0  0  0  0  0  0
   15.0140   25.0435   -3.7687 C   0  0  0  0  0  0  0  0  0  0  0  0
   15.2585   23.7504   -4.1529 C   0  0  0  0  0  0  0  0  0  0  0  0
   15.0905   23.4124   -5.4637 C   0  0  0  0  0  0  0  0  0  0  0  0
   14.6816   24.3348   -6.4185 C   0  0  0  0  0  0  0  0  0  0  0  0
   14.4705   23.8926   -8.0971 Cl  0  0  0  0  0  0  0  0  0  0  0  0
   14.4357   25.6265   -6.0416 C   0  0  0  0  0  0  0  0  0  0  0  0
   14.6063   25.9689   -4.7096 C   0  0  0  0  0  0  0  0  0  0  0  0
   13.3874   21.1260    1.2892 C   0  0  0  0  0  0  0  0  0  0  0  0
   12.6312   20.1955    1.9814 C   0  0  0  0  0  0  0  0  0  0  0  0
   11.2687   20.3420    2.0928 C   0  0  0  0  0  0  0  0  0  0  0  0
   10.6403   21.4324    1.5064 C   0  0  0  0  0  0  0  0  0  0  0  0
   11.4237   22.3341    0.8281 C   0  0  0  0  0  0  0  0  0  0  0  0
   12.7703   22.2157    0.7021 C   0  0  0  0  0  0  0  0  0  0  0  0
    9.1898   21.5903    1.6139 C   0  0  0  0  0  0  0  0  0  0  0  0
    8.7336   22.4531    2.3839 O   0  0  0  0  0  0  0  0  0  0  0  0
    8.3079   20.7870    0.8596 N   0  0  0  0  0  0  0  0  0  0  0  0
    8.7221   20.0713    0.2115 H   0  0  0  0  0  0  0  0  0  0  0  0
    6.8646   20.9346    0.9607 C   0  0  0  0  0  0  0  0  0  0  0  0
    6.4393   22.0433    0.0260 C   0  0  0  0  0  0  0  0  0  0  0  0
    6.2250   19.6563    0.4139 C   0  0  0  0  0  0  0  0  0  0  0  0
    6.3911   21.2491    2.3382 C   0  0  0  0  0  0  0  0  0  0  0  0
   15.3761   20.0076    0.3819 C   0  0  0  0  0  0  0  0  0  0  0  0
   14.7536   20.9561    1.1912 O   0  0  0  0  0  0  0  0  0  0  0  0
   12.2199   24.0864   -1.7996 C   0  0  0  0  0  0  0  0  0  0  0  0
   11.2421   25.0901   -1.3088 C   0  0  0  0  0  0  0  0  0  0  0  0
   11.4505   22.7546   -1.9403 C   0  0  0  0  0  0  0  0  0  0  0  0
 39 40  1  0  0  0
 40 25  1  0  0  0
 25 26  2  0  0  0
 26 27  1  0  0  0
 27 28  2  0  0  0
 28 29  1  0  0  0
 29 30  2  0  0  0
 30  1  1  0  0  0
  1  2  2  0  0  0
  2  3  1  0  0  0
  3  4  1  0  0  0
  4  5  2  0  0  0
  4  6  1  0  0  0
  6  7  1  0  0  0
  7  8  1  0  0  0
  8  9  1  0  0  0
  9 41  1  0  0  0
 41 42  1  0  0  0
 41 43  1  0  0  0
  7 18  1  0  0  0
 18 19  2  0  0  0
 19 20  1  0  0  0
 20 21  2  0  0  0
 21 22  1  0  0  0
 21 23  1  0  0  0
 23 24  2  0  0  0
  6 10  1  0  0  0
 10 11  2  0  0  0
 11 12  1  0  0  0
 12 13  1  0  0  0
 12 14  2  0  0  0
 14 15  1  0  0  0
 15 16  2  0  0  0
 16 17  1  0  0  0
 28 31  1  0  0  0
 31 32  2  0  0  0
 31 33  1  0  0  0
 33 35  1  0  0  0
 35 36  1  0  0  0
 35 37  1  0  0  0
 35 38  1  0  0  0
 30 25  1  0  0  0
  9  1  1  0  0  0
 24 18  1  0  0  0
 16 10  1  0  0  0
  8  3  2  0  0  0
 33 34  1  0  0  0
M  END
> <minimizedAffinity>
18.64803

> <CNNscore>
0.4474692941

> <CNNaffinity>
8.0007877350

> <CNN_VS>
3.5801067352

> <CNNaffinity_variance>
0.6314583421

$$$$
[H]c1c([H])c(C2([H])c3c(nc(-c4c([H])c(C(=O)N([H])C(C([H])([H])[H])(C([H])([H])[H])C([H])([H])[H])c([H])c([H])c4OC([H])([H])[H])n3C([H])(C([H])([H])[H])C([H])([H])[H])C(=O)N2c2c([H])c(Cl)c([H])c([H])c2C([H])([H])[H])c([H])c([H])c1Cl


 43 47  0  0  0  0  0  0  0  0999 V2000
   11.1294   23.5839   -0.6386 C   0  0  0  0  0  0  0  0  0  0  0  0
   10.9944   24.7314   -1.3765 N   0  0  0  0  0  0  0  0  0  0  0  0
   12.1396   24.9816   -2.0285 C   0  0  0  0  0  0  0  0  0  0  0  0
   12.7921   25.9065   -2.9821 C   0  0  0  0  0  0  0  0  0  0  0  0
   12.1801   26.9211   -3.4385 O   0  0  0  0  0  0  0  0  0  0  0  0
   14.0710   25.3947   -3.1854 N   0  0  0  0  0  0  0  0  0  0  0  0
   14.2872   24.2600   -2.3716 C   0  0  0  0  0  0  0  0  0  0  0  0
   12.9981   23.9949   -1.7010 C   0  0  0  0  0  0  0  0  0  0  0  0
   12.3476   23.1392   -0.8386 N   0  0  0  0  0  0  0  0  0  0  0  0
   14.9711   25.9930   -4.1481 C   0  0  0  0  0  0  0  0  0  0  0  0
   14.8470   25.6752   -5.4886 C   0  0  0  0  0  0  0  0  0  0  0  0
   15.6824   26.2227   -6.4329 C   0  0  0  0  0  0  0  0  0  0  0  0
   15.5155   25.8139   -8.1336 Cl  0  0  0  0  0  0  0  0  0  0  0  0
   16.6726   27.1116   -6.0475 C   0  0  0  0  0  0  0  0  0  0  0  0
   16.7809   27.4157   -4.7149 C   0  0  0  0  0  0  0  0  0  0  0  0
   15.9241   26.8535   -3.7528 C   0  0  0  0  0  0  0  0  0  0  0  0
   16.1666   27.2823   -2.3698 C   0  0  0  0  0  0  0  0  0  0  0  0
   15.4098   24.3293   -1.4399 C   0  0  0  0  0  0  0  0  0  0  0  0
   16.7078   24.3432   -1.8808 C   0  0  0  0  0  0  0  0  0  0  0  0
   17.7132   24.3861   -0.9599 C   0  0  0  0  0  0  0  0  0  0  0  0
   17.4637   24.4152    0.4063 C   0  0  0  0  0  0  0  0  0  0  0  0
   18.7593   24.4685    1.5795 Cl  0  0  0  0  0  0  0  0  0  0  0  0
   16.1708   24.4020    0.8526 C   0  0  0  0  0  0  0  0  0  0  0  0
   15.1500   24.3587   -0.0836 C   0  0  0  0  0  0  0  0  0  0  0  0
    9.4631   21.8916   -0.1872 C   0  0  0  0  0  0  0  0  0  0  0  0
    8.4369   21.3373    0.5586 C   0  0  0  0  0  0  0  0  0  0  0  0
    7.9986   21.9465    1.7106 C   0  0  0  0  0  0  0  0  0  0  0  0
    8.5881   23.1302    2.1340 C   0  0  0  0  0  0  0  0  0  0  0  0
    9.6030   23.6496    1.3678 C   0  0  0  0  0  0  0  0  0  0  0  0
   10.0566   23.0704    0.2269 C   0  0  0  0  0  0  0  0  0  0  0  0
    8.1213   23.7883    3.3544 C   0  0  0  0  0  0  0  0  0  0  0  0
    8.1936   23.1760    4.4339 O   0  0  0  0  0  0  0  0  0  0  0  0
    7.5981   25.0988    3.3254 N   0  0  0  0  0  0  0  0  0  0  0  0
    7.5562   25.5946    2.4001 H   0  0  0  0  0  0  0  0  0  0  0  0
    7.1296   25.7611    4.5325 C   0  0  0  0  0  0  0  0  0  0  0  0
    6.2668   26.9316    4.1211 C   0  0  0  0  0  0  0  0  0  0  0  0
    6.1999   24.7918    5.2661 C   0  0  0  0  0  0  0  0  0  0  0  0
    8.2294   26.2505    5.4108 C   0  0  0  0  0  0  0  0  0  0  0  0
    9.0335   20.7023   -2.2919 C   0  0  0  0  0  0  0  0  0  0  0  0
    9.8846   21.2609   -1.3403 O   0  0  0  0  0  0  0  0  0  0  0  0
   12.9965   21.9957   -0.2861 C   0  0  0  0  0  0  0  0  0  0  0  0
   12.7634   20.6786   -0.9305 C   0  0  0  0  0  0  0  0  0  0  0  0
   12.6403   21.8243    1.2070 C   0  0  0  0  0  0  0  0  0  0  0  0
 39 40  1  0  0  0
 40 25  1  0  0  0
 25 26  2  0  0  0
 26 27  1  0  0  0
 27 28  2  0  0  0
 28 29  1  0  0  0
 29 30  2  0  0  0
 30  1  1  0  0  0
  1  2  2  0  0  0
  2  3  1  0  0  0
  3  4  1  0  0  0
  4  5  2  0  0  0
  4  6  1  0  0  0
  6  7  1  0  0  0
  7  8  1  0  0  0
  8  9  1  0  0  0
  9 41  1  0  0  0
 41 42  1  0  0  0
 41 43  1  0  0  0
  7 18  1  0  0  0
 18 19  2  0  0  0
 19 20  1  0  0  0
 20 21  2  0  0  0
 21 22  1  0  0  0
 21 23  1  0  0  0
 23 24  2  0  0  0
  6 10  1  0  0  0
 10 11  2  0  0  0
 11 12  1  0  0  0
 12 13  1  0  0  0
 12 14  2  0  0  0
 14 15  1  0  0  0
 15 16  2  0  0  0
 16 17  1  0  0  0
 28 31  1  0  0  0
 31 32  2  0  0  0
 31 33  1  0  0  0
 33 35  1  0  0  0
 35 36  1  0  0  0
 35 37  1  0  0  0
 35 38  1  0  0  0
 30 25  1  0  0  0
  9  1  1  0  0  0
 24 18  1  0  0  0
 16 10  1  0  0  0
  8  3  2  0  0  0
 33 34  1  0  0  0
M  END
> <minimizedAffinity>
-4.74282

> <CNNscore>
0.4417307973

> <CNNaffinity>
8.2714099884

> <CNN_VS>
3.6537365913

> <CNNaffinity_variance>
0.3819055557

$$$$
[H]c1c([H])c(C2([H])c3c(nc(-c4c([H])c(C(=O)N([H])C(C([H])([H])[H])(C([H])([H])[H])C([H])([H])[H])c([H])c([H])c4OC([H])([H])[H])n3C([H])(C([H])([H])[H])C([H])([H])[H])C(=O)N2c2c([H])c(Cl)c([H])c([H])c2C([H])([H])[H])c([H])c([H])c1Cl


 43 47  0  0  0  0  0  0  0  0999 V2000
   11.3849   23.4812   -0.9238 C   0  0  0  0  0  0  0  0  0  0  0  0
   11.2308   24.7076   -1.5167 N   0  0  0  0  0  0  0  0  0  0  0  0
   12.3929   25.0870   -2.0687 C   0  0  0  0  0  0  0  0  0  0  0  0
   13.0457   26.1534   -2.8609 C   0  0  0  0  0  0  0  0  0  0  0  0
   12.4084   27.1920   -3.2177 O   0  0  0  0  0  0  0  0  0  0  0  0
   14.3561   25.7254   -3.0577 N   0  0  0  0  0  0  0  0  0  0  0  0
   14.5868   24.5053   -2.3834 C   0  0  0  0  0  0  0  0  0  0  0  0
   13.2809   24.1028   -1.8227 C   0  0  0  0  0  0  0  0  0  0  0  0
   12.6313   23.1168   -1.1121 N   0  0  0  0  0  0  0  0  0  0  0  0
   15.2720   26.4796   -3.8866 C   0  0  0  0  0  0  0  0  0  0  0  0
   16.4503   26.9576   -3.3424 C   0  0  0  0  0  0  0  0  0  0  0  0
   17.3455   27.6775   -4.0972 C   0  0  0  0  0  0  0  0  0  0  0  0
   18.8405   28.2791   -3.3969 Cl  0  0  0  0  0  0  0  0  0  0  0  0
   17.0740   27.9365   -5.4308 C   0  0  0  0  0  0  0  0  0  0  0  0
   15.9018   27.4545   -5.9538 C   0  0  0  0  0  0  0  0  0  0  0  0
   14.9895   26.7185   -5.1781 C   0  0  0  0  0  0  0  0  0  0  0  0
   13.7834   26.2702   -5.8852 C   0  0  0  0  0  0  0  0  0  0  0  0
   15.6583   24.5004   -1.3909 C   0  0  0  0  0  0  0  0  0  0  0  0
   16.9783   24.5214   -1.7607 C   0  0  0  0  0  0  0  0  0  0  0  0
   17.9330   24.4927   -0.7868 C   0  0  0  0  0  0  0  0  0  0  0  0
   17.6105   24.4421    0.5634 C   0  0  0  0  0  0  0  0  0  0  0  0
   18.8415   24.4039    1.8048 Cl  0  0  0  0  0  0  0  0  0  0  0  0
   16.2954   24.4213    0.9388 C   0  0  0  0  0  0  0  0  0  0  0  0
   15.3261   24.4509   -0.0512 C   0  0  0  0  0  0  0  0  0  0  0  0
    9.7093   21.7411   -0.8309 C   0  0  0  0  0  0  0  0  0  0  0  0
    8.6703   21.0588   -0.2214 C   0  0  0  0  0  0  0  0  0  0  0  0
    8.2137   21.4386    1.0187 C   0  0  0  0  0  0  0  0  0  0  0  0
    8.7974   22.5170    1.6699 C   0  0  0  0  0  0  0  0  0  0  0  0
    9.8256   23.1689    1.0335 C   0  0  0  0  0  0  0  0  0  0  0  0
   10.2973   22.8164   -0.1897 C   0  0  0  0  0  0  0  0  0  0  0  0
    8.3113   22.9318    2.9860 C   0  0  0  0  0  0  0  0  0  0  0  0
    8.4614   22.1645    3.9525 O   0  0  0  0  0  0  0  0  0  0  0  0
    7.6831   24.1816    3.1740 N   0  0  0  0  0  0  0  0  0  0  0  0
    7.5768   24.8124    2.3406 H   0  0  0  0  0  0  0  0  0  0  0  0
    7.1946   24.6025    4.4776 C   0  0  0  0  0  0  0  0  0  0  0  0
    8.3875   24.9649    5.3316 C   0  0  0  0  0  0  0  0  0  0  0  0
    6.4070   25.9004    4.2844 C   0  0  0  0  0  0  0  0  0  0  0  0
    6.3905   23.5622    5.1789 C   0  0  0  0  0  0  0  0  0  0  0  0
    9.3204   20.8721   -3.0942 C   0  0  0  0  0  0  0  0  0  0  0  0
   10.1491   21.3405   -2.0764 O   0  0  0  0  0  0  0  0  0  0  0  0
   13.3068   21.9396   -0.6743 C   0  0  0  0  0  0  0  0  0  0  0  0
   13.0573   20.6744   -1.4101 C   0  0  0  0  0  0  0  0  0  0  0  0
   13.0077   21.6500    0.8131 C   0  0  0  0  0  0  0  0  0  0  0  0
 39 40  1  0  0  0
 40 25  1  0  0  0
 25 26  2  0  0  0
 26 27  1  0  0  0
 27 28  2  0  0  0
 28 29  1  0  0  0
 29 30  2  0  0  0
 30  1  1  0  0  0
  1  2  2  0  0  0
  2  3  1  0  0  0
  3  4  1  0  0  0
  4  5  2  0  0  0
  4  6  1  0  0  0
  6  7  1  0  0  0
  7  8  1  0  0  0
  8  9  1  0  0  0
  9 41  1  0  0  0
 41 42  1  0  0  0
 41 43  1  0  0  0
  7 18  1  0  0  0
 18 19  2  0  0  0
 19 20  1  0  0  0
 20 21  2  0  0  0
 21 22  1  0  0  0
 21 23  1  0  0  0
 23 24  2  0  0  0
  6 10  1  0  0  0
 10 11  2  0  0  0
 11 12  1  0  0  0
 12 13  1  0  0  0
 12 14  2  0  0  0
 14 15  1  0  0  0
 15 16  2  0  0  0
 16 17  1  0  0  0
 28 31  1  0  0  0
 31 32  2  0  0  0
 31 33  1  0  0  0
 33 35  1  0  0  0
 35 36  1  0  0  0
 35 37  1  0  0  0
 35 38  1  0  0  0
 30 25  1  0  0  0
  9  1  1  0  0  0
 24 18  1  0  0  0
 16 10  1  0  0  0
  8  3  2  0  0  0
 33 34  1  0  0  0
M  END
> <minimizedAffinity>
-3.75041

> <CNNscore>
0.4396001399

> <CNNaffinity>
8.2360095978

> <CNN_VS>
3.6205508709

> <CNNaffinity_variance>
0.4219084680

$$$$
[H]c1c([H])c(C2([H])c3c(nc(-c4c([H])c(C(=O)N([H])C(C([H])([H])[H])(C([H])([H])[H])C([H])([H])[H])c([H])c([H])c4OC([H])([H])[H])n3C([H])(C([H])([H])[H])C([H])([H])[H])C(=O)N2c2c([H])c(Cl)c([H])c([H])c2C([H])([H])[H])c([H])c([H])c1Cl


 43 47  0  0  0  0  0  0  0  0999 V2000
   10.5955   23.2215   -0.2290 C   0  0  0  0  0  0  0  0  0  0  0  0
   10.5012   24.3679   -0.9749 N   0  0  0  0  0  0  0  0  0  0  0  0
   11.6515   24.5681   -1.6351 C   0  0  0  0  0  0  0  0  0  0  0  0
   12.3341   25.4596   -2.5995 C   0  0  0  0  0  0  0  0  0  0  0  0
   11.7596   26.4938   -3.0603 O   0  0  0  0  0  0  0  0  0  0  0  0
   13.5909   24.8965   -2.8059 N   0  0  0  0  0  0  0  0  0  0  0  0
   13.7672   23.7604   -1.9845 C   0  0  0  0  0  0  0  0  0  0  0  0
   12.4726   23.5511   -1.3048 C   0  0  0  0  0  0  0  0  0  0  0  0
   11.7942   22.7280   -0.4322 N   0  0  0  0  0  0  0  0  0  0  0  0
   14.5081   25.4518   -3.7781 C   0  0  0  0  0  0  0  0  0  0  0  0
   14.5941   26.8240   -3.9300 C   0  0  0  0  0  0  0  0  0  0  0  0
   15.4531   27.3893   -4.8422 C   0  0  0  0  0  0  0  0  0  0  0  0
   15.5561   29.1337   -5.0265 Cl  0  0  0  0  0  0  0  0  0  0  0  0
   16.2538   26.5798   -5.6314 C   0  0  0  0  0  0  0  0  0  0  0  0
   16.1559   25.2221   -5.4670 C   0  0  0  0  0  0  0  0  0  0  0  0
   15.2763   24.6485   -4.5326 C   0  0  0  0  0  0  0  0  0  0  0  0
   15.2916   23.1815   -4.4751 C   0  0  0  0  0  0  0  0  0  0  0  0
   14.8970   23.7926   -1.0595 C   0  0  0  0  0  0  0  0  0  0  0  0
   15.2395   22.6988   -0.3074 C   0  0  0  0  0  0  0  0  0  0  0  0
   16.2915   22.7987    0.5551 C   0  0  0  0  0  0  0  0  0  0  0  0
   17.0237   23.9708    0.6953 C   0  0  0  0  0  0  0  0  0  0  0  0
   18.3699   24.0901    1.8050 Cl  0  0  0  0  0  0  0  0  0  0  0  0
   16.6874   25.0656   -0.0525 C   0  0  0  0  0  0  0  0  0  0  0  0
   15.6187   24.9631   -0.9288 C   0  0  0  0  0  0  0  0  0  0  0  0
    9.2922   23.5095    1.7866 C   0  0  0  0  0  0  0  0  0  0  0  0
    8.2964   23.1432    2.6759 C   0  0  0  0  0  0  0  0  0  0  0  0
    7.5167   22.0359    2.4388 C   0  0  0  0  0  0  0  0  0  0  0  0
    7.7267   21.2741    1.2971 C   0  0  0  0  0  0  0  0  0  0  0  0
    8.7237   21.6689    0.4386 C   0  0  0  0  0  0  0  0  0  0  0  0
    9.5085   22.7570    0.6464 C   0  0  0  0  0  0  0  0  0  0  0  0
    6.9062   20.0898    1.0425 C   0  0  0  0  0  0  0  0  0  0  0  0
    6.1350   19.6893    1.9314 O   0  0  0  0  0  0  0  0  0  0  0  0
    6.9737   19.4033   -0.1887 N   0  0  0  0  0  0  0  0  0  0  0  0
    7.6289   19.7690   -0.9241 H   0  0  0  0  0  0  0  0  0  0  0  0
    6.1640   18.2240   -0.4511 C   0  0  0  0  0  0  0  0  0  0  0  0
    5.2494   18.5316   -1.6142 C   0  0  0  0  0  0  0  0  0  0  0  0
    7.0992   17.1135   -0.9350 C   0  0  0  0  0  0  0  0  0  0  0  0
    5.3424   17.7917    0.7146 C   0  0  0  0  0  0  0  0  0  0  0  0
    9.7013   25.6465    2.9246 C   0  0  0  0  0  0  0  0  0  0  0  0
   10.0618   24.6252    2.0476 O   0  0  0  0  0  0  0  0  0  0  0  0
   12.4010   21.5642    0.1256 C   0  0  0  0  0  0  0  0  0  0  0  0
   11.8716   20.2368   -0.2773 C   0  0  0  0  0  0  0  0  0  0  0  0
   12.3606   21.6041    1.6691 C   0  0  0  0  0  0  0  0  0  0  0  0
 39 40  1  0  0  0
 40 25  1  0  0  0
 25 26  2  0  0  0
 26 27  1  0  0  0
 27 28  2  0  0  0
 28 29  1  0  0  0
 29 30  2  0  0  0
 30  1  1  0  0  0
  1  2  2  0  0  0
  2  3  1  0  0  0
  3  4  1  0  0  0
  4  5  2  0  0  0
  4  6  1  0  0  0
  6  7  1  0  0  0
  7  8  1  0  0  0
  8  9  1  0  0  0
  9 41  1  0  0  0
 41 42  1  0  0  0
 41 43  1  0  0  0
  7 18  1  0  0  0
 18 19  2  0  0  0
 19 20  1  0  0  0
 20 21  2  0  0  0
 21 22  1  0  0  0
 21 23  1  0  0  0
 23 24  2  0  0  0
  6 10  1  0  0  0
 10 11  2  0  0  0
 11 12  1  0  0  0
 12 13  1  0  0  0
 12 14  2  0  0  0
 14 15  1  0  0  0
 15 16  2  0  0  0
 16 17  1  0  0  0
 28 31  1  0  0  0
 31 32  2  0  0  0
 31 33  1  0  0  0
 33 35  1  0  0  0
 35 36  1  0  0  0
 35 37  1  0  0  0
 35 38  1  0  0  0
 30 25  1  0  0  0
  9  1  1  0  0  0
 24 18  1  0  0  0
 16 10  1  0  0  0
  8  3  2  0  0  0
 33 34  1  0  0  0
M  END
> <minimizedAffinity>
-4.57572

> <CNNscore>
0.4228166342

> <CNNaffinity>
8.0181474686

> <CNN_VS>
3.3902060986

> <CNNaffinity_variance>
0.1820092201

$$$$
[H]c1c([H])c(C2([H])c3c(nc(-c4c([H])c(C(=O)N([H])C(C([H])([H])[H])(C([H])([H])[H])C([H])([H])[H])c([H])c([H])c4OC([H])([H])[H])n3C([H])(C([H])([H])[H])C([H])([H])[H])C(=O)N2c2c([H])c(Cl)c([H])c([H])c2C([H])([H])[H])c([H])c([H])c1Cl


 43 47  0  0  0  0  0  0  0  0999 V2000
   12.6789   25.0149   -1.5256 C   0  0  0  0  0  0  0  0  0  0  0  0
   11.4631   24.4379   -1.2640 N   0  0  0  0  0  0  0  0  0  0  0  0
   11.5944   23.5494   -0.2677 C   0  0  0  0  0  0  0  0  0  0  0  0
   10.8513   22.5963    0.5867 C   0  0  0  0  0  0  0  0  0  0  0  0
    9.6052   22.4075    0.4326 O   0  0  0  0  0  0  0  0  0  0  0  0
   11.7936   22.0659    1.4641 N   0  0  0  0  0  0  0  0  0  0  0  0
   13.0825   22.5647    1.1698 C   0  0  0  0  0  0  0  0  0  0  0  0
   12.8921   23.5631    0.0980 C   0  0  0  0  0  0  0  0  0  0  0  0
   13.5443   24.4813   -0.6960 N   0  0  0  0  0  0  0  0  0  0  0  0
   11.4020   21.1612    2.5238 C   0  0  0  0  0  0  0  0  0  0  0  0
   10.3485   21.4975    3.3545 C   0  0  0  0  0  0  0  0  0  0  0  0
    9.9468   20.6649    4.3717 C   0  0  0  0  0  0  0  0  0  0  0  0
    8.6061   21.1006    5.4206 Cl  0  0  0  0  0  0  0  0  0  0  0  0
   10.6019   19.4620    4.5797 C   0  0  0  0  0  0  0  0  0  0  0  0
   11.6434   19.1445    3.7466 C   0  0  0  0  0  0  0  0  0  0  0  0
   12.0505   19.9990    2.7074 C   0  0  0  0  0  0  0  0  0  0  0  0
   13.1785   19.5144    1.9022 C   0  0  0  0  0  0  0  0  0  0  0  0
   14.1081   21.5752    0.8503 C   0  0  0  0  0  0  0  0  0  0  0  0
   15.2626   21.4768    1.5830 C   0  0  0  0  0  0  0  0  0  0  0  0
   16.1926   20.5469    1.2206 C   0  0  0  0  0  0  0  0  0  0  0  0
   16.0071   19.6998    0.1354 C   0  0  0  0  0  0  0  0  0  0  0  0
   17.2058   18.5118   -0.3226 Cl  0  0  0  0  0  0  0  0  0  0  0  0
   14.8572   19.7927   -0.5994 C   0  0  0  0  0  0  0  0  0  0  0  0
   13.9128   20.7374   -0.2304 C   0  0  0  0  0  0  0  0  0  0  0  0
   13.7169   25.6131   -3.6253 C   0  0  0  0  0  0  0  0  0  0  0  0
   13.9663   26.4781   -4.6770 C   0  0  0  0  0  0  0  0  0  0  0  0
   13.3810   27.7216   -4.7166 C   0  0  0  0  0  0  0  0  0  0  0  0
   12.5307   28.1183   -3.6932 C   0  0  0  0  0  0  0  0  0  0  0  0
   12.3076   27.2329   -2.6669 C   0  0  0  0  0  0  0  0  0  0  0  0
   12.8709   25.9994   -2.6014 C   0  0  0  0  0  0  0  0  0  0  0  0
   11.9108   29.4432   -3.7246 C   0  0  0  0  0  0  0  0  0  0  0  0
   10.9961   29.6989   -2.9226 O   0  0  0  0  0  0  0  0  0  0  0  0
   12.3351   30.4285   -4.6416 N   0  0  0  0  0  0  0  0  0  0  0  0
   13.1153   30.1866   -5.3023 H   0  0  0  0  0  0  0  0  0  0  0  0
   11.7242   31.7477   -4.6824 C   0  0  0  0  0  0  0  0  0  0  0  0
   11.4120   32.1646   -3.2638 C   0  0  0  0  0  0  0  0  0  0  0  0
   12.7785   32.7353   -5.1875 C   0  0  0  0  0  0  0  0  0  0  0  0
   10.4753   31.8031   -5.4934 C   0  0  0  0  0  0  0  0  0  0  0  0
   15.0431   23.8289   -4.6677 C   0  0  0  0  0  0  0  0  0  0  0  0
   14.3172   24.3704   -3.6085 O   0  0  0  0  0  0  0  0  0  0  0  0
   14.9453   24.7174   -0.5732 C   0  0  0  0  0  0  0  0  0  0  0  0
   15.8777   23.6850   -1.0920 C   0  0  0  0  0  0  0  0  0  0  0  0
   15.3382   24.9650    0.8999 C   0  0  0  0  0  0  0  0  0  0  0  0
 39 40  1  0  0  0
 40 25  1  0  0  0
 25 26  2  0  0  0
 26 27  1  0  0  0
 27 28  2  0  0  0
 28 29  1  0  0  0
 29 30  2  0  0  0
 30  1  1  0  0  0
  1  2  2  0  0  0
  2  3  1  0  0  0
  3  4  1  0  0  0
  4  5  2  0  0  0
  4  6  1  0  0  0
  6  7  1  0  0  0
  7  8  1  0  0  0
  8  9  1  0  0  0
  9 41  1  0  0  0
 41 42  1  0  0  0
 41 43  1  0  0  0
  7 18  1  0  0  0
 18 19  2  0  0  0
 19 20  1  0  0  0
 20 21  2  0  0  0
 21 22  1  0  0  0
 21 23  1  0  0  0
 23 24  2  0  0  0
  6 10  1  0  0  0
 10 11  2  0  0  0
 11 12  1  0  0  0
 12 13  1  0  0  0
 12 14  2  0  0  0
 14 15  1  0  0  0
 15 16  2  0  0  0
 16 17  1  0  0  0
 28 31  1  0  0  0
 31 32  2  0  0  0
 31 33  1  0  0  0
 33 35  1  0  0  0
 35 36  1  0  0  0
 35 37  1  0  0  0
 35 38  1  0  0  0
 30 25  1  0  0  0
  9  1  1  0  0  0
 24 18  1  0  0  0
 16 10  1  0  0  0
  8  3  2  0  0  0
 33 34  1  0  0  0
M  END
> <minimizedAffinity>
27.16033

> <CNNscore>
0.4227103591

> <CNNaffinity>
7.5308976173

> <CNN_VS>
3.1833884716

> <CNNaffinity_variance>
0.2315771133

$$$$
[H]OC(=O)[C@@]([H])(N([H])C(=O)[C@@]([H])(C([H])([H])S[H])C([H])([H])c1c([H])c([H])c([H])c([H])c1[H])C([H])([H])[H]


 21 21  0  0  0  0  0  0  0  0999 V2000
   14.3125   24.0255   -2.3979 C   0  0  0  0  0  0  0  0  0  0  0  0
   13.7225   22.2950   -0.6523 N   0  0  0  0  0  0  0  0  0  0  0  0
   14.2305   22.6121   -1.9231 C   0  0  0  0  0  0  0  0  0  0  0  0
   14.6175   21.6638   -2.6556 O   0  0  0  0  0  0  0  0  0  0  0  0
   13.3965   23.0919   -0.0347 H   0  0  0  0  0  0  0  0  0  0  0  0
   14.8710   20.4460    0.4810 C   0  0  0  0  0  0  0  0  0  0  0  0
   13.6042   20.9820   -0.1109 C   0  0  0  0  0  0  0  0  0  0  0  0
   12.5227   20.9094    0.9010 C   0  0  0  0  0  0  0  0  0  0  0  0
   11.3377   20.2317    0.6892 O   0  0  0  0  0  0  0  0  0  0  0  0
   12.6945   21.4913    1.9998 O   0  0  0  0  0  0  0  0  0  0  0  0
   10.9790   20.1507   -0.2575 H   0  0  0  0  0  0  0  0  0  0  0  0
   14.2815   25.0013   -1.2673 C   0  0  0  0  0  0  0  0  0  0  0  0
   15.6907   24.8016   -0.1434 S   0  0  0  0  0  0  0  0  0  0  0  0
   15.8527   26.0210    0.5408 H   0  0  0  0  0  0  0  0  0  0  0  0
   15.6394   24.1654   -3.1086 C   0  0  0  0  0  0  0  0  0  0  0  0
   15.7342   25.3936   -3.9266 C   0  0  0  0  0  0  0  0  0  0  0  0
   15.1342   25.3801   -5.1785 C   0  0  0  0  0  0  0  0  0  0  0  0
   15.2046   26.5049   -5.9842 C   0  0  0  0  0  0  0  0  0  0  0  0
   15.8544   27.6606   -5.5966 C   0  0  0  0  0  0  0  0  0  0  0  0
   16.4499   27.6725   -4.3530 C   0  0  0  0  0  0  0  0  0  0  0  0
   16.3799   26.5487   -3.5472 C   0  0  0  0  0  0  0  0  0  0  0  0
  6  7  1  0  0  0
  7  2  1  0  0  0
  2  3  1  0  0  0
  3  4  2  0  0  0
  3  1  1  0  0  0
  1 12  1  0  0  0
 12 13  1  0  0  0
  1 15  1  0  0  0
 15 16  1  0  0  0
 16 17  2  0  0  0
 17 18  1  0  0  0
 18 19  2  0  0  0
 19 20  1  0  0  0
 20 21  2  0  0  0
  7  8  1  0  0  0
  8  9  1  0  0  0
  8 10  2  0  0  0
 21 16  1  0  0  0
  2  5  1  0  0  0
 13 14  1  0  0  0
  9 11  1  0  0  0
M  END
> <minimizedAffinity>
-7.35881

> <CNNscore>
0.8805902600

> <CNNaffinity>
6.3442602158

> <CNN_VS>
5.5866937637

> <CNNaffinity_variance>
0.0092818271

$$$$
[H]OC(=O)[C@@]([H])(N([H])C(=O)[C@@]([H])(C([H])([H])S[H])C([H])([H])c1c([H])c([H])c([H])c([H])c1[H])C([H])([H])[H]


 21 21  0  0  0  0  0  0  0  0999 V2000
   14.1669   23.9950   -2.5036 C   0  0  0  0  0  0  0  0  0  0  0  0
   13.8614   22.3485   -0.6099 N   0  0  0  0  0  0  0  0  0  0  0  0
   14.1986   22.6089   -1.9486 C   0  0  0  0  0  0  0  0  0  0  0  0
   14.5306   21.6335   -2.6723 O   0  0  0  0  0  0  0  0  0  0  0  0
   13.5819   23.1684    0.0003 H   0  0  0  0  0  0  0  0  0  0  0  0
   15.1585   20.6991    0.6625 C   0  0  0  0  0  0  0  0  0  0  0  0
   13.8612   21.0654    0.0103 C   0  0  0  0  0  0  0  0  0  0  0  0
   12.7644   20.9433    1.0006 C   0  0  0  0  0  0  0  0  0  0  0  0
   12.8959   21.3276    2.3210 O   0  0  0  0  0  0  0  0  0  0  0  0
   11.6669   20.4686    0.6190 O   0  0  0  0  0  0  0  0  0  0  0  0
   13.8109   21.2802    2.7590 H   0  0  0  0  0  0  0  0  0  0  0  0
   13.6450   24.9851   -1.5145 C   0  0  0  0  0  0  0  0  0  0  0  0
   11.8330   25.0000   -1.4418 S   0  0  0  0  0  0  0  0  0  0  0  0
   11.4715   25.5399   -0.1932 H   0  0  0  0  0  0  0  0  0  0  0  0
   15.5966   24.3609   -2.8315 C   0  0  0  0  0  0  0  0  0  0  0  0
   15.7045   25.4708   -3.8027 C   0  0  0  0  0  0  0  0  0  0  0  0
   16.3877   26.6111   -3.4024 C   0  0  0  0  0  0  0  0  0  0  0  0
   16.5068   27.6803   -4.2754 C   0  0  0  0  0  0  0  0  0  0  0  0
   15.9694   27.6678   -5.5479 C   0  0  0  0  0  0  0  0  0  0  0  0
   15.2912   26.5345   -5.9439 C   0  0  0  0  0  0  0  0  0  0  0  0
   15.1718   25.4656   -5.0721 C   0  0  0  0  0  0  0  0  0  0  0  0
  6  7  1  0  0  0
  7  2  1  0  0  0
  2  3  1  0  0  0
  3  4  2  0  0  0
  3  1  1  0  0  0
  1 12  1  0  0  0
 12 13  1  0  0  0
  1 15  1  0  0  0
 15 16  1  0  0  0
 16 17  2  0  0  0
 17 18  1  0  0  0
 18 19  2  0  0  0
 19 20  1  0  0  0
 20 21  2  0  0  0
  7  8  1  0  0  0
  8  9  1  0  0  0
  8 10  2  0  0  0
 21 16  1  0  0  0
  2  5  1  0  0  0
 13 14  1  0  0  0
  9 11  1  0  0  0
M  END
> <minimizedAffinity>
-7.77664

> <CNNscore>
0.7832427621

> <CNNaffinity>
6.2153501511

> <CNN_VS>
4.8681278229

> <CNNaffinity_variance>
0.0897166803

$$$$
[H]OC(=O)[C@@]([H])(N([H])C(=O)[C@@]([H])(C([H])([H])S[H])C([H])([H])c1c([H])c([H])c([H])c([H])c1[H])C([H])([H])[H]


 21 21  0  0  0  0  0  0  0  0999 V2000
   14.0991   24.6090   -1.6849 C   0  0  0  0  0  0  0  0  0  0  0  0
   12.1189   23.1157   -1.1956 N   0  0  0  0  0  0  0  0  0  0  0  0
   12.6290   24.3635   -1.5911 C   0  0  0  0  0  0  0  0  0  0  0  0
   11.8056   25.2755   -1.8662 O   0  0  0  0  0  0  0  0  0  0  0  0
   12.8107   22.3473   -0.9638 H   0  0  0  0  0  0  0  0  0  0  0  0
   10.3827   21.4318   -1.6106 C   0  0  0  0  0  0  0  0  0  0  0  0
   10.7379   22.7850   -1.0762 C   0  0  0  0  0  0  0  0  0  0  0  0
   10.2751   22.8928    0.3284 C   0  0  0  0  0  0  0  0  0  0  0  0
    9.4443   23.9034    0.7720 O   0  0  0  0  0  0  0  0  0  0  0  0
   10.6573   22.0244    1.1502 O   0  0  0  0  0  0  0  0  0  0  0  0
    9.4816   24.8087    0.3131 H   0  0  0  0  0  0  0  0  0  0  0  0
   14.8814   23.6758   -0.8199 C   0  0  0  0  0  0  0  0  0  0  0  0
   15.8895   24.5520    0.4069 S   0  0  0  0  0  0  0  0  0  0  0  0
   16.1582   23.6444    1.4488 H   0  0  0  0  0  0  0  0  0  0  0  0
   14.4870   24.3586   -3.1244 C   0  0  0  0  0  0  0  0  0  0  0  0
   15.1040   25.5355   -3.7733 C   0  0  0  0  0  0  0  0  0  0  0  0
   16.1228   26.1858   -3.0902 C   0  0  0  0  0  0  0  0  0  0  0  0
   16.7247   27.2986   -3.6548 C   0  0  0  0  0  0  0  0  0  0  0  0
   16.3546   27.8025   -4.8866 C   0  0  0  0  0  0  0  0  0  0  0  0
   15.3426   27.1556   -5.5637 C   0  0  0  0  0  0  0  0  0  0  0  0
   14.7406   26.0434   -5.0001 C   0  0  0  0  0  0  0  0  0  0  0  0
  6  7  1  0  0  0
  7  2  1  0  0  0
  2  3  1  0  0  0
  3  4  2  0  0  0
  3  1  1  0  0  0
  1 12  1  0  0  0
 12 13  1  0  0  0
  1 15  1  0  0  0
 15 16  1  0  0  0
 16 17  2  0  0  0
 17 18  1  0  0  0
 18 19  2  0  0  0
 19 20  1  0  0  0
 20 21  2  0  0  0
  7  8  1  0  0  0
  8  9  1  0  0  0
  8 10  2  0  0  0
 21 16  1  0  0  0
  2  5  1  0  0  0
 13 14  1  0  0  0
  9 11  1  0  0  0
M  END
> <minimizedAffinity>
-6.44571

> <CNNscore>
0.7360991240

> <CNNaffinity>
6.0796914101

> <CNN_VS>
4.4752554893

> <CNNaffinity_variance>
0.0540673248

$$$$
[H]OC(=O)[C@@]([H])(N([H])C(=O)[C@@]([H])(C([H])([H])S[H])C([H])([H])c1c([H])c([H])c([H])c([H])c1[H])C([H])([H])[H]


 21 21  0  0  0  0  0  0  0  0999 V2000
   15.9089   24.2350   -2.0776 C   0  0  0  0  0  0  0  0  0  0  0  0
   15.6326   25.3107   -4.3484 N   0  0  0  0  0  0  0  0  0  0  0  0
   16.2103   25.3114   -3.0679 C   0  0  0  0  0  0  0  0  0  0  0  0
   16.9951   26.2521   -2.7768 O   0  0  0  0  0  0  0  0  0  0  0  0
   14.9720   24.5197   -4.5948 H   0  0  0  0  0  0  0  0  0  0  0  0
   15.4708   25.8482   -6.7374 C   0  0  0  0  0  0  0  0  0  0  0  0
   15.8570   26.2896   -5.3595 C   0  0  0  0  0  0  0  0  0  0  0  0
   15.1663   27.5630   -5.0426 C   0  0  0  0  0  0  0  0  0  0  0  0
   15.6998   28.8026   -5.3376 O   0  0  0  0  0  0  0  0  0  0  0  0
   14.0453   27.5091   -4.4804 O   0  0  0  0  0  0  0  0  0  0  0  0
   16.7092   28.9122   -5.3580 H   0  0  0  0  0  0  0  0  0  0  0  0
   15.4702   24.7885   -0.7614 C   0  0  0  0  0  0  0  0  0  0  0  0
   16.0923   23.8177    0.6384 S   0  0  0  0  0  0  0  0  0  0  0  0
   16.0757   24.6584    1.7673 H   0  0  0  0  0  0  0  0  0  0  0  0
   14.7703   23.4249   -2.6545 C   0  0  0  0  0  0  0  0  0  0  0  0
   13.4808   23.6668   -1.9723 C   0  0  0  0  0  0  0  0  0  0  0  0
   12.9254   22.6153   -1.2558 C   0  0  0  0  0  0  0  0  0  0  0  0
   11.7139   22.7923   -0.6076 C   0  0  0  0  0  0  0  0  0  0  0  0
   11.0181   23.9852   -0.6394 C   0  0  0  0  0  0  0  0  0  0  0  0
   11.5710   25.0285   -1.3514 C   0  0  0  0  0  0  0  0  0  0  0  0
   12.7818   24.8524   -1.9995 C   0  0  0  0  0  0  0  0  0  0  0  0
  6  7  1  0  0  0
  7  2  1  0  0  0
  2  3  1  0  0  0
  3  4  2  0  0  0
  3  1  1  0  0  0
  1 12  1  0  0  0
 12 13  1  0  0  0
  1 15  1  0  0  0
 15 16  1  0  0  0
 16 17  2  0  0  0
 17 18  1  0  0  0
 18 19  2  0  0  0
 19 20  1  0  0  0
 20 21  2  0  0  0
  7  8  1  0  0  0
  8  9  1  0  0  0
  8 10  2  0  0  0
 21 16  1  0  0  0
  2  5  1  0  0  0
 13 14  1  0  0  0
  9 11  1  0  0  0
M  END
> <minimizedAffinity>
-6.26822

> <CNNscore>
0.7175417542

> <CNNaffinity>
6.0773591995

> <CNN_VS>
4.3607587814

> <CNNaffinity_variance>
0.0750486776

$$$$
[H]OC(=O)[C@@]([H])(N([H])C(=O)[C@@]([H])(C([H])([H])S[H])C([H])([H])c1c([H])c([H])c([H])c([H])c1[H])C([H])([H])[H]


 21 21  0  0  0  0  0  0  0  0999 V2000
   12.8476   24.2409   -1.9318 C   0  0  0  0  0  0  0  0  0  0  0  0
   13.0369   21.8042   -1.2861 N   0  0  0  0  0  0  0  0  0  0  0  0
   13.2588   23.1590   -0.9881 C   0  0  0  0  0  0  0  0  0  0  0  0
   13.8183   23.4371    0.1051 O   0  0  0  0  0  0  0  0  0  0  0  0
   12.5661   21.5686   -2.2057 H   0  0  0  0  0  0  0  0  0  0  0  0
   14.8555   20.6096   -0.1513 C   0  0  0  0  0  0  0  0  0  0  0  0
   13.3917   20.7034   -0.4535 C   0  0  0  0  0  0  0  0  0  0  0  0
   12.6299   20.7195    0.8186 C   0  0  0  0  0  0  0  0  0  0  0  0
   13.1709   21.1492    2.0148 O   0  0  0  0  0  0  0  0  0  0  0  0
   11.4387   20.3241    0.8051 O   0  0  0  0  0  0  0  0  0  0  0  0
   14.1689   21.0432    2.1704 H   0  0  0  0  0  0  0  0  0  0  0  0
   11.6639   25.0029   -1.4324 C   0  0  0  0  0  0  0  0  0  0  0  0
   10.4725   23.9419   -0.5701 S   0  0  0  0  0  0  0  0  0  0  0  0
    9.7074   24.7730    0.2696 H   0  0  0  0  0  0  0  0  0  0  0  0
   14.0172   25.1936   -2.0315 C   0  0  0  0  0  0  0  0  0  0  0  0
   14.4025   25.4971   -3.4265 C   0  0  0  0  0  0  0  0  0  0  0  0
   15.2308   24.5919   -4.0760 C   0  0  0  0  0  0  0  0  0  0  0  0
   15.6255   24.8386   -5.3809 C   0  0  0  0  0  0  0  0  0  0  0  0
   15.2284   25.9615   -6.0808 C   0  0  0  0  0  0  0  0  0  0  0  0
   14.4057   26.8595   -5.4343 C   0  0  0  0  0  0  0  0  0  0  0  0
   14.0108   26.6136   -4.1302 C   0  0  0  0  0  0  0  0  0  0  0  0
  6  7  1  0  0  0
  7  2  1  0  0  0
  2  3  1  0  0  0
  3  4  2  0  0  0
  3  1  1  0  0  0
  1 12  1  0  0  0
 12 13  1  0  0  0
  1 15  1  0  0  0
 15 16  1  0  0  0
 16 17  2  0  0  0
 17 18  1  0  0  0
 18 19  2  0  0  0
 19 20  1  0  0  0
 20 21  2  0  0  0
  7  8  1  0  0  0
  8  9  1  0  0  0
  8 10  2  0  0  0
 21 16  1  0  0  0
  2  5  1  0  0  0
 13 14  1  0  0  0
  9 11  1  0  0  0
M  END
> <minimizedAffinity>
-6.90310

> <CNNscore>
0.6513039470

> <CNNaffinity>
6.2050371170

> <CNN_VS>
4.0413651466

> <CNNaffinity_variance>
0.2647812366

$$$$
[H]OC(=O)[C@@]([H])(N([H])C(=O)[C@@]([H])(C([H])([H])S[H])C([H])([H])c1c([H])c([H])c([H])c([H])c1[H])C([H])([H])[H]


 21 21  0  0  0  0  0  0  0  0999 V2000
   14.6129   24.3947   -2.1557 C   0  0  0  0  0  0  0  0  0  0  0  0
   14.2843   22.4966   -0.5189 N   0  0  0  0  0  0  0  0  0  0  0  0
   14.4058   22.9492   -1.8433 C   0  0  0  0  0  0  0  0  0  0  0  0
   14.3346   22.0953   -2.7659 O   0  0  0  0  0  0  0  0  0  0  0  0
   14.3441   23.2140    0.2586 H   0  0  0  0  0  0  0  0  0  0  0  0
   15.2765   20.5150    0.5353 C   0  0  0  0  0  0  0  0  0  0  0  0
   14.0855   21.1428   -0.1206 C   0  0  0  0  0  0  0  0  0  0  0  0
   12.9087   21.0085    0.7716 C   0  0  0  0  0  0  0  0  0  0  0  0
   12.9426   21.3259    2.1156 O   0  0  0  0  0  0  0  0  0  0  0  0
   11.8334   20.5867    0.2803 O   0  0  0  0  0  0  0  0  0  0  0  0
   13.8173   21.2295    2.6225 H   0  0  0  0  0  0  0  0  0  0  0  0
   15.4603   24.5919   -3.3699 C   0  0  0  0  0  0  0  0  0  0  0  0
   15.2659   26.2462   -4.0870 S   0  0  0  0  0  0  0  0  0  0  0  0
   16.4172   26.5045   -4.8544 H   0  0  0  0  0  0  0  0  0  0  0  0
   13.2452   24.9762   -2.4326 C   0  0  0  0  0  0  0  0  0  0  0  0
   12.2651   24.6919   -1.3624 C   0  0  0  0  0  0  0  0  0  0  0  0
   12.4954   25.2537   -0.1139 C   0  0  0  0  0  0  0  0  0  0  0  0
   11.6091   25.0080    0.9221 C   0  0  0  0  0  0  0  0  0  0  0  0
   10.4867   24.2169    0.7717 C   0  0  0  0  0  0  0  0  0  0  0  0
   10.2593   23.6596   -0.4688 C   0  0  0  0  0  0  0  0  0  0  0  0
   11.1447   23.9048   -1.5047 C   0  0  0  0  0  0  0  0  0  0  0  0
  6  7  1  0  0  0
  7  2  1  0  0  0
  2  3  1  0  0  0
  3  4  2  0  0  0
  3  1  1  0  0  0
  1 12  1  0  0  0
 12 13  1  0  0  0
  1 15  1  0  0  0
 15 16  1  0  0  0
 16 17  2  0  0  0
 17 18  1  0  0  0
 18 19  2  0  0  0
 19 20  1  0  0  0
 20 21  2  0  0  0
  7  8  1  0  0  0
  8  9  1  0  0  0
  8 10  2  0  0  0
 21 16  1  0  0  0
  2  5  1  0  0  0
 13 14  1  0  0  0
  9 11  1  0  0  0
M  END
> <minimizedAffinity>
-6.74184

> <CNNscore>
0.6283647418

> <CNNaffinity>
6.0156159401

> <CNN_VS>
3.7800009251

> <CNNaffinity_variance>
0.1592986137

$$$$
[H]OC(=O)[C@@]([H])(N([H])C(=O)[C@@]([H])(C([H])([H])S[H])C([H])([H])c1c([H])c([H])c([H])c([H])c1[H])C([H])([H])[H]


 21 21  0  0  0  0  0  0  0  0999 V2000
   12.8553   23.7444   -0.6764 C   0  0  0  0  0  0  0  0  0  0  0  0
   13.6522   24.8582   -2.8011 N   0  0  0  0  0  0  0  0  0  0  0  0
   13.9037   24.4342   -1.4856 C   0  0  0  0  0  0  0  0  0  0  0  0
   15.0466   24.6540   -1.0048 O   0  0  0  0  0  0  0  0  0  0  0  0
   12.6909   24.6739   -3.2070 H   0  0  0  0  0  0  0  0  0  0  0  0
   15.4046   24.6011   -4.4997 C   0  0  0  0  0  0  0  0  0  0  0  0
   14.5842   25.5222   -3.6505 C   0  0  0  0  0  0  0  0  0  0  0  0
   13.9108   26.5180   -4.5188 C   0  0  0  0  0  0  0  0  0  0  0  0
   14.3768   26.8603   -5.7733 O   0  0  0  0  0  0  0  0  0  0  0  0
   12.8696   27.0738   -4.0917 O   0  0  0  0  0  0  0  0  0  0  0  0
   15.3733   26.8041   -5.9609 H   0  0  0  0  0  0  0  0  0  0  0  0
   13.4261   22.6576    0.1747 C   0  0  0  0  0  0  0  0  0  0  0  0
   13.7683   21.1478   -0.7699 S   0  0  0  0  0  0  0  0  0  0  0  0
   14.7304   20.4157   -0.0490 H   0  0  0  0  0  0  0  0  0  0  0  0
   12.2536   24.7918    0.2326 C   0  0  0  0  0  0  0  0  0  0  0  0
   10.9124   24.4241    0.7355 C   0  0  0  0  0  0  0  0  0  0  0  0
   10.0843   23.7006   -0.1120 C   0  0  0  0  0  0  0  0  0  0  0  0
    8.8154   23.3412    0.3124 C   0  0  0  0  0  0  0  0  0  0  0  0
    8.3242   23.6732    1.5601 C   0  0  0  0  0  0  0  0  0  0  0  0
    9.1479   24.3917    2.4006 C   0  0  0  0  0  0  0  0  0  0  0  0
   10.4162   24.7512    1.9771 C   0  0  0  0  0  0  0  0  0  0  0  0
  6  7  1  0  0  0
  7  2  1  0  0  0
  2  3  1  0  0  0
  3  4  2  0  0  0
  3  1  1  0  0  0
  1 12  1  0  0  0
 12 13  1  0  0  0
  1 15  1  0  0  0
 15 16  1  0  0  0
 16 17  2  0  0  0
 17 18  1  0  0  0
 18 19  2  0  0  0
 19 20  1  0  0  0
 20 21  2  0  0  0
  7  8  1  0  0  0
  8  9  1  0  0  0
  8 10  2  0  0  0
 21 16  1  0  0  0
  2  5  1  0  0  0
 13 14  1  0  0  0
  9 11  1  0  0  0
M  END
> <minimizedAffinity>
-6.39725

> <CNNscore>
0.6131414771

> <CNNaffinity>
5.6121096611

> <CNN_VS>
3.4410171509

> <CNNaffinity_variance>
0.1801498383

$$$$
[H]OC(=O)[C@@]([H])(N([H])C(=O)[C@@]([H])(C([H])([H])S[H])C([H])([H])c1c([H])c([H])c([H])c([H])c1[H])C([H])([H])[H]


 21 21  0  0  0  0  0  0  0  0999 V2000
   13.5740   24.3971   -0.3332 C   0  0  0  0  0  0  0  0  0  0  0  0
   12.2697   22.3061    0.2297 N   0  0  0  0  0  0  0  0  0  0  0  0
   12.3588   23.7077    0.1941 C   0  0  0  0  0  0  0  0  0  0  0  0
   11.3779   24.3708    0.6225 O   0  0  0  0  0  0  0  0  0  0  0  0
   13.0943   21.7468   -0.1305 H   0  0  0  0  0  0  0  0  0  0  0  0
   10.7942   20.3799   -0.1377 C   0  0  0  0  0  0  0  0  0  0  0  0
   11.1566   21.5584    0.7124 C   0  0  0  0  0  0  0  0  0  0  0  0
   11.3726   21.1065    2.1081 C   0  0  0  0  0  0  0  0  0  0  0  0
   12.4666   21.4857    2.8615 O   0  0  0  0  0  0  0  0  0  0  0  0
   10.5206   20.3444    2.6264 O   0  0  0  0  0  0  0  0  0  0  0  0
   13.3413   21.6943    2.3895 H   0  0  0  0  0  0  0  0  0  0  0  0
   14.7435   24.2566    0.5854 C   0  0  0  0  0  0  0  0  0  0  0  0
   16.2840   24.8558   -0.1605 S   0  0  0  0  0  0  0  0  0  0  0  0
   17.1666   25.1571    0.8938 H   0  0  0  0  0  0  0  0  0  0  0  0
   13.9168   23.7248   -1.6432 C   0  0  0  0  0  0  0  0  0  0  0  0
   14.0423   24.6752   -2.7691 C   0  0  0  0  0  0  0  0  0  0  0  0
   13.1713   25.7560   -2.7980 C   0  0  0  0  0  0  0  0  0  0  0  0
   13.2455   26.6679   -3.8383 C   0  0  0  0  0  0  0  0  0  0  0  0
   14.1600   26.5531   -4.8673 C   0  0  0  0  0  0  0  0  0  0  0  0
   15.0242   25.4791   -4.8371 C   0  0  0  0  0  0  0  0  0  0  0  0
   14.9507   24.5673   -3.7977 C   0  0  0  0  0  0  0  0  0  0  0  0
  6  7  1  0  0  0
  7  2  1  0  0  0
  2  3  1  0  0  0
  3  4  2  0  0  0
  3  1  1  0  0  0
  1 12  1  0  0  0
 12 13  1  0  0  0
  1 15  1  0  0  0
 15 16  1  0  0  0
 16 17  2  0  0  0
 17 18  1  0  0  0
 18 19  2  0  0  0
 19 20  1  0  0  0
 20 21  2  0  0  0
  7  8  1  0  0  0
  8  9  1  0  0  0
  8 10  2  0  0  0
 21 16  1  0  0  0
  2  5  1  0  0  0
 13 14  1  0  0  0
  9 11  1  0  0  0
M  END
> <minimizedAffinity>
-7.09924

> <CNNscore>
0.6035640240

> <CNNaffinity>
6.0537266731

> <CNN_VS>
3.6538116932

> <CNNaffinity_variance>
0.3907272518

$$$$
[H]OC(=O)[C@@]([H])(N([H])C(=O)[C@@]([H])(C([H])([H])S[H])C([H])([H])c1c([H])c([H])c([H])c([H])c1[H])C([H])([H])[H]


 21 21  0  0  0  0  0  0  0  0999 V2000
   14.3867   24.9474   -3.6037 C   0  0  0  0  0  0  0  0  0  0  0  0
   12.5236   24.4581   -1.9667 N   0  0  0  0  0  0  0  0  0  0  0  0
   13.2349   25.3773   -2.7560 C   0  0  0  0  0  0  0  0  0  0  0  0
   12.8710   26.5824   -2.7280 O   0  0  0  0  0  0  0  0  0  0  0  0
   12.8286   23.4436   -1.9893 H   0  0  0  0  0  0  0  0  0  0  0  0
   10.2668   23.8157   -1.2481 C   0  0  0  0  0  0  0  0  0  0  0  0
   11.4147   24.7699   -1.1277 C   0  0  0  0  0  0  0  0  0  0  0  0
   11.8228   24.8668    0.2946 C   0  0  0  0  0  0  0  0  0  0  0  0
   11.3763   23.9934    1.2672 O   0  0  0  0  0  0  0  0  0  0  0  0
   12.6103   25.7858    0.6275 O   0  0  0  0  0  0  0  0  0  0  0  0
   10.4614   23.5652    1.1623 H   0  0  0  0  0  0  0  0  0  0  0  0
   14.8806   26.0498   -4.4823 C   0  0  0  0  0  0  0  0  0  0  0  0
   16.2905   26.9314   -3.7584 S   0  0  0  0  0  0  0  0  0  0  0  0
   16.9766   27.5575   -4.8160 H   0  0  0  0  0  0  0  0  0  0  0  0
   15.4995   24.5619   -2.6559 C   0  0  0  0  0  0  0  0  0  0  0  0
   15.1277   23.4627   -1.7392 C   0  0  0  0  0  0  0  0  0  0  0  0
   14.7170   22.2639   -2.3062 C   0  0  0  0  0  0  0  0  0  0  0  0
   14.3504   21.2085   -1.4870 C   0  0  0  0  0  0  0  0  0  0  0  0
   14.3734   21.2915   -0.1083 C   0  0  0  0  0  0  0  0  0  0  0  0
   14.7814   22.4829    0.4534 C   0  0  0  0  0  0  0  0  0  0  0  0
   15.1481   23.5380   -0.3648 C   0  0  0  0  0  0  0  0  0  0  0  0
  6  7  1  0  0  0
  7  2  1  0  0  0
  2  3  1  0  0  0
  3  4  2  0  0  0
  3  1  1  0  0  0
  1 12  1  0  0  0
 12 13  1  0  0  0
  1 15  1  0  0  0
 15 16  1  0  0  0
 16 17  2  0  0  0
 17 18  1  0  0  0
 18 19  2  0  0  0
 19 20  1  0  0  0
 20 21  2  0  0  0
  7  8  1  0  0  0
  8  9  1  0  0  0
  8 10  2  0  0  0
 21 16  1  0  0  0
  2  5  1  0  0  0
 13 14  1  0  0  0
  9 11  1  0  0  0
M  END
> <minimizedAffinity>
-5.31244

> <CNNscore>
0.6001288891

> <CNNaffinity>
5.9888606071

> <CNN_VS>
3.5940883160

> <CNNaffinity_variance>
0.0391929820

$$$$
[H]N=C(N([H])[H])N([H])C([H])([H])C([H])([H])C([H])([H])[C@@]([H])(C(=O)c1nc2c([H])c([H])c([H])c([H])c2s1)N([H])C(=O)[C@@]([H])(N([H])C(=O)C([H])([H])[H])C([H])([H])C([H])([H])C([H])([H])N([H])C(=N[H])N([H])[H]


 44 45  0  0  0  0  0  0  0  0999 V2000
   14.4182   23.3334   -0.8828 C   0  0  0  0  0  0  0  0  0  0  0  0
   12.2047   23.7237    0.1415 C   0  0  0  0  0  0  0  0  0  0  0  0
   12.7829   23.4077    1.2419 O   0  0  0  0  0  0  0  0  0  0  0  0
   12.9923   23.7173   -1.0272 N   0  0  0  0  0  0  0  0  0  0  0  0
   12.6756   23.9519   -1.9837 H   0  0  0  0  0  0  0  0  0  0  0  0
   10.7556   24.0817    0.1402 C   0  0  0  0  0  0  0  0  0  0  0  0
    9.3200   20.7129   -1.1618 C   0  0  0  0  0  0  0  0  0  0  0  0
   10.0508   21.6907   -0.3077 C   0  0  0  0  0  0  0  0  0  0  0  0
   10.6376   21.1947    0.7097 O   0  0  0  0  0  0  0  0  0  0  0  0
   10.0787   23.0653   -0.6236 N   0  0  0  0  0  0  0  0  0  0  0  0
    9.5686   23.3805   -1.4846 H   0  0  0  0  0  0  0  0  0  0  0  0
   10.2908   24.2185    1.5433 C   0  0  0  0  0  0  0  0  0  0  0  0
    8.7865   24.2425    1.6749 C   0  0  0  0  0  0  0  0  0  0  0  0
    8.3361   24.5988    3.0707 C   0  0  0  0  0  0  0  0  0  0  0  0
    7.6408   25.8509    3.1486 N   0  0  0  0  0  0  0  0  0  0  0  0
    6.6453   25.9862    2.7823 H   0  0  0  0  0  0  0  0  0  0  0  0
    8.1870   27.0376    3.7073 C   0  0  0  0  0  0  0  0  0  0  0  0
    9.3544   27.0499    4.5062 N   0  0  0  0  0  0  0  0  0  0  0  0
    7.5871   28.1547    3.4762 N   0  0  0  0  0  0  0  0  0  0  0  0
    9.5943   26.2818    5.1367 H   0  0  0  0  0  0  0  0  0  0  0  0
    9.9832   27.8925    4.4277 H   0  0  0  0  0  0  0  0  0  0  0  0
    6.7276   28.1797    2.8962 H   0  0  0  0  0  0  0  0  0  0  0  0
   15.1605   24.5894   -1.1634 C   0  0  0  0  0  0  0  0  0  0  0  0
   15.6749   25.2305   -0.2302 O   0  0  0  0  0  0  0  0  0  0  0  0
   15.2729   25.0471   -2.5599 C   0  0  0  0  0  0  0  0  0  0  0  0
   15.5687   26.2681   -2.9772 N   0  0  0  0  0  0  0  0  0  0  0  0
   15.6524   26.5144   -4.2583 C   0  0  0  0  0  0  0  0  0  0  0  0
   15.9606   27.7683   -4.8418 C   0  0  0  0  0  0  0  0  0  0  0  0
   16.0094   27.8562   -6.2041 C   0  0  0  0  0  0  0  0  0  0  0  0
   15.7907   26.8521   -7.0867 C   0  0  0  0  0  0  0  0  0  0  0  0
   15.4834   25.5995   -6.5182 C   0  0  0  0  0  0  0  0  0  0  0  0
   15.4258   25.4799   -5.1226 C   0  0  0  0  0  0  0  0  0  0  0  0
   15.1029   24.1968   -4.0262 S   0  0  0  0  0  0  0  0  0  0  0  0
   14.7158   22.2621   -1.9328 C   0  0  0  0  0  0  0  0  0  0  0  0
   13.5425   21.3579   -2.1035 C   0  0  0  0  0  0  0  0  0  0  0  0
   13.4261   20.2179   -1.1509 C   0  0  0  0  0  0  0  0  0  0  0  0
   14.5150   20.1085   -0.2423 N   0  0  0  0  0  0  0  0  0  0  0  0
   15.3295   19.4949   -0.5581 H   0  0  0  0  0  0  0  0  0  0  0  0
   14.6611   20.7113    1.0287 C   0  0  0  0  0  0  0  0  0  0  0  0
   15.9237   21.2212    1.4278 N   0  0  0  0  0  0  0  0  0  0  0  0
   13.6282   20.7732    1.8252 N   0  0  0  0  0  0  0  0  0  0  0  0
   16.2638   22.1913    1.2697 H   0  0  0  0  0  0  0  0  0  0  0  0
   16.5782   20.5830    1.9196 H   0  0  0  0  0  0  0  0  0  0  0  0
   13.7154   21.2154    2.7712 H   0  0  0  0  0  0  0  0  0  0  0  0
  7  8  1  0  0  0
  8  9  2  0  0  0
  8 10  1  0  0  0
 10  6  1  0  0  0
  6 12  1  0  0  0
 12 13  1  0  0  0
 13 14  1  0  0  0
 14 15  1  0  0  0
 15 17  1  0  0  0
 17 18  1  0  0  0
 17 19  2  0  0  0
  6  2  1  0  0  0
  2  3  2  0  0  0
  2  4  1  0  0  0
  4  1  1  0  0  0
  1 34  1  0  0  0
 34 35  1  0  0  0
 35 36  1  0  0  0
 36 37  1  0  0  0
 37 39  1  0  0  0
 39 40  1  0  0  0
 39 41  2  0  0  0
  1 23  1  0  0  0
 23 24  2  0  0  0
 23 25  1  0  0  0
 25 26  2  0  0  0
 26 27  1  0  0  0
 27 28  2  0  0  0
 28 29  1  0  0  0
 29 30  2  0  0  0
 30 31  1  0  0  0
 31 32  2  0  0  0
 32 33  1  0  0  0
 33 25  1  0  0  0
 32 27  1  0  0  0
 10 11  1  0  0  0
 15 16  1  0  0  0
 18 20  1  0  0  0
 18 21  1  0  0  0
 19 22  1  0  0  0
  4  5  1  0  0  0
 37 38  1  0  0  0
 40 42  1  0  0  0
 40 43  1  0  0  0
 41 44  1  0  0  0
M  END
> <minimizedAffinity>
-7.52148

> <CNNscore>
0.4275180399

> <CNNaffinity>
7.6767683029

> <CNN_VS>
3.2819569111

> <CNNaffinity_variance>
0.0805023387

$$$$
[H]N=C(N([H])[H])N([H])C([H])([H])C([H])([H])C([H])([H])[C@@]([H])(C(=O)c1nc2c([H])c([H])c([H])c([H])c2s1)N([H])C(=O)[C@@]([H])(N([H])C(=O)C([H])([H])[H])C([H])([H])C([H])([H])C([H])([H])N([H])C(=N[H])N([H])[H]


 44 45  0  0  0  0  0  0  0  0999 V2000
   12.7592   24.6539   -0.4915 C   0  0  0  0  0  0  0  0  0  0  0  0
   13.6053   22.5087    0.3937 C   0  0  0  0  0  0  0  0  0  0  0  0
   14.5371   23.2198    0.9144 O   0  0  0  0  0  0  0  0  0  0  0  0
   12.6221   23.1825   -0.3585 N   0  0  0  0  0  0  0  0  0  0  0  0
   11.8097   22.7533   -0.8336 H   0  0  0  0  0  0  0  0  0  0  0  0
   13.5948   21.0306    0.6018 C   0  0  0  0  0  0  0  0  0  0  0  0
   11.6018   20.2559    3.8472 C   0  0  0  0  0  0  0  0  0  0  0  0
   11.9073   20.4675    2.4045 C   0  0  0  0  0  0  0  0  0  0  0  0
   10.9206   20.3202    1.6106 O   0  0  0  0  0  0  0  0  0  0  0  0
   13.2057   20.8080    1.9706 N   0  0  0  0  0  0  0  0  0  0  0  0
   13.9542   20.9111    2.6987 H   0  0  0  0  0  0  0  0  0  0  0  0
   12.7027   20.4073   -0.4077 C   0  0  0  0  0  0  0  0  0  0  0  0
   13.3204   20.3280   -1.7835 C   0  0  0  0  0  0  0  0  0  0  0  0
   14.5840   21.1458   -1.8956 C   0  0  0  0  0  0  0  0  0  0  0  0
   14.6819   21.8880   -3.1191 N   0  0  0  0  0  0  0  0  0  0  0  0
   14.3399   21.5075   -4.0582 H   0  0  0  0  0  0  0  0  0  0  0  0
   15.2399   23.1905   -3.2240 C   0  0  0  0  0  0  0  0  0  0  0  0
   15.6537   23.9469   -2.1026 N   0  0  0  0  0  0  0  0  0  0  0  0
   15.3718   23.7065   -4.3977 N   0  0  0  0  0  0  0  0  0  0  0  0
   15.1746   23.8960   -1.2010 H   0  0  0  0  0  0  0  0  0  0  0  0
   16.4903   24.5762   -2.2280 H   0  0  0  0  0  0  0  0  0  0  0  0
   15.0760   23.1789   -5.2403 H   0  0  0  0  0  0  0  0  0  0  0  0
   11.8910   25.1962    0.5853 C   0  0  0  0  0  0  0  0  0  0  0  0
   12.1570   26.2936    1.1062 O   0  0  0  0  0  0  0  0  0  0  0  0
   10.7189   24.4107    1.0111 C   0  0  0  0  0  0  0  0  0  0  0  0
   10.0007   23.5837    0.2677 N   0  0  0  0  0  0  0  0  0  0  0  0
    8.9957   22.9385    0.7993 C   0  0  0  0  0  0  0  0  0  0  0  0
    8.1475   22.0261    0.1241 C   0  0  0  0  0  0  0  0  0  0  0  0
    7.1387   21.4335    0.8293 C   0  0  0  0  0  0  0  0  0  0  0  0
    6.8486   21.6237    2.1387 C   0  0  0  0  0  0  0  0  0  0  0  0
    7.6858   22.5290    2.8215 C   0  0  0  0  0  0  0  0  0  0  0  0
    8.7289   23.1527    2.1227 C   0  0  0  0  0  0  0  0  0  0  0  0
    9.9569   24.2837    2.5294 S   0  0  0  0  0  0  0  0  0  0  0  0
   12.2397   25.0419   -1.8766 C   0  0  0  0  0  0  0  0  0  0  0  0
   12.8890   26.3001   -2.3442 C   0  0  0  0  0  0  0  0  0  0  0  0
   13.2906   26.3584   -3.7781 C   0  0  0  0  0  0  0  0  0  0  0  0
   14.6558   26.7004   -3.9841 N   0  0  0  0  0  0  0  0  0  0  0  0
   15.2985   26.5945   -3.1384 H   0  0  0  0  0  0  0  0  0  0  0  0
   15.2758   27.1614   -5.1688 C   0  0  0  0  0  0  0  0  0  0  0  0
   15.4261   26.2850   -6.2745 N   0  0  0  0  0  0  0  0  0  0  0  0
   15.7175   28.3892   -5.2184 N   0  0  0  0  0  0  0  0  0  0  0  0
   14.7412   26.1602   -7.0474 H   0  0  0  0  0  0  0  0  0  0  0  0
   16.2877   25.7090   -6.3313 H   0  0  0  0  0  0  0  0  0  0  0  0
   16.1802   28.7502   -6.0866 H   0  0  0  0  0  0  0  0  0  0  0  0
  7  8  1  0  0  0
  8  9  2  0  0  0
  8 10  1  0  0  0
 10  6  1  0  0  0
  6 12  1  0  0  0
 12 13  1  0  0  0
 13 14  1  0  0  0
 14 15  1  0  0  0
 15 17  1  0  0  0
 17 18  1  0  0  0
 17 19  2  0  0  0
  6  2  1  0  0  0
  2  3  2  0  0  0
  2  4  1  0  0  0
  4  1  1  0  0  0
  1 34  1  0  0  0
 34 35  1  0  0  0
 35 36  1  0  0  0
 36 37  1  0  0  0
 37 39  1  0  0  0
 39 40  1  0  0  0
 39 41  2  0  0  0
  1 23  1  0  0  0
 23 24  2  0  0  0
 23 25  1  0  0  0
 25 26  2  0  0  0
 26 27  1  0  0  0
 27 28  2  0  0  0
 28 29  1  0  0  0
 29 30  2  0  0  0
 30 31  1  0  0  0
 31 32  2  0  0  0
 32 33  1  0  0  0
 33 25  1  0  0  0
 32 27  1  0  0  0
 10 11  1  0  0  0
 15 16  1  0  0  0
 18 20  1  0  0  0
 18 21  1  0  0  0
 19 22  1  0  0  0
  4  5  1  0  0  0
 37 38  1  0  0  0
 40 42  1  0  0  0
 40 43  1  0  0  0
 41 44  1  0  0  0
M  END
> <minimizedAffinity>
-6.12436

> <CNNscore>
0.3883861005

> <CNNaffinity>
7.6913924217

> <CNN_VS>
2.9872298241

> <CNNaffinity_variance>
0.1369280368

$$$$
[H]N=C(N([H])[H])N([H])C([H])([H])C([H])([H])C([H])([H])[C@@]([H])(C(=O)c1nc2c([H])c([H])c([H])c([H])c2s1)N([H])C(=O)[C@@]([H])(N([H])C(=O)C([H])([H])[H])C([H])([H])C([H])([H])C([H])([H])N([H])C(=N[H])N([H])[H]


 44 45  0  0  0  0  0  0  0  0999 V2000
   14.1350   24.2426   -1.6479 C   0  0  0  0  0  0  0  0  0  0  0  0
   13.8702   22.5620    0.1427 C   0  0  0  0  0  0  0  0  0  0  0  0
   14.4902   23.4111    0.8773 O   0  0  0  0  0  0  0  0  0  0  0  0
   13.6342   22.9198   -1.1999 N   0  0  0  0  0  0  0  0  0  0  0  0
   13.1463   22.3496   -1.9118 H   0  0  0  0  0  0  0  0  0  0  0  0
   13.4290   21.2597    0.7238 C   0  0  0  0  0  0  0  0  0  0  0  0
   11.1677   21.0949    3.8805 C   0  0  0  0  0  0  0  0  0  0  0  0
   12.1156   20.6774    2.8096 C   0  0  0  0  0  0  0  0  0  0  0  0
   12.5227   19.4714    2.8811 O   0  0  0  0  0  0  0  0  0  0  0  0
   12.5193   21.5719    1.7961 N   0  0  0  0  0  0  0  0  0  0  0  0
   12.1280   22.5451    1.8173 H   0  0  0  0  0  0  0  0  0  0  0  0
   12.8529   20.4197   -0.3560 C   0  0  0  0  0  0  0  0  0  0  0  0
   11.4557   20.8326   -0.7535 C   0  0  0  0  0  0  0  0  0  0  0  0
   10.4122   19.8376   -0.3073 C   0  0  0  0  0  0  0  0  0  0  0  0
    9.0665   20.3142   -0.4468 N   0  0  0  0  0  0  0  0  0  0  0  0
    8.7256   21.2280   -0.0084 H   0  0  0  0  0  0  0  0  0  0  0  0
    8.0467   19.6360   -1.1673 C   0  0  0  0  0  0  0  0  0  0  0  0
    7.4522   20.1565   -2.3406 N   0  0  0  0  0  0  0  0  0  0  0  0
    7.6437   18.4935   -0.7274 N   0  0  0  0  0  0  0  0  0  0  0  0
    7.3058   21.1584   -2.4819 H   0  0  0  0  0  0  0  0  0  0  0  0
    7.1609   19.4647   -3.0809 H   0  0  0  0  0  0  0  0  0  0  0  0
    8.0575   18.0851    0.1315 H   0  0  0  0  0  0  0  0  0  0  0  0
   12.9188   25.0952   -1.6856 C   0  0  0  0  0  0  0  0  0  0  0  0
   12.8905   26.1080   -2.4066 O   0  0  0  0  0  0  0  0  0  0  0  0
   11.7604   24.7110   -0.8594 C   0  0  0  0  0  0  0  0  0  0  0  0
   11.5992   24.9264    0.4367 N   0  0  0  0  0  0  0  0  0  0  0  0
   10.4982   24.5420    1.0273 C   0  0  0  0  0  0  0  0  0  0  0  0
   10.1938   24.7090    2.4011 C   0  0  0  0  0  0  0  0  0  0  0  0
    8.9926   24.2488    2.8608 C   0  0  0  0  0  0  0  0  0  0  0  0
    8.0308   23.6335    2.1318 C   0  0  0  0  0  0  0  0  0  0  0  0
    8.3219   23.4618    0.7634 C   0  0  0  0  0  0  0  0  0  0  0  0
    9.5476   23.9237    0.2640 C   0  0  0  0  0  0  0  0  0  0  0  0
   10.3038   23.9336   -1.2790 S   0  0  0  0  0  0  0  0  0  0  0  0
   14.7331   24.0606   -3.0436 C   0  0  0  0  0  0  0  0  0  0  0  0
   16.1132   24.6224   -3.0977 C   0  0  0  0  0  0  0  0  0  0  0  0
   16.2339   26.1041   -3.2023 C   0  0  0  0  0  0  0  0  0  0  0  0
   15.3402   26.6936   -4.1387 N   0  0  0  0  0  0  0  0  0  0  0  0
   14.3004   26.6069   -3.9133 H   0  0  0  0  0  0  0  0  0  0  0  0
   15.6510   27.3849   -5.3328 C   0  0  0  0  0  0  0  0  0  0  0  0
   15.6308   26.6964   -6.5733 N   0  0  0  0  0  0  0  0  0  0  0  0
   15.9701   28.6496   -5.2703 N   0  0  0  0  0  0  0  0  0  0  0  0
   14.8082   26.6052   -7.2033 H   0  0  0  0  0  0  0  0  0  0  0  0
   16.5041   26.2359   -6.8940 H   0  0  0  0  0  0  0  0  0  0  0  0
   16.2041   29.1799   -6.1433 H   0  0  0  0  0  0  0  0  0  0  0  0
  7  8  1  0  0  0
  8  9  2  0  0  0
  8 10  1  0  0  0
 10  6  1  0  0  0
  6 12  1  0  0  0
 12 13  1  0  0  0
 13 14  1  0  0  0
 14 15  1  0  0  0
 15 17  1  0  0  0
 17 18  1  0  0  0
 17 19  2  0  0  0
  6  2  1  0  0  0
  2  3  2  0  0  0
  2  4  1  0  0  0
  4  1  1  0  0  0
  1 34  1  0  0  0
 34 35  1  0  0  0
 35 36  1  0  0  0
 36 37  1  0  0  0
 37 39  1  0  0  0
 39 40  1  0  0  0
 39 41  2  0  0  0
  1 23  1  0  0  0
 23 24  2  0  0  0
 23 25  1  0  0  0
 25 26  2  0  0  0
 26 27  1  0  0  0
 27 28  2  0  0  0
 28 29  1  0  0  0
 29 30  2  0  0  0
 30 31  1  0  0  0
 31 32  2  0  0  0
 32 33  1  0  0  0
 33 25  1  0  0  0
 32 27  1  0  0  0
 10 11  1  0  0  0
 15 16  1  0  0  0
 18 20  1  0  0  0
 18 21  1  0  0  0
 19 22  1  0  0  0
  4  5  1  0  0  0
 37 38  1  0  0  0
 40 42  1  0  0  0
 40 43  1  0  0  0
 41 44  1  0  0  0
M  END
> <minimizedAffinity>
-7.20160

> <CNNscore>
0.3491740823

> <CNNaffinity>
7.4475493431

> <CNN_VS>
2.6004912853

> <CNNaffinity_variance>
0.0468052998

$$$$
[H]N=C(N([H])[H])N([H])C([H])([H])C([H])([H])C([H])([H])[C@@]([H])(C(=O)c1nc2c([H])c([H])c([H])c([H])c2s1)N([H])C(=O)[C@@]([H])(N([H])C(=O)C([H])([H])[H])C([H])([H])C([H])([H])C([H])([H])N([H])C(=N[H])N([H])[H]


 44 45  0  0  0  0  0  0  0  0999 V2000
   11.3180   24.5576   -0.9721 C   0  0  0  0  0  0  0  0  0  0  0  0
   13.2082   25.0682   -2.4779 C   0  0  0  0  0  0  0  0  0  0  0  0
   12.7285   26.2576   -2.4934 O   0  0  0  0  0  0  0  0  0  0  0  0
   12.5322   24.1090   -1.6973 N   0  0  0  0  0  0  0  0  0  0  0  0
   12.7957   23.1158   -1.5790 H   0  0  0  0  0  0  0  0  0  0  0  0
   14.4367   24.7526   -3.2649 C   0  0  0  0  0  0  0  0  0  0  0  0
   15.7796   27.4650   -5.7029 C   0  0  0  0  0  0  0  0  0  0  0  0
   15.3437   26.1399   -5.1798 C   0  0  0  0  0  0  0  0  0  0  0  0
   15.4245   25.1733   -6.0072 O   0  0  0  0  0  0  0  0  0  0  0  0
   14.8785   25.9892   -3.8566 N   0  0  0  0  0  0  0  0  0  0  0  0
   14.8508   26.8427   -3.2469 H   0  0  0  0  0  0  0  0  0  0  0  0
   15.4277   24.1011   -2.3722 C   0  0  0  0  0  0  0  0  0  0  0  0
   15.9955   25.0332   -1.3284 C   0  0  0  0  0  0  0  0  0  0  0  0
   16.0640   24.3950    0.0376 C   0  0  0  0  0  0  0  0  0  0  0  0
   14.9363   23.5620    0.3403 N   0  0  0  0  0  0  0  0  0  0  0  0
   13.9477   23.9479    0.4714 H   0  0  0  0  0  0  0  0  0  0  0  0
   15.0022   22.1520    0.5033 C   0  0  0  0  0  0  0  0  0  0  0  0
   14.2572   21.2466   -0.2881 N   0  0  0  0  0  0  0  0  0  0  0  0
   15.7761   21.6777    1.4183 N   0  0  0  0  0  0  0  0  0  0  0  0
   13.3219   21.4662   -0.6374 H   0  0  0  0  0  0  0  0  0  0  0  0
   14.7071   20.3199   -0.5126 H   0  0  0  0  0  0  0  0  0  0  0  0
   16.3340   22.3147    2.0172 H   0  0  0  0  0  0  0  0  0  0  0  0
   11.7672   24.6877    0.4381 C   0  0  0  0  0  0  0  0  0  0  0  0
   12.4422   25.6717    0.7884 O   0  0  0  0  0  0  0  0  0  0  0  0
   11.3927   23.6350    1.3993 C   0  0  0  0  0  0  0  0  0  0  0  0
   12.0427   22.5071    1.6396 N   0  0  0  0  0  0  0  0  0  0  0  0
   11.5926   21.6778    2.5442 C   0  0  0  0  0  0  0  0  0  0  0  0
   12.1858   20.4419    2.9027 C   0  0  0  0  0  0  0  0  0  0  0  0
   11.5859   19.6910    3.8735 C   0  0  0  0  0  0  0  0  0  0  0  0
   10.4560   20.0023    4.5527 C   0  0  0  0  0  0  0  0  0  0  0  0
    9.8566   21.2298    4.2051 C   0  0  0  0  0  0  0  0  0  0  0  0
   10.4500   22.0210    3.2115 C   0  0  0  0  0  0  0  0  0  0  0  0
   10.0872   23.5373    2.4892 S   0  0  0  0  0  0  0  0  0  0  0  0
   10.2603   23.4633   -1.1228 C   0  0  0  0  0  0  0  0  0  0  0  0
   10.8893   22.1869   -1.5684 C   0  0  0  0  0  0  0  0  0  0  0  0
   10.3031   20.9248   -1.0354 C   0  0  0  0  0  0  0  0  0  0  0  0
    9.0278   20.6039   -1.5776 N   0  0  0  0  0  0  0  0  0  0  0  0
    8.9390   20.6723   -2.6391 H   0  0  0  0  0  0  0  0  0  0  0  0
    7.8585   20.2019   -0.8911 C   0  0  0  0  0  0  0  0  0  0  0  0
    6.8778   21.1660   -0.5417 N   0  0  0  0  0  0  0  0  0  0  0  0
    7.7088   18.9442   -0.5734 N   0  0  0  0  0  0  0  0  0  0  0  0
    6.0661   21.4462   -1.1286 H   0  0  0  0  0  0  0  0  0  0  0  0
    6.9643   21.6448    0.3753 H   0  0  0  0  0  0  0  0  0  0  0  0
    6.8499   18.6259   -0.0644 H   0  0  0  0  0  0  0  0  0  0  0  0
  7  8  1  0  0  0
  8  9  2  0  0  0
  8 10  1  0  0  0
 10  6  1  0  0  0
  6 12  1  0  0  0
 12 13  1  0  0  0
 13 14  1  0  0  0
 14 15  1  0  0  0
 15 17  1  0  0  0
 17 18  1  0  0  0
 17 19  2  0  0  0
  6  2  1  0  0  0
  2  3  2  0  0  0
  2  4  1  0  0  0
  4  1  1  0  0  0
  1 34  1  0  0  0
 34 35  1  0  0  0
 35 36  1  0  0  0
 36 37  1  0  0  0
 37 39  1  0  0  0
 39 40  1  0  0  0
 39 41  2  0  0  0
  1 23  1  0  0  0
 23 24  2  0  0  0
 23 25  1  0  0  0
 25 26  2  0  0  0
 26 27  1  0  0  0
 27 28  2  0  0  0
 28 29  1  0  0  0
 29 30  2  0  0  0
 30 31  1  0  0  0
 31 32  2  0  0  0
 32 33  1  0  0  0
 33 25  1  0  0  0
 32 27  1  0  0  0
 10 11  1  0  0  0
 15 16  1  0  0  0
 18 20  1  0  0  0
 18 21  1  0  0  0
 19 22  1  0  0  0
  4  5  1  0  0  0
 37 38  1  0  0  0
 40 42  1  0  0  0
 40 43  1  0  0  0
 41 44  1  0  0  0
M  END
> <minimizedAffinity>
-7.41424

> <CNNscore>
0.3326539397

> <CNNaffinity>
7.2390656471

> <CNN_VS>
2.4081037045

> <CNNaffinity_variance>
0.4037744999

$$$$
[H]N=C(N([H])[H])N([H])C([H])([H])C([H])([H])C([H])([H])[C@@]([H])(C(=O)c1nc2c([H])c([H])c([H])c([H])c2s1)N([H])C(=O)[C@@]([H])(N([H])C(=O)C([H])([H])[H])C([H])([H])C([H])([H])C([H])([H])N([H])C(=N[H])N([H])[H]


 44 45  0  0  0  0  0  0  0  0999 V2000
   12.5773   20.9761    0.8150 C   0  0  0  0  0  0  0  0  0  0  0  0
   11.1897   22.9056    1.4877 C   0  0  0  0  0  0  0  0  0  0  0  0
   10.7853   22.1414    2.4351 O   0  0  0  0  0  0  0  0  0  0  0  0
   12.1390   22.3757    0.5908 N   0  0  0  0  0  0  0  0  0  0  0  0
   12.5631   22.8650   -0.2159 H   0  0  0  0  0  0  0  0  0  0  0  0
   10.6560   24.2951    1.3753 C   0  0  0  0  0  0  0  0  0  0  0  0
   12.2957   25.7441   -1.8366 C   0  0  0  0  0  0  0  0  0  0  0  0
   12.1180   25.3251   -0.4180 C   0  0  0  0  0  0  0  0  0  0  0  0
   13.1164   25.5429    0.3444 O   0  0  0  0  0  0  0  0  0  0  0  0
   10.9184   24.7317    0.0280 N   0  0  0  0  0  0  0  0  0  0  0  0
   10.1492   24.5956   -0.6724 H   0  0  0  0  0  0  0  0  0  0  0  0
    9.2226   24.2943    1.7610 C   0  0  0  0  0  0  0  0  0  0  0  0
    8.9981   24.5744    3.2279 C   0  0  0  0  0  0  0  0  0  0  0  0
    7.5335   24.6797    3.5767 C   0  0  0  0  0  0  0  0  0  0  0  0
    7.1553   25.9651    4.0886 N   0  0  0  0  0  0  0  0  0  0  0  0
    6.1884   26.1653    4.4992 H   0  0  0  0  0  0  0  0  0  0  0  0
    8.0056   27.1034    4.1042 C   0  0  0  0  0  0  0  0  0  0  0  0
    9.2419   27.1356    4.7911 N   0  0  0  0  0  0  0  0  0  0  0  0
    7.6293   28.1567    3.4637 N   0  0  0  0  0  0  0  0  0  0  0  0
    9.3936   26.6339    5.6688 H   0  0  0  0  0  0  0  0  0  0  0  0
   10.0183   27.7033    4.3593 H   0  0  0  0  0  0  0  0  0  0  0  0
    6.7273   28.1665    2.9518 H   0  0  0  0  0  0  0  0  0  0  0  0
   14.0333   21.0022    0.5204 C   0  0  0  0  0  0  0  0  0  0  0  0
   14.7677   20.0853    0.9286 O   0  0  0  0  0  0  0  0  0  0  0  0
   14.5761   22.1271   -0.2620 C   0  0  0  0  0  0  0  0  0  0  0  0
   14.4323   22.3374   -1.5610 N   0  0  0  0  0  0  0  0  0  0  0  0
   14.9595   23.4005   -2.1094 C   0  0  0  0  0  0  0  0  0  0  0  0
   14.8826   23.7493   -3.4806 C   0  0  0  0  0  0  0  0  0  0  0  0
   15.4909   24.9008   -3.8929 C   0  0  0  0  0  0  0  0  0  0  0  0
   16.1789   25.7731   -3.1178 C   0  0  0  0  0  0  0  0  0  0  0  0
   16.2621   25.4371   -1.7515 C   0  0  0  0  0  0  0  0  0  0  0  0
   15.6478   24.2606   -1.3001 C   0  0  0  0  0  0  0  0  0  0  0  0
   15.4923   23.4792    0.2223 S   0  0  0  0  0  0  0  0  0  0  0  0
   11.8221   20.0918   -0.1783 C   0  0  0  0  0  0  0  0  0  0  0  0
   10.8073   20.8914   -0.9226 C   0  0  0  0  0  0  0  0  0  0  0  0
    9.3913   20.4360   -0.8312 C   0  0  0  0  0  0  0  0  0  0  0  0
    8.6517   21.0500    0.2173 N   0  0  0  0  0  0  0  0  0  0  0  0
    9.2147   21.3577    1.0703 H   0  0  0  0  0  0  0  0  0  0  0  0
    7.2626   21.3094    0.2757 C   0  0  0  0  0  0  0  0  0  0  0  0
    6.4560   21.1000   -0.8726 N   0  0  0  0  0  0  0  0  0  0  0  0
    6.7460   21.7566    1.3885 N   0  0  0  0  0  0  0  0  0  0  0  0
    5.9682   20.2148   -1.1184 H   0  0  0  0  0  0  0  0  0  0  0  0
    6.3333   21.8879   -1.5372 H   0  0  0  0  0  0  0  0  0  0  0  0
    5.7191   21.9554    1.4525 H   0  0  0  0  0  0  0  0  0  0  0  0
  7  8  1  0  0  0
  8  9  2  0  0  0
  8 10  1  0  0  0
 10  6  1  0  0  0
  6 12  1  0  0  0
 12 13  1  0  0  0
 13 14  1  0  0  0
 14 15  1  0  0  0
 15 17  1  0  0  0
 17 18  1  0  0  0
 17 19  2  0  0  0
  6  2  1  0  0  0
  2  3  2  0  0  0
  2  4  1  0  0  0
  4  1  1  0  0  0
  1 34  1  0  0  0
 34 35  1  0  0  0
 35 36  1  0  0  0
 36 37  1  0  0  0
 37 39  1  0  0  0
 39 40  1  0  0  0
 39 41  2  0  0  0
  1 23  1  0  0  0
 23 24  2  0  0  0
 23 25  1  0  0  0
 25 26  2  0  0  0
 26 27  1  0  0  0
 27 28  2  0  0  0
 28 29  1  0  0  0
 29 30  2  0  0  0
 30 31  1  0  0  0
 31 32  2  0  0  0
 32 33  1  0  0  0
 33 25  1  0  0  0
 32 27  1  0  0  0
 10 11  1  0  0  0
 15 16  1  0  0  0
 18 20  1  0  0  0
 18 21  1  0  0  0
 19 22  1  0  0  0
  4  5  1  0  0  0
 37 38  1  0  0  0
 40 42  1  0  0  0
 40 43  1  0  0  0
 41 44  1  0  0  0
M  END
> <minimizedAffinity>
-6.76470

> <CNNscore>
0.3112415969

> <CNNaffinity>
7.0084714890

> <CNN_VS>
2.1813278198

> <CNNaffinity_variance>
0.0449763499

$$$$
[H]N=C(N([H])[H])N([H])C([H])([H])C([H])([H])C([H])([H])[C@@]([H])(C(=O)c1nc2c([H])c([H])c([H])c([H])c2s1)N([H])C(=O)[C@@]([H])(N([H])C(=O)C([H])([H])[H])C([H])([H])C([H])([H])C([H])([H])N([H])C(=N[H])N([H])[H]


 44 45  0  0  0  0  0  0  0  0999 V2000
   12.9338   24.0457   -0.9437 C   0  0  0  0  0  0  0  0  0  0  0  0
   12.3723   21.9475    0.2324 C   0  0  0  0  0  0  0  0  0  0  0  0
   11.5564   21.7534   -0.7380 O   0  0  0  0  0  0  0  0  0  0  0  0
   13.1434   23.1269    0.2022 N   0  0  0  0  0  0  0  0  0  0  0  0
   13.8441   23.4217    0.9037 H   0  0  0  0  0  0  0  0  0  0  0  0
   12.4753   20.9398    1.3289 C   0  0  0  0  0  0  0  0  0  0  0  0
   16.2535   20.2421    0.7429 C   0  0  0  0  0  0  0  0  0  0  0  0
   14.8197   20.5330    0.4613 C   0  0  0  0  0  0  0  0  0  0  0  0
   14.5196   20.6544   -0.7718 O   0  0  0  0  0  0  0  0  0  0  0  0
   13.8773   20.6598    1.5035 N   0  0  0  0  0  0  0  0  0  0  0  0
   14.2174   20.5398    2.4887 H   0  0  0  0  0  0  0  0  0  0  0  0
   11.7914   21.4681    2.5358 C   0  0  0  0  0  0  0  0  0  0  0  0
   10.4845   20.7729    2.8346 C   0  0  0  0  0  0  0  0  0  0  0  0
    9.3113   21.7225    2.8240 C   0  0  0  0  0  0  0  0  0  0  0  0
    8.2643   21.3327    1.9245 N   0  0  0  0  0  0  0  0  0  0  0  0
    7.5044   20.6280    2.1882 H   0  0  0  0  0  0  0  0  0  0  0  0
    8.1209   21.8257    0.5997 C   0  0  0  0  0  0  0  0  0  0  0  0
    8.6878   21.1875   -0.5284 N   0  0  0  0  0  0  0  0  0  0  0  0
    7.4441   22.9077    0.4197 N   0  0  0  0  0  0  0  0  0  0  0  0
    9.5814   20.6929   -0.4859 H   0  0  0  0  0  0  0  0  0  0  0  0
    8.1474   21.2373   -1.4323 H   0  0  0  0  0  0  0  0  0  0  0  0
    7.0175   23.4012    1.2260 H   0  0  0  0  0  0  0  0  0  0  0  0
   14.2846   24.6037   -1.2107 C   0  0  0  0  0  0  0  0  0  0  0  0
   15.0915   24.7554   -0.2766 O   0  0  0  0  0  0  0  0  0  0  0  0
   14.6396   24.9641   -2.5950 C   0  0  0  0  0  0  0  0  0  0  0  0
   14.8146   26.1827   -3.0816 N   0  0  0  0  0  0  0  0  0  0  0  0
   15.1509   26.3399   -4.3350 C   0  0  0  0  0  0  0  0  0  0  0  0
   15.3708   27.5802   -4.9839 C   0  0  0  0  0  0  0  0  0  0  0  0
   15.7191   27.5692   -6.3048 C   0  0  0  0  0  0  0  0  0  0  0  0
   15.8833   26.4762   -7.0878 C   0  0  0  0  0  0  0  0  0  0  0  0
   15.6676   25.2361   -6.4534 C   0  0  0  0  0  0  0  0  0  0  0  0
   15.3085   25.2170   -5.0984 C   0  0  0  0  0  0  0  0  0  0  0  0
   14.9602   23.9853   -3.9519 S   0  0  0  0  0  0  0  0  0  0  0  0
   11.9595   25.1337   -0.4900 C   0  0  0  0  0  0  0  0  0  0  0  0
   11.7634   25.0763    0.9869 C   0  0  0  0  0  0  0  0  0  0  0  0
   10.3843   24.7888    1.4729 C   0  0  0  0  0  0  0  0  0  0  0  0
   10.0460   25.4544    2.6836 N   0  0  0  0  0  0  0  0  0  0  0  0
   10.7205   26.2174    3.0035 H   0  0  0  0  0  0  0  0  0  0  0  0
    8.9267   25.2380    3.5206 C   0  0  0  0  0  0  0  0  0  0  0  0
    7.6630   24.9416    2.9476 N   0  0  0  0  0  0  0  0  0  0  0  0
    9.0732   25.3324    4.8148 N   0  0  0  0  0  0  0  0  0  0  0  0
    7.3011   23.9898    2.7355 H   0  0  0  0  0  0  0  0  0  0  0  0
    7.0331   25.7320    2.7110 H   0  0  0  0  0  0  0  0  0  0  0  0
    8.2565   25.1761    5.4523 H   0  0  0  0  0  0  0  0  0  0  0  0
  7  8  1  0  0  0
  8  9  2  0  0  0
  8 10  1  0  0  0
 10  6  1  0  0  0
  6 12  1  0  0  0
 12 13  1  0  0  0
 13 14  1  0  0  0
 14 15  1  0  0  0
 15 17  1  0  0  0
 17 18  1  0  0  0
 17 19  2  0  0  0
  6  2  1  0  0  0
  2  3  2  0  0  0
  2  4  1  0  0  0
  4  1  1  0  0  0
  1 34  1  0  0  0
 34 35  1  0  0  0
 35 36  1  0  0  0
 36 37  1  0  0  0
 37 39  1  0  0  0
 39 40  1  0  0  0
 39 41  2  0  0  0
  1 23  1  0  0  0
 23 24  2  0  0  0
 23 25  1  0  0  0
 25 26  2  0  0  0
 26 27  1  0  0  0
 27 28  2  0  0  0
 28 29  1  0  0  0
 29 30  2  0  0  0
 30 31  1  0  0  0
 31 32  2  0  0  0
 32 33  1  0  0  0
 33 25  1  0  0  0
 32 27  1  0  0  0
 10 11  1  0  0  0
 15 16  1  0  0  0
 18 20  1  0  0  0
 18 21  1  0  0  0
 19 22  1  0  0  0
  4  5  1  0  0  0
 37 38  1  0  0  0
 40 42  1  0  0  0
 40 43  1  0  0  0
 41 44  1  0  0  0
M  END
> <minimizedAffinity>
-6.06520

> <CNNscore>
0.2842396498

> <CNNaffinity>
6.9264516830

> <CNN_VS>
1.9687721729

> <CNNaffinity_variance>
0.2017130107

$$$$
[H]N=C(N([H])[H])N([H])C([H])([H])C([H])([H])C([H])([H])[C@@]([H])(C(=O)c1nc2c([H])c([H])c([H])c([H])c2s1)N([H])C(=O)[C@@]([H])(N([H])C(=O)C([H])([H])[H])C([H])([H])C([H])([H])C([H])([H])N([H])C(=N[H])N([H])[H]


 44 45  0  0  0  0  0  0  0  0999 V2000
   12.5203   23.9739   -0.0609 C   0  0  0  0  0  0  0  0  0  0  0  0
   14.0288   24.8908   -1.7886 C   0  0  0  0  0  0  0  0  0  0  0  0
   14.9333   24.8082   -0.8830 O   0  0  0  0  0  0  0  0  0  0  0  0
   12.7295   24.4668   -1.4446 N   0  0  0  0  0  0  0  0  0  0  0  0
   11.8991   24.4664   -2.0615 H   0  0  0  0  0  0  0  0  0  0  0  0
   14.3782   25.4163   -3.1414 C   0  0  0  0  0  0  0  0  0  0  0  0
   17.3236   27.9072   -3.6158 C   0  0  0  0  0  0  0  0  0  0  0  0
   16.0395   27.1902   -3.8539 C   0  0  0  0  0  0  0  0  0  0  0  0
   15.3834   27.5717   -4.8784 O   0  0  0  0  0  0  0  0  0  0  0  0
   15.6011   26.1626   -2.9925 N   0  0  0  0  0  0  0  0  0  0  0  0
   16.2110   25.9148   -2.1756 H   0  0  0  0  0  0  0  0  0  0  0  0
   14.4541   24.2815   -4.0953 C   0  0  0  0  0  0  0  0  0  0  0  0
   15.4808   23.2435   -3.7089 C   0  0  0  0  0  0  0  0  0  0  0  0
   14.8509   21.9876   -3.1576 C   0  0  0  0  0  0  0  0  0  0  0  0
   15.1440   21.7577   -1.7724 N   0  0  0  0  0  0  0  0  0  0  0  0
   15.9654   22.2206   -1.2679 H   0  0  0  0  0  0  0  0  0  0  0  0
   14.3924   20.8988   -0.9261 C   0  0  0  0  0  0  0  0  0  0  0  0
   14.7439   20.6377    0.4191 N   0  0  0  0  0  0  0  0  0  0  0  0
   13.3423   20.3293   -1.4099 N   0  0  0  0  0  0  0  0  0  0  0  0
   15.7161   20.5942    0.7322 H   0  0  0  0  0  0  0  0  0  0  0  0
   13.9554   20.4883    1.1028 H   0  0  0  0  0  0  0  0  0  0  0  0
   13.0585   20.4980   -2.3931 H   0  0  0  0  0  0  0  0  0  0  0  0
   11.5200   22.8859   -0.2126 C   0  0  0  0  0  0  0  0  0  0  0  0
   10.9955   22.6722   -1.3197 O   0  0  0  0  0  0  0  0  0  0  0  0
   11.1736   22.0745    0.9680 C   0  0  0  0  0  0  0  0  0  0  0  0
   11.9364   21.1745    1.5684 N   0  0  0  0  0  0  0  0  0  0  0  0
   11.4922   20.5479    2.6262 C   0  0  0  0  0  0  0  0  0  0  0  0
   12.1988   19.5667    3.3648 C   0  0  0  0  0  0  0  0  0  0  0  0
   11.5883   19.0069    4.4511 C   0  0  0  0  0  0  0  0  0  0  0  0
   10.3484   19.2914    4.9166 C   0  0  0  0  0  0  0  0  0  0  0  0
    9.6354   20.2664    4.1902 C   0  0  0  0  0  0  0  0  0  0  0  0
   10.2370   20.8575    3.0703 C   0  0  0  0  0  0  0  0  0  0  0  0
    9.7647   22.0485    1.9254 S   0  0  0  0  0  0  0  0  0  0  0  0
   11.9621   25.1352    0.7628 C   0  0  0  0  0  0  0  0  0  0  0  0
   10.5369   24.8834    1.1215 C   0  0  0  0  0  0  0  0  0  0  0  0
   10.1495   25.1100    2.5425 C   0  0  0  0  0  0  0  0  0  0  0  0
    8.8526   25.6704    2.7073 N   0  0  0  0  0  0  0  0  0  0  0  0
    8.0846   25.2659    2.0860 H   0  0  0  0  0  0  0  0  0  0  0  0
    8.4458   26.6957    3.5925 C   0  0  0  0  0  0  0  0  0  0  0  0
    7.1096   27.1717    3.5558 N   0  0  0  0  0  0  0  0  0  0  0  0
    9.3179   27.2018    4.4223 N   0  0  0  0  0  0  0  0  0  0  0  0
    6.3165   26.7971    4.1149 H   0  0  0  0  0  0  0  0  0  0  0  0
    6.8863   27.9605    2.9191 H   0  0  0  0  0  0  0  0  0  0  0  0
    9.0369   27.9625    5.0860 H   0  0  0  0  0  0  0  0  0  0  0  0
  7  8  1  0  0  0
  8  9  2  0  0  0
  8 10  1  0  0  0
 10  6  1  0  0  0
  6 12  1  0  0  0
 12 13  1  0  0  0
 13 14  1  0  0  0
 14 15  1  0  0  0
 15 17  1  0  0  0
 17 18  1  0  0  0
 17 19  2  0  0  0
  6  2  1  0  0  0
  2  3  2  0  0  0
  2  4  1  0  0  0
  4  1  1  0  0  0
  1 34  1  0  0  0
 34 35  1  0  0  0
 35 36  1  0  0  0
 36 37  1  0  0  0
 37 39  1  0  0  0
 39 40  1  0  0  0
 39 41  2  0  0  0
  1 23  1  0  0  0
 23 24  2  0  0  0
 23 25  1  0  0  0
 25 26  2  0  0  0
 26 27  1  0  0  0
 27 28  2  0  0  0
 28 29  1  0  0  0
 29 30  2  0  0  0
 30 31  1  0  0  0
 31 32  2  0  0  0
 32 33  1  0  0  0
 33 25  1  0  0  0
 32 27  1  0  0  0
 10 11  1  0  0  0
 15 16  1  0  0  0
 18 20  1  0  0  0
 18 21  1  0  0  0
 19 22  1  0  0  0
  4  5  1  0  0  0
 37 38  1  0  0  0
 40 42  1  0  0  0
 40 43  1  0  0  0
 41 44  1  0  0  0
M  END
> <minimizedAffinity>
-5.86630

> <CNNscore>
0.2677311301

> <CNNaffinity>
7.2123436928

> <CNN_VS>
1.9309688807

> <CNNaffinity_variance>
0.1460843980

$$$$
[H]N=C(N([H])[H])N([H])C([H])([H])C([H])([H])C([H])([H])[C@@]([H])(C(=O)c1nc2c([H])c([H])c([H])c([H])c2s1)N([H])C(=O)[C@@]([H])(N([H])C(=O)C([H])([H])[H])C([H])([H])C([H])([H])C([H])([H])N([H])C(=N[H])N([H])[H]


 44 45  0  0  0  0  0  0  0  0999 V2000
   14.4768   24.4779   -2.2405 C   0  0  0  0  0  0  0  0  0  0  0  0
   14.2070   22.0858   -1.6873 C   0  0  0  0  0  0  0  0  0  0  0  0
   14.3201   21.8962   -2.9508 O   0  0  0  0  0  0  0  0  0  0  0  0
   14.2840   23.4146   -1.2239 N   0  0  0  0  0  0  0  0  0  0  0  0
   14.2166   23.7279   -0.2403 H   0  0  0  0  0  0  0  0  0  0  0  0
   14.0068   20.9202   -0.7765 C   0  0  0  0  0  0  0  0  0  0  0  0
   17.0336   21.4218    1.6094 C   0  0  0  0  0  0  0  0  0  0  0  0
   15.7540   21.6811    0.8918 C   0  0  0  0  0  0  0  0  0  0  0  0
   15.1812   22.7834    1.1788 O   0  0  0  0  0  0  0  0  0  0  0  0
   15.2325   20.7568   -0.0377 N   0  0  0  0  0  0  0  0  0  0  0  0
   15.7770   19.8771   -0.2118 H   0  0  0  0  0  0  0  0  0  0  0  0
   12.8041   21.1616    0.0594 C   0  0  0  0  0  0  0  0  0  0  0  0
   11.6119   20.3324   -0.3551 C   0  0  0  0  0  0  0  0  0  0  0  0
   10.7181   19.9858    0.8106 C   0  0  0  0  0  0  0  0  0  0  0  0
   10.8181   20.9068    1.9056 N   0  0  0  0  0  0  0  0  0  0  0  0
   10.6097   21.9510    1.8072 H   0  0  0  0  0  0  0  0  0  0  0  0
   11.2042   20.5452    3.2243 C   0  0  0  0  0  0  0  0  0  0  0  0
   12.1560   19.5362    3.5021 N   0  0  0  0  0  0  0  0  0  0  0  0
   10.6578   21.1654    4.2133 N   0  0  0  0  0  0  0  0  0  0  0  0
   12.2552   18.7020    2.9196 H   0  0  0  0  0  0  0  0  0  0  0  0
   12.7739   19.6756    4.3449 H   0  0  0  0  0  0  0  0  0  0  0  0
    9.9546   21.9087    4.0437 H   0  0  0  0  0  0  0  0  0  0  0  0
   13.1884   25.2179   -2.2377 C   0  0  0  0  0  0  0  0  0  0  0  0
   12.9472   26.0514   -3.1285 O   0  0  0  0  0  0  0  0  0  0  0  0
   12.2150   24.9382   -1.1671 C   0  0  0  0  0  0  0  0  0  0  0  0
   11.0860   24.2553   -1.2746 N   0  0  0  0  0  0  0  0  0  0  0  0
   10.3339   24.0733   -0.2211 C   0  0  0  0  0  0  0  0  0  0  0  0
    9.1069   23.3650   -0.1922 C   0  0  0  0  0  0  0  0  0  0  0  0
    8.4421   23.2659    0.9971 C   0  0  0  0  0  0  0  0  0  0  0  0
    8.8335   23.7822    2.1867 C   0  0  0  0  0  0  0  0  0  0  0  0
   10.0529   24.4890    2.1708 C   0  0  0  0  0  0  0  0  0  0  0  0
   10.7567   24.6072    0.9641 C   0  0  0  0  0  0  0  0  0  0  0  0
   12.2316   25.3481    0.4864 S   0  0  0  0  0  0  0  0  0  0  0  0
   14.7238   23.7914   -3.5846 C   0  0  0  0  0  0  0  0  0  0  0  0
   15.8332   24.4646   -4.3188 C   0  0  0  0  0  0  0  0  0  0  0  0
   15.4564   25.5749   -5.2386 C   0  0  0  0  0  0  0  0  0  0  0  0
   15.3576   26.8444   -4.6046 N   0  0  0  0  0  0  0  0  0  0  0  0
   14.5364   26.9712   -3.9346 H   0  0  0  0  0  0  0  0  0  0  0  0
   16.2106   27.9638   -4.7447 C   0  0  0  0  0  0  0  0  0  0  0  0
   17.4078   28.0388   -3.9868 N   0  0  0  0  0  0  0  0  0  0  0  0
   15.8705   28.9235   -5.5622 N   0  0  0  0  0  0  0  0  0  0  0  0
   18.3377   27.6803   -4.2842 H   0  0  0  0  0  0  0  0  0  0  0  0
   17.3694   28.4854   -3.0505 H   0  0  0  0  0  0  0  0  0  0  0  0
   16.4883   29.7616   -5.6802 H   0  0  0  0  0  0  0  0  0  0  0  0
  7  8  1  0  0  0
  8  9  2  0  0  0
  8 10  1  0  0  0
 10  6  1  0  0  0
  6 12  1  0  0  0
 12 13  1  0  0  0
 13 14  1  0  0  0
 14 15  1  0  0  0
 15 17  1  0  0  0
 17 18  1  0  0  0
 17 19  2  0  0  0
  6  2  1  0  0  0
  2  3  2  0  0  0
  2  4  1  0  0  0
  4  1  1  0  0  0
  1 34  1  0  0  0
 34 35  1  0  0  0
 35 36  1  0  0  0
 36 37  1  0  0  0
 37 39  1  0  0  0
 39 40  1  0  0  0
 39 41  2  0  0  0
  1 23  1  0  0  0
 23 24  2  0  0  0
 23 25  1  0  0  0
 25 26  2  0  0  0
 26 27  1  0  0  0
 27 28  2  0  0  0
 28 29  1  0  0  0
 29 30  2  0  0  0
 30 31  1  0  0  0
 31 32  2  0  0  0
 32 33  1  0  0  0
 33 25  1  0  0  0
 32 27  1  0  0  0
 10 11  1  0  0  0
 15 16  1  0  0  0
 18 20  1  0  0  0
 18 21  1  0  0  0
 19 22  1  0  0  0
  4  5  1  0  0  0
 37 38  1  0  0  0
 40 42  1  0  0  0
 40 43  1  0  0  0
 41 44  1  0  0  0
M  END
> <minimizedAffinity>
-6.16041

> <CNNscore>
0.2594741881

> <CNNaffinity>
7.5894532204

> <CNN_VS>
1.9692672491

> <CNNaffinity_variance>
0.0340287276

$$$$
[H]N=C(N([H])[H])N([H])C([H])([H])C([H])([H])C([H])([H])[C@@]([H])(C(=O)c1nc2c([H])c([H])c([H])c([H])c2s1)N([H])C(=O)[C@@]([H])(N([H])C(=O)C([H])([H])[H])C([H])([H])C([H])([H])C([H])([H])N([H])C(=N[H])N([H])[H]


 44 45  0  0  0  0  0  0  0  0999 V2000
   11.3642   23.7607    0.0310 C   0  0  0  0  0  0  0  0  0  0  0  0
    9.9266   23.8841    2.0358 C   0  0  0  0  0  0  0  0  0  0  0  0
   10.6682   22.9404    2.4880 O   0  0  0  0  0  0  0  0  0  0  0  0
   10.2254   24.3816    0.7514 N   0  0  0  0  0  0  0  0  0  0  0  0
    9.7269   25.1393    0.2540 H   0  0  0  0  0  0  0  0  0  0  0  0
    8.8046   24.4104    2.8679 C   0  0  0  0  0  0  0  0  0  0  0  0
    7.2337   21.5536    4.9835 C   0  0  0  0  0  0  0  0  0  0  0  0
    7.4242   22.5509    3.8932 C   0  0  0  0  0  0  0  0  0  0  0  0
    6.5189   22.5577    2.9956 O   0  0  0  0  0  0  0  0  0  0  0  0
    8.5368   23.4182    3.8771 N   0  0  0  0  0  0  0  0  0  0  0  0
    9.2290   23.3416    4.6617 H   0  0  0  0  0  0  0  0  0  0  0  0
    9.1792   25.7471    3.3936 C   0  0  0  0  0  0  0  0  0  0  0  0
    8.0408   26.4572    4.0868 C   0  0  0  0  0  0  0  0  0  0  0  0
    6.9044   26.7781    3.1468 C   0  0  0  0  0  0  0  0  0  0  0  0
    6.3201   28.0688    3.3706 N   0  0  0  0  0  0  0  0  0  0  0  0
    5.6620   28.2746    4.1880 H   0  0  0  0  0  0  0  0  0  0  0  0
    6.5403   29.2026    2.5432 C   0  0  0  0  0  0  0  0  0  0  0  0
    6.3306   29.1914    1.1442 N   0  0  0  0  0  0  0  0  0  0  0  0
    6.9535   30.2916    3.0952 N   0  0  0  0  0  0  0  0  0  0  0  0
    6.5031   28.3623    0.5716 H   0  0  0  0  0  0  0  0  0  0  0  0
    5.9817   30.0826    0.7021 H   0  0  0  0  0  0  0  0  0  0  0  0
    7.1191   30.3323    4.1183 H   0  0  0  0  0  0  0  0  0  0  0  0
   12.3058   24.8874   -0.1952 C   0  0  0  0  0  0  0  0  0  0  0  0
   12.4441   25.7672    0.6729 O   0  0  0  0  0  0  0  0  0  0  0  0
   13.0649   24.9317   -1.4577 C   0  0  0  0  0  0  0  0  0  0  0  0
   12.9846   25.8537   -2.4041 N   0  0  0  0  0  0  0  0  0  0  0  0
   13.7445   25.7648   -3.4641 C   0  0  0  0  0  0  0  0  0  0  0  0
   13.7634   26.6771   -4.5481 C   0  0  0  0  0  0  0  0  0  0  0  0
   14.6220   26.4378   -5.5834 C   0  0  0  0  0  0  0  0  0  0  0  0
   15.4828   25.3979   -5.6949 C   0  0  0  0  0  0  0  0  0  0  0  0
   15.4735   24.4835   -4.6223 C   0  0  0  0  0  0  0  0  0  0  0  0
   14.6020   24.7035   -3.5465 C   0  0  0  0  0  0  0  0  0  0  0  0
   14.2606   23.8865   -2.0739 S   0  0  0  0  0  0  0  0  0  0  0  0
   10.8275   23.2074   -1.2899 C   0  0  0  0  0  0  0  0  0  0  0  0
   10.7800   21.7176   -1.2512 C   0  0  0  0  0  0  0  0  0  0  0  0
   11.9825   21.0188   -0.7162 C   0  0  0  0  0  0  0  0  0  0  0  0
   12.3872   21.4659    0.5721 N   0  0  0  0  0  0  0  0  0  0  0  0
   12.0094   22.4159    0.8788 H   0  0  0  0  0  0  0  0  0  0  0  0
   13.2259   20.8118    1.5043 C   0  0  0  0  0  0  0  0  0  0  0  0
   12.6684   20.2433    2.6787 N   0  0  0  0  0  0  0  0  0  0  0  0
   14.5103   20.7573    1.2746 N   0  0  0  0  0  0  0  0  0  0  0  0
   12.3191   19.2682    2.7740 H   0  0  0  0  0  0  0  0  0  0  0  0
   12.5930   20.8394    3.5252 H   0  0  0  0  0  0  0  0  0  0  0  0
   15.1490   20.2777    1.9530 H   0  0  0  0  0  0  0  0  0  0  0  0
  7  8  1  0  0  0
  8  9  2  0  0  0
  8 10  1  0  0  0
 10  6  1  0  0  0
  6 12  1  0  0  0
 12 13  1  0  0  0
 13 14  1  0  0  0
 14 15  1  0  0  0
 15 17  1  0  0  0
 17 18  1  0  0  0
 17 19  2  0  0  0
  6  2  1  0  0  0
  2  3  2  0  0  0
  2  4  1  0  0  0
  4  1  1  0  0  0
  1 34  1  0  0  0
 34 35  1  0  0  0
 35 36  1  0  0  0
 36 37  1  0  0  0
 37 39  1  0  0  0
 39 40  1  0  0  0
 39 41  2  0  0  0
  1 23  1  0  0  0
 23 24  2  0  0  0
 23 25  1  0  0  0
 25 26  2  0  0  0
 26 27  1  0  0  0
 27 28  2  0  0  0
 28 29  1  0  0  0
 29 30  2  0  0  0
 30 31  1  0  0  0
 31 32  2  0  0  0
 32 33  1  0  0  0
 33 25  1  0  0  0
 32 27  1  0  0  0
 10 11  1  0  0  0
 15 16  1  0  0  0
 18 20  1  0  0  0
 18 21  1  0  0  0
 19 22  1  0  0  0
  4  5  1  0  0  0
 37 38  1  0  0  0
 40 42  1  0  0  0
 40 43  1  0  0  0
 41 44  1  0  0  0
M  END
> <minimizedAffinity>
-8.07727

> <CNNscore>
0.2585037649

> <CNNaffinity>
6.7743711472

> <CNN_VS>
1.7512004375

> <CNNaffinity_variance>
0.1062549725

$$$$
[H]c1c([H])c(C(=O)N([H])c2sc(N([H])c3c([H])c([H])c4c([H])c([H])n([H])c4c3[H])nc2C(=O)N([H])[H])c([H])c([H])c1F


 33 36  0  0  0  0  0  0  0  0999 V2000
   13.8376   26.6845   -4.4836 C   0  0  0  0  0  0  0  0  0  0  0  0
   13.1658   27.6610   -5.0315 N   0  0  0  0  0  0  0  0  0  0  0  0
   12.0580   28.1325   -4.4872 C   0  0  0  0  0  0  0  0  0  0  0  0
   11.9223   27.1604   -3.1147 S   0  0  0  0  0  0  0  0  0  0  0  0
   13.3679   26.1483   -3.3342 C   0  0  0  0  0  0  0  0  0  0  0  0
   15.3822   25.2563   -5.8502 N   0  0  0  0  0  0  0  0  0  0  0  0
   15.1923   26.3999   -5.0343 C   0  0  0  0  0  0  0  0  0  0  0  0
   16.1684   27.1070   -4.8187 O   0  0  0  0  0  0  0  0  0  0  0  0
   14.5846   24.9954   -6.4886 H   0  0  0  0  0  0  0  0  0  0  0  0
   16.2420   24.6928   -5.8403 H   0  0  0  0  0  0  0  0  0  0  0  0
   13.6076   25.0111   -2.5314 N   0  0  0  0  0  0  0  0  0  0  0  0
   12.7990   24.1993   -1.7667 C   0  0  0  0  0  0  0  0  0  0  0  0
   11.5683   24.3735   -1.6066 O   0  0  0  0  0  0  0  0  0  0  0  0
   14.6679   24.7256   -2.5470 H   0  0  0  0  0  0  0  0  0  0  0  0
   13.3711   23.0102   -1.0531 C   0  0  0  0  0  0  0  0  0  0  0  0
   14.1384   22.0770   -1.6968 C   0  0  0  0  0  0  0  0  0  0  0  0
   14.6539   20.9711   -1.0111 C   0  0  0  0  0  0  0  0  0  0  0  0
   14.3968   20.8037    0.3261 C   0  0  0  0  0  0  0  0  0  0  0  0
   14.9081   19.7244    0.9650 F   0  0  0  0  0  0  0  0  0  0  0  0
   13.6261   21.7526    0.9459 C   0  0  0  0  0  0  0  0  0  0  0  0
   13.1151   22.8413    0.2835 C   0  0  0  0  0  0  0  0  0  0  0  0
   11.2317   29.1698   -5.0065 N   0  0  0  0  0  0  0  0  0  0  0  0
   11.6777   29.9182   -5.5738 H   0  0  0  0  0  0  0  0  0  0  0  0
    9.8444   29.2134   -4.7787 C   0  0  0  0  0  0  0  0  0  0  0  0
    8.9026   28.7266   -5.6376 C   0  0  0  0  0  0  0  0  0  0  0  0
    7.5397   28.8214   -5.3756 C   0  0  0  0  0  0  0  0  0  0  0  0
    7.0787   29.4160   -4.2260 C   0  0  0  0  0  0  0  0  0  0  0  0
    5.8420   29.6701   -3.6712 C   0  0  0  0  0  0  0  0  0  0  0  0
    6.0586   30.3135   -2.4706 C   0  0  0  0  0  0  0  0  0  0  0  0
    7.3795   30.4436   -2.3059 N   0  0  0  0  0  0  0  0  0  0  0  0
    8.0431   29.9081   -3.3569 C   0  0  0  0  0  0  0  0  0  0  0  0
    9.3767   29.8184   -3.6081 C   0  0  0  0  0  0  0  0  0  0  0  0
    7.8903   30.8922   -1.4908 H   0  0  0  0  0  0  0  0  0  0  0  0
  6  7  1  0  0  0
  7  8  2  0  0  0
  7  1  1  0  0  0
  1  2  1  0  0  0
  2  3  2  0  0  0
  3 22  1  0  0  0
 22 24  1  0  0  0
 24 25  2  0  0  0
 25 26  1  0  0  0
 26 27  2  0  0  0
 27 28  1  0  0  0
 28 29  2  0  0  0
 29 30  1  0  0  0
 30 31  1  0  0  0
 31 32  2  0  0  0
  3  4  1  0  0  0
  4  5  1  0  0  0
  5 11  1  0  0  0
 11 12  1  0  0  0
 12 13  2  0  0  0
 12 15  1  0  0  0
 15 16  2  0  0  0
 16 17  1  0  0  0
 17 18  2  0  0  0
 18 19  1  0  0  0
 18 20  1  0  0  0
 20 21  2  0  0  0
  5  1  2  0  0  0
 21 15  1  0  0  0
 32 24  1  0  0  0
 31 27  1  0  0  0
  6  9  1  0  0  0
  6 10  1  0  0  0
 22 23  1  0  0  0
 30 33  1  0  0  0
 11 14  1  0  0  0
M  END
> <minimizedAffinity>
11.71642

> <CNNscore>
0.5214703679

> <CNNaffinity>
6.4728622437

> <CNN_VS>
3.3754057884

> <CNNaffinity_variance>
0.3933426738

$$$$
[H]c1c([H])c(C(=O)N([H])c2sc(N([H])c3c([H])c([H])c4c([H])c([H])n([H])c4c3[H])nc2C(=O)N([H])[H])c([H])c([H])c1F


 33 36  0  0  0  0  0  0  0  0999 V2000
   12.1090   24.8808   -2.2281 C   0  0  0  0  0  0  0  0  0  0  0  0
   11.8702   25.8670   -3.0500 N   0  0  0  0  0  0  0  0  0  0  0  0
   12.8457   26.4967   -3.6807 C   0  0  0  0  0  0  0  0  0  0  0  0
   14.2008   25.6747   -3.1017 S   0  0  0  0  0  0  0  0  0  0  0  0
   13.3945   24.5137   -2.0227 C   0  0  0  0  0  0  0  0  0  0  0  0
   10.9566   22.6729   -1.9269 N   0  0  0  0  0  0  0  0  0  0  0  0
   10.9387   24.0816   -1.7685 C   0  0  0  0  0  0  0  0  0  0  0  0
    9.9446   24.5785   -1.2546 O   0  0  0  0  0  0  0  0  0  0  0  0
   11.8895   22.1970   -1.8040 H   0  0  0  0  0  0  0  0  0  0  0  0
   10.1193   22.1197   -2.1497 H   0  0  0  0  0  0  0  0  0  0  0  0
   14.1241   23.7031   -1.1251 N   0  0  0  0  0  0  0  0  0  0  0  0
   14.2433   22.3413   -0.9554 C   0  0  0  0  0  0  0  0  0  0  0  0
   13.6221   21.4862   -1.6289 O   0  0  0  0  0  0  0  0  0  0  0  0
   14.7259   24.3098   -0.4354 H   0  0  0  0  0  0  0  0  0  0  0  0
   15.1631   21.7821    0.0894 C   0  0  0  0  0  0  0  0  0  0  0  0
   15.1258   20.4648    0.4599 C   0  0  0  0  0  0  0  0  0  0  0  0
   15.9887   19.9683    1.4438 C   0  0  0  0  0  0  0  0  0  0  0  0
   16.8919   20.7996    2.0565 C   0  0  0  0  0  0  0  0  0  0  0  0
   17.7150   20.2929    3.0053 F   0  0  0  0  0  0  0  0  0  0  0  0
   16.9082   22.1136    1.6667 C   0  0  0  0  0  0  0  0  0  0  0  0
   16.0666   22.6116    0.7030 C   0  0  0  0  0  0  0  0  0  0  0  0
   12.7076   27.5978   -4.5734 N   0  0  0  0  0  0  0  0  0  0  0  0
   13.4711   27.7784   -5.2556 H   0  0  0  0  0  0  0  0  0  0  0  0
   11.5817   28.4407   -4.5618 C   0  0  0  0  0  0  0  0  0  0  0  0
   11.4754   29.5812   -3.8205 C   0  0  0  0  0  0  0  0  0  0  0  0
   10.3256   30.3643   -3.8244 C   0  0  0  0  0  0  0  0  0  0  0  0
    9.2351   30.0184   -4.5853 C   0  0  0  0  0  0  0  0  0  0  0  0
    7.9822   30.5465   -4.8159 C   0  0  0  0  0  0  0  0  0  0  0  0
    7.3436   29.7070   -5.7046 C   0  0  0  0  0  0  0  0  0  0  0  0
    8.1811   28.7070   -6.0004 N   0  0  0  0  0  0  0  0  0  0  0  0
    9.3514   28.8572   -5.3373 C   0  0  0  0  0  0  0  0  0  0  0  0
   10.4728   28.0876   -5.3370 C   0  0  0  0  0  0  0  0  0  0  0  0
    8.0082   27.8878   -6.6527 H   0  0  0  0  0  0  0  0  0  0  0  0
  6  7  1  0  0  0
  7  8  2  0  0  0
  7  1  1  0  0  0
  1  2  1  0  0  0
  2  3  2  0  0  0
  3 22  1  0  0  0
 22 24  1  0  0  0
 24 25  2  0  0  0
 25 26  1  0  0  0
 26 27  2  0  0  0
 27 28  1  0  0  0
 28 29  2  0  0  0
 29 30  1  0  0  0
 30 31  1  0  0  0
 31 32  2  0  0  0
  3  4  1  0  0  0
  4  5  1  0  0  0
  5 11  1  0  0  0
 11 12  1  0  0  0
 12 13  2  0  0  0
 12 15  1  0  0  0
 15 16  2  0  0  0
 16 17  1  0  0  0
 17 18  2  0  0  0
 18 19  1  0  0  0
 18 20  1  0  0  0
 20 21  2  0  0  0
  5  1  2  0  0  0
 21 15  1  0  0  0
 32 24  1  0  0  0
 31 27  1  0  0  0
  6  9  1  0  0  0
  6 10  1  0  0  0
 22 23  1  0  0  0
 30 33  1  0  0  0
 11 14  1  0  0  0
M  END
> <minimizedAffinity>
21.95674

> <CNNscore>
0.4457307160

> <CNNaffinity>
6.3471398354

> <CNN_VS>
2.8291151524

> <CNNaffinity_variance>
0.8381177783

$$$$
[H]c1c([H])c(C(=O)N([H])c2sc(N([H])c3c([H])c([H])c4c([H])c([H])n([H])c4c3[H])nc2C(=O)N([H])[H])c([H])c([H])c1F


 33 36  0  0  0  0  0  0  0  0999 V2000
   12.4514   24.1994   -1.4145 C   0  0  0  0  0  0  0  0  0  0  0  0
   13.6398   24.7031   -1.2169 N   0  0  0  0  0  0  0  0  0  0  0  0
   14.6574   23.9518   -0.8347 C   0  0  0  0  0  0  0  0  0  0  0  0
   13.9301   22.4325   -0.7356 S   0  0  0  0  0  0  0  0  0  0  0  0
   12.2740   22.8743   -1.2096 C   0  0  0  0  0  0  0  0  0  0  0  0
   11.8539   26.3289   -2.5982 N   0  0  0  0  0  0  0  0  0  0  0  0
   11.4459   25.0737   -2.0808 C   0  0  0  0  0  0  0  0  0  0  0  0
   10.2673   24.7674   -2.2086 O   0  0  0  0  0  0  0  0  0  0  0  0
   12.8212   26.3745   -3.0155 H   0  0  0  0  0  0  0  0  0  0  0  0
   11.2584   27.1668   -2.5808 H   0  0  0  0  0  0  0  0  0  0  0  0
   11.1997   21.9650   -1.0911 N   0  0  0  0  0  0  0  0  0  0  0  0
   10.0948   21.9000   -0.2710 C   0  0  0  0  0  0  0  0  0  0  0  0
    9.8423   22.7185    0.6439 O   0  0  0  0  0  0  0  0  0  0  0  0
   11.2772   21.1545   -1.8281 H   0  0  0  0  0  0  0  0  0  0  0  0
    9.0888   20.7993   -0.4350 C   0  0  0  0  0  0  0  0  0  0  0  0
    9.4467   19.4783   -0.4058 C   0  0  0  0  0  0  0  0  0  0  0  0
    8.4907   18.4691   -0.5699 C   0  0  0  0  0  0  0  0  0  0  0  0
    7.1710   18.7900   -0.7638 C   0  0  0  0  0  0  0  0  0  0  0  0
    6.2670   17.7936   -0.9199 F   0  0  0  0  0  0  0  0  0  0  0  0
    6.8402   20.1199   -0.7887 C   0  0  0  0  0  0  0  0  0  0  0  0
    7.7692   21.1182   -0.6290 C   0  0  0  0  0  0  0  0  0  0  0  0
   15.9839   24.3935   -0.5631 N   0  0  0  0  0  0  0  0  0  0  0  0
   16.4529   24.0464    0.2974 H   0  0  0  0  0  0  0  0  0  0  0  0
   16.6733   25.2761   -1.4141 C   0  0  0  0  0  0  0  0  0  0  0  0
   18.0320   25.3616   -1.5052 C   0  0  0  0  0  0  0  0  0  0  0  0
   18.6635   26.2740   -2.3443 C   0  0  0  0  0  0  0  0  0  0  0  0
   17.9364   27.1379   -3.1271 C   0  0  0  0  0  0  0  0  0  0  0  0
   18.2283   28.1316   -4.0376 C   0  0  0  0  0  0  0  0  0  0  0  0
   17.0266   28.6365   -4.4887 C   0  0  0  0  0  0  0  0  0  0  0  0
   16.0435   27.9714   -3.8723 N   0  0  0  0  0  0  0  0  0  0  0  0
   16.5547   27.0441   -3.0293 C   0  0  0  0  0  0  0  0  0  0  0  0
   15.9320   26.1543   -2.2105 C   0  0  0  0  0  0  0  0  0  0  0  0
   14.9972   28.1073   -3.9875 H   0  0  0  0  0  0  0  0  0  0  0  0
  6  7  1  0  0  0
  7  8  2  0  0  0
  7  1  1  0  0  0
  1  2  1  0  0  0
  2  3  2  0  0  0
  3 22  1  0  0  0
 22 24  1  0  0  0
 24 25  2  0  0  0
 25 26  1  0  0  0
 26 27  2  0  0  0
 27 28  1  0  0  0
 28 29  2  0  0  0
 29 30  1  0  0  0
 30 31  1  0  0  0
 31 32  2  0  0  0
  3  4  1  0  0  0
  4  5  1  0  0  0
  5 11  1  0  0  0
 11 12  1  0  0  0
 12 13  2  0  0  0
 12 15  1  0  0  0
 15 16  2  0  0  0
 16 17  1  0  0  0
 17 18  2  0  0  0
 18 19  1  0  0  0
 18 20  1  0  0  0
 20 21  2  0  0  0
  5  1  2  0  0  0
 21 15  1  0  0  0
 32 24  1  0  0  0
 31 27  1  0  0  0
  6  9  1  0  0  0
  6 10  1  0  0  0
 22 23  1  0  0  0
 30 33  1  0  0  0
 11 14  1  0  0  0
M  END
> <minimizedAffinity>
4.66898

> <CNNscore>
0.4451500475

> <CNNaffinity>
6.8075141907

> <CNN_VS>
3.0303652287

> <CNNaffinity_variance>
1.7930310965

$$$$
[H]c1c([H])c(C(=O)N([H])c2sc(N([H])c3c([H])c([H])c4c([H])c([H])n([H])c4c3[H])nc2C(=O)N([H])[H])c([H])c([H])c1F


 33 36  0  0  0  0  0  0  0  0999 V2000
   13.8485   25.7080   -3.3067 C   0  0  0  0  0  0  0  0  0  0  0  0
   13.4746   26.6641   -4.1137 N   0  0  0  0  0  0  0  0  0  0  0  0
   12.2880   27.2361   -4.0094 C   0  0  0  0  0  0  0  0  0  0  0  0
   11.6284   26.3973   -2.7023 S   0  0  0  0  0  0  0  0  0  0  0  0
   12.9827   25.2996   -2.3512 C   0  0  0  0  0  0  0  0  0  0  0  0
   15.7751   24.6007   -4.4709 N   0  0  0  0  0  0  0  0  0  0  0  0
   15.2834   25.3092   -3.3457 C   0  0  0  0  0  0  0  0  0  0  0  0
   16.0763   25.5605   -2.4472 O   0  0  0  0  0  0  0  0  0  0  0  0
   15.3655   24.8607   -5.4071 H   0  0  0  0  0  0  0  0  0  0  0  0
   16.4928   23.8675   -4.4062 H   0  0  0  0  0  0  0  0  0  0  0  0
   12.8534   24.2275   -1.4407 N   0  0  0  0  0  0  0  0  0  0  0  0
   11.7874   23.6806   -0.7609 C   0  0  0  0  0  0  0  0  0  0  0  0
   10.6135   24.1160   -0.8154 O   0  0  0  0  0  0  0  0  0  0  0  0
   13.8179   23.7333   -1.2635 H   0  0  0  0  0  0  0  0  0  0  0  0
   11.9806   22.4814    0.1195 C   0  0  0  0  0  0  0  0  0  0  0  0
   11.7954   21.2055   -0.3406 C   0  0  0  0  0  0  0  0  0  0  0  0
   11.9734   20.1026    0.5028 C   0  0  0  0  0  0  0  0  0  0  0  0
   12.3388   20.2841    1.8126 C   0  0  0  0  0  0  0  0  0  0  0  0
   12.5041   19.1993    2.6066 F   0  0  0  0  0  0  0  0  0  0  0  0
   12.5177   21.5717    2.2471 C   0  0  0  0  0  0  0  0  0  0  0  0
   12.3459   22.6609    1.4291 C   0  0  0  0  0  0  0  0  0  0  0  0
   11.7641   28.2628   -4.8459 N   0  0  0  0  0  0  0  0  0  0  0  0
   12.4298   28.8230   -5.4150 H   0  0  0  0  0  0  0  0  0  0  0  0
   10.3875   28.5403   -4.9260 C   0  0  0  0  0  0  0  0  0  0  0  0
    9.5547   28.0570   -5.8927 C   0  0  0  0  0  0  0  0  0  0  0  0
    8.2041   28.3867   -5.9413 C   0  0  0  0  0  0  0  0  0  0  0  0
    7.6446   29.2229   -5.0057 C   0  0  0  0  0  0  0  0  0  0  0  0
    6.3884   29.7386   -4.7653 C   0  0  0  0  0  0  0  0  0  0  0  0
    6.4827   30.5344   -3.6428 C   0  0  0  0  0  0  0  0  0  0  0  0
    7.7512   30.5008   -3.2200 N   0  0  0  0  0  0  0  0  0  0  0  0
    8.4982   29.7098   -4.0250 C   0  0  0  0  0  0  0  0  0  0  0  0
    9.8194   29.3911   -3.9728 C   0  0  0  0  0  0  0  0  0  0  0  0
    8.1690   31.0009   -2.3822 H   0  0  0  0  0  0  0  0  0  0  0  0
  6  7  1  0  0  0
  7  8  2  0  0  0
  7  1  1  0  0  0
  1  2  1  0  0  0
  2  3  2  0  0  0
  3 22  1  0  0  0
 22 24  1  0  0  0
 24 25  2  0  0  0
 25 26  1  0  0  0
 26 27  2  0  0  0
 27 28  1  0  0  0
 28 29  2  0  0  0
 29 30  1  0  0  0
 30 31  1  0  0  0
 31 32  2  0  0  0
  3  4  1  0  0  0
  4  5  1  0  0  0
  5 11  1  0  0  0
 11 12  1  0  0  0
 12 13  2  0  0  0
 12 15  1  0  0  0
 15 16  2  0  0  0
 16 17  1  0  0  0
 17 18  2  0  0  0
 18 19  1  0  0  0
 18 20  1  0  0  0
 20 21  2  0  0  0
  5  1  2  0  0  0
 21 15  1  0  0  0
 32 24  1  0  0  0
 31 27  1  0  0  0
  6  9  1  0  0  0
  6 10  1  0  0  0
 22 23  1  0  0  0
 30 33  1  0  0  0
 11 14  1  0  0  0
M  END
> <minimizedAffinity>
16.79886

> <CNNscore>
0.4386590719

> <CNNaffinity>
6.3911323547

> <CNN_VS>
2.8035280704

> <CNNaffinity_variance>
0.7512612939

$$$$
[H]c1c([H])c(C(=O)N([H])c2sc(N([H])c3c([H])c([H])c4c([H])c([H])n([H])c4c3[H])nc2C(=O)N([H])[H])c([H])c([H])c1F


 33 36  0  0  0  0  0  0  0  0999 V2000
   11.4348   24.8759    1.1332 C   0  0  0  0  0  0  0  0  0  0  0  0
   10.4906   24.8659    2.0351 N   0  0  0  0  0  0  0  0  0  0  0  0
    9.8843   23.7478    2.3930 C   0  0  0  0  0  0  0  0  0  0  0  0
   10.6677   22.6173    1.4155 S   0  0  0  0  0  0  0  0  0  0  0  0
   11.7821   23.7035    0.5549 C   0  0  0  0  0  0  0  0  0  0  0  0
   12.8037   26.4431   -0.2679 N   0  0  0  0  0  0  0  0  0  0  0  0
   12.2199   26.1334    0.9863 C   0  0  0  0  0  0  0  0  0  0  0  0
   12.3949   26.9282    1.9011 O   0  0  0  0  0  0  0  0  0  0  0  0
   12.2551   26.1648   -1.1244 H   0  0  0  0  0  0  0  0  0  0  0  0
   13.7124   26.9137   -0.3664 H   0  0  0  0  0  0  0  0  0  0  0  0
   12.5437   23.2631   -0.5502 N   0  0  0  0  0  0  0  0  0  0  0  0
   13.8926   23.0846   -0.7649 C   0  0  0  0  0  0  0  0  0  0  0  0
   14.7847   23.3470    0.0753 O   0  0  0  0  0  0  0  0  0  0  0  0
   11.9010   23.0011   -1.4012 H   0  0  0  0  0  0  0  0  0  0  0  0
   14.3899   22.5420   -2.0720 C   0  0  0  0  0  0  0  0  0  0  0  0
   15.0277   23.3318   -2.9904 C   0  0  0  0  0  0  0  0  0  0  0  0
   15.4752   22.8042   -4.2073 C   0  0  0  0  0  0  0  0  0  0  0  0
   15.2805   21.4783   -4.5008 C   0  0  0  0  0  0  0  0  0  0  0  0
   15.7235   20.9941   -5.6855 F   0  0  0  0  0  0  0  0  0  0  0  0
   14.6394   20.7103   -3.5638 C   0  0  0  0  0  0  0  0  0  0  0  0
   14.1962   21.2169   -2.3671 C   0  0  0  0  0  0  0  0  0  0  0  0
    8.8279   23.6204    3.3398 N   0  0  0  0  0  0  0  0  0  0  0  0
    8.6117   22.6745    3.7131 H   0  0  0  0  0  0  0  0  0  0  0  0
    8.0751   24.7233    3.7817 C   0  0  0  0  0  0  0  0  0  0  0  0
    7.5793   24.8668    5.0447 C   0  0  0  0  0  0  0  0  0  0  0  0
    6.8153   25.9666    5.4215 C   0  0  0  0  0  0  0  0  0  0  0  0
    6.5247   26.9677    4.5265 C   0  0  0  0  0  0  0  0  0  0  0  0
    5.8220   28.1537    4.5629 C   0  0  0  0  0  0  0  0  0  0  0  0
    5.9060   28.7156    3.3061 C   0  0  0  0  0  0  0  0  0  0  0  0
    6.6338   27.8980    2.5376 N   0  0  0  0  0  0  0  0  0  0  0  0
    7.0335   26.8148    3.2438 C   0  0  0  0  0  0  0  0  0  0  0  0
    7.7807   25.7416    2.8699 C   0  0  0  0  0  0  0  0  0  0  0  0
    6.8926   28.0274    1.5164 H   0  0  0  0  0  0  0  0  0  0  0  0
  6  7  1  0  0  0
  7  8  2  0  0  0
  7  1  1  0  0  0
  1  2  1  0  0  0
  2  3  2  0  0  0
  3 22  1  0  0  0
 22 24  1  0  0  0
 24 25  2  0  0  0
 25 26  1  0  0  0
 26 27  2  0  0  0
 27 28  1  0  0  0
 28 29  2  0  0  0
 29 30  1  0  0  0
 30 31  1  0  0  0
 31 32  2  0  0  0
  3  4  1  0  0  0
  4  5  1  0  0  0
  5 11  1  0  0  0
 11 12  1  0  0  0
 12 13  2  0  0  0
 12 15  1  0  0  0
 15 16  2  0  0  0
 16 17  1  0  0  0
 17 18  2  0  0  0
 18 19  1  0  0  0
 18 20  1  0  0  0
 20 21  2  0  0  0
  5  1  2  0  0  0
 21 15  1  0  0  0
 32 24  1  0  0  0
 31 27  1  0  0  0
  6  9  1  0  0  0
  6 10  1  0  0  0
 22 23  1  0  0  0
 30 33  1  0  0  0
 11 14  1  0  0  0
M  END
> <minimizedAffinity>
2.72504

> <CNNscore>
0.4279286861

> <CNNaffinity>
6.2806048393

> <CNN_VS>
2.6876509190

> <CNNaffinity_variance>
0.8365086317

$$$$
[H]c1c([H])c(C(=O)N([H])c2sc(N([H])c3c([H])c([H])c4c([H])c([H])n([H])c4c3[H])nc2C(=O)N([H])[H])c([H])c([H])c1F


 33 36  0  0  0  0  0  0  0  0999 V2000
   12.1370   24.4899   -1.0563 C   0  0  0  0  0  0  0  0  0  0  0  0
   13.3484   24.8092   -1.4248 N   0  0  0  0  0  0  0  0  0  0  0  0
   14.3793   24.6789   -0.6086 C   0  0  0  0  0  0  0  0  0  0  0  0
   13.6316   24.0717    0.7769 S   0  0  0  0  0  0  0  0  0  0  0  0
   11.9503   24.0237    0.1996 C   0  0  0  0  0  0  0  0  0  0  0  0
   10.9890   25.5082   -3.0408 N   0  0  0  0  0  0  0  0  0  0  0  0
   11.0960   24.4351   -2.1206 C   0  0  0  0  0  0  0  0  0  0  0  0
   10.3131   23.5025   -2.2487 O   0  0  0  0  0  0  0  0  0  0  0  0
   11.8907   25.9714   -3.3312 H   0  0  0  0  0  0  0  0  0  0  0  0
   10.0926   25.8380   -3.4209 H   0  0  0  0  0  0  0  0  0  0  0  0
   10.8715   23.7660    1.0741 N   0  0  0  0  0  0  0  0  0  0  0  0
   10.2282   22.6168    1.4779 C   0  0  0  0  0  0  0  0  0  0  0  0
   10.5025   21.4673    1.0608 O   0  0  0  0  0  0  0  0  0  0  0  0
   10.4908   24.6922    1.5250 H   0  0  0  0  0  0  0  0  0  0  0  0
    9.1165   22.6800    2.4832 C   0  0  0  0  0  0  0  0  0  0  0  0
    8.0266   21.8547    2.4132 C   0  0  0  0  0  0  0  0  0  0  0  0
    6.9976   21.9386    3.3584 C   0  0  0  0  0  0  0  0  0  0  0  0
    7.0655   22.8553    4.3768 C   0  0  0  0  0  0  0  0  0  0  0  0
    6.0558   22.9151    5.2776 F   0  0  0  0  0  0  0  0  0  0  0  0
    8.1675   23.6690    4.4233 C   0  0  0  0  0  0  0  0  0  0  0  0
    9.1827   23.5957    3.5019 C   0  0  0  0  0  0  0  0  0  0  0  0
   15.7333   25.0194   -0.8900 N   0  0  0  0  0  0  0  0  0  0  0  0
   16.4724   24.6777   -0.2436 H   0  0  0  0  0  0  0  0  0  0  0  0
   16.0990   25.7959   -2.0043 C   0  0  0  0  0  0  0  0  0  0  0  0
   17.0514   26.7728   -1.9889 C   0  0  0  0  0  0  0  0  0  0  0  0
   17.3544   27.5317   -3.1148 C   0  0  0  0  0  0  0  0  0  0  0  0
   16.6996   27.3263   -4.3050 C   0  0  0  0  0  0  0  0  0  0  0  0
   16.7483   27.8767   -5.5685 C   0  0  0  0  0  0  0  0  0  0  0  0
   15.8137   27.2149   -6.3374 C   0  0  0  0  0  0  0  0  0  0  0  0
   15.2213   26.2972   -5.5655 N   0  0  0  0  0  0  0  0  0  0  0  0
   15.7326   26.3300   -4.3128 C   0  0  0  0  0  0  0  0  0  0  0  0
   15.4321   25.5854   -3.2151 C   0  0  0  0  0  0  0  0  0  0  0  0
   14.4561   25.6150   -5.8404 H   0  0  0  0  0  0  0  0  0  0  0  0
  6  7  1  0  0  0
  7  8  2  0  0  0
  7  1  1  0  0  0
  1  2  1  0  0  0
  2  3  2  0  0  0
  3 22  1  0  0  0
 22 24  1  0  0  0
 24 25  2  0  0  0
 25 26  1  0  0  0
 26 27  2  0  0  0
 27 28  1  0  0  0
 28 29  2  0  0  0
 29 30  1  0  0  0
 30 31  1  0  0  0
 31 32  2  0  0  0
  3  4  1  0  0  0
  4  5  1  0  0  0
  5 11  1  0  0  0
 11 12  1  0  0  0
 12 13  2  0  0  0
 12 15  1  0  0  0
 15 16  2  0  0  0
 16 17  1  0  0  0
 17 18  2  0  0  0
 18 19  1  0  0  0
 18 20  1  0  0  0
 20 21  2  0  0  0
  5  1  2  0  0  0
 21 15  1  0  0  0
 32 24  1  0  0  0
 31 27  1  0  0  0
  6  9  1  0  0  0
  6 10  1  0  0  0
 22 23  1  0  0  0
 30 33  1  0  0  0
 11 14  1  0  0  0
M  END
> <minimizedAffinity>
-2.12094

> <CNNscore>
0.4219382405

> <CNNaffinity>
6.7449784279

> <CNN_VS>
2.8459644318

> <CNNaffinity_variance>
0.6680062413

$$$$
[H]c1c([H])c(C(=O)N([H])c2sc(N([H])c3c([H])c([H])c4c([H])c([H])n([H])c4c3[H])nc2C(=O)N([H])[H])c([H])c([H])c1F


 33 36  0  0  0  0  0  0  0  0999 V2000
   14.4239   27.8332   -4.5216 C   0  0  0  0  0  0  0  0  0  0  0  0
   15.3102   26.9185   -4.2334 N   0  0  0  0  0  0  0  0  0  0  0  0
   14.9557   25.7128   -3.8253 C   0  0  0  0  0  0  0  0  0  0  0  0
   13.2732   25.8401   -3.8344 S   0  0  0  0  0  0  0  0  0  0  0  0
   13.1145   27.5236   -4.3847 C   0  0  0  0  0  0  0  0  0  0  0  0
   14.2242   30.2848   -5.0147 N   0  0  0  0  0  0  0  0  0  0  0  0
   14.9146   29.0616   -5.2070 C   0  0  0  0  0  0  0  0  0  0  0  0
   15.8950   29.0769   -5.9404 O   0  0  0  0  0  0  0  0  0  0  0  0
   13.8156   30.4494   -4.0567 H   0  0  0  0  0  0  0  0  0  0  0  0
   14.1130   30.9918   -5.7527 H   0  0  0  0  0  0  0  0  0  0  0  0
   11.8727   28.1966   -4.3684 N   0  0  0  0  0  0  0  0  0  0  0  0
   10.9117   28.4425   -5.3242 C   0  0  0  0  0  0  0  0  0  0  0  0
   11.0028   28.0979   -6.5257 O   0  0  0  0  0  0  0  0  0  0  0  0
   11.6407   28.5859   -3.3681 H   0  0  0  0  0  0  0  0  0  0  0  0
    9.6482   29.1667   -4.9644 C   0  0  0  0  0  0  0  0  0  0  0  0
    8.4968   29.0227   -5.6907 C   0  0  0  0  0  0  0  0  0  0  0  0
    7.3324   29.7160   -5.3402 C   0  0  0  0  0  0  0  0  0  0  0  0
    7.3265   30.5563   -4.2558 C   0  0  0  0  0  0  0  0  0  0  0  0
    6.1862   31.2148   -3.9390 F   0  0  0  0  0  0  0  0  0  0  0  0
    8.4925   30.6819   -3.5462 C   0  0  0  0  0  0  0  0  0  0  0  0
    9.6404   30.0071   -3.8807 C   0  0  0  0  0  0  0  0  0  0  0  0
   15.8297   24.6498   -3.4580 N   0  0  0  0  0  0  0  0  0  0  0  0
   16.8121   24.6797   -3.7970 H   0  0  0  0  0  0  0  0  0  0  0  0
   15.4100   23.5713   -2.6588 C   0  0  0  0  0  0  0  0  0  0  0  0
   15.5431   22.2568   -2.9994 C   0  0  0  0  0  0  0  0  0  0  0  0
   15.0839   21.2284   -2.1828 C   0  0  0  0  0  0  0  0  0  0  0  0
   14.4701   21.4964   -0.9832 C   0  0  0  0  0  0  0  0  0  0  0  0
   13.9165   20.7473    0.0337 C   0  0  0  0  0  0  0  0  0  0  0  0
   13.4528   21.6318    0.9851 C   0  0  0  0  0  0  0  0  0  0  0  0
   13.7169   22.8714    0.5580 N   0  0  0  0  0  0  0  0  0  0  0  0
   14.3393   22.8362   -0.6433 C   0  0  0  0  0  0  0  0  0  0  0  0
   14.7859   23.8455   -1.4380 C   0  0  0  0  0  0  0  0  0  0  0  0
   13.4944   23.7868    1.0468 H   0  0  0  0  0  0  0  0  0  0  0  0
  6  7  1  0  0  0
  7  8  2  0  0  0
  7  1  1  0  0  0
  1  2  1  0  0  0
  2  3  2  0  0  0
  3 22  1  0  0  0
 22 24  1  0  0  0
 24 25  2  0  0  0
 25 26  1  0  0  0
 26 27  2  0  0  0
 27 28  1  0  0  0
 28 29  2  0  0  0
 29 30  1  0  0  0
 30 31  1  0  0  0
 31 32  2  0  0  0
  3  4  1  0  0  0
  4  5  1  0  0  0
  5 11  1  0  0  0
 11 12  1  0  0  0
 12 13  2  0  0  0
 12 15  1  0  0  0
 15 16  2  0  0  0
 16 17  1  0  0  0
 17 18  2  0  0  0
 18 19  1  0  0  0
 18 20  1  0  0  0
 20 21  2  0  0  0
  5  1  2  0  0  0
 21 15  1  0  0  0
 32 24  1  0  0  0
 31 27  1  0  0  0
  6  9  1  0  0  0
  6 10  1  0  0  0
 22 23  1  0  0  0
 30 33  1  0  0  0
 11 14  1  0  0  0
M  END
> <minimizedAffinity>
23.07150

> <CNNscore>
0.4197331667

> <CNNaffinity>
6.2126336098

> <CNN_VS>
2.6076483727

> <CNNaffinity_variance>
0.7962215543

$$$$
[H]c1c([H])c(C(=O)N([H])c2sc(N([H])c3c([H])c([H])c4c([H])c([H])n([H])c4c3[H])nc2C(=O)N([H])[H])c([H])c([H])c1F


 33 36  0  0  0  0  0  0  0  0999 V2000
   14.3430   24.4345   -1.1266 C   0  0  0  0  0  0  0  0  0  0  0  0
   13.9207   24.5406   -2.3577 N   0  0  0  0  0  0  0  0  0  0  0  0
   14.7382   24.4015   -3.3864 C   0  0  0  0  0  0  0  0  0  0  0  0
   16.2049   24.1031   -2.6074 S   0  0  0  0  0  0  0  0  0  0  0  0
   15.6557   24.1843   -0.9180 C   0  0  0  0  0  0  0  0  0  0  0  0
   12.7640   23.0945    0.2890 N   0  0  0  0  0  0  0  0  0  0  0  0
   13.3077   24.3569   -0.0582 C   0  0  0  0  0  0  0  0  0  0  0  0
   12.8905   25.3361    0.5470 O   0  0  0  0  0  0  0  0  0  0  0  0
   13.4232   22.2723    0.2552 H   0  0  0  0  0  0  0  0  0  0  0  0
   11.7824   22.9593    0.5633 H   0  0  0  0  0  0  0  0  0  0  0  0
   16.5681   24.1960    0.1602 N   0  0  0  0  0  0  0  0  0  0  0  0
   16.9484   23.2579    1.0944 C   0  0  0  0  0  0  0  0  0  0  0  0
   16.4654   22.1044    1.1776 O   0  0  0  0  0  0  0  0  0  0  0  0
   17.0795   25.1644    0.2423 H   0  0  0  0  0  0  0  0  0  0  0  0
   18.0077   23.5781    2.1072 C   0  0  0  0  0  0  0  0  0  0  0  0
   18.0500   22.9675    3.3316 C   0  0  0  0  0  0  0  0  0  0  0  0
   19.0436   23.2896    4.2634 C   0  0  0  0  0  0  0  0  0  0  0  0
   19.9974   24.2286    3.9623 C   0  0  0  0  0  0  0  0  0  0  0  0
   20.9472   24.5212    4.8824 F   0  0  0  0  0  0  0  0  0  0  0  0
   19.9318   24.8244    2.7296 C   0  0  0  0  0  0  0  0  0  0  0  0
   18.9619   24.5165    1.8079 C   0  0  0  0  0  0  0  0  0  0  0  0
   14.3976   24.5231   -4.7640 N   0  0  0  0  0  0  0  0  0  0  0  0
   13.7305   23.8364   -5.1695 H   0  0  0  0  0  0  0  0  0  0  0  0
   14.9298   25.5330   -5.5855 C   0  0  0  0  0  0  0  0  0  0  0  0
   15.3752   25.3400   -6.8607 C   0  0  0  0  0  0  0  0  0  0  0  0
   15.9199   26.3702   -7.6205 C   0  0  0  0  0  0  0  0  0  0  0  0
   16.0329   27.6418   -7.1127 C   0  0  0  0  0  0  0  0  0  0  0  0
   16.5057   28.8526   -7.5736 C   0  0  0  0  0  0  0  0  0  0  0  0
   16.3355   29.7697   -6.5577 C   0  0  0  0  0  0  0  0  0  0  0  0
   15.7796   29.1355   -5.5196 N   0  0  0  0  0  0  0  0  0  0  0  0
   15.5767   27.8304   -5.8151 C   0  0  0  0  0  0  0  0  0  0  0  0
   15.0437   26.8268   -5.0677 C   0  0  0  0  0  0  0  0  0  0  0  0
   15.5141   29.5440   -4.5767 H   0  0  0  0  0  0  0  0  0  0  0  0
  6  7  1  0  0  0
  7  8  2  0  0  0
  7  1  1  0  0  0
  1  2  1  0  0  0
  2  3  2  0  0  0
  3 22  1  0  0  0
 22 24  1  0  0  0
 24 25  2  0  0  0
 25 26  1  0  0  0
 26 27  2  0  0  0
 27 28  1  0  0  0
 28 29  2  0  0  0
 29 30  1  0  0  0
 30 31  1  0  0  0
 31 32  2  0  0  0
  3  4  1  0  0  0
  4  5  1  0  0  0
  5 11  1  0  0  0
 11 12  1  0  0  0
 12 13  2  0  0  0
 12 15  1  0  0  0
 15 16  2  0  0  0
 16 17  1  0  0  0
 17 18  2  0  0  0
 18 19  1  0  0  0
 18 20  1  0  0  0
 20 21  2  0  0  0
  5  1  2  0  0  0
 21 15  1  0  0  0
 32 24  1  0  0  0
 31 27  1  0  0  0
  6  9  1  0  0  0
  6 10  1  0  0  0
 22 23  1  0  0  0
 30 33  1  0  0  0
 11 14  1  0  0  0
M  END
> <minimizedAffinity>
27.42785

> <CNNscore>
0.3908959925

> <CNNaffinity>
6.6073479652

> <CNN_VS>
2.5827858448

> <CNNaffinity_variance>
0.4554838240

$$$$
[H]c1c([H])c(C(=O)N([H])c2sc(N([H])c3c([H])c([H])c4c([H])c([H])n([H])c4c3[H])nc2C(=O)N([H])[H])c([H])c([H])c1F


 33 36  0  0  0  0  0  0  0  0999 V2000
   12.4550   25.1055   -1.6004 C   0  0  0  0  0  0  0  0  0  0  0  0
   12.4309   26.1208   -2.4211 N   0  0  0  0  0  0  0  0  0  0  0  0
   13.3757   26.3042   -3.3265 C   0  0  0  0  0  0  0  0  0  0  0  0
   14.3806   24.9814   -3.0308 S   0  0  0  0  0  0  0  0  0  0  0  0
   13.4857   24.2341   -1.6880 C   0  0  0  0  0  0  0  0  0  0  0  0
   10.0890   24.2895   -1.4293 N   0  0  0  0  0  0  0  0  0  0  0  0
   11.2261   24.8526   -0.7971 C   0  0  0  0  0  0  0  0  0  0  0  0
   11.1384   25.1083    0.3971 O   0  0  0  0  0  0  0  0  0  0  0  0
   10.2743   23.5779   -2.1850 H   0  0  0  0  0  0  0  0  0  0  0  0
    9.1235   24.5432   -1.1836 H   0  0  0  0  0  0  0  0  0  0  0  0
   14.0308   23.1733   -0.9312 N   0  0  0  0  0  0  0  0  0  0  0  0
   14.1811   21.8228   -1.1575 C   0  0  0  0  0  0  0  0  0  0  0  0
   13.7800   21.2275   -2.1848 O   0  0  0  0  0  0  0  0  0  0  0  0
   14.4228   23.5276    0.0315 H   0  0  0  0  0  0  0  0  0  0  0  0
   14.8632   20.9525   -0.1437 C   0  0  0  0  0  0  0  0  0  0  0  0
   14.9203   19.5913   -0.2762 C   0  0  0  0  0  0  0  0  0  0  0  0
   15.5552   18.7995    0.6878 C   0  0  0  0  0  0  0  0  0  0  0  0
   16.1342   19.3791    1.7882 C   0  0  0  0  0  0  0  0  0  0  0  0
   16.7418   18.5893    2.7055 F   0  0  0  0  0  0  0  0  0  0  0  0
   16.0626   20.7436    1.8961 C   0  0  0  0  0  0  0  0  0  0  0  0
   15.4426   21.5302    0.9569 C   0  0  0  0  0  0  0  0  0  0  0  0
   13.4678   27.3841   -4.2506 N   0  0  0  0  0  0  0  0  0  0  0  0
   12.7908   28.1681   -4.1621 H   0  0  0  0  0  0  0  0  0  0  0  0
   14.4366   27.4233   -5.2695 C   0  0  0  0  0  0  0  0  0  0  0  0
   15.2472   28.4902   -5.5272 C   0  0  0  0  0  0  0  0  0  0  0  0
   16.1705   28.4863   -6.5677 C   0  0  0  0  0  0  0  0  0  0  0  0
   16.3076   27.3939   -7.3895 C   0  0  0  0  0  0  0  0  0  0  0  0
   17.0931   27.0643   -8.4740 C   0  0  0  0  0  0  0  0  0  0  0  0
   16.7413   25.7874   -8.8587 C   0  0  0  0  0  0  0  0  0  0  0  0
   15.7772   25.3606   -8.0357 N   0  0  0  0  0  0  0  0  0  0  0  0
   15.4800   26.3121   -7.1203 C   0  0  0  0  0  0  0  0  0  0  0  0
   14.5754   26.3106   -6.1048 C   0  0  0  0  0  0  0  0  0  0  0  0
   15.2804   24.4228   -8.0502 H   0  0  0  0  0  0  0  0  0  0  0  0
  6  7  1  0  0  0
  7  8  2  0  0  0
  7  1  1  0  0  0
  1  2  1  0  0  0
  2  3  2  0  0  0
  3 22  1  0  0  0
 22 24  1  0  0  0
 24 25  2  0  0  0
 25 26  1  0  0  0
 26 27  2  0  0  0
 27 28  1  0  0  0
 28 29  2  0  0  0
 29 30  1  0  0  0
 30 31  1  0  0  0
 31 32  2  0  0  0
  3  4  1  0  0  0
  4  5  1  0  0  0
  5 11  1  0  0  0
 11 12  1  0  0  0
 12 13  2  0  0  0
 12 15  1  0  0  0
 15 16  2  0  0  0
 16 17  1  0  0  0
 17 18  2  0  0  0
 18 19  1  0  0  0
 18 20  1  0  0  0
 20 21  2  0  0  0
  5  1  2  0  0  0
 21 15  1  0  0  0
 32 24  1  0  0  0
 31 27  1  0  0  0
  6  9  1  0  0  0
  6 10  1  0  0  0
 22 23  1  0  0  0
 30 33  1  0  0  0
 11 14  1  0  0  0
M  END
> <minimizedAffinity>
18.43105

> <CNNscore>
0.3404921293

> <CNNaffinity>
6.6342248917

> <CNN_VS>
2.2589013577

> <CNNaffinity_variance>
0.3835175931

$$$$
[H]ON([H])C(=O)[C@]([H])(N([H])S(=O)(=O)c1c([H])c([H])c(-c2c([H])c([H])c(OC([H])([H])[H])c([H])c2[H])c([H])c1[H])C([H])(C([H])([H])[H])C([H])([H])[H]


 29 30  0  0  0  0  0  0  0  0999 V2000
   10.0207   23.3382    2.0758 S   0  0  0  0  0  0  0  0  0  0  0  0
    9.5871   24.6900    2.7016 O   0  0  0  0  0  0  0  0  0  0  0  0
    8.8302   22.5164    1.6997 O   0  0  0  0  0  0  0  0  0  0  0  0
   12.4220   24.6183   -1.5986 C   0  0  0  0  0  0  0  0  0  0  0  0
   11.1599   24.2035   -1.7102 C   0  0  0  0  0  0  0  0  0  0  0  0
   10.3878   23.8309   -0.6267 C   0  0  0  0  0  0  0  0  0  0  0  0
   10.8758   23.8772    0.6176 C   0  0  0  0  0  0  0  0  0  0  0  0
   12.2040   24.3223    0.7937 C   0  0  0  0  0  0  0  0  0  0  0  0
   12.9453   24.6702   -0.2447 C   0  0  0  0  0  0  0  0  0  0  0  0
   14.6851   26.1118   -4.7693 C   0  0  0  0  0  0  0  0  0  0  0  0
   13.5785   26.8166   -4.2791 C   0  0  0  0  0  0  0  0  0  0  0  0
   12.8940   26.4072   -3.1773 C   0  0  0  0  0  0  0  0  0  0  0  0
   13.2977   25.2393   -2.5197 C   0  0  0  0  0  0  0  0  0  0  0  0
   14.3760   24.5444   -2.9760 C   0  0  0  0  0  0  0  0  0  0  0  0
   15.0723   24.9963   -4.1213 C   0  0  0  0  0  0  0  0  0  0  0  0
   15.5281   25.8750   -7.0747 C   0  0  0  0  0  0  0  0  0  0  0  0
   15.3109   26.6047   -5.8876 O   0  0  0  0  0  0  0  0  0  0  0  0
   11.0215   22.4778    3.1470 N   0  0  0  0  0  0  0  0  0  0  0  0
   11.8076   22.9735    3.5120 H   0  0  0  0  0  0  0  0  0  0  0  0
   11.0195   21.1185    2.9207 C   0  0  0  0  0  0  0  0  0  0  0  0
   11.5475   20.5823    1.6851 C   0  0  0  0  0  0  0  0  0  0  0  0
   10.9025   19.9696    0.8224 O   0  0  0  0  0  0  0  0  0  0  0  0
   12.9325   20.8374    1.5887 N   0  0  0  0  0  0  0  0  0  0  0  0
   14.1512   21.0547    1.4926 O   0  0  0  0  0  0  0  0  0  0  0  0
   13.0965   19.7238    0.7979 H   0  0  0  0  0  0  0  0  0  0  0  0
   14.4866   21.7414    2.1856 H   0  0  0  0  0  0  0  0  0  0  0  0
   11.4325   20.3558    4.1876 C   0  0  0  0  0  0  0  0  0  0  0  0
   11.7582   18.9429    4.0152 C   0  0  0  0  0  0  0  0  0  0  0  0
   10.0367   20.2061    4.9837 C   0  0  0  0  0  0  0  0  0  0  0  0
 16 17  1  0  0  0
 17 10  1  0  0  0
 10 11  2  0  0  0
 11 12  1  0  0  0
 12 13  2  0  0  0
 13 14  1  0  0  0
 14 15  2  0  0  0
 13  4  1  0  0  0
  4  5  2  0  0  0
  5  6  1  0  0  0
  6  7  2  0  0  0
  7  8  1  0  0  0
  8  9  2  0  0  0
  7  1  1  0  0  0
  1  2  2  0  0  0
  1  3  2  0  0  0
  1 18  1  0  0  0
 18 20  1  0  0  0
 20 27  1  0  0  0
 27 28  1  0  0  0
 27 29  1  0  0  0
 20 21  1  0  0  0
 21 22  2  0  0  0
 21 23  1  0  0  0
 23 24  1  0  0  0
 15 10  1  0  0  0
  9  4  1  0  0  0
 18 19  1  0  0  0
 23 25  1  0  0  0
 24 26  1  0  0  0
M  END
> <minimizedAffinity>
-9.22084

> <CNNscore>
0.4591036737

> <CNNaffinity>
6.5812311172

> <CNN_VS>
3.0214674473

> <CNNaffinity_variance>
0.0314884558

$$$$
[H]ON([H])C(=O)[C@]([H])(N([H])S(=O)(=O)c1c([H])c([H])c(-c2c([H])c([H])c(OC([H])([H])[H])c([H])c2[H])c([H])c1[H])C([H])(C([H])([H])[H])C([H])([H])[H]


 29 30  0  0  0  0  0  0  0  0999 V2000
   10.1218   20.7460   -1.0082 S   0  0  0  0  0  0  0  0  0  0  0  0
   10.2308   20.9339   -2.5443 O   0  0  0  0  0  0  0  0  0  0  0  0
    9.8728   19.3137   -0.6607 O   0  0  0  0  0  0  0  0  0  0  0  0
   14.2325   22.2262    0.3398 C   0  0  0  0  0  0  0  0  0  0  0  0
   13.6297   21.2095    0.9565 C   0  0  0  0  0  0  0  0  0  0  0  0
   12.4002   20.7121    0.5693 C   0  0  0  0  0  0  0  0  0  0  0  0
   11.7422   21.2313   -0.4728 C   0  0  0  0  0  0  0  0  0  0  0  0
   12.3425   22.3021   -1.1702 C   0  0  0  0  0  0  0  0  0  0  0  0
   13.5151   22.7836   -0.7934 C   0  0  0  0  0  0  0  0  0  0  0  0
   17.9580   23.8946    1.2014 C   0  0  0  0  0  0  0  0  0  0  0  0
   17.7367   22.5182    1.3352 C   0  0  0  0  0  0  0  0  0  0  0  0
   16.5677   21.9361    0.9546 C   0  0  0  0  0  0  0  0  0  0  0  0
   15.5489   22.7368    0.4252 C   0  0  0  0  0  0  0  0  0  0  0  0
   15.7477   24.0759    0.2796 C   0  0  0  0  0  0  0  0  0  0  0  0
   16.9754   24.6536    0.6792 C   0  0  0  0  0  0  0  0  0  0  0  0
   19.3654   25.1929    2.7556 C   0  0  0  0  0  0  0  0  0  0  0  0
   19.1710   24.3886    1.6135 O   0  0  0  0  0  0  0  0  0  0  0  0
    8.8935   21.7334   -0.3713 N   0  0  0  0  0  0  0  0  0  0  0  0
    8.9488   22.7055   -0.5926 H   0  0  0  0  0  0  0  0  0  0  0  0
    8.3633   21.2517    0.8058 C   0  0  0  0  0  0  0  0  0  0  0  0
    8.2663   22.1076    1.9681 C   0  0  0  0  0  0  0  0  0  0  0  0
    8.1535   21.7304    3.1432 O   0  0  0  0  0  0  0  0  0  0  0  0
    8.3012   23.4657    1.5849 N   0  0  0  0  0  0  0  0  0  0  0  0
    8.3297   24.6639    1.2606 O   0  0  0  0  0  0  0  0  0  0  0  0
    7.5699   23.8126    2.6973 H   0  0  0  0  0  0  0  0  0  0  0  0
    8.6274   24.8022    0.2826 H   0  0  0  0  0  0  0  0  0  0  0  0
    7.1238   20.3885    0.5306 C   0  0  0  0  0  0  0  0  0  0  0  0
    6.1866   20.9005   -0.4651 C   0  0  0  0  0  0  0  0  0  0  0  0
    6.2359   20.6066    1.8605 C   0  0  0  0  0  0  0  0  0  0  0  0
 16 17  1  0  0  0
 17 10  1  0  0  0
 10 11  2  0  0  0
 11 12  1  0  0  0
 12 13  2  0  0  0
 13 14  1  0  0  0
 14 15  2  0  0  0
 13  4  1  0  0  0
  4  5  2  0  0  0
  5  6  1  0  0  0
  6  7  2  0  0  0
  7  8  1  0  0  0
  8  9  2  0  0  0
  7  1  1  0  0  0
  1  2  2  0  0  0
  1  3  2  0  0  0
  1 18  1  0  0  0
 18 20  1  0  0  0
 20 27  1  0  0  0
 27 28  1  0  0  0
 27 29  1  0  0  0
 20 21  1  0  0  0
 21 22  2  0  0  0
 21 23  1  0  0  0
 23 24  1  0  0  0
 15 10  1  0  0  0
  9  4  1  0  0  0
 18 19  1  0  0  0
 23 25  1  0  0  0
 24 26  1  0  0  0
M  END
> <minimizedAffinity>
2.21485

> <CNNscore>
0.4333516657

> <CNNaffinity>
6.1688489914

> <CNN_VS>
2.6732809544

> <CNNaffinity_variance>
0.7481396794

$$$$
[H]ON([H])C(=O)[C@]([H])(N([H])S(=O)(=O)c1c([H])c([H])c(-c2c([H])c([H])c(OC([H])([H])[H])c([H])c2[H])c([H])c1[H])C([H])(C([H])([H])[H])C([H])([H])[H]


 29 30  0  0  0  0  0  0  0  0999 V2000
   16.4954   25.1353   -1.3806 S   0  0  0  0  0  0  0  0  0  0  0  0
   16.3212   26.5310   -0.7259 O   0  0  0  0  0  0  0  0  0  0  0  0
   17.7148   24.4473   -0.8574 O   0  0  0  0  0  0  0  0  0  0  0  0
   12.8456   22.7612    0.0154 C   0  0  0  0  0  0  0  0  0  0  0  0
   13.2150   23.8837    0.6325 C   0  0  0  0  0  0  0  0  0  0  0  0
   14.2946   24.6470    0.2315 C   0  0  0  0  0  0  0  0  0  0  0  0
   15.0347   24.2950   -0.8253 C   0  0  0  0  0  0  0  0  0  0  0  0
   14.6786   23.1208   -1.5238 C   0  0  0  0  0  0  0  0  0  0  0  0
   13.6506   22.3860   -1.1339 C   0  0  0  0  0  0  0  0  0  0  0  0
    9.3773   20.4693   -0.3361 C   0  0  0  0  0  0  0  0  0  0  0  0
   10.6382   19.8629   -0.2718 C   0  0  0  0  0  0  0  0  0  0  0  0
   11.7717   20.5799   -0.0451 C   0  0  0  0  0  0  0  0  0  0  0  0
   11.6792   21.9673    0.1158 C   0  0  0  0  0  0  0  0  0  0  0  0
   10.4615   22.5745    0.0647 C   0  0  0  0  0  0  0  0  0  0  0  0
    9.2988   21.8033   -0.1674 C   0  0  0  0  0  0  0  0  0  0  0  0
    7.2220   19.9802   -1.4302 C   0  0  0  0  0  0  0  0  0  0  0  0
    8.2920   19.6610   -0.5688 O   0  0  0  0  0  0  0  0  0  0  0  0
   16.5728   25.2748   -3.0729 N   0  0  0  0  0  0  0  0  0  0  0  0
   17.3107   24.7761   -3.5242 H   0  0  0  0  0  0  0  0  0  0  0  0
   16.0602   26.4636   -3.5450 C   0  0  0  0  0  0  0  0  0  0  0  0
   16.9470   27.5347   -3.9444 C   0  0  0  0  0  0  0  0  0  0  0  0
   18.1051   27.7106   -3.5400 O   0  0  0  0  0  0  0  0  0  0  0  0
   16.3048   28.3888   -4.8667 N   0  0  0  0  0  0  0  0  0  0  0  0
   15.7506   29.1481   -5.6780 O   0  0  0  0  0  0  0  0  0  0  0  0
   17.0890   29.4426   -4.4580 H   0  0  0  0  0  0  0  0  0  0  0  0
   14.8770   28.7520   -6.0577 H   0  0  0  0  0  0  0  0  0  0  0  0
   14.8822   26.2083   -4.4960 C   0  0  0  0  0  0  0  0  0  0  0  0
   13.5637   26.0988   -3.8782 C   0  0  0  0  0  0  0  0  0  0  0  0
   15.0980   24.6674   -4.9242 C   0  0  0  0  0  0  0  0  0  0  0  0
 16 17  1  0  0  0
 17 10  1  0  0  0
 10 11  2  0  0  0
 11 12  1  0  0  0
 12 13  2  0  0  0
 13 14  1  0  0  0
 14 15  2  0  0  0
 13  4  1  0  0  0
  4  5  2  0  0  0
  5  6  1  0  0  0
  6  7  2  0  0  0
  7  8  1  0  0  0
  8  9  2  0  0  0
  7  1  1  0  0  0
  1  2  2  0  0  0
  1  3  2  0  0  0
  1 18  1  0  0  0
 18 20  1  0  0  0
 20 27  1  0  0  0
 27 28  1  0  0  0
 27 29  1  0  0  0
 20 21  1  0  0  0
 21 22  2  0  0  0
 21 23  1  0  0  0
 23 24  1  0  0  0
 15 10  1  0  0  0
  9  4  1  0  0  0
 18 19  1  0  0  0
 23 25  1  0  0  0
 24 26  1  0  0  0
M  END
> <minimizedAffinity>
-6.27288

> <CNNscore>
0.2614860833

> <CNNaffinity>
6.4033112526

> <CNN_VS>
1.6743767262

> <CNNaffinity_variance>
0.2253746539

$$$$
[H]ON([H])C(=O)[C@]([H])(N([H])S(=O)(=O)c1c([H])c([H])c(-c2c([H])c([H])c(OC([H])([H])[H])c([H])c2[H])c([H])c1[H])C([H])(C([H])([H])[H])C([H])([H])[H]


 29 30  0  0  0  0  0  0  0  0999 V2000
   10.5473   23.1294    1.9462 S   0  0  0  0  0  0  0  0  0  0  0  0
   11.7635   22.4903    2.6669 O   0  0  0  0  0  0  0  0  0  0  0  0
    9.9591   24.2327    2.7653 O   0  0  0  0  0  0  0  0  0  0  0  0
   12.6731   24.6695   -1.7975 C   0  0  0  0  0  0  0  0  0  0  0  0
   11.3441   24.5768   -1.7484 C   0  0  0  0  0  0  0  0  0  0  0  0
   10.6571   24.1413   -0.6316 C   0  0  0  0  0  0  0  0  0  0  0  0
   11.3051   23.7913    0.4847 C   0  0  0  0  0  0  0  0  0  0  0  0
   12.7139   23.8834    0.4913 C   0  0  0  0  0  0  0  0  0  0  0  0
   13.3711   24.2918   -0.5811 C   0  0  0  0  0  0  0  0  0  0  0  0
   14.9215   26.1271   -4.9952 C   0  0  0  0  0  0  0  0  0  0  0  0
   13.8154   26.8360   -4.5098 C   0  0  0  0  0  0  0  0  0  0  0  0
   13.1358   26.4392   -3.4003 C   0  0  0  0  0  0  0  0  0  0  0  0
   13.5442   25.2805   -2.7296 C   0  0  0  0  0  0  0  0  0  0  0  0
   14.6222   24.5819   -3.1811 C   0  0  0  0  0  0  0  0  0  0  0  0
   15.3133   25.0206   -4.3346 C   0  0  0  0  0  0  0  0  0  0  0  0
   15.6079   25.9264   -7.3554 C   0  0  0  0  0  0  0  0  0  0  0  0
   15.5423   26.6071   -6.1219 O   0  0  0  0  0  0  0  0  0  0  0  0
    9.3700   21.9522    1.6032 N   0  0  0  0  0  0  0  0  0  0  0  0
    8.8369   21.6209    2.3797 H   0  0  0  0  0  0  0  0  0  0  0  0
    9.6802   21.1751    0.5084 C   0  0  0  0  0  0  0  0  0  0  0  0
   10.8691   20.3508    0.5103 C   0  0  0  0  0  0  0  0  0  0  0  0
   11.1552   19.4868    1.3513 O   0  0  0  0  0  0  0  0  0  0  0  0
   11.6949   20.6735   -0.5882 N   0  0  0  0  0  0  0  0  0  0  0  0
   12.4304   20.9489   -1.5499 O   0  0  0  0  0  0  0  0  0  0  0  0
   12.8073   20.2649    0.1104 H   0  0  0  0  0  0  0  0  0  0  0  0
   11.9578   21.5362   -2.2542 H   0  0  0  0  0  0  0  0  0  0  0  0
    8.4216   20.4967   -0.0510 C   0  0  0  0  0  0  0  0  0  0  0  0
    8.3375   20.3865   -1.5046 C   0  0  0  0  0  0  0  0  0  0  0  0
    7.2792   21.6103    0.1923 C   0  0  0  0  0  0  0  0  0  0  0  0
 16 17  1  0  0  0
 17 10  1  0  0  0
 10 11  2  0  0  0
 11 12  1  0  0  0
 12 13  2  0  0  0
 13 14  1  0  0  0
 14 15  2  0  0  0
 13  4  1  0  0  0
  4  5  2  0  0  0
  5  6  1  0  0  0
  6  7  2  0  0  0
  7  8  1  0  0  0
  8  9  2  0  0  0
  7  1  1  0  0  0
  1  2  2  0  0  0
  1  3  2  0  0  0
  1 18  1  0  0  0
 18 20  1  0  0  0
 20 27  1  0  0  0
 27 28  1  0  0  0
 27 29  1  0  0  0
 20 21  1  0  0  0
 21 22  2  0  0  0
 21 23  1  0  0  0
 23 24  1  0  0  0
 15 10  1  0  0  0
  9  4  1  0  0  0
 18 19  1  0  0  0
 23 25  1  0  0  0
 24 26  1  0  0  0
M  END
> <minimizedAffinity>
-8.21817

> <CNNscore>
0.2425369024

> <CNNaffinity>
6.4718255997

> <CNN_VS>
1.5696564913

> <CNNaffinity_variance>
0.0595487468

$$$$
[H]ON([H])C(=O)[C@]([H])(N([H])S(=O)(=O)c1c([H])c([H])c(-c2c([H])c([H])c(OC([H])([H])[H])c([H])c2[H])c([H])c1[H])C([H])(C([H])([H])[H])C([H])([H])[H]


 29 30  0  0  0  0  0  0  0  0999 V2000
   16.1692   24.9609   -0.8757 S   0  0  0  0  0  0  0  0  0  0  0  0
   15.9384   26.3697   -0.2685 O   0  0  0  0  0  0  0  0  0  0  0  0
   17.2282   24.2211   -0.1239 O   0  0  0  0  0  0  0  0  0  0  0  0
   11.9945   23.2042   -0.2491 C   0  0  0  0  0  0  0  0  0  0  0  0
   12.9361   22.5264   -0.9059 C   0  0  0  0  0  0  0  0  0  0  0  0
   14.2177   23.0056   -1.0980 C   0  0  0  0  0  0  0  0  0  0  0  0
   14.5892   24.1964   -0.6161 C   0  0  0  0  0  0  0  0  0  0  0  0
   13.6338   24.9504    0.0996 C   0  0  0  0  0  0  0  0  0  0  0  0
   12.4048   24.4950    0.2753 C   0  0  0  0  0  0  0  0  0  0  0  0
    8.0225   22.2679    0.6181 C   0  0  0  0  0  0  0  0  0  0  0  0
    8.9059   21.2905    0.1425 C   0  0  0  0  0  0  0  0  0  0  0  0
   10.2297   21.5437   -0.0405 C   0  0  0  0  0  0  0  0  0  0  0  0
   10.7239   22.8226    0.2416 C   0  0  0  0  0  0  0  0  0  0  0  0
    9.8827   23.7841    0.7125 C   0  0  0  0  0  0  0  0  0  0  0  0
    8.5114   23.4913    0.8982 C   0  0  0  0  0  0  0  0  0  0  0  0
    6.1874   20.6217    0.5545 C   0  0  0  0  0  0  0  0  0  0  0  0
    6.7041   21.9161    0.7703 O   0  0  0  0  0  0  0  0  0  0  0  0
   16.5819   25.0796   -2.5204 N   0  0  0  0  0  0  0  0  0  0  0  0
   17.4389   24.6459   -2.7934 H   0  0  0  0  0  0  0  0  0  0  0  0
   16.0737   26.2065   -3.1291 C   0  0  0  0  0  0  0  0  0  0  0  0
   16.9573   27.2733   -3.5465 C   0  0  0  0  0  0  0  0  0  0  0  0
   18.0882   27.5016   -3.0940 O   0  0  0  0  0  0  0  0  0  0  0  0
   16.3471   28.0545   -4.5515 N   0  0  0  0  0  0  0  0  0  0  0  0
   15.8208   28.7499   -5.4354 O   0  0  0  0  0  0  0  0  0  0  0  0
   17.0855   29.1499   -4.1677 H   0  0  0  0  0  0  0  0  0  0  0  0
   14.9774   28.3103   -5.8350 H   0  0  0  0  0  0  0  0  0  0  0  0
   14.9845   25.8319   -4.1442 C   0  0  0  0  0  0  0  0  0  0  0  0
   13.6204   25.7512   -3.6297 C   0  0  0  0  0  0  0  0  0  0  0  0
   15.2602   24.2623   -4.3989 C   0  0  0  0  0  0  0  0  0  0  0  0
 16 17  1  0  0  0
 17 10  1  0  0  0
 10 11  2  0  0  0
 11 12  1  0  0  0
 12 13  2  0  0  0
 13 14  1  0  0  0
 14 15  2  0  0  0
 13  4  1  0  0  0
  4  5  2  0  0  0
  5  6  1  0  0  0
  6  7  2  0  0  0
  7  8  1  0  0  0
  8  9  2  0  0  0
  7  1  1  0  0  0
  1  2  2  0  0  0
  1  3  2  0  0  0
  1 18  1  0  0  0
 18 20  1  0  0  0
 20 27  1  0  0  0
 27 28  1  0  0  0
 27 29  1  0  0  0
 20 21  1  0  0  0
 21 22  2  0  0  0
 21 23  1  0  0  0
 23 24  1  0  0  0
 15 10  1  0  0  0
  9  4  1  0  0  0
 18 19  1  0  0  0
 23 25  1  0  0  0
 24 26  1  0  0  0
M  END
> <minimizedAffinity>
-6.28058

> <CNNscore>
0.2316592783

> <CNNaffinity>
6.4236555099

> <CNN_VS>
1.4880994558

> <CNNaffinity_variance>
0.1276042312

$$$$
[H]ON([H])C(=O)[C@]([H])(N([H])S(=O)(=O)c1c([H])c([H])c(-c2c([H])c([H])c(OC([H])([H])[H])c([H])c2[H])c([H])c1[H])C([H])(C([H])([H])[H])C([H])([H])[H]


 29 30  0  0  0  0  0  0  0  0999 V2000
   16.6049   25.4577   -1.8175 S   0  0  0  0  0  0  0  0  0  0  0  0
   16.3250   26.8046   -1.1005 O   0  0  0  0  0  0  0  0  0  0  0  0
   17.9009   24.8684   -1.3624 O   0  0  0  0  0  0  0  0  0  0  0  0
   12.9939   23.0962   -0.3039 C   0  0  0  0  0  0  0  0  0  0  0  0
   13.6563   22.7173   -1.3970 C   0  0  0  0  0  0  0  0  0  0  0  0
   14.7668   23.3842   -1.8775 C   0  0  0  0  0  0  0  0  0  0  0  0
   15.2494   24.4626   -1.2509 C   0  0  0  0  0  0  0  0  0  0  0  0
   14.5931   24.8992   -0.0796 C   0  0  0  0  0  0  0  0  0  0  0  0
   13.5248   24.2656    0.3746 C   0  0  0  0  0  0  0  0  0  0  0  0
   10.5150   21.1544    2.4328 C   0  0  0  0  0  0  0  0  0  0  0  0
   10.5222   22.5513    2.3322 C   0  0  0  0  0  0  0  0  0  0  0  0
   11.2363   23.2009    1.3739 C   0  0  0  0  0  0  0  0  0  0  0  0
   11.9982   22.4534    0.4683 C   0  0  0  0  0  0  0  0  0  0  0  0
   11.9979   21.0940    0.5446 C   0  0  0  0  0  0  0  0  0  0  0  0
   11.2418   20.4447    1.5484 C   0  0  0  0  0  0  0  0  0  0  0  0
    9.1325   21.3122    4.4689 C   0  0  0  0  0  0  0  0  0  0  0  0
    9.7626   20.5909    3.4337 O   0  0  0  0  0  0  0  0  0  0  0  0
   16.6084   25.6683   -3.5042 N   0  0  0  0  0  0  0  0  0  0  0  0
   17.4180   25.3415   -3.9887 H   0  0  0  0  0  0  0  0  0  0  0  0
   15.8592   26.7476   -3.9195 C   0  0  0  0  0  0  0  0  0  0  0  0
   16.5025   27.8975   -4.5170 C   0  0  0  0  0  0  0  0  0  0  0  0
   15.9874   28.6814   -5.3269 O   0  0  0  0  0  0  0  0  0  0  0  0
   17.8339   28.0098   -4.0617 N   0  0  0  0  0  0  0  0  0  0  0  0
   19.0069   28.1189   -3.6695 O   0  0  0  0  0  0  0  0  0  0  0  0
   18.1928   28.6483   -5.2262 H   0  0  0  0  0  0  0  0  0  0  0  0
   19.2103   27.5164   -2.8571 H   0  0  0  0  0  0  0  0  0  0  0  0
   14.5784   26.2810   -4.6261 C   0  0  0  0  0  0  0  0  0  0  0  0
   13.4071   26.0812   -3.7774 C   0  0  0  0  0  0  0  0  0  0  0  0
   14.9086   24.7416   -4.9809 C   0  0  0  0  0  0  0  0  0  0  0  0
 16 17  1  0  0  0
 17 10  1  0  0  0
 10 11  2  0  0  0
 11 12  1  0  0  0
 12 13  2  0  0  0
 13 14  1  0  0  0
 14 15  2  0  0  0
 13  4  1  0  0  0
  4  5  2  0  0  0
  5  6  1  0  0  0
  6  7  2  0  0  0
  7  8  1  0  0  0
  8  9  2  0  0  0
  7  1  1  0  0  0
  1  2  2  0  0  0
  1  3  2  0  0  0
  1 18  1  0  0  0
 18 20  1  0  0  0
 20 27  1  0  0  0
 27 28  1  0  0  0
 27 29  1  0  0  0
 20 21  1  0  0  0
 21 22  2  0  0  0
 21 23  1  0  0  0
 23 24  1  0  0  0
 15 10  1  0  0  0
  9  4  1  0  0  0
 18 19  1  0  0  0
 23 25  1  0  0  0
 24 26  1  0  0  0
M  END
> <minimizedAffinity>
-6.04496

> <CNNscore>
0.2253473252

> <CNNaffinity>
6.4899892807

> <CNN_VS>
1.4625017643

> <CNNaffinity_variance>
0.2255735099

$$$$
[H]ON([H])C(=O)[C@]([H])(N([H])S(=O)(=O)c1c([H])c([H])c(-c2c([H])c([H])c(OC([H])([H])[H])c([H])c2[H])c([H])c1[H])C([H])(C([H])([H])[H])C([H])([H])[H]


 29 30  0  0  0  0  0  0  0  0999 V2000
   13.4399   26.0476   -3.1131 S   0  0  0  0  0  0  0  0  0  0  0  0
   13.6904   24.8219   -4.0305 O   0  0  0  0  0  0  0  0  0  0  0  0
   12.6131   27.0786   -3.8113 O   0  0  0  0  0  0  0  0  0  0  0  0
   11.0712   24.3767    0.4230 C   0  0  0  0  0  0  0  0  0  0  0  0
   10.7256   24.0943   -0.8332 C   0  0  0  0  0  0  0  0  0  0  0  0
   11.4251   24.5555   -1.9318 C   0  0  0  0  0  0  0  0  0  0  0  0
   12.5140   25.3182   -1.7868 C   0  0  0  0  0  0  0  0  0  0  0  0
   12.9320   25.6364   -0.4763 C   0  0  0  0  0  0  0  0  0  0  0  0
   12.2567   25.2021    0.5745 C   0  0  0  0  0  0  0  0  0  0  0  0
    9.2738   22.6334    3.7600 C   0  0  0  0  0  0  0  0  0  0  0  0
   10.1820   21.9143    2.9727 C   0  0  0  0  0  0  0  0  0  0  0  0
   10.8643   22.4940    1.9487 C   0  0  0  0  0  0  0  0  0  0  0  0
   10.6439   23.8464    1.6628 C   0  0  0  0  0  0  0  0  0  0  0  0
    9.7710   24.5647    2.4218 C   0  0  0  0  0  0  0  0  0  0  0  0
    9.0789   23.9372    3.4839 C   0  0  0  0  0  0  0  0  0  0  0  0
    7.3727   21.3407    4.6524 C   0  0  0  0  0  0  0  0  0  0  0  0
    8.6340   21.9602    4.7713 O   0  0  0  0  0  0  0  0  0  0  0  0
   14.9139   26.7187   -2.5971 N   0  0  0  0  0  0  0  0  0  0  0  0
   14.8548   27.5717   -2.0815 H   0  0  0  0  0  0  0  0  0  0  0  0
   15.9741   26.3993   -3.4174 C   0  0  0  0  0  0  0  0  0  0  0  0
   16.7608   27.4444   -4.0353 C   0  0  0  0  0  0  0  0  0  0  0  0
   17.8415   27.8856   -3.6189 O   0  0  0  0  0  0  0  0  0  0  0  0
   16.1181   27.9243   -5.1968 N   0  0  0  0  0  0  0  0  0  0  0  0
   15.5623   28.3557   -6.2199 O   0  0  0  0  0  0  0  0  0  0  0  0
   16.7227   29.1503   -5.0415 H   0  0  0  0  0  0  0  0  0  0  0  0
   14.7868   27.7520   -6.5335 H   0  0  0  0  0  0  0  0  0  0  0  0
   16.7871   25.2379   -2.8279 C   0  0  0  0  0  0  0  0  0  0  0  0
   16.3064   23.8926   -3.1298 C   0  0  0  0  0  0  0  0  0  0  0  0
   16.4135   25.3022   -1.2593 C   0  0  0  0  0  0  0  0  0  0  0  0
 16 17  1  0  0  0
 17 10  1  0  0  0
 10 11  2  0  0  0
 11 12  1  0  0  0
 12 13  2  0  0  0
 13 14  1  0  0  0
 14 15  2  0  0  0
 13  4  1  0  0  0
  4  5  2  0  0  0
  5  6  1  0  0  0
  6  7  2  0  0  0
  7  8  1  0  0  0
  8  9  2  0  0  0
  7  1  1  0  0  0
  1  2  2  0  0  0
  1  3  2  0  0  0
  1 18  1  0  0  0
 18 20  1  0  0  0
 20 27  1  0  0  0
 27 28  1  0  0  0
 27 29  1  0  0  0
 20 21  1  0  0  0
 21 22  2  0  0  0
 21 23  1  0  0  0
 23 24  1  0  0  0
 15 10  1  0  0  0
  9  4  1  0  0  0
 18 19  1  0  0  0
 23 25  1  0  0  0
 24 26  1  0  0  0
M  END
> <minimizedAffinity>
-5.95413

> <CNNscore>
0.2136856914

> <CNNaffinity>
5.9357962608

> <CNN_VS>
1.2683947086

> <CNNaffinity_variance>
0.1803501546

$$$$
[H]ON([H])C(=O)[C@]([H])(N([H])S(=O)(=O)c1c([H])c([H])c(-c2c([H])c([H])c(OC([H])([H])[H])c([H])c2[H])c([H])c1[H])C([H])(C([H])([H])[H])C([H])([H])[H]


 29 30  0  0  0  0  0  0  0  0999 V2000
   11.3937   21.8245    1.7764 S   0  0  0  0  0  0  0  0  0  0  0  0
   10.7413   20.7421    0.8766 O   0  0  0  0  0  0  0  0  0  0  0  0
   12.5606   21.2658    2.5250 O   0  0  0  0  0  0  0  0  0  0  0  0
   12.7452   24.7142   -1.4991 C   0  0  0  0  0  0  0  0  0  0  0  0
   12.1715   25.1592   -0.3811 C   0  0  0  0  0  0  0  0  0  0  0  0
   11.7699   24.3268    0.6459 C   0  0  0  0  0  0  0  0  0  0  0  0
   11.9486   23.0035    0.5722 C   0  0  0  0  0  0  0  0  0  0  0  0
   12.5643   22.4801   -0.5856 C   0  0  0  0  0  0  0  0  0  0  0  0
   12.9403   23.2767   -1.5719 C   0  0  0  0  0  0  0  0  0  0  0  0
   14.3505   26.3337   -4.9928 C   0  0  0  0  0  0  0  0  0  0  0  0
   13.3021   26.9721   -4.3181 C   0  0  0  0  0  0  0  0  0  0  0  0
   12.8381   26.5248   -3.1203 C   0  0  0  0  0  0  0  0  0  0  0  0
   13.4152   25.3846   -2.5492 C   0  0  0  0  0  0  0  0  0  0  0  0
   14.4409   24.7545   -3.1856 C   0  0  0  0  0  0  0  0  0  0  0  0
   14.9066   25.2448   -4.4279 C   0  0  0  0  0  0  0  0  0  0  0  0
   15.6952   26.2698   -7.0590 C   0  0  0  0  0  0  0  0  0  0  0  0
   14.7490   26.8609   -6.1963 O   0  0  0  0  0  0  0  0  0  0  0  0
   10.2512   22.4722    2.8556 N   0  0  0  0  0  0  0  0  0  0  0  0
   10.3379   22.1938    3.8105 H   0  0  0  0  0  0  0  0  0  0  0  0
    9.0458   22.7699    2.2580 C   0  0  0  0  0  0  0  0  0  0  0  0
    8.0736   21.7267    2.0136 C   0  0  0  0  0  0  0  0  0  0  0  0
    7.9223   20.6991    2.6896 O   0  0  0  0  0  0  0  0  0  0  0  0
    7.3070   22.0257    0.8667 N   0  0  0  0  0  0  0  0  0  0  0  0
    6.6264   22.2769   -0.1410 O   0  0  0  0  0  0  0  0  0  0  0  0
    7.0931   20.6852    0.6433 H   0  0  0  0  0  0  0  0  0  0  0  0
    6.7396   23.2506   -0.4623 H   0  0  0  0  0  0  0  0  0  0  0  0
    8.4678   24.0762    2.8209 C   0  0  0  0  0  0  0  0  0  0  0  0
    9.4094   25.1784    2.9952 C   0  0  0  0  0  0  0  0  0  0  0  0
    8.2052   23.7103    4.3706 C   0  0  0  0  0  0  0  0  0  0  0  0
 16 17  1  0  0  0
 17 10  1  0  0  0
 10 11  2  0  0  0
 11 12  1  0  0  0
 12 13  2  0  0  0
 13 14  1  0  0  0
 14 15  2  0  0  0
 13  4  1  0  0  0
  4  5  2  0  0  0
  5  6  1  0  0  0
  6  7  2  0  0  0
  7  8  1  0  0  0
  8  9  2  0  0  0
  7  1  1  0  0  0
  1  2  2  0  0  0
  1  3  2  0  0  0
  1 18  1  0  0  0
 18 20  1  0  0  0
 20 27  1  0  0  0
 27 28  1  0  0  0
 27 29  1  0  0  0
 20 21  1  0  0  0
 21 22  2  0  0  0
 21 23  1  0  0  0
 23 24  1  0  0  0
 15 10  1  0  0  0
  9  4  1  0  0  0
 18 19  1  0  0  0
 23 25  1  0  0  0
 24 26  1  0  0  0
M  END
> <minimizedAffinity>
-8.99025

> <CNNscore>
0.2117127329

> <CNNaffinity>
6.2343969345

> <CNN_VS>
1.3199012280

> <CNNaffinity_variance>
0.0375914536

$$$$
[H]ON([H])C(=O)[C@]([H])(N([H])S(=O)(=O)c1c([H])c([H])c(-c2c([H])c([H])c(OC([H])([H])[H])c([H])c2[H])c([H])c1[H])C([H])(C([H])([H])[H])C([H])([H])[H]


 29 30  0  0  0  0  0  0  0  0999 V2000
   15.9903   25.0150   -2.7639 S   0  0  0  0  0  0  0  0  0  0  0  0
   17.3162   25.2632   -1.9976 O   0  0  0  0  0  0  0  0  0  0  0  0
   16.2003   24.0737   -3.9058 O   0  0  0  0  0  0  0  0  0  0  0  0
   13.4964   22.8182    0.3764 C   0  0  0  0  0  0  0  0  0  0  0  0
   14.1616   23.9327    0.6807 C   0  0  0  0  0  0  0  0  0  0  0  0
   14.9071   24.6437   -0.2400 C   0  0  0  0  0  0  0  0  0  0  0  0
   14.9937   24.2455   -1.5137 C   0  0  0  0  0  0  0  0  0  0  0  0
   14.2969   23.0776   -1.8930 C   0  0  0  0  0  0  0  0  0  0  0  0
   13.5909   22.3927   -1.0091 C   0  0  0  0  0  0  0  0  0  0  0  0
   10.9171   20.8499    2.9990 C   0  0  0  0  0  0  0  0  0  0  0  0
   10.5852   22.1019    2.4661 C   0  0  0  0  0  0  0  0  0  0  0  0
   11.3553   22.7113    1.5248 C   0  0  0  0  0  0  0  0  0  0  0  0
   12.5220   22.0760    1.0838 C   0  0  0  0  0  0  0  0  0  0  0  0
   12.8576   20.8548    1.5839 C   0  0  0  0  0  0  0  0  0  0  0  0
   12.0353   20.2421    2.5582 C   0  0  0  0  0  0  0  0  0  0  0  0
    8.8942   20.9299    4.4073 C   0  0  0  0  0  0  0  0  0  0  0  0
   10.0764   20.3159    3.9442 O   0  0  0  0  0  0  0  0  0  0  0  0
   15.3364   26.4831   -3.3174 N   0  0  0  0  0  0  0  0  0  0  0  0
   15.4086   27.2612   -2.6960 H   0  0  0  0  0  0  0  0  0  0  0  0
   14.2967   26.3151   -4.2061 C   0  0  0  0  0  0  0  0  0  0  0  0
   12.9598   26.7431   -3.8563 C   0  0  0  0  0  0  0  0  0  0  0  0
   12.3154   27.6453   -4.4101 O   0  0  0  0  0  0  0  0  0  0  0  0
   12.4722   25.9943   -2.7635 N   0  0  0  0  0  0  0  0  0  0  0  0
   12.0323   25.3432   -1.8021 O   0  0  0  0  0  0  0  0  0  0  0  0
   11.6635   27.0422   -2.3886 H   0  0  0  0  0  0  0  0  0  0  0  0
   12.6029   24.5092   -1.5947 H   0  0  0  0  0  0  0  0  0  0  0  0
   14.7386   26.6693   -5.6331 C   0  0  0  0  0  0  0  0  0  0  0  0
   15.4388   25.6227   -6.3724 C   0  0  0  0  0  0  0  0  0  0  0  0
   15.9710   27.6808   -5.3833 C   0  0  0  0  0  0  0  0  0  0  0  0
 16 17  1  0  0  0
 17 10  1  0  0  0
 10 11  2  0  0  0
 11 12  1  0  0  0
 12 13  2  0  0  0
 13 14  1  0  0  0
 14 15  2  0  0  0
 13  4  1  0  0  0
  4  5  2  0  0  0
  5  6  1  0  0  0
  6  7  2  0  0  0
  7  8  1  0  0  0
  8  9  2  0  0  0
  7  1  1  0  0  0
  1  2  2  0  0  0
  1  3  2  0  0  0
  1 18  1  0  0  0
 18 20  1  0  0  0
 20 27  1  0  0  0
 27 28  1  0  0  0
 27 29  1  0  0  0
 20 21  1  0  0  0
 21 22  2  0  0  0
 21 23  1  0  0  0
 23 24  1  0  0  0
 15 10  1  0  0  0
  9  4  1  0  0  0
 18 19  1  0  0  0
 23 25  1  0  0  0
 24 26  1  0  0  0
M  END
> <minimizedAffinity>
-8.16000

> <CNNscore>
0.2057820559

> <CNNaffinity>
6.1957321167

> <CNN_VS>
1.2749705315

> <CNNaffinity_variance>
0.1631900817

$$$$
[H]c1c([H])c(N([H])C(=O)N([H])c2c([H])c([H])c(-c3nc(N4C([H])([H])C([H])([H])OC([H])([H])[C@@]4([H])C([H])([H])[H])nc(C4([H])C([H])([H])C([H])([H])OC([H])([H])C4([H])[H])n3)c([H])c2[H])c([H])c([H])c1OC(F)(F)F


 42 46  0  0  0  0  0  0  0  0999 V2000
   10.9969   22.9575   -0.2303 C   0  0  0  0  0  0  0  0  0  0  0  0
   10.8500   24.3245   -0.3030 C   0  0  0  0  0  0  0  0  0  0  0  0
   11.6546   25.0535   -1.1723 C   0  0  0  0  0  0  0  0  0  0  0  0
   12.5863   24.4894   -1.9647 C   0  0  0  0  0  0  0  0  0  0  0  0
   12.7422   23.0757   -1.8809 C   0  0  0  0  0  0  0  0  0  0  0  0
   11.9534   22.3518   -1.0264 C   0  0  0  0  0  0  0  0  0  0  0  0
    8.0344   21.0168    0.7937 C   0  0  0  0  0  0  0  0  0  0  0  0
    8.4240   20.6660    2.0390 N   0  0  0  0  0  0  0  0  0  0  0  0
    9.5842   21.0392    2.5875 C   0  0  0  0  0  0  0  0  0  0  0  0
   10.4087   21.8139    1.8488 N   0  0  0  0  0  0  0  0  0  0  0  0
   10.0728   22.1969    0.5887 C   0  0  0  0  0  0  0  0  0  0  0  0
    8.8949   21.7813    0.1113 N   0  0  0  0  0  0  0  0  0  0  0  0
    7.8750   19.2577   -1.5226 C   0  0  0  0  0  0  0  0  0  0  0  0
    6.6055   19.7253   -0.8682 C   0  0  0  0  0  0  0  0  0  0  0  0
    5.6120   20.3182   -1.8134 C   0  0  0  0  0  0  0  0  0  0  0  0
    4.4420   20.5947   -1.1045 O   0  0  0  0  0  0  0  0  0  0  0  0
    4.6544   21.5647   -0.1292 C   0  0  0  0  0  0  0  0  0  0  0  0
    5.5988   21.0642    0.9356 C   0  0  0  0  0  0  0  0  0  0  0  0
    6.7962   20.5872    0.2706 N   0  0  0  0  0  0  0  0  0  0  0  0
   10.0718   20.6058    3.9085 C   0  0  0  0  0  0  0  0  0  0  0  0
   10.9595   19.3837    3.6366 C   0  0  0  0  0  0  0  0  0  0  0  0
   11.3890   18.8003    4.9530 C   0  0  0  0  0  0  0  0  0  0  0  0
   10.2445   18.3557    5.6403 O   0  0  0  0  0  0  0  0  0  0  0  0
    9.5009   19.4719    6.0393 C   0  0  0  0  0  0  0  0  0  0  0  0
    8.9421   20.1531    4.7879 C   0  0  0  0  0  0  0  0  0  0  0  0
   13.2899   25.2391   -2.8798 N   0  0  0  0  0  0  0  0  0  0  0  0
   13.9579   25.9502   -3.7550 C   0  0  0  0  0  0  0  0  0  0  0  0
   13.9224   25.7583   -5.0550 O   0  0  0  0  0  0  0  0  0  0  0  0
   14.8241   27.0671   -3.4411 N   0  0  0  0  0  0  0  0  0  0  0  0
   12.5542   24.6719   -3.8995 H   0  0  0  0  0  0  0  0  0  0  0  0
   15.0295   27.3353   -2.4875 H   0  0  0  0  0  0  0  0  0  0  0  0
   15.3929   27.8011   -4.5191 C   0  0  0  0  0  0  0  0  0  0  0  0
   15.5627   29.1457   -4.5412 C   0  0  0  0  0  0  0  0  0  0  0  0
   16.0832   29.7557   -5.6687 C   0  0  0  0  0  0  0  0  0  0  0  0
   16.4462   29.0473   -6.7933 C   0  0  0  0  0  0  0  0  0  0  0  0
   16.2675   27.6739   -6.7602 C   0  0  0  0  0  0  0  0  0  0  0  0
   15.7522   27.0653   -5.6490 C   0  0  0  0  0  0  0  0  0  0  0  0
   16.9602   29.6293   -7.9210 O   0  0  0  0  0  0  0  0  0  0  0  0
   17.1593   28.9824   -9.1333 C   0  0  0  0  0  0  0  0  0  0  0  0
   16.0928   29.3005   -9.9745 F   0  0  0  0  0  0  0  0  0  0  0  0
   17.2159   27.6203   -9.0258 F   0  0  0  0  0  0  0  0  0  0  0  0
   18.3174   29.4516   -9.7391 F   0  0  0  0  0  0  0  0  0  0  0  0
 13 14  1  0  0  0
 14 15  1  0  0  0
 15 16  1  0  0  0
 16 17  1  0  0  0
 17 18  1  0  0  0
 18 19  1  0  0  0
 19  7  1  0  0  0
  7  8  2  0  0  0
  8  9  1  0  0  0
  9 10  2  0  0  0
 10 11  1  0  0  0
 11 12  2  0  0  0
 11  1  1  0  0  0
  1  2  2  0  0  0
  2  3  1  0  0  0
  3  4  2  0  0  0
  4 26  1  0  0  0
 26 27  1  0  0  0
 27 28  2  0  0  0
 27 29  1  0  0  0
 29 32  1  0  0  0
 32 33  2  0  0  0
 33 34  1  0  0  0
 34 35  2  0  0  0
 35 38  1  0  0  0
 38 39  1  0  0  0
 39 40  1  0  0  0
 39 41  1  0  0  0
 39 42  1  0  0  0
 35 36  1  0  0  0
 36 37  2  0  0  0
  4  5  1  0  0  0
  5  6  2  0  0  0
  9 20  1  0  0  0
 20 21  1  0  0  0
 21 22  1  0  0  0
 22 23  1  0  0  0
 23 24  1  0  0  0
 24 25  1  0  0  0
 19 14  1  0  0  0
 12  7  1  0  0  0
  6  1  1  0  0  0
 25 20  1  0  0  0
 37 32  1  0  0  0
 26 30  1  0  0  0
 29 31  1  0  0  0
M  END
> <minimizedAffinity>
13.08932

> <CNNscore>
0.3803066015

> <CNNaffinity>
6.8069167137

> <CNN_VS>
2.5887153149

> <CNNaffinity_variance>
1.1551634073

$$$$
[H]c1c([H])c(N([H])C(=O)N([H])c2c([H])c([H])c(-c3nc(N4C([H])([H])C([H])([H])OC([H])([H])[C@@]4([H])C([H])([H])[H])nc(C4([H])C([H])([H])C([H])([H])OC([H])([H])C4([H])[H])n3)c([H])c2[H])c([H])c([H])c1OC(F)(F)F


 42 46  0  0  0  0  0  0  0  0999 V2000
   12.8552   24.2536   -0.8091 C   0  0  0  0  0  0  0  0  0  0  0  0
   12.9524   23.4996    0.3388 C   0  0  0  0  0  0  0  0  0  0  0  0
   11.8174   22.8749    0.8448 C   0  0  0  0  0  0  0  0  0  0  0  0
   10.6049   22.9640    0.2652 C   0  0  0  0  0  0  0  0  0  0  0  0
   10.5055   23.7521   -0.9176 C   0  0  0  0  0  0  0  0  0  0  0  0
   11.6193   24.3705   -1.4210 C   0  0  0  0  0  0  0  0  0  0  0  0
   15.1076   26.0947   -3.0736 C   0  0  0  0  0  0  0  0  0  0  0  0
   16.2683   25.9395   -2.3993 N   0  0  0  0  0  0  0  0  0  0  0  0
   16.3793   25.2503   -1.2597 C   0  0  0  0  0  0  0  0  0  0  0  0
   15.2625   24.6765   -0.7604 N   0  0  0  0  0  0  0  0  0  0  0  0
   14.0655   24.7998   -1.3923 C   0  0  0  0  0  0  0  0  0  0  0  0
   14.0372   25.5062   -2.5274 N   0  0  0  0  0  0  0  0  0  0  0  0
   12.5777   26.8050   -4.3306 C   0  0  0  0  0  0  0  0  0  0  0  0
   13.8642   27.2366   -4.9766 C   0  0  0  0  0  0  0  0  0  0  0  0
   13.9696   26.8858   -6.4250 C   0  0  0  0  0  0  0  0  0  0  0  0
   15.1446   27.4463   -6.9282 O   0  0  0  0  0  0  0  0  0  0  0  0
   16.2713   26.8927   -6.3271 C   0  0  0  0  0  0  0  0  0  0  0  0
   16.3230   27.2321   -4.8579 C   0  0  0  0  0  0  0  0  0  0  0  0
   15.0562   26.8378   -4.2721 N   0  0  0  0  0  0  0  0  0  0  0  0
   17.6114   25.1329   -0.4605 C   0  0  0  0  0  0  0  0  0  0  0  0
   18.1940   23.7558   -0.8060 C   0  0  0  0  0  0  0  0  0  0  0  0
   19.3862   23.5048    0.0736 C   0  0  0  0  0  0  0  0  0  0  0  0
   18.9543   23.4652    1.4122 O   0  0  0  0  0  0  0  0  0  0  0  0
   18.5691   24.7544    1.7959 C   0  0  0  0  0  0  0  0  0  0  0  0
   17.3124   25.1374    1.0109 C   0  0  0  0  0  0  0  0  0  0  0  0
    9.5323   22.2484    0.7468 N   0  0  0  0  0  0  0  0  0  0  0  0
    8.5122   21.5630    1.2024 C   0  0  0  0  0  0  0  0  0  0  0  0
    8.2143   20.3363    0.8357 O   0  0  0  0  0  0  0  0  0  0  0  0
    7.5624   22.0309    2.1900 N   0  0  0  0  0  0  0  0  0  0  0  0
   10.0466   21.1046    0.1724 H   0  0  0  0  0  0  0  0  0  0  0  0
    7.5870   22.9749    2.5529 H   0  0  0  0  0  0  0  0  0  0  0  0
    6.5729   21.1209    2.6558 C   0  0  0  0  0  0  0  0  0  0  0  0
    6.4212   20.7286    3.9444 C   0  0  0  0  0  0  0  0  0  0  0  0
    5.4513   19.7975    4.2711 C   0  0  0  0  0  0  0  0  0  0  0  0
    4.6138   19.2391    3.3304 C   0  0  0  0  0  0  0  0  0  0  0  0
    4.7783   19.6464    2.0166 C   0  0  0  0  0  0  0  0  0  0  0  0
    5.7360   20.5655    1.6872 C   0  0  0  0  0  0  0  0  0  0  0  0
    3.6496   18.3143    3.6298 O   0  0  0  0  0  0  0  0  0  0  0  0
    3.7986   16.9389    3.5115 C   0  0  0  0  0  0  0  0  0  0  0  0
    3.2008   16.5396    2.3158 F   0  0  0  0  0  0  0  0  0  0  0  0
    3.2145   16.2340    4.5274 F   0  0  0  0  0  0  0  0  0  0  0  0
    5.1455   16.6109    3.4296 F   0  0  0  0  0  0  0  0  0  0  0  0
 13 14  1  0  0  0
 14 15  1  0  0  0
 15 16  1  0  0  0
 16 17  1  0  0  0
 17 18  1  0  0  0
 18 19  1  0  0  0
 19  7  1  0  0  0
  7  8  2  0  0  0
  8  9  1  0  0  0
  9 10  2  0  0  0
 10 11  1  0  0  0
 11 12  2  0  0  0
 11  1  1  0  0  0
  1  2  2  0  0  0
  2  3  1  0  0  0
  3  4  2  0  0  0
  4 26  1  0  0  0
 26 27  1  0  0  0
 27 28  2  0  0  0
 27 29  1  0  0  0
 29 32  1  0  0  0
 32 33  2  0  0  0
 33 34  1  0  0  0
 34 35  2  0  0  0
 35 38  1  0  0  0
 38 39  1  0  0  0
 39 40  1  0  0  0
 39 41  1  0  0  0
 39 42  1  0  0  0
 35 36  1  0  0  0
 36 37  2  0  0  0
  4  5  1  0  0  0
  5  6  2  0  0  0
  9 20  1  0  0  0
 20 21  1  0  0  0
 21 22  1  0  0  0
 22 23  1  0  0  0
 23 24  1  0  0  0
 24 25  1  0  0  0
 19 14  1  0  0  0
 12  7  1  0  0  0
  6  1  1  0  0  0
 25 20  1  0  0  0
 37 32  1  0  0  0
 26 30  1  0  0  0
 29 31  1  0  0  0
M  END
> <minimizedAffinity>
5.98306

> <CNNscore>
0.3707636297

> <CNNaffinity>
7.2084555626

> <CNN_VS>
2.6726331711

> <CNNaffinity_variance>
0.5955767632

$$$$
[H]c1c([H])c(N([H])C(=O)N([H])c2c([H])c([H])c(-c3nc(N4C([H])([H])C([H])([H])OC([H])([H])[C@@]4([H])C([H])([H])[H])nc(C4([H])C([H])([H])C([H])([H])OC([H])([H])C4([H])[H])n3)c([H])c2[H])c([H])c([H])c1OC(F)(F)F


 42 46  0  0  0  0  0  0  0  0999 V2000
   10.8193   24.1755    0.9029 C   0  0  0  0  0  0  0  0  0  0  0  0
   12.1286   24.5722    1.0569 C   0  0  0  0  0  0  0  0  0  0  0  0
   12.8537   24.9842   -0.0562 C   0  0  0  0  0  0  0  0  0  0  0  0
   12.3395   25.0207   -1.3005 C   0  0  0  0  0  0  0  0  0  0  0  0
   10.9870   24.6011   -1.4582 C   0  0  0  0  0  0  0  0  0  0  0  0
   10.2674   24.1937   -0.3662 C   0  0  0  0  0  0  0  0  0  0  0  0
    8.3502   24.4689    3.6249 C   0  0  0  0  0  0  0  0  0  0  0  0
    8.4861   23.2422    4.1749 N   0  0  0  0  0  0  0  0  0  0  0  0
    9.3505   22.3224    3.7357 C   0  0  0  0  0  0  0  0  0  0  0  0
   10.1318   22.6460    2.6819 N   0  0  0  0  0  0  0  0  0  0  0  0
   10.0389   23.8635    2.0849 C   0  0  0  0  0  0  0  0  0  0  0  0
    9.1488   24.7283    2.5831 N   0  0  0  0  0  0  0  0  0  0  0  0
    9.1165   27.1883    4.3339 C   0  0  0  0  0  0  0  0  0  0  0  0
    7.6889   26.7567    4.5193 C   0  0  0  0  0  0  0  0  0  0  0  0
    7.1359   27.0380    5.8784 C   0  0  0  0  0  0  0  0  0  0  0  0
    5.7804   26.7059    5.8784 O   0  0  0  0  0  0  0  0  0  0  0  0
    5.5898   25.3425    5.6727 C   0  0  0  0  0  0  0  0  0  0  0  0
    6.0504   24.9333    4.2955 C   0  0  0  0  0  0  0  0  0  0  0  0
    7.4157   25.3953    4.1345 N   0  0  0  0  0  0  0  0  0  0  0  0
    9.4634   20.9507    4.2613 C   0  0  0  0  0  0  0  0  0  0  0  0
    9.8466   21.1086    5.7390 C   0  0  0  0  0  0  0  0  0  0  0  0
   10.1125   19.7460    6.3141 C   0  0  0  0  0  0  0  0  0  0  0  0
   11.2137   19.1839    5.6422 O   0  0  0  0  0  0  0  0  0  0  0  0
   10.8308   18.8825    4.3305 C   0  0  0  0  0  0  0  0  0  0  0  0
   10.5732   20.1958    3.5882 C   0  0  0  0  0  0  0  0  0  0  0  0
   13.0640   25.5289   -2.3547 N   0  0  0  0  0  0  0  0  0  0  0  0
   13.7559   26.0165   -3.3555 C   0  0  0  0  0  0  0  0  0  0  0  0
   14.5474   27.0629   -3.2753 O   0  0  0  0  0  0  0  0  0  0  0  0
   13.7782   25.4784   -4.6995 N   0  0  0  0  0  0  0  0  0  0  0  0
   13.7744   26.3199   -1.4759 H   0  0  0  0  0  0  0  0  0  0  0  0
   13.1873   24.7060   -4.9780 H   0  0  0  0  0  0  0  0  0  0  0  0
   14.6668   26.0639   -5.6439 C   0  0  0  0  0  0  0  0  0  0  0  0
   15.3603   25.3809   -6.5873 C   0  0  0  0  0  0  0  0  0  0  0  0
   16.2354   26.0543   -7.4210 C   0  0  0  0  0  0  0  0  0  0  0  0
   16.4392   27.4144   -7.3378 C   0  0  0  0  0  0  0  0  0  0  0  0
   15.7261   28.1022   -6.3695 C   0  0  0  0  0  0  0  0  0  0  0  0
   14.8605   27.4419   -5.5415 C   0  0  0  0  0  0  0  0  0  0  0  0
   17.3017   28.1012   -8.1495 O   0  0  0  0  0  0  0  0  0  0  0  0
   17.1089   29.3997   -8.6019 C   0  0  0  0  0  0  0  0  0  0  0  0
   18.2782   29.8142   -9.2402 F   0  0  0  0  0  0  0  0  0  0  0  0
   16.8372   30.2941   -7.6038 F   0  0  0  0  0  0  0  0  0  0  0  0
   16.0905   29.4292   -9.5456 F   0  0  0  0  0  0  0  0  0  0  0  0
 13 14  1  0  0  0
 14 15  1  0  0  0
 15 16  1  0  0  0
 16 17  1  0  0  0
 17 18  1  0  0  0
 18 19  1  0  0  0
 19  7  1  0  0  0
  7  8  2  0  0  0
  8  9  1  0  0  0
  9 10  2  0  0  0
 10 11  1  0  0  0
 11 12  2  0  0  0
 11  1  1  0  0  0
  1  2  2  0  0  0
  2  3  1  0  0  0
  3  4  2  0  0  0
  4 26  1  0  0  0
 26 27  1  0  0  0
 27 28  2  0  0  0
 27 29  1  0  0  0
 29 32  1  0  0  0
 32 33  2  0  0  0
 33 34  1  0  0  0
 34 35  2  0  0  0
 35 38  1  0  0  0
 38 39  1  0  0  0
 39 40  1  0  0  0
 39 41  1  0  0  0
 39 42  1  0  0  0
 35 36  1  0  0  0
 36 37  2  0  0  0
  4  5  1  0  0  0
  5  6  2  0  0  0
  9 20  1  0  0  0
 20 21  1  0  0  0
 21 22  1  0  0  0
 22 23  1  0  0  0
 23 24  1  0  0  0
 24 25  1  0  0  0
 19 14  1  0  0  0
 12  7  1  0  0  0
  6  1  1  0  0  0
 25 20  1  0  0  0
 37 32  1  0  0  0
 26 30  1  0  0  0
 29 31  1  0  0  0
M  END
> <minimizedAffinity>
7.76033

> <CNNscore>
0.3575828075

> <CNNaffinity>
6.5413298607

> <CNN_VS>
2.3390669823

> <CNNaffinity_variance>
0.0622278377

$$$$
[H]c1c([H])c(N([H])C(=O)N([H])c2c([H])c([H])c(-c3nc(N4C([H])([H])C([H])([H])OC([H])([H])[C@@]4([H])C([H])([H])[H])nc(C4([H])C([H])([H])C([H])([H])OC([H])([H])C4([H])[H])n3)c([H])c2[H])c([H])c([H])c1OC(F)(F)F


 42 46  0  0  0  0  0  0  0  0999 V2000
   14.2250   25.6350   -2.4941 C   0  0  0  0  0  0  0  0  0  0  0  0
   13.4219   24.5660   -2.8225 C   0  0  0  0  0  0  0  0  0  0  0  0
   13.0315   23.6735   -1.8298 C   0  0  0  0  0  0  0  0  0  0  0  0
   13.3982   23.7971   -0.5397 C   0  0  0  0  0  0  0  0  0  0  0  0
   14.2366   24.8993   -0.2043 C   0  0  0  0  0  0  0  0  0  0  0  0
   14.6252   25.7817   -1.1773 C   0  0  0  0  0  0  0  0  0  0  0  0
   15.2647   27.1282   -5.7005 C   0  0  0  0  0  0  0  0  0  0  0  0
   14.9458   28.4178   -5.4534 N   0  0  0  0  0  0  0  0  0  0  0  0
   14.4334   28.8481   -4.2965 C   0  0  0  0  0  0  0  0  0  0  0  0
   14.2273   27.9353   -3.3217 N   0  0  0  0  0  0  0  0  0  0  0  0
   14.5259   26.6231   -3.5121 C   0  0  0  0  0  0  0  0  0  0  0  0
   15.0346   26.2722   -4.6980 N   0  0  0  0  0  0  0  0  0  0  0  0
   13.6247   25.8585   -7.7459 C   0  0  0  0  0  0  0  0  0  0  0  0
   15.0824   26.1003   -8.0203 C   0  0  0  0  0  0  0  0  0  0  0  0
   15.8222   24.8957   -8.5038 C   0  0  0  0  0  0  0  0  0  0  0  0
   17.1214   25.2824   -8.8360 O   0  0  0  0  0  0  0  0  0  0  0  0
   17.8221   25.7273   -7.7187 C   0  0  0  0  0  0  0  0  0  0  0  0
   17.2118   26.9911   -7.1648 C   0  0  0  0  0  0  0  0  0  0  0  0
   15.8008   26.7370   -6.9458 N   0  0  0  0  0  0  0  0  0  0  0  0
   14.0001   30.2302   -4.0270 C   0  0  0  0  0  0  0  0  0  0  0  0
   12.5519   30.1162   -3.5321 C   0  0  0  0  0  0  0  0  0  0  0  0
   11.9924   31.5005   -3.3625 C   0  0  0  0  0  0  0  0  0  0  0  0
   11.9684   32.1307   -4.6204 O   0  0  0  0  0  0  0  0  0  0  0  0
   13.2854   32.3896   -5.0159 C   0  0  0  0  0  0  0  0  0  0  0  0
   13.9818   31.0532   -5.2828 C   0  0  0  0  0  0  0  0  0  0  0  0
   12.9069   22.9459    0.4239 N   0  0  0  0  0  0  0  0  0  0  0  0
   12.4406   22.1386    1.3452 C   0  0  0  0  0  0  0  0  0  0  0  0
   12.5169   22.3598    2.6387 O   0  0  0  0  0  0  0  0  0  0  0  0
   11.7538   20.8889    1.0944 N   0  0  0  0  0  0  0  0  0  0  0  0
   13.0868   23.9294    1.3742 H   0  0  0  0  0  0  0  0  0  0  0  0
   11.6473   20.5131    0.1612 H   0  0  0  0  0  0  0  0  0  0  0  0
   11.2155   20.1823    2.2058 C   0  0  0  0  0  0  0  0  0  0  0  0
   11.8893   19.2707    2.9489 C   0  0  0  0  0  0  0  0  0  0  0  0
   11.2440   18.6091    3.9786 C   0  0  0  0  0  0  0  0  0  0  0  0
    9.9221   18.8380    4.2925 C   0  0  0  0  0  0  0  0  0  0  0  0
    9.2429   19.7708    3.5260 C   0  0  0  0  0  0  0  0  0  0  0  0
    9.8750   20.4272    2.5061 C   0  0  0  0  0  0  0  0  0  0  0  0
    9.2623   18.1934    5.3043 O   0  0  0  0  0  0  0  0  0  0  0  0
    9.1999   18.6291    6.6213 C   0  0  0  0  0  0  0  0  0  0  0  0
    8.8584   19.9817    6.6144 F   0  0  0  0  0  0  0  0  0  0  0  0
   10.3804   18.4987    7.2991 F   0  0  0  0  0  0  0  0  0  0  0  0
    8.1946   17.9526    7.2997 F   0  0  0  0  0  0  0  0  0  0  0  0
 13 14  1  0  0  0
 14 15  1  0  0  0
 15 16  1  0  0  0
 16 17  1  0  0  0
 17 18  1  0  0  0
 18 19  1  0  0  0
 19  7  1  0  0  0
  7  8  2  0  0  0
  8  9  1  0  0  0
  9 10  2  0  0  0
 10 11  1  0  0  0
 11 12  2  0  0  0
 11  1  1  0  0  0
  1  2  2  0  0  0
  2  3  1  0  0  0
  3  4  2  0  0  0
  4 26  1  0  0  0
 26 27  1  0  0  0
 27 28  2  0  0  0
 27 29  1  0  0  0
 29 32  1  0  0  0
 32 33  2  0  0  0
 33 34  1  0  0  0
 34 35  2  0  0  0
 35 38  1  0  0  0
 38 39  1  0  0  0
 39 40  1  0  0  0
 39 41  1  0  0  0
 39 42  1  0  0  0
 35 36  1  0  0  0
 36 37  2  0  0  0
  4  5  1  0  0  0
  5  6  2  0  0  0
  9 20  1  0  0  0
 20 21  1  0  0  0
 21 22  1  0  0  0
 22 23  1  0  0  0
 23 24  1  0  0  0
 24 25  1  0  0  0
 19 14  1  0  0  0
 12  7  1  0  0  0
  6  1  1  0  0  0
 25 20  1  0  0  0
 37 32  1  0  0  0
 26 30  1  0  0  0
 29 31  1  0  0  0
M  END
> <minimizedAffinity>
31.31493

> <CNNscore>
0.3523448408

> <CNNaffinity>
6.7518477440

> <CNN_VS>
2.3789787292

> <CNNaffinity_variance>
0.5256918669

$$$$
[H]c1c([H])c(N([H])C(=O)N([H])c2c([H])c([H])c(-c3nc(N4C([H])([H])C([H])([H])OC([H])([H])[C@@]4([H])C([H])([H])[H])nc(C4([H])C([H])([H])C([H])([H])OC([H])([H])C4([H])[H])n3)c([H])c2[H])c([H])c([H])c1OC(F)(F)F


 42 46  0  0  0  0  0  0  0  0999 V2000
   12.6181   23.9737   -1.1576 C   0  0  0  0  0  0  0  0  0  0  0  0
   12.6809   23.0314   -0.1558 C   0  0  0  0  0  0  0  0  0  0  0  0
   11.5352   22.3220    0.1886 C   0  0  0  0  0  0  0  0  0  0  0  0
   10.3445   22.5046   -0.4138 C   0  0  0  0  0  0  0  0  0  0  0  0
   10.2804   23.4866   -1.4441 C   0  0  0  0  0  0  0  0  0  0  0  0
   11.4049   24.1892   -1.7879 C   0  0  0  0  0  0  0  0  0  0  0  0
   14.9653   26.0460   -3.1038 C   0  0  0  0  0  0  0  0  0  0  0  0
   16.0566   25.9382   -2.3143 N   0  0  0  0  0  0  0  0  0  0  0  0
   16.0940   25.2117   -1.1932 C   0  0  0  0  0  0  0  0  0  0  0  0
   14.9726   24.5477   -0.8364 N   0  0  0  0  0  0  0  0  0  0  0  0
   13.8430   24.6196   -1.5887 C   0  0  0  0  0  0  0  0  0  0  0  0
   13.8860   25.3684   -2.6959 N   0  0  0  0  0  0  0  0  0  0  0  0
   12.5169   26.9900   -4.3684 C   0  0  0  0  0  0  0  0  0  0  0  0
   13.8426   27.3450   -4.9809 C   0  0  0  0  0  0  0  0  0  0  0  0
   13.9448   27.0383   -6.4395 C   0  0  0  0  0  0  0  0  0  0  0  0
   15.1667   27.5252   -6.9061 O   0  0  0  0  0  0  0  0  0  0  0  0
   16.2386   26.8669   -6.3102 C   0  0  0  0  0  0  0  0  0  0  0  0
   16.2918   27.1496   -4.8291 C   0  0  0  0  0  0  0  0  0  0  0  0
   14.9895   26.8324   -4.2752 N   0  0  0  0  0  0  0  0  0  0  0  0
   17.2405   25.1411   -0.2706 C   0  0  0  0  0  0  0  0  0  0  0  0
   18.3196   24.3465   -1.0185 C   0  0  0  0  0  0  0  0  0  0  0  0
   19.4767   24.1155   -0.0880 C   0  0  0  0  0  0  0  0  0  0  0  0
   19.0333   23.3282    0.9907 O   0  0  0  0  0  0  0  0  0  0  0  0
   18.1682   24.0957    1.7784 C   0  0  0  0  0  0  0  0  0  0  0  0
   16.8969   24.3717    0.9722 C   0  0  0  0  0  0  0  0  0  0  0  0
    9.2630   21.7104   -0.1068 N   0  0  0  0  0  0  0  0  0  0  0  0
    8.2356   20.9501    0.1833 C   0  0  0  0  0  0  0  0  0  0  0  0
    8.1471   19.6719   -0.1105 O   0  0  0  0  0  0  0  0  0  0  0  0
    7.0454   21.3821    0.8855 N   0  0  0  0  0  0  0  0  0  0  0  0
   10.0010   20.5917   -0.4332 H   0  0  0  0  0  0  0  0  0  0  0  0
    6.8968   22.3485    1.1452 H   0  0  0  0  0  0  0  0  0  0  0  0
    6.0665   20.4037    1.2155 C   0  0  0  0  0  0  0  0  0  0  0  0
    5.4106   20.3274    2.3992 C   0  0  0  0  0  0  0  0  0  0  0  0
    4.5129   19.2988    2.6241 C   0  0  0  0  0  0  0  0  0  0  0  0
    4.2469   18.3288    1.6825 C   0  0  0  0  0  0  0  0  0  0  0  0
    4.9235   18.4159    0.4768 C   0  0  0  0  0  0  0  0  0  0  0  0
    5.8130   19.4296    0.2491 C   0  0  0  0  0  0  0  0  0  0  0  0
    3.3655   17.3006    1.8838 O   0  0  0  0  0  0  0  0  0  0  0  0
    3.6974   15.9523    1.8790 C   0  0  0  0  0  0  0  0  0  0  0  0
    3.1856   15.3843    0.7121 F   0  0  0  0  0  0  0  0  0  0  0  0
    3.1879   15.2578    2.9412 F   0  0  0  0  0  0  0  0  0  0  0  0
    5.0773   15.8015    1.8410 F   0  0  0  0  0  0  0  0  0  0  0  0
 13 14  1  0  0  0
 14 15  1  0  0  0
 15 16  1  0  0  0
 16 17  1  0  0  0
 17 18  1  0  0  0
 18 19  1  0  0  0
 19  7  1  0  0  0
  7  8  2  0  0  0
  8  9  1  0  0  0
  9 10  2  0  0  0
 10 11  1  0  0  0
 11 12  2  0  0  0
 11  1  1  0  0  0
  1  2  2  0  0  0
  2  3  1  0  0  0
  3  4  2  0  0  0
  4 26  1  0  0  0
 26 27  1  0  0  0
 27 28  2  0  0  0
 27 29  1  0  0  0
 29 32  1  0  0  0
 32 33  2  0  0  0
 33 34  1  0  0  0
 34 35  2  0  0  0
 35 38  1  0  0  0
 38 39  1  0  0  0
 39 40  1  0  0  0
 39 41  1  0  0  0
 39 42  1  0  0  0
 35 36  1  0  0  0
 36 37  2  0  0  0
  4  5  1  0  0  0
  5  6  2  0  0  0
  9 20  1  0  0  0
 20 21  1  0  0  0
 21 22  1  0  0  0
 22 23  1  0  0  0
 23 24  1  0  0  0
 24 25  1  0  0  0
 19 14  1  0  0  0
 12  7  1  0  0  0
  6  1  1  0  0  0
 25 20  1  0  0  0
 37 32  1  0  0  0
 26 30  1  0  0  0
 29 31  1  0  0  0
M  END
> <minimizedAffinity>
4.28358

> <CNNscore>
0.3399768472

> <CNNaffinity>
6.9874429703

> <CNN_VS>
2.3755688667

> <CNNaffinity_variance>
0.4587960839

$$$$
[H]c1c([H])c(N([H])C(=O)N([H])c2c([H])c([H])c(-c3nc(N4C([H])([H])C([H])([H])OC([H])([H])[C@@]4([H])C([H])([H])[H])nc(C4([H])C([H])([H])C([H])([H])OC([H])([H])C4([H])[H])n3)c([H])c2[H])c([H])c([H])c1OC(F)(F)F


 42 46  0  0  0  0  0  0  0  0999 V2000
   13.6497   23.9806   -0.3379 C   0  0  0  0  0  0  0  0  0  0  0  0
   13.6048   23.3086    0.8630 C   0  0  0  0  0  0  0  0  0  0  0  0
   12.3910   22.8072    1.3211 C   0  0  0  0  0  0  0  0  0  0  0  0
   11.2341   22.9412    0.6446 C   0  0  0  0  0  0  0  0  0  0  0  0
   11.2820   23.6448   -0.5934 C   0  0  0  0  0  0  0  0  0  0  0  0
   12.4740   24.1415   -1.0501 C   0  0  0  0  0  0  0  0  0  0  0  0
   17.2936   24.4351   -0.6651 C   0  0  0  0  0  0  0  0  0  0  0  0
   17.3318   25.0134   -1.8858 N   0  0  0  0  0  0  0  0  0  0  0  0
   16.2441   25.2929   -2.6101 C   0  0  0  0  0  0  0  0  0  0  0  0
   15.0400   24.9782   -2.0838 N   0  0  0  0  0  0  0  0  0  0  0  0
   14.9379   24.3926   -0.8615 C   0  0  0  0  0  0  0  0  0  0  0  0
   16.0732   24.1445   -0.1998 N   0  0  0  0  0  0  0  0  0  0  0  0
   17.2482   23.6074    2.1273 C   0  0  0  0  0  0  0  0  0  0  0  0
   18.5700   23.7540    1.4273 C   0  0  0  0  0  0  0  0  0  0  0  0
   19.5608   24.5980    2.1609 C   0  0  0  0  0  0  0  0  0  0  0  0
   20.7733   24.5513    1.4713 O   0  0  0  0  0  0  0  0  0  0  0  0
   20.6622   25.1206    0.2061 C   0  0  0  0  0  0  0  0  0  0  0  0
   19.7310   24.3182   -0.6688 C   0  0  0  0  0  0  0  0  0  0  0  0
   18.4801   24.1633    0.0487 N   0  0  0  0  0  0  0  0  0  0  0  0
   16.2580   25.8463   -3.9755 C   0  0  0  0  0  0  0  0  0  0  0  0
   16.3442   27.3685   -3.7995 C   0  0  0  0  0  0  0  0  0  0  0  0
   16.2276   28.0150   -5.1509 C   0  0  0  0  0  0  0  0  0  0  0  0
   14.9599   27.7150   -5.6828 O   0  0  0  0  0  0  0  0  0  0  0  0
   14.9198   26.3531   -6.0014 C   0  0  0  0  0  0  0  0  0  0  0  0
   14.9765   25.5501   -4.6997 C   0  0  0  0  0  0  0  0  0  0  0  0
   10.0769   22.3431    1.0895 N   0  0  0  0  0  0  0  0  0  0  0  0
    8.9772   21.7691    1.5124 C   0  0  0  0  0  0  0  0  0  0  0  0
    8.7992   20.4694    1.5968 O   0  0  0  0  0  0  0  0  0  0  0  0
    7.7922   22.4637    1.9702 N   0  0  0  0  0  0  0  0  0  0  0  0
   10.7364   21.1335    1.1566 H   0  0  0  0  0  0  0  0  0  0  0  0
    7.7103   23.4710    1.9265 H   0  0  0  0  0  0  0  0  0  0  0  0
    6.7208   21.6903    2.4980 C   0  0  0  0  0  0  0  0  0  0  0  0
    6.1577   21.8710    3.7176 C   0  0  0  0  0  0  0  0  0  0  0  0
    5.1514   21.0224    4.1440 C   0  0  0  0  0  0  0  0  0  0  0  0
    4.6833   19.9818    3.3719 C   0  0  0  0  0  0  0  0  0  0  0  0
    5.2666   19.8058    2.1277 C   0  0  0  0  0  0  0  0  0  0  0  0
    6.2625   20.6405    1.7012 C   0  0  0  0  0  0  0  0  0  0  0  0
    3.6912   19.1281    3.7739 O   0  0  0  0  0  0  0  0  0  0  0  0
    3.7994   17.7446    3.8215 C   0  0  0  0  0  0  0  0  0  0  0  0
    3.1975   17.2234    2.6759 F   0  0  0  0  0  0  0  0  0  0  0  0
    3.1879   17.1832    4.9082 F   0  0  0  0  0  0  0  0  0  0  0  0
    5.1363   17.3701    3.7926 F   0  0  0  0  0  0  0  0  0  0  0  0
 13 14  1  0  0  0
 14 15  1  0  0  0
 15 16  1  0  0  0
 16 17  1  0  0  0
 17 18  1  0  0  0
 18 19  1  0  0  0
 19  7  1  0  0  0
  7  8  2  0  0  0
  8  9  1  0  0  0
  9 10  2  0  0  0
 10 11  1  0  0  0
 11 12  2  0  0  0
 11  1  1  0  0  0
  1  2  2  0  0  0
  2  3  1  0  0  0
  3  4  2  0  0  0
  4 26  1  0  0  0
 26 27  1  0  0  0
 27 28  2  0  0  0
 27 29  1  0  0  0
 29 32  1  0  0  0
 32 33  2  0  0  0
 33 34  1  0  0  0
 34 35  2  0  0  0
 35 38  1  0  0  0
 38 39  1  0  0  0
 39 40  1  0  0  0
 39 41  1  0  0  0
 39 42  1  0  0  0
 35 36  1  0  0  0
 36 37  2  0  0  0
  4  5  1  0  0  0
  5  6  2  0  0  0
  9 20  1  0  0  0
 20 21  1  0  0  0
 21 22  1  0  0  0
 22 23  1  0  0  0
 23 24  1  0  0  0
 24 25  1  0  0  0
 19 14  1  0  0  0
 12  7  1  0  0  0
  6  1  1  0  0  0
 25 20  1  0  0  0
 37 32  1  0  0  0
 26 30  1  0  0  0
 29 31  1  0  0  0
M  END
> <minimizedAffinity>
11.69115

> <CNNscore>
0.3218656182

> <CNNaffinity>
6.9924659729

> <CNN_VS>
2.2506344318

> <CNNaffinity_variance>
0.2252308428

$$$$
[H]c1c([H])c(N([H])C(=O)N([H])c2c([H])c([H])c(-c3nc(N4C([H])([H])C([H])([H])OC([H])([H])[C@@]4([H])C([H])([H])[H])nc(C4([H])C([H])([H])C([H])([H])OC([H])([H])C4([H])[H])n3)c([H])c2[H])c([H])c([H])c1OC(F)(F)F


 42 46  0  0  0  0  0  0  0  0999 V2000
    9.9398   23.7594    2.2794 C   0  0  0  0  0  0  0  0  0  0  0  0
    9.6517   23.3657    0.9919 C   0  0  0  0  0  0  0  0  0  0  0  0
   10.5099   23.7261   -0.0416 C   0  0  0  0  0  0  0  0  0  0  0  0
   11.6298   24.4502    0.1469 C   0  0  0  0  0  0  0  0  0  0  0  0
   11.9207   24.8637    1.4790 C   0  0  0  0  0  0  0  0  0  0  0  0
   11.0795   24.5127    2.5014 C   0  0  0  0  0  0  0  0  0  0  0  0
    8.6922   21.6807    5.0569 C   0  0  0  0  0  0  0  0  0  0  0  0
    7.6583   22.4525    5.4586 N   0  0  0  0  0  0  0  0  0  0  0  0
    7.3167   23.6026    4.8699 C   0  0  0  0  0  0  0  0  0  0  0  0
    8.0508   24.0094    3.8109 N   0  0  0  0  0  0  0  0  0  0  0  0
    9.1042   23.2771    3.3623 C   0  0  0  0  0  0  0  0  0  0  0  0
    9.3824   22.1384    4.0059 N   0  0  0  0  0  0  0  0  0  0  0  0
   11.3812   20.5613    5.0264 C   0  0  0  0  0  0  0  0  0  0  0  0
   10.2934   19.8362    5.7676 C   0  0  0  0  0  0  0  0  0  0  0  0
   10.1723   18.3893    5.4156 C   0  0  0  0  0  0  0  0  0  0  0  0
    9.2191   17.8113    6.2552 O   0  0  0  0  0  0  0  0  0  0  0  0
    7.9555   18.3545    6.0415 C   0  0  0  0  0  0  0  0  0  0  0  0
    7.9213   19.8132    6.4253 C   0  0  0  0  0  0  0  0  0  0  0  0
    9.0034   20.4766    5.7235 N   0  0  0  0  0  0  0  0  0  0  0  0
    6.2486   24.5045    5.3349 C   0  0  0  0  0  0  0  0  0  0  0  0
    6.8126   25.9230    5.1763 C   0  0  0  0  0  0  0  0  0  0  0  0
    5.8283   26.8985    5.7575 C   0  0  0  0  0  0  0  0  0  0  0  0
    5.7002   26.6383    7.1344 O   0  0  0  0  0  0  0  0  0  0  0  0
    5.0388   25.4163    7.2988 C   0  0  0  0  0  0  0  0  0  0  0  0
    5.9542   24.2990    6.7928 C   0  0  0  0  0  0  0  0  0  0  0  0
   12.4993   24.6984   -0.8909 N   0  0  0  0  0  0  0  0  0  0  0  0
   13.3292   24.9300   -1.8785 C   0  0  0  0  0  0  0  0  0  0  0  0
   14.2398   24.0819   -2.3021 O   0  0  0  0  0  0  0  0  0  0  0  0
   13.3695   26.1400   -2.6727 N   0  0  0  0  0  0  0  0  0  0  0  0
   12.8598   23.3670   -0.8978 H   0  0  0  0  0  0  0  0  0  0  0  0
   12.7847   26.9386   -2.4638 H   0  0  0  0  0  0  0  0  0  0  0  0
   14.2625   26.1890   -3.7793 C   0  0  0  0  0  0  0  0  0  0  0  0
   15.6114   26.2864   -3.6870 C   0  0  0  0  0  0  0  0  0  0  0  0
   16.3755   26.3762   -4.8370 C   0  0  0  0  0  0  0  0  0  0  0  0
   15.8200   26.3697   -6.0979 C   0  0  0  0  0  0  0  0  0  0  0  0
   14.4407   26.2707   -6.1803 C   0  0  0  0  0  0  0  0  0  0  0  0
   13.6799   26.1830   -5.0471 C   0  0  0  0  0  0  0  0  0  0  0  0
   16.5556   26.4604   -7.2491 O   0  0  0  0  0  0  0  0  0  0  0  0
   16.8367   27.6398   -7.9258 C   0  0  0  0  0  0  0  0  0  0  0  0
   18.0005   27.4454   -8.6702 F   0  0  0  0  0  0  0  0  0  0  0  0
   17.0416   28.7108   -7.1005 F   0  0  0  0  0  0  0  0  0  0  0  0
   15.8164   27.9295   -8.8223 F   0  0  0  0  0  0  0  0  0  0  0  0
 13 14  1  0  0  0
 14 15  1  0  0  0
 15 16  1  0  0  0
 16 17  1  0  0  0
 17 18  1  0  0  0
 18 19  1  0  0  0
 19  7  1  0  0  0
  7  8  2  0  0  0
  8  9  1  0  0  0
  9 10  2  0  0  0
 10 11  1  0  0  0
 11 12  2  0  0  0
 11  1  1  0  0  0
  1  2  2  0  0  0
  2  3  1  0  0  0
  3  4  2  0  0  0
  4 26  1  0  0  0
 26 27  1  0  0  0
 27 28  2  0  0  0
 27 29  1  0  0  0
 29 32  1  0  0  0
 32 33  2  0  0  0
 33 34  1  0  0  0
 34 35  2  0  0  0
 35 38  1  0  0  0
 38 39  1  0  0  0
 39 40  1  0  0  0
 39 41  1  0  0  0
 39 42  1  0  0  0
 35 36  1  0  0  0
 36 37  2  0  0  0
  4  5  1  0  0  0
  5  6  2  0  0  0
  9 20  1  0  0  0
 20 21  1  0  0  0
 21 22  1  0  0  0
 22 23  1  0  0  0
 23 24  1  0  0  0
 24 25  1  0  0  0
 19 14  1  0  0  0
 12  7  1  0  0  0
  6  1  1  0  0  0
 25 20  1  0  0  0
 37 32  1  0  0  0
 26 30  1  0  0  0
 29 31  1  0  0  0
M  END
> <minimizedAffinity>
5.83417

> <CNNscore>
0.3002427518

> <CNNaffinity>
6.4034118652

> <CNN_VS>
1.9225779772

> <CNNaffinity_variance>
0.1971849948

$$$$
[H]c1c([H])c(N([H])C(=O)N([H])c2c([H])c([H])c(-c3nc(N4C([H])([H])C([H])([H])OC([H])([H])[C@@]4([H])C([H])([H])[H])nc(C4([H])C([H])([H])C([H])([H])OC([H])([H])C4([H])[H])n3)c([H])c2[H])c([H])c([H])c1OC(F)(F)F


 42 46  0  0  0  0  0  0  0  0999 V2000
   13.6953   24.5568   -2.8101 C   0  0  0  0  0  0  0  0  0  0  0  0
   12.5022   24.9779   -2.2671 C   0  0  0  0  0  0  0  0  0  0  0  0
   11.9371   24.2603   -1.2182 C   0  0  0  0  0  0  0  0  0  0  0  0
   12.5007   23.1569   -0.6902 C   0  0  0  0  0  0  0  0  0  0  0  0
   13.7308   22.7184   -1.2599 C   0  0  0  0  0  0  0  0  0  0  0  0
   14.2925   23.4202   -2.2935 C   0  0  0  0  0  0  0  0  0  0  0  0
   15.4316   27.3877   -4.4111 C   0  0  0  0  0  0  0  0  0  0  0  0
   15.6458   26.8491   -5.6317 N   0  0  0  0  0  0  0  0  0  0  0  0
   15.2404   25.6259   -5.9858 C   0  0  0  0  0  0  0  0  0  0  0  0
   14.5766   24.8923   -5.0655 N   0  0  0  0  0  0  0  0  0  0  0  0
   14.3334   25.3790   -3.8201 C   0  0  0  0  0  0  0  0  0  0  0  0
   14.7722   26.6115   -3.5431 N   0  0  0  0  0  0  0  0  0  0  0  0
   17.8784   27.8289   -2.8935 C   0  0  0  0  0  0  0  0  0  0  0  0
   17.0765   29.0141   -3.3527 C   0  0  0  0  0  0  0  0  0  0  0  0
   16.7622   29.9965   -2.2719 C   0  0  0  0  0  0  0  0  0  0  0  0
   16.1285   31.0975   -2.8497 O   0  0  0  0  0  0  0  0  0  0  0  0
   14.9007   30.7461   -3.4033 C   0  0  0  0  0  0  0  0  0  0  0  0
   15.0812   29.7978   -4.5629 C   0  0  0  0  0  0  0  0  0  0  0  0
   15.8880   28.6857   -4.0982 N   0  0  0  0  0  0  0  0  0  0  0  0
   15.5305   24.9815   -7.2786 C   0  0  0  0  0  0  0  0  0  0  0  0
   16.7594   24.0968   -7.0286 C   0  0  0  0  0  0  0  0  0  0  0  0
   17.2000   23.5065   -8.3383 C   0  0  0  0  0  0  0  0  0  0  0  0
   17.5912   24.5541   -9.1924 O   0  0  0  0  0  0  0  0  0  0  0  0
   16.4525   25.2785   -9.5619 C   0  0  0  0  0  0  0  0  0  0  0  0
   15.9101   25.9926   -8.3217 C   0  0  0  0  0  0  0  0  0  0  0  0
   11.9551   22.5373    0.4112 N   0  0  0  0  0  0  0  0  0  0  0  0
   11.4375   21.9427    1.4583 C   0  0  0  0  0  0  0  0  0  0  0  0
   11.5266   20.6546    1.7045 O   0  0  0  0  0  0  0  0  0  0  0  0
   10.7037   22.6017    2.5184 N   0  0  0  0  0  0  0  0  0  0  0  0
   12.6724   21.3967    0.1160 H   0  0  0  0  0  0  0  0  0  0  0  0
   10.4771   23.5869    2.4818 H   0  0  0  0  0  0  0  0  0  0  0  0
   10.2994   21.8253    3.6400 C   0  0  0  0  0  0  0  0  0  0  0  0
   11.1247   21.0585    4.3939 C   0  0  0  0  0  0  0  0  0  0  0  0
   10.6072   20.3061    5.4333 C   0  0  0  0  0  0  0  0  0  0  0  0
    9.2656   20.2996    5.7467 C   0  0  0  0  0  0  0  0  0  0  0  0
    8.4312   21.0860    4.9692 C   0  0  0  0  0  0  0  0  0  0  0  0
    8.9366   21.8310    3.9395 C   0  0  0  0  0  0  0  0  0  0  0  0
    8.7308   19.5612    6.7681 O   0  0  0  0  0  0  0  0  0  0  0  0
    7.7686   18.5714    6.6186 C   0  0  0  0  0  0  0  0  0  0  0  0
    8.2148   17.4293    7.2840 F   0  0  0  0  0  0  0  0  0  0  0  0
    7.5295   18.2305    5.3160 F   0  0  0  0  0  0  0  0  0  0  0  0
    6.5822   18.9650    7.2237 F   0  0  0  0  0  0  0  0  0  0  0  0
 13 14  1  0  0  0
 14 15  1  0  0  0
 15 16  1  0  0  0
 16 17  1  0  0  0
 17 18  1  0  0  0
 18 19  1  0  0  0
 19  7  1  0  0  0
  7  8  2  0  0  0
  8  9  1  0  0  0
  9 10  2  0  0  0
 10 11  1  0  0  0
 11 12  2  0  0  0
 11  1  1  0  0  0
  1  2  2  0  0  0
  2  3  1  0  0  0
  3  4  2  0  0  0
  4 26  1  0  0  0
 26 27  1  0  0  0
 27 28  2  0  0  0
 27 29  1  0  0  0
 29 32  1  0  0  0
 32 33  2  0  0  0
 33 34  1  0  0  0
 34 35  2  0  0  0
 35 38  1  0  0  0
 38 39  1  0  0  0
 39 40  1  0  0  0
 39 41  1  0  0  0
 39 42  1  0  0  0
 35 36  1  0  0  0
 36 37  2  0  0  0
  4  5  1  0  0  0
  5  6  2  0  0  0
  9 20  1  0  0  0
 20 21  1  0  0  0
 21 22  1  0  0  0
 22 23  1  0  0  0
 23 24  1  0  0  0
 24 25  1  0  0  0
 19 14  1  0  0  0
 12  7  1  0  0  0
  6  1  1  0  0  0
 25 20  1  0  0  0
 37 32  1  0  0  0
 26 30  1  0  0  0
 29 31  1  0  0  0
M  END
> <minimizedAffinity>
23.40078

> <CNNscore>
0.2859753072

> <CNNaffinity>
6.6345801353

> <CNN_VS>
1.8973261118

> <CNNaffinity_variance>
0.2777573466

$$$$
[H]c1c([H])c(N([H])C(=O)N([H])c2c([H])c([H])c(-c3nc(N4C([H])([H])C([H])([H])OC([H])([H])[C@@]4([H])C([H])([H])[H])nc(C4([H])C([H])([H])C([H])([H])OC([H])([H])C4([H])[H])n3)c([H])c2[H])c([H])c([H])c1OC(F)(F)F


 42 46  0  0  0  0  0  0  0  0999 V2000
    8.7170   22.1660    1.8469 C   0  0  0  0  0  0  0  0  0  0  0  0
    9.6734   23.0129    2.3604 C   0  0  0  0  0  0  0  0  0  0  0  0
   10.6366   23.5506    1.5133 C   0  0  0  0  0  0  0  0  0  0  0  0
   10.6886   23.2881    0.1933 C   0  0  0  0  0  0  0  0  0  0  0  0
    9.7030   22.4044   -0.3337 C   0  0  0  0  0  0  0  0  0  0  0  0
    8.7519   21.8710    0.4951 C   0  0  0  0  0  0  0  0  0  0  0  0
    6.0605   20.0523    3.2846 C   0  0  0  0  0  0  0  0  0  0  0  0
    5.7796   20.7776    4.3895 N   0  0  0  0  0  0  0  0  0  0  0  0
    6.3808   21.9318    4.6936 C   0  0  0  0  0  0  0  0  0  0  0  0
    7.3212   22.3948    3.8409 N   0  0  0  0  0  0  0  0  0  0  0  0
    7.6489   21.7082    2.7146 C   0  0  0  0  0  0  0  0  0  0  0  0
    7.0024   20.5610    2.4817 N   0  0  0  0  0  0  0  0  0  0  0  0
    5.0792   18.3451    5.4312 C   0  0  0  0  0  0  0  0  0  0  0  0
    4.8720   17.9214    4.0043 C   0  0  0  0  0  0  0  0  0  0  0  0
    5.3205   16.5273    3.7085 C   0  0  0  0  0  0  0  0  0  0  0  0
    4.9617   16.2198    2.3953 O   0  0  0  0  0  0  0  0  0  0  0  0
    5.6308   17.0290    1.4815 C   0  0  0  0  0  0  0  0  0  0  0  0
    5.2143   18.4715    1.6294 C   0  0  0  0  0  0  0  0  0  0  0  0
    5.3910   18.8383    3.0214 N   0  0  0  0  0  0  0  0  0  0  0  0
    6.1550   22.7016    5.9293 C   0  0  0  0  0  0  0  0  0  0  0  0
    4.7266   23.2508    5.8144 C   0  0  0  0  0  0  0  0  0  0  0  0
    4.4676   24.1620    6.9809 C   0  0  0  0  0  0  0  0  0  0  0  0
    5.3545   25.2516    6.9031 O   0  0  0  0  0  0  0  0  0  0  0  0
    6.6500   24.7932    7.1669 C   0  0  0  0  0  0  0  0  0  0  0  0
    7.0827   23.8789    6.0185 C   0  0  0  0  0  0  0  0  0  0  0  0
   11.5995   23.9206   -0.6221 N   0  0  0  0  0  0  0  0  0  0  0  0
   12.4707   24.5210   -1.3956 C   0  0  0  0  0  0  0  0  0  0  0  0
   13.7733   24.4797   -1.2243 O   0  0  0  0  0  0  0  0  0  0  0  0
   12.1483   25.3076   -2.5677 N   0  0  0  0  0  0  0  0  0  0  0  0
   12.6190   23.2130   -0.0199 H   0  0  0  0  0  0  0  0  0  0  0  0
   11.1929   25.5073   -2.8336 H   0  0  0  0  0  0  0  0  0  0  0  0
   13.2205   25.8042   -3.3603 C   0  0  0  0  0  0  0  0  0  0  0  0
   13.7479   27.0491   -3.2637 C   0  0  0  0  0  0  0  0  0  0  0  0
   14.7592   27.4372   -4.1247 C   0  0  0  0  0  0  0  0  0  0  0  0
   15.2676   26.6013   -5.0948 C   0  0  0  0  0  0  0  0  0  0  0  0
   14.7205   25.3318   -5.1851 C   0  0  0  0  0  0  0  0  0  0  0  0
   13.7198   24.9428   -4.3378 C   0  0  0  0  0  0  0  0  0  0  0  0
   16.2653   26.9644   -5.9592 O   0  0  0  0  0  0  0  0  0  0  0  0
   16.2066   26.8451   -7.3413 C   0  0  0  0  0  0  0  0  0  0  0  0
   17.3209   26.1182   -7.7612 F   0  0  0  0  0  0  0  0  0  0  0  0
   16.2182   28.0452   -7.9969 F   0  0  0  0  0  0  0  0  0  0  0  0
   15.0793   26.1226   -7.7096 F   0  0  0  0  0  0  0  0  0  0  0  0
 13 14  1  0  0  0
 14 15  1  0  0  0
 15 16  1  0  0  0
 16 17  1  0  0  0
 17 18  1  0  0  0
 18 19  1  0  0  0
 19  7  1  0  0  0
  7  8  2  0  0  0
  8  9  1  0  0  0
  9 10  2  0  0  0
 10 11  1  0  0  0
 11 12  2  0  0  0
 11  1  1  0  0  0
  1  2  2  0  0  0
  2  3  1  0  0  0
  3  4  2  0  0  0
  4 26  1  0  0  0
 26 27  1  0  0  0
 27 28  2  0  0  0
 27 29  1  0  0  0
 29 32  1  0  0  0
 32 33  2  0  0  0
 33 34  1  0  0  0
 34 35  2  0  0  0
 35 38  1  0  0  0
 38 39  1  0  0  0
 39 40  1  0  0  0
 39 41  1  0  0  0
 39 42  1  0  0  0
 35 36  1  0  0  0
 36 37  2  0  0  0
  4  5  1  0  0  0
  5  6  2  0  0  0
  9 20  1  0  0  0
 20 21  1  0  0  0
 21 22  1  0  0  0
 22 23  1  0  0  0
 23 24  1  0  0  0
 24 25  1  0  0  0
 19 14  1  0  0  0
 12  7  1  0  0  0
  6  1  1  0  0  0
 25 20  1  0  0  0
 37 32  1  0  0  0
 26 30  1  0  0  0
 29 31  1  0  0  0
M  END
> <minimizedAffinity>
-2.86369

> <CNNscore>
0.2701312900

> <CNNaffinity>
6.2273621559

> <CNN_VS>
1.6822053194

> <CNNaffinity_variance>
0.1669415236

$$$$
[H]c1c([H])c([H])c(C([H])([H])[C@@]([H])(C(=O)N([H])[H])N([H])C(=O)[C@@]([H])(N([H])C(=O)[C@@]([H])(N([H])C(=O)C([H])([H])N([H])C(=O)[C@@]([H])(N([H])C(=O)[C@@]([H])(N([H])[H])C([H])([H])c2c([H])n([H])c3c([H])c([H])c([H])c([H])c23)C([H])(C([H])([H])[H])C([H])([H])[H])C([H])([H])c2c([H])c([H])c([H])c([H])c2[H])C([H])([H])C([H])(C([H])([H])[H])C([H])([H])[H])c([H])c1[H]


 66 69  0  0  0  0  0  0  0  0999 V2000
    9.3749   20.1655    6.1134 C   0  0  0  0  0  0  0  0  0  0  0  0
    7.3196   19.1604    4.9985 N   0  0  0  0  0  0  0  0  0  0  0  0
    8.3804   19.1170    5.9146 C   0  0  0  0  0  0  0  0  0  0  0  0
    8.4647   18.0828    6.6192 O   0  0  0  0  0  0  0  0  0  0  0  0
    7.2670   20.0531    4.4147 H   0  0  0  0  0  0  0  0  0  0  0  0
    6.2892   18.2174    4.7465 C   0  0  0  0  0  0  0  0  0  0  0  0
    5.7161   18.2303    3.3749 C   0  0  0  0  0  0  0  0  0  0  0  0
    5.4318   19.3262    2.8385 O   0  0  0  0  0  0  0  0  0  0  0  0
    5.4833   17.0437    2.6617 N   0  0  0  0  0  0  0  0  0  0  0  0
    5.6619   16.1162    3.0991 H   0  0  0  0  0  0  0  0  0  0  0  0
    4.9692   17.0858    1.3016 C   0  0  0  0  0  0  0  0  0  0  0  0
    3.9019   15.9983    1.1931 C   0  0  0  0  0  0  0  0  0  0  0  0
    3.9493   14.8180    1.9601 N   0  0  0  0  0  0  0  0  0  0  0  0
    2.9685   16.2004    0.3813 O   0  0  0  0  0  0  0  0  0  0  0  0
    3.8326   13.9269    1.4558 H   0  0  0  0  0  0  0  0  0  0  0  0
    4.0989   14.8899    3.0114 H   0  0  0  0  0  0  0  0  0  0  0  0
    5.9774   16.8591    0.2460 C   0  0  0  0  0  0  0  0  0  0  0  0
    6.0402   17.9530   -0.7818 C   0  0  0  0  0  0  0  0  0  0  0  0
    4.9500   18.3057   -1.5409 C   0  0  0  0  0  0  0  0  0  0  0  0
    5.0171   19.3103   -2.5061 C   0  0  0  0  0  0  0  0  0  0  0  0
    6.2170   19.9631   -2.6963 C   0  0  0  0  0  0  0  0  0  0  0  0
    7.3298   19.6191   -1.9369 C   0  0  0  0  0  0  0  0  0  0  0  0
    7.2166   18.6268   -1.0029 C   0  0  0  0  0  0  0  0  0  0  0  0
    5.2576   18.1761    5.8291 C   0  0  0  0  0  0  0  0  0  0  0  0
    3.4031   19.7468    5.8914 C   0  0  0  0  0  0  0  0  0  0  0  0
    4.8681   19.5617    6.3169 C   0  0  0  0  0  0  0  0  0  0  0  0
    4.8999   19.6770    7.8185 C   0  0  0  0  0  0  0  0  0  0  0  0
   10.2530   20.3440    4.9410 N   0  0  0  0  0  0  0  0  0  0  0  0
   11.1023   19.3828    4.4275 C   0  0  0  0  0  0  0  0  0  0  0  0
   11.1911   18.1924    4.9644 O   0  0  0  0  0  0  0  0  0  0  0  0
   10.2008   21.2935    4.4714 H   0  0  0  0  0  0  0  0  0  0  0  0
   11.9670   19.5375    3.2724 C   0  0  0  0  0  0  0  0  0  0  0  0
   12.1572   20.8878    2.7720 N   0  0  0  0  0  0  0  0  0  0  0  0
   11.3841   21.3905    1.7143 C   0  0  0  0  0  0  0  0  0  0  0  0
   10.5067   20.5676    1.2563 O   0  0  0  0  0  0  0  0  0  0  0  0
   12.8899   21.4654    3.2035 H   0  0  0  0  0  0  0  0  0  0  0  0
   11.5118   22.7259    1.1328 C   0  0  0  0  0  0  0  0  0  0  0  0
   12.2609   22.6750   -0.1231 N   0  0  0  0  0  0  0  0  0  0  0  0
   13.6791   22.6016   -0.2010 C   0  0  0  0  0  0  0  0  0  0  0  0
   14.3646   22.5615    0.8490 O   0  0  0  0  0  0  0  0  0  0  0  0
   11.7071   22.6884   -1.0037 H   0  0  0  0  0  0  0  0  0  0  0  0
   14.3742   22.5685   -1.5058 C   0  0  0  0  0  0  0  0  0  0  0  0
   14.3416   21.2935   -2.1486 N   0  0  0  0  0  0  0  0  0  0  0  0
   15.1061   21.0630   -2.7824 H   0  0  0  0  0  0  0  0  0  0  0  0
   13.3806   21.0197   -2.4646 H   0  0  0  0  0  0  0  0  0  0  0  0
   13.9954   23.7473   -2.3369 C   0  0  0  0  0  0  0  0  0  0  0  0
   15.0865   24.7381   -2.4488 C   0  0  0  0  0  0  0  0  0  0  0  0
   16.1542   24.9182   -1.5808 C   0  0  0  0  0  0  0  0  0  0  0  0
   16.9099   25.9204   -2.0539 N   0  0  0  0  0  0  0  0  0  0  0  0
   16.3816   26.4084   -3.1995 C   0  0  0  0  0  0  0  0  0  0  0  0
   16.8095   27.4404   -4.0135 C   0  0  0  0  0  0  0  0  0  0  0  0
   16.0718   27.7641   -5.1364 C   0  0  0  0  0  0  0  0  0  0  0  0
   14.9251   27.0506   -5.4210 C   0  0  0  0  0  0  0  0  0  0  0  0
   14.5256   26.0285   -4.5924 C   0  0  0  0  0  0  0  0  0  0  0  0
   15.2460   25.6731   -3.4484 C   0  0  0  0  0  0  0  0  0  0  0  0
   17.7762   26.2605   -1.5847 H   0  0  0  0  0  0  0  0  0  0  0  0
   10.2816   23.5199    0.8641 C   0  0  0  0  0  0  0  0  0  0  0  0
   10.4568   24.1643   -0.5431 C   0  0  0  0  0  0  0  0  0  0  0  0
   10.0855   24.7217    1.7838 C   0  0  0  0  0  0  0  0  0  0  0  0
    9.0740   21.4178    6.7823 C   0  0  0  0  0  0  0  0  0  0  0  0
    8.3188   22.4945    6.2005 C   0  0  0  0  0  0  0  0  0  0  0  0
    6.9449   22.5577    6.2698 C   0  0  0  0  0  0  0  0  0  0  0  0
    6.2014   23.6165    5.7338 C   0  0  0  0  0  0  0  0  0  0  0  0
    6.8592   24.6613    5.1003 C   0  0  0  0  0  0  0  0  0  0  0  0
    8.2275   24.6100    5.0252 C   0  0  0  0  0  0  0  0  0  0  0  0
    8.9350   23.5574    5.5596 C   0  0  0  0  0  0  0  0  0  0  0  0
 25 26  1  0  0  0
 26 27  1  0  0  0
 26 24  1  0  0  0
 24  6  1  0  0  0
  6  2  1  0  0  0
  2  3  1  0  0  0
  3  4  2  0  0  0
  3  1  1  0  0  0
  1 60  1  0  0  0
 60 61  1  0  0  0
 61 62  2  0  0  0
 62 63  1  0  0  0
 63 64  2  0  0  0
 64 65  1  0  0  0
 65 66  2  0  0  0
  1 28  1  0  0  0
 28 29  1  0  0  0
 29 30  2  0  0  0
 29 32  1  0  0  0
 32 33  1  0  0  0
 33 34  1  0  0  0
 34 35  2  0  0  0
 34 37  1  0  0  0
 37 38  1  0  0  0
 38 39  1  0  0  0
 39 40  2  0  0  0
 39 42  1  0  0  0
 42 43  1  0  0  0
 42 46  1  0  0  0
 46 47  1  0  0  0
 47 48  2  0  0  0
 48 49  1  0  0  0
 49 50  1  0  0  0
 50 51  2  0  0  0
 51 52  1  0  0  0
 52 53  2  0  0  0
 53 54  1  0  0  0
 54 55  2  0  0  0
 37 57  1  0  0  0
 57 58  1  0  0  0
 57 59  1  0  0  0
  6  7  1  0  0  0
  7  8  2  0  0  0
  7  9  1  0  0  0
  9 11  1  0  0  0
 11 17  1  0  0  0
 17 18  1  0  0  0
 18 19  2  0  0  0
 19 20  1  0  0  0
 20 21  2  0  0  0
 21 22  1  0  0  0
 22 23  2  0  0  0
 11 12  1  0  0  0
 12 13  1  0  0  0
 12 14  2  0  0  0
 66 61  1  0  0  0
 55 47  1  0  0  0
 23 18  1  0  0  0
 55 50  1  0  0  0
  2  5  1  0  0  0
 28 31  1  0  0  0
 33 36  1  0  0  0
 38 41  1  0  0  0
 43 44  1  0  0  0
 43 45  1  0  0  0
 49 56  1  0  0  0
  9 10  1  0  0  0
 13 15  1  0  0  0
 13 16  1  0  0  0
M  END
> <minimizedAffinity>
-9.76463

> <CNNscore>
0.2438598126

> <CNNaffinity>
7.6089677811

> <CNN_VS>
1.8555214405

> <CNNaffinity_variance>
0.7465550303

$$$$
[H]c1c([H])c([H])c(C([H])([H])[C@@]([H])(C(=O)N([H])[H])N([H])C(=O)[C@@]([H])(N([H])C(=O)[C@@]([H])(N([H])C(=O)C([H])([H])N([H])C(=O)[C@@]([H])(N([H])C(=O)[C@@]([H])(N([H])[H])C([H])([H])c2c([H])n([H])c3c([H])c([H])c([H])c([H])c23)C([H])(C([H])([H])[H])C([H])([H])[H])C([H])([H])c2c([H])c([H])c([H])c([H])c2[H])C([H])([H])C([H])(C([H])([H])[H])C([H])([H])[H])c([H])c1[H]


 66 69  0  0  0  0  0  0  0  0999 V2000
   11.4277   23.5932    0.0743 C   0  0  0  0  0  0  0  0  0  0  0  0
   10.3634   22.8529    2.2645 N   0  0  0  0  0  0  0  0  0  0  0  0
   10.8207   23.8384    1.3779 C   0  0  0  0  0  0  0  0  0  0  0  0
   10.6849   25.0282    1.7509 O   0  0  0  0  0  0  0  0  0  0  0  0
   10.4857   21.8490    1.9216 H   0  0  0  0  0  0  0  0  0  0  0  0
    9.7377   22.9816    3.5320 C   0  0  0  0  0  0  0  0  0  0  0  0
   10.0823   21.9418    4.5368 C   0  0  0  0  0  0  0  0  0  0  0  0
   11.0412   21.1668    4.3143 O   0  0  0  0  0  0  0  0  0  0  0  0
    9.3598   21.8034    5.7324 N   0  0  0  0  0  0  0  0  0  0  0  0
    8.5274   22.3986    5.9231 H   0  0  0  0  0  0  0  0  0  0  0  0
    9.7489   20.8112    6.7224 C   0  0  0  0  0  0  0  0  0  0  0  0
    9.1399   19.4803    6.2849 C   0  0  0  0  0  0  0  0  0  0  0  0
    9.9218   18.4276    5.7710 N   0  0  0  0  0  0  0  0  0  0  0  0
    7.8977   19.3606    6.4022 O   0  0  0  0  0  0  0  0  0  0  0  0
    9.6075   17.9987    4.8883 H   0  0  0  0  0  0  0  0  0  0  0  0
   10.7896   18.1195    6.3047 H   0  0  0  0  0  0  0  0  0  0  0  0
    9.3048   21.0981    8.1017 C   0  0  0  0  0  0  0  0  0  0  0  0
    8.3988   22.2912    8.2146 C   0  0  0  0  0  0  0  0  0  0  0  0
    7.0295   22.1728    8.1981 C   0  0  0  0  0  0  0  0  0  0  0  0
    6.1918   23.2845    8.2860 C   0  0  0  0  0  0  0  0  0  0  0  0
    6.7642   24.5348    8.3928 C   0  0  0  0  0  0  0  0  0  0  0  0
    8.1477   24.6727    8.4114 C   0  0  0  0  0  0  0  0  0  0  0  0
    8.9288   23.5538    8.3214 C   0  0  0  0  0  0  0  0  0  0  0  0
    8.2713   23.2606    3.4337 C   0  0  0  0  0  0  0  0  0  0  0  0
    7.7029   25.5914    3.0401 C   0  0  0  0  0  0  0  0  0  0  0  0
    7.8716   24.5407    4.1488 C   0  0  0  0  0  0  0  0  0  0  0  0
    6.5389   24.4251    4.8412 C   0  0  0  0  0  0  0  0  0  0  0  0
   11.0824   22.2665   -0.4715 N   0  0  0  0  0  0  0  0  0  0  0  0
    9.8073   21.7380   -0.5352 C   0  0  0  0  0  0  0  0  0  0  0  0
    8.7687   22.4053   -0.1006 O   0  0  0  0  0  0  0  0  0  0  0  0
   11.8975   21.6993   -0.8441 H   0  0  0  0  0  0  0  0  0  0  0  0
    9.4479   20.4395   -1.0744 C   0  0  0  0  0  0  0  0  0  0  0  0
    8.0693   20.2638   -1.4969 N   0  0  0  0  0  0  0  0  0  0  0  0
    7.3521   19.0990   -1.1838 C   0  0  0  0  0  0  0  0  0  0  0  0
    8.0114   18.2356   -0.4934 O   0  0  0  0  0  0  0  0  0  0  0  0
    7.6334   21.0123   -2.0506 H   0  0  0  0  0  0  0  0  0  0  0  0
    5.9709   18.8243   -1.5768 C   0  0  0  0  0  0  0  0  0  0  0  0
    5.3973   17.7639   -0.7477 N   0  0  0  0  0  0  0  0  0  0  0  0
    5.0770   17.9164    0.6295 C   0  0  0  0  0  0  0  0  0  0  0  0
    5.2699   19.0163    1.2012 O   0  0  0  0  0  0  0  0  0  0  0  0
    5.2133   16.8505   -1.2106 H   0  0  0  0  0  0  0  0  0  0  0  0
    4.5127   16.7966    1.4135 C   0  0  0  0  0  0  0  0  0  0  0  0
    4.0014   15.7287    0.6150 N   0  0  0  0  0  0  0  0  0  0  0  0
    3.2502   15.1618    1.0071 H   0  0  0  0  0  0  0  0  0  0  0  0
    4.7510   15.2094    0.0985 H   0  0  0  0  0  0  0  0  0  0  0  0
    5.4263   16.4197    2.5303 C   0  0  0  0  0  0  0  0  0  0  0  0
    4.9183   16.8498    3.8500 C   0  0  0  0  0  0  0  0  0  0  0  0
    3.7491   17.5483    4.1168 C   0  0  0  0  0  0  0  0  0  0  0  0
    3.6681   17.7317    5.4430 N   0  0  0  0  0  0  0  0  0  0  0  0
    4.7385   17.1821    6.0610 C   0  0  0  0  0  0  0  0  0  0  0  0
    5.0768   17.1455    7.4007 C   0  0  0  0  0  0  0  0  0  0  0  0
    6.2539   16.5302    7.7826 C   0  0  0  0  0  0  0  0  0  0  0  0
    7.0654   15.9658    6.8193 C   0  0  0  0  0  0  0  0  0  0  0  0
    6.7011   16.0176    5.4943 C   0  0  0  0  0  0  0  0  0  0  0  0
    5.5187   16.6312    5.0709 C   0  0  0  0  0  0  0  0  0  0  0  0
    2.8826   18.2342    5.9088 H   0  0  0  0  0  0  0  0  0  0  0  0
    4.9848   19.9394   -1.5861 C   0  0  0  0  0  0  0  0  0  0  0  0
    4.6827   20.2646   -3.0792 C   0  0  0  0  0  0  0  0  0  0  0  0
    5.5119   21.2607   -1.0338 C   0  0  0  0  0  0  0  0  0  0  0  0
   11.5214   24.6134   -0.9536 C   0  0  0  0  0  0  0  0  0  0  0  0
   12.6273   24.7605   -1.8611 C   0  0  0  0  0  0  0  0  0  0  0  0
   12.7637   25.8501   -2.6920 C   0  0  0  0  0  0  0  0  0  0  0  0
   13.8519   26.0187   -3.5574 C   0  0  0  0  0  0  0  0  0  0  0  0
   14.8507   25.0561   -3.5945 C   0  0  0  0  0  0  0  0  0  0  0  0
   14.7264   23.9665   -2.7714 C   0  0  0  0  0  0  0  0  0  0  0  0
   13.6463   23.8240   -1.9303 C   0  0  0  0  0  0  0  0  0  0  0  0
 25 26  1  0  0  0
 26 27  1  0  0  0
 26 24  1  0  0  0
 24  6  1  0  0  0
  6  2  1  0  0  0
  2  3  1  0  0  0
  3  4  2  0  0  0
  3  1  1  0  0  0
  1 60  1  0  0  0
 60 61  1  0  0  0
 61 62  2  0  0  0
 62 63  1  0  0  0
 63 64  2  0  0  0
 64 65  1  0  0  0
 65 66  2  0  0  0
  1 28  1  0  0  0
 28 29  1  0  0  0
 29 30  2  0  0  0
 29 32  1  0  0  0
 32 33  1  0  0  0
 33 34  1  0  0  0
 34 35  2  0  0  0
 34 37  1  0  0  0
 37 38  1  0  0  0
 38 39  1  0  0  0
 39 40  2  0  0  0
 39 42  1  0  0  0
 42 43  1  0  0  0
 42 46  1  0  0  0
 46 47  1  0  0  0
 47 48  2  0  0  0
 48 49  1  0  0  0
 49 50  1  0  0  0
 50 51  2  0  0  0
 51 52  1  0  0  0
 52 53  2  0  0  0
 53 54  1  0  0  0
 54 55  2  0  0  0
 37 57  1  0  0  0
 57 58  1  0  0  0
 57 59  1  0  0  0
  6  7  1  0  0  0
  7  8  2  0  0  0
  7  9  1  0  0  0
  9 11  1  0  0  0
 11 17  1  0  0  0
 17 18  1  0  0  0
 18 19  2  0  0  0
 19 20  1  0  0  0
 20 21  2  0  0  0
 21 22  1  0  0  0
 22 23  2  0  0  0
 11 12  1  0  0  0
 12 13  1  0  0  0
 12 14  2  0  0  0
 66 61  1  0  0  0
 55 47  1  0  0  0
 23 18  1  0  0  0
 55 50  1  0  0  0
  2  5  1  0  0  0
 28 31  1  0  0  0
 33 36  1  0  0  0
 38 41  1  0  0  0
 43 44  1  0  0  0
 43 45  1  0  0  0
 49 56  1  0  0  0
  9 10  1  0  0  0
 13 15  1  0  0  0
 13 16  1  0  0  0
M  END
> <minimizedAffinity>
-8.28254

> <CNNscore>
0.1621238440

> <CNNaffinity>
6.9661650658

> <CNN_VS>
1.1293814182

> <CNNaffinity_variance>
1.7083787918

$$$$
[H]c1c([H])c([H])c(C([H])([H])[C@@]([H])(C(=O)N([H])[H])N([H])C(=O)[C@@]([H])(N([H])C(=O)[C@@]([H])(N([H])C(=O)C([H])([H])N([H])C(=O)[C@@]([H])(N([H])C(=O)[C@@]([H])(N([H])[H])C([H])([H])c2c([H])n([H])c3c([H])c([H])c([H])c([H])c23)C([H])(C([H])([H])[H])C([H])([H])[H])C([H])([H])c2c([H])c([H])c([H])c([H])c2[H])C([H])([H])C([H])(C([H])([H])[H])C([H])([H])[H])c([H])c1[H]


 66 69  0  0  0  0  0  0  0  0999 V2000
    6.1616   20.7762   -0.3671 C   0  0  0  0  0  0  0  0  0  0  0  0
    6.2313   19.9486    2.0386 N   0  0  0  0  0  0  0  0  0  0  0  0
    5.6122   20.6212    0.9753 C   0  0  0  0  0  0  0  0  0  0  0  0
    4.4879   21.1231    1.2141 O   0  0  0  0  0  0  0  0  0  0  0  0
    7.1847   19.5261    1.8082 H   0  0  0  0  0  0  0  0  0  0  0  0
    5.7769   19.7167    3.3631 C   0  0  0  0  0  0  0  0  0  0  0  0
    6.4922   20.4565    4.4358 C   0  0  0  0  0  0  0  0  0  0  0  0
    6.3166   20.1264    5.6315 O   0  0  0  0  0  0  0  0  0  0  0  0
    7.3620   21.5194    4.1447 N   0  0  0  0  0  0  0  0  0  0  0  0
    7.4897   21.8496    3.1659 H   0  0  0  0  0  0  0  0  0  0  0  0
    8.0892   22.1940    5.2086 C   0  0  0  0  0  0  0  0  0  0  0  0
    7.3819   23.5245    5.4598 C   0  0  0  0  0  0  0  0  0  0  0  0
    6.5719   24.1417    4.4869 N   0  0  0  0  0  0  0  0  0  0  0  0
    7.5545   24.0540    6.5827 O   0  0  0  0  0  0  0  0  0  0  0  0
    6.7516   25.1373    4.2910 H   0  0  0  0  0  0  0  0  0  0  0  0
    5.8179   23.5680    4.0019 H   0  0  0  0  0  0  0  0  0  0  0  0
    9.5111   22.4677    4.9167 C   0  0  0  0  0  0  0  0  0  0  0  0
   10.2983   21.2496    4.5245 C   0  0  0  0  0  0  0  0  0  0  0  0
   10.2335   20.0769    5.2385 C   0  0  0  0  0  0  0  0  0  0  0  0
   10.9790   18.9536    4.8811 C   0  0  0  0  0  0  0  0  0  0  0  0
   11.8017   19.0319    3.7769 C   0  0  0  0  0  0  0  0  0  0  0  0
   11.8790   20.2104    3.0430 C   0  0  0  0  0  0  0  0  0  0  0  0
   11.1302   21.2865    3.4322 C   0  0  0  0  0  0  0  0  0  0  0  0
    5.5744   18.2656    3.6654 C   0  0  0  0  0  0  0  0  0  0  0  0
    5.5411   16.0096    2.7602 C   0  0  0  0  0  0  0  0  0  0  0  0
    5.1681   17.4653    2.4390 C   0  0  0  0  0  0  0  0  0  0  0  0
    3.6810   17.4878    2.1997 C   0  0  0  0  0  0  0  0  0  0  0  0
    7.4101   21.5625   -0.3817 N   0  0  0  0  0  0  0  0  0  0  0  0
    7.7760   22.4950    0.5699 C   0  0  0  0  0  0  0  0  0  0  0  0
    7.0107   22.7577    1.5987 O   0  0  0  0  0  0  0  0  0  0  0  0
    8.0624   21.3694   -1.1954 H   0  0  0  0  0  0  0  0  0  0  0  0
    9.0017   23.2720    0.5760 C   0  0  0  0  0  0  0  0  0  0  0  0
   10.0122   22.9102   -0.4027 N   0  0  0  0  0  0  0  0  0  0  0  0
   11.3806   22.9823   -0.1006 C   0  0  0  0  0  0  0  0  0  0  0  0
   11.6429   23.3735    1.0973 O   0  0  0  0  0  0  0  0  0  0  0  0
    9.6985   22.6143   -1.3358 H   0  0  0  0  0  0  0  0  0  0  0  0
   12.4688   22.6557   -1.0208 C   0  0  0  0  0  0  0  0  0  0  0  0
   13.6953   23.3589   -0.6437 N   0  0  0  0  0  0  0  0  0  0  0  0
   14.2314   24.4636   -1.3613 C   0  0  0  0  0  0  0  0  0  0  0  0
   13.6381   24.9007   -2.3766 O   0  0  0  0  0  0  0  0  0  0  0  0
   14.1902   23.0215    0.2069 H   0  0  0  0  0  0  0  0  0  0  0  0
   15.4857   25.1195   -0.9330 C   0  0  0  0  0  0  0  0  0  0  0  0
   15.8677   24.8205    0.4103 N   0  0  0  0  0  0  0  0  0  0  0  0
   16.4237   25.5136    0.9101 H   0  0  0  0  0  0  0  0  0  0  0  0
   16.1496   23.8197    0.5417 H   0  0  0  0  0  0  0  0  0  0  0  0
   16.5407   24.9761   -1.9770 C   0  0  0  0  0  0  0  0  0  0  0  0
   16.6093   26.1442   -2.8801 C   0  0  0  0  0  0  0  0  0  0  0  0
   17.1278   27.3999   -2.5967 C   0  0  0  0  0  0  0  0  0  0  0  0
   16.9950   28.1614   -3.6929 N   0  0  0  0  0  0  0  0  0  0  0  0
   16.4086   27.4570   -4.6877 C   0  0  0  0  0  0  0  0  0  0  0  0
   16.0645   27.8380   -5.9711 C   0  0  0  0  0  0  0  0  0  0  0  0
   15.4464   26.9239   -6.8032 C   0  0  0  0  0  0  0  0  0  0  0  0
   15.1865   25.6516   -6.3357 C   0  0  0  0  0  0  0  0  0  0  0  0
   15.5417   25.3021   -5.0540 C   0  0  0  0  0  0  0  0  0  0  0  0
   16.1679   26.1996   -4.1843 C   0  0  0  0  0  0  0  0  0  0  0  0
   17.3043   29.1553   -3.7455 H   0  0  0  0  0  0  0  0  0  0  0  0
   12.8408   21.2289   -1.2258 C   0  0  0  0  0  0  0  0  0  0  0  0
   11.7437   20.3701   -0.5292 C   0  0  0  0  0  0  0  0  0  0  0  0
   14.1268   20.7990   -0.5258 C   0  0  0  0  0  0  0  0  0  0  0  0
    6.1657   19.7025   -1.3437 C   0  0  0  0  0  0  0  0  0  0  0  0
    5.0121   19.2649   -2.0825 C   0  0  0  0  0  0  0  0  0  0  0  0
    4.5651   19.9149   -3.2113 C   0  0  0  0  0  0  0  0  0  0  0  0
    3.4616   19.4801   -3.9559 C   0  0  0  0  0  0  0  0  0  0  0  0
    2.7728   18.3436   -3.5565 C   0  0  0  0  0  0  0  0  0  0  0  0
    3.2086   17.6874   -2.4341 C   0  0  0  0  0  0  0  0  0  0  0  0
    4.2958   18.1357   -1.7191 C   0  0  0  0  0  0  0  0  0  0  0  0
 25 26  1  0  0  0
 26 27  1  0  0  0
 26 24  1  0  0  0
 24  6  1  0  0  0
  6  2  1  0  0  0
  2  3  1  0  0  0
  3  4  2  0  0  0
  3  1  1  0  0  0
  1 60  1  0  0  0
 60 61  1  0  0  0
 61 62  2  0  0  0
 62 63  1  0  0  0
 63 64  2  0  0  0
 64 65  1  0  0  0
 65 66  2  0  0  0
  1 28  1  0  0  0
 28 29  1  0  0  0
 29 30  2  0  0  0
 29 32  1  0  0  0
 32 33  1  0  0  0
 33 34  1  0  0  0
 34 35  2  0  0  0
 34 37  1  0  0  0
 37 38  1  0  0  0
 38 39  1  0  0  0
 39 40  2  0  0  0
 39 42  1  0  0  0
 42 43  1  0  0  0
 42 46  1  0  0  0
 46 47  1  0  0  0
 47 48  2  0  0  0
 48 49  1  0  0  0
 49 50  1  0  0  0
 50 51  2  0  0  0
 51 52  1  0  0  0
 52 53  2  0  0  0
 53 54  1  0  0  0
 54 55  2  0  0  0
 37 57  1  0  0  0
 57 58  1  0  0  0
 57 59  1  0  0  0
  6  7  1  0  0  0
  7  8  2  0  0  0
  7  9  1  0  0  0
  9 11  1  0  0  0
 11 17  1  0  0  0
 17 18  1  0  0  0
 18 19  2  0  0  0
 19 20  1  0  0  0
 20 21  2  0  0  0
 21 22  1  0  0  0
 22 23  2  0  0  0
 11 12  1  0  0  0
 12 13  1  0  0  0
 12 14  2  0  0  0
 66 61  1  0  0  0
 55 47  1  0  0  0
 23 18  1  0  0  0
 55 50  1  0  0  0
  2  5  1  0  0  0
 28 31  1  0  0  0
 33 36  1  0  0  0
 38 41  1  0  0  0
 43 44  1  0  0  0
 43 45  1  0  0  0
 49 56  1  0  0  0
  9 10  1  0  0  0
 13 15  1  0  0  0
 13 16  1  0  0  0
M  END
> <minimizedAffinity>
-9.36523

> <CNNscore>
0.1236834899

> <CNNaffinity>
7.6030173302

> <CNN_VS>
0.9403676987

> <CNNaffinity_variance>
0.5771422982

$$$$
[H]c1c([H])c([H])c(C([H])([H])[C@@]([H])(C(=O)N([H])[H])N([H])C(=O)[C@@]([H])(N([H])C(=O)[C@@]([H])(N([H])C(=O)C([H])([H])N([H])C(=O)[C@@]([H])(N([H])C(=O)[C@@]([H])(N([H])[H])C([H])([H])c2c([H])n([H])c3c([H])c([H])c([H])c([H])c23)C([H])(C([H])([H])[H])C([H])([H])[H])C([H])([H])c2c([H])c([H])c([H])c([H])c2[H])C([H])([H])C([H])(C([H])([H])[H])C([H])([H])[H])c([H])c1[H]


 66 69  0  0  0  0  0  0  0  0999 V2000
    6.1786   20.6275   -1.3679 C   0  0  0  0  0  0  0  0  0  0  0  0
    5.2211   19.3023    0.5826 N   0  0  0  0  0  0  0  0  0  0  0  0
    5.4257   20.4952   -0.1255 C   0  0  0  0  0  0  0  0  0  0  0  0
    4.9064   21.5275    0.3623 O   0  0  0  0  0  0  0  0  0  0  0  0
    5.6688   18.4376    0.1441 H   0  0  0  0  0  0  0  0  0  0  0  0
    4.4885   19.0595    1.7738 C   0  0  0  0  0  0  0  0  0  0  0  0
    5.2113   19.3182    3.0468 C   0  0  0  0  0  0  0  0  0  0  0  0
    6.4637   19.2878    3.0589 O   0  0  0  0  0  0  0  0  0  0  0  0
    4.5265   19.5961    4.2403 N   0  0  0  0  0  0  0  0  0  0  0  0
    3.4863   19.5788    4.2734 H   0  0  0  0  0  0  0  0  0  0  0  0
    5.2580   19.8960    5.4614 C   0  0  0  0  0  0  0  0  0  0  0  0
    4.5343   19.1837    6.6026 C   0  0  0  0  0  0  0  0  0  0  0  0
    4.8574   17.8703    6.9952 N   0  0  0  0  0  0  0  0  0  0  0  0
    3.6268   19.8237    7.1841 O   0  0  0  0  0  0  0  0  0  0  0  0
    4.0765   17.2047    7.0908 H   0  0  0  0  0  0  0  0  0  0  0  0
    5.8759   17.6205    7.1768 H   0  0  0  0  0  0  0  0  0  0  0  0
    5.3561   21.3320    5.7935 C   0  0  0  0  0  0  0  0  0  0  0  0
    6.7660   21.8259    5.9523 C   0  0  0  0  0  0  0  0  0  0  0  0
    7.1957   22.4533    7.0973 C   0  0  0  0  0  0  0  0  0  0  0  0
    8.5009   22.9256    7.2342 C   0  0  0  0  0  0  0  0  0  0  0  0
    9.3784   22.7528    6.1843 C   0  0  0  0  0  0  0  0  0  0  0  0
    8.9604   22.1200    5.0188 C   0  0  0  0  0  0  0  0  0  0  0  0
    7.6706   21.6744    4.9298 C   0  0  0  0  0  0  0  0  0  0  0  0
    3.7548   17.7560    1.7528 C   0  0  0  0  0  0  0  0  0  0  0  0
    3.7563   15.3350    1.9748 C   0  0  0  0  0  0  0  0  0  0  0  0
    4.6789   16.5634    1.9356 C   0  0  0  0  0  0  0  0  0  0  0  0
    5.6097   16.3678    0.7675 C   0  0  0  0  0  0  0  0  0  0  0  0
    7.6260   20.7999   -1.1383 N   0  0  0  0  0  0  0  0  0  0  0  0
    8.4978   19.7975   -0.7586 C   0  0  0  0  0  0  0  0  0  0  0  0
    8.0863   18.5694   -0.5699 O   0  0  0  0  0  0  0  0  0  0  0  0
    7.9996   21.7806   -1.2920 H   0  0  0  0  0  0  0  0  0  0  0  0
    9.9240   19.9464   -0.5352 C   0  0  0  0  0  0  0  0  0  0  0  0
   10.3906   21.2614   -0.1314 N   0  0  0  0  0  0  0  0  0  0  0  0
   10.6696   21.5569    1.2117 C   0  0  0  0  0  0  0  0  0  0  0  0
   10.4916   20.5734    2.0227 O   0  0  0  0  0  0  0  0  0  0  0  0
   10.4957   21.9818   -0.8572 H   0  0  0  0  0  0  0  0  0  0  0  0
   11.1269   22.8507    1.7161 C   0  0  0  0  0  0  0  0  0  0  0  0
   12.5219   23.0885    1.3442 N   0  0  0  0  0  0  0  0  0  0  0  0
   12.9875   23.1521    0.0018 C   0  0  0  0  0  0  0  0  0  0  0  0
   12.1814   23.0153   -0.9497 O   0  0  0  0  0  0  0  0  0  0  0  0
   13.2010   23.2228    2.1208 H   0  0  0  0  0  0  0  0  0  0  0  0
   14.4162   23.3808   -0.3037 C   0  0  0  0  0  0  0  0  0  0  0  0
   15.3073   22.5275    0.4158 N   0  0  0  0  0  0  0  0  0  0  0  0
   16.2478   22.8741    0.6020 H   0  0  0  0  0  0  0  0  0  0  0  0
   15.2338   21.5229    0.1265 H   0  0  0  0  0  0  0  0  0  0  0  0
   14.6320   23.4862   -1.7754 C   0  0  0  0  0  0  0  0  0  0  0  0
   15.4834   24.6370   -2.1440 C   0  0  0  0  0  0  0  0  0  0  0  0
   16.5871   25.1233   -1.4576 C   0  0  0  0  0  0  0  0  0  0  0  0
   17.0679   26.1757   -2.1362 N   0  0  0  0  0  0  0  0  0  0  0  0
   16.3237   26.4026   -3.2428 C   0  0  0  0  0  0  0  0  0  0  0  0
   16.4401   27.3787   -4.2145 C   0  0  0  0  0  0  0  0  0  0  0  0
   15.5275   27.4100   -5.2519 C   0  0  0  0  0  0  0  0  0  0  0  0
   14.5207   26.4668   -5.2956 C   0  0  0  0  0  0  0  0  0  0  0  0
   14.4318   25.5074   -4.3146 C   0  0  0  0  0  0  0  0  0  0  0  0
   15.3363   25.4448   -3.2506 C   0  0  0  0  0  0  0  0  0  0  0  0
   17.8975   26.7282   -1.8316 H   0  0  0  0  0  0  0  0  0  0  0  0
   10.3718   24.0798    1.3484 C   0  0  0  0  0  0  0  0  0  0  0  0
   11.4261   25.1857    1.0458 C   0  0  0  0  0  0  0  0  0  0  0  0
    9.5416   24.6798    2.4796 C   0  0  0  0  0  0  0  0  0  0  0  0
    5.8905   19.8361   -2.5498 C   0  0  0  0  0  0  0  0  0  0  0  0
    4.5929   19.3181   -2.8905 C   0  0  0  0  0  0  0  0  0  0  0  0
    3.7113   20.0014   -3.6980 C   0  0  0  0  0  0  0  0  0  0  0  0
    2.4578   19.4934   -4.0613 C   0  0  0  0  0  0  0  0  0  0  0  0
    2.0663   18.2452   -3.5983 C   0  0  0  0  0  0  0  0  0  0  0  0
    2.9358   17.5547   -2.7935 C   0  0  0  0  0  0  0  0  0  0  0  0
    4.1621   18.0767   -2.4504 C   0  0  0  0  0  0  0  0  0  0  0  0
 25 26  1  0  0  0
 26 27  1  0  0  0
 26 24  1  0  0  0
 24  6  1  0  0  0
  6  2  1  0  0  0
  2  3  1  0  0  0
  3  4  2  0  0  0
  3  1  1  0  0  0
  1 60  1  0  0  0
 60 61  1  0  0  0
 61 62  2  0  0  0
 62 63  1  0  0  0
 63 64  2  0  0  0
 64 65  1  0  0  0
 65 66  2  0  0  0
  1 28  1  0  0  0
 28 29  1  0  0  0
 29 30  2  0  0  0
 29 32  1  0  0  0
 32 33  1  0  0  0
 33 34  1  0  0  0
 34 35  2  0  0  0
 34 37  1  0  0  0
 37 38  1  0  0  0
 38 39  1  0  0  0
 39 40  2  0  0  0
 39 42  1  0  0  0
 42 43  1  0  0  0
 42 46  1  0  0  0
 46 47  1  0  0  0
 47 48  2  0  0  0
 48 49  1  0  0  0
 49 50  1  0  0  0
 50 51  2  0  0  0
 51 52  1  0  0  0
 52 53  2  0  0  0
 53 54  1  0  0  0
 54 55  2  0  0  0
 37 57  1  0  0  0
 57 58  1  0  0  0
 57 59  1  0  0  0
  6  7  1  0  0  0
  7  8  2  0  0  0
  7  9  1  0  0  0
  9 11  1  0  0  0
 11 17  1  0  0  0
 17 18  1  0  0  0
 18 19  2  0  0  0
 19 20  1  0  0  0
 20 21  2  0  0  0
 21 22  1  0  0  0
 22 23  2  0  0  0
 11 12  1  0  0  0
 12 13  1  0  0  0
 12 14  2  0  0  0
 66 61  1  0  0  0
 55 47  1  0  0  0
 23 18  1  0  0  0
 55 50  1  0  0  0
  2  5  1  0  0  0
 28 31  1  0  0  0
 33 36  1  0  0  0
 38 41  1  0  0  0
 43 44  1  0  0  0
 43 45  1  0  0  0
 49 56  1  0  0  0
  9 10  1  0  0  0
 13 15  1  0  0  0
 13 16  1  0  0  0
M  END
> <minimizedAffinity>
-8.81859

> <CNNscore>
0.1212856770

> <CNNaffinity>
7.2148680687

> <CNN_VS>
0.8750601411

> <CNNaffinity_variance>
0.9230831265

$$$$
[H]c1c([H])c([H])c(C([H])([H])[C@@]([H])(C(=O)N([H])[H])N([H])C(=O)[C@@]([H])(N([H])C(=O)[C@@]([H])(N([H])C(=O)C([H])([H])N([H])C(=O)[C@@]([H])(N([H])C(=O)[C@@]([H])(N([H])[H])C([H])([H])c2c([H])n([H])c3c([H])c([H])c([H])c([H])c23)C([H])(C([H])([H])[H])C([H])([H])[H])C([H])([H])c2c([H])c([H])c([H])c([H])c2[H])C([H])([H])C([H])(C([H])([H])[H])C([H])([H])[H])c([H])c1[H]


 66 69  0  0  0  0  0  0  0  0999 V2000
    8.5805   23.1545    3.7293 C   0  0  0  0  0  0  0  0  0  0  0  0
    9.7519   22.5466    1.5531 N   0  0  0  0  0  0  0  0  0  0  0  0
    9.4842   22.3491    2.9154 C   0  0  0  0  0  0  0  0  0  0  0  0
   10.0775   21.3907    3.4654 O   0  0  0  0  0  0  0  0  0  0  0  0
    9.2308   23.3652    1.1073 H   0  0  0  0  0  0  0  0  0  0  0  0
   10.5835   21.8119    0.6682 C   0  0  0  0  0  0  0  0  0  0  0  0
   12.0037   22.2456    0.5985 C   0  0  0  0  0  0  0  0  0  0  0  0
   12.5211   22.8149    1.5873 O   0  0  0  0  0  0  0  0  0  0  0  0
   12.7838   22.0343   -0.5494 N   0  0  0  0  0  0  0  0  0  0  0  0
   12.3686   21.6098   -1.4042 H   0  0  0  0  0  0  0  0  0  0  0  0
   14.1856   22.4222   -0.5739 C   0  0  0  0  0  0  0  0  0  0  0  0
   14.8899   21.6231    0.5210 C   0  0  0  0  0  0  0  0  0  0  0  0
   14.6025   20.2662    0.7658 N   0  0  0  0  0  0  0  0  0  0  0  0
   15.7461   22.2323    1.2044 O   0  0  0  0  0  0  0  0  0  0  0  0
   14.4102   19.9970    1.7417 H   0  0  0  0  0  0  0  0  0  0  0  0
   14.5970   19.5832   -0.0505 H   0  0  0  0  0  0  0  0  0  0  0  0
   14.4399   23.8587   -0.3421 C   0  0  0  0  0  0  0  0  0  0  0  0
   14.6294   24.6552   -1.6017 C   0  0  0  0  0  0  0  0  0  0  0  0
   15.8705   25.0643   -2.0277 C   0  0  0  0  0  0  0  0  0  0  0  0
   16.0404   25.8183   -3.1887 C   0  0  0  0  0  0  0  0  0  0  0  0
   14.9240   26.1577   -3.9240 C   0  0  0  0  0  0  0  0  0  0  0  0
   13.6609   25.7519   -3.5077 C   0  0  0  0  0  0  0  0  0  0  0  0
   13.5433   25.0148   -2.3619 C   0  0  0  0  0  0  0  0  0  0  0  0
    9.9567   21.5876   -0.6715 C   0  0  0  0  0  0  0  0  0  0  0  0
    7.8036   20.8388    0.1735 C   0  0  0  0  0  0  0  0  0  0  0  0
    9.0052   20.4027   -0.6795 C   0  0  0  0  0  0  0  0  0  0  0  0
    8.4713   20.0982   -2.0547 C   0  0  0  0  0  0  0  0  0  0  0  0
    7.6840   22.3321    4.5642 N   0  0  0  0  0  0  0  0  0  0  0  0
    6.4844   21.7871    4.1481 C   0  0  0  0  0  0  0  0  0  0  0  0
    6.0388   21.9657    2.9305 O   0  0  0  0  0  0  0  0  0  0  0  0
    8.0168   22.1558    5.5557 H   0  0  0  0  0  0  0  0  0  0  0  0
    5.5938   20.9706    4.9519 C   0  0  0  0  0  0  0  0  0  0  0  0
    5.7839   19.5321    4.8851 N   0  0  0  0  0  0  0  0  0  0  0  0
    4.7788   18.6426    5.2946 C   0  0  0  0  0  0  0  0  0  0  0  0
    3.6997   19.2099    5.7075 O   0  0  0  0  0  0  0  0  0  0  0  0
    6.6869   19.1784    4.5441 H   0  0  0  0  0  0  0  0  0  0  0  0
    4.8820   17.1843    5.2800 C   0  0  0  0  0  0  0  0  0  0  0  0
    4.9577   16.6837    3.9071 N   0  0  0  0  0  0  0  0  0  0  0  0
    3.8219   16.4206    3.0926 C   0  0  0  0  0  0  0  0  0  0  0  0
    2.6678   16.6316    3.5370 O   0  0  0  0  0  0  0  0  0  0  0  0
    5.9079   16.5209    3.5159 H   0  0  0  0  0  0  0  0  0  0  0  0
    3.9699   15.9002    1.7163 C   0  0  0  0  0  0  0  0  0  0  0  0
    3.9363   14.4752    1.6279 N   0  0  0  0  0  0  0  0  0  0  0  0
    4.4358   14.0367    0.8548 H   0  0  0  0  0  0  0  0  0  0  0  0
    2.9960   14.0736    1.8577 H   0  0  0  0  0  0  0  0  0  0  0  0
    3.0951   16.6507    0.7702 C   0  0  0  0  0  0  0  0  0  0  0  0
    3.8605   17.5434   -0.1254 C   0  0  0  0  0  0  0  0  0  0  0  0
    4.9349   17.2051   -0.9360 C   0  0  0  0  0  0  0  0  0  0  0  0
    5.3314   18.3109   -1.5834 N   0  0  0  0  0  0  0  0  0  0  0  0
    4.5608   19.3652   -1.2306 C   0  0  0  0  0  0  0  0  0  0  0  0
    4.6167   20.6874   -1.6298 C   0  0  0  0  0  0  0  0  0  0  0  0
    3.7145   21.5906   -1.1002 C   0  0  0  0  0  0  0  0  0  0  0  0
    2.7779   21.1534   -0.1855 C   0  0  0  0  0  0  0  0  0  0  0  0
    2.7468   19.8313    0.1911 C   0  0  0  0  0  0  0  0  0  0  0  0
    3.6430   18.8897   -0.3230 C   0  0  0  0  0  0  0  0  0  0  0  0
    6.1271   18.3312   -2.2562 H   0  0  0  0  0  0  0  0  0  0  0  0
    5.9846   16.5282    6.0348 C   0  0  0  0  0  0  0  0  0  0  0  0
    6.6330   15.4862    5.0755 C   0  0  0  0  0  0  0  0  0  0  0  0
    5.5298   15.6841    7.2219 C   0  0  0  0  0  0  0  0  0  0  0  0
    8.9977   24.3761    4.3926 C   0  0  0  0  0  0  0  0  0  0  0  0
    8.1456   25.1915    5.2156 C   0  0  0  0  0  0  0  0  0  0  0  0
    7.1953   26.0371    4.6881 C   0  0  0  0  0  0  0  0  0  0  0  0
    6.3395   26.8126    5.4802 C   0  0  0  0  0  0  0  0  0  0  0  0
    6.4357   26.7404    6.8627 C   0  0  0  0  0  0  0  0  0  0  0  0
    7.3781   25.9016    7.4000 C   0  0  0  0  0  0  0  0  0  0  0  0
    8.2079   25.1502    6.5993 C   0  0  0  0  0  0  0  0  0  0  0  0
 25 26  1  0  0  0
 26 27  1  0  0  0
 26 24  1  0  0  0
 24  6  1  0  0  0
  6  2  1  0  0  0
  2  3  1  0  0  0
  3  4  2  0  0  0
  3  1  1  0  0  0
  1 60  1  0  0  0
 60 61  1  0  0  0
 61 62  2  0  0  0
 62 63  1  0  0  0
 63 64  2  0  0  0
 64 65  1  0  0  0
 65 66  2  0  0  0
  1 28  1  0  0  0
 28 29  1  0  0  0
 29 30  2  0  0  0
 29 32  1  0  0  0
 32 33  1  0  0  0
 33 34  1  0  0  0
 34 35  2  0  0  0
 34 37  1  0  0  0
 37 38  1  0  0  0
 38 39  1  0  0  0
 39 40  2  0  0  0
 39 42  1  0  0  0
 42 43  1  0  0  0
 42 46  1  0  0  0
 46 47  1  0  0  0
 47 48  2  0  0  0
 48 49  1  0  0  0
 49 50  1  0  0  0
 50 51  2  0  0  0
 51 52  1  0  0  0
 52 53  2  0  0  0
 53 54  1  0  0  0
 54 55  2  0  0  0
 37 57  1  0  0  0
 57 58  1  0  0  0
 57 59  1  0  0  0
  6  7  1  0  0  0
  7  8  2  0  0  0
  7  9  1  0  0  0
  9 11  1  0  0  0
 11 17  1  0  0  0
 17 18  1  0  0  0
 18 19  2  0  0  0
 19 20  1  0  0  0
 20 21  2  0  0  0
 21 22  1  0  0  0
 22 23  2  0  0  0
 11 12  1  0  0  0
 12 13  1  0  0  0
 12 14  2  0  0  0
 66 61  1  0  0  0
 55 47  1  0  0  0
 23 18  1  0  0  0
 55 50  1  0  0  0
  2  5  1  0  0  0
 28 31  1  0  0  0
 33 36  1  0  0  0
 38 41  1  0  0  0
 43 44  1  0  0  0
 43 45  1  0  0  0
 49 56  1  0  0  0
  9 10  1  0  0  0
 13 15  1  0  0  0
 13 16  1  0  0  0
M  END
> <minimizedAffinity>
-8.57536

> <CNNscore>
0.1103809699

> <CNNaffinity>
7.3270735741

> <CNN_VS>
0.8087694645

> <CNNaffinity_variance>
0.7229294181

$$$$
[H]c1c([H])c([H])c(C([H])([H])[C@@]([H])(C(=O)N([H])[H])N([H])C(=O)[C@@]([H])(N([H])C(=O)[C@@]([H])(N([H])C(=O)C([H])([H])N([H])C(=O)[C@@]([H])(N([H])C(=O)[C@@]([H])(N([H])[H])C([H])([H])c2c([H])n([H])c3c([H])c([H])c([H])c([H])c23)C([H])(C([H])([H])[H])C([H])([H])[H])C([H])([H])c2c([H])c([H])c([H])c([H])c2[H])C([H])([H])C([H])(C([H])([H])[H])C([H])([H])[H])c([H])c1[H]


 66 69  0  0  0  0  0  0  0  0999 V2000
    8.5221   22.4105    4.3284 C   0  0  0  0  0  0  0  0  0  0  0  0
    6.7041   20.6332    4.4431 N   0  0  0  0  0  0  0  0  0  0  0  0
    8.0473   21.0327    4.3929 C   0  0  0  0  0  0  0  0  0  0  0  0
    8.9015   20.1146    4.4101 O   0  0  0  0  0  0  0  0  0  0  0  0
    5.9970   21.4334    4.4323 H   0  0  0  0  0  0  0  0  0  0  0  0
    6.1386   19.3345    4.5352 C   0  0  0  0  0  0  0  0  0  0  0  0
    5.4016   18.8587    3.3352 C   0  0  0  0  0  0  0  0  0  0  0  0
    4.5715   19.6177    2.7835 O   0  0  0  0  0  0  0  0  0  0  0  0
    5.6105   17.5772    2.8015 N   0  0  0  0  0  0  0  0  0  0  0  0
    6.2558   16.9058    3.2665 H   0  0  0  0  0  0  0  0  0  0  0  0
    4.9141   17.1541    1.5964 C   0  0  0  0  0  0  0  0  0  0  0  0
    4.0727   15.9353    1.9707 C   0  0  0  0  0  0  0  0  0  0  0  0
    4.3543   14.6463    1.4782 N   0  0  0  0  0  0  0  0  0  0  0  0
    3.1062   16.1309    2.7446 O   0  0  0  0  0  0  0  0  0  0  0  0
    3.5692   14.1200    1.0676 H   0  0  0  0  0  0  0  0  0  0  0  0
    5.3478   14.2710    1.5493 H   0  0  0  0  0  0  0  0  0  0  0  0
    5.7905   16.7883    0.4650 C   0  0  0  0  0  0  0  0  0  0  0  0
    5.8184   17.8072   -0.6386 C   0  0  0  0  0  0  0  0  0  0  0  0
    4.6749   18.2239   -1.2774 C   0  0  0  0  0  0  0  0  0  0  0  0
    4.7070   19.1574   -2.3131 C   0  0  0  0  0  0  0  0  0  0  0  0
    5.9268   19.6719   -2.6998 C   0  0  0  0  0  0  0  0  0  0  0  0
    7.0934   19.2617   -2.0642 C   0  0  0  0  0  0  0  0  0  0  0  0
    7.0129   18.3431   -1.0544 C   0  0  0  0  0  0  0  0  0  0  0  0
    5.4075   19.1057    5.8202 C   0  0  0  0  0  0  0  0  0  0  0  0
    5.3267   20.7876    7.5738 C   0  0  0  0  0  0  0  0  0  0  0  0
    6.1712   19.6261    7.0266 C   0  0  0  0  0  0  0  0  0  0  0  0
    6.2721   18.6071    8.1314 C   0  0  0  0  0  0  0  0  0  0  0  0
    8.9502   22.8000    2.9711 N   0  0  0  0  0  0  0  0  0  0  0  0
    8.1512   22.7713    1.8443 C   0  0  0  0  0  0  0  0  0  0  0  0
    6.9026   22.3831    1.9019 O   0  0  0  0  0  0  0  0  0  0  0  0
    9.9542   23.1313    2.8860 H   0  0  0  0  0  0  0  0  0  0  0  0
    8.5522   23.1568    0.5039 C   0  0  0  0  0  0  0  0  0  0  0  0
    9.6890   22.4560   -0.0674 N   0  0  0  0  0  0  0  0  0  0  0  0
   11.0060   22.8558    0.2055 C   0  0  0  0  0  0  0  0  0  0  0  0
   11.1041   23.8639    0.9999 O   0  0  0  0  0  0  0  0  0  0  0  0
    9.5035   21.6640   -0.6960 H   0  0  0  0  0  0  0  0  0  0  0  0
   12.2105   22.2259   -0.3330 C   0  0  0  0  0  0  0  0  0  0  0  0
   13.3745   23.0940   -0.1525 N   0  0  0  0  0  0  0  0  0  0  0  0
   13.9499   23.8789   -1.1896 C   0  0  0  0  0  0  0  0  0  0  0  0
   13.4490   23.8645   -2.3397 O   0  0  0  0  0  0  0  0  0  0  0  0
   13.7913   23.1324    0.7999 H   0  0  0  0  0  0  0  0  0  0  0  0
   15.1377   24.7242   -0.9416 C   0  0  0  0  0  0  0  0  0  0  0  0
   15.6243   24.6622    0.3997 N   0  0  0  0  0  0  0  0  0  0  0  0
   16.1192   25.4766    0.7621 H   0  0  0  0  0  0  0  0  0  0  0  0
   16.0308   23.7277    0.6442 H   0  0  0  0  0  0  0  0  0  0  0  0
   16.1448   24.5530   -2.0279 C   0  0  0  0  0  0  0  0  0  0  0  0
   16.3538   25.7901   -2.8094 C   0  0  0  0  0  0  0  0  0  0  0  0
   16.9512   26.9672   -2.3811 C   0  0  0  0  0  0  0  0  0  0  0  0
   16.9391   27.8353   -3.4036 N   0  0  0  0  0  0  0  0  0  0  0  0
   16.3564   27.2767   -4.4890 C   0  0  0  0  0  0  0  0  0  0  0  0
   16.1150   27.8019   -5.7446 C   0  0  0  0  0  0  0  0  0  0  0  0
   15.4756   27.0228   -6.6902 C   0  0  0  0  0  0  0  0  0  0  0  0
   15.0923   25.7383   -6.3610 C   0  0  0  0  0  0  0  0  0  0  0  0
   15.3473   25.2436   -5.1036 C   0  0  0  0  0  0  0  0  0  0  0  0
   15.9915   26.0021   -4.1219 C   0  0  0  0  0  0  0  0  0  0  0  0
   17.3267   28.8010   -3.3448 H   0  0  0  0  0  0  0  0  0  0  0  0
   12.6040   20.8768    0.1580 C   0  0  0  0  0  0  0  0  0  0  0  0
   11.8489   20.6453    1.5006 C   0  0  0  0  0  0  0  0  0  0  0  0
   14.0732   20.7446    0.5488 C   0  0  0  0  0  0  0  0  0  0  0  0
    7.8812   23.4972    5.0458 C   0  0  0  0  0  0  0  0  0  0  0  0
    7.7895   24.8505    4.5679 C   0  0  0  0  0  0  0  0  0  0  0  0
    6.6174   25.3874    4.0841 C   0  0  0  0  0  0  0  0  0  0  0  0
    6.5089   26.7127    3.6448 C   0  0  0  0  0  0  0  0  0  0  0  0
    7.6212   27.5411    3.6915 C   0  0  0  0  0  0  0  0  0  0  0  0
    8.7944   27.0181    4.1718 C   0  0  0  0  0  0  0  0  0  0  0  0
    8.8749   25.7115    4.5968 C   0  0  0  0  0  0  0  0  0  0  0  0
 25 26  1  0  0  0
 26 27  1  0  0  0
 26 24  1  0  0  0
 24  6  1  0  0  0
  6  2  1  0  0  0
  2  3  1  0  0  0
  3  4  2  0  0  0
  3  1  1  0  0  0
  1 60  1  0  0  0
 60 61  1  0  0  0
 61 62  2  0  0  0
 62 63  1  0  0  0
 63 64  2  0  0  0
 64 65  1  0  0  0
 65 66  2  0  0  0
  1 28  1  0  0  0
 28 29  1  0  0  0
 29 30  2  0  0  0
 29 32  1  0  0  0
 32 33  1  0  0  0
 33 34  1  0  0  0
 34 35  2  0  0  0
 34 37  1  0  0  0
 37 38  1  0  0  0
 38 39  1  0  0  0
 39 40  2  0  0  0
 39 42  1  0  0  0
 42 43  1  0  0  0
 42 46  1  0  0  0
 46 47  1  0  0  0
 47 48  2  0  0  0
 48 49  1  0  0  0
 49 50  1  0  0  0
 50 51  2  0  0  0
 51 52  1  0  0  0
 52 53  2  0  0  0
 53 54  1  0  0  0
 54 55  2  0  0  0
 37 57  1  0  0  0
 57 58  1  0  0  0
 57 59  1  0  0  0
  6  7  1  0  0  0
  7  8  2  0  0  0
  7  9  1  0  0  0
  9 11  1  0  0  0
 11 17  1  0  0  0
 17 18  1  0  0  0
 18 19  2  0  0  0
 19 20  1  0  0  0
 20 21  2  0  0  0
 21 22  1  0  0  0
 22 23  2  0  0  0
 11 12  1  0  0  0
 12 13  1  0  0  0
 12 14  2  0  0  0
 66 61  1  0  0  0
 55 47  1  0  0  0
 23 18  1  0  0  0
 55 50  1  0  0  0
  2  5  1  0  0  0
 28 31  1  0  0  0
 33 36  1  0  0  0
 38 41  1  0  0  0
 43 44  1  0  0  0
 43 45  1  0  0  0
 49 56  1  0  0  0
  9 10  1  0  0  0
 13 15  1  0  0  0
 13 16  1  0  0  0
M  END
> <minimizedAffinity>
-9.53752

> <CNNscore>
0.1059910282

> <CNNaffinity>
7.5468854904

> <CNN_VS>
0.7999021411

> <CNNaffinity_variance>
0.5085210800

$$$$
[H]c1c([H])c([H])c(C([H])([H])[C@@]([H])(C(=O)N([H])[H])N([H])C(=O)[C@@]([H])(N([H])C(=O)[C@@]([H])(N([H])C(=O)C([H])([H])N([H])C(=O)[C@@]([H])(N([H])C(=O)[C@@]([H])(N([H])[H])C([H])([H])c2c([H])n([H])c3c([H])c([H])c([H])c([H])c23)C([H])(C([H])([H])[H])C([H])([H])[H])C([H])([H])c2c([H])c([H])c([H])c([H])c2[H])C([H])([H])C([H])(C([H])([H])[H])C([H])([H])[H])c([H])c1[H]


 66 69  0  0  0  0  0  0  0  0999 V2000
    8.6972   21.9431    4.3883 C   0  0  0  0  0  0  0  0  0  0  0  0
    6.9107   20.3505    5.2539 N   0  0  0  0  0  0  0  0  0  0  0  0
    7.3289   21.4471    4.4865 C   0  0  0  0  0  0  0  0  0  0  0  0
    6.4385   22.0387    3.8306 O   0  0  0  0  0  0  0  0  0  0  0  0
    7.6881   19.8612    5.7986 H   0  0  0  0  0  0  0  0  0  0  0  0
    5.6225   19.7719    5.3971 C   0  0  0  0  0  0  0  0  0  0  0  0
    4.9225   19.4206    4.1336 C   0  0  0  0  0  0  0  0  0  0  0  0
    3.8149   19.9475    3.8783 O   0  0  0  0  0  0  0  0  0  0  0  0
    5.4702   18.5108    3.2154 N   0  0  0  0  0  0  0  0  0  0  0  0
    6.3638   18.0189    3.4225 H   0  0  0  0  0  0  0  0  0  0  0  0
    4.7896   18.2226    1.9626 C   0  0  0  0  0  0  0  0  0  0  0  0
    4.0628   16.8914    2.1444 C   0  0  0  0  0  0  0  0  0  0  0  0
    2.9794   16.5080    1.3303 N   0  0  0  0  0  0  0  0  0  0  0  0
    4.4744   16.1426    3.0616 O   0  0  0  0  0  0  0  0  0  0  0  0
    2.1295   16.1747    1.8083 H   0  0  0  0  0  0  0  0  0  0  0  0
    3.0785   16.5737    0.2726 H   0  0  0  0  0  0  0  0  0  0  0  0
    5.6722   18.1166    0.7828 C   0  0  0  0  0  0  0  0  0  0  0  0
    5.3856   19.1327   -0.2861 C   0  0  0  0  0  0  0  0  0  0  0  0
    4.4445   20.1208   -0.1213 C   0  0  0  0  0  0  0  0  0  0  0  0
    4.1692   21.0517   -1.1227 C   0  0  0  0  0  0  0  0  0  0  0  0
    4.8677   20.9702   -2.3091 C   0  0  0  0  0  0  0  0  0  0  0  0
    5.8235   19.9771   -2.4926 C   0  0  0  0  0  0  0  0  0  0  0  0
    6.0585   19.0855   -1.4827 C   0  0  0  0  0  0  0  0  0  0  0  0
    4.7610   20.5004    6.3795 C   0  0  0  0  0  0  0  0  0  0  0  0
    3.2628   20.0978    8.2513 C   0  0  0  0  0  0  0  0  0  0  0  0
    4.6698   19.7859    7.7177 C   0  0  0  0  0  0  0  0  0  0  0  0
    4.7583   18.2883    7.5816 C   0  0  0  0  0  0  0  0  0  0  0  0
    9.1892   21.9785    2.9976 N   0  0  0  0  0  0  0  0  0  0  0  0
   10.1368   21.1255    2.4653 C   0  0  0  0  0  0  0  0  0  0  0  0
   10.6881   20.1819    3.1857 O   0  0  0  0  0  0  0  0  0  0  0  0
    8.7572   22.7238    2.3788 H   0  0  0  0  0  0  0  0  0  0  0  0
   10.6274   21.1406    1.0996 C   0  0  0  0  0  0  0  0  0  0  0  0
   10.8967   22.4423    0.5141 N   0  0  0  0  0  0  0  0  0  0  0  0
   12.1652   23.0355    0.6041 C   0  0  0  0  0  0  0  0  0  0  0  0
   13.0430   22.3270    1.2241 O   0  0  0  0  0  0  0  0  0  0  0  0
   10.1243   22.9306    0.0432 H   0  0  0  0  0  0  0  0  0  0  0  0
   12.5278   24.3443    0.0626 C   0  0  0  0  0  0  0  0  0  0  0  0
   13.8976   24.3311   -0.4517 N   0  0  0  0  0  0  0  0  0  0  0  0
   14.9952   24.9659    0.1924 C   0  0  0  0  0  0  0  0  0  0  0  0
   14.8219   25.5722    1.2770 O   0  0  0  0  0  0  0  0  0  0  0  0
   14.0628   23.8167   -1.3408 H   0  0  0  0  0  0  0  0  0  0  0  0
   16.3534   24.9263   -0.3912 C   0  0  0  0  0  0  0  0  0  0  0  0
   17.2944   24.1773    0.3791 N   0  0  0  0  0  0  0  0  0  0  0  0
   18.2777   24.4374    0.3089 H   0  0  0  0  0  0  0  0  0  0  0  0
   17.0877   23.1499    0.3902 H   0  0  0  0  0  0  0  0  0  0  0  0
   16.2934   24.6268   -1.8508 C   0  0  0  0  0  0  0  0  0  0  0  0
   16.4590   25.8349   -2.6862 C   0  0  0  0  0  0  0  0  0  0  0  0
   17.0723   27.0280   -2.3311 C   0  0  0  0  0  0  0  0  0  0  0  0
   17.0067   27.8580   -3.3828 N   0  0  0  0  0  0  0  0  0  0  0  0
   16.3734   27.2589   -4.4171 C   0  0  0  0  0  0  0  0  0  0  0  0
   16.0686   27.7373   -5.6775 C   0  0  0  0  0  0  0  0  0  0  0  0
   15.3864   26.9228   -6.5614 C   0  0  0  0  0  0  0  0  0  0  0  0
   15.0246   25.6505   -6.1671 C   0  0  0  0  0  0  0  0  0  0  0  0
   15.3430   25.2027   -4.9066 C   0  0  0  0  0  0  0  0  0  0  0  0
   16.0318   25.9979   -3.9861 C   0  0  0  0  0  0  0  0  0  0  0  0
   17.3930   28.8260   -3.3784 H   0  0  0  0  0  0  0  0  0  0  0  0
   11.6788   24.9492   -1.0001 C   0  0  0  0  0  0  0  0  0  0  0  0
   10.9471   23.7763   -1.7178 C   0  0  0  0  0  0  0  0  0  0  0  0
   12.4542   25.6269   -2.1262 C   0  0  0  0  0  0  0  0  0  0  0  0
    9.1904   23.0520    5.1841 C   0  0  0  0  0  0  0  0  0  0  0  0
    8.4243   23.7444    6.1850 C   0  0  0  0  0  0  0  0  0  0  0  0
    8.1830   23.2130    7.4322 C   0  0  0  0  0  0  0  0  0  0  0  0
    7.4646   23.8910    8.4250 C   0  0  0  0  0  0  0  0  0  0  0  0
    6.9647   25.1584    8.1614 C   0  0  0  0  0  0  0  0  0  0  0  0
    7.1987   25.6986    6.9228 C   0  0  0  0  0  0  0  0  0  0  0  0
    7.9074   25.0110    5.9640 C   0  0  0  0  0  0  0  0  0  0  0  0
 25 26  1  0  0  0
 26 27  1  0  0  0
 26 24  1  0  0  0
 24  6  1  0  0  0
  6  2  1  0  0  0
  2  3  1  0  0  0
  3  4  2  0  0  0
  3  1  1  0  0  0
  1 60  1  0  0  0
 60 61  1  0  0  0
 61 62  2  0  0  0
 62 63  1  0  0  0
 63 64  2  0  0  0
 64 65  1  0  0  0
 65 66  2  0  0  0
  1 28  1  0  0  0
 28 29  1  0  0  0
 29 30  2  0  0  0
 29 32  1  0  0  0
 32 33  1  0  0  0
 33 34  1  0  0  0
 34 35  2  0  0  0
 34 37  1  0  0  0
 37 38  1  0  0  0
 38 39  1  0  0  0
 39 40  2  0  0  0
 39 42  1  0  0  0
 42 43  1  0  0  0
 42 46  1  0  0  0
 46 47  1  0  0  0
 47 48  2  0  0  0
 48 49  1  0  0  0
 49 50  1  0  0  0
 50 51  2  0  0  0
 51 52  1  0  0  0
 52 53  2  0  0  0
 53 54  1  0  0  0
 54 55  2  0  0  0
 37 57  1  0  0  0
 57 58  1  0  0  0
 57 59  1  0  0  0
  6  7  1  0  0  0
  7  8  2  0  0  0
  7  9  1  0  0  0
  9 11  1  0  0  0
 11 17  1  0  0  0
 17 18  1  0  0  0
 18 19  2  0  0  0
 19 20  1  0  0  0
 20 21  2  0  0  0
 21 22  1  0  0  0
 22 23  2  0  0  0
 11 12  1  0  0  0
 12 13  1  0  0  0
 12 14  2  0  0  0
 66 61  1  0  0  0
 55 47  1  0  0  0
 23 18  1  0  0  0
 55 50  1  0  0  0
  2  5  1  0  0  0
 28 31  1  0  0  0
 33 36  1  0  0  0
 38 41  1  0  0  0
 43 44  1  0  0  0
 43 45  1  0  0  0
 49 56  1  0  0  0
  9 10  1  0  0  0
 13 15  1  0  0  0
 13 16  1  0  0  0
M  END
> <minimizedAffinity>
-7.78537

> <CNNscore>
0.1046488211

> <CNNaffinity>
7.2600426674

> <CNN_VS>
0.7597548962

> <CNNaffinity_variance>
0.2976656258

$$$$
[H]c1c([H])c([H])c(C([H])([H])[C@@]([H])(C(=O)N([H])[H])N([H])C(=O)[C@@]([H])(N([H])C(=O)[C@@]([H])(N([H])C(=O)C([H])([H])N([H])C(=O)[C@@]([H])(N([H])C(=O)[C@@]([H])(N([H])[H])C([H])([H])c2c([H])n([H])c3c([H])c([H])c([H])c([H])c23)C([H])(C([H])([H])[H])C([H])([H])[H])C([H])([H])c2c([H])c([H])c([H])c([H])c2[H])C([H])([H])C([H])(C([H])([H])[H])C([H])([H])[H])c([H])c1[H]


 66 69  0  0  0  0  0  0  0  0999 V2000
    7.6906   20.3823    5.1147 C   0  0  0  0  0  0  0  0  0  0  0  0
    6.2022   19.6872    3.1708 N   0  0  0  0  0  0  0  0  0  0  0  0
    6.8939   19.4204    4.3610 C   0  0  0  0  0  0  0  0  0  0  0  0
    6.8061   18.2507    4.8050 O   0  0  0  0  0  0  0  0  0  0  0  0
    6.2886   20.6910    2.8167 H   0  0  0  0  0  0  0  0  0  0  0  0
    5.3825   18.8407    2.3795 C   0  0  0  0  0  0  0  0  0  0  0  0
    5.9341   18.4534    1.0545 C   0  0  0  0  0  0  0  0  0  0  0  0
    6.0950   17.2401    0.7872 O   0  0  0  0  0  0  0  0  0  0  0  0
    6.2813   19.4136    0.0910 N   0  0  0  0  0  0  0  0  0  0  0  0
    6.2065   20.4302    0.3018 H   0  0  0  0  0  0  0  0  0  0  0  0
    6.7712   19.0070   -1.2169 C   0  0  0  0  0  0  0  0  0  0  0  0
    8.0912   19.7403   -1.4478 C   0  0  0  0  0  0  0  0  0  0  0  0
    8.3458   20.4813   -2.6181 N   0  0  0  0  0  0  0  0  0  0  0  0
    8.9524   19.6544   -0.5411 O   0  0  0  0  0  0  0  0  0  0  0  0
    9.2340   20.2948   -3.1064 H   0  0  0  0  0  0  0  0  0  0  0  0
    7.6262   21.1935   -2.9463 H   0  0  0  0  0  0  0  0  0  0  0  0
    5.8652   19.3080   -2.3441 C   0  0  0  0  0  0  0  0  0  0  0  0
    4.5345   19.8651   -1.9245 C   0  0  0  0  0  0  0  0  0  0  0  0
    4.3261   21.2137   -1.7603 C   0  0  0  0  0  0  0  0  0  0  0  0
    3.0940   21.7256   -1.3541 C   0  0  0  0  0  0  0  0  0  0  0  0
    2.0607   20.8444   -1.1132 C   0  0  0  0  0  0  0  0  0  0  0  0
    2.2541   19.4770   -1.2747 C   0  0  0  0  0  0  0  0  0  0  0  0
    3.4801   19.0212   -1.6736 C   0  0  0  0  0  0  0  0  0  0  0  0
    3.9562   19.2893    2.3295 C   0  0  0  0  0  0  0  0  0  0  0  0
    3.6879   17.0062    3.1206 C   0  0  0  0  0  0  0  0  0  0  0  0
    3.0350   18.3971    3.1450 C   0  0  0  0  0  0  0  0  0  0  0  0
    2.9573   18.8129    4.5908 C   0  0  0  0  0  0  0  0  0  0  0  0
    9.0558   20.5339    4.5757 N   0  0  0  0  0  0  0  0  0  0  0  0
   10.1137   19.6834    4.8337 C   0  0  0  0  0  0  0  0  0  0  0  0
    9.9751   18.6352    5.6052 O   0  0  0  0  0  0  0  0  0  0  0  0
    9.2049   21.3669    3.9364 H   0  0  0  0  0  0  0  0  0  0  0  0
   11.4600   19.8122    4.3076 C   0  0  0  0  0  0  0  0  0  0  0  0
   11.8115   21.0894    3.7115 N   0  0  0  0  0  0  0  0  0  0  0  0
   11.5314   21.3690    2.3653 C   0  0  0  0  0  0  0  0  0  0  0  0
   10.9366   20.4173    1.7350 O   0  0  0  0  0  0  0  0  0  0  0  0
   12.2904   21.7829    4.3001 H   0  0  0  0  0  0  0  0  0  0  0  0
   11.8596   22.6146    1.6736 C   0  0  0  0  0  0  0  0  0  0  0  0
   12.5599   22.3414    0.4182 N   0  0  0  0  0  0  0  0  0  0  0  0
   13.8463   22.8557    0.0968 C   0  0  0  0  0  0  0  0  0  0  0  0
   14.4568   23.5798    0.9196 O   0  0  0  0  0  0  0  0  0  0  0  0
   12.0760   21.7272   -0.2680 H   0  0  0  0  0  0  0  0  0  0  0  0
   14.4912   22.5519   -1.1988 C   0  0  0  0  0  0  0  0  0  0  0  0
   14.3957   21.1809   -1.5873 N   0  0  0  0  0  0  0  0  0  0  0  0
   15.1287   20.8070   -2.1891 H   0  0  0  0  0  0  0  0  0  0  0  0
   13.4157   20.8884   -1.8162 H   0  0  0  0  0  0  0  0  0  0  0  0
   14.1182   23.5665   -2.2260 C   0  0  0  0  0  0  0  0  0  0  0  0
   15.1478   24.6143   -2.3901 C   0  0  0  0  0  0  0  0  0  0  0  0
   16.2203   24.8815   -1.5507 C   0  0  0  0  0  0  0  0  0  0  0  0
   16.9072   25.9104   -2.0689 N   0  0  0  0  0  0  0  0  0  0  0  0
   16.3291   26.3325   -3.2167 C   0  0  0  0  0  0  0  0  0  0  0  0
   16.6805   27.3622   -4.0693 C   0  0  0  0  0  0  0  0  0  0  0  0
   15.9033   27.6090   -5.1852 C   0  0  0  0  0  0  0  0  0  0  0  0
   14.7943   26.8227   -5.4242 C   0  0  0  0  0  0  0  0  0  0  0  0
   14.4710   25.8050   -4.5578 C   0  0  0  0  0  0  0  0  0  0  0  0
   15.2332   25.5262   -3.4196 C   0  0  0  0  0  0  0  0  0  0  0  0
   17.7615   26.3136   -1.6285 H   0  0  0  0  0  0  0  0  0  0  0  0
   10.7681   23.5748    1.3532 C   0  0  0  0  0  0  0  0  0  0  0  0
   10.0671   23.0504    0.0648 C   0  0  0  0  0  0  0  0  0  0  0  0
   11.2429   24.9700    0.9571 C   0  0  0  0  0  0  0  0  0  0  0  0
    7.1469   21.6299    5.6188 C   0  0  0  0  0  0  0  0  0  0  0  0
    7.5028   22.9341    5.1285 C   0  0  0  0  0  0  0  0  0  0  0  0
    7.3623   23.2922    3.8063 C   0  0  0  0  0  0  0  0  0  0  0  0
    7.6767   24.5686    3.3235 C   0  0  0  0  0  0  0  0  0  0  0  0
    8.1524   25.5328    4.2008 C   0  0  0  0  0  0  0  0  0  0  0  0
    8.2964   25.1884    5.5203 C   0  0  0  0  0  0  0  0  0  0  0  0
    7.9809   23.9264    5.9695 C   0  0  0  0  0  0  0  0  0  0  0  0
 25 26  1  0  0  0
 26 27  1  0  0  0
 26 24  1  0  0  0
 24  6  1  0  0  0
  6  2  1  0  0  0
  2  3  1  0  0  0
  3  4  2  0  0  0
  3  1  1  0  0  0
  1 60  1  0  0  0
 60 61  1  0  0  0
 61 62  2  0  0  0
 62 63  1  0  0  0
 63 64  2  0  0  0
 64 65  1  0  0  0
 65 66  2  0  0  0
  1 28  1  0  0  0
 28 29  1  0  0  0
 29 30  2  0  0  0
 29 32  1  0  0  0
 32 33  1  0  0  0
 33 34  1  0  0  0
 34 35  2  0  0  0
 34 37  1  0  0  0
 37 38  1  0  0  0
 38 39  1  0  0  0
 39 40  2  0  0  0
 39 42  1  0  0  0
 42 43  1  0  0  0
 42 46  1  0  0  0
 46 47  1  0  0  0
 47 48  2  0  0  0
 48 49  1  0  0  0
 49 50  1  0  0  0
 50 51  2  0  0  0
 51 52  1  0  0  0
 52 53  2  0  0  0
 53 54  1  0  0  0
 54 55  2  0  0  0
 37 57  1  0  0  0
 57 58  1  0  0  0
 57 59  1  0  0  0
  6  7  1  0  0  0
  7  8  2  0  0  0
  7  9  1  0  0  0
  9 11  1  0  0  0
 11 17  1  0  0  0
 17 18  1  0  0  0
 18 19  2  0  0  0
 19 20  1  0  0  0
 20 21  2  0  0  0
 21 22  1  0  0  0
 22 23  2  0  0  0
 11 12  1  0  0  0
 12 13  1  0  0  0
 12 14  2  0  0  0
 66 61  1  0  0  0
 55 47  1  0  0  0
 23 18  1  0  0  0
 55 50  1  0  0  0
  2  5  1  0  0  0
 28 31  1  0  0  0
 33 36  1  0  0  0
 38 41  1  0  0  0
 43 44  1  0  0  0
 43 45  1  0  0  0
 49 56  1  0  0  0
  9 10  1  0  0  0
 13 15  1  0  0  0
 13 16  1  0  0  0
M  END
> <minimizedAffinity>
-9.35643

> <CNNscore>
0.0988388211

> <CNNaffinity>
7.3440613747

> <CNN_VS>
0.7258783579

> <CNNaffinity_variance>
0.9688600302

$$$$
[H]c1c([H])c([H])c(C([H])([H])[C@@]([H])(C(=O)N([H])[H])N([H])C(=O)[C@@]([H])(N([H])C(=O)[C@@]([H])(N([H])C(=O)C([H])([H])N([H])C(=O)[C@@]([H])(N([H])C(=O)[C@@]([H])(N([H])[H])C([H])([H])c2c([H])n([H])c3c([H])c([H])c([H])c([H])c23)C([H])(C([H])([H])[H])C([H])([H])[H])C([H])([H])c2c([H])c([H])c([H])c([H])c2[H])C([H])([H])C([H])(C([H])([H])[H])C([H])([H])[H])c([H])c1[H]


 66 69  0  0  0  0  0  0  0  0999 V2000
    7.5498   24.2180    3.5184 C   0  0  0  0  0  0  0  0  0  0  0  0
    9.0596   23.5687    1.5752 N   0  0  0  0  0  0  0  0  0  0  0  0
    7.8700   23.4655    2.3104 C   0  0  0  0  0  0  0  0  0  0  0  0
    7.0165   22.6555    1.8764 O   0  0  0  0  0  0  0  0  0  0  0  0
    9.7674   24.2684    1.9623 H   0  0  0  0  0  0  0  0  0  0  0  0
    9.4577   22.9108    0.3821 C   0  0  0  0  0  0  0  0  0  0  0  0
   10.3121   21.7069    0.5565 C   0  0  0  0  0  0  0  0  0  0  0  0
   10.2186   20.7637   -0.2628 O   0  0  0  0  0  0  0  0  0  0  0  0
   11.2239   21.5972    1.6182 N   0  0  0  0  0  0  0  0  0  0  0  0
   11.2887   22.3414    2.3431 H   0  0  0  0  0  0  0  0  0  0  0  0
   12.0849   20.4308    1.7376 C   0  0  0  0  0  0  0  0  0  0  0  0
   11.8604   19.8502    3.1326 C   0  0  0  0  0  0  0  0  0  0  0  0
   11.8017   20.6591    4.2840 N   0  0  0  0  0  0  0  0  0  0  0  0
   11.7297   18.6062    3.2136 O   0  0  0  0  0  0  0  0  0  0  0  0
   12.3869   20.3778    5.0843 H   0  0  0  0  0  0  0  0  0  0  0  0
   11.1658   21.5127    4.2847 H   0  0  0  0  0  0  0  0  0  0  0  0
   13.5275   20.6999    1.5693 C   0  0  0  0  0  0  0  0  0  0  0  0
   13.8752   21.3692    0.2699 C   0  0  0  0  0  0  0  0  0  0  0  0
   13.5852   20.7983   -0.9464 C   0  0  0  0  0  0  0  0  0  0  0  0
   13.9250   21.4149   -2.1504 C   0  0  0  0  0  0  0  0  0  0  0  0
   14.5701   22.6332   -2.1084 C   0  0  0  0  0  0  0  0  0  0  0  0
   14.8707   23.2251   -0.8867 C   0  0  0  0  0  0  0  0  0  0  0  0
   14.5191   22.5825    0.2681 C   0  0  0  0  0  0  0  0  0  0  0  0
    9.9548   23.8543   -0.6670 C   0  0  0  0  0  0  0  0  0  0  0  0
   11.8059   24.9848   -1.7650 C   0  0  0  0  0  0  0  0  0  0  0  0
   11.4364   24.1600   -0.5222 C   0  0  0  0  0  0  0  0  0  0  0  0
   11.7348   25.0245    0.6747 C   0  0  0  0  0  0  0  0  0  0  0  0
    7.7120   23.4157    4.7461 N   0  0  0  0  0  0  0  0  0  0  0  0
    8.8531   22.7214    5.0996 C   0  0  0  0  0  0  0  0  0  0  0  0
    9.9193   22.7277    4.3406 O   0  0  0  0  0  0  0  0  0  0  0  0
    6.8718   23.3951    5.3930 H   0  0  0  0  0  0  0  0  0  0  0  0
    9.0334   21.9336    6.3050 C   0  0  0  0  0  0  0  0  0  0  0  0
    8.0172   20.9371    6.5951 N   0  0  0  0  0  0  0  0  0  0  0  0
    8.0767   19.6499    6.0395 C   0  0  0  0  0  0  0  0  0  0  0  0
    9.0974   19.4415    5.2835 O   0  0  0  0  0  0  0  0  0  0  0  0
    7.2372   21.2053    7.2087 H   0  0  0  0  0  0  0  0  0  0  0  0
    7.0965   18.5874    6.2587 C   0  0  0  0  0  0  0  0  0  0  0  0
    6.8426   17.8526    5.0190 N   0  0  0  0  0  0  0  0  0  0  0  0
    5.5638   17.7446    4.4061 C   0  0  0  0  0  0  0  0  0  0  0  0
    4.5705   18.3118    4.9212 O   0  0  0  0  0  0  0  0  0  0  0  0
    7.6590   17.3917    4.5681 H   0  0  0  0  0  0  0  0  0  0  0  0
    5.3746   16.9722    3.1593 C   0  0  0  0  0  0  0  0  0  0  0  0
    5.3633   15.5568    3.3494 N   0  0  0  0  0  0  0  0  0  0  0  0
    5.6640   14.9718    2.5705 H   0  0  0  0  0  0  0  0  0  0  0  0
    4.5245   15.2226    3.8815 H   0  0  0  0  0  0  0  0  0  0  0  0
    4.2662   17.5472    2.3441 C   0  0  0  0  0  0  0  0  0  0  0  0
    4.6987   18.7046    1.5327 C   0  0  0  0  0  0  0  0  0  0  0  0
    4.3294   20.0326    1.6940 C   0  0  0  0  0  0  0  0  0  0  0  0
    4.9500   20.7542    0.7489 N   0  0  0  0  0  0  0  0  0  0  0  0
    5.7134   19.9537   -0.0297 C   0  0  0  0  0  0  0  0  0  0  0  0
    6.5048   20.2584   -1.1212 C   0  0  0  0  0  0  0  0  0  0  0  0
    7.1811   19.2418   -1.7688 C   0  0  0  0  0  0  0  0  0  0  0  0
    7.0523   17.9458   -1.3120 C   0  0  0  0  0  0  0  0  0  0  0  0
    6.2582   17.6744   -0.2227 C   0  0  0  0  0  0  0  0  0  0  0  0
    5.5594   18.6763    0.4570 C   0  0  0  0  0  0  0  0  0  0  0  0
    4.8404   21.7856    0.6460 H   0  0  0  0  0  0  0  0  0  0  0  0
    7.3553   17.5690    7.3131 C   0  0  0  0  0  0  0  0  0  0  0  0
    7.9847   16.3329    6.6042 C   0  0  0  0  0  0  0  0  0  0  0  0
    6.1014   17.0011    7.9717 C   0  0  0  0  0  0  0  0  0  0  0  0
    7.9299   25.6064    3.7036 C   0  0  0  0  0  0  0  0  0  0  0  0
    7.0160   26.7161    3.6666 C   0  0  0  0  0  0  0  0  0  0  0  0
    5.7273   26.6307    4.1445 C   0  0  0  0  0  0  0  0  0  0  0  0
    4.8387   27.7131    4.1417 C   0  0  0  0  0  0  0  0  0  0  0  0
    5.2555   28.9378    3.6398 C   0  0  0  0  0  0  0  0  0  0  0  0
    6.5369   29.0356    3.1613 C   0  0  0  0  0  0  0  0  0  0  0  0
    7.3906   27.9562    3.1747 C   0  0  0  0  0  0  0  0  0  0  0  0
 25 26  1  0  0  0
 26 27  1  0  0  0
 26 24  1  0  0  0
 24  6  1  0  0  0
  6  2  1  0  0  0
  2  3  1  0  0  0
  3  4  2  0  0  0
  3  1  1  0  0  0
  1 60  1  0  0  0
 60 61  1  0  0  0
 61 62  2  0  0  0
 62 63  1  0  0  0
 63 64  2  0  0  0
 64 65  1  0  0  0
 65 66  2  0  0  0
  1 28  1  0  0  0
 28 29  1  0  0  0
 29 30  2  0  0  0
 29 32  1  0  0  0
 32 33  1  0  0  0
 33 34  1  0  0  0
 34 35  2  0  0  0
 34 37  1  0  0  0
 37 38  1  0  0  0
 38 39  1  0  0  0
 39 40  2  0  0  0
 39 42  1  0  0  0
 42 43  1  0  0  0
 42 46  1  0  0  0
 46 47  1  0  0  0
 47 48  2  0  0  0
 48 49  1  0  0  0
 49 50  1  0  0  0
 50 51  2  0  0  0
 51 52  1  0  0  0
 52 53  2  0  0  0
 53 54  1  0  0  0
 54 55  2  0  0  0
 37 57  1  0  0  0
 57 58  1  0  0  0
 57 59  1  0  0  0
  6  7  1  0  0  0
  7  8  2  0  0  0
  7  9  1  0  0  0
  9 11  1  0  0  0
 11 17  1  0  0  0
 17 18  1  0  0  0
 18 19  2  0  0  0
 19 20  1  0  0  0
 20 21  2  0  0  0
 21 22  1  0  0  0
 22 23  2  0  0  0
 11 12  1  0  0  0
 12 13  1  0  0  0
 12 14  2  0  0  0
 66 61  1  0  0  0
 55 47  1  0  0  0
 23 18  1  0  0  0
 55 50  1  0  0  0
  2  5  1  0  0  0
 28 31  1  0  0  0
 33 36  1  0  0  0
 38 41  1  0  0  0
 43 44  1  0  0  0
 43 45  1  0  0  0
 49 56  1  0  0  0
  9 10  1  0  0  0
 13 15  1  0  0  0
 13 16  1  0  0  0
M  END
> <minimizedAffinity>
-8.46569

> <CNNscore>
0.0985520929

> <CNNaffinity>
6.8011260033

> <CNN_VS>
0.6702651978

> <CNNaffinity_variance>
2.6236925125

$$$$
[H]O[C@]1([H])C([H])([H])C([H])([H])[C@@]([H])(C([H])([H])N([H])C(=O)c2c(C([H])([H])[H])c(/C([H])=C3\C(=O)N([H])c4c([H])c([H])c(F)c([H])c43)n([H])c2C([H])([H])[H])C([H])([H])C1([H])[H]


 34 37  0  0  0  0  0  0  0  0999 V2000
   10.1413   25.1621   -3.4398 C   0  0  0  0  0  0  0  0  0  0  0  0
   11.5301   25.4217   -2.9218 C   0  0  0  0  0  0  0  0  0  0  0  0
   12.4439   26.1766   -3.5819 N   0  0  0  0  0  0  0  0  0  0  0  0
   13.6017   26.2598   -2.9384 C   0  0  0  0  0  0  0  0  0  0  0  0
   13.4154   25.5066   -1.7905 C   0  0  0  0  0  0  0  0  0  0  0  0
   14.4770   25.3124   -0.7453 C   0  0  0  0  0  0  0  0  0  0  0  0
   12.1198   24.9798   -1.7741 C   0  0  0  0  0  0  0  0  0  0  0  0
   12.2414   26.6201   -4.5015 H   0  0  0  0  0  0  0  0  0  0  0  0
   14.8234   26.9650   -3.2590 C   0  0  0  0  0  0  0  0  0  0  0  0
   16.0399   26.5332   -2.9960 C   0  0  0  0  0  0  0  0  0  0  0  0
   16.4104   25.2834   -2.3499 C   0  0  0  0  0  0  0  0  0  0  0  0
   15.6374   24.3848   -1.9508 O   0  0  0  0  0  0  0  0  0  0  0  0
   17.8475   25.2933   -2.2682 N   0  0  0  0  0  0  0  0  0  0  0  0
   18.3458   26.4992   -2.8414 C   0  0  0  0  0  0  0  0  0  0  0  0
   19.6430   26.9800   -3.0046 C   0  0  0  0  0  0  0  0  0  0  0  0
   19.8735   28.1948   -3.5987 C   0  0  0  0  0  0  0  0  0  0  0  0
   18.8277   28.9698   -4.0487 C   0  0  0  0  0  0  0  0  0  0  0  0
   19.0098   30.1651   -4.6361 F   0  0  0  0  0  0  0  0  0  0  0  0
   17.5339   28.4663   -3.8740 C   0  0  0  0  0  0  0  0  0  0  0  0
   17.2994   27.2626   -3.2857 C   0  0  0  0  0  0  0  0  0  0  0  0
   18.4101   24.5323   -1.8536 H   0  0  0  0  0  0  0  0  0  0  0  0
   11.5574   24.1609   -0.7311 C   0  0  0  0  0  0  0  0  0  0  0  0
   11.2803   24.8109    0.3572 O   0  0  0  0  0  0  0  0  0  0  0  0
   11.2781   22.7902   -0.7437 N   0  0  0  0  0  0  0  0  0  0  0  0
   11.4467   22.1813   -1.5441 H   0  0  0  0  0  0  0  0  0  0  0  0
   10.7067   22.1881    0.4462 C   0  0  0  0  0  0  0  0  0  0  0  0
   11.8153   21.7992    1.4330 C   0  0  0  0  0  0  0  0  0  0  0  0
   12.1213   20.3696    1.1932 C   0  0  0  0  0  0  0  0  0  0  0  0
   13.5582   19.9842    1.2964 C   0  0  0  0  0  0  0  0  0  0  0  0
   14.3107   20.9437    0.3608 C   0  0  0  0  0  0  0  0  0  0  0  0
   15.5982   20.5021    0.2062 O   0  0  0  0  0  0  0  0  0  0  0  0
   14.2735   22.2647    1.0943 C   0  0  0  0  0  0  0  0  0  0  0  0
   12.9150   22.7632    1.3932 C   0  0  0  0  0  0  0  0  0  0  0  0
   15.8907   20.7554   -0.7229 H   0  0  0  0  0  0  0  0  0  0  0  0
  1  2  1  0  0  0
  2  3  1  0  0  0
  3  4  1  0  0  0
  4  9  1  0  0  0
  9 10  2  0  0  0
 10 11  1  0  0  0
 11 12  2  0  0  0
 11 13  1  0  0  0
 13 14  1  0  0  0
 14 15  2  0  0  0
 15 16  1  0  0  0
 16 17  2  0  0  0
 17 18  1  0  0  0
 17 19  1  0  0  0
 19 20  2  0  0  0
  4  5  2  0  0  0
  5  6  1  0  0  0
  5  7  1  0  0  0
  7 22  1  0  0  0
 22 23  2  0  0  0
 22 24  1  0  0  0
 24 26  1  0  0  0
 26 27  1  0  0  0
 27 28  1  0  0  0
 28 29  1  0  0  0
 29 30  1  0  0  0
 30 31  1  0  0  0
 30 32  1  0  0  0
 32 33  1  0  0  0
  7  2  2  0  0  0
 33 27  1  0  0  0
 20 10  1  0  0  0
 20 14  1  0  0  0
  3  8  1  0  0  0
 13 21  1  0  0  0
 24 25  1  0  0  0
 31 34  1  0  0  0
M  END
> <minimizedAffinity>
15.38515

> <CNNscore>
0.5869928002

> <CNNaffinity>
7.3137106895

> <CNN_VS>
4.2930955887

> <CNNaffinity_variance>
1.6691433191

$$$$
[H]O[C@]1([H])C([H])([H])C([H])([H])[C@@]([H])(C([H])([H])N([H])C(=O)c2c(C([H])([H])[H])c(/C([H])=C3\C(=O)N([H])c4c([H])c([H])c(F)c([H])c43)n([H])c2C([H])([H])[H])C([H])([H])C1([H])[H]


 34 37  0  0  0  0  0  0  0  0999 V2000
   12.0528   27.0406   -1.1449 C   0  0  0  0  0  0  0  0  0  0  0  0
   12.9052   25.9654   -1.7630 C   0  0  0  0  0  0  0  0  0  0  0  0
   13.4742   26.0770   -2.9895 N   0  0  0  0  0  0  0  0  0  0  0  0
   14.1749   25.0024   -3.3297 C   0  0  0  0  0  0  0  0  0  0  0  0
   14.0441   24.1463   -2.2481 C   0  0  0  0  0  0  0  0  0  0  0  0
   14.6789   22.7861   -2.1863 C   0  0  0  0  0  0  0  0  0  0  0  0
   13.2506   24.7441   -1.2635 C   0  0  0  0  0  0  0  0  0  0  0  0
   13.3474   26.9185   -3.5888 H   0  0  0  0  0  0  0  0  0  0  0  0
   14.9509   24.7043   -4.5136 C   0  0  0  0  0  0  0  0  0  0  0  0
   15.2174   25.5581   -5.4809 C   0  0  0  0  0  0  0  0  0  0  0  0
   14.8067   26.9514   -5.5638 C   0  0  0  0  0  0  0  0  0  0  0  0
   14.1466   27.5928   -4.7170 O   0  0  0  0  0  0  0  0  0  0  0  0
   15.3189   27.4388   -6.8176 N   0  0  0  0  0  0  0  0  0  0  0  0
   16.0189   26.3905   -7.4826 C   0  0  0  0  0  0  0  0  0  0  0  0
   16.6870   26.3528   -8.7043 C   0  0  0  0  0  0  0  0  0  0  0  0
   17.2965   25.2027   -9.1375 C   0  0  0  0  0  0  0  0  0  0  0  0
   17.2628   24.0562   -8.3752 C   0  0  0  0  0  0  0  0  0  0  0  0
   17.8468   22.9091   -8.7626 F   0  0  0  0  0  0  0  0  0  0  0  0
   16.5861   24.1181   -7.1521 C   0  0  0  0  0  0  0  0  0  0  0  0
   15.9801   25.2556   -6.7175 C   0  0  0  0  0  0  0  0  0  0  0  0
   15.1872   28.4041   -7.1620 H   0  0  0  0  0  0  0  0  0  0  0  0
   12.9097   24.1636    0.0098 C   0  0  0  0  0  0  0  0  0  0  0  0
   12.0981   24.8869    0.7181 O   0  0  0  0  0  0  0  0  0  0  0  0
   13.3308   22.9499    0.5637 N   0  0  0  0  0  0  0  0  0  0  0  0
   13.9604   22.2979    0.0966 H   0  0  0  0  0  0  0  0  0  0  0  0
   12.8428   22.5821    1.8796 C   0  0  0  0  0  0  0  0  0  0  0  0
   11.8429   21.4232    1.7736 C   0  0  0  0  0  0  0  0  0  0  0  0
   12.6334   20.1704    1.8009 C   0  0  0  0  0  0  0  0  0  0  0  0
   12.0269   19.0331    2.5511 C   0  0  0  0  0  0  0  0  0  0  0  0
   11.6980   19.5881    3.9462 C   0  0  0  0  0  0  0  0  0  0  0  0
   11.3673   18.5495    4.7758 O   0  0  0  0  0  0  0  0  0  0  0  0
   10.5097   20.4900    3.7038 C   0  0  0  0  0  0  0  0  0  0  0  0
   10.7533   21.5805    2.7371 C   0  0  0  0  0  0  0  0  0  0  0  0
   11.6696   18.8002    5.7025 H   0  0  0  0  0  0  0  0  0  0  0  0
  1  2  1  0  0  0
  2  3  1  0  0  0
  3  4  1  0  0  0
  4  9  1  0  0  0
  9 10  2  0  0  0
 10 11  1  0  0  0
 11 12  2  0  0  0
 11 13  1  0  0  0
 13 14  1  0  0  0
 14 15  2  0  0  0
 15 16  1  0  0  0
 16 17  2  0  0  0
 17 18  1  0  0  0
 17 19  1  0  0  0
 19 20  2  0  0  0
  4  5  2  0  0  0
  5  6  1  0  0  0
  5  7  1  0  0  0
  7 22  1  0  0  0
 22 23  2  0  0  0
 22 24  1  0  0  0
 24 26  1  0  0  0
 26 27  1  0  0  0
 27 28  1  0  0  0
 28 29  1  0  0  0
 29 30  1  0  0  0
 30 31  1  0  0  0
 30 32  1  0  0  0
 32 33  1  0  0  0
  7  2  2  0  0  0
 33 27  1  0  0  0
 20 10  1  0  0  0
 20 14  1  0  0  0
  3  8  1  0  0  0
 13 21  1  0  0  0
 24 25  1  0  0  0
 31 34  1  0  0  0
M  END
> <minimizedAffinity>
13.15195

> <CNNscore>
0.5730523467

> <CNNaffinity>
6.9615478516

> <CNN_VS>
3.9893312454

> <CNNaffinity_variance>
0.7652257681

$$$$
[H]O[C@]1([H])C([H])([H])C([H])([H])[C@@]([H])(C([H])([H])N([H])C(=O)c2c(C([H])([H])[H])c(/C([H])=C3\C(=O)N([H])c4c([H])c([H])c(F)c([H])c43)n([H])c2C([H])([H])[H])C([H])([H])C1([H])[H]


 34 37  0  0  0  0  0  0  0  0999 V2000
   14.3393   20.4120    0.9607 C   0  0  0  0  0  0  0  0  0  0  0  0
   13.8289   21.6410    0.2581 C   0  0  0  0  0  0  0  0  0  0  0  0
   14.4036   22.1555   -0.8579 N   0  0  0  0  0  0  0  0  0  0  0  0
   13.7870   23.2459   -1.2965 C   0  0  0  0  0  0  0  0  0  0  0  0
   12.7490   23.4417   -0.3999 C   0  0  0  0  0  0  0  0  0  0  0  0
   11.7701   24.5769   -0.5003 C   0  0  0  0  0  0  0  0  0  0  0  0
   12.7696   22.4394    0.5756 C   0  0  0  0  0  0  0  0  0  0  0  0
   15.2475   21.7325   -1.2964 H   0  0  0  0  0  0  0  0  0  0  0  0
   14.0409   24.0900   -2.4435 C   0  0  0  0  0  0  0  0  0  0  0  0
   15.0257   24.9594   -2.5424 C   0  0  0  0  0  0  0  0  0  0  0  0
   16.0495   25.2473   -1.5494 C   0  0  0  0  0  0  0  0  0  0  0  0
   16.1895   24.7009   -0.4332 O   0  0  0  0  0  0  0  0  0  0  0  0
   16.8679   26.2862   -2.1176 N   0  0  0  0  0  0  0  0  0  0  0  0
   16.3717   26.6263   -3.4096 C   0  0  0  0  0  0  0  0  0  0  0  0
   16.8047   27.5555   -4.3527 C   0  0  0  0  0  0  0  0  0  0  0  0
   16.1491   27.7016   -5.5488 C   0  0  0  0  0  0  0  0  0  0  0  0
   15.0459   26.9330   -5.8471 C   0  0  0  0  0  0  0  0  0  0  0  0
   14.3752   27.0444   -7.0067 F   0  0  0  0  0  0  0  0  0  0  0  0
   14.6296   26.0066   -4.8847 C   0  0  0  0  0  0  0  0  0  0  0  0
   15.2758   25.8574   -3.6971 C   0  0  0  0  0  0  0  0  0  0  0  0
   17.6845   26.7057   -1.6435 H   0  0  0  0  0  0  0  0  0  0  0  0
   11.8342   22.3033    1.6624 C   0  0  0  0  0  0  0  0  0  0  0  0
   12.3356   21.7480    2.7225 O   0  0  0  0  0  0  0  0  0  0  0  0
   10.4896   22.6855    1.7182 N   0  0  0  0  0  0  0  0  0  0  0  0
    9.9926   23.1362    0.9503 H   0  0  0  0  0  0  0  0  0  0  0  0
    9.7486   22.4375    2.9407 C   0  0  0  0  0  0  0  0  0  0  0  0
    9.6177   23.7298    3.7573 C   0  0  0  0  0  0  0  0  0  0  0  0
    9.4512   24.8362    2.7862 C   0  0  0  0  0  0  0  0  0  0  0  0
    8.5028   25.9160    3.1845 C   0  0  0  0  0  0  0  0  0  0  0  0
    7.1894   25.2010    3.5396 C   0  0  0  0  0  0  0  0  0  0  0  0
    6.1944   26.1324    3.6774 O   0  0  0  0  0  0  0  0  0  0  0  0
    7.4910   24.5283    4.8590 C   0  0  0  0  0  0  0  0  0  0  0  0
    8.6237   23.5803    4.8202 C   0  0  0  0  0  0  0  0  0  0  0  0
    5.3363   25.6980    3.3810 H   0  0  0  0  0  0  0  0  0  0  0  0
  1  2  1  0  0  0
  2  3  1  0  0  0
  3  4  1  0  0  0
  4  9  1  0  0  0
  9 10  2  0  0  0
 10 11  1  0  0  0
 11 12  2  0  0  0
 11 13  1  0  0  0
 13 14  1  0  0  0
 14 15  2  0  0  0
 15 16  1  0  0  0
 16 17  2  0  0  0
 17 18  1  0  0  0
 17 19  1  0  0  0
 19 20  2  0  0  0
  4  5  2  0  0  0
  5  6  1  0  0  0
  5  7  1  0  0  0
  7 22  1  0  0  0
 22 23  2  0  0  0
 22 24  1  0  0  0
 24 26  1  0  0  0
 26 27  1  0  0  0
 27 28  1  0  0  0
 28 29  1  0  0  0
 29 30  1  0  0  0
 30 31  1  0  0  0
 30 32  1  0  0  0
 32 33  1  0  0  0
  7  2  2  0  0  0
 33 27  1  0  0  0
 20 10  1  0  0  0
 20 14  1  0  0  0
  3  8  1  0  0  0
 13 21  1  0  0  0
 24 25  1  0  0  0
 31 34  1  0  0  0
M  END
> <minimizedAffinity>
-10.75269

> <CNNscore>
0.5338571072

> <CNNaffinity>
7.2440199852

> <CNN_VS>
3.8672716618

> <CNNaffinity_variance>
0.0126326289

$$$$
[H]O[C@]1([H])C([H])([H])C([H])([H])[C@@]([H])(C([H])([H])N([H])C(=O)c2c(C([H])([H])[H])c(/C([H])=C3\C(=O)N([H])c4c([H])c([H])c(F)c([H])c43)n([H])c2C([H])([H])[H])C([H])([H])C1([H])[H]


 34 37  0  0  0  0  0  0  0  0999 V2000
   11.1762   25.4764    0.2052 C   0  0  0  0  0  0  0  0  0  0  0  0
   12.2699   25.1670   -0.7810 C   0  0  0  0  0  0  0  0  0  0  0  0
   12.5718   25.9655   -1.8355 N   0  0  0  0  0  0  0  0  0  0  0  0
   13.5666   25.4877   -2.5727 C   0  0  0  0  0  0  0  0  0  0  0  0
   13.9237   24.3037   -1.9478 C   0  0  0  0  0  0  0  0  0  0  0  0
   15.0232   23.4058   -2.4396 C   0  0  0  0  0  0  0  0  0  0  0  0
   13.1157   24.0978   -0.8248 C   0  0  0  0  0  0  0  0  0  0  0  0
   12.0540   26.8462   -2.0345 H   0  0  0  0  0  0  0  0  0  0  0  0
   14.2177   26.0127   -3.7530 C   0  0  0  0  0  0  0  0  0  0  0  0
   14.7118   25.2852   -4.7338 C   0  0  0  0  0  0  0  0  0  0  0  0
   14.7044   23.8345   -4.8445 C   0  0  0  0  0  0  0  0  0  0  0  0
   14.2043   23.0210   -4.0369 O   0  0  0  0  0  0  0  0  0  0  0  0
   15.3869   23.5300   -6.0747 N   0  0  0  0  0  0  0  0  0  0  0  0
   15.7987   24.7425   -6.7001 C   0  0  0  0  0  0  0  0  0  0  0  0
   16.4828   24.9853   -7.8890 C   0  0  0  0  0  0  0  0  0  0  0  0
   16.7688   26.2665   -8.2871 C   0  0  0  0  0  0  0  0  0  0  0  0
   16.3866   27.3452   -7.5209 C   0  0  0  0  0  0  0  0  0  0  0  0
   16.6467   28.6158   -7.8745 F   0  0  0  0  0  0  0  0  0  0  0  0
   15.7007   27.0769   -6.3312 C   0  0  0  0  0  0  0  0  0  0  0  0
   15.4144   25.8087   -5.9316 C   0  0  0  0  0  0  0  0  0  0  0  0
   15.5427   22.5722   -6.4298 H   0  0  0  0  0  0  0  0  0  0  0  0
   13.2050   22.9835    0.0835 C   0  0  0  0  0  0  0  0  0  0  0  0
   13.4186   23.3251    1.3169 O   0  0  0  0  0  0  0  0  0  0  0  0
   13.0919   21.6160   -0.1890 N   0  0  0  0  0  0  0  0  0  0  0  0
   12.9172   21.2321   -1.1173 H   0  0  0  0  0  0  0  0  0  0  0  0
   13.2220   20.6772    0.9096 C   0  0  0  0  0  0  0  0  0  0  0  0
   11.8377   20.2243    1.3917 C   0  0  0  0  0  0  0  0  0  0  0  0
   12.0540   19.0682    2.2927 C   0  0  0  0  0  0  0  0  0  0  0  0
   11.1606   18.9945    3.4845 C   0  0  0  0  0  0  0  0  0  0  0  0
   11.2920   20.3571    4.1833 C   0  0  0  0  0  0  0  0  0  0  0  0
   10.6991   20.2882    5.4163 O   0  0  0  0  0  0  0  0  0  0  0  0
   10.5434   21.3025    3.2722 C   0  0  0  0  0  0  0  0  0  0  0  0
   11.0581   21.3582    1.8883 C   0  0  0  0  0  0  0  0  0  0  0  0
   11.2099   20.9033    6.0275 H   0  0  0  0  0  0  0  0  0  0  0  0
  1  2  1  0  0  0
  2  3  1  0  0  0
  3  4  1  0  0  0
  4  9  1  0  0  0
  9 10  2  0  0  0
 10 11  1  0  0  0
 11 12  2  0  0  0
 11 13  1  0  0  0
 13 14  1  0  0  0
 14 15  2  0  0  0
 15 16  1  0  0  0
 16 17  2  0  0  0
 17 18  1  0  0  0
 17 19  1  0  0  0
 19 20  2  0  0  0
  4  5  2  0  0  0
  5  6  1  0  0  0
  5  7  1  0  0  0
  7 22  1  0  0  0
 22 23  2  0  0  0
 22 24  1  0  0  0
 24 26  1  0  0  0
 26 27  1  0  0  0
 27 28  1  0  0  0
 28 29  1  0  0  0
 29 30  1  0  0  0
 30 31  1  0  0  0
 30 32  1  0  0  0
 32 33  1  0  0  0
  7  2  2  0  0  0
 33 27  1  0  0  0
 20 10  1  0  0  0
 20 14  1  0  0  0
  3  8  1  0  0  0
 13 21  1  0  0  0
 24 25  1  0  0  0
 31 34  1  0  0  0
M  END
> <minimizedAffinity>
4.00050

> <CNNscore>
0.5323904753

> <CNNaffinity>
7.3388719559

> <CNN_VS>
3.9071455002

> <CNNaffinity_variance>
1.2684949636

$$$$
[H]O[C@]1([H])C([H])([H])C([H])([H])[C@@]([H])(C([H])([H])N([H])C(=O)c2c(C([H])([H])[H])c(/C([H])=C3\C(=O)N([H])c4c([H])c([H])c(F)c([H])c43)n([H])c2C([H])([H])[H])C([H])([H])C1([H])[H]


 34 37  0  0  0  0  0  0  0  0999 V2000
   13.5395   20.6393    1.3331 C   0  0  0  0  0  0  0  0  0  0  0  0
   13.0558   21.7242    0.4093 C   0  0  0  0  0  0  0  0  0  0  0  0
   13.8333   22.2924   -0.5464 N   0  0  0  0  0  0  0  0  0  0  0  0
   13.1965   23.2318   -1.2344 C   0  0  0  0  0  0  0  0  0  0  0  0
   11.9270   23.2669   -0.6804 C   0  0  0  0  0  0  0  0  0  0  0  0
   10.8438   24.1966   -1.1488 C   0  0  0  0  0  0  0  0  0  0  0  0
   11.8325   22.3246    0.3489 C   0  0  0  0  0  0  0  0  0  0  0  0
   14.8257   22.0161   -0.6950 H   0  0  0  0  0  0  0  0  0  0  0  0
   13.6256   24.0631   -2.3378 C   0  0  0  0  0  0  0  0  0  0  0  0
   14.7152   24.8033   -2.3510 C   0  0  0  0  0  0  0  0  0  0  0  0
   15.7020   24.9372   -1.2902 C   0  0  0  0  0  0  0  0  0  0  0  0
   15.7021   24.3522   -0.1848 O   0  0  0  0  0  0  0  0  0  0  0  0
   16.6776   25.8771   -1.7765 N   0  0  0  0  0  0  0  0  0  0  0  0
   16.3103   26.3064   -3.0849 C   0  0  0  0  0  0  0  0  0  0  0  0
   16.9144   27.1947   -3.9716 C   0  0  0  0  0  0  0  0  0  0  0  0
   16.3590   27.4495   -5.1998 C   0  0  0  0  0  0  0  0  0  0  0  0
   15.1898   26.8332   -5.5869 C   0  0  0  0  0  0  0  0  0  0  0  0
   14.6128   27.0547   -6.7807 F   0  0  0  0  0  0  0  0  0  0  0  0
   14.6014   25.9450   -4.6798 C   0  0  0  0  0  0  0  0  0  0  0  0
   15.1476   25.6886   -3.4608 C   0  0  0  0  0  0  0  0  0  0  0  0
   17.5086   26.1794   -1.2418 H   0  0  0  0  0  0  0  0  0  0  0  0
   10.6603   22.0602    1.1430 C   0  0  0  0  0  0  0  0  0  0  0  0
   10.0509   20.9577    0.8318 O   0  0  0  0  0  0  0  0  0  0  0  0
   10.1114   22.8211    2.1807 N   0  0  0  0  0  0  0  0  0  0  0  0
   10.5076   23.6991    2.5152 H   0  0  0  0  0  0  0  0  0  0  0  0
    8.9091   22.3380    2.8335 C   0  0  0  0  0  0  0  0  0  0  0  0
    9.2251   21.8801    4.2634 C   0  0  0  0  0  0  0  0  0  0  0  0
    8.4669   20.6278    4.4905 C   0  0  0  0  0  0  0  0  0  0  0  0
    9.1633   19.5801    5.2914 C   0  0  0  0  0  0  0  0  0  0  0  0
   10.5193   19.3662    4.6000 C   0  0  0  0  0  0  0  0  0  0  0  0
   11.1180   18.2501    5.1220 O   0  0  0  0  0  0  0  0  0  0  0  0
   11.3000   20.6135    4.9449 C   0  0  0  0  0  0  0  0  0  0  0  0
   10.6678   21.8748    4.5059 C   0  0  0  0  0  0  0  0  0  0  0  0
   11.6582   17.8291    4.3845 H   0  0  0  0  0  0  0  0  0  0  0  0
  1  2  1  0  0  0
  2  3  1  0  0  0
  3  4  1  0  0  0
  4  9  1  0  0  0
  9 10  2  0  0  0
 10 11  1  0  0  0
 11 12  2  0  0  0
 11 13  1  0  0  0
 13 14  1  0  0  0
 14 15  2  0  0  0
 15 16  1  0  0  0
 16 17  2  0  0  0
 17 18  1  0  0  0
 17 19  1  0  0  0
 19 20  2  0  0  0
  4  5  2  0  0  0
  5  6  1  0  0  0
  5  7  1  0  0  0
  7 22  1  0  0  0
 22 23  2  0  0  0
 22 24  1  0  0  0
 24 26  1  0  0  0
 26 27  1  0  0  0
 27 28  1  0  0  0
 28 29  1  0  0  0
 29 30  1  0  0  0
 30 31  1  0  0  0
 30 32  1  0  0  0
 32 33  1  0  0  0
  7  2  2  0  0  0
 33 27  1  0  0  0
 20 10  1  0  0  0
 20 14  1  0  0  0
  3  8  1  0  0  0
 13 21  1  0  0  0
 24 25  1  0  0  0
 31 34  1  0  0  0
M  END
> <minimizedAffinity>
-9.78090

> <CNNscore>
0.4876739979

> <CNNaffinity>
7.1853208542

> <CNN_VS>
3.5040941238

> <CNNaffinity_variance>
0.0928632766

$$$$
[H]O[C@]1([H])C([H])([H])C([H])([H])[C@@]([H])(C([H])([H])N([H])C(=O)c2c(C([H])([H])[H])c(/C([H])=C3\C(=O)N([H])c4c([H])c([H])c(F)c([H])c43)n([H])c2C([H])([H])[H])C([H])([H])C1([H])[H]


 34 37  0  0  0  0  0  0  0  0999 V2000
   12.8551   20.0868   -0.6039 C   0  0  0  0  0  0  0  0  0  0  0  0
   12.7004   21.5157   -1.0497 C   0  0  0  0  0  0  0  0  0  0  0  0
   13.6228   22.1670   -1.8019 N   0  0  0  0  0  0  0  0  0  0  0  0
   13.2764   23.4205   -2.0669 C   0  0  0  0  0  0  0  0  0  0  0  0
   12.0507   23.5812   -1.4410 C   0  0  0  0  0  0  0  0  0  0  0  0
   11.2669   24.8625   -1.4705 C   0  0  0  0  0  0  0  0  0  0  0  0
   11.6844   22.3917   -0.8029 C   0  0  0  0  0  0  0  0  0  0  0  0
   14.5079   21.7162   -2.1128 H   0  0  0  0  0  0  0  0  0  0  0  0
   13.9368   24.4505   -2.8385 C   0  0  0  0  0  0  0  0  0  0  0  0
   15.0612   25.0481   -2.5005 C   0  0  0  0  0  0  0  0  0  0  0  0
   15.8660   24.8041   -1.3132 C   0  0  0  0  0  0  0  0  0  0  0  0
   15.6442   23.9641   -0.4136 O   0  0  0  0  0  0  0  0  0  0  0  0
   16.9698   25.7248   -1.3898 N   0  0  0  0  0  0  0  0  0  0  0  0
   16.8533   26.5057   -2.5763 C   0  0  0  0  0  0  0  0  0  0  0  0
   17.6541   27.5175   -3.1012 C   0  0  0  0  0  0  0  0  0  0  0  0
   17.3276   28.1308   -4.2841 C   0  0  0  0  0  0  0  0  0  0  0  0
   16.1994   27.7614   -4.9823 C   0  0  0  0  0  0  0  0  0  0  0  0
   15.8437   28.3363   -6.1442 F   0  0  0  0  0  0  0  0  0  0  0  0
   15.4107   26.7430   -4.4357 C   0  0  0  0  0  0  0  0  0  0  0  0
   15.7296   26.1314   -3.2634 C   0  0  0  0  0  0  0  0  0  0  0  0
   17.7195   25.7917   -0.6819 H   0  0  0  0  0  0  0  0  0  0  0  0
   10.4669   22.1727   -0.0652 C   0  0  0  0  0  0  0  0  0  0  0  0
   10.4826   22.6649    1.1353 O   0  0  0  0  0  0  0  0  0  0  0  0
    9.3001   21.5151   -0.4695 N   0  0  0  0  0  0  0  0  0  0  0  0
    9.1714   21.0966   -1.3904 H   0  0  0  0  0  0  0  0  0  0  0  0
    8.1962   21.4229    0.4675 C   0  0  0  0  0  0  0  0  0  0  0  0
    6.9289   20.9351   -0.2467 C   0  0  0  0  0  0  0  0  0  0  0  0
    7.3727   20.0831   -1.3745 C   0  0  0  0  0  0  0  0  0  0  0  0
    6.5360   18.8801   -1.6513 C   0  0  0  0  0  0  0  0  0  0  0  0
    6.4343   18.1317   -0.3127 C   0  0  0  0  0  0  0  0  0  0  0  0
    5.8930   16.8924   -0.5314 O   0  0  0  0  0  0  0  0  0  0  0  0
    5.5052   18.9929    0.5115 C   0  0  0  0  0  0  0  0  0  0  0  0
    5.9684   20.3822    0.7082 C   0  0  0  0  0  0  0  0  0  0  0  0
    6.2980   16.2667    0.1449 H   0  0  0  0  0  0  0  0  0  0  0  0
  1  2  1  0  0  0
  2  3  1  0  0  0
  3  4  1  0  0  0
  4  9  1  0  0  0
  9 10  2  0  0  0
 10 11  1  0  0  0
 11 12  2  0  0  0
 11 13  1  0  0  0
 13 14  1  0  0  0
 14 15  2  0  0  0
 15 16  1  0  0  0
 16 17  2  0  0  0
 17 18  1  0  0  0
 17 19  1  0  0  0
 19 20  2  0  0  0
  4  5  2  0  0  0
  5  6  1  0  0  0
  5  7  1  0  0  0
  7 22  1  0  0  0
 22 23  2  0  0  0
 22 24  1  0  0  0
 24 26  1  0  0  0
 26 27  1  0  0  0
 27 28  1  0  0  0
 28 29  1  0  0  0
 29 30  1  0  0  0
 30 31  1  0  0  0
 30 32  1  0  0  0
 32 33  1  0  0  0
  7  2  2  0  0  0
 33 27  1  0  0  0
 20 10  1  0  0  0
 20 14  1  0  0  0
  3  8  1  0  0  0
 13 21  1  0  0  0
 24 25  1  0  0  0
 31 34  1  0  0  0
M  END
> <minimizedAffinity>
-8.99723

> <CNNscore>
0.4861854613

> <CNNaffinity>
7.2336030006

> <CNN_VS>
3.5168726444

> <CNNaffinity_variance>
0.2214882374

$$$$
[H]O[C@]1([H])C([H])([H])C([H])([H])[C@@]([H])(C([H])([H])N([H])C(=O)c2c(C([H])([H])[H])c(/C([H])=C3\C(=O)N([H])c4c([H])c([H])c(F)c([H])c43)n([H])c2C([H])([H])[H])C([H])([H])C1([H])[H]


 34 37  0  0  0  0  0  0  0  0999 V2000
   14.3978   20.4012    0.9392 C   0  0  0  0  0  0  0  0  0  0  0  0
   13.8401   21.5782    0.1855 C   0  0  0  0  0  0  0  0  0  0  0  0
   14.4554   22.1374   -0.8865 N   0  0  0  0  0  0  0  0  0  0  0  0
   13.7832   23.1680   -1.3841 C   0  0  0  0  0  0  0  0  0  0  0  0
   12.6635   23.2750   -0.5750 C   0  0  0  0  0  0  0  0  0  0  0  0
   11.6006   24.3195   -0.7647 C   0  0  0  0  0  0  0  0  0  0  0  0
   12.6932   22.2817    0.4094 C   0  0  0  0  0  0  0  0  0  0  0  0
   15.3654   21.7886   -1.2521 H   0  0  0  0  0  0  0  0  0  0  0  0
   14.0537   24.0272   -2.5160 C   0  0  0  0  0  0  0  0  0  0  0  0
   15.0257   24.9141   -2.5799 C   0  0  0  0  0  0  0  0  0  0  0  0
   16.0170   25.2098   -1.5568 C   0  0  0  0  0  0  0  0  0  0  0  0
   16.1360   24.6552   -0.4421 O   0  0  0  0  0  0  0  0  0  0  0  0
   16.8326   26.2677   -2.0928 N   0  0  0  0  0  0  0  0  0  0  0  0
   16.3660   26.6117   -3.3948 C   0  0  0  0  0  0  0  0  0  0  0  0
   16.8084   27.5572   -4.3172 C   0  0  0  0  0  0  0  0  0  0  0  0
   16.1831   27.7036   -5.5294 C   0  0  0  0  0  0  0  0  0  0  0  0
   15.1018   26.9193   -5.8647 C   0  0  0  0  0  0  0  0  0  0  0  0
   14.4611   27.0305   -7.0412 F   0  0  0  0  0  0  0  0  0  0  0  0
   14.6755   25.9768   -4.9225 C   0  0  0  0  0  0  0  0  0  0  0  0
   15.2916   25.8272   -3.7192 C   0  0  0  0  0  0  0  0  0  0  0  0
   17.6287   26.6965   -1.5928 H   0  0  0  0  0  0  0  0  0  0  0  0
   11.6892   22.0678    1.4197 C   0  0  0  0  0  0  0  0  0  0  0  0
   12.1684   21.9289    2.6175 O   0  0  0  0  0  0  0  0  0  0  0  0
   10.2995   21.9942    1.2765 N   0  0  0  0  0  0  0  0  0  0  0  0
    9.8118   22.0959    0.3868 H   0  0  0  0  0  0  0  0  0  0  0  0
    9.4917   21.7671    2.4601 C   0  0  0  0  0  0  0  0  0  0  0  0
    8.0249   22.1202    2.1813 C   0  0  0  0  0  0  0  0  0  0  0  0
    7.8780   22.2140    0.7101 C   0  0  0  0  0  0  0  0  0  0  0  0
    6.6007   21.6886    0.1476 C   0  0  0  0  0  0  0  0  0  0  0  0
    6.4677   20.2578    0.6930 C   0  0  0  0  0  0  0  0  0  0  0  0
    5.4532   19.6178    0.0314 O   0  0  0  0  0  0  0  0  0  0  0  0
    6.1240   20.4589    2.1510 C   0  0  0  0  0  0  0  0  0  0  0  0
    7.1229   21.2334    2.9163 C   0  0  0  0  0  0  0  0  0  0  0  0
    5.6998   18.6435   -0.0214 H   0  0  0  0  0  0  0  0  0  0  0  0
  1  2  1  0  0  0
  2  3  1  0  0  0
  3  4  1  0  0  0
  4  9  1  0  0  0
  9 10  2  0  0  0
 10 11  1  0  0  0
 11 12  2  0  0  0
 11 13  1  0  0  0
 13 14  1  0  0  0
 14 15  2  0  0  0
 15 16  1  0  0  0
 16 17  2  0  0  0
 17 18  1  0  0  0
 17 19  1  0  0  0
 19 20  2  0  0  0
  4  5  2  0  0  0
  5  6  1  0  0  0
  5  7  1  0  0  0
  7 22  1  0  0  0
 22 23  2  0  0  0
 22 24  1  0  0  0
 24 26  1  0  0  0
 26 27  1  0  0  0
 27 28  1  0  0  0
 28 29  1  0  0  0
 29 30  1  0  0  0
 30 31  1  0  0  0
 30 32  1  0  0  0
 32 33  1  0  0  0
  7  2  2  0  0  0
 33 27  1  0  0  0
 20 10  1  0  0  0
 20 14  1  0  0  0
  3  8  1  0  0  0
 13 21  1  0  0  0
 24 25  1  0  0  0
 31 34  1  0  0  0
M  END
> <minimizedAffinity>
-9.76669

> <CNNscore>
0.4764142931

> <CNNaffinity>
7.3373436928

> <CNN_VS>
3.4956154823

> <CNNaffinity_variance>
0.3004249334

$$$$
[H]O[C@]1([H])C([H])([H])C([H])([H])[C@@]([H])(C([H])([H])N([H])C(=O)c2c(C([H])([H])[H])c(/C([H])=C3\C(=O)N([H])c4c([H])c([H])c(F)c([H])c43)n([H])c2C([H])([H])[H])C([H])([H])C1([H])[H]


 34 37  0  0  0  0  0  0  0  0999 V2000
   13.1728   20.1401   -0.8384 C   0  0  0  0  0  0  0  0  0  0  0  0
   13.5377   21.5899   -0.6670 C   0  0  0  0  0  0  0  0  0  0  0  0
   14.4116   22.2402   -1.4756 N   0  0  0  0  0  0  0  0  0  0  0  0
   14.5841   23.5097   -1.1291 C   0  0  0  0  0  0  0  0  0  0  0  0
   13.7660   23.6818   -0.0242 C   0  0  0  0  0  0  0  0  0  0  0  0
   13.6370   24.9822    0.7170 C   0  0  0  0  0  0  0  0  0  0  0  0
   13.1076   22.4833    0.2697 C   0  0  0  0  0  0  0  0  0  0  0  0
   14.8956   21.7689   -2.2674 H   0  0  0  0  0  0  0  0  0  0  0  0
   15.3911   24.5579   -1.7147 C   0  0  0  0  0  0  0  0  0  0  0  0
   15.0014   25.3660   -2.6793 C   0  0  0  0  0  0  0  0  0  0  0  0
   13.7069   25.3850   -3.3433 C   0  0  0  0  0  0  0  0  0  0  0  0
   12.7246   24.6509   -3.0977 O   0  0  0  0  0  0  0  0  0  0  0  0
   13.7893   26.4234   -4.3367 N   0  0  0  0  0  0  0  0  0  0  0  0
   15.0812   27.0231   -4.2886 C   0  0  0  0  0  0  0  0  0  0  0  0
   15.6513   28.0550   -5.0306 C   0  0  0  0  0  0  0  0  0  0  0  0
   16.9392   28.4636   -4.7935 C   0  0  0  0  0  0  0  0  0  0  0  0
   17.7011   27.8633   -3.8158 C   0  0  0  0  0  0  0  0  0  0  0  0
   18.9662   28.2331   -3.5515 F   0  0  0  0  0  0  0  0  0  0  0  0
   17.1073   26.8294   -3.0835 C   0  0  0  0  0  0  0  0  0  0  0  0
   15.8308   26.4202   -3.3141 C   0  0  0  0  0  0  0  0  0  0  0  0
   13.0178   26.6775   -4.9754 H   0  0  0  0  0  0  0  0  0  0  0  0
   12.1624   22.2821    1.3377 C   0  0  0  0  0  0  0  0  0  0  0  0
   12.6381   21.6142    2.3433 O   0  0  0  0  0  0  0  0  0  0  0  0
   10.8321   22.7060    1.4259 N   0  0  0  0  0  0  0  0  0  0  0  0
   10.3555   23.2428    0.7017 H   0  0  0  0  0  0  0  0  0  0  0  0
   10.0764   22.3740    2.6191 C   0  0  0  0  0  0  0  0  0  0  0  0
    9.8987   23.6165    3.5016 C   0  0  0  0  0  0  0  0  0  0  0  0
    9.5469   24.7374    2.5989 C   0  0  0  0  0  0  0  0  0  0  0  0
    8.5415   25.7059    3.1234 C   0  0  0  0  0  0  0  0  0  0  0  0
    7.3355   24.8557    3.5538 C   0  0  0  0  0  0  0  0  0  0  0  0
    6.2748   25.6819    3.8162 O   0  0  0  0  0  0  0  0  0  0  0  0
    7.8116   24.1662    4.8116 C   0  0  0  0  0  0  0  0  0  0  0  0
    9.0192   23.3330    4.6357 C   0  0  0  0  0  0  0  0  0  0  0  0
    5.4378   25.1788    3.5728 H   0  0  0  0  0  0  0  0  0  0  0  0
  1  2  1  0  0  0
  2  3  1  0  0  0
  3  4  1  0  0  0
  4  9  1  0  0  0
  9 10  2  0  0  0
 10 11  1  0  0  0
 11 12  2  0  0  0
 11 13  1  0  0  0
 13 14  1  0  0  0
 14 15  2  0  0  0
 15 16  1  0  0  0
 16 17  2  0  0  0
 17 18  1  0  0  0
 17 19  1  0  0  0
 19 20  2  0  0  0
  4  5  2  0  0  0
  5  6  1  0  0  0
  5  7  1  0  0  0
  7 22  1  0  0  0
 22 23  2  0  0  0
 22 24  1  0  0  0
 24 26  1  0  0  0
 26 27  1  0  0  0
 27 28  1  0  0  0
 28 29  1  0  0  0
 29 30  1  0  0  0
 30 31  1  0  0  0
 30 32  1  0  0  0
 32 33  1  0  0  0
  7  2  2  0  0  0
 33 27  1  0  0  0
 20 10  1  0  0  0
 20 14  1  0  0  0
  3  8  1  0  0  0
 13 21  1  0  0  0
 24 25  1  0  0  0
 31 34  1  0  0  0
M  END
> <minimizedAffinity>
-8.64542

> <CNNscore>
0.3927026391

> <CNNaffinity>
7.0412497520

> <CNN_VS>
2.7651174068

> <CNNaffinity_variance>
0.2746389508

$$$$
[H]O[C@]1([H])C([H])([H])C([H])([H])[C@@]([H])(C([H])([H])N([H])C(=O)c2c(C([H])([H])[H])c(/C([H])=C3\C(=O)N([H])c4c([H])c([H])c(F)c([H])c43)n([H])c2C([H])([H])[H])C([H])([H])C1([H])[H]


 34 37  0  0  0  0  0  0  0  0999 V2000
   14.5847   21.0827    0.6098 C   0  0  0  0  0  0  0  0  0  0  0  0
   14.1420   22.4128    0.0626 C   0  0  0  0  0  0  0  0  0  0  0  0
   14.7668   23.0430   -0.9635 N   0  0  0  0  0  0  0  0  0  0  0  0
   14.2053   24.2061   -1.2695 C   0  0  0  0  0  0  0  0  0  0  0  0
   13.1515   24.3275   -0.3782 C   0  0  0  0  0  0  0  0  0  0  0  0
   12.2207   25.5064   -0.3511 C   0  0  0  0  0  0  0  0  0  0  0  0
   13.1062   23.2073    0.4581 C   0  0  0  0  0  0  0  0  0  0  0  0
   15.6053   22.6453   -1.4347 H   0  0  0  0  0  0  0  0  0  0  0  0
   14.5234   25.1803   -2.2904 C   0  0  0  0  0  0  0  0  0  0  0  0
   14.8926   24.8952   -3.5224 C   0  0  0  0  0  0  0  0  0  0  0  0
   15.0497   23.5741   -4.1114 C   0  0  0  0  0  0  0  0  0  0  0  0
   14.8377   22.4732   -3.5570 O   0  0  0  0  0  0  0  0  0  0  0  0
   15.4950   23.7956   -5.4621 N   0  0  0  0  0  0  0  0  0  0  0  0
   15.6077   25.1963   -5.6996 C   0  0  0  0  0  0  0  0  0  0  0  0
   15.9926   25.9162   -6.8284 C   0  0  0  0  0  0  0  0  0  0  0  0
   16.0216   27.2875   -6.8121 C   0  0  0  0  0  0  0  0  0  0  0  0
   15.6710   27.9872   -5.6788 C   0  0  0  0  0  0  0  0  0  0  0  0
   15.6857   29.3301   -5.6208 F   0  0  0  0  0  0  0  0  0  0  0  0
   15.2880   27.2429   -4.5576 C   0  0  0  0  0  0  0  0  0  0  0  0
   15.2573   25.8832   -4.5680 C   0  0  0  0  0  0  0  0  0  0  0  0
   15.6960   23.0402   -6.1379 H   0  0  0  0  0  0  0  0  0  0  0  0
   12.1367   22.9710    1.4968 C   0  0  0  0  0  0  0  0  0  0  0  0
   12.6411   22.4779    2.5859 O   0  0  0  0  0  0  0  0  0  0  0  0
   10.7569   23.2014    1.4805 N   0  0  0  0  0  0  0  0  0  0  0  0
   10.2534   23.5917    0.6844 H   0  0  0  0  0  0  0  0  0  0  0  0
    9.9857   22.8759    2.6655 C   0  0  0  0  0  0  0  0  0  0  0  0
    9.6538   21.3781    2.6919 C   0  0  0  0  0  0  0  0  0  0  0  0
   10.7365   20.6855    1.9551 C   0  0  0  0  0  0  0  0  0  0  0  0
   11.1638   19.3688    2.5099 C   0  0  0  0  0  0  0  0  0  0  0  0
   11.4908   19.6310    3.9886 C   0  0  0  0  0  0  0  0  0  0  0  0
   12.1246   18.5339    4.5095 O   0  0  0  0  0  0  0  0  0  0  0  0
   10.1354   19.8300    4.6272 C   0  0  0  0  0  0  0  0  0  0  0  0
    9.3408   20.9340    4.0502 C   0  0  0  0  0  0  0  0  0  0  0  0
   12.7671   18.8653    5.2097 H   0  0  0  0  0  0  0  0  0  0  0  0
  1  2  1  0  0  0
  2  3  1  0  0  0
  3  4  1  0  0  0
  4  9  1  0  0  0
  9 10  2  0  0  0
 10 11  1  0  0  0
 11 12  2  0  0  0
 11 13  1  0  0  0
 13 14  1  0  0  0
 14 15  2  0  0  0
 15 16  1  0  0  0
 16 17  2  0  0  0
 17 18  1  0  0  0
 17 19  1  0  0  0
 19 20  2  0  0  0
  4  5  2  0  0  0
  5  6  1  0  0  0
  5  7  1  0  0  0
  7 22  1  0  0  0
 22 23  2  0  0  0
 22 24  1  0  0  0
 24 26  1  0  0  0
 26 27  1  0  0  0
 27 28  1  0  0  0
 28 29  1  0  0  0
 29 30  1  0  0  0
 30 31  1  0  0  0
 30 32  1  0  0  0
 32 33  1  0  0  0
  7  2  2  0  0  0
 33 27  1  0  0  0
 20 10  1  0  0  0
 20 14  1  0  0  0
  3  8  1  0  0  0
 13 21  1  0  0  0
 24 25  1  0  0  0
 31 34  1  0  0  0
M  END
> <minimizedAffinity>
-7.51701

> <CNNscore>
0.3686988950

> <CNNaffinity>
7.0744886398

> <CNN_VS>
2.6083562374

> <CNNaffinity_variance>
0.1507966220

$$$$
[H]c1c([H])c([H])c2c([H])c(S(=O)(=O)n3c4c([H])c([H])c([H])c([H])c4c4c([H])c(OC([H])([H])[H])c([H])c([H])c43)c([H])c([H])c2c1[H]


 28 32  0  0  0  0  0  0  0  0999 V2000
   13.8108   20.5942   -3.6685 C   0  0  0  0  0  0  0  0  0  0  0  0
   14.6785   21.6431   -3.7339 C   0  0  0  0  0  0  0  0  0  0  0  0
   14.8106   22.5221   -2.6589 C   0  0  0  0  0  0  0  0  0  0  0  0
   14.0708   22.3665   -1.4902 C   0  0  0  0  0  0  0  0  0  0  0  0
   14.0328   23.0632   -0.3455 N   0  0  0  0  0  0  0  0  0  0  0  0
   13.1154   22.4170    0.4431 C   0  0  0  0  0  0  0  0  0  0  0  0
   12.6631   22.6702    1.7114 C   0  0  0  0  0  0  0  0  0  0  0  0
   11.7024   21.8303    2.2835 C   0  0  0  0  0  0  0  0  0  0  0  0
   11.2105   20.7546    1.5816 C   0  0  0  0  0  0  0  0  0  0  0  0
   11.6505   20.4812    0.3060 C   0  0  0  0  0  0  0  0  0  0  0  0
   12.5984   21.3254   -0.2347 C   0  0  0  0  0  0  0  0  0  0  0  0
   13.2159   21.3016   -1.4709 C   0  0  0  0  0  0  0  0  0  0  0  0
   13.0705   20.4205   -2.5237 C   0  0  0  0  0  0  0  0  0  0  0  0
   14.9035   24.4822    0.0410 S   0  0  0  0  0  0  0  0  0  0  0  0
   16.1532   24.1275    0.8635 O   0  0  0  0  0  0  0  0  0  0  0  0
   14.1360   25.4107    0.9272 O   0  0  0  0  0  0  0  0  0  0  0  0
   15.3911   25.4233   -1.3536 C   0  0  0  0  0  0  0  0  0  0  0  0
   16.6646   26.0077   -1.3341 C   0  0  0  0  0  0  0  0  0  0  0  0
   17.1666   26.7479   -2.3791 C   0  0  0  0  0  0  0  0  0  0  0  0
   16.3595   26.9095   -3.4900 C   0  0  0  0  0  0  0  0  0  0  0  0
   16.8104   27.6476   -4.5799 C   0  0  0  0  0  0  0  0  0  0  0  0
   16.0069   27.8091   -5.6870 C   0  0  0  0  0  0  0  0  0  0  0  0
   14.7576   27.2379   -5.7103 C   0  0  0  0  0  0  0  0  0  0  0  0
   14.2706   26.4992   -4.6541 C   0  0  0  0  0  0  0  0  0  0  0  0
   15.1034   26.3489   -3.5418 C   0  0  0  0  0  0  0  0  0  0  0  0
   14.6358   25.6159   -2.4785 C   0  0  0  0  0  0  0  0  0  0  0  0
   13.7720   20.0012   -6.0513 C   0  0  0  0  0  0  0  0  0  0  0  0
   13.6180   19.6775   -4.6857 O   0  0  0  0  0  0  0  0  0  0  0  0
 27 28  1  0  0  0
 28  1  1  0  0  0
  1  2  2  0  0  0
  2  3  1  0  0  0
  3  4  2  0  0  0
  4  5  1  0  0  0
  5  6  1  0  0  0
  6  7  2  0  0  0
  7  8  1  0  0  0
  8  9  2  0  0  0
  9 10  1  0  0  0
 10 11  2  0  0  0
 11 12  1  0  0  0
 12 13  2  0  0  0
  5 14  1  0  0  0
 14 15  2  0  0  0
 14 16  2  0  0  0
 14 17  1  0  0  0
 17 18  2  0  0  0
 18 19  1  0  0  0
 19 20  2  0  0  0
 20 21  1  0  0  0
 21 22  2  0  0  0
 22 23  1  0  0  0
 23 24  2  0  0  0
 24 25  1  0  0  0
 25 26  2  0  0  0
 13  1  1  0  0  0
 26 17  1  0  0  0
 12  4  1  0  0  0
 25 20  1  0  0  0
 11  6  1  0  0  0
M  END
> <minimizedAffinity>
0.50287

> <CNNscore>
0.5821526051

> <CNNaffinity>
7.2935194969

> <CNN_VS>
4.2459411621

> <CNNaffinity_variance>
0.3204045892

$$$$
[H]c1c([H])c([H])c2c([H])c(S(=O)(=O)n3c4c([H])c([H])c([H])c([H])c4c4c([H])c(OC([H])([H])[H])c([H])c([H])c43)c([H])c([H])c2c1[H]


 28 32  0  0  0  0  0  0  0  0999 V2000
   16.0706   27.8482   -7.1305 C   0  0  0  0  0  0  0  0  0  0  0  0
   15.6267   26.6128   -7.4965 C   0  0  0  0  0  0  0  0  0  0  0  0
   15.5044   25.5945   -6.5512 C   0  0  0  0  0  0  0  0  0  0  0  0
   15.8272   25.7953   -5.2122 C   0  0  0  0  0  0  0  0  0  0  0  0
   15.7847   24.9892   -4.1419 N   0  0  0  0  0  0  0  0  0  0  0  0
   16.2135   25.7582   -3.0903 C   0  0  0  0  0  0  0  0  0  0  0  0
   16.3770   25.4750   -1.7597 C   0  0  0  0  0  0  0  0  0  0  0  0
   16.8403   26.4698   -0.8930 C   0  0  0  0  0  0  0  0  0  0  0  0
   17.1320   27.7273   -1.3677 C   0  0  0  0  0  0  0  0  0  0  0  0
   16.9752   28.0342   -2.7006 C   0  0  0  0  0  0  0  0  0  0  0  0
   16.5168   27.0347   -3.5340 C   0  0  0  0  0  0  0  0  0  0  0  0
   16.2665   27.0484   -4.8932 C   0  0  0  0  0  0  0  0  0  0  0  0
   16.3944   28.0696   -5.8133 C   0  0  0  0  0  0  0  0  0  0  0  0
   15.3375   23.3402   -4.0954 S   0  0  0  0  0  0  0  0  0  0  0  0
   16.5903   22.4512   -4.1613 O   0  0  0  0  0  0  0  0  0  0  0  0
   14.5326   22.9235   -5.2848 O   0  0  0  0  0  0  0  0  0  0  0  0
   14.3994   22.8940   -2.6850 C   0  0  0  0  0  0  0  0  0  0  0  0
   13.1726   23.5410   -2.4853 C   0  0  0  0  0  0  0  0  0  0  0  0
   12.3385   23.2585   -1.4286 C   0  0  0  0  0  0  0  0  0  0  0  0
   12.7504   22.2875   -0.5347 C   0  0  0  0  0  0  0  0  0  0  0  0
   11.9509   21.9566    0.5550 C   0  0  0  0  0  0  0  0  0  0  0  0
   12.3606   20.9894    1.4460 C   0  0  0  0  0  0  0  0  0  0  0  0
   13.5628   20.3526    1.2541 C   0  0  0  0  0  0  0  0  0  0  0  0
   14.3860   20.6482    0.1896 C   0  0  0  0  0  0  0  0  0  0  0  0
   13.9497   21.6328   -0.7014 C   0  0  0  0  0  0  0  0  0  0  0  0
   14.7565   21.9418   -1.7691 C   0  0  0  0  0  0  0  0  0  0  0  0
   16.9904   28.8348   -9.1826 C   0  0  0  0  0  0  0  0  0  0  0  0
   16.2213   28.9118   -8.0012 O   0  0  0  0  0  0  0  0  0  0  0  0
 27 28  1  0  0  0
 28  1  1  0  0  0
  1  2  2  0  0  0
  2  3  1  0  0  0
  3  4  2  0  0  0
  4  5  1  0  0  0
  5  6  1  0  0  0
  6  7  2  0  0  0
  7  8  1  0  0  0
  8  9  2  0  0  0
  9 10  1  0  0  0
 10 11  2  0  0  0
 11 12  1  0  0  0
 12 13  2  0  0  0
  5 14  1  0  0  0
 14 15  2  0  0  0
 14 16  2  0  0  0
 14 17  1  0  0  0
 17 18  2  0  0  0
 18 19  1  0  0  0
 19 20  2  0  0  0
 20 21  1  0  0  0
 21 22  2  0  0  0
 22 23  1  0  0  0
 23 24  2  0  0  0
 24 25  1  0  0  0
 25 26  2  0  0  0
 13  1  1  0  0  0
 26 17  1  0  0  0
 12  4  1  0  0  0
 25 20  1  0  0  0
 11  6  1  0  0  0
M  END
> <minimizedAffinity>
12.20067

> <CNNscore>
0.5003955960

> <CNNaffinity>
6.2695417404

> <CNN_VS>
3.1372511387

> <CNNaffinity_variance>
0.3656477034

$$$$
[H]c1c([H])c([H])c2c([H])c(S(=O)(=O)n3c4c([H])c([H])c([H])c([H])c4c4c([H])c(OC([H])([H])[H])c([H])c([H])c43)c([H])c([H])c2c1[H]


 28 32  0  0  0  0  0  0  0  0999 V2000
   12.5945   27.5054   -3.5152 C   0  0  0  0  0  0  0  0  0  0  0  0
   12.1632   27.1456   -2.2734 C   0  0  0  0  0  0  0  0  0  0  0  0
   12.5743   25.9418   -1.7012 C   0  0  0  0  0  0  0  0  0  0  0  0
   13.4305   25.0691   -2.3666 C   0  0  0  0  0  0  0  0  0  0  0  0
   13.9589   23.8856   -2.0243 N   0  0  0  0  0  0  0  0  0  0  0  0
   14.7387   23.5138   -3.0895 C   0  0  0  0  0  0  0  0  0  0  0  0
   15.5160   22.4070   -3.3092 C   0  0  0  0  0  0  0  0  0  0  0  0
   16.2183   22.2830   -4.5120 C   0  0  0  0  0  0  0  0  0  0  0  0
   16.1333   23.2633   -5.4730 C   0  0  0  0  0  0  0  0  0  0  0  0
   15.3586   24.3839   -5.2738 C   0  0  0  0  0  0  0  0  0  0  0  0
   14.6761   24.4813   -4.0786 C   0  0  0  0  0  0  0  0  0  0  0  0
   13.8364   25.4724   -3.6067 C   0  0  0  0  0  0  0  0  0  0  0  0
   13.4413   26.6594   -4.1905 C   0  0  0  0  0  0  0  0  0  0  0  0
   13.6881   22.9987   -0.5886 S   0  0  0  0  0  0  0  0  0  0  0  0
   14.6498   23.4720    0.5139 O   0  0  0  0  0  0  0  0  0  0  0  0
   13.9953   21.5429   -0.7390 O   0  0  0  0  0  0  0  0  0  0  0  0
   12.0456   23.0960    0.0121 C   0  0  0  0  0  0  0  0  0  0  0  0
   11.0928   22.2356   -0.5497 C   0  0  0  0  0  0  0  0  0  0  0  0
    9.7789   22.2036   -0.1441 C   0  0  0  0  0  0  0  0  0  0  0  0
    9.4035   23.0694    0.8664 C   0  0  0  0  0  0  0  0  0  0  0  0
    8.0885   23.0848    1.3208 C   0  0  0  0  0  0  0  0  0  0  0  0
    7.7138   23.9471    2.3275 C   0  0  0  0  0  0  0  0  0  0  0  0
    8.6447   24.7924    2.8812 C   0  0  0  0  0  0  0  0  0  0  0  0
    9.9572   24.8110    2.4625 C   0  0  0  0  0  0  0  0  0  0  0  0
   10.3143   23.9275    1.4400 C   0  0  0  0  0  0  0  0  0  0  0  0
   11.6182   23.9311    1.0086 C   0  0  0  0  0  0  0  0  0  0  0  0
   12.0868   29.9078   -3.4786 C   0  0  0  0  0  0  0  0  0  0  0  0
   12.2368   28.6778   -4.1552 O   0  0  0  0  0  0  0  0  0  0  0  0
 27 28  1  0  0  0
 28  1  1  0  0  0
  1  2  2  0  0  0
  2  3  1  0  0  0
  3  4  2  0  0  0
  4  5  1  0  0  0
  5  6  1  0  0  0
  6  7  2  0  0  0
  7  8  1  0  0  0
  8  9  2  0  0  0
  9 10  1  0  0  0
 10 11  2  0  0  0
 11 12  1  0  0  0
 12 13  2  0  0  0
  5 14  1  0  0  0
 14 15  2  0  0  0
 14 16  2  0  0  0
 14 17  1  0  0  0
 17 18  2  0  0  0
 18 19  1  0  0  0
 19 20  2  0  0  0
 20 21  1  0  0  0
 21 22  2  0  0  0
 22 23  1  0  0  0
 23 24  2  0  0  0
 24 25  1  0  0  0
 25 26  2  0  0  0
 13  1  1  0  0  0
 26 17  1  0  0  0
 12  4  1  0  0  0
 25 20  1  0  0  0
 11  6  1  0  0  0
M  END
> <minimizedAffinity>
3.77907

> <CNNscore>
0.4664438367

> <CNNaffinity>
6.6901268959

> <CNN_VS>
3.1205685139

> <CNNaffinity_variance>
0.5801211596

$$$$
[H]c1c([H])c([H])c2c([H])c(S(=O)(=O)n3c4c([H])c([H])c([H])c([H])c4c4c([H])c(OC([H])([H])[H])c([H])c([H])c43)c([H])c([H])c2c1[H]


 28 32  0  0  0  0  0  0  0  0999 V2000
   14.8932   26.4974   -4.0744 C   0  0  0  0  0  0  0  0  0  0  0  0
   14.7035   26.3863   -2.7295 C   0  0  0  0  0  0  0  0  0  0  0  0
   14.5587   25.1328   -2.1350 C   0  0  0  0  0  0  0  0  0  0  0  0
   14.6008   23.9587   -2.8815 C   0  0  0  0  0  0  0  0  0  0  0  0
   14.4969   22.6666   -2.5397 N   0  0  0  0  0  0  0  0  0  0  0  0
   14.6301   21.9685   -3.7127 C   0  0  0  0  0  0  0  0  0  0  0  0
   14.6097   20.6253   -3.9825 C   0  0  0  0  0  0  0  0  0  0  0  0
   14.7730   20.1819   -5.2987 C   0  0  0  0  0  0  0  0  0  0  0  0
   14.9535   21.0843   -6.3208 C   0  0  0  0  0  0  0  0  0  0  0  0
   14.9775   22.4384   -6.0729 C   0  0  0  0  0  0  0  0  0  0  0  0
   14.8139   22.8489   -4.7659 C   0  0  0  0  0  0  0  0  0  0  0  0
   14.7935   24.1201   -4.2238 C   0  0  0  0  0  0  0  0  0  0  0  0
   14.9391   25.3512   -4.8314 C   0  0  0  0  0  0  0  0  0  0  0  0
   14.2123   22.0191   -0.9838 S   0  0  0  0  0  0  0  0  0  0  0  0
   15.4998   22.0749   -0.1450 O   0  0  0  0  0  0  0  0  0  0  0  0
   13.8613   20.5658   -1.0153 O   0  0  0  0  0  0  0  0  0  0  0  0
   12.9264   22.8173   -0.1020 C   0  0  0  0  0  0  0  0  0  0  0  0
   11.7509   22.0929    0.1365 C   0  0  0  0  0  0  0  0  0  0  0  0
   10.6833   22.6045    0.8371 C   0  0  0  0  0  0  0  0  0  0  0  0
   10.7980   23.8954    1.3188 C   0  0  0  0  0  0  0  0  0  0  0  0
    9.7523   24.4694    2.0351 C   0  0  0  0  0  0  0  0  0  0  0  0
    9.8658   25.7554    2.5153 C   0  0  0  0  0  0  0  0  0  0  0  0
   11.0166   26.4693    2.2836 C   0  0  0  0  0  0  0  0  0  0  0  0
   12.0766   25.9409    1.5797 C   0  0  0  0  0  0  0  0  0  0  0  0
   11.9388   24.6345    1.1022 C   0  0  0  0  0  0  0  0  0  0  0  0
   12.9847   24.0901    0.3979 C   0  0  0  0  0  0  0  0  0  0  0  0
   16.3013   28.1951   -5.1541 C   0  0  0  0  0  0  0  0  0  0  0  0
   15.0454   27.6979   -4.7436 O   0  0  0  0  0  0  0  0  0  0  0  0
 27 28  1  0  0  0
 28  1  1  0  0  0
  1  2  2  0  0  0
  2  3  1  0  0  0
  3  4  2  0  0  0
  4  5  1  0  0  0
  5  6  1  0  0  0
  6  7  2  0  0  0
  7  8  1  0  0  0
  8  9  2  0  0  0
  9 10  1  0  0  0
 10 11  2  0  0  0
 11 12  1  0  0  0
 12 13  2  0  0  0
  5 14  1  0  0  0
 14 15  2  0  0  0
 14 16  2  0  0  0
 14 17  1  0  0  0
 17 18  2  0  0  0
 18 19  1  0  0  0
 19 20  2  0  0  0
 20 21  1  0  0  0
 21 22  2  0  0  0
 22 23  1  0  0  0
 23 24  2  0  0  0
 24 25  1  0  0  0
 25 26  2  0  0  0
 13  1  1  0  0  0
 26 17  1  0  0  0
 12  4  1  0  0  0
 25 20  1  0  0  0
 11  6  1  0  0  0
M  END
> <minimizedAffinity>
14.14290

> <CNNscore>
0.4470838010

> <CNNaffinity>
6.8793640137

> <CNN_VS>
3.0756521225

> <CNNaffinity_variance>
1.1790536642

$$$$
[H]c1c([H])c([H])c2c([H])c(S(=O)(=O)n3c4c([H])c([H])c([H])c([H])c4c4c([H])c(OC([H])([H])[H])c([H])c([H])c43)c([H])c([H])c2c1[H]


 28 32  0  0  0  0  0  0  0  0999 V2000
   15.3680   22.6828   -5.5126 C   0  0  0  0  0  0  0  0  0  0  0  0
   14.9740   21.4148   -5.2055 C   0  0  0  0  0  0  0  0  0  0  0  0
   14.5796   21.0895   -3.9077 C   0  0  0  0  0  0  0  0  0  0  0  0
   14.5728   22.0344   -2.8856 C   0  0  0  0  0  0  0  0  0  0  0  0
   14.2342   21.9619   -1.5906 N   0  0  0  0  0  0  0  0  0  0  0  0
   14.4252   23.2259   -1.0935 C   0  0  0  0  0  0  0  0  0  0  0  0
   14.2450   23.7507    0.1593 C   0  0  0  0  0  0  0  0  0  0  0  0
   14.5246   25.1013    0.3899 C   0  0  0  0  0  0  0  0  0  0  0  0
   14.9781   25.9034   -0.6312 C   0  0  0  0  0  0  0  0  0  0  0  0
   15.1664   25.3975   -1.8978 C   0  0  0  0  0  0  0  0  0  0  0  0
   14.8832   24.0621   -2.0981 C   0  0  0  0  0  0  0  0  0  0  0  0
   14.9745   23.2903   -3.2410 C   0  0  0  0  0  0  0  0  0  0  0  0
   15.3684   23.6326   -4.5192 C   0  0  0  0  0  0  0  0  0  0  0  0
   13.7180   20.5826   -0.7232 S   0  0  0  0  0  0  0  0  0  0  0  0
   14.9230   19.6890   -0.3864 O   0  0  0  0  0  0  0  0  0  0  0  0
   12.8199   19.6955   -1.5250 O   0  0  0  0  0  0  0  0  0  0  0  0
   12.8544   20.9505    0.7556 C   0  0  0  0  0  0  0  0  0  0  0  0
   12.0629   22.1066    0.7792 C   0  0  0  0  0  0  0  0  0  0  0  0
   11.3212   22.4860    1.8737 C   0  0  0  0  0  0  0  0  0  0  0  0
   11.3744   21.6735    2.9912 C   0  0  0  0  0  0  0  0  0  0  0  0
   10.6464   22.0034    4.1302 C   0  0  0  0  0  0  0  0  0  0  0  0
   10.6989   21.1945    5.2439 C   0  0  0  0  0  0  0  0  0  0  0  0
   11.4737   20.0600    5.2251 C   0  0  0  0  0  0  0  0  0  0  0  0
   12.2106   19.6950    4.1196 C   0  0  0  0  0  0  0  0  0  0  0  0
   12.1418   20.5309    3.0015 C   0  0  0  0  0  0  0  0  0  0  0  0
   12.8694   20.1840    1.8894 C   0  0  0  0  0  0  0  0  0  0  0  0
   16.9661   22.6388   -7.3766 C   0  0  0  0  0  0  0  0  0  0  0  0
   15.7736   23.0900   -6.7703 O   0  0  0  0  0  0  0  0  0  0  0  0
 27 28  1  0  0  0
 28  1  1  0  0  0
  1  2  2  0  0  0
  2  3  1  0  0  0
  3  4  2  0  0  0
  4  5  1  0  0  0
  5  6  1  0  0  0
  6  7  2  0  0  0
  7  8  1  0  0  0
  8  9  2  0  0  0
  9 10  1  0  0  0
 10 11  2  0  0  0
 11 12  1  0  0  0
 12 13  2  0  0  0
  5 14  1  0  0  0
 14 15  2  0  0  0
 14 16  2  0  0  0
 14 17  1  0  0  0
 17 18  2  0  0  0
 18 19  1  0  0  0
 19 20  2  0  0  0
 20 21  1  0  0  0
 21 22  2  0  0  0
 22 23  1  0  0  0
 23 24  2  0  0  0
 24 25  1  0  0  0
 25 26  2  0  0  0
 13  1  1  0  0  0
 26 17  1  0  0  0
 12  4  1  0  0  0
 25 20  1  0  0  0
 11  6  1  0  0  0
M  END
> <minimizedAffinity>
13.81124

> <CNNscore>
0.4275798202

> <CNNaffinity>
6.3913016319

> <CNN_VS>
2.7327916622

> <CNNaffinity_variance>
0.3845816255

$$$$
[H]c1c([H])c([H])c2c([H])c(S(=O)(=O)n3c4c([H])c([H])c([H])c([H])c4c4c([H])c(OC([H])([H])[H])c([H])c([H])c43)c([H])c([H])c2c1[H]


 28 32  0  0  0  0  0  0  0  0999 V2000
   15.2248   23.3013   -4.3865 C   0  0  0  0  0  0  0  0  0  0  0  0
   14.0033   22.7213   -4.5556 C   0  0  0  0  0  0  0  0  0  0  0  0
   13.3013   22.2148   -3.4618 C   0  0  0  0  0  0  0  0  0  0  0  0
   13.8133   22.2795   -2.1691 C   0  0  0  0  0  0  0  0  0  0  0  0
   13.3303   21.8774   -0.9850 N   0  0  0  0  0  0  0  0  0  0  0  0
   14.2862   22.2258   -0.0652 C   0  0  0  0  0  0  0  0  0  0  0  0
   14.3444   22.0687    1.2947 C   0  0  0  0  0  0  0  0  0  0  0  0
   15.4637   22.5269    1.9965 C   0  0  0  0  0  0  0  0  0  0  0  0
   16.5037   23.1327    1.3308 C   0  0  0  0  0  0  0  0  0  0  0  0
   16.4668   23.3013   -0.0351 C   0  0  0  0  0  0  0  0  0  0  0  0
   15.3510   22.8402   -0.7031 C   0  0  0  0  0  0  0  0  0  0  0  0
   15.0390   22.8697   -2.0492 C   0  0  0  0  0  0  0  0  0  0  0  0
   15.7497   23.3770   -3.1186 C   0  0  0  0  0  0  0  0  0  0  0  0
   11.8593   21.0620   -0.6812 S   0  0  0  0  0  0  0  0  0  0  0  0
   12.1387   19.6772   -0.0743 O   0  0  0  0  0  0  0  0  0  0  0  0
   11.0923   20.7640   -1.9300 O   0  0  0  0  0  0  0  0  0  0  0  0
   10.7645   21.9325    0.3733 C   0  0  0  0  0  0  0  0  0  0  0  0
    9.5418   22.3581   -0.1629 C   0  0  0  0  0  0  0  0  0  0  0  0
    8.5925   23.0285    0.5730 C   0  0  0  0  0  0  0  0  0  0  0  0
    8.8799   23.2833    1.9012 C   0  0  0  0  0  0  0  0  0  0  0  0
    7.9602   23.9578    2.6982 C   0  0  0  0  0  0  0  0  0  0  0  0
    8.2457   24.2120    4.0215 C   0  0  0  0  0  0  0  0  0  0  0  0
    9.4434   23.7965    4.5512 C   0  0  0  0  0  0  0  0  0  0  0  0
   10.3831   23.1258    3.7993 C   0  0  0  0  0  0  0  0  0  0  0  0
   10.0715   22.8791    2.4592 C   0  0  0  0  0  0  0  0  0  0  0  0
   10.9956   22.2117    1.6930 C   0  0  0  0  0  0  0  0  0  0  0  0
   16.6101   25.0920   -5.3379 C   0  0  0  0  0  0  0  0  0  0  0  0
   15.9867   23.8276   -5.4136 O   0  0  0  0  0  0  0  0  0  0  0  0
 27 28  1  0  0  0
 28  1  1  0  0  0
  1  2  2  0  0  0
  2  3  1  0  0  0
  3  4  2  0  0  0
  4  5  1  0  0  0
  5  6  1  0  0  0
  6  7  2  0  0  0
  7  8  1  0  0  0
  8  9  2  0  0  0
  9 10  1  0  0  0
 10 11  2  0  0  0
 11 12  1  0  0  0
 12 13  2  0  0  0
  5 14  1  0  0  0
 14 15  2  0  0  0
 14 16  2  0  0  0
 14 17  1  0  0  0
 17 18  2  0  0  0
 18 19  1  0  0  0
 19 20  2  0  0  0
 20 21  1  0  0  0
 21 22  2  0  0  0
 22 23  1  0  0  0
 23 24  2  0  0  0
 24 25  1  0  0  0
 25 26  2  0  0  0
 13  1  1  0  0  0
 26 17  1  0  0  0
 12  4  1  0  0  0
 25 20  1  0  0  0
 11  6  1  0  0  0
M  END
> <minimizedAffinity>
13.67523

> <CNNscore>
0.4138166904

> <CNNaffinity>
6.4827508926

> <CNN_VS>
2.6826705933

> <CNNaffinity_variance>
1.0278278589

$$$$
[H]c1c([H])c([H])c2c([H])c(S(=O)(=O)n3c4c([H])c([H])c([H])c([H])c4c4c([H])c(OC([H])([H])[H])c([H])c([H])c43)c([H])c([H])c2c1[H]


 28 32  0  0  0  0  0  0  0  0999 V2000
   15.0181   25.4042    0.0600 C   0  0  0  0  0  0  0  0  0  0  0  0
   14.2100   24.9998    1.0802 C   0  0  0  0  0  0  0  0  0  0  0  0
   13.5077   23.7976    0.9945 C   0  0  0  0  0  0  0  0  0  0  0  0
   13.6016   22.9723   -0.1224 C   0  0  0  0  0  0  0  0  0  0  0  0
   13.0412   21.7924   -0.4235 N   0  0  0  0  0  0  0  0  0  0  0  0
   13.5250   21.4662   -1.6648 C   0  0  0  0  0  0  0  0  0  0  0  0
   13.3050   20.3829   -2.4743 C   0  0  0  0  0  0  0  0  0  0  0  0
   13.9423   20.3073   -3.7167 C   0  0  0  0  0  0  0  0  0  0  0  0
   14.7865   21.3118   -4.1292 C   0  0  0  0  0  0  0  0  0  0  0  0
   15.0223   22.4094   -3.3323 C   0  0  0  0  0  0  0  0  0  0  0  0
   14.3809   22.4591   -2.1117 C   0  0  0  0  0  0  0  0  0  0  0  0
   14.4233   23.4186   -1.1178 C   0  0  0  0  0  0  0  0  0  0  0  0
   15.1268   24.6047   -1.0525 C   0  0  0  0  0  0  0  0  0  0  0  0
   11.9245   20.8991    0.5125 S   0  0  0  0  0  0  0  0  0  0  0  0
   12.6526   19.7845    1.2818 O   0  0  0  0  0  0  0  0  0  0  0  0
   10.9206   20.1694   -0.3218 O   0  0  0  0  0  0  0  0  0  0  0  0
   11.0093   21.8677    1.6494 C   0  0  0  0  0  0  0  0  0  0  0  0
   11.1752   21.6023    3.0152 C   0  0  0  0  0  0  0  0  0  0  0  0
   10.5292   22.3111    4.0013 C   0  0  0  0  0  0  0  0  0  0  0  0
    9.6817   23.3282    3.6027 C   0  0  0  0  0  0  0  0  0  0  0  0
    8.9993   24.0816    4.5527 C   0  0  0  0  0  0  0  0  0  0  0  0
    8.1547   25.0951    4.1565 C   0  0  0  0  0  0  0  0  0  0  0  0
    7.9890   25.3586    2.8183 C   0  0  0  0  0  0  0  0  0  0  0  0
    8.6443   24.6383    1.8436 C   0  0  0  0  0  0  0  0  0  0  0  0
    9.4960   23.6150    2.2693 C   0  0  0  0  0  0  0  0  0  0  0  0
   10.1584   22.8854    1.3127 C   0  0  0  0  0  0  0  0  0  0  0  0
   16.4603   27.0433   -1.0643 C   0  0  0  0  0  0  0  0  0  0  0  0
   15.7481   26.5786    0.0626 O   0  0  0  0  0  0  0  0  0  0  0  0
 27 28  1  0  0  0
 28  1  1  0  0  0
  1  2  2  0  0  0
  2  3  1  0  0  0
  3  4  2  0  0  0
  4  5  1  0  0  0
  5  6  1  0  0  0
  6  7  2  0  0  0
  7  8  1  0  0  0
  8  9  2  0  0  0
  9 10  1  0  0  0
 10 11  2  0  0  0
 11 12  1  0  0  0
 12 13  2  0  0  0
  5 14  1  0  0  0
 14 15  2  0  0  0
 14 16  2  0  0  0
 14 17  1  0  0  0
 17 18  2  0  0  0
 18 19  1  0  0  0
 19 20  2  0  0  0
 20 21  1  0  0  0
 21 22  2  0  0  0
 22 23  1  0  0  0
 23 24  2  0  0  0
 24 25  1  0  0  0
 25 26  2  0  0  0
 13  1  1  0  0  0
 26 17  1  0  0  0
 12  4  1  0  0  0
 25 20  1  0  0  0
 11  6  1  0  0  0
M  END
> <minimizedAffinity>
5.83788

> <CNNscore>
0.4050857127

> <CNNaffinity>
6.5119638443

> <CNN_VS>
2.6379034519

> <CNNaffinity_variance>
1.0978448391

$$$$
[H]c1c([H])c([H])c2c([H])c(S(=O)(=O)n3c4c([H])c([H])c([H])c([H])c4c4c([H])c(OC([H])([H])[H])c([H])c([H])c43)c([H])c([H])c2c1[H]


 28 32  0  0  0  0  0  0  0  0999 V2000
   12.8972   26.3105    0.7811 C   0  0  0  0  0  0  0  0  0  0  0  0
   12.1260   25.3065    1.2856 C   0  0  0  0  0  0  0  0  0  0  0  0
   12.1416   24.0393    0.7029 C   0  0  0  0  0  0  0  0  0  0  0  0
   12.9348   23.7517   -0.4042 C   0  0  0  0  0  0  0  0  0  0  0  0
   13.1195   22.6314   -1.1168 N   0  0  0  0  0  0  0  0  0  0  0  0
   14.0338   22.9623   -2.0841 C   0  0  0  0  0  0  0  0  0  0  0  0
   14.6012   22.2287   -3.0927 C   0  0  0  0  0  0  0  0  0  0  0  0
   15.5237   22.8329   -3.9526 C   0  0  0  0  0  0  0  0  0  0  0  0
   15.8635   24.1560   -3.7917 C   0  0  0  0  0  0  0  0  0  0  0  0
   15.3061   24.9121   -2.7852 C   0  0  0  0  0  0  0  0  0  0  0  0
   14.3989   24.2917   -1.9512 C   0  0  0  0  0  0  0  0  0  0  0  0
   13.6901   24.7882   -0.8735 C   0  0  0  0  0  0  0  0  0  0  0  0
   13.6891   26.0491   -0.3114 C   0  0  0  0  0  0  0  0  0  0  0  0
   12.3498   21.1205   -0.9027 S   0  0  0  0  0  0  0  0  0  0  0  0
   13.3274   19.9790   -1.2273 O   0  0  0  0  0  0  0  0  0  0  0  0
   11.2141   20.9080   -1.8521 O   0  0  0  0  0  0  0  0  0  0  0  0
   11.7009   20.8708    0.7051 C   0  0  0  0  0  0  0  0  0  0  0  0
   12.5288   20.2588    1.6556 C   0  0  0  0  0  0  0  0  0  0  0  0
   12.1390   20.0317    2.9551 C   0  0  0  0  0  0  0  0  0  0  0  0
   10.8670   20.4345    3.3176 C   0  0  0  0  0  0  0  0  0  0  0  0
   10.4141   20.2325    4.6176 C   0  0  0  0  0  0  0  0  0  0  0  0
    9.1469   20.6334    4.9796 C   0  0  0  0  0  0  0  0  0  0  0  0
    8.3318   21.2338    4.0507 C   0  0  0  0  0  0  0  0  0  0  0  0
    8.7387   21.4535    2.7528 C   0  0  0  0  0  0  0  0  0  0  0  0
   10.0283   21.0385    2.4086 C   0  0  0  0  0  0  0  0  0  0  0  0
   10.4524   21.2488    1.1193 C   0  0  0  0  0  0  0  0  0  0  0  0
   13.3416   27.8760    2.6202 C   0  0  0  0  0  0  0  0  0  0  0  0
   12.9418   27.5930    1.2961 O   0  0  0  0  0  0  0  0  0  0  0  0
 27 28  1  0  0  0
 28  1  1  0  0  0
  1  2  2  0  0  0
  2  3  1  0  0  0
  3  4  2  0  0  0
  4  5  1  0  0  0
  5  6  1  0  0  0
  6  7  2  0  0  0
  7  8  1  0  0  0
  8  9  2  0  0  0
  9 10  1  0  0  0
 10 11  2  0  0  0
 11 12  1  0  0  0
 12 13  2  0  0  0
  5 14  1  0  0  0
 14 15  2  0  0  0
 14 16  2  0  0  0
 14 17  1  0  0  0
 17 18  2  0  0  0
 18 19  1  0  0  0
 19 20  2  0  0  0
 20 21  1  0  0  0
 21 22  2  0  0  0
 22 23  1  0  0  0
 23 24  2  0  0  0
 24 25  1  0  0  0
 25 26  2  0  0  0
 13  1  1  0  0  0
 26 17  1  0  0  0
 12  4  1  0  0  0
 25 20  1  0  0  0
 11  6  1  0  0  0
M  END
> <minimizedAffinity>
0.69897

> <CNNscore>
0.3994370401

> <CNNaffinity>
6.3815288544

> <CNN_VS>
2.5490190983

> <CNNaffinity_variance>
0.4257205427

$$$$
[H]c1c([H])c([H])c2c([H])c(S(=O)(=O)n3c4c([H])c([H])c([H])c([H])c4c4c([H])c(OC([H])([H])[H])c([H])c([H])c43)c([H])c([H])c2c1[H]


 28 32  0  0  0  0  0  0  0  0999 V2000
   16.8736   27.0128   -3.3660 C   0  0  0  0  0  0  0  0  0  0  0  0
   16.6313   27.2140   -2.0401 C   0  0  0  0  0  0  0  0  0  0  0  0
   16.0099   26.2269   -1.2751 C   0  0  0  0  0  0  0  0  0  0  0  0
   15.6161   25.0115   -1.8275 C   0  0  0  0  0  0  0  0  0  0  0  0
   15.0224   23.9305   -1.3021 N   0  0  0  0  0  0  0  0  0  0  0  0
   14.9016   23.0417   -2.3397 C   0  0  0  0  0  0  0  0  0  0  0  0
   14.3769   21.7775   -2.4020 C   0  0  0  0  0  0  0  0  0  0  0  0
   14.3834   21.0853   -3.6170 C   0  0  0  0  0  0  0  0  0  0  0  0
   14.9121   21.6651   -4.7467 C   0  0  0  0  0  0  0  0  0  0  0  0
   15.4447   22.9341   -4.7074 C   0  0  0  0  0  0  0  0  0  0  0  0
   15.4256   23.5948   -3.4963 C   0  0  0  0  0  0  0  0  0  0  0  0
   15.8802   24.8555   -3.1583 C   0  0  0  0  0  0  0  0  0  0  0  0
   16.4940   25.8196   -3.9327 C   0  0  0  0  0  0  0  0  0  0  0  0
   14.4846   23.7140    0.3057 S   0  0  0  0  0  0  0  0  0  0  0  0
   14.9476   24.8906    1.1804 O   0  0  0  0  0  0  0  0  0  0  0  0
   15.0871   22.5131    0.9624 O   0  0  0  0  0  0  0  0  0  0  0  0
   12.7484   23.5411    0.4611 C   0  0  0  0  0  0  0  0  0  0  0  0
   11.9395   24.2213   -0.4590 C   0  0  0  0  0  0  0  0  0  0  0  0
   10.5662   24.1435   -0.4519 C   0  0  0  0  0  0  0  0  0  0  0  0
    9.9786   23.3514    0.5171 C   0  0  0  0  0  0  0  0  0  0  0  0
    8.5936   23.2320    0.5765 C   0  0  0  0  0  0  0  0  0  0  0  0
    8.0074   22.4431    1.5416 C   0  0  0  0  0  0  0  0  0  0  0  0
    8.7968   21.7744    2.4458 C   0  0  0  0  0  0  0  0  0  0  0  0
   10.1715   21.8637    2.4241 C   0  0  0  0  0  0  0  0  0  0  0  0
   10.7439   22.6699    1.4360 C   0  0  0  0  0  0  0  0  0  0  0  0
   12.1130   22.7718    1.3980 C   0  0  0  0  0  0  0  0  0  0  0  0
   18.8190   28.3590   -4.0246 C   0  0  0  0  0  0  0  0  0  0  0  0
   17.4830   27.9359   -4.1959 O   0  0  0  0  0  0  0  0  0  0  0  0
 27 28  1  0  0  0
 28  1  1  0  0  0
  1  2  2  0  0  0
  2  3  1  0  0  0
  3  4  2  0  0  0
  4  5  1  0  0  0
  5  6  1  0  0  0
  6  7  2  0  0  0
  7  8  1  0  0  0
  8  9  2  0  0  0
  9 10  1  0  0  0
 10 11  2  0  0  0
 11 12  1  0  0  0
 12 13  2  0  0  0
  5 14  1  0  0  0
 14 15  2  0  0  0
 14 16  2  0  0  0
 14 17  1  0  0  0
 17 18  2  0  0  0
 18 19  1  0  0  0
 19 20  2  0  0  0
 20 21  1  0  0  0
 21 22  2  0  0  0
 22 23  1  0  0  0
 23 24  2  0  0  0
 24 25  1  0  0  0
 25 26  2  0  0  0
 13  1  1  0  0  0
 26 17  1  0  0  0
 12  4  1  0  0  0
 25 20  1  0  0  0
 11  6  1  0  0  0
M  END
> <minimizedAffinity>
-2.70135

> <CNNscore>
0.3925586641

> <CNNaffinity>
6.9423646927

> <CNN_VS>
2.7252852917

> <CNNaffinity_variance>
0.3568803668

$$$$
[H]c1nc(N([H])c2c([H])c([H])c(N3C([H])([H])C([H])([H])C([H])(N4C([H])([H])C([H])([H])N(C([H])([H])[H])C([H])([H])C4([H])[H])C([H])([H])C3([H])[H])c([H])c2OC([H])([H])[H])nc(N([H])c2c([H])c([H])c([H])c([H])c2S(=O)(=O)C([H])(C([H])([H])[H])C([H])([H])[H])c1Cl


 44 48  0  0  0  0  0  0  0  0999 V2000
   13.4354   20.8916    2.1201 N   0  0  0  0  0  0  0  0  0  0  0  0
   14.2883   20.6989    2.7577 H   0  0  0  0  0  0  0  0  0  0  0  0
   13.7192   21.1172    0.7471 C   0  0  0  0  0  0  0  0  0  0  0  0
   13.7129   20.1979   -0.2214 N   0  0  0  0  0  0  0  0  0  0  0  0
   13.9896   20.4804   -1.5005 C   0  0  0  0  0  0  0  0  0  0  0  0
   14.2987   21.7696   -1.8659 C   0  0  0  0  0  0  0  0  0  0  0  0
   14.6652   22.1599   -3.5433 Cl  0  0  0  0  0  0  0  0  0  0  0  0
   14.3123   22.7597   -0.8617 C   0  0  0  0  0  0  0  0  0  0  0  0
   14.0226   22.3783    0.3839 N   0  0  0  0  0  0  0  0  0  0  0  0
   14.6288   24.0672   -1.2612 N   0  0  0  0  0  0  0  0  0  0  0  0
   15.5709   24.4267   -0.8950 H   0  0  0  0  0  0  0  0  0  0  0  0
   13.9349   24.9924   -2.0556 C   0  0  0  0  0  0  0  0  0  0  0  0
   12.5621   25.0861   -1.9660 C   0  0  0  0  0  0  0  0  0  0  0  0
   11.8546   26.0034   -2.7536 C   0  0  0  0  0  0  0  0  0  0  0  0
   12.5421   26.8060   -3.6137 C   0  0  0  0  0  0  0  0  0  0  0  0
   13.9126   26.7103   -3.7007 C   0  0  0  0  0  0  0  0  0  0  0  0
   14.6297   25.8223   -2.9424 C   0  0  0  0  0  0  0  0  0  0  0  0
   16.3369   25.7162   -3.0619 S   0  0  0  0  0  0  0  0  0  0  0  0
   16.7238   24.4415   -3.7687 O   0  0  0  0  0  0  0  0  0  0  0  0
   17.0618   25.7504   -1.7455 O   0  0  0  0  0  0  0  0  0  0  0  0
   17.0374   27.0375   -4.0324 C   0  0  0  0  0  0  0  0  0  0  0  0
   16.2684   27.2331   -5.2984 C   0  0  0  0  0  0  0  0  0  0  0  0
   17.3021   28.2776   -3.2455 C   0  0  0  0  0  0  0  0  0  0  0  0
   11.3074   21.9425    2.4932 C   0  0  0  0  0  0  0  0  0  0  0  0
   10.0620   22.0104    3.0905 C   0  0  0  0  0  0  0  0  0  0  0  0
    9.6288   21.0511    3.9785 C   0  0  0  0  0  0  0  0  0  0  0  0
   10.5027   20.0233    4.2375 C   0  0  0  0  0  0  0  0  0  0  0  0
   11.7685   19.9244    3.6514 C   0  0  0  0  0  0  0  0  0  0  0  0
   12.1947   20.8834    2.7673 C   0  0  0  0  0  0  0  0  0  0  0  0
    8.3349   21.1311    4.5826 N   0  0  0  0  0  0  0  0  0  0  0  0
    7.9983   20.1828    5.5883 C   0  0  0  0  0  0  0  0  0  0  0  0
    6.7969   20.5126    6.4289 C   0  0  0  0  0  0  0  0  0  0  0  0
    5.6381   21.0559    5.6626 C   0  0  0  0  0  0  0  0  0  0  0  0
    6.0151   21.5225    4.2708 C   0  0  0  0  0  0  0  0  0  0  0  0
    7.3725   22.1351    4.1968 C   0  0  0  0  0  0  0  0  0  0  0  0
    4.8537   22.0470    6.2839 N   0  0  0  0  0  0  0  0  0  0  0  0
    5.4829   23.1011    6.9638 C   0  0  0  0  0  0  0  0  0  0  0  0
    4.4667   23.8116    7.8624 C   0  0  0  0  0  0  0  0  0  0  0  0
    3.2512   23.9974    7.0940 N   0  0  0  0  0  0  0  0  0  0  0  0
    3.3555   24.9753    6.0585 C   0  0  0  0  0  0  0  0  0  0  0  0
    2.6230   22.7702    6.7245 C   0  0  0  0  0  0  0  0  0  0  0  0
    3.6268   21.6303    6.8835 C   0  0  0  0  0  0  0  0  0  0  0  0
   10.7821   23.9993    1.3570 C   0  0  0  0  0  0  0  0  0  0  0  0
   11.6799   22.9425    1.6084 O   0  0  0  0  0  0  0  0  0  0  0  0
 43 44  1  0  0  0
 44 24  1  0  0  0
 24 25  2  0  0  0
 25 26  1  0  0  0
 26 27  2  0  0  0
 27 28  1  0  0  0
 28 29  2  0  0  0
 29  1  1  0  0  0
  1  3  1  0  0  0
  3  4  2  0  0  0
  4  5  1  0  0  0
  5  6  2  0  0  0
  6  7  1  0  0  0
  6  8  1  0  0  0
  8 10  1  0  0  0
 10 12  1  0  0  0
 12 13  2  0  0  0
 13 14  1  0  0  0
 14 15  2  0  0  0
 15 16  1  0  0  0
 16 17  2  0  0  0
 17 18  1  0  0  0
 18 19  2  0  0  0
 18 20  2  0  0  0
 18 21  1  0  0  0
 21 22  1  0  0  0
 21 23  1  0  0  0
  8  9  2  0  0  0
 26 30  1  0  0  0
 30 31  1  0  0  0
 31 32  1  0  0  0
 32 33  1  0  0  0
 33 34  1  0  0  0
 34 35  1  0  0  0
 33 36  1  0  0  0
 36 37  1  0  0  0
 37 38  1  0  0  0
 38 39  1  0  0  0
 39 40  1  0  0  0
 39 41  1  0  0  0
 41 42  1  0  0  0
 29 24  1  0  0  0
  9  3  1  0  0  0
 35 30  1  0  0  0
 42 36  1  0  0  0
 17 12  1  0  0  0
  1  2  1  0  0  0
 10 11  1  0  0  0
M  END
> <minimizedAffinity>
-6.47257

> <CNNscore>
0.3537418842

> <CNNaffinity>
7.4805579185

> <CNN_VS>
2.6461865902

> <CNNaffinity_variance>
0.1527483612

$$$$
[H]c1nc(N([H])c2c([H])c([H])c(N3C([H])([H])C([H])([H])C([H])(N4C([H])([H])C([H])([H])N(C([H])([H])[H])C([H])([H])C4([H])[H])C([H])([H])C3([H])[H])c([H])c2OC([H])([H])[H])nc(N([H])c2c([H])c([H])c([H])c([H])c2S(=O)(=O)C([H])(C([H])([H])[H])C([H])([H])[H])c1Cl


 44 48  0  0  0  0  0  0  0  0999 V2000
   12.7695   21.6769    2.6112 N   0  0  0  0  0  0  0  0  0  0  0  0
   13.4841   22.0240    3.3461 H   0  0  0  0  0  0  0  0  0  0  0  0
   13.2352   21.6040    1.2717 C   0  0  0  0  0  0  0  0  0  0  0  0
   13.3053   20.5029    0.5195 N   0  0  0  0  0  0  0  0  0  0  0  0
   13.7550   20.5054   -0.7416 C   0  0  0  0  0  0  0  0  0  0  0  0
   14.1716   21.6824   -1.3179 C   0  0  0  0  0  0  0  0  0  0  0  0
   14.7659   21.7050   -2.9753 Cl  0  0  0  0  0  0  0  0  0  0  0  0
   14.1077   22.8600   -0.5446 C   0  0  0  0  0  0  0  0  0  0  0  0
   13.6445   22.7541    0.7024 N   0  0  0  0  0  0  0  0  0  0  0  0
   14.5369   24.0476   -1.1568 N   0  0  0  0  0  0  0  0  0  0  0  0
   15.5594   24.3042   -0.9579 H   0  0  0  0  0  0  0  0  0  0  0  0
   13.8697   24.9629   -1.9848 C   0  0  0  0  0  0  0  0  0  0  0  0
   12.4991   25.0919   -1.9068 C   0  0  0  0  0  0  0  0  0  0  0  0
   11.8180   25.9998   -2.7278 C   0  0  0  0  0  0  0  0  0  0  0  0
   12.5291   26.7578   -3.6089 C   0  0  0  0  0  0  0  0  0  0  0  0
   13.8974   26.6269   -3.6843 C   0  0  0  0  0  0  0  0  0  0  0  0
   14.5889   25.7470   -2.8934 C   0  0  0  0  0  0  0  0  0  0  0  0
   16.2937   25.5968   -2.9988 S   0  0  0  0  0  0  0  0  0  0  0  0
   16.6533   24.3106   -3.6993 O   0  0  0  0  0  0  0  0  0  0  0  0
   17.0087   25.6159   -1.6767 O   0  0  0  0  0  0  0  0  0  0  0  0
   17.0358   26.8968   -3.9670 C   0  0  0  0  0  0  0  0  0  0  0  0
   16.2416   27.1573   -5.2056 C   0  0  0  0  0  0  0  0  0  0  0  0
   17.3900   28.1059   -3.1672 C   0  0  0  0  0  0  0  0  0  0  0  0
   10.3989   22.0671    2.6048 C   0  0  0  0  0  0  0  0  0  0  0  0
    9.1141   21.8145    3.0495 C   0  0  0  0  0  0  0  0  0  0  0  0
    8.8514   20.8627    4.0094 C   0  0  0  0  0  0  0  0  0  0  0  0
    9.9368   20.1783    4.5000 C   0  0  0  0  0  0  0  0  0  0  0  0
   11.2482   20.4087    4.0728 C   0  0  0  0  0  0  0  0  0  0  0  0
   11.5037   21.3586    3.1160 C   0  0  0  0  0  0  0  0  0  0  0  0
    7.5162   20.6076    4.4539 N   0  0  0  0  0  0  0  0  0  0  0  0
    6.4394   20.9362    3.5840 C   0  0  0  0  0  0  0  0  0  0  0  0
    5.1053   20.3381    3.9323 C   0  0  0  0  0  0  0  0  0  0  0  0
    4.7737   20.3742    5.3862 C   0  0  0  0  0  0  0  0  0  0  0  0
    5.9795   20.6507    6.2618 C   0  0  0  0  0  0  0  0  0  0  0  0
    7.2385   20.0372    5.7503 C   0  0  0  0  0  0  0  0  0  0  0  0
    4.0585   19.2837    5.9182 N   0  0  0  0  0  0  0  0  0  0  0  0
    3.7949   18.1686    5.1080 C   0  0  0  0  0  0  0  0  0  0  0  0
    2.7029   17.3114    5.7542 C   0  0  0  0  0  0  0  0  0  0  0  0
    3.0124   17.1914    7.1657 N   0  0  0  0  0  0  0  0  0  0  0  0
    4.1421   16.3655    7.4504 C   0  0  0  0  0  0  0  0  0  0  0  0
    2.9652   18.4362    7.8624 C   0  0  0  0  0  0  0  0  0  0  0  0
    3.0146   19.5763    6.8473 C   0  0  0  0  0  0  0  0  0  0  0  0
   10.0555   24.3259    1.8449 C   0  0  0  0  0  0  0  0  0  0  0  0
   10.5919   23.0395    1.6359 O   0  0  0  0  0  0  0  0  0  0  0  0
 43 44  1  0  0  0
 44 24  1  0  0  0
 24 25  2  0  0  0
 25 26  1  0  0  0
 26 27  2  0  0  0
 27 28  1  0  0  0
 28 29  2  0  0  0
 29  1  1  0  0  0
  1  3  1  0  0  0
  3  4  2  0  0  0
  4  5  1  0  0  0
  5  6  2  0  0  0
  6  7  1  0  0  0
  6  8  1  0  0  0
  8 10  1  0  0  0
 10 12  1  0  0  0
 12 13  2  0  0  0
 13 14  1  0  0  0
 14 15  2  0  0  0
 15 16  1  0  0  0
 16 17  2  0  0  0
 17 18  1  0  0  0
 18 19  2  0  0  0
 18 20  2  0  0  0
 18 21  1  0  0  0
 21 22  1  0  0  0
 21 23  1  0  0  0
  8  9  2  0  0  0
 26 30  1  0  0  0
 30 31  1  0  0  0
 31 32  1  0  0  0
 32 33  1  0  0  0
 33 34  1  0  0  0
 34 35  1  0  0  0
 33 36  1  0  0  0
 36 37  1  0  0  0
 37 38  1  0  0  0
 38 39  1  0  0  0
 39 40  1  0  0  0
 39 41  1  0  0  0
 41 42  1  0  0  0
 29 24  1  0  0  0
  9  3  1  0  0  0
 35 30  1  0  0  0
 42 36  1  0  0  0
 17 12  1  0  0  0
  1  2  1  0  0  0
 10 11  1  0  0  0
M  END
> <minimizedAffinity>
-6.42633

> <CNNscore>
0.3220471144

> <CNNaffinity>
7.4033956528

> <CNN_VS>
2.3842422962

> <CNNaffinity_variance>
0.2318192273

$$$$
[H]c1nc(N([H])c2c([H])c([H])c(N3C([H])([H])C([H])([H])C([H])(N4C([H])([H])C([H])([H])N(C([H])([H])[H])C([H])([H])C4([H])[H])C([H])([H])C3([H])[H])c([H])c2OC([H])([H])[H])nc(N([H])c2c([H])c([H])c([H])c([H])c2S(=O)(=O)C([H])(C([H])([H])[H])C([H])([H])[H])c1Cl


 44 48  0  0  0  0  0  0  0  0999 V2000
    9.4155   22.4079    2.4558 N   0  0  0  0  0  0  0  0  0  0  0  0
    8.4522   22.8867    2.3374 H   0  0  0  0  0  0  0  0  0  0  0  0
    9.5041   21.4248    3.4767 C   0  0  0  0  0  0  0  0  0  0  0  0
   10.5617   20.6529    3.7390 N   0  0  0  0  0  0  0  0  0  0  0  0
   10.5783   19.7434    4.7214 C   0  0  0  0  0  0  0  0  0  0  0  0
    9.4687   19.5725    5.5155 C   0  0  0  0  0  0  0  0  0  0  0  0
    9.4722   18.3814    6.8123 Cl  0  0  0  0  0  0  0  0  0  0  0  0
    8.3381   20.3756    5.2592 C   0  0  0  0  0  0  0  0  0  0  0  0
    8.4200   21.2534    4.2573 N   0  0  0  0  0  0  0  0  0  0  0  0
    7.2200   20.1828    6.0849 N   0  0  0  0  0  0  0  0  0  0  0  0
    7.4205   20.2860    7.1338 H   0  0  0  0  0  0  0  0  0  0  0  0
    5.8830   19.8791    5.7870 C   0  0  0  0  0  0  0  0  0  0  0  0
    5.5708   18.7039    5.1369 C   0  0  0  0  0  0  0  0  0  0  0  0
    4.2411   18.3870    4.8307 C   0  0  0  0  0  0  0  0  0  0  0  0
    3.2547   19.2581    5.1843 C   0  0  0  0  0  0  0  0  0  0  0  0
    3.5695   20.4305    5.8334 C   0  0  0  0  0  0  0  0  0  0  0  0
    4.8612   20.7654    6.1453 C   0  0  0  0  0  0  0  0  0  0  0  0
    5.2366   22.2294    6.9552 S   0  0  0  0  0  0  0  0  0  0  0  0
    6.4284   22.0262    7.8567 O   0  0  0  0  0  0  0  0  0  0  0  0
    4.1189   22.7897    7.7897 O   0  0  0  0  0  0  0  0  0  0  0  0
    5.6992   23.5332    5.8309 C   0  0  0  0  0  0  0  0  0  0  0  0
    6.7613   24.3984    6.4276 C   0  0  0  0  0  0  0  0  0  0  0  0
    5.9677   23.0545    4.4432 C   0  0  0  0  0  0  0  0  0  0  0  0
   10.6797   22.0498    0.4444 C   0  0  0  0  0  0  0  0  0  0  0  0
   11.6468   22.4105   -0.4759 C   0  0  0  0  0  0  0  0  0  0  0  0
   12.3911   23.5605   -0.3347 C   0  0  0  0  0  0  0  0  0  0  0  0
   12.1190   24.3290    0.7710 C   0  0  0  0  0  0  0  0  0  0  0  0
   11.1487   23.9935    1.7205 C   0  0  0  0  0  0  0  0  0  0  0  0
   10.4102   22.8462    1.5744 C   0  0  0  0  0  0  0  0  0  0  0  0
   13.3828   23.9241   -1.2989 N   0  0  0  0  0  0  0  0  0  0  0  0
   14.1169   22.8866   -1.9383 C   0  0  0  0  0  0  0  0  0  0  0  0
   14.8781   23.2824   -3.1723 C   0  0  0  0  0  0  0  0  0  0  0  0
   15.5951   24.5859   -3.0632 C   0  0  0  0  0  0  0  0  0  0  0  0
   15.1188   25.4279   -1.8964 C   0  0  0  0  0  0  0  0  0  0  0  0
   13.6571   25.3018   -1.6303 C   0  0  0  0  0  0  0  0  0  0  0  0
   15.6602   25.3918   -4.2164 N   0  0  0  0  0  0  0  0  0  0  0  0
   15.5027   24.8034   -5.4806 C   0  0  0  0  0  0  0  0  0  0  0  0
   15.9893   25.7723   -6.5620 C   0  0  0  0  0  0  0  0  0  0  0  0
   15.4659   27.0870   -6.2454 N   0  0  0  0  0  0  0  0  0  0  0  0
   14.0580   27.2210   -6.4429 C   0  0  0  0  0  0  0  0  0  0  0  0
   15.9717   27.6166   -5.0203 C   0  0  0  0  0  0  0  0  0  0  0  0
   16.5833   26.4809   -4.2026 C   0  0  0  0  0  0  0  0  0  0  0  0
   10.6645   19.7123   -0.1331 C   0  0  0  0  0  0  0  0  0  0  0  0
    9.9669   20.8784    0.2408 O   0  0  0  0  0  0  0  0  0  0  0  0
 43 44  1  0  0  0
 44 24  1  0  0  0
 24 25  2  0  0  0
 25 26  1  0  0  0
 26 27  2  0  0  0
 27 28  1  0  0  0
 28 29  2  0  0  0
 29  1  1  0  0  0
  1  3  1  0  0  0
  3  4  2  0  0  0
  4  5  1  0  0  0
  5  6  2  0  0  0
  6  7  1  0  0  0
  6  8  1  0  0  0
  8 10  1  0  0  0
 10 12  1  0  0  0
 12 13  2  0  0  0
 13 14  1  0  0  0
 14 15  2  0  0  0
 15 16  1  0  0  0
 16 17  2  0  0  0
 17 18  1  0  0  0
 18 19  2  0  0  0
 18 20  2  0  0  0
 18 21  1  0  0  0
 21 22  1  0  0  0
 21 23  1  0  0  0
  8  9  2  0  0  0
 26 30  1  0  0  0
 30 31  1  0  0  0
 31 32  1  0  0  0
 32 33  1  0  0  0
 33 34  1  0  0  0
 34 35  1  0  0  0
 33 36  1  0  0  0
 36 37  1  0  0  0
 37 38  1  0  0  0
 38 39  1  0  0  0
 39 40  1  0  0  0
 39 41  1  0  0  0
 41 42  1  0  0  0
 29 24  1  0  0  0
  9  3  1  0  0  0
 35 30  1  0  0  0
 42 36  1  0  0  0
 17 12  1  0  0  0
  1  2  1  0  0  0
 10 11  1  0  0  0
M  END
> <minimizedAffinity>
-4.66634

> <CNNscore>
0.0597511753

> <CNNaffinity>
7.0671525002

> <CNN_VS>
0.4222706556

> <CNNaffinity_variance>
0.5603854060

$$$$
[H]c1nc(N([H])c2c([H])c([H])c(N3C([H])([H])C([H])([H])C([H])(N4C([H])([H])C([H])([H])N(C([H])([H])[H])C([H])([H])C4([H])[H])C([H])([H])C3([H])[H])c([H])c2OC([H])([H])[H])nc(N([H])c2c([H])c([H])c([H])c([H])c2S(=O)(=O)C([H])(C([H])([H])[H])C([H])([H])[H])c1Cl


 44 48  0  0  0  0  0  0  0  0999 V2000
    9.6177   21.1955    4.3617 N   0  0  0  0  0  0  0  0  0  0  0  0
   10.1730   20.5591    5.0384 H   0  0  0  0  0  0  0  0  0  0  0  0
    8.2417   21.3776    4.6618 C   0  0  0  0  0  0  0  0  0  0  0  0
    7.6831   22.4814    5.1645 N   0  0  0  0  0  0  0  0  0  0  0  0
    6.3737   22.5864    5.4233 C   0  0  0  0  0  0  0  0  0  0  0  0
    5.5381   21.5240    5.1700 C   0  0  0  0  0  0  0  0  0  0  0  0
    3.8133   21.6438    5.5037 Cl  0  0  0  0  0  0  0  0  0  0  0  0
    6.1032   20.3461    4.6388 C   0  0  0  0  0  0  0  0  0  0  0  0
    7.4189   20.3400    4.4156 N   0  0  0  0  0  0  0  0  0  0  0  0
    5.2286   19.2777    4.3877 N   0  0  0  0  0  0  0  0  0  0  0  0
    4.3110   19.3164    4.9422 H   0  0  0  0  0  0  0  0  0  0  0  0
    5.3365   18.1649    3.5401 C   0  0  0  0  0  0  0  0  0  0  0  0
    5.2017   18.3204    2.1767 C   0  0  0  0  0  0  0  0  0  0  0  0
    5.3050   17.2190    1.3172 C   0  0  0  0  0  0  0  0  0  0  0  0
    5.5413   15.9859    1.8469 C   0  0  0  0  0  0  0  0  0  0  0  0
    5.6756   15.8339    3.2084 C   0  0  0  0  0  0  0  0  0  0  0  0
    5.5793   16.8936    4.0719 C   0  0  0  0  0  0  0  0  0  0  0  0
    5.7502   16.6876    5.7656 S   0  0  0  0  0  0  0  0  0  0  0  0
    5.7636   15.2183    6.1052 O   0  0  0  0  0  0  0  0  0  0  0  0
    4.6752   17.3402    6.5891 O   0  0  0  0  0  0  0  0  0  0  0  0
    7.2913   17.3389    6.3812 C   0  0  0  0  0  0  0  0  0  0  0  0
    7.0657   18.1838    7.5928 C   0  0  0  0  0  0  0  0  0  0  0  0
    8.3634   16.3088    6.5092 C   0  0  0  0  0  0  0  0  0  0  0  0
   11.6639   21.2349    3.1034 C   0  0  0  0  0  0  0  0  0  0  0  0
   12.4648   21.7092    2.0808 C   0  0  0  0  0  0  0  0  0  0  0  0
   12.0308   22.6845    1.2107 C   0  0  0  0  0  0  0  0  0  0  0  0
   10.7581   23.1593    1.4155 C   0  0  0  0  0  0  0  0  0  0  0  0
    9.9225   22.7022    2.4393 C   0  0  0  0  0  0  0  0  0  0  0  0
   10.3606   21.7302    3.3032 C   0  0  0  0  0  0  0  0  0  0  0  0
   12.8681   23.1597    0.1531 N   0  0  0  0  0  0  0  0  0  0  0  0
   13.2299   22.2534   -0.8823 C   0  0  0  0  0  0  0  0  0  0  0  0
   13.8002   22.8706   -2.1283 C   0  0  0  0  0  0  0  0  0  0  0  0
   14.7805   23.9673   -1.8804 C   0  0  0  0  0  0  0  0  0  0  0  0
   14.7282   24.4989   -0.4621 C   0  0  0  0  0  0  0  0  0  0  0  0
   13.3534   24.5184    0.1148 C   0  0  0  0  0  0  0  0  0  0  0  0
   14.7852   25.0519   -2.7789 N   0  0  0  0  0  0  0  0  0  0  0  0
   15.9926   25.7075   -3.0648 C   0  0  0  0  0  0  0  0  0  0  0  0
   15.7000   27.0535   -3.7337 C   0  0  0  0  0  0  0  0  0  0  0  0
   14.6771   26.8349   -4.7378 N   0  0  0  0  0  0  0  0  0  0  0  0
   15.1250   26.1092   -5.8833 C   0  0  0  0  0  0  0  0  0  0  0  0
   13.4277   26.4156   -4.1898 C   0  0  0  0  0  0  0  0  0  0  0  0
   13.6520   25.9202   -2.7626 C   0  0  0  0  0  0  0  0  0  0  0  0
   11.8211   18.9071    3.6985 C   0  0  0  0  0  0  0  0  0  0  0  0
   12.1641   20.2519    3.9432 O   0  0  0  0  0  0  0  0  0  0  0  0
 43 44  1  0  0  0
 44 24  1  0  0  0
 24 25  2  0  0  0
 25 26  1  0  0  0
 26 27  2  0  0  0
 27 28  1  0  0  0
 28 29  2  0  0  0
 29  1  1  0  0  0
  1  3  1  0  0  0
  3  4  2  0  0  0
  4  5  1  0  0  0
  5  6  2  0  0  0
  6  7  1  0  0  0
  6  8  1  0  0  0
  8 10  1  0  0  0
 10 12  1  0  0  0
 12 13  2  0  0  0
 13 14  1  0  0  0
 14 15  2  0  0  0
 15 16  1  0  0  0
 16 17  2  0  0  0
 17 18  1  0  0  0
 18 19  2  0  0  0
 18 20  2  0  0  0
 18 21  1  0  0  0
 21 22  1  0  0  0
 21 23  1  0  0  0
  8  9  2  0  0  0
 26 30  1  0  0  0
 30 31  1  0  0  0
 31 32  1  0  0  0
 32 33  1  0  0  0
 33 34  1  0  0  0
 34 35  1  0  0  0
 33 36  1  0  0  0
 36 37  1  0  0  0
 37 38  1  0  0  0
 38 39  1  0  0  0
 39 40  1  0  0  0
 39 41  1  0  0  0
 41 42  1  0  0  0
 29 24  1  0  0  0
  9  3  1  0  0  0
 35 30  1  0  0  0
 42 36  1  0  0  0
 17 12  1  0  0  0
  1  2  1  0  0  0
 10 11  1  0  0  0
M  END
> <minimizedAffinity>
-7.96662

> <CNNscore>
0.0393499434

> <CNNaffinity>
6.8073768616

> <CNN_VS>
0.2678698897

> <CNNaffinity_variance>
0.2320326269

$$$$
[H]c1nc(N([H])c2c([H])c([H])c(N3C([H])([H])C([H])([H])C([H])(N4C([H])([H])C([H])([H])N(C([H])([H])[H])C([H])([H])C4([H])[H])C([H])([H])C3([H])[H])c([H])c2OC([H])([H])[H])nc(N([H])c2c([H])c([H])c([H])c([H])c2S(=O)(=O)C([H])(C([H])([H])[H])C([H])([H])[H])c1Cl


 44 48  0  0  0  0  0  0  0  0999 V2000
    6.8785   24.0759    3.4983 N   0  0  0  0  0  0  0  0  0  0  0  0
    6.0986   24.7657    3.2030 H   0  0  0  0  0  0  0  0  0  0  0  0
    6.5786   23.2251    4.5950 C   0  0  0  0  0  0  0  0  0  0  0  0
    6.4887   23.5911    5.8760 N   0  0  0  0  0  0  0  0  0  0  0  0
    6.1999   22.7343    6.8635 C   0  0  0  0  0  0  0  0  0  0  0  0
    5.9800   21.4075    6.5766 C   0  0  0  0  0  0  0  0  0  0  0  0
    5.5987   20.2662    7.8622 Cl  0  0  0  0  0  0  0  0  0  0  0  0
    6.0690   20.9950    5.2310 C   0  0  0  0  0  0  0  0  0  0  0  0
    6.3623   21.9245    4.3195 N   0  0  0  0  0  0  0  0  0  0  0  0
    5.8383   19.6365    4.9652 N   0  0  0  0  0  0  0  0  0  0  0  0
    6.5425   18.9694    5.4235 H   0  0  0  0  0  0  0  0  0  0  0  0
    4.8505   18.9902    4.2068 C   0  0  0  0  0  0  0  0  0  0  0  0
    4.3383   19.5976    3.0798 C   0  0  0  0  0  0  0  0  0  0  0  0
    3.3505   18.9662    2.3131 C   0  0  0  0  0  0  0  0  0  0  0  0
    2.8992   17.7388    2.6958 C   0  0  0  0  0  0  0  0  0  0  0  0
    3.4126   17.1349    3.8212 C   0  0  0  0  0  0  0  0  0  0  0  0
    4.3792   17.7295    4.5894 C   0  0  0  0  0  0  0  0  0  0  0  0
    5.0092   16.9633    5.9881 S   0  0  0  0  0  0  0  0  0  0  0  0
    3.9735   16.0391    6.5775 O   0  0  0  0  0  0  0  0  0  0  0  0
    5.4562   17.9041    7.0718 O   0  0  0  0  0  0  0  0  0  0  0  0
    6.4218   15.9373    5.6275 C   0  0  0  0  0  0  0  0  0  0  0  0
    6.4287   15.5272    4.1907 C   0  0  0  0  0  0  0  0  0  0  0  0
    7.7077   16.4939    6.1409 C   0  0  0  0  0  0  0  0  0  0  0  0
    8.1482   23.3174    1.6050 C   0  0  0  0  0  0  0  0  0  0  0  0
    9.2739   23.3246    0.8020 C   0  0  0  0  0  0  0  0  0  0  0  0
   10.3527   24.1374    1.0704 C   0  0  0  0  0  0  0  0  0  0  0  0
   10.2478   24.9405    2.1799 C   0  0  0  0  0  0  0  0  0  0  0  0
    9.1246   24.9578    3.0129 C   0  0  0  0  0  0  0  0  0  0  0  0
    8.0528   24.1455    2.7404 C   0  0  0  0  0  0  0  0  0  0  0  0
   11.5072   24.1390    0.2262 N   0  0  0  0  0  0  0  0  0  0  0  0
   11.8432   22.9402   -0.4625 C   0  0  0  0  0  0  0  0  0  0  0  0
   12.8293   23.0814   -1.5879 C   0  0  0  0  0  0  0  0  0  0  0  0
   13.9817   23.9802   -1.2892 C   0  0  0  0  0  0  0  0  0  0  0  0
   13.7469   24.8619   -0.0790 C   0  0  0  0  0  0  0  0  0  0  0  0
   12.3324   25.3118    0.0629 C   0  0  0  0  0  0  0  0  0  0  0  0
   14.4828   24.7686   -2.3432 N   0  0  0  0  0  0  0  0  0  0  0  0
   15.8684   24.9490   -2.4732 C   0  0  0  0  0  0  0  0  0  0  0  0
   16.1471   26.1220   -3.4173 C   0  0  0  0  0  0  0  0  0  0  0  0
   15.2697   25.9847   -4.5636 N   0  0  0  0  0  0  0  0  0  0  0  0
   15.6111   24.9085   -5.4380 C   0  0  0  0  0  0  0  0  0  0  0  0
   13.8859   26.0975   -4.2329 C   0  0  0  0  0  0  0  0  0  0  0  0
   13.7180   25.9118   -2.7263 C   0  0  0  0  0  0  0  0  0  0  0  0
    7.2565   21.5743    0.2036 C   0  0  0  0  0  0  0  0  0  0  0  0
    7.0981   22.4741    1.2766 O   0  0  0  0  0  0  0  0  0  0  0  0
 43 44  1  0  0  0
 44 24  1  0  0  0
 24 25  2  0  0  0
 25 26  1  0  0  0
 26 27  2  0  0  0
 27 28  1  0  0  0
 28 29  2  0  0  0
 29  1  1  0  0  0
  1  3  1  0  0  0
  3  4  2  0  0  0
  4  5  1  0  0  0
  5  6  2  0  0  0
  6  7  1  0  0  0
  6  8  1  0  0  0
  8 10  1  0  0  0
 10 12  1  0  0  0
 12 13  2  0  0  0
 13 14  1  0  0  0
 14 15  2  0  0  0
 15 16  1  0  0  0
 16 17  2  0  0  0
 17 18  1  0  0  0
 18 19  2  0  0  0
 18 20  2  0  0  0
 18 21  1  0  0  0
 21 22  1  0  0  0
 21 23  1  0  0  0
  8  9  2  0  0  0
 26 30  1  0  0  0
 30 31  1  0  0  0
 31 32  1  0  0  0
 32 33  1  0  0  0
 33 34  1  0  0  0
 34 35  1  0  0  0
 33 36  1  0  0  0
 36 37  1  0  0  0
 37 38  1  0  0  0
 38 39  1  0  0  0
 39 40  1  0  0  0
 39 41  1  0  0  0
 41 42  1  0  0  0
 29 24  1  0  0  0
  9  3  1  0  0  0
 35 30  1  0  0  0
 42 36  1  0  0  0
 17 12  1  0  0  0
  1  2  1  0  0  0
 10 11  1  0  0  0
M  END
> <minimizedAffinity>
-7.14249

> <CNNscore>
0.0390716605

> <CNNaffinity>
6.8881554604

> <CNN_VS>
0.2691316605

> <CNNaffinity_variance>
0.2080488950

$$$$
[H]c1nc(N([H])c2c([H])c([H])c(N3C([H])([H])C([H])([H])C([H])(N4C([H])([H])C([H])([H])N(C([H])([H])[H])C([H])([H])C4([H])[H])C([H])([H])C3([H])[H])c([H])c2OC([H])([H])[H])nc(N([H])c2c([H])c([H])c([H])c([H])c2S(=O)(=O)C([H])(C([H])([H])[H])C([H])([H])[H])c1Cl


 44 48  0  0  0  0  0  0  0  0999 V2000
    7.8242   21.5585    3.8031 N   0  0  0  0  0  0  0  0  0  0  0  0
    6.8151   21.9484    3.8333 H   0  0  0  0  0  0  0  0  0  0  0  0
    8.1206   20.5186    4.7236 C   0  0  0  0  0  0  0  0  0  0  0  0
    9.1543   20.4836    5.5684 N   0  0  0  0  0  0  0  0  0  0  0  0
    9.3745   19.4690    6.4137 C   0  0  0  0  0  0  0  0  0  0  0  0
    8.5130   18.3974    6.4369 C   0  0  0  0  0  0  0  0  0  0  0  0
    8.7866   17.0541    7.5421 Cl  0  0  0  0  0  0  0  0  0  0  0  0
    7.4131   18.4098    5.5544 C   0  0  0  0  0  0  0  0  0  0  0  0
    7.2799   19.4666    4.7504 N   0  0  0  0  0  0  0  0  0  0  0  0
    6.5483   17.3055    5.5994 N   0  0  0  0  0  0  0  0  0  0  0  0
    6.9733   16.3943    5.2251 H   0  0  0  0  0  0  0  0  0  0  0  0
    5.2249   17.1762    6.0468 C   0  0  0  0  0  0  0  0  0  0  0  0
    4.9545   17.1331    7.3982 C   0  0  0  0  0  0  0  0  0  0  0  0
    3.6388   17.0024    7.8609 C   0  0  0  0  0  0  0  0  0  0  0  0
    2.6240   16.9179    6.9555 C   0  0  0  0  0  0  0  0  0  0  0  0
    2.8971   16.9614    5.6069 C   0  0  0  0  0  0  0  0  0  0  0  0
    4.1743   17.0888    5.1268 C   0  0  0  0  0  0  0  0  0  0  0  0
    4.4975   17.1426    3.4437 S   0  0  0  0  0  0  0  0  0  0  0  0
    3.4809   16.3141    2.6991 O   0  0  0  0  0  0  0  0  0  0  0  0
    5.8643   16.6556    3.0510 O   0  0  0  0  0  0  0  0  0  0  0  0
    4.3615   18.7892    2.7740 C   0  0  0  0  0  0  0  0  0  0  0  0
    3.4195   18.8158    1.6145 C   0  0  0  0  0  0  0  0  0  0  0  0
    4.1295   19.8360    3.8119 C   0  0  0  0  0  0  0  0  0  0  0  0
    9.4097   23.2786    3.2556 C   0  0  0  0  0  0  0  0  0  0  0  0
   10.2627   23.9255    2.3803 C   0  0  0  0  0  0  0  0  0  0  0  0
   10.4252   23.5040    1.0793 C   0  0  0  0  0  0  0  0  0  0  0  0
    9.6929   22.4054    0.7001 C   0  0  0  0  0  0  0  0  0  0  0  0
    8.8216   21.7283    1.5592 C   0  0  0  0  0  0  0  0  0  0  0  0
    8.6638   22.1530    2.8545 C   0  0  0  0  0  0  0  0  0  0  0  0
   11.3169   24.1790    0.1879 N   0  0  0  0  0  0  0  0  0  0  0  0
   12.0257   25.3140    0.6712 C   0  0  0  0  0  0  0  0  0  0  0  0
   13.1906   25.7675   -0.1632 C   0  0  0  0  0  0  0  0  0  0  0  0
   12.9354   25.7634   -1.6328 C   0  0  0  0  0  0  0  0  0  0  0  0
   11.7115   24.9572   -2.0191 C   0  0  0  0  0  0  0  0  0  0  0  0
   11.5080   23.7449   -1.1752 C   0  0  0  0  0  0  0  0  0  0  0  0
   14.0050   25.4107   -2.4785 N   0  0  0  0  0  0  0  0  0  0  0  0
   15.1387   24.7869   -1.9356 C   0  0  0  0  0  0  0  0  0  0  0  0
   16.2926   24.8550   -2.9400 C   0  0  0  0  0  0  0  0  0  0  0  0
   15.7638   24.5078   -4.2448 N   0  0  0  0  0  0  0  0  0  0  0  0
   15.4216   23.1292   -4.3912 C   0  0  0  0  0  0  0  0  0  0  0  0
   14.7972   25.4397   -4.7290 C   0  0  0  0  0  0  0  0  0  0  0  0
   14.3000   26.2914   -3.5629 C   0  0  0  0  0  0  0  0  0  0  0  0
    8.4616   24.8666    4.7972 C   0  0  0  0  0  0  0  0  0  0  0  0
    9.2938   23.7561    4.5518 O   0  0  0  0  0  0  0  0  0  0  0  0
 43 44  1  0  0  0
 44 24  1  0  0  0
 24 25  2  0  0  0
 25 26  1  0  0  0
 26 27  2  0  0  0
 27 28  1  0  0  0
 28 29  2  0  0  0
 29  1  1  0  0  0
  1  3  1  0  0  0
  3  4  2  0  0  0
  4  5  1  0  0  0
  5  6  2  0  0  0
  6  7  1  0  0  0
  6  8  1  0  0  0
  8 10  1  0  0  0
 10 12  1  0  0  0
 12 13  2  0  0  0
 13 14  1  0  0  0
 14 15  2  0  0  0
 15 16  1  0  0  0
 16 17  2  0  0  0
 17 18  1  0  0  0
 18 19  2  0  0  0
 18 20  2  0  0  0
 18 21  1  0  0  0
 21 22  1  0  0  0
 21 23  1  0  0  0
  8  9  2  0  0  0
 26 30  1  0  0  0
 30 31  1  0  0  0
 31 32  1  0  0  0
 32 33  1  0  0  0
 33 34  1  0  0  0
 34 35  1  0  0  0
 33 36  1  0  0  0
 36 37  1  0  0  0
 37 38  1  0  0  0
 38 39  1  0  0  0
 39 40  1  0  0  0
 39 41  1  0  0  0
 41 42  1  0  0  0
 29 24  1  0  0  0
  9  3  1  0  0  0
 35 30  1  0  0  0
 42 36  1  0  0  0
 17 12  1  0  0  0
  1  2  1  0  0  0
 10 11  1  0  0  0
M  END
> <minimizedAffinity>
-6.42750

> <CNNscore>
0.0320521556

> <CNNaffinity>
6.8377714157

> <CNN_VS>
0.2191653103

> <CNNaffinity_variance>
0.2589842081

$$$$
[H]c1nc(N([H])c2c([H])c([H])c(N3C([H])([H])C([H])([H])C([H])(N4C([H])([H])C([H])([H])N(C([H])([H])[H])C([H])([H])C4([H])[H])C([H])([H])C3([H])[H])c([H])c2OC([H])([H])[H])nc(N([H])c2c([H])c([H])c([H])c([H])c2S(=O)(=O)C([H])(C([H])([H])[H])C([H])([H])[H])c1Cl


 44 48  0  0  0  0  0  0  0  0999 V2000
    6.8848   22.6394    2.5722 N   0  0  0  0  0  0  0  0  0  0  0  0
    6.0689   22.9036    1.9120 H   0  0  0  0  0  0  0  0  0  0  0  0
    6.5196   22.1870    3.8678 C   0  0  0  0  0  0  0  0  0  0  0  0
    6.5131   22.9173    4.9857 N   0  0  0  0  0  0  0  0  0  0  0  0
    6.1548   22.4263    6.1786 C   0  0  0  0  0  0  0  0  0  0  0  0
    5.7700   21.1107    6.2903 C   0  0  0  0  0  0  0  0  0  0  0  0
    5.2954   20.4476    7.8509 Cl  0  0  0  0  0  0  0  0  0  0  0  0
    5.7682   20.3177    5.1242 C   0  0  0  0  0  0  0  0  0  0  0  0
    6.1419   20.8993    3.9827 N   0  0  0  0  0  0  0  0  0  0  0  0
    5.3696   18.9795    5.2651 N   0  0  0  0  0  0  0  0  0  0  0  0
    4.9062   18.7518    6.2056 H   0  0  0  0  0  0  0  0  0  0  0  0
    5.4670   17.8820    4.3966 C   0  0  0  0  0  0  0  0  0  0  0  0
    5.3369   18.0651    3.0361 C   0  0  0  0  0  0  0  0  0  0  0  0
    5.4298   16.9793    2.1559 C   0  0  0  0  0  0  0  0  0  0  0  0
    5.6512   15.7338    2.6623 C   0  0  0  0  0  0  0  0  0  0  0  0
    5.7809   15.5542    4.0209 C   0  0  0  0  0  0  0  0  0  0  0  0
    5.6945   16.5982    4.9044 C   0  0  0  0  0  0  0  0  0  0  0  0
    5.8594   16.3578    6.5941 S   0  0  0  0  0  0  0  0  0  0  0  0
    5.5747   14.9173    6.9379 O   0  0  0  0  0  0  0  0  0  0  0  0
    4.9641   17.2184    7.4410 O   0  0  0  0  0  0  0  0  0  0  0  0
    7.5167   16.6727    7.1707 C   0  0  0  0  0  0  0  0  0  0  0  0
    8.5159   16.3964    6.0945 C   0  0  0  0  0  0  0  0  0  0  0  0
    7.6664   17.9869    7.8616 C   0  0  0  0  0  0  0  0  0  0  0  0
    8.7580   24.0669    2.0975 C   0  0  0  0  0  0  0  0  0  0  0  0
   10.0196   24.3027    1.5828 C   0  0  0  0  0  0  0  0  0  0  0  0
   10.7555   23.3078    0.9786 C   0  0  0  0  0  0  0  0  0  0  0  0
   10.1664   22.0684    0.9162 C   0  0  0  0  0  0  0  0  0  0  0  0
    8.8932   21.7958    1.4261 C   0  0  0  0  0  0  0  0  0  0  0  0
    8.1645   22.7914    2.0269 C   0  0  0  0  0  0  0  0  0  0  0  0
   12.0623   23.5653    0.4576 N   0  0  0  0  0  0  0  0  0  0  0  0
   13.0167   22.5103    0.4733 C   0  0  0  0  0  0  0  0  0  0  0  0
   14.2327   22.7093   -0.3872 C   0  0  0  0  0  0  0  0  0  0  0  0
   14.8115   24.0829   -0.3291 C   0  0  0  0  0  0  0  0  0  0  0  0
   13.8628   25.1002    0.2727 C   0  0  0  0  0  0  0  0  0  0  0  0
   12.4329   24.8558   -0.0720 C   0  0  0  0  0  0  0  0  0  0  0  0
   15.3595   24.6093   -1.5149 N   0  0  0  0  0  0  0  0  0  0  0  0
   15.0546   24.0059   -2.7447 C   0  0  0  0  0  0  0  0  0  0  0  0
   16.0421   24.4871   -3.8115 C   0  0  0  0  0  0  0  0  0  0  0  0
   16.1873   25.9223   -3.6642 N   0  0  0  0  0  0  0  0  0  0  0  0
   15.0407   26.6722   -4.0670 C   0  0  0  0  0  0  0  0  0  0  0  0
   16.7716   26.3065   -2.4199 C   0  0  0  0  0  0  0  0  0  0  0  0
   16.6863   25.1323   -1.4470 C   0  0  0  0  0  0  0  0  0  0  0  0
    8.7237   25.8830    3.6779 C   0  0  0  0  0  0  0  0  0  0  0  0
    8.0722   25.1143    2.6927 O   0  0  0  0  0  0  0  0  0  0  0  0
 43 44  1  0  0  0
 44 24  1  0  0  0
 24 25  2  0  0  0
 25 26  1  0  0  0
 26 27  2  0  0  0
 27 28  1  0  0  0
 28 29  2  0  0  0
 29  1  1  0  0  0
  1  3  1  0  0  0
  3  4  2  0  0  0
  4  5  1  0  0  0
  5  6  2  0  0  0
  6  7  1  0  0  0
  6  8  1  0  0  0
  8 10  1  0  0  0
 10 12  1  0  0  0
 12 13  2  0  0  0
 13 14  1  0  0  0
 14 15  2  0  0  0
 15 16  1  0  0  0
 16 17  2  0  0  0
 17 18  1  0  0  0
 18 19  2  0  0  0
 18 20  2  0  0  0
 18 21  1  0  0  0
 21 22  1  0  0  0
 21 23  1  0  0  0
  8  9  2  0  0  0
 26 30  1  0  0  0
 30 31  1  0  0  0
 31 32  1  0  0  0
 32 33  1  0  0  0
 33 34  1  0  0  0
 34 35  1  0  0  0
 33 36  1  0  0  0
 36 37  1  0  0  0
 37 38  1  0  0  0
 38 39  1  0  0  0
 39 40  1  0  0  0
 39 41  1  0  0  0
 41 42  1  0  0  0
 29 24  1  0  0  0
  9  3  1  0  0  0
 35 30  1  0  0  0
 42 36  1  0  0  0
 17 12  1  0  0  0
  1  2  1  0  0  0
 10 11  1  0  0  0
M  END
> <minimizedAffinity>
-7.24496

> <CNNscore>
0.0302665103

> <CNNaffinity>
6.5609893799

> <CNN_VS>
0.1985782534

> <CNNaffinity_variance>
0.2246417254

$$$$
[H]c1nc(N([H])c2c([H])c([H])c(N3C([H])([H])C([H])([H])C([H])(N4C([H])([H])C([H])([H])N(C([H])([H])[H])C([H])([H])C4([H])[H])C([H])([H])C3([H])[H])c([H])c2OC([H])([H])[H])nc(N([H])c2c([H])c([H])c([H])c([H])c2S(=O)(=O)C([H])(C([H])([H])[H])C([H])([H])[H])c1Cl


 44 48  0  0  0  0  0  0  0  0999 V2000
   10.7887   20.3711    2.2624 N   0  0  0  0  0  0  0  0  0  0  0  0
   10.2737   19.5135    1.8494 H   0  0  0  0  0  0  0  0  0  0  0  0
   10.5086   20.6741    3.6212 C   0  0  0  0  0  0  0  0  0  0  0  0
   11.4082   20.8417    4.5938 N   0  0  0  0  0  0  0  0  0  0  0  0
   11.0741   21.1284    5.8582 C   0  0  0  0  0  0  0  0  0  0  0  0
    9.7497   21.2631    6.2031 C   0  0  0  0  0  0  0  0  0  0  0  0
    9.2915   21.6402    7.8609 Cl  0  0  0  0  0  0  0  0  0  0  0  0
    8.7795   21.0910    5.1942 C   0  0  0  0  0  0  0  0  0  0  0  0
    9.2130   20.8071    3.9643 N   0  0  0  0  0  0  0  0  0  0  0  0
    7.4358   21.2357    5.5719 N   0  0  0  0  0  0  0  0  0  0  0  0
    7.0679   22.2423    5.5240 H   0  0  0  0  0  0  0  0  0  0  0  0
    6.4829   20.2999    6.0018 C   0  0  0  0  0  0  0  0  0  0  0  0
    6.8282   18.9708    6.1259 C   0  0  0  0  0  0  0  0  0  0  0  0
    5.8879   18.0240    6.5521 C   0  0  0  0  0  0  0  0  0  0  0  0
    4.6216   18.4337    6.8441 C   0  0  0  0  0  0  0  0  0  0  0  0
    4.2799   19.7614    6.7195 C   0  0  0  0  0  0  0  0  0  0  0  0
    5.1794   20.7085    6.3049 C   0  0  0  0  0  0  0  0  0  0  0  0
    4.7381   22.3587    6.1559 S   0  0  0  0  0  0  0  0  0  0  0  0
    3.2703   22.4700    5.8286 O   0  0  0  0  0  0  0  0  0  0  0  0
    5.5018   23.1207    5.1092 O   0  0  0  0  0  0  0  0  0  0  0  0
    4.9639   23.2662    7.6737 C   0  0  0  0  0  0  0  0  0  0  0  0
    6.3958   23.6531    7.8544 C   0  0  0  0  0  0  0  0  0  0  0  0
    3.9743   24.3674    7.8609 C   0  0  0  0  0  0  0  0  0  0  0  0
   11.0681   21.9219    0.4488 C   0  0  0  0  0  0  0  0  0  0  0  0
   11.8437   22.6165   -0.4612 C   0  0  0  0  0  0  0  0  0  0  0  0
   13.2129   22.4758   -0.5057 C   0  0  0  0  0  0  0  0  0  0  0  0
   13.7648   21.6072    0.4043 C   0  0  0  0  0  0  0  0  0  0  0  0
   13.0100   20.8895    1.3374 C   0  0  0  0  0  0  0  0  0  0  0  0
   11.6460   21.0338    1.3769 C   0  0  0  0  0  0  0  0  0  0  0  0
   14.0025   23.2067   -1.4479 N   0  0  0  0  0  0  0  0  0  0  0  0
   14.6456   22.4874   -2.4936 C   0  0  0  0  0  0  0  0  0  0  0  0
   15.1590   23.3115   -3.6408 C   0  0  0  0  0  0  0  0  0  0  0  0
   15.8384   24.5764   -3.2363 C   0  0  0  0  0  0  0  0  0  0  0  0
   15.5500   24.9707   -1.8016 C   0  0  0  0  0  0  0  0  0  0  0  0
   14.1650   24.6381   -1.3608 C   0  0  0  0  0  0  0  0  0  0  0  0
   15.6677   25.7014   -4.0663 N   0  0  0  0  0  0  0  0  0  0  0  0
   16.6624   26.6906   -4.1029 C   0  0  0  0  0  0  0  0  0  0  0  0
   16.0997   27.9608   -4.7470 C   0  0  0  0  0  0  0  0  0  0  0  0
   15.3524   27.5653   -5.9250 N   0  0  0  0  0  0  0  0  0  0  0  0
   16.1632   27.1067   -7.0074 C   0  0  0  0  0  0  0  0  0  0  0  0
   14.2090   26.7649   -5.6266 C   0  0  0  0  0  0  0  0  0  0  0  0
   14.3433   26.2155   -4.2078 C   0  0  0  0  0  0  0  0  0  0  0  0
    9.1864   23.4209    0.5472 C   0  0  0  0  0  0  0  0  0  0  0  0
    9.6948   22.1110    0.4387 O   0  0  0  0  0  0  0  0  0  0  0  0
 43 44  1  0  0  0
 44 24  1  0  0  0
 24 25  2  0  0  0
 25 26  1  0  0  0
 26 27  2  0  0  0
 27 28  1  0  0  0
 28 29  2  0  0  0
 29  1  1  0  0  0
  1  3  1  0  0  0
  3  4  2  0  0  0
  4  5  1  0  0  0
  5  6  2  0  0  0
  6  7  1  0  0  0
  6  8  1  0  0  0
  8 10  1  0  0  0
 10 12  1  0  0  0
 12 13  2  0  0  0
 13 14  1  0  0  0
 14 15  2  0  0  0
 15 16  1  0  0  0
 16 17  2  0  0  0
 17 18  1  0  0  0
 18 19  2  0  0  0
 18 20  2  0  0  0
 18 21  1  0  0  0
 21 22  1  0  0  0
 21 23  1  0  0  0
  8  9  2  0  0  0
 26 30  1  0  0  0
 30 31  1  0  0  0
 31 32  1  0  0  0
 32 33  1  0  0  0
 33 34  1  0  0  0
 34 35  1  0  0  0
 33 36  1  0  0  0
 36 37  1  0  0  0
 37 38  1  0  0  0
 38 39  1  0  0  0
 39 40  1  0  0  0
 39 41  1  0  0  0
 41 42  1  0  0  0
 29 24  1  0  0  0
  9  3  1  0  0  0
 35 30  1  0  0  0
 42 36  1  0  0  0
 17 12  1  0  0  0
  1  2  1  0  0  0
 10 11  1  0  0  0
M  END
> <minimizedAffinity>
-7.57461

> <CNNscore>
0.0282120425

> <CNNaffinity>
7.0809502602

> <CNN_VS>
0.1997680664

> <CNNaffinity_variance>
0.2573227584

$$$$
[H]c1nc(N([H])c2c([H])c([H])c(N3C([H])([H])C([H])([H])C([H])(N4C([H])([H])C([H])([H])N(C([H])([H])[H])C([H])([H])C4([H])[H])C([H])([H])C3([H])[H])c([H])c2OC([H])([H])[H])nc(N([H])c2c([H])c([H])c([H])c([H])c2S(=O)(=O)C([H])(C([H])([H])[H])C([H])([H])[H])c1Cl


 44 48  0  0  0  0  0  0  0  0999 V2000
    9.1500   21.6283    5.5168 N   0  0  0  0  0  0  0  0  0  0  0  0
    9.8128   21.1838    6.2477 H   0  0  0  0  0  0  0  0  0  0  0  0
    7.7799   21.7075    5.8813 C   0  0  0  0  0  0  0  0  0  0  0  0
    7.2457   22.5570    6.7624 N   0  0  0  0  0  0  0  0  0  0  0  0
    5.9404   22.5788    7.0592 C   0  0  0  0  0  0  0  0  0  0  0  0
    5.0832   21.6968    6.4441 C   0  0  0  0  0  0  0  0  0  0  0  0
    3.3633   21.7110    6.8217 Cl  0  0  0  0  0  0  0  0  0  0  0  0
    5.6222   20.7889    5.5092 C   0  0  0  0  0  0  0  0  0  0  0  0
    6.9360   20.8458    5.2817 N   0  0  0  0  0  0  0  0  0  0  0  0
    4.7260   19.9012    4.8944 N   0  0  0  0  0  0  0  0  0  0  0  0
    3.6936   20.0873    5.1190 H   0  0  0  0  0  0  0  0  0  0  0  0
    4.9356   18.8112    4.0362 C   0  0  0  0  0  0  0  0  0  0  0  0
    4.9634   19.0032    2.6711 C   0  0  0  0  0  0  0  0  0  0  0  0
    5.1698   17.9250    1.8009 C   0  0  0  0  0  0  0  0  0  0  0  0
    5.3435   16.6779    2.3217 C   0  0  0  0  0  0  0  0  0  0  0  0
    5.3154   16.4894    3.6850 C   0  0  0  0  0  0  0  0  0  0  0  0
    5.1156   17.5258    4.5590 C   0  0  0  0  0  0  0  0  0  0  0  0
    5.0845   17.2744    6.2549 S   0  0  0  0  0  0  0  0  0  0  0  0
    3.6577   17.2359    6.7420 O   0  0  0  0  0  0  0  0  0  0  0  0
    5.8165   18.3135    7.0572 O   0  0  0  0  0  0  0  0  0  0  0  0
    5.7975   15.7101    6.7270 C   0  0  0  0  0  0  0  0  0  0  0  0
    7.2795   15.8253    6.8794 C   0  0  0  0  0  0  0  0  0  0  0  0
    5.0864   15.0505    7.8611 C   0  0  0  0  0  0  0  0  0  0  0  0
    9.4159   23.3171    3.8288 C   0  0  0  0  0  0  0  0  0  0  0  0
    9.9779   23.8088    2.6649 C   0  0  0  0  0  0  0  0  0  0  0  0
   10.9037   23.0877    1.9441 C   0  0  0  0  0  0  0  0  0  0  0  0
   11.2376   21.8533    2.4461 C   0  0  0  0  0  0  0  0  0  0  0  0
   10.6885   21.3263    3.6192 C   0  0  0  0  0  0  0  0  0  0  0  0
    9.7663   22.0495    4.3331 C   0  0  0  0  0  0  0  0  0  0  0  0
   11.4818   23.6128    0.7460 N   0  0  0  0  0  0  0  0  0  0  0  0
   11.2673   24.9848    0.4364 C   0  0  0  0  0  0  0  0  0  0  0  0
   12.1652   25.5706   -0.6169 C   0  0  0  0  0  0  0  0  0  0  0  0
   12.3900   24.6865   -1.7971 C   0  0  0  0  0  0  0  0  0  0  0  0
   11.9921   23.2464   -1.5425 C   0  0  0  0  0  0  0  0  0  0  0  0
   12.2632   22.7926   -0.1483 C   0  0  0  0  0  0  0  0  0  0  0  0
   13.6638   24.7131   -2.3974 N   0  0  0  0  0  0  0  0  0  0  0  0
   14.7678   24.2002   -1.6991 C   0  0  0  0  0  0  0  0  0  0  0  0
   16.0623   24.6796   -2.3620 C   0  0  0  0  0  0  0  0  0  0  0  0
   15.9084   24.5248   -3.7955 N   0  0  0  0  0  0  0  0  0  0  0  0
   15.9173   23.1688   -4.2434 C   0  0  0  0  0  0  0  0  0  0  0  0
   14.8834   25.3513   -4.3464 C   0  0  0  0  0  0  0  0  0  0  0  0
   13.9776   25.8389   -3.2175 C   0  0  0  0  0  0  0  0  0  0  0  0
    8.8358   25.4164    4.8553 C   0  0  0  0  0  0  0  0  0  0  0  0
    8.4897   24.0960    4.5049 O   0  0  0  0  0  0  0  0  0  0  0  0
 43 44  1  0  0  0
 44 24  1  0  0  0
 24 25  2  0  0  0
 25 26  1  0  0  0
 26 27  2  0  0  0
 27 28  1  0  0  0
 28 29  2  0  0  0
 29  1  1  0  0  0
  1  3  1  0  0  0
  3  4  2  0  0  0
  4  5  1  0  0  0
  5  6  2  0  0  0
  6  7  1  0  0  0
  6  8  1  0  0  0
  8 10  1  0  0  0
 10 12  1  0  0  0
 12 13  2  0  0  0
 13 14  1  0  0  0
 14 15  2  0  0  0
 15 16  1  0  0  0
 16 17  2  0  0  0
 17 18  1  0  0  0
 18 19  2  0  0  0
 18 20  2  0  0  0
 18 21  1  0  0  0
 21 22  1  0  0  0
 21 23  1  0  0  0
  8  9  2  0  0  0
 26 30  1  0  0  0
 30 31  1  0  0  0
 31 32  1  0  0  0
 32 33  1  0  0  0
 33 34  1  0  0  0
 34 35  1  0  0  0
 33 36  1  0  0  0
 36 37  1  0  0  0
 37 38  1  0  0  0
 38 39  1  0  0  0
 39 40  1  0  0  0
 39 41  1  0  0  0
 41 42  1  0  0  0
 29 24  1  0  0  0
  9  3  1  0  0  0
 35 30  1  0  0  0
 42 36  1  0  0  0
 17 12  1  0  0  0
  1  2  1  0  0  0
 10 11  1  0  0  0
M  END
> <minimizedAffinity>
-6.40459

> <CNNscore>
0.0281197298

> <CNNaffinity>
6.8738112450

> <CNN_VS>
0.1932897121

> <CNNaffinity_variance>
0.3712800145

$$$$
[H]c1c([H])c(C2=NN(C3([H])C([H])([H])C([H])([H])N(C(=O)C([H])([H])N4C(=O)C([H])([H])C([H])([H])C4=O)C([H])([H])C3([H])[H])C(=O)C2(C([H])([H])[H])C([H])([H])[H])c([H])c(OC([H])([H])[H])c1OC([H])([H])[H]


 34 37  0  0  0  0  0  0  0  0999 V2000
   14.4397   24.5800   -1.7263 C   0  0  0  0  0  0  0  0  0  0  0  0
   13.2428   24.5105   -1.2643 N   0  0  0  0  0  0  0  0  0  0  0  0
   13.1700   23.7893   -0.0966 N   0  0  0  0  0  0  0  0  0  0  0  0
   14.4726   23.3398    0.2351 C   0  0  0  0  0  0  0  0  0  0  0  0
   14.8780   22.6537    1.2052 O   0  0  0  0  0  0  0  0  0  0  0  0
   15.3676   23.8533   -0.8427 C   0  0  0  0  0  0  0  0  0  0  0  0
   16.4254   24.7511   -0.2299 C   0  0  0  0  0  0  0  0  0  0  0  0
   15.9784   22.6769   -1.5777 C   0  0  0  0  0  0  0  0  0  0  0  0
   11.9993   23.4885    0.7258 C   0  0  0  0  0  0  0  0  0  0  0  0
   10.9055   24.4348    0.3822 C   0  0  0  0  0  0  0  0  0  0  0  0
    9.6102   23.7615    0.0097 C   0  0  0  0  0  0  0  0  0  0  0  0
    9.3469   22.7324    0.9840 N   0  0  0  0  0  0  0  0  0  0  0  0
   10.3272   21.6497    1.0667 C   0  0  0  0  0  0  0  0  0  0  0  0
   11.6603   22.0434    0.5055 C   0  0  0  0  0  0  0  0  0  0  0  0
    8.2155   22.7331    1.8312 C   0  0  0  0  0  0  0  0  0  0  0  0
    7.3931   23.6725    1.7382 O   0  0  0  0  0  0  0  0  0  0  0  0
    7.9763   21.6649    2.8168 C   0  0  0  0  0  0  0  0  0  0  0  0
    8.7991   21.8435    3.9953 N   0  0  0  0  0  0  0  0  0  0  0  0
    9.9393   21.0850    4.3833 C   0  0  0  0  0  0  0  0  0  0  0  0
   10.4322   20.1263    3.7264 O   0  0  0  0  0  0  0  0  0  0  0  0
   10.4846   21.5662    5.6718 C   0  0  0  0  0  0  0  0  0  0  0  0
    9.5070   22.5985    6.1534 C   0  0  0  0  0  0  0  0  0  0  0  0
    8.6125   22.8411    5.0137 C   0  0  0  0  0  0  0  0  0  0  0  0
    7.7886   23.7976    4.9358 O   0  0  0  0  0  0  0  0  0  0  0  0
   15.5274   26.6492   -5.2857 C   0  0  0  0  0  0  0  0  0  0  0  0
   14.6546   25.5814   -5.3625 C   0  0  0  0  0  0  0  0  0  0  0  0
   14.3144   24.9210   -4.1834 C   0  0  0  0  0  0  0  0  0  0  0  0
   14.8056   25.2810   -2.9480 C   0  0  0  0  0  0  0  0  0  0  0  0
   15.6895   26.3699   -2.9078 C   0  0  0  0  0  0  0  0  0  0  0  0
   16.0336   27.0301   -4.0616 C   0  0  0  0  0  0  0  0  0  0  0  0
   16.2249   26.8088   -7.6464 C   0  0  0  0  0  0  0  0  0  0  0  0
   15.9246   27.3678   -6.4024 O   0  0  0  0  0  0  0  0  0  0  0  0
   16.9081   28.1031   -3.9994 O   0  0  0  0  0  0  0  0  0  0  0  0
   18.0796   28.0705   -3.1840 C   0  0  0  0  0  0  0  0  0  0  0  0
 31 32  1  0  0  0
 32 25  1  0  0  0
 25 26  2  0  0  0
 26 27  1  0  0  0
 27 28  2  0  0  0
 28 29  1  0  0  0
 29 30  2  0  0  0
 30 33  1  0  0  0
 33 34  1  0  0  0
 28  1  1  0  0  0
  1  2  2  0  0  0
  2  3  1  0  0  0
  3  9  1  0  0  0
  9 10  1  0  0  0
 10 11  1  0  0  0
 11 12  1  0  0  0
 12 13  1  0  0  0
 13 14  1  0  0  0
 12 15  1  0  0  0
 15 16  2  0  0  0
 15 17  1  0  0  0
 17 18  1  0  0  0
 18 19  1  0  0  0
 19 20  2  0  0  0
 19 21  1  0  0  0
 21 22  1  0  0  0
 22 23  1  0  0  0
 23 24  2  0  0  0
  3  4  1  0  0  0
  4  5  2  0  0  0
  4  6  1  0  0  0
  6  7  1  0  0  0
  6  8  1  0  0  0
 30 25  1  0  0  0
  6  1  1  0  0  0
 14  9  1  0  0  0
 23 18  1  0  0  0
M  END
> <minimizedAffinity>
-5.10751

> <CNNscore>
0.5117795467

> <CNNaffinity>
7.5234670639

> <CNN_VS>
3.8503565788

> <CNNaffinity_variance>
0.2755421996

$$$$
[H]c1c([H])c(C2=NN(C3([H])C([H])([H])C([H])([H])N(C(=O)C([H])([H])N4C(=O)C([H])([H])C([H])([H])C4=O)C([H])([H])C3([H])[H])C(=O)C2(C([H])([H])[H])C([H])([H])[H])c([H])c(OC([H])([H])[H])c1OC([H])([H])[H]


 34 37  0  0  0  0  0  0  0  0999 V2000
   13.2507   23.3435   -0.8692 C   0  0  0  0  0  0  0  0  0  0  0  0
   12.3904   23.9067   -0.0988 N   0  0  0  0  0  0  0  0  0  0  0  0
   11.9336   23.0636    0.8858 N   0  0  0  0  0  0  0  0  0  0  0  0
   12.5736   21.8082    0.7341 C   0  0  0  0  0  0  0  0  0  0  0  0
   12.4647   20.7496    1.4002 O   0  0  0  0  0  0  0  0  0  0  0  0
   13.4775   21.9514   -0.4444 C   0  0  0  0  0  0  0  0  0  0  0  0
   14.9080   21.6906   -0.0132 C   0  0  0  0  0  0  0  0  0  0  0  0
   13.0282   20.9927   -1.5289 C   0  0  0  0  0  0  0  0  0  0  0  0
   10.9608   23.3294    1.9444 C   0  0  0  0  0  0  0  0  0  0  0  0
    9.7717   24.0007    1.3568 C   0  0  0  0  0  0  0  0  0  0  0  0
    8.4674   23.3126    1.6654 C   0  0  0  0  0  0  0  0  0  0  0  0
    8.4524   22.9965    3.0717 N   0  0  0  0  0  0  0  0  0  0  0  0
    9.4876   22.0760    3.5419 C   0  0  0  0  0  0  0  0  0  0  0  0
   10.6647   22.0202    2.6153 C   0  0  0  0  0  0  0  0  0  0  0  0
    7.5066   23.5258    3.9789 C   0  0  0  0  0  0  0  0  0  0  0  0
    6.6319   24.3112    3.5482 O   0  0  0  0  0  0  0  0  0  0  0  0
    7.5195   23.1817    5.4110 C   0  0  0  0  0  0  0  0  0  0  0  0
    6.7411   21.9884    5.6718 N   0  0  0  0  0  0  0  0  0  0  0  0
    7.2223   20.6937    6.0152 C   0  0  0  0  0  0  0  0  0  0  0  0
    8.4371   20.3873    6.1696 O   0  0  0  0  0  0  0  0  0  0  0  0
    6.1055   19.7358    6.1718 C   0  0  0  0  0  0  0  0  0  0  0  0
    4.8774   20.4888    5.7502 C   0  0  0  0  0  0  0  0  0  0  0  0
    5.3074   21.8884    5.6310 C   0  0  0  0  0  0  0  0  0  0  0  0
    4.5245   22.8744    5.5092 O   0  0  0  0  0  0  0  0  0  0  0  0
   15.1251   25.2967   -4.1563 C   0  0  0  0  0  0  0  0  0  0  0  0
   15.5443   24.0324   -3.7908 C   0  0  0  0  0  0  0  0  0  0  0  0
   14.9147   23.4147   -2.7117 C   0  0  0  0  0  0  0  0  0  0  0  0
   13.8972   24.0032   -1.9938 C   0  0  0  0  0  0  0  0  0  0  0  0
   13.4974   25.2874   -2.3930 C   0  0  0  0  0  0  0  0  0  0  0  0
   14.1086   25.9081   -3.4545 C   0  0  0  0  0  0  0  0  0  0  0  0
   15.2196   25.9626   -6.5296 C   0  0  0  0  0  0  0  0  0  0  0  0
   15.6896   25.9910   -5.2149 O   0  0  0  0  0  0  0  0  0  0  0  0
   13.6984   27.1766   -3.8322 O   0  0  0  0  0  0  0  0  0  0  0  0
   12.3504   27.4459   -4.2178 C   0  0  0  0  0  0  0  0  0  0  0  0
 31 32  1  0  0  0
 32 25  1  0  0  0
 25 26  2  0  0  0
 26 27  1  0  0  0
 27 28  2  0  0  0
 28 29  1  0  0  0
 29 30  2  0  0  0
 30 33  1  0  0  0
 33 34  1  0  0  0
 28  1  1  0  0  0
  1  2  2  0  0  0
  2  3  1  0  0  0
  3  9  1  0  0  0
  9 10  1  0  0  0
 10 11  1  0  0  0
 11 12  1  0  0  0
 12 13  1  0  0  0
 13 14  1  0  0  0
 12 15  1  0  0  0
 15 16  2  0  0  0
 15 17  1  0  0  0
 17 18  1  0  0  0
 18 19  1  0  0  0
 19 20  2  0  0  0
 19 21  1  0  0  0
 21 22  1  0  0  0
 22 23  1  0  0  0
 23 24  2  0  0  0
  3  4  1  0  0  0
  4  5  2  0  0  0
  4  6  1  0  0  0
  6  7  1  0  0  0
  6  8  1  0  0  0
 30 25  1  0  0  0
  6  1  1  0  0  0
 14  9  1  0  0  0
 23 18  1  0  0  0
M  END
> <minimizedAffinity>
-7.70089

> <CNNscore>
0.4796055257

> <CNNaffinity>
7.1462678909

> <CNN_VS>
3.4273896217

> <CNNaffinity_variance>
0.2764825225

$$$$
[H]c1c([H])c(C2=NN(C3([H])C([H])([H])C([H])([H])N(C(=O)C([H])([H])N4C(=O)C([H])([H])C([H])([H])C4=O)C([H])([H])C3([H])[H])C(=O)C2(C([H])([H])[H])C([H])([H])[H])c([H])c(OC([H])([H])[H])c1OC([H])([H])[H]


 34 37  0  0  0  0  0  0  0  0999 V2000
   13.1830   23.4695   -1.3689 C   0  0  0  0  0  0  0  0  0  0  0  0
   11.9760   23.0317   -1.4169 N   0  0  0  0  0  0  0  0  0  0  0  0
   11.5666   22.4841   -0.2246 N   0  0  0  0  0  0  0  0  0  0  0  0
   12.6342   22.5788    0.7028 C   0  0  0  0  0  0  0  0  0  0  0  0
   12.7110   22.2113    1.9007 O   0  0  0  0  0  0  0  0  0  0  0  0
   13.7525   23.2418   -0.0296 C   0  0  0  0  0  0  0  0  0  0  0  0
   14.1234   24.5290    0.6817 C   0  0  0  0  0  0  0  0  0  0  0  0
   14.9230   22.2825   -0.1138 C   0  0  0  0  0  0  0  0  0  0  0  0
   10.2766   21.8867    0.1170 C   0  0  0  0  0  0  0  0  0  0  0  0
   10.3897   21.1998    1.4306 C   0  0  0  0  0  0  0  0  0  0  0  0
    9.3592   21.6372    2.4389 C   0  0  0  0  0  0  0  0  0  0  0  0
    8.0756   21.6583    1.7834 N   0  0  0  0  0  0  0  0  0  0  0  0
    7.9321   22.5909    0.6655 C   0  0  0  0  0  0  0  0  0  0  0  0
    9.2540   22.9842    0.0777 C   0  0  0  0  0  0  0  0  0  0  0  0
    6.9903   20.8393    2.1693 C   0  0  0  0  0  0  0  0  0  0  0  0
    7.1418   20.0505    3.1298 O   0  0  0  0  0  0  0  0  0  0  0  0
    5.6908   20.8861    1.4774 C   0  0  0  0  0  0  0  0  0  0  0  0
    5.6887   20.0353    0.3053 N   0  0  0  0  0  0  0  0  0  0  0  0
    5.8392   18.6208    0.2568 C   0  0  0  0  0  0  0  0  0  0  0  0
    5.9802   17.8702    1.2619 O   0  0  0  0  0  0  0  0  0  0  0  0
    5.8093   18.1305   -1.1389 C   0  0  0  0  0  0  0  0  0  0  0  0
    5.7802   19.3660   -1.9908 C   0  0  0  0  0  0  0  0  0  0  0  0
    5.5310   20.4712   -1.0557 C   0  0  0  0  0  0  0  0  0  0  0  0
    5.2195   21.6482   -1.3986 O   0  0  0  0  0  0  0  0  0  0  0  0
   15.1770   25.3293   -4.6398 C   0  0  0  0  0  0  0  0  0  0  0  0
   15.6099   24.0952   -4.1955 C   0  0  0  0  0  0  0  0  0  0  0  0
   14.9405   23.5078   -3.1235 C   0  0  0  0  0  0  0  0  0  0  0  0
   13.8707   24.0973   -2.4873 C   0  0  0  0  0  0  0  0  0  0  0  0
   13.4583   25.3503   -2.9651 C   0  0  0  0  0  0  0  0  0  0  0  0
   14.1084   25.9412   -4.0205 C   0  0  0  0  0  0  0  0  0  0  0  0
   15.4914   25.7691   -7.0465 C   0  0  0  0  0  0  0  0  0  0  0  0
   15.7782   25.9923   -5.6981 O   0  0  0  0  0  0  0  0  0  0  0  0
   13.6849   27.1791   -4.4768 O   0  0  0  0  0  0  0  0  0  0  0  0
   12.3817   27.6821   -4.1822 C   0  0  0  0  0  0  0  0  0  0  0  0
 31 32  1  0  0  0
 32 25  1  0  0  0
 25 26  2  0  0  0
 26 27  1  0  0  0
 27 28  2  0  0  0
 28 29  1  0  0  0
 29 30  2  0  0  0
 30 33  1  0  0  0
 33 34  1  0  0  0
 28  1  1  0  0  0
  1  2  2  0  0  0
  2  3  1  0  0  0
  3  9  1  0  0  0
  9 10  1  0  0  0
 10 11  1  0  0  0
 11 12  1  0  0  0
 12 13  1  0  0  0
 13 14  1  0  0  0
 12 15  1  0  0  0
 15 16  2  0  0  0
 15 17  1  0  0  0
 17 18  1  0  0  0
 18 19  1  0  0  0
 19 20  2  0  0  0
 19 21  1  0  0  0
 21 22  1  0  0  0
 22 23  1  0  0  0
 23 24  2  0  0  0
  3  4  1  0  0  0
  4  5  2  0  0  0
  4  6  1  0  0  0
  6  7  1  0  0  0
  6  8  1  0  0  0
 30 25  1  0  0  0
  6  1  1  0  0  0
 14  9  1  0  0  0
 23 18  1  0  0  0
M  END
> <minimizedAffinity>
-8.81697

> <CNNscore>
0.4756518602

> <CNNaffinity>
7.4204378128

> <CNN_VS>
3.5295450687

> <CNNaffinity_variance>
0.1352471858

$$$$
[H]c1c([H])c(C2=NN(C3([H])C([H])([H])C([H])([H])N(C(=O)C([H])([H])N4C(=O)C([H])([H])C([H])([H])C4=O)C([H])([H])C3([H])[H])C(=O)C2(C([H])([H])[H])C([H])([H])[H])c([H])c(OC([H])([H])[H])c1OC([H])([H])[H]


 34 37  0  0  0  0  0  0  0  0999 V2000
   13.4670   23.3661   -1.1917 C   0  0  0  0  0  0  0  0  0  0  0  0
   12.2631   23.5345   -0.7757 N   0  0  0  0  0  0  0  0  0  0  0  0
   11.9822   22.7847    0.3413 N   0  0  0  0  0  0  0  0  0  0  0  0
   13.1402   22.0448    0.6880 C   0  0  0  0  0  0  0  0  0  0  0  0
   13.3424   21.2357    1.6264 O   0  0  0  0  0  0  0  0  0  0  0  0
   14.1742   22.4081   -0.3245 C   0  0  0  0  0  0  0  0  0  0  0  0
   15.3710   23.0192    0.3787 C   0  0  0  0  0  0  0  0  0  0  0  0
   14.5504   21.1682   -1.1108 C   0  0  0  0  0  0  0  0  0  0  0  0
   10.7371   22.7026    1.1033 C   0  0  0  0  0  0  0  0  0  0  0  0
    9.5862   22.7434    0.1632 C   0  0  0  0  0  0  0  0  0  0  0  0
    8.6257   21.5938    0.3236 C   0  0  0  0  0  0  0  0  0  0  0  0
    8.3576   21.4304    1.7304 N   0  0  0  0  0  0  0  0  0  0  0  0
    9.5024   21.0891    2.5748 C   0  0  0  0  0  0  0  0  0  0  0  0
   10.8093   21.4594    1.9407 C   0  0  0  0  0  0  0  0  0  0  0  0
    7.0737   21.5830    2.3015 C   0  0  0  0  0  0  0  0  0  0  0  0
    6.1124   21.8754    1.5545 O   0  0  0  0  0  0  0  0  0  0  0  0
    6.8342   21.4088    3.7443 C   0  0  0  0  0  0  0  0  0  0  0  0
    7.4609   22.4648    4.5123 N   0  0  0  0  0  0  0  0  0  0  0  0
    7.2806   23.8693    4.3687 C   0  0  0  0  0  0  0  0  0  0  0  0
    6.5068   24.4214    3.5381 O   0  0  0  0  0  0  0  0  0  0  0  0
    8.1253   24.6146    5.3281 C   0  0  0  0  0  0  0  0  0  0  0  0
    8.9767   23.5741    5.9956 C   0  0  0  0  0  0  0  0  0  0  0  0
    8.4016   22.2863    5.5849 C   0  0  0  0  0  0  0  0  0  0  0  0
    8.6925   21.1697    6.1031 O   0  0  0  0  0  0  0  0  0  0  0  0
   15.1040   25.3474   -4.5871 C   0  0  0  0  0  0  0  0  0  0  0  0
   15.5278   24.0695   -4.2787 C   0  0  0  0  0  0  0  0  0  0  0  0
   14.9767   23.4428   -3.1625 C   0  0  0  0  0  0  0  0  0  0  0  0
   14.0321   24.0353   -2.3540 C   0  0  0  0  0  0  0  0  0  0  0  0
   13.6252   25.3333   -2.6972 C   0  0  0  0  0  0  0  0  0  0  0  0
   14.1596   25.9631   -3.7943 C   0  0  0  0  0  0  0  0  0  0  0  0
   15.3925   25.6965   -7.0119 C   0  0  0  0  0  0  0  0  0  0  0  0
   15.5933   26.0513   -5.6762 O   0  0  0  0  0  0  0  0  0  0  0  0
   13.7437   27.2452   -4.1155 O   0  0  0  0  0  0  0  0  0  0  0  0
   12.3619   27.5702   -4.2675 C   0  0  0  0  0  0  0  0  0  0  0  0
 31 32  1  0  0  0
 32 25  1  0  0  0
 25 26  2  0  0  0
 26 27  1  0  0  0
 27 28  2  0  0  0
 28 29  1  0  0  0
 29 30  2  0  0  0
 30 33  1  0  0  0
 33 34  1  0  0  0
 28  1  1  0  0  0
  1  2  2  0  0  0
  2  3  1  0  0  0
  3  9  1  0  0  0
  9 10  1  0  0  0
 10 11  1  0  0  0
 11 12  1  0  0  0
 12 13  1  0  0  0
 13 14  1  0  0  0
 12 15  1  0  0  0
 15 16  2  0  0  0
 15 17  1  0  0  0
 17 18  1  0  0  0
 18 19  1  0  0  0
 19 20  2  0  0  0
 19 21  1  0  0  0
 21 22  1  0  0  0
 22 23  1  0  0  0
 23 24  2  0  0  0
  3  4  1  0  0  0
  4  5  2  0  0  0
  4  6  1  0  0  0
  6  7  1  0  0  0
  6  8  1  0  0  0
 30 25  1  0  0  0
  6  1  1  0  0  0
 14  9  1  0  0  0
 23 18  1  0  0  0
M  END
> <minimizedAffinity>
-8.47101

> <CNNscore>
0.4709081352

> <CNNaffinity>
7.3109045029

> <CNN_VS>
3.4427645206

> <CNNaffinity_variance>
0.2339766473

$$$$
[H]c1c([H])c(C2=NN(C3([H])C([H])([H])C([H])([H])N(C(=O)C([H])([H])N4C(=O)C([H])([H])C([H])([H])C4=O)C([H])([H])C3([H])[H])C(=O)C2(C([H])([H])[H])C([H])([H])[H])c([H])c(OC([H])([H])[H])c1OC([H])([H])[H]


 34 37  0  0  0  0  0  0  0  0999 V2000
   14.4060   24.9940   -1.6936 C   0  0  0  0  0  0  0  0  0  0  0  0
   13.9909   24.8042   -0.4926 N   0  0  0  0  0  0  0  0  0  0  0  0
   12.8201   24.0857   -0.4473 N   0  0  0  0  0  0  0  0  0  0  0  0
   12.4329   23.7746   -1.7746 C   0  0  0  0  0  0  0  0  0  0  0  0
   11.4404   23.1403   -2.2090 O   0  0  0  0  0  0  0  0  0  0  0  0
   13.4802   24.3704   -2.6548 C   0  0  0  0  0  0  0  0  0  0  0  0
   14.1302   23.2719   -3.4741 C   0  0  0  0  0  0  0  0  0  0  0  0
   12.8424   25.4298   -3.5312 C   0  0  0  0  0  0  0  0  0  0  0  0
   12.0419   23.6701    0.7186 C   0  0  0  0  0  0  0  0  0  0  0  0
   11.6919   24.8695    1.5243 C   0  0  0  0  0  0  0  0  0  0  0  0
   10.2178   25.0096    1.8018 C   0  0  0  0  0  0  0  0  0  0  0  0
    9.7211   23.7260    2.2301 N   0  0  0  0  0  0  0  0  0  0  0  0
    9.8228   22.6340    1.2620 C   0  0  0  0  0  0  0  0  0  0  0  0
   10.8595   22.8977    0.2117 C   0  0  0  0  0  0  0  0  0  0  0  0
    9.1598   23.4943    3.5064 C   0  0  0  0  0  0  0  0  0  0  0  0
    9.0855   24.4477    4.3145 O   0  0  0  0  0  0  0  0  0  0  0  0
    8.6612   22.1691    3.9122 C   0  0  0  0  0  0  0  0  0  0  0  0
    9.7330   21.1959    3.9582 N   0  0  0  0  0  0  0  0  0  0  0  0
   10.6218   20.9312    5.0379 C   0  0  0  0  0  0  0  0  0  0  0  0
   10.5943   21.5087    6.1600 O   0  0  0  0  0  0  0  0  0  0  0  0
   11.5975   19.8788    4.6774 C   0  0  0  0  0  0  0  0  0  0  0  0
   11.3565   19.5986    3.2226 C   0  0  0  0  0  0  0  0  0  0  0  0
   10.1058   20.2979    2.8991 C   0  0  0  0  0  0  0  0  0  0  0  0
    9.4439   20.1340    1.8337 O   0  0  0  0  0  0  0  0  0  0  0  0
   17.9409   27.1388   -2.7124 C   0  0  0  0  0  0  0  0  0  0  0  0
   17.9771   26.2260   -1.6764 C   0  0  0  0  0  0  0  0  0  0  0  0
   16.8069   25.5370   -1.3627 C   0  0  0  0  0  0  0  0  0  0  0  0
   15.6189   25.7222   -2.0346 C   0  0  0  0  0  0  0  0  0  0  0  0
   15.6190   26.6569   -3.0808 C   0  0  0  0  0  0  0  0  0  0  0  0
   16.7646   27.3431   -3.4011 C   0  0  0  0  0  0  0  0  0  0  0  0
   19.3079   28.3094   -4.3993 C   0  0  0  0  0  0  0  0  0  0  0  0
   19.0524   27.8715   -3.0980 O   0  0  0  0  0  0  0  0  0  0  0  0
   16.7428   28.2619   -4.4381 O   0  0  0  0  0  0  0  0  0  0  0  0
   15.7096   28.2577   -5.4233 C   0  0  0  0  0  0  0  0  0  0  0  0
 31 32  1  0  0  0
 32 25  1  0  0  0
 25 26  2  0  0  0
 26 27  1  0  0  0
 27 28  2  0  0  0
 28 29  1  0  0  0
 29 30  2  0  0  0
 30 33  1  0  0  0
 33 34  1  0  0  0
 28  1  1  0  0  0
  1  2  2  0  0  0
  2  3  1  0  0  0
  3  9  1  0  0  0
  9 10  1  0  0  0
 10 11  1  0  0  0
 11 12  1  0  0  0
 12 13  1  0  0  0
 13 14  1  0  0  0
 12 15  1  0  0  0
 15 16  2  0  0  0
 15 17  1  0  0  0
 17 18  1  0  0  0
 18 19  1  0  0  0
 19 20  2  0  0  0
 19 21  1  0  0  0
 21 22  1  0  0  0
 22 23  1  0  0  0
 23 24  2  0  0  0
  3  4  1  0  0  0
  4  5  2  0  0  0
  4  6  1  0  0  0
  6  7  1  0  0  0
  6  8  1  0  0  0
 30 25  1  0  0  0
  6  1  1  0  0  0
 14  9  1  0  0  0
 23 18  1  0  0  0
M  END
> <minimizedAffinity>
2.34859

> <CNNscore>
0.4705316126

> <CNNaffinity>
7.0245790482

> <CNN_VS>
3.3052864075

> <CNNaffinity_variance>
0.7327365875

$$$$
[H]c1c([H])c(C2=NN(C3([H])C([H])([H])C([H])([H])N(C(=O)C([H])([H])N4C(=O)C([H])([H])C([H])([H])C4=O)C([H])([H])C3([H])[H])C(=O)C2(C([H])([H])[H])C([H])([H])[H])c([H])c(OC([H])([H])[H])c1OC([H])([H])[H]


 34 37  0  0  0  0  0  0  0  0999 V2000
   15.8387   24.9177   -3.0147 C   0  0  0  0  0  0  0  0  0  0  0  0
   15.1415   24.7588   -1.9472 N   0  0  0  0  0  0  0  0  0  0  0  0
   14.1499   23.8196   -2.1007 N   0  0  0  0  0  0  0  0  0  0  0  0
   14.2135   23.3118   -3.4224 C   0  0  0  0  0  0  0  0  0  0  0  0
   13.5107   22.4468   -4.0002 O   0  0  0  0  0  0  0  0  0  0  0  0
   15.3456   24.0278   -4.0799 C   0  0  0  0  0  0  0  0  0  0  0  0
   16.3819   23.0171   -4.5327 C   0  0  0  0  0  0  0  0  0  0  0  0
   14.8060   24.8443   -5.2372 C   0  0  0  0  0  0  0  0  0  0  0  0
   13.1596   23.3619   -1.1274 C   0  0  0  0  0  0  0  0  0  0  0  0
   12.6949   24.5218   -0.3219 C   0  0  0  0  0  0  0  0  0  0  0  0
   11.1986   24.6970   -0.3107 C   0  0  0  0  0  0  0  0  0  0  0  0
   10.6010   23.4082   -0.0667 N   0  0  0  0  0  0  0  0  0  0  0  0
   10.8543   22.3741   -1.0699 C   0  0  0  0  0  0  0  0  0  0  0  0
   12.0736   22.6641   -1.8925 C   0  0  0  0  0  0  0  0  0  0  0  0
    9.8076   23.1196    1.0668 C   0  0  0  0  0  0  0  0  0  0  0  0
    9.6075   24.0242    1.9090 O   0  0  0  0  0  0  0  0  0  0  0  0
    9.2112   21.7907    1.2857 C   0  0  0  0  0  0  0  0  0  0  0  0
   10.2093   20.7452    1.1940 N   0  0  0  0  0  0  0  0  0  0  0  0
   10.9409   20.1454    2.2574 C   0  0  0  0  0  0  0  0  0  0  0  0
   10.8097   20.4291    3.4804 O   0  0  0  0  0  0  0  0  0  0  0  0
   11.8894   19.1319    1.7447 C   0  0  0  0  0  0  0  0  0  0  0  0
   11.8134   19.2408    0.2496 C   0  0  0  0  0  0  0  0  0  0  0  0
   10.6559   20.1060   -0.0140 C   0  0  0  0  0  0  0  0  0  0  0  0
   10.1219   20.2686   -1.1490 O   0  0  0  0  0  0  0  0  0  0  0  0
   19.0793   27.6561   -3.3802 C   0  0  0  0  0  0  0  0  0  0  0  0
   19.2491   26.4999   -2.6439 C   0  0  0  0  0  0  0  0  0  0  0  0
   18.1733   25.6200   -2.5396 C   0  0  0  0  0  0  0  0  0  0  0  0
   16.9518   25.8476   -3.1340 C   0  0  0  0  0  0  0  0  0  0  0  0
   16.8154   27.0317   -3.8739 C   0  0  0  0  0  0  0  0  0  0  0  0
   17.8668   27.9079   -3.9853 C   0  0  0  0  0  0  0  0  0  0  0  0
   19.9583   29.7979   -4.2315 C   0  0  0  0  0  0  0  0  0  0  0  0
   20.0898   28.5910   -3.5413 O   0  0  0  0  0  0  0  0  0  0  0  0
   17.7108   29.0718   -4.7209 O   0  0  0  0  0  0  0  0  0  0  0  0
   16.4332   29.4912   -5.2004 C   0  0  0  0  0  0  0  0  0  0  0  0
 31 32  1  0  0  0
 32 25  1  0  0  0
 25 26  2  0  0  0
 26 27  1  0  0  0
 27 28  2  0  0  0
 28 29  1  0  0  0
 29 30  2  0  0  0
 30 33  1  0  0  0
 33 34  1  0  0  0
 28  1  1  0  0  0
  1  2  2  0  0  0
  2  3  1  0  0  0
  3  9  1  0  0  0
  9 10  1  0  0  0
 10 11  1  0  0  0
 11 12  1  0  0  0
 12 13  1  0  0  0
 13 14  1  0  0  0
 12 15  1  0  0  0
 15 16  2  0  0  0
 15 17  1  0  0  0
 17 18  1  0  0  0
 18 19  1  0  0  0
 19 20  2  0  0  0
 19 21  1  0  0  0
 21 22  1  0  0  0
 22 23  1  0  0  0
 23 24  2  0  0  0
  3  4  1  0  0  0
  4  5  2  0  0  0
  4  6  1  0  0  0
  6  7  1  0  0  0
  6  8  1  0  0  0
 30 25  1  0  0  0
  6  1  1  0  0  0
 14  9  1  0  0  0
 23 18  1  0  0  0
M  END
> <minimizedAffinity>
19.63252

> <CNNscore>
0.4372750223

> <CNNaffinity>
7.0320749283

> <CNN_VS>
3.0749506950

> <CNNaffinity_variance>
0.7720284462

$$$$
[H]c1c([H])c(C2=NN(C3([H])C([H])([H])C([H])([H])N(C(=O)C([H])([H])N4C(=O)C([H])([H])C([H])([H])C4=O)C([H])([H])C3([H])[H])C(=O)C2(C([H])([H])[H])C([H])([H])[H])c([H])c(OC([H])([H])[H])c1OC([H])([H])[H]


 34 37  0  0  0  0  0  0  0  0999 V2000
   11.1945   21.0847   -0.3901 C   0  0  0  0  0  0  0  0  0  0  0  0
   11.7003   22.1017   -0.9908 N   0  0  0  0  0  0  0  0  0  0  0  0
   13.0611   22.1912   -0.8200 N   0  0  0  0  0  0  0  0  0  0  0  0
   13.4847   21.1048   -0.0144 C   0  0  0  0  0  0  0  0  0  0  0  0
   14.6285   20.7880    0.3947 O   0  0  0  0  0  0  0  0  0  0  0  0
   12.2515   20.3262    0.3009 C   0  0  0  0  0  0  0  0  0  0  0  0
   12.4040   18.9118   -0.2250 C   0  0  0  0  0  0  0  0  0  0  0  0
   12.0218   20.3528    1.7988 C   0  0  0  0  0  0  0  0  0  0  0  0
   13.9882   23.1948   -1.3404 C   0  0  0  0  0  0  0  0  0  0  0  0
   15.2843   22.5415   -1.6620 C   0  0  0  0  0  0  0  0  0  0  0  0
   15.7557   22.7820   -3.0726 C   0  0  0  0  0  0  0  0  0  0  0  0
   15.6052   24.1866   -3.3591 N   0  0  0  0  0  0  0  0  0  0  0  0
   14.2418   24.7154   -3.3195 C   0  0  0  0  0  0  0  0  0  0  0  0
   13.3192   23.8538   -2.5108 C   0  0  0  0  0  0  0  0  0  0  0  0
   16.6896   25.0395   -3.6660 C   0  0  0  0  0  0  0  0  0  0  0  0
   17.8456   24.5594   -3.6929 O   0  0  0  0  0  0  0  0  0  0  0  0
   16.5005   26.4716   -3.9543 C   0  0  0  0  0  0  0  0  0  0  0  0
   15.4459   26.6774   -4.9254 N   0  0  0  0  0  0  0  0  0  0  0  0
   15.3857   26.1889   -6.2609 C   0  0  0  0  0  0  0  0  0  0  0  0
   16.2604   25.4624   -6.8090 O   0  0  0  0  0  0  0  0  0  0  0  0
   14.1517   26.6445   -6.9385 C   0  0  0  0  0  0  0  0  0  0  0  0
   13.4992   27.5925   -5.9749 C   0  0  0  0  0  0  0  0  0  0  0  0
   14.2386   27.4296   -4.7160 C   0  0  0  0  0  0  0  0  0  0  0  0
   13.8659   27.8877   -3.5975 O   0  0  0  0  0  0  0  0  0  0  0  0
    7.0565   20.0815   -0.4513 C   0  0  0  0  0  0  0  0  0  0  0  0
    7.5342   20.9272    0.5307 C   0  0  0  0  0  0  0  0  0  0  0  0
    8.8923   21.2401    0.5288 C   0  0  0  0  0  0  0  0  0  0  0  0
    9.7789   20.7475   -0.4030 C   0  0  0  0  0  0  0  0  0  0  0  0
    9.2588   19.8916   -1.3854 C   0  0  0  0  0  0  0  0  0  0  0  0
    7.9228   19.5746   -1.3959 C   0  0  0  0  0  0  0  0  0  0  0  0
    4.7285   20.1118    0.3639 C   0  0  0  0  0  0  0  0  0  0  0  0
    5.7229   19.7127   -0.5319 O   0  0  0  0  0  0  0  0  0  0  0  0
    7.4297   18.7274   -2.3752 O   0  0  0  0  0  0  0  0  0  0  0  0
    6.0281   18.5741   -2.5991 C   0  0  0  0  0  0  0  0  0  0  0  0
 31 32  1  0  0  0
 32 25  1  0  0  0
 25 26  2  0  0  0
 26 27  1  0  0  0
 27 28  2  0  0  0
 28 29  1  0  0  0
 29 30  2  0  0  0
 30 33  1  0  0  0
 33 34  1  0  0  0
 28  1  1  0  0  0
  1  2  2  0  0  0
  2  3  1  0  0  0
  3  9  1  0  0  0
  9 10  1  0  0  0
 10 11  1  0  0  0
 11 12  1  0  0  0
 12 13  1  0  0  0
 13 14  1  0  0  0
 12 15  1  0  0  0
 15 16  2  0  0  0
 15 17  1  0  0  0
 17 18  1  0  0  0
 18 19  1  0  0  0
 19 20  2  0  0  0
 19 21  1  0  0  0
 21 22  1  0  0  0
 22 23  1  0  0  0
 23 24  2  0  0  0
  3  4  1  0  0  0
  4  5  2  0  0  0
  4  6  1  0  0  0
  6  7  1  0  0  0
  6  8  1  0  0  0
 30 25  1  0  0  0
  6  1  1  0  0  0
 14  9  1  0  0  0
 23 18  1  0  0  0
M  END
> <minimizedAffinity>
6.90076

> <CNNscore>
0.4354638755

> <CNNaffinity>
7.1124992371

> <CNN_VS>
3.0972363949

> <CNNaffinity_variance>
1.0817064047

$$$$
[H]c1c([H])c(C2=NN(C3([H])C([H])([H])C([H])([H])N(C(=O)C([H])([H])N4C(=O)C([H])([H])C([H])([H])C4=O)C([H])([H])C3([H])[H])C(=O)C2(C([H])([H])[H])C([H])([H])[H])c([H])c(OC([H])([H])[H])c1OC([H])([H])[H]


 34 37  0  0  0  0  0  0  0  0999 V2000
   13.5429   23.2708   -0.2063 C   0  0  0  0  0  0  0  0  0  0  0  0
   12.5729   23.7567    0.4821 N   0  0  0  0  0  0  0  0  0  0  0  0
   11.8405   22.7839    1.1196 N   0  0  0  0  0  0  0  0  0  0  0  0
   12.4030   21.5213    0.8065 C   0  0  0  0  0  0  0  0  0  0  0  0
   12.0653   20.3655    1.1619 O   0  0  0  0  0  0  0  0  0  0  0  0
   13.5616   21.8025   -0.0906 C   0  0  0  0  0  0  0  0  0  0  0  0
   14.8312   21.2763    0.5511 C   0  0  0  0  0  0  0  0  0  0  0  0
   13.3035   21.1668   -1.4421 C   0  0  0  0  0  0  0  0  0  0  0  0
   10.6730   22.9334    1.9869 C   0  0  0  0  0  0  0  0  0  0  0  0
    9.4429   22.6481    1.2024 C   0  0  0  0  0  0  0  0  0  0  0  0
    8.5560   21.5974    1.8182 C   0  0  0  0  0  0  0  0  0  0  0  0
    8.4213   21.8953    3.2221 N   0  0  0  0  0  0  0  0  0  0  0  0
    9.6511   21.8651    4.0137 C   0  0  0  0  0  0  0  0  0  0  0  0
   10.8778   22.0308    3.1680 C   0  0  0  0  0  0  0  0  0  0  0  0
    7.1872   22.2041    3.8379 C   0  0  0  0  0  0  0  0  0  0  0  0
    6.1508   22.2226    3.1357 O   0  0  0  0  0  0  0  0  0  0  0  0
    7.0846   22.5039    5.2764 C   0  0  0  0  0  0  0  0  0  0  0  0
    6.7651   23.8986    5.5011 N   0  0  0  0  0  0  0  0  0  0  0  0
    7.6508   25.0118    5.4578 C   0  0  0  0  0  0  0  0  0  0  0  0
    8.8824   24.9505    5.1876 O   0  0  0  0  0  0  0  0  0  0  0  0
    6.9391   26.2701    5.7734 C   0  0  0  0  0  0  0  0  0  0  0  0
    5.5541   25.8508    6.1724 C   0  0  0  0  0  0  0  0  0  0  0  0
    5.4662   24.4283    5.8164 C   0  0  0  0  0  0  0  0  0  0  0  0
    4.3942   23.7576    5.7898 O   0  0  0  0  0  0  0  0  0  0  0  0
   16.2604   25.6163   -2.4971 C   0  0  0  0  0  0  0  0  0  0  0  0
   16.5945   25.2613   -1.2047 C   0  0  0  0  0  0  0  0  0  0  0  0
   15.6880   24.4934   -0.4760 C   0  0  0  0  0  0  0  0  0  0  0  0
   14.4779   24.0725   -0.9815 C   0  0  0  0  0  0  0  0  0  0  0  0
   14.1718   24.4516   -2.2971 C   0  0  0  0  0  0  0  0  0  0  0  0
   15.0553   25.2081   -3.0270 C   0  0  0  0  0  0  0  0  0  0  0  0
   17.1200   27.7734   -3.3293 C   0  0  0  0  0  0  0  0  0  0  0  0
   17.0958   26.3774   -3.2995 O   0  0  0  0  0  0  0  0  0  0  0  0
   14.7333   25.5715   -4.3248 O   0  0  0  0  0  0  0  0  0  0  0  0
   13.7791   26.5964   -4.6026 C   0  0  0  0  0  0  0  0  0  0  0  0
 31 32  1  0  0  0
 32 25  1  0  0  0
 25 26  2  0  0  0
 26 27  1  0  0  0
 27 28  2  0  0  0
 28 29  1  0  0  0
 29 30  2  0  0  0
 30 33  1  0  0  0
 33 34  1  0  0  0
 28  1  1  0  0  0
  1  2  2  0  0  0
  2  3  1  0  0  0
  3  9  1  0  0  0
  9 10  1  0  0  0
 10 11  1  0  0  0
 11 12  1  0  0  0
 12 13  1  0  0  0
 13 14  1  0  0  0
 12 15  1  0  0  0
 15 16  2  0  0  0
 15 17  1  0  0  0
 17 18  1  0  0  0
 18 19  1  0  0  0
 19 20  2  0  0  0
 19 21  1  0  0  0
 21 22  1  0  0  0
 22 23  1  0  0  0
 23 24  2  0  0  0
  3  4  1  0  0  0
  4  5  2  0  0  0
  4  6  1  0  0  0
  6  7  1  0  0  0
  6  8  1  0  0  0
 30 25  1  0  0  0
  6  1  1  0  0  0
 14  9  1  0  0  0
 23 18  1  0  0  0
M  END
> <minimizedAffinity>
-8.99725

> <CNNscore>
0.4298258126

> <CNNaffinity>
7.1938819885

> <CNN_VS>
3.0921161175

> <CNNaffinity_variance>
0.3033059239

$$$$
[H]c1c([H])c(C2=NN(C3([H])C([H])([H])C([H])([H])N(C(=O)C([H])([H])N4C(=O)C([H])([H])C([H])([H])C4=O)C([H])([H])C3([H])[H])C(=O)C2(C([H])([H])[H])C([H])([H])[H])c([H])c(OC([H])([H])[H])c1OC([H])([H])[H]


 34 37  0  0  0  0  0  0  0  0999 V2000
   13.4011   23.9437   -2.0012 C   0  0  0  0  0  0  0  0  0  0  0  0
   12.2462   23.7874   -1.4602 N   0  0  0  0  0  0  0  0  0  0  0  0
   12.1740   22.6500   -0.6921 N   0  0  0  0  0  0  0  0  0  0  0  0
   13.4294   21.9941   -0.7424 C   0  0  0  0  0  0  0  0  0  0  0  0
   13.8185   20.9314   -0.1991 O   0  0  0  0  0  0  0  0  0  0  0  0
   14.2944   22.8365   -1.6191 C   0  0  0  0  0  0  0  0  0  0  0  0
   15.5056   23.2990   -0.8322 C   0  0  0  0  0  0  0  0  0  0  0  0
   14.6861   22.0328   -2.8430 C   0  0  0  0  0  0  0  0  0  0  0  0
   11.0438   22.1307    0.0763 C   0  0  0  0  0  0  0  0  0  0  0  0
   10.3037   23.2676    0.6844 C   0  0  0  0  0  0  0  0  0  0  0  0
    8.8315   23.2786    0.3647 C   0  0  0  0  0  0  0  0  0  0  0  0
    8.3229   21.9444    0.5619 N   0  0  0  0  0  0  0  0  0  0  0  0
    8.8889   20.9004   -0.2924 C   0  0  0  0  0  0  0  0  0  0  0  0
   10.2246   21.2849   -0.8539 C   0  0  0  0  0  0  0  0  0  0  0  0
    7.3324   21.6217    1.5170 C   0  0  0  0  0  0  0  0  0  0  0  0
    6.8660   22.5356    2.2344 O   0  0  0  0  0  0  0  0  0  0  0  0
    6.8344   20.2466    1.6927 C   0  0  0  0  0  0  0  0  0  0  0  0
    6.1075   19.7976    0.5232 N   0  0  0  0  0  0  0  0  0  0  0  0
    6.3688   18.6486   -0.2752 C   0  0  0  0  0  0  0  0  0  0  0  0
    7.2893   17.8110   -0.0641 O   0  0  0  0  0  0  0  0  0  0  0  0
    5.4132   18.5551   -1.4010 C   0  0  0  0  0  0  0  0  0  0  0  0
    4.6127   19.8237   -1.3458 C   0  0  0  0  0  0  0  0  0  0  0  0
    4.9631   20.4430   -0.0606 C   0  0  0  0  0  0  0  0  0  0  0  0
    4.3435   21.4129    0.4641 O   0  0  0  0  0  0  0  0  0  0  0  0
   14.4585   27.1955   -4.5393 C   0  0  0  0  0  0  0  0  0  0  0  0
   13.5139   27.3875   -3.5501 C   0  0  0  0  0  0  0  0  0  0  0  0
   13.1854   26.3075   -2.7327 C   0  0  0  0  0  0  0  0  0  0  0  0
   13.7560   25.0608   -2.8638 C   0  0  0  0  0  0  0  0  0  0  0  0
   14.7114   24.9022   -3.8789 C   0  0  0  0  0  0  0  0  0  0  0  0
   15.0450   25.9575   -4.6918 C   0  0  0  0  0  0  0  0  0  0  0  0
   15.8602   29.1358   -5.1352 C   0  0  0  0  0  0  0  0  0  0  0  0
   14.8507   28.2081   -5.4006 O   0  0  0  0  0  0  0  0  0  0  0  0
   15.9911   25.7793   -5.6883 O   0  0  0  0  0  0  0  0  0  0  0  0
   15.6439   25.2463   -6.9664 C   0  0  0  0  0  0  0  0  0  0  0  0
 31 32  1  0  0  0
 32 25  1  0  0  0
 25 26  2  0  0  0
 26 27  1  0  0  0
 27 28  2  0  0  0
 28 29  1  0  0  0
 29 30  2  0  0  0
 30 33  1  0  0  0
 33 34  1  0  0  0
 28  1  1  0  0  0
  1  2  2  0  0  0
  2  3  1  0  0  0
  3  9  1  0  0  0
  9 10  1  0  0  0
 10 11  1  0  0  0
 11 12  1  0  0  0
 12 13  1  0  0  0
 13 14  1  0  0  0
 12 15  1  0  0  0
 15 16  2  0  0  0
 15 17  1  0  0  0
 17 18  1  0  0  0
 18 19  1  0  0  0
 19 20  2  0  0  0
 19 21  1  0  0  0
 21 22  1  0  0  0
 22 23  1  0  0  0
 23 24  2  0  0  0
  3  4  1  0  0  0
  4  5  2  0  0  0
  4  6  1  0  0  0
  6  7  1  0  0  0
  6  8  1  0  0  0
 30 25  1  0  0  0
  6  1  1  0  0  0
 14  9  1  0  0  0
 23 18  1  0  0  0
M  END
> <minimizedAffinity>
-6.28248

> <CNNscore>
0.4255744815

> <CNNaffinity>
7.2969460487

> <CNN_VS>
3.1053941250

> <CNNaffinity_variance>
0.2261527479

$$$$
[H]c1c([H])c([H])c(C#Cc2nc(C([H])([H])[H])c([H])n3c([H])c(C#N)c([H])c23)c([H])c1[H]


 20 22  0  0  0  0  0  0  0  0999 V2000
   15.4466   25.1432   -6.4990 C   0  0  0  0  0  0  0  0  0  0  0  0
   14.4509   25.7348   -5.5604 C   0  0  0  0  0  0  0  0  0  0  0  0
   13.9277   26.9826   -5.8289 C   0  0  0  0  0  0  0  0  0  0  0  0
   13.0265   27.5400   -4.9973 N   0  0  0  0  0  0  0  0  0  0  0  0
   12.3897   28.7266   -5.0540 C   0  0  0  0  0  0  0  0  0  0  0  0
   11.5814   28.7713   -3.9381 C   0  0  0  0  0  0  0  0  0  0  0  0
   11.7491   27.6024   -3.2270 C   0  0  0  0  0  0  0  0  0  0  0  0
   12.6628   26.8483   -3.9166 C   0  0  0  0  0  0  0  0  0  0  0  0
   13.1789   25.5837   -3.6244 C   0  0  0  0  0  0  0  0  0  0  0  0
   14.0797   25.0406   -4.4671 N   0  0  0  0  0  0  0  0  0  0  0  0
   12.7422   24.8854   -2.4343 C   0  0  0  0  0  0  0  0  0  0  0  0
   12.3849   24.3165   -1.4266 C   0  0  0  0  0  0  0  0  0  0  0  0
   11.9651   23.6631   -0.2187 C   0  0  0  0  0  0  0  0  0  0  0  0
   10.6261   23.5921    0.1067 C   0  0  0  0  0  0  0  0  0  0  0  0
   10.2235   22.9600    1.2747 C   0  0  0  0  0  0  0  0  0  0  0  0
   11.1519   22.3895    2.1350 C   0  0  0  0  0  0  0  0  0  0  0  0
   12.4901   22.4577    1.8146 C   0  0  0  0  0  0  0  0  0  0  0  0
   12.8741   23.0887    0.6513 C   0  0  0  0  0  0  0  0  0  0  0  0
   10.7038   29.8414   -3.5570 C   0  0  0  0  0  0  0  0  0  0  0  0
    9.9997   30.7225   -3.2314 N   0  0  0  0  0  0  0  0  0  0  0  0
  1  2  1  0  0  0
  2  3  2  0  0  0
  3  4  1  0  0  0
  4  5  1  0  0  0
  5  6  2  0  0  0
  6  7  1  0  0  0
  7  8  2  0  0  0
  8  9  1  0  0  0
  9 10  2  0  0  0
  9 11  1  0  0  0
 11 12  3  0  0  0
 12 13  1  0  0  0
 13 14  2  0  0  0
 14 15  1  0  0  0
 15 16  2  0  0  0
 16 17  1  0  0  0
 17 18  2  0  0  0
  6 19  1  0  0  0
 19 20  3  0  0  0
 10  2  1  0  0  0
 18 13  1  0  0  0
  8  4  1  0  0  0
M  END
> <minimizedAffinity>
17.19476

> <CNNscore>
0.5112931132

> <CNNaffinity>
6.0834326744

> <CNN_VS>
3.1104171276

> <CNNaffinity_variance>
1.0708725452

$$$$
[H]c1c([H])c([H])c(C#Cc2nc(C([H])([H])[H])c([H])n3c([H])c(C#N)c([H])c23)c([H])c1[H]


 20 22  0  0  0  0  0  0  0  0999 V2000
   11.5538   26.6069    2.7239 C   0  0  0  0  0  0  0  0  0  0  0  0
   11.5123   25.7702    1.4905 C   0  0  0  0  0  0  0  0  0  0  0  0
   10.6901   24.6633    1.4524 C   0  0  0  0  0  0  0  0  0  0  0  0
   10.6338   23.8906    0.3506 N   0  0  0  0  0  0  0  0  0  0  0  0
    9.9169   22.7799    0.0878 C   0  0  0  0  0  0  0  0  0  0  0  0
   10.2552   22.4111   -1.1967 C   0  0  0  0  0  0  0  0  0  0  0  0
   11.1756   23.3137   -1.6850 C   0  0  0  0  0  0  0  0  0  0  0  0
   11.3941   24.2317   -0.6907 C   0  0  0  0  0  0  0  0  0  0  0  0
   12.2339   25.3477   -0.6750 C   0  0  0  0  0  0  0  0  0  0  0  0
   12.2782   26.1101    0.4355 N   0  0  0  0  0  0  0  0  0  0  0  0
   13.0338   25.6630   -1.8392 C   0  0  0  0  0  0  0  0  0  0  0  0
   13.6857   25.9328   -2.8236 C   0  0  0  0  0  0  0  0  0  0  0  0
   14.4392   26.2657   -3.9999 C   0  0  0  0  0  0  0  0  0  0  0  0
   15.8116   26.3939   -3.9360 C   0  0  0  0  0  0  0  0  0  0  0  0
   16.5369   26.7156   -5.0745 C   0  0  0  0  0  0  0  0  0  0  0  0
   15.9028   26.9140   -6.2935 C   0  0  0  0  0  0  0  0  0  0  0  0
   14.5327   26.7872   -6.3625 C   0  0  0  0  0  0  0  0  0  0  0  0
   13.8264   26.4673   -5.2234 C   0  0  0  0  0  0  0  0  0  0  0  0
    9.7498   21.2829   -1.9264 C   0  0  0  0  0  0  0  0  0  0  0  0
    9.3250   20.3554   -2.5071 N   0  0  0  0  0  0  0  0  0  0  0  0
  1  2  1  0  0  0
  2  3  2  0  0  0
  3  4  1  0  0  0
  4  5  1  0  0  0
  5  6  2  0  0  0
  6  7  1  0  0  0
  7  8  2  0  0  0
  8  9  1  0  0  0
  9 10  2  0  0  0
  9 11  1  0  0  0
 11 12  3  0  0  0
 12 13  1  0  0  0
 13 14  2  0  0  0
 14 15  1  0  0  0
 15 16  2  0  0  0
 16 17  1  0  0  0
 17 18  2  0  0  0
  6 19  1  0  0  0
 19 20  3  0  0  0
 10  2  1  0  0  0
 18 13  1  0  0  0
  8  4  1  0  0  0
M  END
> <minimizedAffinity>
2.19144

> <CNNscore>
0.4947479367

> <CNNaffinity>
6.1717658043

> <CNN_VS>
3.0534684658

> <CNNaffinity_variance>
0.6671942472

$$$$
[H]c1c([H])c([H])c(C#Cc2nc(C([H])([H])[H])c([H])n3c([H])c(C#N)c([H])c23)c([H])c1[H]


 20 22  0  0  0  0  0  0  0  0999 V2000
    7.7784   25.6175    2.5840 C   0  0  0  0  0  0  0  0  0  0  0  0
    9.0007   24.9024    2.1179 C   0  0  0  0  0  0  0  0  0  0  0  0
    9.4314   23.7845    2.8017 C   0  0  0  0  0  0  0  0  0  0  0  0
   10.5326   23.1199    2.4016 N   0  0  0  0  0  0  0  0  0  0  0  0
   11.1320   22.0224    2.9045 C   0  0  0  0  0  0  0  0  0  0  0  0
   12.2223   21.7868    2.0945 C   0  0  0  0  0  0  0  0  0  0  0  0
   12.2577   22.7542    1.1131 C   0  0  0  0  0  0  0  0  0  0  0  0
   11.1838   23.5777    1.3315 C   0  0  0  0  0  0  0  0  0  0  0  0
   10.7665   24.7071    0.6236 C   0  0  0  0  0  0  0  0  0  0  0  0
    9.6626   25.3603    1.0374 N   0  0  0  0  0  0  0  0  0  0  0  0
   11.5185   25.1521   -0.5301 C   0  0  0  0  0  0  0  0  0  0  0  0
   12.1649   25.5144   -1.4881 C   0  0  0  0  0  0  0  0  0  0  0  0
   12.9488   25.9269   -2.6184 C   0  0  0  0  0  0  0  0  0  0  0  0
   14.0888   25.2324   -2.9673 C   0  0  0  0  0  0  0  0  0  0  0  0
   14.8443   25.6335   -4.0602 C   0  0  0  0  0  0  0  0  0  0  0  0
   14.4726   26.7339   -4.8206 C   0  0  0  0  0  0  0  0  0  0  0  0
   13.3352   27.4308   -4.4763 C   0  0  0  0  0  0  0  0  0  0  0  0
   12.5956   27.0202   -3.3885 C   0  0  0  0  0  0  0  0  0  0  0  0
   13.1756   20.7219    2.2276 C   0  0  0  0  0  0  0  0  0  0  0  0
   13.9703   19.8647    2.3356 N   0  0  0  0  0  0  0  0  0  0  0  0
  1  2  1  0  0  0
  2  3  2  0  0  0
  3  4  1  0  0  0
  4  5  1  0  0  0
  5  6  2  0  0  0
  6  7  1  0  0  0
  7  8  2  0  0  0
  8  9  1  0  0  0
  9 10  2  0  0  0
  9 11  1  0  0  0
 11 12  3  0  0  0
 12 13  1  0  0  0
 13 14  2  0  0  0
 14 15  1  0  0  0
 15 16  2  0  0  0
 16 17  1  0  0  0
 17 18  2  0  0  0
  6 19  1  0  0  0
 19 20  3  0  0  0
 10  2  1  0  0  0
 18 13  1  0  0  0
  8  4  1  0  0  0
M  END
> <minimizedAffinity>
-0.98758

> <CNNscore>
0.4898756444

> <CNNaffinity>
6.0524668694

> <CNN_VS>
2.9649560452

> <CNNaffinity_variance>
0.8098419905

$$$$
[H]c1c([H])c([H])c(C#Cc2nc(C([H])([H])[H])c([H])n3c([H])c(C#N)c([H])c23)c([H])c1[H]


 20 22  0  0  0  0  0  0  0  0999 V2000
   16.5895   23.2496   -4.1065 C   0  0  0  0  0  0  0  0  0  0  0  0
   15.3634   24.0252   -3.7630 C   0  0  0  0  0  0  0  0  0  0  0  0
   15.0385   25.1399   -4.5077 C   0  0  0  0  0  0  0  0  0  0  0  0
   13.9364   25.8583   -4.2185 N   0  0  0  0  0  0  0  0  0  0  0  0
   13.4276   26.9644   -4.7968 C   0  0  0  0  0  0  0  0  0  0  0  0
   12.2841   27.2652   -4.0880 C   0  0  0  0  0  0  0  0  0  0  0  0
   12.1263   26.3274   -3.0901 C   0  0  0  0  0  0  0  0  0  0  0  0
   13.1793   25.4563   -3.1967 C   0  0  0  0  0  0  0  0  0  0  0  0
   13.4885   24.3312   -2.4289 C   0  0  0  0  0  0  0  0  0  0  0  0
   14.5948   23.6236   -2.7319 N   0  0  0  0  0  0  0  0  0  0  0  0
   12.6246   23.9484   -1.3327 C   0  0  0  0  0  0  0  0  0  0  0  0
   11.9031   23.6475   -0.4076 C   0  0  0  0  0  0  0  0  0  0  0  0
   11.0444   23.3152    0.6944 C   0  0  0  0  0  0  0  0  0  0  0  0
   10.7770   24.2474    1.6759 C   0  0  0  0  0  0  0  0  0  0  0  0
    9.9467   23.9232    2.7397 C   0  0  0  0  0  0  0  0  0  0  0  0
    9.3715   22.6636    2.8391 C   0  0  0  0  0  0  0  0  0  0  0  0
    9.6354   21.7294    1.8616 C   0  0  0  0  0  0  0  0  0  0  0  0
   10.4617   22.0663    0.8116 C   0  0  0  0  0  0  0  0  0  0  0  0
   11.3905   28.3629   -4.3272 C   0  0  0  0  0  0  0  0  0  0  0  0
   10.6524   29.2507   -4.5391 N   0  0  0  0  0  0  0  0  0  0  0  0
  1  2  1  0  0  0
  2  3  2  0  0  0
  3  4  1  0  0  0
  4  5  1  0  0  0
  5  6  2  0  0  0
  6  7  1  0  0  0
  7  8  2  0  0  0
  8  9  1  0  0  0
  9 10  2  0  0  0
  9 11  1  0  0  0
 11 12  3  0  0  0
 12 13  1  0  0  0
 13 14  2  0  0  0
 14 15  1  0  0  0
 15 16  2  0  0  0
 16 17  1  0  0  0
 17 18  2  0  0  0
  6 19  1  0  0  0
 19 20  3  0  0  0
 10  2  1  0  0  0
 18 13  1  0  0  0
  8  4  1  0  0  0
M  END
> <minimizedAffinity>
1.91284

> <CNNscore>
0.4795480967

> <CNNaffinity>
6.1376471519

> <CNN_VS>
2.9432969093

> <CNNaffinity_variance>
0.8863947988

$$$$
[H]c1c([H])c([H])c(C#Cc2nc(C([H])([H])[H])c([H])n3c([H])c(C#N)c([H])c23)c([H])c1[H]


 20 22  0  0  0  0  0  0  0  0999 V2000
   11.6797   26.8518    1.0598 C   0  0  0  0  0  0  0  0  0  0  0  0
   12.5568   25.8626    0.3708 C   0  0  0  0  0  0  0  0  0  0  0  0
   12.9375   24.7170    1.0383 C   0  0  0  0  0  0  0  0  0  0  0  0
   13.7294   23.8071    0.4388 N   0  0  0  0  0  0  0  0  0  0  0  0
   14.2212   22.6346    0.8861 C   0  0  0  0  0  0  0  0  0  0  0  0
   14.9703   22.1226   -0.1516 C   0  0  0  0  0  0  0  0  0  0  0  0
   14.9140   23.0034   -1.2105 C   0  0  0  0  0  0  0  0  0  0  0  0
   14.1273   24.0521   -0.8103 C   0  0  0  0  0  0  0  0  0  0  0  0
   13.7546   25.2047   -1.5058 C   0  0  0  0  0  0  0  0  0  0  0  0
   12.9618   26.1048   -0.8911 N   0  0  0  0  0  0  0  0  0  0  0  0
   14.2210   25.4106   -2.8602 C   0  0  0  0  0  0  0  0  0  0  0  0
   14.6251   25.5972   -3.9866 C   0  0  0  0  0  0  0  0  0  0  0  0
   15.1243   25.8303   -5.3128 C   0  0  0  0  0  0  0  0  0  0  0  0
   15.8886   26.9465   -5.5841 C   0  0  0  0  0  0  0  0  0  0  0  0
   16.3696   27.1690   -6.8667 C   0  0  0  0  0  0  0  0  0  0  0  0
   16.0944   26.2803   -7.8972 C   0  0  0  0  0  0  0  0  0  0  0  0
   15.3317   25.1643   -7.6315 C   0  0  0  0  0  0  0  0  0  0  0  0
   14.8614   24.9572   -6.3529 C   0  0  0  0  0  0  0  0  0  0  0  0
   15.6963   20.8842   -0.1560 C   0  0  0  0  0  0  0  0  0  0  0  0
   16.2779   19.8647   -0.1745 N   0  0  0  0  0  0  0  0  0  0  0  0
  1  2  1  0  0  0
  2  3  2  0  0  0
  3  4  1  0  0  0
  4  5  1  0  0  0
  5  6  2  0  0  0
  6  7  1  0  0  0
  7  8  2  0  0  0
  8  9  1  0  0  0
  9 10  2  0  0  0
  9 11  1  0  0  0
 11 12  3  0  0  0
 12 13  1  0  0  0
 13 14  2  0  0  0
 14 15  1  0  0  0
 15 16  2  0  0  0
 16 17  1  0  0  0
 17 18  2  0  0  0
  6 19  1  0  0  0
 19 20  3  0  0  0
 10  2  1  0  0  0
 18 13  1  0  0  0
  8  4  1  0  0  0
M  END
> <minimizedAffinity>
4.49267

> <CNNscore>
0.4689504206

> <CNNaffinity>
6.4178061485

> <CNN_VS>
3.0096328259

> <CNNaffinity_variance>
0.8533372879

$$$$
[H]c1c([H])c([H])c(C#Cc2nc(C([H])([H])[H])c([H])n3c([H])c(C#N)c([H])c23)c([H])c1[H]


 20 22  0  0  0  0  0  0  0  0999 V2000
   17.1695   23.4042   -3.6559 C   0  0  0  0  0  0  0  0  0  0  0  0
   15.8875   24.1203   -3.3983 C   0  0  0  0  0  0  0  0  0  0  0  0
   15.5131   25.1554   -4.2296 C   0  0  0  0  0  0  0  0  0  0  0  0
   14.3599   25.8190   -4.0191 N   0  0  0  0  0  0  0  0  0  0  0  0
   13.7980   26.8453   -4.6881 C   0  0  0  0  0  0  0  0  0  0  0  0
   12.6184   27.1203   -4.0298 C   0  0  0  0  0  0  0  0  0  0  0  0
   12.4930   26.2477   -2.9701 C   0  0  0  0  0  0  0  0  0  0  0  0
   13.6019   25.4421   -2.9885 C   0  0  0  0  0  0  0  0  0  0  0  0
   13.9606   24.3973   -2.1338 C   0  0  0  0  0  0  0  0  0  0  0  0
   15.1177   23.7439   -2.3586 N   0  0  0  0  0  0  0  0  0  0  0  0
   13.0927   24.0378   -1.0328 C   0  0  0  0  0  0  0  0  0  0  0  0
   12.3694   23.7561   -0.1031 C   0  0  0  0  0  0  0  0  0  0  0  0
   11.5103   23.4465    1.0052 C   0  0  0  0  0  0  0  0  0  0  0  0
   11.4949   22.1754    1.5418 C   0  0  0  0  0  0  0  0  0  0  0  0
   10.6636   21.8792    2.6129 C   0  0  0  0  0  0  0  0  0  0  0  0
    9.8354   22.8477    3.1637 C   0  0  0  0  0  0  0  0  0  0  0  0
    9.8470   24.1184    2.6315 C   0  0  0  0  0  0  0  0  0  0  0  0
   10.6780   24.3970    1.5681 C   0  0  0  0  0  0  0  0  0  0  0  0
   11.6638   28.1373   -4.3690 C   0  0  0  0  0  0  0  0  0  0  0  0
   10.8717   28.9633   -4.6303 N   0  0  0  0  0  0  0  0  0  0  0  0
  1  2  1  0  0  0
  2  3  2  0  0  0
  3  4  1  0  0  0
  4  5  1  0  0  0
  5  6  2  0  0  0
  6  7  1  0  0  0
  7  8  2  0  0  0
  8  9  1  0  0  0
  9 10  2  0  0  0
  9 11  1  0  0  0
 11 12  3  0  0  0
 12 13  1  0  0  0
 13 14  2  0  0  0
 14 15  1  0  0  0
 15 16  2  0  0  0
 16 17  1  0  0  0
 17 18  2  0  0  0
  6 19  1  0  0  0
 19 20  3  0  0  0
 10  2  1  0  0  0
 18 13  1  0  0  0
  8  4  1  0  0  0
M  END
> <minimizedAffinity>
1.31291

> <CNNscore>
0.4608872831

> <CNNaffinity>
6.1682624817

> <CNN_VS>
2.8428738117

> <CNNaffinity_variance>
0.7510358691

$$$$
[H]c1c([H])c([H])c(C#Cc2nc(C([H])([H])[H])c([H])n3c([H])c(C#N)c([H])c23)c([H])c1[H]


 20 22  0  0  0  0  0  0  0  0999 V2000
   17.4894   23.9898    1.2242 C   0  0  0  0  0  0  0  0  0  0  0  0
   16.4362   24.2698    0.2069 C   0  0  0  0  0  0  0  0  0  0  0  0
   16.7686   24.9686   -0.9350 C   0  0  0  0  0  0  0  0  0  0  0  0
   15.8361   25.2349   -1.8699 N   0  0  0  0  0  0  0  0  0  0  0  0
   15.9266   25.8898   -3.0445 C   0  0  0  0  0  0  0  0  0  0  0  0
   14.6600   25.8606   -3.5879 C   0  0  0  0  0  0  0  0  0  0  0  0
   13.8265   25.1838   -2.7233 C   0  0  0  0  0  0  0  0  0  0  0  0
   14.5933   24.8026   -1.6529 C   0  0  0  0  0  0  0  0  0  0  0  0
   14.2335   24.0934   -0.5046 C   0  0  0  0  0  0  0  0  0  0  0  0
   15.1789   23.8355    0.4208 N   0  0  0  0  0  0  0  0  0  0  0  0
   12.8663   23.6523   -0.3298 C   0  0  0  0  0  0  0  0  0  0  0  0
   11.7275   23.2740   -0.1653 C   0  0  0  0  0  0  0  0  0  0  0  0
   10.3826   22.8208    0.0538 C   0  0  0  0  0  0  0  0  0  0  0  0
   10.0114   21.5404   -0.3023 C   0  0  0  0  0  0  0  0  0  0  0  0
    8.7109   21.1053   -0.0893 C   0  0  0  0  0  0  0  0  0  0  0  0
    7.7620   21.9422    0.4822 C   0  0  0  0  0  0  0  0  0  0  0  0
    8.1277   23.2215    0.8395 C   0  0  0  0  0  0  0  0  0  0  0  0
    9.4227   23.6389    0.6217 C   0  0  0  0  0  0  0  0  0  0  0  0
   14.2506   26.4304   -4.8402 C   0  0  0  0  0  0  0  0  0  0  0  0
   13.9346   26.9038   -5.8669 N   0  0  0  0  0  0  0  0  0  0  0  0
  1  2  1  0  0  0
  2  3  2  0  0  0
  3  4  1  0  0  0
  4  5  1  0  0  0
  5  6  2  0  0  0
  6  7  1  0  0  0
  7  8  2  0  0  0
  8  9  1  0  0  0
  9 10  2  0  0  0
  9 11  1  0  0  0
 11 12  3  0  0  0
 12 13  1  0  0  0
 13 14  2  0  0  0
 14 15  1  0  0  0
 15 16  2  0  0  0
 16 17  1  0  0  0
 17 18  2  0  0  0
  6 19  1  0  0  0
 19 20  3  0  0  0
 10  2  1  0  0  0
 18 13  1  0  0  0
  8  4  1  0  0  0
M  END
> <minimizedAffinity>
-5.83984

> <CNNscore>
0.4390731752

> <CNNaffinity>
6.6318717003

> <CNN_VS>
2.9118769169

> <CNNaffinity_variance>
0.5387183428

$$$$
[H]c1c([H])c([H])c(C#Cc2nc(C([H])([H])[H])c([H])n3c([H])c(C#N)c([H])c23)c([H])c1[H]


 20 22  0  0  0  0  0  0  0  0999 V2000
   12.3451   27.8314   -0.8429 C   0  0  0  0  0  0  0  0  0  0  0  0
   12.5595   26.3619   -0.7111 C   0  0  0  0  0  0  0  0  0  0  0  0
   12.0369   25.6981    0.3794 C   0  0  0  0  0  0  0  0  0  0  0  0
   12.2160   24.3708    0.5226 N   0  0  0  0  0  0  0  0  0  0  0  0
   11.8053   23.5244    1.4878 C   0  0  0  0  0  0  0  0  0  0  0  0
   12.2743   22.2813    1.1201 C   0  0  0  0  0  0  0  0  0  0  0  0
   12.9630   22.4053   -0.0676 C   0  0  0  0  0  0  0  0  0  0  0  0
   12.9096   23.7292   -0.4187 C   0  0  0  0  0  0  0  0  0  0  0  0
   13.4478   24.3802   -1.5312 C   0  0  0  0  0  0  0  0  0  0  0  0
   13.2593   25.7086   -1.6590 N   0  0  0  0  0  0  0  0  0  0  0  0
   14.1909   23.6251   -2.5172 C   0  0  0  0  0  0  0  0  0  0  0  0
   14.8259   23.0096   -3.3447 C   0  0  0  0  0  0  0  0  0  0  0  0
   15.5975   22.2964   -4.3236 C   0  0  0  0  0  0  0  0  0  0  0  0
   16.5267   22.9603   -5.0980 C   0  0  0  0  0  0  0  0  0  0  0  0
   17.2709   22.2682   -6.0431 C   0  0  0  0  0  0  0  0  0  0  0  0
   17.0981   20.9033   -6.2290 C   0  0  0  0  0  0  0  0  0  0  0  0
   16.1715   20.2359   -5.4583 C   0  0  0  0  0  0  0  0  0  0  0  0
   15.4403   20.9369   -4.5240 C   0  0  0  0  0  0  0  0  0  0  0  0
   12.0912   21.0497    1.8343 C   0  0  0  0  0  0  0  0  0  0  0  0
   11.9307   20.0351    2.4026 N   0  0  0  0  0  0  0  0  0  0  0  0
  1  2  1  0  0  0
  2  3  2  0  0  0
  3  4  1  0  0  0
  4  5  1  0  0  0
  5  6  2  0  0  0
  6  7  1  0  0  0
  7  8  2  0  0  0
  8  9  1  0  0  0
  9 10  2  0  0  0
  9 11  1  0  0  0
 11 12  3  0  0  0
 12 13  1  0  0  0
 13 14  2  0  0  0
 14 15  1  0  0  0
 15 16  2  0  0  0
 16 17  1  0  0  0
 17 18  2  0  0  0
  6 19  1  0  0  0
 19 20  3  0  0  0
 10  2  1  0  0  0
 18 13  1  0  0  0
  8  4  1  0  0  0
M  END
> <minimizedAffinity>
24.04282

> <CNNscore>
0.4259059429

> <CNNaffinity>
6.2298278809

> <CNN_VS>
2.6533207893

> <CNNaffinity_variance>
1.8539203405

$$$$
[H]c1c([H])c([H])c(C#Cc2nc(C([H])([H])[H])c([H])n3c([H])c(C#N)c([H])c23)c([H])c1[H]


 20 22  0  0  0  0  0  0  0  0999 V2000
   12.9585   27.0426    2.0381 C   0  0  0  0  0  0  0  0  0  0  0  0
   12.6514   26.0664    0.9540 C   0  0  0  0  0  0  0  0  0  0  0  0
   11.7532   25.0479    1.1964 C   0  0  0  0  0  0  0  0  0  0  0  0
   11.4581   24.1527    0.2342 N   0  0  0  0  0  0  0  0  0  0  0  0
   10.6261   23.0922    0.2413 C   0  0  0  0  0  0  0  0  0  0  0  0
   10.7193   22.5349   -1.0161 C   0  0  0  0  0  0  0  0  0  0  0  0
   11.6119   23.2763   -1.7602 C   0  0  0  0  0  0  0  0  0  0  0  0
   12.0598   24.2860   -0.9485 C   0  0  0  0  0  0  0  0  0  0  0  0
   12.9723   25.3089   -1.2168 C   0  0  0  0  0  0  0  0  0  0  0  0
   13.2563   26.1962   -0.2429 N   0  0  0  0  0  0  0  0  0  0  0  0
   13.5908   25.3976   -2.5222 C   0  0  0  0  0  0  0  0  0  0  0  0
   14.0897   25.4764   -3.6230 C   0  0  0  0  0  0  0  0  0  0  0  0
   14.6605   25.5815   -4.9365 C   0  0  0  0  0  0  0  0  0  0  0  0
   14.6708   26.7927   -5.5976 C   0  0  0  0  0  0  0  0  0  0  0  0
   15.2232   26.8911   -6.8669 C   0  0  0  0  0  0  0  0  0  0  0  0
   15.7733   25.7818   -7.4947 C   0  0  0  0  0  0  0  0  0  0  0  0
   15.7654   24.5703   -6.8389 C   0  0  0  0  0  0  0  0  0  0  0  0
   15.2133   24.4885   -5.5790 C   0  0  0  0  0  0  0  0  0  0  0  0
   10.0171   21.3785   -1.4960 C   0  0  0  0  0  0  0  0  0  0  0  0
    9.4257   20.4400   -1.8799 N   0  0  0  0  0  0  0  0  0  0  0  0
  1  2  1  0  0  0
  2  3  2  0  0  0
  3  4  1  0  0  0
  4  5  1  0  0  0
  5  6  2  0  0  0
  6  7  1  0  0  0
  7  8  2  0  0  0
  8  9  1  0  0  0
  9 10  2  0  0  0
  9 11  1  0  0  0
 11 12  3  0  0  0
 12 13  1  0  0  0
 13 14  2  0  0  0
 14 15  1  0  0  0
 15 16  2  0  0  0
 16 17  1  0  0  0
 17 18  2  0  0  0
  6 19  1  0  0  0
 19 20  3  0  0  0
 10  2  1  0  0  0
 18 13  1  0  0  0
  8  4  1  0  0  0
M  END
> <minimizedAffinity>
0.19505

> <CNNscore>
0.4239048660

> <CNNaffinity>
6.3741221428

> <CNN_VS>
2.7020213604

> <CNNaffinity_variance>
0.9003270864

$$$$
[H]N=C(N([H])[H])N([H])C([H])([H])C([H])([H])C([H])([H])[C@@]([H])(C(=O)N([H])[C@]([H])(C([H])=O)C([H])([H])C([H])([H])C([H])([H])N=C(N([H])[H])N([H])[H])N([H])C(=O)[C@@]1([H])N(C(=O)[C@@]([H])(N([H])C(=O)OC([H])([H])c2c([H])c([H])c([H])c([H])c2[H])C([H])([H])c2c([H])c([H])c([H])c([H])c2[H])C([H])([H])C([H])([H])C1([H])[H]


 61 63  0  0  0  0  0  0  0  0999 V2000
    6.7373   20.5363    0.0447 N   0  0  0  0  0  0  0  0  0  0  0  0
    8.0188   20.2392   -0.3838 C   0  0  0  0  0  0  0  0  0  0  0  0
    8.5047   19.0414   -0.4343 O   0  0  0  0  0  0  0  0  0  0  0  0
    6.5447   19.2089    0.3399 H   0  0  0  0  0  0  0  0  0  0  0  0
    8.9717   21.2477   -0.8318 C   0  0  0  0  0  0  0  0  0  0  0  0
   10.1481   20.8738   -1.6401 C   0  0  0  0  0  0  0  0  0  0  0  0
   10.8956   22.2232   -1.7195 C   0  0  0  0  0  0  0  0  0  0  0  0
   10.2022   23.1127   -0.6766 C   0  0  0  0  0  0  0  0  0  0  0  0
    9.6159   22.0546    0.2068 N   0  0  0  0  0  0  0  0  0  0  0  0
    9.7529   21.9905    1.5809 C   0  0  0  0  0  0  0  0  0  0  0  0
    9.2239   21.0846    2.2679 O   0  0  0  0  0  0  0  0  0  0  0  0
   10.5810   23.0532    2.3156 C   0  0  0  0  0  0  0  0  0  0  0  0
   11.8337   22.9943    1.6901 N   0  0  0  0  0  0  0  0  0  0  0  0
   12.8626   22.0925    1.4714 C   0  0  0  0  0  0  0  0  0  0  0  0
   12.9861   20.9115    1.8469 O   0  0  0  0  0  0  0  0  0  0  0  0
   12.0596   23.9992    1.2017 H   0  0  0  0  0  0  0  0  0  0  0  0
   13.9946   22.5166    0.7014 O   0  0  0  0  0  0  0  0  0  0  0  0
   14.1128   23.8530    0.3191 C   0  0  0  0  0  0  0  0  0  0  0  0
   14.7283   24.0924   -0.9773 C   0  0  0  0  0  0  0  0  0  0  0  0
   15.8149   24.9753   -1.0449 C   0  0  0  0  0  0  0  0  0  0  0  0
   16.4564   25.2801   -2.2227 C   0  0  0  0  0  0  0  0  0  0  0  0
   16.0464   24.7174   -3.4096 C   0  0  0  0  0  0  0  0  0  0  0  0
   14.9852   23.8502   -3.3679 C   0  0  0  0  0  0  0  0  0  0  0  0
   14.3552   23.5563   -2.1750 C   0  0  0  0  0  0  0  0  0  0  0  0
    9.7142   24.2437    2.3310 C   0  0  0  0  0  0  0  0  0  0  0  0
    9.1819   24.7790    3.5723 C   0  0  0  0  0  0  0  0  0  0  0  0
    8.9643   26.1777    3.6605 C   0  0  0  0  0  0  0  0  0  0  0  0
    8.5541   26.7806    4.8202 C   0  0  0  0  0  0  0  0  0  0  0  0
    8.3319   26.0475    5.9819 C   0  0  0  0  0  0  0  0  0  0  0  0
    8.5355   24.7158    5.9216 C   0  0  0  0  0  0  0  0  0  0  0  0
    8.9508   24.0959    4.7381 C   0  0  0  0  0  0  0  0  0  0  0  0
    5.4664   20.8296    0.4698 C   0  0  0  0  0  0  0  0  0  0  0  0
    5.2018   20.5694    1.9236 C   0  0  0  0  0  0  0  0  0  0  0  0
    4.0728   20.2235    2.3698 O   0  0  0  0  0  0  0  0  0  0  0  0
    6.2791   20.7200    2.8526 N   0  0  0  0  0  0  0  0  0  0  0  0
    7.2354   20.9868    2.6183 H   0  0  0  0  0  0  0  0  0  0  0  0
    5.9929   20.4607    4.2897 C   0  0  0  0  0  0  0  0  0  0  0  0
    5.9495   21.7446    5.0025 C   0  0  0  0  0  0  0  0  0  0  0  0
    5.8995   22.8109    4.4248 O   0  0  0  0  0  0  0  0  0  0  0  0
    7.0631   19.5692    4.8453 C   0  0  0  0  0  0  0  0  0  0  0  0
    8.1849   20.1423    5.5748 C   0  0  0  0  0  0  0  0  0  0  0  0
    9.3234   19.3077    6.0419 C   0  0  0  0  0  0  0  0  0  0  0  0
   10.2927   19.0018    5.0663 N   0  0  0  0  0  0  0  0  0  0  0  0
   11.2209   19.5835    4.4777 C   0  0  0  0  0  0  0  0  0  0  0  0
   11.5678   20.9322    4.7118 N   0  0  0  0  0  0  0  0  0  0  0  0
   11.9828   18.8468    3.5250 N   0  0  0  0  0  0  0  0  0  0  0  0
   12.3400   21.1604    5.3618 H   0  0  0  0  0  0  0  0  0  0  0  0
   11.0544   21.6960    4.2349 H   0  0  0  0  0  0  0  0  0  0  0  0
   12.7075   18.1918    3.8555 H   0  0  0  0  0  0  0  0  0  0  0  0
   11.8011   18.9768    2.5305 H   0  0  0  0  0  0  0  0  0  0  0  0
    4.3464   20.1610   -0.3467 C   0  0  0  0  0  0  0  0  0  0  0  0
    4.7889   19.7358   -1.7023 C   0  0  0  0  0  0  0  0  0  0  0  0
    4.6210   18.2511   -1.8816 C   0  0  0  0  0  0  0  0  0  0  0  0
    4.4819   17.6226   -0.5916 N   0  0  0  0  0  0  0  0  0  0  0  0
    3.6069   17.7509   -0.0572 H   0  0  0  0  0  0  0  0  0  0  0  0
    5.7033   16.8404    1.3532 N   0  0  0  0  0  0  0  0  0  0  0  0
    5.5611   16.8303   -0.0689 C   0  0  0  0  0  0  0  0  0  0  0  0
    6.3115   16.1844   -0.8492 N   0  0  0  0  0  0  0  0  0  0  0  0
    5.9582   17.7868    1.7565 H   0  0  0  0  0  0  0  0  0  0  0  0
    5.5710   16.0037    1.9547 H   0  0  0  0  0  0  0  0  0  0  0  0
    6.1366   16.2341   -1.8732 H   0  0  0  0  0  0  0  0  0  0  0  0
 56 57  1  0  0  0
 57 58  2  0  0  0
 57 54  1  0  0  0
 54 53  1  0  0  0
 53 52  1  0  0  0
 52 51  1  0  0  0
 51 32  1  0  0  0
 32  1  1  0  0  0
  1  2  1  0  0  0
  2  3  2  0  0  0
  2  5  1  0  0  0
  5  6  1  0  0  0
  6  7  1  0  0  0
  7  8  1  0  0  0
  8  9  1  0  0  0
  9 10  1  0  0  0
 10 11  2  0  0  0
 10 12  1  0  0  0
 12 25  1  0  0  0
 25 26  1  0  0  0
 26 27  2  0  0  0
 27 28  1  0  0  0
 28 29  2  0  0  0
 29 30  1  0  0  0
 30 31  2  0  0  0
 12 13  1  0  0  0
 13 14  1  0  0  0
 14 15  2  0  0  0
 14 17  1  0  0  0
 17 18  1  0  0  0
 18 19  1  0  0  0
 19 20  2  0  0  0
 20 21  1  0  0  0
 21 22  2  0  0  0
 22 23  1  0  0  0
 23 24  2  0  0  0
 32 33  1  0  0  0
 33 34  2  0  0  0
 33 35  1  0  0  0
 35 37  1  0  0  0
 37 40  1  0  0  0
 40 41  1  0  0  0
 41 42  1  0  0  0
 42 43  1  0  0  0
 43 44  2  0  0  0
 44 45  1  0  0  0
 44 46  1  0  0  0
 37 38  1  0  0  0
 38 39  2  0  0  0
  9  5  1  0  0  0
 31 26  1  0  0  0
 24 19  1  0  0  0
 56 59  1  0  0  0
 56 60  1  0  0  0
 58 61  1  0  0  0
 54 55  1  0  0  0
  1  4  1  0  0  0
 13 16  1  0  0  0
 35 36  1  0  0  0
 45 47  1  0  0  0
 45 48  1  0  0  0
 46 49  1  0  0  0
 46 50  1  0  0  0
M  END
> <minimizedAffinity>
-7.77654

> <CNNscore>
0.1323653907

> <CNNaffinity>
6.8788766861

> <CNN_VS>
0.9105252028

> <CNNaffinity_variance>
0.8703538775

$$$$
[H]N=C(N([H])[H])N([H])C([H])([H])C([H])([H])C([H])([H])[C@@]([H])(C(=O)N([H])[C@]([H])(C([H])=O)C([H])([H])C([H])([H])C([H])([H])N=C(N([H])[H])N([H])[H])N([H])C(=O)[C@@]1([H])N(C(=O)[C@@]([H])(N([H])C(=O)OC([H])([H])c2c([H])c([H])c([H])c([H])c2[H])C([H])([H])c2c([H])c([H])c([H])c([H])c2[H])C([H])([H])C([H])([H])C1([H])[H]


 61 63  0  0  0  0  0  0  0  0999 V2000
   11.0910   21.8490    1.2762 N   0  0  0  0  0  0  0  0  0  0  0  0
   10.6500   22.5566    2.3803 C   0  0  0  0  0  0  0  0  0  0  0  0
   10.2462   23.7848    2.3377 O   0  0  0  0  0  0  0  0  0  0  0  0
   10.9427   22.9798    0.5112 H   0  0  0  0  0  0  0  0  0  0  0  0
   10.5876   21.9945    3.7241 C   0  0  0  0  0  0  0  0  0  0  0  0
   11.2813   20.7343    4.0524 C   0  0  0  0  0  0  0  0  0  0  0  0
   10.7951   20.4951    5.4989 C   0  0  0  0  0  0  0  0  0  0  0  0
    9.6381   21.4876    5.6883 C   0  0  0  0  0  0  0  0  0  0  0  0
    9.2547   21.7036    4.2566 N   0  0  0  0  0  0  0  0  0  0  0  0
    7.9747   21.6001    3.7447 C   0  0  0  0  0  0  0  0  0  0  0  0
    7.7151   21.8079    2.5357 O   0  0  0  0  0  0  0  0  0  0  0  0
    6.8121   21.2142    4.6691 C   0  0  0  0  0  0  0  0  0  0  0  0
    6.0944   22.4081    4.8220 N   0  0  0  0  0  0  0  0  0  0  0  0
    6.2124   23.6371    5.4508 C   0  0  0  0  0  0  0  0  0  0  0  0
    7.1176   24.0786    6.1832 O   0  0  0  0  0  0  0  0  0  0  0  0
    5.1216   22.3424    4.2315 H   0  0  0  0  0  0  0  0  0  0  0  0
    5.1659   24.6007    5.2757 O   0  0  0  0  0  0  0  0  0  0  0  0
    5.3601   25.9192    5.6879 C   0  0  0  0  0  0  0  0  0  0  0  0
    5.6625   26.8773    4.6355 C   0  0  0  0  0  0  0  0  0  0  0  0
    7.0003   27.0437    4.2518 C   0  0  0  0  0  0  0  0  0  0  0  0
    7.3922   27.9333    3.2788 C   0  0  0  0  0  0  0  0  0  0  0  0
    6.4642   28.7141    2.6288 C   0  0  0  0  0  0  0  0  0  0  0  0
    5.1490   28.5683    2.9875 C   0  0  0  0  0  0  0  0  0  0  0  0
    4.7756   27.6688    3.9661 C   0  0  0  0  0  0  0  0  0  0  0  0
    6.2640   19.9851    4.0710 C   0  0  0  0  0  0  0  0  0  0  0  0
    6.4432   18.6887    4.7021 C   0  0  0  0  0  0  0  0  0  0  0  0
    7.4966   18.5395    5.6399 C   0  0  0  0  0  0  0  0  0  0  0  0
    7.7977   17.3322    6.2130 C   0  0  0  0  0  0  0  0  0  0  0  0
    7.0833   16.1800    5.8996 C   0  0  0  0  0  0  0  0  0  0  0  0
    6.0788   16.2982    5.0077 C   0  0  0  0  0  0  0  0  0  0  0  0
    5.7658   17.5301    4.4230 C   0  0  0  0  0  0  0  0  0  0  0  0
   11.5280   21.1483    0.1808 C   0  0  0  0  0  0  0  0  0  0  0  0
   12.3981   21.9201   -0.7672 C   0  0  0  0  0  0  0  0  0  0  0  0
   12.9699   21.3964   -1.7633 O   0  0  0  0  0  0  0  0  0  0  0  0
   12.5919   23.3181   -0.5338 N   0  0  0  0  0  0  0  0  0  0  0  0
   12.1814   23.8578    0.2284 H   0  0  0  0  0  0  0  0  0  0  0  0
   13.4617   24.0628   -1.4843 C   0  0  0  0  0  0  0  0  0  0  0  0
   14.7677   24.2906   -0.8511 C   0  0  0  0  0  0  0  0  0  0  0  0
   14.9727   24.0628    0.3234 O   0  0  0  0  0  0  0  0  0  0  0  0
   12.7975   25.3601   -1.8367 C   0  0  0  0  0  0  0  0  0  0  0  0
   13.0991   26.0149   -3.1014 C   0  0  0  0  0  0  0  0  0  0  0  0
   14.2904   25.6442   -3.9104 C   0  0  0  0  0  0  0  0  0  0  0  0
   15.2040   26.6873   -4.1594 N   0  0  0  0  0  0  0  0  0  0  0  0
   16.3020   27.0727   -3.7211 C   0  0  0  0  0  0  0  0  0  0  0  0
   17.0004   26.4166   -2.6837 N   0  0  0  0  0  0  0  0  0  0  0  0
   16.8928   28.2311   -4.3042 N   0  0  0  0  0  0  0  0  0  0  0  0
   17.7532   25.7450   -2.9138 H   0  0  0  0  0  0  0  0  0  0  0  0
   16.7645   26.6049   -1.6921 H   0  0  0  0  0  0  0  0  0  0  0  0
   17.3727   28.1500   -5.2133 H   0  0  0  0  0  0  0  0  0  0  0  0
   16.8327   29.1235   -3.8154 H   0  0  0  0  0  0  0  0  0  0  0  0
   10.4122   20.4739   -0.6366 C   0  0  0  0  0  0  0  0  0  0  0  0
    9.0983   21.1598   -0.5044 C   0  0  0  0  0  0  0  0  0  0  0  0
    7.9648   20.2057   -0.7683 C   0  0  0  0  0  0  0  0  0  0  0  0
    6.9335   20.3974    0.2208 N   0  0  0  0  0  0  0  0  0  0  0  0
    7.0974   20.0827    1.1912 H   0  0  0  0  0  0  0  0  0  0  0  0
    5.5906   21.4051   -1.5307 N   0  0  0  0  0  0  0  0  0  0  0  0
    5.6950   21.0205   -0.1581 C   0  0  0  0  0  0  0  0  0  0  0  0
    4.7856   21.1990    0.6965 N   0  0  0  0  0  0  0  0  0  0  0  0
    6.2735   22.1615   -1.8218 H   0  0  0  0  0  0  0  0  0  0  0  0
    4.9123   20.9895   -2.1988 H   0  0  0  0  0  0  0  0  0  0  0  0
    4.9461   20.8885    1.6760 H   0  0  0  0  0  0  0  0  0  0  0  0
 56 57  1  0  0  0
 57 58  2  0  0  0
 57 54  1  0  0  0
 54 53  1  0  0  0
 53 52  1  0  0  0
 52 51  1  0  0  0
 51 32  1  0  0  0
 32  1  1  0  0  0
  1  2  1  0  0  0
  2  3  2  0  0  0
  2  5  1  0  0  0
  5  6  1  0  0  0
  6  7  1  0  0  0
  7  8  1  0  0  0
  8  9  1  0  0  0
  9 10  1  0  0  0
 10 11  2  0  0  0
 10 12  1  0  0  0
 12 25  1  0  0  0
 25 26  1  0  0  0
 26 27  2  0  0  0
 27 28  1  0  0  0
 28 29  2  0  0  0
 29 30  1  0  0  0
 30 31  2  0  0  0
 12 13  1  0  0  0
 13 14  1  0  0  0
 14 15  2  0  0  0
 14 17  1  0  0  0
 17 18  1  0  0  0
 18 19  1  0  0  0
 19 20  2  0  0  0
 20 21  1  0  0  0
 21 22  2  0  0  0
 22 23  1  0  0  0
 23 24  2  0  0  0
 32 33  1  0  0  0
 33 34  2  0  0  0
 33 35  1  0  0  0
 35 37  1  0  0  0
 37 40  1  0  0  0
 40 41  1  0  0  0
 41 42  1  0  0  0
 42 43  1  0  0  0
 43 44  2  0  0  0
 44 45  1  0  0  0
 44 46  1  0  0  0
 37 38  1  0  0  0
 38 39  2  0  0  0
  9  5  1  0  0  0
 31 26  1  0  0  0
 24 19  1  0  0  0
 56 59  1  0  0  0
 56 60  1  0  0  0
 58 61  1  0  0  0
 54 55  1  0  0  0
  1  4  1  0  0  0
 13 16  1  0  0  0
 35 36  1  0  0  0
 45 47  1  0  0  0
 45 48  1  0  0  0
 46 49  1  0  0  0
 46 50  1  0  0  0
M  END
> <minimizedAffinity>
-8.19137

> <CNNscore>
0.1040432453

> <CNNaffinity>
7.3091721535

> <CNN_VS>
0.7604699731

> <CNNaffinity_variance>
0.2623015046

$$$$
[H]N=C(N([H])[H])N([H])C([H])([H])C([H])([H])C([H])([H])[C@@]([H])(C(=O)N([H])[C@]([H])(C([H])=O)C([H])([H])C([H])([H])C([H])([H])N=C(N([H])[H])N([H])[H])N([H])C(=O)[C@@]1([H])N(C(=O)[C@@]([H])(N([H])C(=O)OC([H])([H])c2c([H])c([H])c([H])c([H])c2[H])C([H])([H])c2c([H])c([H])c([H])c([H])c2[H])C([H])([H])C([H])([H])C1([H])[H]


 61 63  0  0  0  0  0  0  0  0999 V2000
    9.0806   21.9937   -0.0395 N   0  0  0  0  0  0  0  0  0  0  0  0
    8.1367   22.7528    0.6290 C   0  0  0  0  0  0  0  0  0  0  0  0
    6.8603   22.6400    0.4509 O   0  0  0  0  0  0  0  0  0  0  0  0
    8.0731   21.4086   -0.7665 H   0  0  0  0  0  0  0  0  0  0  0  0
    8.4748   23.7699    1.6173 C   0  0  0  0  0  0  0  0  0  0  0  0
    9.8778   24.1604    1.8546 C   0  0  0  0  0  0  0  0  0  0  0  0
    9.7210   25.1175    3.0568 C   0  0  0  0  0  0  0  0  0  0  0  0
    8.2811   24.8961    3.5437 C   0  0  0  0  0  0  0  0  0  0  0  0
    8.0373   23.5245    2.9933 N   0  0  0  0  0  0  0  0  0  0  0  0
    7.5564   22.4457    3.7117 C   0  0  0  0  0  0  0  0  0  0  0  0
    7.3594   21.3234    3.1885 O   0  0  0  0  0  0  0  0  0  0  0  0
    7.2483   22.6011    5.2070 C   0  0  0  0  0  0  0  0  0  0  0  0
    6.7172   23.8940    5.3078 N   0  0  0  0  0  0  0  0  0  0  0  0
    5.5103   24.5214    5.5714 C   0  0  0  0  0  0  0  0  0  0  0  0
    4.3884   24.0342    5.8056 O   0  0  0  0  0  0  0  0  0  0  0  0
    7.5450   24.6573    5.1303 H   0  0  0  0  0  0  0  0  0  0  0  0
    5.4721   25.9540    5.5932 O   0  0  0  0  0  0  0  0  0  0  0  0
    4.5381   26.6356    4.8126 C   0  0  0  0  0  0  0  0  0  0  0  0
    5.0727   27.6628    3.9318 C   0  0  0  0  0  0  0  0  0  0  0  0
    4.1870   28.3324    3.0764 C   0  0  0  0  0  0  0  0  0  0  0  0
    4.5938   29.3077    2.1961 C   0  0  0  0  0  0  0  0  0  0  0  0
    5.9182   29.6726    2.1182 C   0  0  0  0  0  0  0  0  0  0  0  0
    6.8033   29.0312    2.9458 C   0  0  0  0  0  0  0  0  0  0  0  0
    6.3747   28.0553    3.8235 C   0  0  0  0  0  0  0  0  0  0  0  0
    6.5169   21.3719    5.5576 C   0  0  0  0  0  0  0  0  0  0  0  0
    7.2081   20.1899    6.0434 C   0  0  0  0  0  0  0  0  0  0  0  0
    8.4507   20.3641    6.7045 C   0  0  0  0  0  0  0  0  0  0  0  0
    9.2153   19.3031    7.1122 C   0  0  0  0  0  0  0  0  0  0  0  0
    8.8119   17.9894    6.8939 C   0  0  0  0  0  0  0  0  0  0  0  0
    7.6346   17.8003    6.2643 C   0  0  0  0  0  0  0  0  0  0  0  0
    6.8490   18.8812    5.8496 C   0  0  0  0  0  0  0  0  0  0  0  0
   10.0157   21.2404   -0.7029 C   0  0  0  0  0  0  0  0  0  0  0  0
   11.3131   21.9377   -0.9893 C   0  0  0  0  0  0  0  0  0  0  0  0
   12.3323   21.3444   -1.4391 O   0  0  0  0  0  0  0  0  0  0  0  0
   11.4032   23.3437   -0.7413 N   0  0  0  0  0  0  0  0  0  0  0  0
   10.6521   23.9358   -0.3867 H   0  0  0  0  0  0  0  0  0  0  0  0
   12.7005   24.0137   -1.0289 C   0  0  0  0  0  0  0  0  0  0  0  0
   13.3102   24.4288    0.2417 C   0  0  0  0  0  0  0  0  0  0  0  0
   13.7074   23.6319    1.0666 O   0  0  0  0  0  0  0  0  0  0  0  0
   12.4512   25.1934   -1.9204 C   0  0  0  0  0  0  0  0  0  0  0  0
   13.4720   25.6236   -2.8647 C   0  0  0  0  0  0  0  0  0  0  0  0
   13.2176   26.7039   -3.8544 C   0  0  0  0  0  0  0  0  0  0  0  0
   13.9816   26.6370   -5.0363 N   0  0  0  0  0  0  0  0  0  0  0  0
   15.1171   26.9708   -5.4178 C   0  0  0  0  0  0  0  0  0  0  0  0
   16.0634   27.6063   -4.5842 N   0  0  0  0  0  0  0  0  0  0  0  0
   15.4876   26.6865   -6.7641 N   0  0  0  0  0  0  0  0  0  0  0  0
   16.7966   27.0458   -4.1162 H   0  0  0  0  0  0  0  0  0  0  0  0
   16.0293   28.6321   -4.4392 H   0  0  0  0  0  0  0  0  0  0  0  0
   15.7694   25.7278   -7.0187 H   0  0  0  0  0  0  0  0  0  0  0  0
   15.4686   27.4339   -7.4569 H   0  0  0  0  0  0  0  0  0  0  0  0
    9.5160   20.6046   -2.0121 C   0  0  0  0  0  0  0  0  0  0  0  0
    8.0776   20.2267   -1.9635 C   0  0  0  0  0  0  0  0  0  0  0  0
    7.8719   19.0016   -1.1140 C   0  0  0  0  0  0  0  0  0  0  0  0
    6.4614   18.7275   -0.9972 N   0  0  0  0  0  0  0  0  0  0  0  0
    5.9856   18.1936   -1.7430 H   0  0  0  0  0  0  0  0  0  0  0  0
    4.3149   19.1686    0.0442 N   0  0  0  0  0  0  0  0  0  0  0  0
    5.7398   19.2017    0.1518 C   0  0  0  0  0  0  0  0  0  0  0  0
    6.3620   19.6132    1.1680 N   0  0  0  0  0  0  0  0  0  0  0  0
    3.9214   19.8137   -0.6991 H   0  0  0  0  0  0  0  0  0  0  0  0
    3.7032   18.5702    0.6332 H   0  0  0  0  0  0  0  0  0  0  0  0
    7.4019   19.6031    1.1609 H   0  0  0  0  0  0  0  0  0  0  0  0
 56 57  1  0  0  0
 57 58  2  0  0  0
 57 54  1  0  0  0
 54 53  1  0  0  0
 53 52  1  0  0  0
 52 51  1  0  0  0
 51 32  1  0  0  0
 32  1  1  0  0  0
  1  2  1  0  0  0
  2  3  2  0  0  0
  2  5  1  0  0  0
  5  6  1  0  0  0
  6  7  1  0  0  0
  7  8  1  0  0  0
  8  9  1  0  0  0
  9 10  1  0  0  0
 10 11  2  0  0  0
 10 12  1  0  0  0
 12 25  1  0  0  0
 25 26  1  0  0  0
 26 27  2  0  0  0
 27 28  1  0  0  0
 28 29  2  0  0  0
 29 30  1  0  0  0
 30 31  2  0  0  0
 12 13  1  0  0  0
 13 14  1  0  0  0
 14 15  2  0  0  0
 14 17  1  0  0  0
 17 18  1  0  0  0
 18 19  1  0  0  0
 19 20  2  0  0  0
 20 21  1  0  0  0
 21 22  2  0  0  0
 22 23  1  0  0  0
 23 24  2  0  0  0
 32 33  1  0  0  0
 33 34  2  0  0  0
 33 35  1  0  0  0
 35 37  1  0  0  0
 37 40  1  0  0  0
 40 41  1  0  0  0
 41 42  1  0  0  0
 42 43  1  0  0  0
 43 44  2  0  0  0
 44 45  1  0  0  0
 44 46  1  0  0  0
 37 38  1  0  0  0
 38 39  2  0  0  0
  9  5  1  0  0  0
 31 26  1  0  0  0
 24 19  1  0  0  0
 56 59  1  0  0  0
 56 60  1  0  0  0
 58 61  1  0  0  0
 54 55  1  0  0  0
  1  4  1  0  0  0
 13 16  1  0  0  0
 35 36  1  0  0  0
 45 47  1  0  0  0
 45 48  1  0  0  0
 46 49  1  0  0  0
 46 50  1  0  0  0
M  END
> <minimizedAffinity>
-7.58283

> <CNNscore>
0.0818658024

> <CNNaffinity>
7.1770181656

> <CNN_VS>
0.5875523686

> <CNNaffinity_variance>
0.2863902450

$$$$
[H]N=C(N([H])[H])N([H])C([H])([H])C([H])([H])C([H])([H])[C@@]([H])(C(=O)N([H])[C@]([H])(C([H])=O)C([H])([H])C([H])([H])C([H])([H])N=C(N([H])[H])N([H])[H])N([H])C(=O)[C@@]1([H])N(C(=O)[C@@]([H])(N([H])C(=O)OC([H])([H])c2c([H])c([H])c([H])c([H])c2[H])C([H])([H])c2c([H])c([H])c([H])c([H])c2[H])C([H])([H])C([H])([H])C1([H])[H]


 61 63  0  0  0  0  0  0  0  0999 V2000
    8.6630   20.2706   -0.4998 N   0  0  0  0  0  0  0  0  0  0  0  0
   10.0055   20.2612   -0.1653 C   0  0  0  0  0  0  0  0  0  0  0  0
   10.9326   19.7526   -0.9103 O   0  0  0  0  0  0  0  0  0  0  0  0
    8.9562   19.5531   -1.6335 H   0  0  0  0  0  0  0  0  0  0  0  0
   10.5309   20.8288    1.0706 C   0  0  0  0  0  0  0  0  0  0  0  0
    9.7437   20.7901    2.3181 C   0  0  0  0  0  0  0  0  0  0  0  0
   10.6379   21.6262    3.2601 C   0  0  0  0  0  0  0  0  0  0  0  0
   11.6618   22.2950    2.3307 C   0  0  0  0  0  0  0  0  0  0  0  0
   10.9015   22.2454    1.0412 N   0  0  0  0  0  0  0  0  0  0  0  0
   10.6850   23.3176    0.1959 C   0  0  0  0  0  0  0  0  0  0  0  0
   10.0507   23.2082   -0.8803 O   0  0  0  0  0  0  0  0  0  0  0  0
   11.2276   24.7041    0.5677 C   0  0  0  0  0  0  0  0  0  0  0  0
   10.6068   24.9905    1.7910 N   0  0  0  0  0  0  0  0  0  0  0  0
    9.3598   24.9003    2.3881 C   0  0  0  0  0  0  0  0  0  0  0  0
    8.2764   24.4987    1.9238 O   0  0  0  0  0  0  0  0  0  0  0  0
   11.3777   25.4151    2.5155 H   0  0  0  0  0  0  0  0  0  0  0  0
    9.2205   25.3177    3.7522 O   0  0  0  0  0  0  0  0  0  0  0  0
    8.9517   26.6549    4.0450 C   0  0  0  0  0  0  0  0  0  0  0  0
    7.5594   27.0630    3.9367 C   0  0  0  0  0  0  0  0  0  0  0  0
    7.2376   28.1022    3.0527 C   0  0  0  0  0  0  0  0  0  0  0  0
    5.9554   28.5714    2.8881 C   0  0  0  0  0  0  0  0  0  0  0  0
    4.9130   28.0268    3.6024 C   0  0  0  0  0  0  0  0  0  0  0  0
    5.2038   27.0085    4.4732 C   0  0  0  0  0  0  0  0  0  0  0  0
    6.4978   26.5508    4.6234 C   0  0  0  0  0  0  0  0  0  0  0  0
   12.6838   24.5871    0.3813 C   0  0  0  0  0  0  0  0  0  0  0  0
   13.3161   24.9191   -0.8839 C   0  0  0  0  0  0  0  0  0  0  0  0
   12.5750   25.6785   -1.8250 C   0  0  0  0  0  0  0  0  0  0  0  0
   13.0550   25.9578   -3.0772 C   0  0  0  0  0  0  0  0  0  0  0  0
   14.3020   25.5044   -3.4960 C   0  0  0  0  0  0  0  0  0  0  0  0
   15.0229   24.7777   -2.6182 C   0  0  0  0  0  0  0  0  0  0  0  0
   14.5378   24.4934   -1.3371 C   0  0  0  0  0  0  0  0  0  0  0  0
    7.3322   20.2794   -0.8326 C   0  0  0  0  0  0  0  0  0  0  0  0
    6.4146   20.8408    0.2134 C   0  0  0  0  0  0  0  0  0  0  0  0
    5.6170   21.7942   -0.0061 O   0  0  0  0  0  0  0  0  0  0  0  0
    6.4426   20.2706    1.5251 N   0  0  0  0  0  0  0  0  0  0  0  0
    7.0343   19.4961    1.8259 H   0  0  0  0  0  0  0  0  0  0  0  0
    5.5270   20.8457    2.5476 C   0  0  0  0  0  0  0  0  0  0  0  0
    6.3205   21.2644    3.7110 C   0  0  0  0  0  0  0  0  0  0  0  0
    6.0344   22.2349    4.3815 O   0  0  0  0  0  0  0  0  0  0  0  0
    4.5123   19.8097    2.9291 C   0  0  0  0  0  0  0  0  0  0  0  0
    4.9107   18.4176    3.0784 C   0  0  0  0  0  0  0  0  0  0  0  0
    4.5179   17.6138    4.2662 C   0  0  0  0  0  0  0  0  0  0  0  0
    5.5792   17.1856    5.0878 N   0  0  0  0  0  0  0  0  0  0  0  0
    6.3300   16.1987    5.1811 C   0  0  0  0  0  0  0  0  0  0  0  0
    6.2664   15.0868    4.3128 N   0  0  0  0  0  0  0  0  0  0  0  0
    7.3145   16.1944    6.2114 N   0  0  0  0  0  0  0  0  0  0  0  0
    6.9097   15.0267    3.5046 H   0  0  0  0  0  0  0  0  0  0  0  0
    5.5798   14.3287    4.4810 H   0  0  0  0  0  0  0  0  0  0  0  0
    8.1793   16.7419    6.0858 H   0  0  0  0  0  0  0  0  0  0  0  0
    7.1506   15.6510    7.0580 H   0  0  0  0  0  0  0  0  0  0  0  0
    6.7729   18.9163   -1.2767 C   0  0  0  0  0  0  0  0  0  0  0  0
    7.4198   17.7686   -0.5850 C   0  0  0  0  0  0  0  0  0  0  0  0
    6.7275   16.4764   -0.9250 C   0  0  0  0  0  0  0  0  0  0  0  0
    6.3701   15.7871    0.2898 N   0  0  0  0  0  0  0  0  0  0  0  0
    7.1159   15.3977    0.8895 H   0  0  0  0  0  0  0  0  0  0  0  0
    4.0507   16.2271   -0.2699 N   0  0  0  0  0  0  0  0  0  0  0  0
    4.9844   15.6509    0.6462 C   0  0  0  0  0  0  0  0  0  0  0  0
    4.6565   15.0557    1.7080 N   0  0  0  0  0  0  0  0  0  0  0  0
    4.1170   17.2818   -0.3501 H   0  0  0  0  0  0  0  0  0  0  0  0
    3.3617   15.6758   -0.8182 H   0  0  0  0  0  0  0  0  0  0  0  0
    5.4028   14.6661    2.3187 H   0  0  0  0  0  0  0  0  0  0  0  0
 56 57  1  0  0  0
 57 58  2  0  0  0
 57 54  1  0  0  0
 54 53  1  0  0  0
 53 52  1  0  0  0
 52 51  1  0  0  0
 51 32  1  0  0  0
 32  1  1  0  0  0
  1  2  1  0  0  0
  2  3  2  0  0  0
  2  5  1  0  0  0
  5  6  1  0  0  0
  6  7  1  0  0  0
  7  8  1  0  0  0
  8  9  1  0  0  0
  9 10  1  0  0  0
 10 11  2  0  0  0
 10 12  1  0  0  0
 12 25  1  0  0  0
 25 26  1  0  0  0
 26 27  2  0  0  0
 27 28  1  0  0  0
 28 29  2  0  0  0
 29 30  1  0  0  0
 30 31  2  0  0  0
 12 13  1  0  0  0
 13 14  1  0  0  0
 14 15  2  0  0  0
 14 17  1  0  0  0
 17 18  1  0  0  0
 18 19  1  0  0  0
 19 20  2  0  0  0
 20 21  1  0  0  0
 21 22  2  0  0  0
 22 23  1  0  0  0
 23 24  2  0  0  0
 32 33  1  0  0  0
 33 34  2  0  0  0
 33 35  1  0  0  0
 35 37  1  0  0  0
 37 40  1  0  0  0
 40 41  1  0  0  0
 41 42  1  0  0  0
 42 43  1  0  0  0
 43 44  2  0  0  0
 44 45  1  0  0  0
 44 46  1  0  0  0
 37 38  1  0  0  0
 38 39  2  0  0  0
  9  5  1  0  0  0
 31 26  1  0  0  0
 24 19  1  0  0  0
 56 59  1  0  0  0
 56 60  1  0  0  0
 58 61  1  0  0  0
 54 55  1  0  0  0
  1  4  1  0  0  0
 13 16  1  0  0  0
 35 36  1  0  0  0
 45 47  1  0  0  0
 45 48  1  0  0  0
 46 49  1  0  0  0
 46 50  1  0  0  0
M  END
> <minimizedAffinity>
-7.40542

> <CNNscore>
0.0649937615

> <CNNaffinity>
6.5011930466

> <CNN_VS>
0.4225369990

> <CNNaffinity_variance>
0.8417205811

$$$$
[H]N=C(N([H])[H])N([H])C([H])([H])C([H])([H])C([H])([H])[C@@]([H])(C(=O)N([H])[C@]([H])(C([H])=O)C([H])([H])C([H])([H])C([H])([H])N=C(N([H])[H])N([H])[H])N([H])C(=O)[C@@]1([H])N(C(=O)[C@@]([H])(N([H])C(=O)OC([H])([H])c2c([H])c([H])c([H])c([H])c2[H])C([H])([H])c2c([H])c([H])c([H])c([H])c2[H])C([H])([H])C([H])([H])C1([H])[H]


 61 63  0  0  0  0  0  0  0  0999 V2000
   10.7766   23.2207    1.3793 N   0  0  0  0  0  0  0  0  0  0  0  0
    9.4486   23.6082    1.4015 C   0  0  0  0  0  0  0  0  0  0  0  0
    8.7024   23.6925    0.3482 O   0  0  0  0  0  0  0  0  0  0  0  0
   10.7183   23.1537    0.0088 H   0  0  0  0  0  0  0  0  0  0  0  0
    8.7347   23.9650    2.6216 C   0  0  0  0  0  0  0  0  0  0  0  0
    9.4470   24.5491    3.7742 C   0  0  0  0  0  0  0  0  0  0  0  0
    8.3184   24.5983    4.8277 C   0  0  0  0  0  0  0  0  0  0  0  0
    7.1927   23.7405    4.2305 C   0  0  0  0  0  0  0  0  0  0  0  0
    7.9937   22.8932    3.2902 N   0  0  0  0  0  0  0  0  0  0  0  0
    7.9465   21.5136    3.2155 C   0  0  0  0  0  0  0  0  0  0  0  0
    8.6332   20.8608    2.3941 O   0  0  0  0  0  0  0  0  0  0  0  0
    7.0308   20.7289    4.1645 C   0  0  0  0  0  0  0  0  0  0  0  0
    6.1377   20.0751    3.3049 N   0  0  0  0  0  0  0  0  0  0  0  0
    5.3874   20.3319    2.1688 C   0  0  0  0  0  0  0  0  0  0  0  0
    5.2642   21.3818    1.5105 O   0  0  0  0  0  0  0  0  0  0  0  0
    6.0060   18.9957    3.6469 H   0  0  0  0  0  0  0  0  0  0  0  0
    4.6051   19.2696    1.6086 O   0  0  0  0  0  0  0  0  0  0  0  0
    3.5405   19.5658    0.7572 C   0  0  0  0  0  0  0  0  0  0  0  0
    3.8886   19.8239   -0.6317 C   0  0  0  0  0  0  0  0  0  0  0  0
    4.7583   18.9333   -1.2760 C   0  0  0  0  0  0  0  0  0  0  0  0
    5.1603   19.0959   -2.5812 C   0  0  0  0  0  0  0  0  0  0  0  0
    4.7144   20.1654   -3.3234 C   0  0  0  0  0  0  0  0  0  0  0  0
    3.8624   21.0499   -2.7139 C   0  0  0  0  0  0  0  0  0  0  0  0
    3.4696   20.8684   -1.4027 C   0  0  0  0  0  0  0  0  0  0  0  0
    7.9578   20.0420    5.0797 C   0  0  0  0  0  0  0  0  0  0  0  0
    7.5639   18.8438    5.8008 C   0  0  0  0  0  0  0  0  0  0  0  0
    8.5434   17.8423    6.0226 C   0  0  0  0  0  0  0  0  0  0  0  0
    8.2400   16.6424    6.6097 C   0  0  0  0  0  0  0  0  0  0  0  0
    6.9448   16.3394    7.0184 C   0  0  0  0  0  0  0  0  0  0  0  0
    5.9966   17.2763    6.8145 C   0  0  0  0  0  0  0  0  0  0  0  0
    6.3032   18.5045    6.2186 C   0  0  0  0  0  0  0  0  0  0  0  0
   12.0933   22.8363    1.3560 C   0  0  0  0  0  0  0  0  0  0  0  0
   12.9951   23.6922    0.5160 C   0  0  0  0  0  0  0  0  0  0  0  0
   14.1054   24.1338    0.9228 O   0  0  0  0  0  0  0  0  0  0  0  0
   12.5794   24.0265   -0.8114 N   0  0  0  0  0  0  0  0  0  0  0  0
   11.7121   23.7276   -1.2575 H   0  0  0  0  0  0  0  0  0  0  0  0
   13.4876   24.8795   -1.6250 C   0  0  0  0  0  0  0  0  0  0  0  0
   12.6798   25.8572   -2.3667 C   0  0  0  0  0  0  0  0  0  0  0  0
   12.9521   26.2061   -3.4969 O   0  0  0  0  0  0  0  0  0  0  0  0
   14.2697   24.0045   -2.5584 C   0  0  0  0  0  0  0  0  0  0  0  0
   15.6682   24.2984   -2.8352 C   0  0  0  0  0  0  0  0  0  0  0  0
   16.4677   25.1959   -1.9598 C   0  0  0  0  0  0  0  0  0  0  0  0
   16.8993   26.3979   -2.5547 N   0  0  0  0  0  0  0  0  0  0  0  0
   16.6401   27.0664   -3.5706 C   0  0  0  0  0  0  0  0  0  0  0  0
   15.6684   26.6901   -4.5238 N   0  0  0  0  0  0  0  0  0  0  0  0
   17.3531   28.2826   -3.7785 N   0  0  0  0  0  0  0  0  0  0  0  0
   14.7164   27.0928   -4.4756 H   0  0  0  0  0  0  0  0  0  0  0  0
   15.9033   26.0137   -5.2732 H   0  0  0  0  0  0  0  0  0  0  0  0
   17.0797   29.1250   -3.2503 H   0  0  0  0  0  0  0  0  0  0  0  0
   18.1234   28.3035   -4.4457 H   0  0  0  0  0  0  0  0  0  0  0  0
   12.3260   21.3671    0.9620 C   0  0  0  0  0  0  0  0  0  0  0  0
   11.0713   20.6587    0.5901 C   0  0  0  0  0  0  0  0  0  0  0  0
   10.8984   20.6200   -0.9043 C   0  0  0  0  0  0  0  0  0  0  0  0
    9.5993   21.1392   -1.2527 N   0  0  0  0  0  0  0  0  0  0  0  0
    9.5334   21.9887   -1.8372 H   0  0  0  0  0  0  0  0  0  0  0  0
    7.2882   21.3089   -0.5345 N   0  0  0  0  0  0  0  0  0  0  0  0
    8.4184   20.4695   -0.7810 C   0  0  0  0  0  0  0  0  0  0  0  0
    8.4219   19.2208   -0.6077 N   0  0  0  0  0  0  0  0  0  0  0  0
    7.4296   22.0067    0.2506 H   0  0  0  0  0  0  0  0  0  0  0  0
    6.3989   21.2548   -1.0689 H   0  0  0  0  0  0  0  0  0  0  0  0
    9.2902   18.6859   -0.8116 H   0  0  0  0  0  0  0  0  0  0  0  0
 56 57  1  0  0  0
 57 58  2  0  0  0
 57 54  1  0  0  0
 54 53  1  0  0  0
 53 52  1  0  0  0
 52 51  1  0  0  0
 51 32  1  0  0  0
 32  1  1  0  0  0
  1  2  1  0  0  0
  2  3  2  0  0  0
  2  5  1  0  0  0
  5  6  1  0  0  0
  6  7  1  0  0  0
  7  8  1  0  0  0
  8  9  1  0  0  0
  9 10  1  0  0  0
 10 11  2  0  0  0
 10 12  1  0  0  0
 12 25  1  0  0  0
 25 26  1  0  0  0
 26 27  2  0  0  0
 27 28  1  0  0  0
 28 29  2  0  0  0
 29 30  1  0  0  0
 30 31  2  0  0  0
 12 13  1  0  0  0
 13 14  1  0  0  0
 14 15  2  0  0  0
 14 17  1  0  0  0
 17 18  1  0  0  0
 18 19  1  0  0  0
 19 20  2  0  0  0
 20 21  1  0  0  0
 21 22  2  0  0  0
 22 23  1  0  0  0
 23 24  2  0  0  0
 32 33  1  0  0  0
 33 34  2  0  0  0
 33 35  1  0  0  0
 35 37  1  0  0  0
 37 40  1  0  0  0
 40 41  1  0  0  0
 41 42  1  0  0  0
 42 43  1  0  0  0
 43 44  2  0  0  0
 44 45  1  0  0  0
 44 46  1  0  0  0
 37 38  1  0  0  0
 38 39  2  0  0  0
  9  5  1  0  0  0
 31 26  1  0  0  0
 24 19  1  0  0  0
 56 59  1  0  0  0
 56 60  1  0  0  0
 58 61  1  0  0  0
 54 55  1  0  0  0
  1  4  1  0  0  0
 13 16  1  0  0  0
 35 36  1  0  0  0
 45 47  1  0  0  0
 45 48  1  0  0  0
 46 49  1  0  0  0
 46 50  1  0  0  0
M  END
> <minimizedAffinity>
-8.00227

> <CNNscore>
0.0630661845

> <CNNaffinity>
6.9405670166

> <CNN_VS>
0.4377150834

> <CNNaffinity_variance>
0.7514128685

$$$$
[H]N=C(N([H])[H])N([H])C([H])([H])C([H])([H])C([H])([H])[C@@]([H])(C(=O)N([H])[C@]([H])(C([H])=O)C([H])([H])C([H])([H])C([H])([H])N=C(N([H])[H])N([H])[H])N([H])C(=O)[C@@]1([H])N(C(=O)[C@@]([H])(N([H])C(=O)OC([H])([H])c2c([H])c([H])c([H])c([H])c2[H])C([H])([H])c2c([H])c([H])c([H])c([H])c2[H])C([H])([H])C([H])([H])C1([H])[H]


 61 63  0  0  0  0  0  0  0  0999 V2000
   10.6018   22.0081    2.2964 N   0  0  0  0  0  0  0  0  0  0  0  0
   10.8887   21.4373    3.5236 C   0  0  0  0  0  0  0  0  0  0  0  0
   11.6906   20.4351    3.6850 O   0  0  0  0  0  0  0  0  0  0  0  0
   11.3738   21.0495    1.6871 H   0  0  0  0  0  0  0  0  0  0  0  0
   10.3188   21.9046    4.7816 C   0  0  0  0  0  0  0  0  0  0  0  0
   10.7630   21.3418    6.0712 C   0  0  0  0  0  0  0  0  0  0  0  0
    9.7839   22.0287    7.0486 C   0  0  0  0  0  0  0  0  0  0  0  0
    8.7065   22.6491    6.1464 C   0  0  0  0  0  0  0  0  0  0  0  0
    8.8669   21.7861    4.9328 N   0  0  0  0  0  0  0  0  0  0  0  0
    7.8447   21.1243    4.2784 C   0  0  0  0  0  0  0  0  0  0  0  0
    8.0419   20.4264    3.2554 O   0  0  0  0  0  0  0  0  0  0  0  0
    6.4074   21.2287    4.8059 C   0  0  0  0  0  0  0  0  0  0  0  0
    5.6177   20.8972    3.6967 N   0  0  0  0  0  0  0  0  0  0  0  0
    4.4710   20.1808    3.3941 C   0  0  0  0  0  0  0  0  0  0  0  0
    3.7242   19.5139    4.1346 O   0  0  0  0  0  0  0  0  0  0  0  0
    6.0546   21.3838    2.7630 H   0  0  0  0  0  0  0  0  0  0  0  0
    4.0142   20.1589    2.0358 O   0  0  0  0  0  0  0  0  0  0  0  0
    4.2630   19.0421    1.2375 C   0  0  0  0  0  0  0  0  0  0  0  0
    5.0379   19.2825    0.0299 C   0  0  0  0  0  0  0  0  0  0  0  0
    4.5640   20.2311   -0.8868 C   0  0  0  0  0  0  0  0  0  0  0  0
    5.2139   20.5208   -2.0637 C   0  0  0  0  0  0  0  0  0  0  0  0
    6.3824   19.8748   -2.3960 C   0  0  0  0  0  0  0  0  0  0  0  0
    6.8654   18.9426   -1.5142 C   0  0  0  0  0  0  0  0  0  0  0  0
    6.1986   18.6668   -0.3371 C   0  0  0  0  0  0  0  0  0  0  0  0
    6.4273   20.4715    6.0689 C   0  0  0  0  0  0  0  0  0  0  0  0
    6.9070   19.1012    6.1248 C   0  0  0  0  0  0  0  0  0  0  0  0
    8.1217   18.8435    6.8101 C   0  0  0  0  0  0  0  0  0  0  0  0
    8.6963   17.6001    6.8341 C   0  0  0  0  0  0  0  0  0  0  0  0
    8.1162   16.5181    6.1792 C   0  0  0  0  0  0  0  0  0  0  0  0
    6.9620   16.7410    5.5185 C   0  0  0  0  0  0  0  0  0  0  0  0
    6.3701   18.0085    5.4948 C   0  0  0  0  0  0  0  0  0  0  0  0
   10.3181   22.5733    1.0791 C   0  0  0  0  0  0  0  0  0  0  0  0
   11.4913   22.7289    0.1567 C   0  0  0  0  0  0  0  0  0  0  0  0
   12.0755   21.7525   -0.3898 O   0  0  0  0  0  0  0  0  0  0  0  0
   11.9744   24.0469   -0.1190 N   0  0  0  0  0  0  0  0  0  0  0  0
   11.5866   24.9139    0.2530 H   0  0  0  0  0  0  0  0  0  0  0  0
   13.1412   24.1772   -1.0334 C   0  0  0  0  0  0  0  0  0  0  0  0
   14.3510   24.3940   -0.2284 C   0  0  0  0  0  0  0  0  0  0  0  0
   14.3579   24.2905    0.9809 O   0  0  0  0  0  0  0  0  0  0  0  0
   12.9004   25.3248   -1.9681 C   0  0  0  0  0  0  0  0  0  0  0  0
   13.7413   25.4978   -3.1437 C   0  0  0  0  0  0  0  0  0  0  0  0
   13.5584   26.6420   -4.0756 C   0  0  0  0  0  0  0  0  0  0  0  0
   14.3124   26.5837   -5.2643 N   0  0  0  0  0  0  0  0  0  0  0  0
   15.4007   27.0134   -5.6854 C   0  0  0  0  0  0  0  0  0  0  0  0
   16.2811   27.7987   -4.9091 N   0  0  0  0  0  0  0  0  0  0  0  0
   15.7856   26.6865   -7.0180 N   0  0  0  0  0  0  0  0  0  0  0  0
   17.0759   27.3512   -4.4204 H   0  0  0  0  0  0  0  0  0  0  0  0
   16.1371   28.8219   -4.8269 H   0  0  0  0  0  0  0  0  0  0  0  0
   16.1674   25.7497   -7.2180 H   0  0  0  0  0  0  0  0  0  0  0  0
   15.6780   27.3823   -7.7550 H   0  0  0  0  0  0  0  0  0  0  0  0
    9.5869   23.9252    1.1541 C   0  0  0  0  0  0  0  0  0  0  0  0
    8.1471   23.7894    1.5048 C   0  0  0  0  0  0  0  0  0  0  0  0
    7.8516   24.4451    2.8267 C   0  0  0  0  0  0  0  0  0  0  0  0
    8.9479   25.3066    3.1930 N   0  0  0  0  0  0  0  0  0  0  0  0
    9.9165   24.9560    3.1126 H   0  0  0  0  0  0  0  0  0  0  0  0
    7.4772   27.2360    3.1714 N   0  0  0  0  0  0  0  0  0  0  0  0
    8.6771   26.6367    3.6654 C   0  0  0  0  0  0  0  0  0  0  0  0
    9.4731   27.2029    4.4622 N   0  0  0  0  0  0  0  0  0  0  0  0
    7.4779   27.4090    2.1257 H   0  0  0  0  0  0  0  0  0  0  0  0
    6.6654   27.4856    3.7697 H   0  0  0  0  0  0  0  0  0  0  0  0
   10.3253   26.6929    4.7710 H   0  0  0  0  0  0  0  0  0  0  0  0
 56 57  1  0  0  0
 57 58  2  0  0  0
 57 54  1  0  0  0
 54 53  1  0  0  0
 53 52  1  0  0  0
 52 51  1  0  0  0
 51 32  1  0  0  0
 32  1  1  0  0  0
  1  2  1  0  0  0
  2  3  2  0  0  0
  2  5  1  0  0  0
  5  6  1  0  0  0
  6  7  1  0  0  0
  7  8  1  0  0  0
  8  9  1  0  0  0
  9 10  1  0  0  0
 10 11  2  0  0  0
 10 12  1  0  0  0
 12 25  1  0  0  0
 25 26  1  0  0  0
 26 27  2  0  0  0
 27 28  1  0  0  0
 28 29  2  0  0  0
 29 30  1  0  0  0
 30 31  2  0  0  0
 12 13  1  0  0  0
 13 14  1  0  0  0
 14 15  2  0  0  0
 14 17  1  0  0  0
 17 18  1  0  0  0
 18 19  1  0  0  0
 19 20  2  0  0  0
 20 21  1  0  0  0
 21 22  2  0  0  0
 22 23  1  0  0  0
 23 24  2  0  0  0
 32 33  1  0  0  0
 33 34  2  0  0  0
 33 35  1  0  0  0
 35 37  1  0  0  0
 37 40  1  0  0  0
 40 41  1  0  0  0
 41 42  1  0  0  0
 42 43  1  0  0  0
 43 44  2  0  0  0
 44 45  1  0  0  0
 44 46  1  0  0  0
 37 38  1  0  0  0
 38 39  2  0  0  0
  9  5  1  0  0  0
 31 26  1  0  0  0
 24 19  1  0  0  0
 56 59  1  0  0  0
 56 60  1  0  0  0
 58 61  1  0  0  0
 54 55  1  0  0  0
  1  4  1  0  0  0
 13 16  1  0  0  0
 35 36  1  0  0  0
 45 47  1  0  0  0
 45 48  1  0  0  0
 46 49  1  0  0  0
 46 50  1  0  0  0
M  END
> <minimizedAffinity>
-7.84597

> <CNNscore>
0.0629580319

> <CNNaffinity>
6.8576521873

> <CNN_VS>
0.4317442775

> <CNNaffinity_variance>
0.3975635171

$$$$
[H]N=C(N([H])[H])N([H])C([H])([H])C([H])([H])C([H])([H])[C@@]([H])(C(=O)N([H])[C@]([H])(C([H])=O)C([H])([H])C([H])([H])C([H])([H])N=C(N([H])[H])N([H])[H])N([H])C(=O)[C@@]1([H])N(C(=O)[C@@]([H])(N([H])C(=O)OC([H])([H])c2c([H])c([H])c([H])c([H])c2[H])C([H])([H])c2c([H])c([H])c([H])c([H])c2[H])C([H])([H])C([H])([H])C1([H])[H]


 61 63  0  0  0  0  0  0  0  0999 V2000
   10.9026   22.2958    1.0648 N   0  0  0  0  0  0  0  0  0  0  0  0
    9.9347   23.2039    1.4557 C   0  0  0  0  0  0  0  0  0  0  0  0
    9.4628   24.1325    0.6886 O   0  0  0  0  0  0  0  0  0  0  0  0
   10.9948   22.9381   -0.1455 H   0  0  0  0  0  0  0  0  0  0  0  0
    9.3317   23.2160    2.7831 C   0  0  0  0  0  0  0  0  0  0  0  0
   10.0870   22.7550    3.9638 C   0  0  0  0  0  0  0  0  0  0  0  0
    8.9971   22.8162    5.0567 C   0  0  0  0  0  0  0  0  0  0  0  0
    7.6828   23.0024    4.2838 C   0  0  0  0  0  0  0  0  0  0  0  0
    8.0935   22.4525    2.9525 N   0  0  0  0  0  0  0  0  0  0  0  0
    7.4051   21.4926    2.2342 C   0  0  0  0  0  0  0  0  0  0  0  0
    7.7941   21.0827    1.1149 O   0  0  0  0  0  0  0  0  0  0  0  0
    6.1166   20.8882    2.8082 C   0  0  0  0  0  0  0  0  0  0  0  0
    5.4886   20.3160    1.6937 N   0  0  0  0  0  0  0  0  0  0  0  0
    4.3314   20.4593    0.9454 C   0  0  0  0  0  0  0  0  0  0  0  0
    3.3737   21.2415    1.0929 O   0  0  0  0  0  0  0  0  0  0  0  0
    6.1486   19.4876    1.2722 H   0  0  0  0  0  0  0  0  0  0  0  0
    4.1390   19.6067   -0.1906 O   0  0  0  0  0  0  0  0  0  0  0  0
    3.5162   18.3686   -0.0318 C   0  0  0  0  0  0  0  0  0  0  0  0
    4.3352   17.3130    0.5441 C   0  0  0  0  0  0  0  0  0  0  0  0
    3.9240   16.7372    1.7540 C   0  0  0  0  0  0  0  0  0  0  0  0
    4.6345   15.7444    2.3873 C   0  0  0  0  0  0  0  0  0  0  0  0
    5.8055   15.2665    1.8454 C   0  0  0  0  0  0  0  0  0  0  0  0
    6.2275   15.8147    0.6618 C   0  0  0  0  0  0  0  0  0  0  0  0
    5.4992   16.8101    0.0410 C   0  0  0  0  0  0  0  0  0  0  0  0
    6.5642   20.1321    3.9901 C   0  0  0  0  0  0  0  0  0  0  0  0
    5.7601   19.0626    4.5562 C   0  0  0  0  0  0  0  0  0  0  0  0
    4.3692   19.2852    4.7218 C   0  0  0  0  0  0  0  0  0  0  0  0
    3.5515   18.3708    5.3316 C   0  0  0  0  0  0  0  0  0  0  0  0
    4.0469   17.1689    5.8276 C   0  0  0  0  0  0  0  0  0  0  0  0
    5.3676   16.9375    5.6835 C   0  0  0  0  0  0  0  0  0  0  0  0
    6.2054   17.8672    5.0580 C   0  0  0  0  0  0  0  0  0  0  0  0
   11.8622   21.3959    0.6761 C   0  0  0  0  0  0  0  0  0  0  0  0
   13.2296   21.9733    0.4563 C   0  0  0  0  0  0  0  0  0  0  0  0
   14.2570   21.5703    1.0689 O   0  0  0  0  0  0  0  0  0  0  0  0
   13.3800   23.0329   -0.4929 N   0  0  0  0  0  0  0  0  0  0  0  0
   12.6325   23.4407   -1.0546 H   0  0  0  0  0  0  0  0  0  0  0  0
   14.7443   23.5931   -0.6918 C   0  0  0  0  0  0  0  0  0  0  0  0
   15.0113   24.5755    0.3674 C   0  0  0  0  0  0  0  0  0  0  0  0
   14.1289   25.2131    0.9043 O   0  0  0  0  0  0  0  0  0  0  0  0
   14.8162   24.2273   -2.0487 C   0  0  0  0  0  0  0  0  0  0  0  0
   13.6819   24.9802   -2.5639 C   0  0  0  0  0  0  0  0  0  0  0  0
   13.8034   25.8617   -3.7552 C   0  0  0  0  0  0  0  0  0  0  0  0
   14.9527   26.6757   -3.7939 N   0  0  0  0  0  0  0  0  0  0  0  0
   15.7092   27.1588   -4.6544 C   0  0  0  0  0  0  0  0  0  0  0  0
   15.5402   26.9572   -6.0419 N   0  0  0  0  0  0  0  0  0  0  0  0
   16.7977   27.9687   -4.2183 N   0  0  0  0  0  0  0  0  0  0  0  0
   15.0538   27.6716   -6.6109 H   0  0  0  0  0  0  0  0  0  0  0  0
   15.9021   26.0980   -6.4948 H   0  0  0  0  0  0  0  0  0  0  0  0
   16.6203   28.9453   -3.9388 H   0  0  0  0  0  0  0  0  0  0  0  0
   17.7361   27.5719   -4.1881 H   0  0  0  0  0  0  0  0  0  0  0  0
   11.4930   20.5583   -0.5609 C   0  0  0  0  0  0  0  0  0  0  0  0
   10.2224   19.8022   -0.3935 C   0  0  0  0  0  0  0  0  0  0  0  0
    9.1741   20.2929   -1.3554 C   0  0  0  0  0  0  0  0  0  0  0  0
    7.9932   19.4739   -1.2401 N   0  0  0  0  0  0  0  0  0  0  0  0
    8.0489   18.5723   -0.7386 H   0  0  0  0  0  0  0  0  0  0  0  0
    6.3398   21.2368   -1.4514 N   0  0  0  0  0  0  0  0  0  0  0  0
    6.7594   19.9226   -1.8251 C   0  0  0  0  0  0  0  0  0  0  0  0
    6.1190   19.1735   -2.6111 N   0  0  0  0  0  0  0  0  0  0  0  0
    6.1040   21.3404   -0.4232 H   0  0  0  0  0  0  0  0  0  0  0  0
    6.2677   22.0326   -2.1152 H   0  0  0  0  0  0  0  0  0  0  0  0
    6.4974   18.2294   -2.8284 H   0  0  0  0  0  0  0  0  0  0  0  0
 56 57  1  0  0  0
 57 58  2  0  0  0
 57 54  1  0  0  0
 54 53  1  0  0  0
 53 52  1  0  0  0
 52 51  1  0  0  0
 51 32  1  0  0  0
 32  1  1  0  0  0
  1  2  1  0  0  0
  2  3  2  0  0  0
  2  5  1  0  0  0
  5  6  1  0  0  0
  6  7  1  0  0  0
  7  8  1  0  0  0
  8  9  1  0  0  0
  9 10  1  0  0  0
 10 11  2  0  0  0
 10 12  1  0  0  0
 12 25  1  0  0  0
 25 26  1  0  0  0
 26 27  2  0  0  0
 27 28  1  0  0  0
 28 29  2  0  0  0
 29 30  1  0  0  0
 30 31  2  0  0  0
 12 13  1  0  0  0
 13 14  1  0  0  0
 14 15  2  0  0  0
 14 17  1  0  0  0
 17 18  1  0  0  0
 18 19  1  0  0  0
 19 20  2  0  0  0
 20 21  1  0  0  0
 21 22  2  0  0  0
 22 23  1  0  0  0
 23 24  2  0  0  0
 32 33  1  0  0  0
 33 34  2  0  0  0
 33 35  1  0  0  0
 35 37  1  0  0  0
 37 40  1  0  0  0
 40 41  1  0  0  0
 41 42  1  0  0  0
 42 43  1  0  0  0
 43 44  2  0  0  0
 44 45  1  0  0  0
 44 46  1  0  0  0
 37 38  1  0  0  0
 38 39  2  0  0  0
  9  5  1  0  0  0
 31 26  1  0  0  0
 24 19  1  0  0  0
 56 59  1  0  0  0
 56 60  1  0  0  0
 58 61  1  0  0  0
 54 55  1  0  0  0
  1  4  1  0  0  0
 13 16  1  0  0  0
 35 36  1  0  0  0
 45 47  1  0  0  0
 45 48  1  0  0  0
 46 49  1  0  0  0
 46 50  1  0  0  0
M  END
> <minimizedAffinity>
-6.68444

> <CNNscore>
0.0610714480

> <CNNaffinity>
7.1320891380

> <CNN_VS>
0.4355670214

> <CNNaffinity_variance>
0.1075524911

$$$$
[H]N=C(N([H])[H])N([H])C([H])([H])C([H])([H])C([H])([H])[C@@]([H])(C(=O)N([H])[C@]([H])(C([H])=O)C([H])([H])C([H])([H])C([H])([H])N=C(N([H])[H])N([H])[H])N([H])C(=O)[C@@]1([H])N(C(=O)[C@@]([H])(N([H])C(=O)OC([H])([H])c2c([H])c([H])c([H])c([H])c2[H])C([H])([H])c2c([H])c([H])c([H])c([H])c2[H])C([H])([H])C([H])([H])C1([H])[H]


 61 63  0  0  0  0  0  0  0  0999 V2000
   11.6522   21.6855    1.8591 N   0  0  0  0  0  0  0  0  0  0  0  0
   10.8007   22.3947    2.6874 C   0  0  0  0  0  0  0  0  0  0  0  0
   10.2141   23.4968    2.3483 O   0  0  0  0  0  0  0  0  0  0  0  0
   11.5269   22.6714    0.9114 H   0  0  0  0  0  0  0  0  0  0  0  0
   10.4639   21.9772    4.0431 C   0  0  0  0  0  0  0  0  0  0  0  0
   11.2744   20.9663    4.7490 C   0  0  0  0  0  0  0  0  0  0  0  0
   10.4455   20.7668    6.0370 C   0  0  0  0  0  0  0  0  0  0  0  0
    9.1056   21.4600    5.7473 C   0  0  0  0  0  0  0  0  0  0  0  0
    9.1230   21.4256    4.2499 N   0  0  0  0  0  0  0  0  0  0  0  0
    8.0994   20.9592    3.4464 C   0  0  0  0  0  0  0  0  0  0  0  0
    8.1688   20.9705    2.1944 O   0  0  0  0  0  0  0  0  0  0  0  0
    6.8222   20.3986    4.0861 C   0  0  0  0  0  0  0  0  0  0  0  0
    5.9264   20.2961    3.0133 N   0  0  0  0  0  0  0  0  0  0  0  0
    4.6305   19.8782    2.7570 C   0  0  0  0  0  0  0  0  0  0  0  0
    3.7825   19.3821    3.5223 O   0  0  0  0  0  0  0  0  0  0  0  0
    6.4221   20.6956    2.0678 H   0  0  0  0  0  0  0  0  0  0  0  0
    4.1193   20.0062    1.4241 O   0  0  0  0  0  0  0  0  0  0  0  0
    3.8808   18.8641    0.6593 C   0  0  0  0  0  0  0  0  0  0  0  0
    5.0588   18.1982    0.1249 C   0  0  0  0  0  0  0  0  0  0  0  0
    5.9578   18.9512   -0.6429 C   0  0  0  0  0  0  0  0  0  0  0  0
    7.0920   18.4131   -1.2046 C   0  0  0  0  0  0  0  0  0  0  0  0
    7.3957   17.0822   -1.0315 C   0  0  0  0  0  0  0  0  0  0  0  0
    6.5307   16.3257   -0.2837 C   0  0  0  0  0  0  0  0  0  0  0  0
    5.3976   16.8850    0.2728 C   0  0  0  0  0  0  0  0  0  0  0  0
    7.2891   19.2576    4.8917 C   0  0  0  0  0  0  0  0  0  0  0  0
    6.3729   18.4783    5.7066 C   0  0  0  0  0  0  0  0  0  0  0  0
    6.4912   17.0651    5.6834 C   0  0  0  0  0  0  0  0  0  0  0  0
    5.6130   16.2485    6.3457 C   0  0  0  0  0  0  0  0  0  0  0  0
    4.5489   16.7663    7.0776 C   0  0  0  0  0  0  0  0  0  0  0  0
    4.4155   18.1078    7.1110 C   0  0  0  0  0  0  0  0  0  0  0  0
    5.3125   18.9453    6.4390 C   0  0  0  0  0  0  0  0  0  0  0  0
   12.4963   20.9831    1.0370 C   0  0  0  0  0  0  0  0  0  0  0  0
   13.7647   21.6931    0.6648 C   0  0  0  0  0  0  0  0  0  0  0  0
   14.9008   21.3502    1.0949 O   0  0  0  0  0  0  0  0  0  0  0  0
   13.6865   22.8142   -0.2203 N   0  0  0  0  0  0  0  0  0  0  0  0
   12.8335   23.1842   -0.6398 H   0  0  0  0  0  0  0  0  0  0  0  0
   14.9564   23.5055   -0.5727 C   0  0  0  0  0  0  0  0  0  0  0  0
   15.2421   24.5203    0.4506 C   0  0  0  0  0  0  0  0  0  0  0  0
   16.3644   24.9261    0.6723 O   0  0  0  0  0  0  0  0  0  0  0  0
   14.8099   24.1300   -1.9281 C   0  0  0  0  0  0  0  0  0  0  0  0
   14.8942   23.3057   -3.1248 C   0  0  0  0  0  0  0  0  0  0  0  0
   15.3696   23.8552   -4.4222 C   0  0  0  0  0  0  0  0  0  0  0  0
   15.3742   25.2606   -4.5213 N   0  0  0  0  0  0  0  0  0  0  0  0
   15.3924   26.1193   -5.4205 C   0  0  0  0  0  0  0  0  0  0  0  0
   15.4122   25.8053   -6.7973 N   0  0  0  0  0  0  0  0  0  0  0  0
   15.3807   27.4932   -5.0423 N   0  0  0  0  0  0  0  0  0  0  0  0
   14.5299   25.8017   -7.3378 H   0  0  0  0  0  0  0  0  0  0  0  0
   16.3063   25.5797   -7.2708 H   0  0  0  0  0  0  0  0  0  0  0  0
   14.4928   27.9295   -4.7517 H   0  0  0  0  0  0  0  0  0  0  0  0
   16.2496   28.0256   -5.0637 H   0  0  0  0  0  0  0  0  0  0  0  0
   11.8450   20.4599   -0.2553 C   0  0  0  0  0  0  0  0  0  0  0  0
   10.3597   20.4107   -0.1798 C   0  0  0  0  0  0  0  0  0  0  0  0
    9.7382   21.0538   -1.3901 C   0  0  0  0  0  0  0  0  0  0  0  0
   10.5072   22.2131   -1.7681 N   0  0  0  0  0  0  0  0  0  0  0  0
   11.1708   22.1456   -2.5572 H   0  0  0  0  0  0  0  0  0  0  0  0
    9.1304   23.5568   -0.2899 N   0  0  0  0  0  0  0  0  0  0  0  0
   10.3405   23.4421   -1.0418 C   0  0  0  0  0  0  0  0  0  0  0  0
   11.2278   24.3362   -1.0927 N   0  0  0  0  0  0  0  0  0  0  0  0
    8.2519   23.5731   -0.8826 H   0  0  0  0  0  0  0  0  0  0  0  0
    9.0960   23.6185    0.7466 H   0  0  0  0  0  0  0  0  0  0  0  0
   12.0791   24.1696   -1.6665 H   0  0  0  0  0  0  0  0  0  0  0  0
 56 57  1  0  0  0
 57 58  2  0  0  0
 57 54  1  0  0  0
 54 53  1  0  0  0
 53 52  1  0  0  0
 52 51  1  0  0  0
 51 32  1  0  0  0
 32  1  1  0  0  0
  1  2  1  0  0  0
  2  3  2  0  0  0
  2  5  1  0  0  0
  5  6  1  0  0  0
  6  7  1  0  0  0
  7  8  1  0  0  0
  8  9  1  0  0  0
  9 10  1  0  0  0
 10 11  2  0  0  0
 10 12  1  0  0  0
 12 25  1  0  0  0
 25 26  1  0  0  0
 26 27  2  0  0  0
 27 28  1  0  0  0
 28 29  2  0  0  0
 29 30  1  0  0  0
 30 31  2  0  0  0
 12 13  1  0  0  0
 13 14  1  0  0  0
 14 15  2  0  0  0
 14 17  1  0  0  0
 17 18  1  0  0  0
 18 19  1  0  0  0
 19 20  2  0  0  0
 20 21  1  0  0  0
 21 22  2  0  0  0
 22 23  1  0  0  0
 23 24  2  0  0  0
 32 33  1  0  0  0
 33 34  2  0  0  0
 33 35  1  0  0  0
 35 37  1  0  0  0
 37 40  1  0  0  0
 40 41  1  0  0  0
 41 42  1  0  0  0
 42 43  1  0  0  0
 43 44  2  0  0  0
 44 45  1  0  0  0
 44 46  1  0  0  0
 37 38  1  0  0  0
 38 39  2  0  0  0
  9  5  1  0  0  0
 31 26  1  0  0  0
 24 19  1  0  0  0
 56 59  1  0  0  0
 56 60  1  0  0  0
 58 61  1  0  0  0
 54 55  1  0  0  0
  1  4  1  0  0  0
 13 16  1  0  0  0
 35 36  1  0  0  0
 45 47  1  0  0  0
 45 48  1  0  0  0
 46 49  1  0  0  0
 46 50  1  0  0  0
M  END
> <minimizedAffinity>
-7.12411

> <CNNscore>
0.0547912158

> <CNNaffinity>
7.0906600952

> <CNN_VS>
0.3885058761

> <CNNaffinity_variance>
0.6137295961

$$$$
[H]N=C(N([H])[H])N([H])C([H])([H])C([H])([H])C([H])([H])[C@@]([H])(C(=O)N([H])[C@]([H])(C([H])=O)C([H])([H])C([H])([H])C([H])([H])N=C(N([H])[H])N([H])[H])N([H])C(=O)[C@@]1([H])N(C(=O)[C@@]([H])(N([H])C(=O)OC([H])([H])c2c([H])c([H])c([H])c([H])c2[H])C([H])([H])c2c([H])c([H])c([H])c([H])c2[H])C([H])([H])C([H])([H])C1([H])[H]


 61 63  0  0  0  0  0  0  0  0999 V2000
   11.1102   21.6395    1.3895 N   0  0  0  0  0  0  0  0  0  0  0  0
   10.4915   22.4396    2.3335 C   0  0  0  0  0  0  0  0  0  0  0  0
    9.7998   23.4943    2.0458 O   0  0  0  0  0  0  0  0  0  0  0  0
   10.7017   22.5083    0.4075 H   0  0  0  0  0  0  0  0  0  0  0  0
   10.5471   22.1825    3.7675 C   0  0  0  0  0  0  0  0  0  0  0  0
   11.5802   21.2981    4.3402 C   0  0  0  0  0  0  0  0  0  0  0  0
   11.1292   21.2306    5.8160 C   0  0  0  0  0  0  0  0  0  0  0  0
    9.7158   21.8323    5.8176 C   0  0  0  0  0  0  0  0  0  0  0  0
    9.3467   21.6120    4.3828 N   0  0  0  0  0  0  0  0  0  0  0  0
    8.1841   21.0116    3.9367 C   0  0  0  0  0  0  0  0  0  0  0  0
    7.9257   20.8690    2.7181 O   0  0  0  0  0  0  0  0  0  0  0  0
    7.1579   20.4885    4.9508 C   0  0  0  0  0  0  0  0  0  0  0  0
    6.0917   20.0504    4.1538 N   0  0  0  0  0  0  0  0  0  0  0  0
    4.7208   20.2168    4.0410 C   0  0  0  0  0  0  0  0  0  0  0  0
    3.9352   20.8870    4.7369 O   0  0  0  0  0  0  0  0  0  0  0  0
    6.4875   19.3540    3.3428 H   0  0  0  0  0  0  0  0  0  0  0  0
    4.0326   19.5409    2.9808 O   0  0  0  0  0  0  0  0  0  0  0  0
    4.2669   18.1843    2.7551 C   0  0  0  0  0  0  0  0  0  0  0  0
    4.6125   17.8163    1.3906 C   0  0  0  0  0  0  0  0  0  0  0  0
    5.6376   16.8809    1.1933 C   0  0  0  0  0  0  0  0  0  0  0  0
    6.0494   16.4776   -0.0554 C   0  0  0  0  0  0  0  0  0  0  0  0
    5.4577   16.9894   -1.1873 C   0  0  0  0  0  0  0  0  0  0  0  0
    4.4522   17.9061   -1.0189 C   0  0  0  0  0  0  0  0  0  0  0  0
    4.0524   18.2973    0.2435 C   0  0  0  0  0  0  0  0  0  0  0  0
    7.9405   19.6183    5.8447 C   0  0  0  0  0  0  0  0  0  0  0  0
    7.4082   18.3582    6.3343 C   0  0  0  0  0  0  0  0  0  0  0  0
    8.2454   17.2142    6.2898 C   0  0  0  0  0  0  0  0  0  0  0  0
    7.7979   15.9684    6.6425 C   0  0  0  0  0  0  0  0  0  0  0  0
    6.4879   15.7580    7.0621 C   0  0  0  0  0  0  0  0  0  0  0  0
    5.6733   16.8316    7.1093 C   0  0  0  0  0  0  0  0  0  0  0  0
    6.1277   18.1061    6.7535 C   0  0  0  0  0  0  0  0  0  0  0  0
   11.7232   20.8468    0.4526 C   0  0  0  0  0  0  0  0  0  0  0  0
   13.0402   21.3568   -0.0542 C   0  0  0  0  0  0  0  0  0  0  0  0
   14.0726   20.6360   -0.1439 O   0  0  0  0  0  0  0  0  0  0  0  0
   13.1344   22.7265   -0.4561 N   0  0  0  0  0  0  0  0  0  0  0  0
   12.3744   23.4066   -0.4384 H   0  0  0  0  0  0  0  0  0  0  0  0
   14.4511   23.2116   -0.9517 C   0  0  0  0  0  0  0  0  0  0  0  0
   15.0953   23.9979    0.1090 C   0  0  0  0  0  0  0  0  0  0  0  0
   14.4877   24.4143    1.0738 O   0  0  0  0  0  0  0  0  0  0  0  0
   14.2320   24.0400   -2.1823 C   0  0  0  0  0  0  0  0  0  0  0  0
   13.0603   24.8975   -2.2862 C   0  0  0  0  0  0  0  0  0  0  0  0
   13.1080   26.2063   -2.9903 C   0  0  0  0  0  0  0  0  0  0  0  0
   13.7149   26.1904   -4.2616 N   0  0  0  0  0  0  0  0  0  0  0  0
   14.8070   26.5089   -4.7637 C   0  0  0  0  0  0  0  0  0  0  0  0
   15.8762   27.0557   -4.0205 N   0  0  0  0  0  0  0  0  0  0  0  0
   14.9942   26.3004   -6.1610 N   0  0  0  0  0  0  0  0  0  0  0  0
   16.6376   26.4410   -3.6844 H   0  0  0  0  0  0  0  0  0  0  0  0
   15.9040   28.0705   -3.8108 H   0  0  0  0  0  0  0  0  0  0  0  0
   15.2011   25.3512   -6.5067 H   0  0  0  0  0  0  0  0  0  0  0  0
   14.9206   27.0916   -6.7994 H   0  0  0  0  0  0  0  0  0  0  0  0
   10.8474   20.4956   -0.7629 C   0  0  0  0  0  0  0  0  0  0  0  0
    9.6133   19.7500   -0.3949 C   0  0  0  0  0  0  0  0  0  0  0  0
    8.4352   20.2300   -1.1989 C   0  0  0  0  0  0  0  0  0  0  0  0
    7.2595   20.2526   -0.3648 N   0  0  0  0  0  0  0  0  0  0  0  0
    6.8890   19.3650    0.0127 H   0  0  0  0  0  0  0  0  0  0  0  0
    7.5006   22.5959    0.2158 N   0  0  0  0  0  0  0  0  0  0  0  0
    6.6212   21.5069   -0.0732 C   0  0  0  0  0  0  0  0  0  0  0  0
    5.3638   21.5973   -0.0810 N   0  0  0  0  0  0  0  0  0  0  0  0
    8.0704   22.4697    1.1005 H   0  0  0  0  0  0  0  0  0  0  0  0
    7.5877   23.4436   -0.3784 H   0  0  0  0  0  0  0  0  0  0  0  0
    4.7988   20.7525   -0.3017 H   0  0  0  0  0  0  0  0  0  0  0  0
 56 57  1  0  0  0
 57 58  2  0  0  0
 57 54  1  0  0  0
 54 53  1  0  0  0
 53 52  1  0  0  0
 52 51  1  0  0  0
 51 32  1  0  0  0
 32  1  1  0  0  0
  1  2  1  0  0  0
  2  3  2  0  0  0
  2  5  1  0  0  0
  5  6  1  0  0  0
  6  7  1  0  0  0
  7  8  1  0  0  0
  8  9  1  0  0  0
  9 10  1  0  0  0
 10 11  2  0  0  0
 10 12  1  0  0  0
 12 25  1  0  0  0
 25 26  1  0  0  0
 26 27  2  0  0  0
 27 28  1  0  0  0
 28 29  2  0  0  0
 29 30  1  0  0  0
 30 31  2  0  0  0
 12 13  1  0  0  0
 13 14  1  0  0  0
 14 15  2  0  0  0
 14 17  1  0  0  0
 17 18  1  0  0  0
 18 19  1  0  0  0
 19 20  2  0  0  0
 20 21  1  0  0  0
 21 22  2  0  0  0
 22 23  1  0  0  0
 23 24  2  0  0  0
 32 33  1  0  0  0
 33 34  2  0  0  0
 33 35  1  0  0  0
 35 37  1  0  0  0
 37 40  1  0  0  0
 40 41  1  0  0  0
 41 42  1  0  0  0
 42 43  1  0  0  0
 43 44  2  0  0  0
 44 45  1  0  0  0
 44 46  1  0  0  0
 37 38  1  0  0  0
 38 39  2  0  0  0
  9  5  1  0  0  0
 31 26  1  0  0  0
 24 19  1  0  0  0
 56 59  1  0  0  0
 56 60  1  0  0  0
 58 61  1  0  0  0
 54 55  1  0  0  0
  1  4  1  0  0  0
 13 16  1  0  0  0
 35 36  1  0  0  0
 45 47  1  0  0  0
 45 48  1  0  0  0
 46 49  1  0  0  0
 46 50  1  0  0  0
M  END
> <minimizedAffinity>
-6.99238

> <CNNscore>
0.0521536469

> <CNNaffinity>
7.1599173546

> <CNN_VS>
0.3734157979

> <CNNaffinity_variance>
0.3325294852

$$$$
[H]c1nc(N([H])c2c([H])c([H])c(N3C([H])([H])C([H])([H])C([H])(N(C([H])([H])[H])C([H])([H])[H])C([H])([H])C3([H])[H])c([H])c2OC([H])([H])[H])nc(N([H])c2c([H])c([H])c([H])c([H])c2S(=O)(=O)C([H])(C([H])([H])[H])C([H])([H])[H])c1Cl


 40 43  0  0  0  0  0  0  0  0999 V2000
   13.6098   24.0723   -0.0769 C   0  0  0  0  0  0  0  0  0  0  0  0
   14.4032   23.8886    0.9730 N   0  0  0  0  0  0  0  0  0  0  0  0
   15.7343   24.0224    0.9188 C   0  0  0  0  0  0  0  0  0  0  0  0
   16.3553   24.3637   -0.2518 C   0  0  0  0  0  0  0  0  0  0  0  0
   18.0886   24.5612   -0.3774 Cl  0  0  0  0  0  0  0  0  0  0  0  0
   15.5614   24.5718   -1.4031 C   0  0  0  0  0  0  0  0  0  0  0  0
   14.2690   24.4112   -1.2239 N   0  0  0  0  0  0  0  0  0  0  0  0
   12.1943   23.9526   -0.1122 N   0  0  0  0  0  0  0  0  0  0  0  0
   11.7194   24.1400   -1.0670 H   0  0  0  0  0  0  0  0  0  0  0  0
   11.2525   22.2648    1.3124 C   0  0  0  0  0  0  0  0  0  0  0  0
   10.4105   21.9343    2.3283 C   0  0  0  0  0  0  0  0  0  0  0  0
    9.6375   22.8456    2.9977 C   0  0  0  0  0  0  0  0  0  0  0  0
    9.7315   24.1566    2.6080 C   0  0  0  0  0  0  0  0  0  0  0  0
   10.5733   24.5558    1.5774 C   0  0  0  0  0  0  0  0  0  0  0  0
   11.3365   23.6252    0.9232 C   0  0  0  0  0  0  0  0  0  0  0  0
    8.7494   22.4922    4.0723 N   0  0  0  0  0  0  0  0  0  0  0  0
    7.9470   23.5679    4.6012 C   0  0  0  0  0  0  0  0  0  0  0  0
    6.9028   23.1727    5.5800 C   0  0  0  0  0  0  0  0  0  0  0  0
    6.5969   21.7070    5.5525 C   0  0  0  0  0  0  0  0  0  0  0  0
    7.8877   20.9465    5.7764 C   0  0  0  0  0  0  0  0  0  0  0  0
    8.7190   21.1433    4.5344 C   0  0  0  0  0  0  0  0  0  0  0  0
    5.5800   21.3746    6.5203 N   0  0  0  0  0  0  0  0  0  0  0  0
    4.4157   22.2011    6.4096 C   0  0  0  0  0  0  0  0  0  0  0  0
    5.2720   19.9639    6.5496 C   0  0  0  0  0  0  0  0  0  0  0  0
   11.4954   20.6202   -0.4320 C   0  0  0  0  0  0  0  0  0  0  0  0
   12.0272   21.3363    0.6450 O   0  0  0  0  0  0  0  0  0  0  0  0
   16.1906   24.8843   -2.6281 N   0  0  0  0  0  0  0  0  0  0  0  0
   16.4231   24.0635   -3.2239 H   0  0  0  0  0  0  0  0  0  0  0  0
   16.5403   26.1570   -3.0703 C   0  0  0  0  0  0  0  0  0  0  0  0
   17.6096   26.8862   -2.5494 C   0  0  0  0  0  0  0  0  0  0  0  0
   18.0057   28.0986   -3.0936 C   0  0  0  0  0  0  0  0  0  0  0  0
   17.3561   28.6287   -4.1729 C   0  0  0  0  0  0  0  0  0  0  0  0
   16.3068   27.9144   -4.6834 C   0  0  0  0  0  0  0  0  0  0  0  0
   15.8650   26.6874   -4.1706 C   0  0  0  0  0  0  0  0  0  0  0  0
   14.4604   25.9958   -4.8622 S   0  0  0  0  0  0  0  0  0  0  0  0
   14.4445   26.3754   -6.3613 O   0  0  0  0  0  0  0  0  0  0  0  0
   14.4496   24.4873   -4.9058 O   0  0  0  0  0  0  0  0  0  0  0  0
   12.9218   26.5934   -4.2418 C   0  0  0  0  0  0  0  0  0  0  0  0
   12.5552   25.8821   -2.9355 C   0  0  0  0  0  0  0  0  0  0  0  0
   12.8484   28.0405   -3.9813 C   0  0  0  0  0  0  0  0  0  0  0  0
 25 26  1  0  0  0
 26 10  1  0  0  0
 10 11  2  0  0  0
 11 12  1  0  0  0
 12 13  2  0  0  0
 13 14  1  0  0  0
 14 15  2  0  0  0
 15  8  1  0  0  0
  8  1  1  0  0  0
  1  2  2  0  0  0
  2  3  1  0  0  0
  3  4  2  0  0  0
  4  5  1  0  0  0
  4  6  1  0  0  0
  6 27  1  0  0  0
 27 29  1  0  0  0
 29 30  2  0  0  0
 30 31  1  0  0  0
 31 32  2  0  0  0
 32 33  1  0  0  0
 33 34  2  0  0  0
 34 35  1  0  0  0
 35 36  2  0  0  0
 35 37  2  0  0  0
 35 38  1  0  0  0
 38 39  1  0  0  0
 38 40  1  0  0  0
  6  7  2  0  0  0
 12 16  1  0  0  0
 16 17  1  0  0  0
 17 18  1  0  0  0
 18 19  1  0  0  0
 19 20  1  0  0  0
 20 21  1  0  0  0
 19 22  1  0  0  0
 22 23  1  0  0  0
 22 24  1  0  0  0
 15 10  1  0  0  0
  7  1  1  0  0  0
 21 16  1  0  0  0
 34 29  1  0  0  0
  8  9  1  0  0  0
 27 28  1  0  0  0
M  END
> <minimizedAffinity>
-4.07161

> <CNNscore>
0.6232036948

> <CNNaffinity>
7.9065322876

> <CNN_VS>
4.9273800850

> <CNNaffinity_variance>
0.3514751792

$$$$
[H]c1nc(N([H])c2c([H])c([H])c(N3C([H])([H])C([H])([H])C([H])(N(C([H])([H])[H])C([H])([H])[H])C([H])([H])C3([H])[H])c([H])c2OC([H])([H])[H])nc(N([H])c2c([H])c([H])c([H])c([H])c2S(=O)(=O)C([H])(C([H])([H])[H])C([H])([H])[H])c1Cl


 40 43  0  0  0  0  0  0  0  0999 V2000
   14.7217   22.6463    0.4250 C   0  0  0  0  0  0  0  0  0  0  0  0
   15.7163   23.2397    1.0761 N   0  0  0  0  0  0  0  0  0  0  0  0
   16.4686   24.2090    0.5403 C   0  0  0  0  0  0  0  0  0  0  0  0
   16.2415   24.6447   -0.7368 C   0  0  0  0  0  0  0  0  0  0  0  0
   17.1865   25.9132   -1.4829 Cl  0  0  0  0  0  0  0  0  0  0  0  0
   15.1954   24.0492   -1.4787 C   0  0  0  0  0  0  0  0  0  0  0  0
   14.5288   23.1100   -0.8449 N   0  0  0  0  0  0  0  0  0  0  0  0
   13.8748   21.6140    0.9115 N   0  0  0  0  0  0  0  0  0  0  0  0
   14.2878   20.9768    1.6832 H   0  0  0  0  0  0  0  0  0  0  0  0
   11.5946   22.3234    0.6620 C   0  0  0  0  0  0  0  0  0  0  0  0
   10.3195   22.0366    0.2850 C   0  0  0  0  0  0  0  0  0  0  0  0
    9.9346   20.8238   -0.2220 C   0  0  0  0  0  0  0  0  0  0  0  0
   10.9013   19.8599   -0.3485 C   0  0  0  0  0  0  0  0  0  0  0  0
   12.2205   20.0929    0.0194 C   0  0  0  0  0  0  0  0  0  0  0  0
   12.5805   21.3145    0.5241 C   0  0  0  0  0  0  0  0  0  0  0  0
    8.5856   20.5249   -0.6208 N   0  0  0  0  0  0  0  0  0  0  0  0
    8.4184   20.0847   -1.9842 C   0  0  0  0  0  0  0  0  0  0  0  0
    7.0612   19.6020   -2.3444 C   0  0  0  0  0  0  0  0  0  0  0  0
    6.2157   19.2823   -1.1504 C   0  0  0  0  0  0  0  0  0  0  0  0
    6.1544   20.5112   -0.2670 C   0  0  0  0  0  0  0  0  0  0  0  0
    7.5302   20.6785    0.3261 C   0  0  0  0  0  0  0  0  0  0  0  0
    4.9096   18.8203   -1.5527 N   0  0  0  0  0  0  0  0  0  0  0  0
    3.9378   18.9194   -0.5055 C   0  0  0  0  0  0  0  0  0  0  0  0
    4.4644   19.4066   -2.7953 C   0  0  0  0  0  0  0  0  0  0  0  0
   11.1061   24.6462    1.0778 C   0  0  0  0  0  0  0  0  0  0  0  0
   11.9703   23.5508    1.1720 O   0  0  0  0  0  0  0  0  0  0  0  0
   14.9748   24.4591   -2.8120 N   0  0  0  0  0  0  0  0  0  0  0  0
   15.6465   24.0731   -3.5065 H   0  0  0  0  0  0  0  0  0  0  0  0
   13.9836   25.3335   -3.2487 C   0  0  0  0  0  0  0  0  0  0  0  0
   12.7592   25.4953   -2.5997 C   0  0  0  0  0  0  0  0  0  0  0  0
   11.8436   26.4610   -2.9899 C   0  0  0  0  0  0  0  0  0  0  0  0
   12.1110   27.2993   -4.0356 C   0  0  0  0  0  0  0  0  0  0  0  0
   13.3112   27.1403   -4.6728 C   0  0  0  0  0  0  0  0  0  0  0  0
   14.2694   26.1804   -4.3206 C   0  0  0  0  0  0  0  0  0  0  0  0
   15.6618   26.0472   -5.3071 S   0  0  0  0  0  0  0  0  0  0  0  0
   16.5319   24.9052   -4.7323 O   0  0  0  0  0  0  0  0  0  0  0  0
   15.3992   25.5810   -6.7182 O   0  0  0  0  0  0  0  0  0  0  0  0
   16.7317   27.4487   -5.3230 C   0  0  0  0  0  0  0  0  0  0  0  0
   16.0088   28.6715   -5.8966 C   0  0  0  0  0  0  0  0  0  0  0  0
   17.2919   27.8487   -4.0217 C   0  0  0  0  0  0  0  0  0  0  0  0
 25 26  1  0  0  0
 26 10  1  0  0  0
 10 11  2  0  0  0
 11 12  1  0  0  0
 12 13  2  0  0  0
 13 14  1  0  0  0
 14 15  2  0  0  0
 15  8  1  0  0  0
  8  1  1  0  0  0
  1  2  2  0  0  0
  2  3  1  0  0  0
  3  4  2  0  0  0
  4  5  1  0  0  0
  4  6  1  0  0  0
  6 27  1  0  0  0
 27 29  1  0  0  0
 29 30  2  0  0  0
 30 31  1  0  0  0
 31 32  2  0  0  0
 32 33  1  0  0  0
 33 34  2  0  0  0
 34 35  1  0  0  0
 35 36  2  0  0  0
 35 37  2  0  0  0
 35 38  1  0  0  0
 38 39  1  0  0  0
 38 40  1  0  0  0
  6  7  2  0  0  0
 12 16  1  0  0  0
 16 17  1  0  0  0
 17 18  1  0  0  0
 18 19  1  0  0  0
 19 20  1  0  0  0
 20 21  1  0  0  0
 19 22  1  0  0  0
 22 23  1  0  0  0
 22 24  1  0  0  0
 15 10  1  0  0  0
  7  1  1  0  0  0
 21 16  1  0  0  0
 34 29  1  0  0  0
  8  9  1  0  0  0
 27 28  1  0  0  0
M  END
> <minimizedAffinity>
-4.50621

> <CNNscore>
0.6222771406

> <CNNaffinity>
8.3952951431

> <CNN_VS>
5.2242002487

> <CNNaffinity_variance>
0.2178415358

$$$$
[H]c1nc(N([H])c2c([H])c([H])c(N3C([H])([H])C([H])([H])C([H])(N(C([H])([H])[H])C([H])([H])[H])C([H])([H])C3([H])[H])c([H])c2OC([H])([H])[H])nc(N([H])c2c([H])c([H])c([H])c([H])c2S(=O)(=O)C([H])(C([H])([H])[H])C([H])([H])[H])c1Cl


 40 43  0  0  0  0  0  0  0  0999 V2000
   14.0504   24.5816    0.4506 C   0  0  0  0  0  0  0  0  0  0  0  0
   14.9773   24.1762    1.3120 N   0  0  0  0  0  0  0  0  0  0  0  0
   16.2706   24.0467    0.9908 C   0  0  0  0  0  0  0  0  0  0  0  0
   16.7089   24.3337   -0.2733 C   0  0  0  0  0  0  0  0  0  0  0  0
   18.3871   24.1915   -0.7449 Cl  0  0  0  0  0  0  0  0  0  0  0  0
   15.7668   24.7697   -1.2333 C   0  0  0  0  0  0  0  0  0  0  0  0
   14.5293   24.8571   -0.7982 N   0  0  0  0  0  0  0  0  0  0  0  0
   12.6616   24.7474    0.7018 N   0  0  0  0  0  0  0  0  0  0  0  0
   12.3629   25.6856    1.1521 H   0  0  0  0  0  0  0  0  0  0  0  0
   11.7902   22.5166    0.8721 C   0  0  0  0  0  0  0  0  0  0  0  0
   10.7841   21.6362    0.6212 C   0  0  0  0  0  0  0  0  0  0  0  0
    9.6243   21.9756   -0.0236 C   0  0  0  0  0  0  0  0  0  0  0  0
    9.4891   23.2778   -0.4305 C   0  0  0  0  0  0  0  0  0  0  0  0
   10.4817   24.2230   -0.2033 C   0  0  0  0  0  0  0  0  0  0  0  0
   11.6327   23.8587    0.4440 C   0  0  0  0  0  0  0  0  0  0  0  0
    8.5623   21.0420   -0.2858 N   0  0  0  0  0  0  0  0  0  0  0  0
    7.3819   21.1909    0.5297 C   0  0  0  0  0  0  0  0  0  0  0  0
    6.2193   20.3530    0.1408 C   0  0  0  0  0  0  0  0  0  0  0  0
    6.3310   19.8017   -1.2470 C   0  0  0  0  0  0  0  0  0  0  0  0
    7.6321   19.0331   -1.3512 C   0  0  0  0  0  0  0  0  0  0  0  0
    8.7370   20.0575   -1.3028 C   0  0  0  0  0  0  0  0  0  0  0  0
    5.1805   18.9956   -1.5754 N   0  0  0  0  0  0  0  0  0  0  0  0
    4.2558   18.8773   -0.4882 C   0  0  0  0  0  0  0  0  0  0  0  0
    4.5511   19.3926   -2.8131 C   0  0  0  0  0  0  0  0  0  0  0  0
   13.5434   20.9159    1.2850 C   0  0  0  0  0  0  0  0  0  0  0  0
   12.9553   22.1620    1.5237 O   0  0  0  0  0  0  0  0  0  0  0  0
   16.1964   25.0305   -2.5530 N   0  0  0  0  0  0  0  0  0  0  0  0
   16.2742   24.1911   -3.1630 H   0  0  0  0  0  0  0  0  0  0  0  0
   16.5421   26.2745   -3.0731 C   0  0  0  0  0  0  0  0  0  0  0  0
   17.5981   27.0457   -2.5869 C   0  0  0  0  0  0  0  0  0  0  0  0
   17.9923   28.2233   -3.2044 C   0  0  0  0  0  0  0  0  0  0  0  0
   17.3537   28.6756   -4.3249 C   0  0  0  0  0  0  0  0  0  0  0  0
   16.3174   27.9200   -4.8014 C   0  0  0  0  0  0  0  0  0  0  0  0
   15.8782   26.7254   -4.2150 C   0  0  0  0  0  0  0  0  0  0  0  0
   14.4890   25.9775   -4.8785 S   0  0  0  0  0  0  0  0  0  0  0  0
   14.3973   26.4000   -6.3634 O   0  0  0  0  0  0  0  0  0  0  0  0
   14.5591   24.4727   -4.9695 O   0  0  0  0  0  0  0  0  0  0  0  0
   12.9439   26.4697   -4.1860 C   0  0  0  0  0  0  0  0  0  0  0  0
   12.7277   25.8032   -2.8238 C   0  0  0  0  0  0  0  0  0  0  0  0
   12.7535   27.9169   -3.9942 C   0  0  0  0  0  0  0  0  0  0  0  0
 25 26  1  0  0  0
 26 10  1  0  0  0
 10 11  2  0  0  0
 11 12  1  0  0  0
 12 13  2  0  0  0
 13 14  1  0  0  0
 14 15  2  0  0  0
 15  8  1  0  0  0
  8  1  1  0  0  0
  1  2  2  0  0  0
  2  3  1  0  0  0
  3  4  2  0  0  0
  4  5  1  0  0  0
  4  6  1  0  0  0
  6 27  1  0  0  0
 27 29  1  0  0  0
 29 30  2  0  0  0
 30 31  1  0  0  0
 31 32  2  0  0  0
 32 33  1  0  0  0
 33 34  2  0  0  0
 34 35  1  0  0  0
 35 36  2  0  0  0
 35 37  2  0  0  0
 35 38  1  0  0  0
 38 39  1  0  0  0
 38 40  1  0  0  0
  6  7  2  0  0  0
 12 16  1  0  0  0
 16 17  1  0  0  0
 17 18  1  0  0  0
 18 19  1  0  0  0
 19 20  1  0  0  0
 20 21  1  0  0  0
 19 22  1  0  0  0
 22 23  1  0  0  0
 22 24  1  0  0  0
 15 10  1  0  0  0
  7  1  1  0  0  0
 21 16  1  0  0  0
 34 29  1  0  0  0
  8  9  1  0  0  0
 27 28  1  0  0  0
M  END
> <minimizedAffinity>
-3.81433

> <CNNscore>
0.5900472403

> <CNNaffinity>
8.2659893036

> <CNN_VS>
4.8773241043

> <CNNaffinity_variance>
0.3183690608

$$$$
[H]c1nc(N([H])c2c([H])c([H])c(N3C([H])([H])C([H])([H])C([H])(N(C([H])([H])[H])C([H])([H])[H])C([H])([H])C3([H])[H])c([H])c2OC([H])([H])[H])nc(N([H])c2c([H])c([H])c([H])c([H])c2S(=O)(=O)C([H])(C([H])([H])[H])C([H])([H])[H])c1Cl


 40 43  0  0  0  0  0  0  0  0999 V2000
   14.4673   21.9933    0.6012 C   0  0  0  0  0  0  0  0  0  0  0  0
   15.5036   22.4732    1.2802 N   0  0  0  0  0  0  0  0  0  0  0  0
   16.3199   23.4199    0.8005 C   0  0  0  0  0  0  0  0  0  0  0  0
   16.1189   23.9508   -0.4446 C   0  0  0  0  0  0  0  0  0  0  0  0
   17.1476   25.1953   -1.1168 Cl  0  0  0  0  0  0  0  0  0  0  0  0
   15.0307   23.4782   -1.2139 C   0  0  0  0  0  0  0  0  0  0  0  0
   14.3024   22.5493   -0.6352 N   0  0  0  0  0  0  0  0  0  0  0  0
   13.5520   20.9937    1.0284 N   0  0  0  0  0  0  0  0  0  0  0  0
   13.9412   20.2424    1.7039 H   0  0  0  0  0  0  0  0  0  0  0  0
   11.2494   21.0617    1.7050 C   0  0  0  0  0  0  0  0  0  0  0  0
    9.9352   20.9248    1.3817 C   0  0  0  0  0  0  0  0  0  0  0  0
    9.4945   20.5966    0.1270 C   0  0  0  0  0  0  0  0  0  0  0  0
   10.4445   20.3995   -0.8416 C   0  0  0  0  0  0  0  0  0  0  0  0
   11.8017   20.5248   -0.5725 C   0  0  0  0  0  0  0  0  0  0  0  0
   12.2174   20.8540    0.6906 C   0  0  0  0  0  0  0  0  0  0  0  0
    8.1039   20.4541   -0.2112 N   0  0  0  0  0  0  0  0  0  0  0  0
    7.2365   21.5120    0.2460 C   0  0  0  0  0  0  0  0  0  0  0  0
    5.8396   21.4628   -0.2552 C   0  0  0  0  0  0  0  0  0  0  0  0
    5.6742   20.5695   -1.4457 C   0  0  0  0  0  0  0  0  0  0  0  0
    6.1851   19.1907   -1.0816 C   0  0  0  0  0  0  0  0  0  0  0  0
    7.6822   19.3114   -0.9530 C   0  0  0  0  0  0  0  0  0  0  0  0
    4.3024   20.5548   -1.8922 N   0  0  0  0  0  0  0  0  0  0  0  0
    3.9541   21.7147   -2.6565 C   0  0  0  0  0  0  0  0  0  0  0  0
    3.9363   19.3179   -2.5418 C   0  0  0  0  0  0  0  0  0  0  0  0
   11.3545   20.5793    4.0636 C   0  0  0  0  0  0  0  0  0  0  0  0
   11.6813   21.3931    2.9744 O   0  0  0  0  0  0  0  0  0  0  0  0
   14.8341   23.9866   -2.5166 N   0  0  0  0  0  0  0  0  0  0  0  0
   15.4668   23.5913   -3.2420 H   0  0  0  0  0  0  0  0  0  0  0  0
   13.9143   24.9638   -2.8864 C   0  0  0  0  0  0  0  0  0  0  0  0
   12.7757   25.2708   -2.1409 C   0  0  0  0  0  0  0  0  0  0  0  0
   11.9450   26.3306   -2.4724 C   0  0  0  0  0  0  0  0  0  0  0  0
   12.2152   27.1222   -3.5532 C   0  0  0  0  0  0  0  0  0  0  0  0
   13.3312   26.8208   -4.2851 C   0  0  0  0  0  0  0  0  0  0  0  0
   14.2015   25.7615   -3.9951 C   0  0  0  0  0  0  0  0  0  0  0  0
   15.4808   25.4603   -5.0915 S   0  0  0  0  0  0  0  0  0  0  0  0
   16.7760   26.0234   -4.4614 O   0  0  0  0  0  0  0  0  0  0  0  0
   15.8191   24.0029   -5.2891 O   0  0  0  0  0  0  0  0  0  0  0  0
   15.3642   26.2707   -6.6531 C   0  0  0  0  0  0  0  0  0  0  0  0
   16.0894   27.6195   -6.6153 C   0  0  0  0  0  0  0  0  0  0  0  0
   15.8940   25.5272   -7.8081 C   0  0  0  0  0  0  0  0  0  0  0  0
 25 26  1  0  0  0
 26 10  1  0  0  0
 10 11  2  0  0  0
 11 12  1  0  0  0
 12 13  2  0  0  0
 13 14  1  0  0  0
 14 15  2  0  0  0
 15  8  1  0  0  0
  8  1  1  0  0  0
  1  2  2  0  0  0
  2  3  1  0  0  0
  3  4  2  0  0  0
  4  5  1  0  0  0
  4  6  1  0  0  0
  6 27  1  0  0  0
 27 29  1  0  0  0
 29 30  2  0  0  0
 30 31  1  0  0  0
 31 32  2  0  0  0
 32 33  1  0  0  0
 33 34  2  0  0  0
 34 35  1  0  0  0
 35 36  2  0  0  0
 35 37  2  0  0  0
 35 38  1  0  0  0
 38 39  1  0  0  0
 38 40  1  0  0  0
  6  7  2  0  0  0
 12 16  1  0  0  0
 16 17  1  0  0  0
 17 18  1  0  0  0
 18 19  1  0  0  0
 19 20  1  0  0  0
 20 21  1  0  0  0
 19 22  1  0  0  0
 22 23  1  0  0  0
 22 24  1  0  0  0
 15 10  1  0  0  0
  7  1  1  0  0  0
 21 16  1  0  0  0
 34 29  1  0  0  0
  8  9  1  0  0  0
 27 28  1  0  0  0
M  END
> <minimizedAffinity>
-5.47354

> <CNNscore>
0.5736020803

> <CNNaffinity>
8.2576704025

> <CNN_VS>
4.7366170883

> <CNNaffinity_variance>
0.1210109219

$$$$
[H]c1nc(N([H])c2c([H])c([H])c(N3C([H])([H])C([H])([H])C([H])(N(C([H])([H])[H])C([H])([H])[H])C([H])([H])C3([H])[H])c([H])c2OC([H])([H])[H])nc(N([H])c2c([H])c([H])c([H])c([H])c2S(=O)(=O)C([H])(C([H])([H])[H])C([H])([H])[H])c1Cl


 40 43  0  0  0  0  0  0  0  0999 V2000
   14.1241   23.2629   -0.1166 C   0  0  0  0  0  0  0  0  0  0  0  0
   14.9858   23.2043    0.8931 N   0  0  0  0  0  0  0  0  0  0  0  0
   16.2573   23.6124    0.7969 C   0  0  0  0  0  0  0  0  0  0  0  0
   16.7407   24.1223   -0.3773 C   0  0  0  0  0  0  0  0  0  0  0  0
   18.3892   24.6787   -0.5563 Cl  0  0  0  0  0  0  0  0  0  0  0  0
   15.8689   24.2088   -1.4870 C   0  0  0  0  0  0  0  0  0  0  0  0
   14.6464   23.7774   -1.2688 N   0  0  0  0  0  0  0  0  0  0  0  0
   12.7630   22.8547   -0.1060 N   0  0  0  0  0  0  0  0  0  0  0  0
   12.4524   22.1953   -0.9065 H   0  0  0  0  0  0  0  0  0  0  0  0
   11.4160   22.2351    1.7825 C   0  0  0  0  0  0  0  0  0  0  0  0
   10.4442   22.5593    2.6773 C   0  0  0  0  0  0  0  0  0  0  0  0
    9.7913   23.7634    2.6828 C   0  0  0  0  0  0  0  0  0  0  0  0
   10.1509   24.6779    1.7268 C   0  0  0  0  0  0  0  0  0  0  0  0
   11.1360   24.4051    0.7860 C   0  0  0  0  0  0  0  0  0  0  0  0
   11.7745   23.1932    0.8014 C   0  0  0  0  0  0  0  0  0  0  0  0
    8.7651   24.1029    3.6315 N   0  0  0  0  0  0  0  0  0  0  0  0
    9.0225   23.7173    4.9974 C   0  0  0  0  0  0  0  0  0  0  0  0
    8.0562   24.2253    6.0040 C   0  0  0  0  0  0  0  0  0  0  0  0
    7.2220   25.3606    5.4964 C   0  0  0  0  0  0  0  0  0  0  0  0
    6.5231   24.9096    4.2304 C   0  0  0  0  0  0  0  0  0  0  0  0
    7.5934   24.7772    3.1771 C   0  0  0  0  0  0  0  0  0  0  0  0
    6.3006   25.8158    6.5088 N   0  0  0  0  0  0  0  0  0  0  0  0
    6.0884   27.2316    6.4714 C   0  0  0  0  0  0  0  0  0  0  0  0
    5.0704   25.0595    6.5298 C   0  0  0  0  0  0  0  0  0  0  0  0
   11.9052   20.1370    2.8621 C   0  0  0  0  0  0  0  0  0  0  0  0
   12.0673   21.0171    1.7875 O   0  0  0  0  0  0  0  0  0  0  0  0
   16.3636   24.6945   -2.7173 N   0  0  0  0  0  0  0  0  0  0  0  0
   16.5763   23.9617   -3.4247 H   0  0  0  0  0  0  0  0  0  0  0  0
   16.6104   26.0273   -3.0342 C   0  0  0  0  0  0  0  0  0  0  0  0
   17.6585   26.7675   -2.4866 C   0  0  0  0  0  0  0  0  0  0  0  0
   17.9499   28.0544   -2.9137 C   0  0  0  0  0  0  0  0  0  0  0  0
   17.2131   28.6504   -3.8984 C   0  0  0  0  0  0  0  0  0  0  0  0
   16.1846   27.9251   -4.4350 C   0  0  0  0  0  0  0  0  0  0  0  0
   15.8469   26.6241   -4.0387 C   0  0  0  0  0  0  0  0  0  0  0  0
   14.4533   25.9165   -4.7365 S   0  0  0  0  0  0  0  0  0  0  0  0
   14.2563   26.5546   -6.1314 O   0  0  0  0  0  0  0  0  0  0  0  0
   14.5808   24.4485   -5.0625 O   0  0  0  0  0  0  0  0  0  0  0  0
   12.9328   26.2193   -3.8966 C   0  0  0  0  0  0  0  0  0  0  0  0
   13.1440   26.2072   -2.3795 C   0  0  0  0  0  0  0  0  0  0  0  0
   12.2517   27.4816   -4.2282 C   0  0  0  0  0  0  0  0  0  0  0  0
 25 26  1  0  0  0
 26 10  1  0  0  0
 10 11  2  0  0  0
 11 12  1  0  0  0
 12 13  2  0  0  0
 13 14  1  0  0  0
 14 15  2  0  0  0
 15  8  1  0  0  0
  8  1  1  0  0  0
  1  2  2  0  0  0
  2  3  1  0  0  0
  3  4  2  0  0  0
  4  5  1  0  0  0
  4  6  1  0  0  0
  6 27  1  0  0  0
 27 29  1  0  0  0
 29 30  2  0  0  0
 30 31  1  0  0  0
 31 32  2  0  0  0
 32 33  1  0  0  0
 33 34  2  0  0  0
 34 35  1  0  0  0
 35 36  2  0  0  0
 35 37  2  0  0  0
 35 38  1  0  0  0
 38 39  1  0  0  0
 38 40  1  0  0  0
  6  7  2  0  0  0
 12 16  1  0  0  0
 16 17  1  0  0  0
 17 18  1  0  0  0
 18 19  1  0  0  0
 19 20  1  0  0  0
 20 21  1  0  0  0
 19 22  1  0  0  0
 22 23  1  0  0  0
 22 24  1  0  0  0
 15 10  1  0  0  0
  7  1  1  0  0  0
 21 16  1  0  0  0
 34 29  1  0  0  0
  8  9  1  0  0  0
 27 28  1  0  0  0
M  END
> <minimizedAffinity>
-3.52628

> <CNNscore>
0.5670464635

> <CNNaffinity>
7.8330965042

> <CNN_VS>
4.4417295456

> <CNNaffinity_variance>
0.1368528455

$$$$
[H]c1nc(N([H])c2c([H])c([H])c(N3C([H])([H])C([H])([H])C([H])(N(C([H])([H])[H])C([H])([H])[H])C([H])([H])C3([H])[H])c([H])c2OC([H])([H])[H])nc(N([H])c2c([H])c([H])c([H])c([H])c2S(=O)(=O)C([H])(C([H])([H])[H])C([H])([H])[H])c1Cl


 40 43  0  0  0  0  0  0  0  0999 V2000
   13.3356   23.6663    0.9201 C   0  0  0  0  0  0  0  0  0  0  0  0
   14.5493   23.8902    1.4123 N   0  0  0  0  0  0  0  0  0  0  0  0
   15.5418   24.4345    0.6973 C   0  0  0  0  0  0  0  0  0  0  0  0
   15.3465   24.7948   -0.6082 C   0  0  0  0  0  0  0  0  0  0  0  0
   16.6039   25.5179   -1.5856 Cl  0  0  0  0  0  0  0  0  0  0  0  0
   14.0742   24.5799   -1.1863 C   0  0  0  0  0  0  0  0  0  0  0  0
   13.1832   24.0398   -0.3846 N   0  0  0  0  0  0  0  0  0  0  0  0
   12.2267   23.0961    1.6016 N   0  0  0  0  0  0  0  0  0  0  0  0
   12.2907   23.0641    2.6819 H   0  0  0  0  0  0  0  0  0  0  0  0
   11.1426   21.3101    0.4184 C   0  0  0  0  0  0  0  0  0  0  0  0
   10.0067   20.7882   -0.1179 C   0  0  0  0  0  0  0  0  0  0  0  0
    8.7901   21.4158   -0.0721 C   0  0  0  0  0  0  0  0  0  0  0  0
    8.7348   22.6351    0.5524 C   0  0  0  0  0  0  0  0  0  0  0  0
    9.8607   23.2195    1.1190 C   0  0  0  0  0  0  0  0  0  0  0  0
   11.0662   22.5717    1.0601 C   0  0  0  0  0  0  0  0  0  0  0  0
    7.5911   20.8600   -0.6392 N   0  0  0  0  0  0  0  0  0  0  0  0
    7.7860   19.8371   -1.6373 C   0  0  0  0  0  0  0  0  0  0  0  0
    6.5583   19.1351   -2.0899 C   0  0  0  0  0  0  0  0  0  0  0  0
    5.3980   19.3246   -1.1624 C   0  0  0  0  0  0  0  0  0  0  0  0
    5.1605   20.8111   -0.9937 C   0  0  0  0  0  0  0  0  0  0  0  0
    6.3240   21.3405   -0.1946 C   0  0  0  0  0  0  0  0  0  0  0  0
    4.2321   18.6261   -1.6462 N   0  0  0  0  0  0  0  0  0  0  0  0
    3.9360   18.9207   -3.0160 C   0  0  0  0  0  0  0  0  0  0  0  0
    4.2700   17.2095   -1.3673 C   0  0  0  0  0  0  0  0  0  0  0  0
   13.0244   20.5106   -0.8569 C   0  0  0  0  0  0  0  0  0  0  0  0
   12.3639   20.6671    0.3658 O   0  0  0  0  0  0  0  0  0  0  0  0
   13.8685   24.9085   -2.5442 N   0  0  0  0  0  0  0  0  0  0  0  0
   13.0571   25.5339   -2.7263 H   0  0  0  0  0  0  0  0  0  0  0  0
   14.6207   24.4512   -3.6225 C   0  0  0  0  0  0  0  0  0  0  0  0
   15.1106   23.1487   -3.7222 C   0  0  0  0  0  0  0  0  0  0  0  0
   15.7520   22.6910   -4.8635 C   0  0  0  0  0  0  0  0  0  0  0  0
   15.9286   23.5084   -5.9444 C   0  0  0  0  0  0  0  0  0  0  0  0
   15.4491   24.7861   -5.8466 C   0  0  0  0  0  0  0  0  0  0  0  0
   14.7965   25.2987   -4.7174 C   0  0  0  0  0  0  0  0  0  0  0  0
   14.3719   26.9567   -4.7285 S   0  0  0  0  0  0  0  0  0  0  0  0
   13.7877   27.2783   -6.1238 O   0  0  0  0  0  0  0  0  0  0  0  0
   13.2382   27.3291   -3.8046 O   0  0  0  0  0  0  0  0  0  0  0  0
   15.7052   28.0948   -4.5381 C   0  0  0  0  0  0  0  0  0  0  0  0
   16.8504   27.4550   -3.7470 C   0  0  0  0  0  0  0  0  0  0  0  0
   16.2839   28.6262   -5.7831 C   0  0  0  0  0  0  0  0  0  0  0  0
 25 26  1  0  0  0
 26 10  1  0  0  0
 10 11  2  0  0  0
 11 12  1  0  0  0
 12 13  2  0  0  0
 13 14  1  0  0  0
 14 15  2  0  0  0
 15  8  1  0  0  0
  8  1  1  0  0  0
  1  2  2  0  0  0
  2  3  1  0  0  0
  3  4  2  0  0  0
  4  5  1  0  0  0
  4  6  1  0  0  0
  6 27  1  0  0  0
 27 29  1  0  0  0
 29 30  2  0  0  0
 30 31  1  0  0  0
 31 32  2  0  0  0
 32 33  1  0  0  0
 33 34  2  0  0  0
 34 35  1  0  0  0
 35 36  2  0  0  0
 35 37  2  0  0  0
 35 38  1  0  0  0
 38 39  1  0  0  0
 38 40  1  0  0  0
  6  7  2  0  0  0
 12 16  1  0  0  0
 16 17  1  0  0  0
 17 18  1  0  0  0
 18 19  1  0  0  0
 19 20  1  0  0  0
 20 21  1  0  0  0
 19 22  1  0  0  0
 22 23  1  0  0  0
 22 24  1  0  0  0
 15 10  1  0  0  0
  7  1  1  0  0  0
 21 16  1  0  0  0
 34 29  1  0  0  0
  8  9  1  0  0  0
 27 28  1  0  0  0
M  END
> <minimizedAffinity>
-4.98765

> <CNNscore>
0.5584195256

> <CNNaffinity>
8.2085742950

> <CNN_VS>
4.5838279724

> <CNNaffinity_variance>
0.1029188037

$$$$
[H]c1nc(N([H])c2c([H])c([H])c(N3C([H])([H])C([H])([H])C([H])(N(C([H])([H])[H])C([H])([H])[H])C([H])([H])C3([H])[H])c([H])c2OC([H])([H])[H])nc(N([H])c2c([H])c([H])c([H])c([H])c2S(=O)(=O)C([H])(C([H])([H])[H])C([H])([H])[H])c1Cl


 40 43  0  0  0  0  0  0  0  0999 V2000
   14.8339   21.3602    1.2805 C   0  0  0  0  0  0  0  0  0  0  0  0
   16.0969   21.2246    1.6702 N   0  0  0  0  0  0  0  0  0  0  0  0
   17.0353   22.1545    1.4529 C   0  0  0  0  0  0  0  0  0  0  0  0
   16.7285   23.3183    0.8020 C   0  0  0  0  0  0  0  0  0  0  0  0
   17.9118   24.5704    0.4998 Cl  0  0  0  0  0  0  0  0  0  0  0  0
   15.3992   23.5180    0.3635 C   0  0  0  0  0  0  0  0  0  0  0  0
   14.5703   22.5345    0.6353 N   0  0  0  0  0  0  0  0  0  0  0  0
   13.7754   20.4304    1.4669 N   0  0  0  0  0  0  0  0  0  0  0  0
   14.0186   19.5280    2.0133 H   0  0  0  0  0  0  0  0  0  0  0  0
   12.2074   20.4023   -0.3512 C   0  0  0  0  0  0  0  0  0  0  0  0
   10.9208   20.4992   -0.7821 C   0  0  0  0  0  0  0  0  0  0  0  0
    9.8567   20.7127    0.0534 C   0  0  0  0  0  0  0  0  0  0  0  0
   10.1232   20.8326    1.3929 C   0  0  0  0  0  0  0  0  0  0  0  0
   11.4161   20.7428    1.8934 C   0  0  0  0  0  0  0  0  0  0  0  0
   12.4637   20.5288    1.0372 C   0  0  0  0  0  0  0  0  0  0  0  0
    8.4976   20.8133   -0.4060 N   0  0  0  0  0  0  0  0  0  0  0  0
    8.2056   20.1437   -1.6497 C   0  0  0  0  0  0  0  0  0  0  0  0
    6.7719   20.0899   -2.0322 C   0  0  0  0  0  0  0  0  0  0  0  0
    5.8482   20.3808   -0.8900 C   0  0  0  0  0  0  0  0  0  0  0  0
    6.2199   21.7290   -0.3080 C   0  0  0  0  0  0  0  0  0  0  0  0
    7.5532   21.5467    0.3715 C   0  0  0  0  0  0  0  0  0  0  0  0
    4.4702   20.3179   -1.3128 N   0  0  0  0  0  0  0  0  0  0  0  0
    4.0185   21.5342   -1.9190 C   0  0  0  0  0  0  0  0  0  0  0  0
    4.1792   19.1474   -2.1072 C   0  0  0  0  0  0  0  0  0  0  0  0
   13.6790   21.1899   -2.0892 C   0  0  0  0  0  0  0  0  0  0  0  0
   13.2722   20.1866   -1.2040 O   0  0  0  0  0  0  0  0  0  0  0  0
   15.0759   24.6956   -0.3457 N   0  0  0  0  0  0  0  0  0  0  0  0
   15.7676   25.4675   -0.2531 H   0  0  0  0  0  0  0  0  0  0  0  0
   13.9291   24.9076   -1.1057 C   0  0  0  0  0  0  0  0  0  0  0  0
   12.6375   24.6786   -0.6307 C   0  0  0  0  0  0  0  0  0  0  0  0
   11.5132   25.0142   -1.3700 C   0  0  0  0  0  0  0  0  0  0  0  0
   11.6312   25.5888   -2.6044 C   0  0  0  0  0  0  0  0  0  0  0  0
   12.8977   25.8126   -3.0710 C   0  0  0  0  0  0  0  0  0  0  0  0
   14.0655   25.4909   -2.3663 C   0  0  0  0  0  0  0  0  0  0  0  0
   15.5639   25.7320   -3.1578 S   0  0  0  0  0  0  0  0  0  0  0  0
   16.5515   26.3111   -2.1181 O   0  0  0  0  0  0  0  0  0  0  0  0
   16.2590   24.4683   -3.6020 O   0  0  0  0  0  0  0  0  0  0  0  0
   15.5624   26.9131   -4.4670 C   0  0  0  0  0  0  0  0  0  0  0  0
   16.8139   27.7939   -4.3989 C   0  0  0  0  0  0  0  0  0  0  0  0
   15.4933   26.3650   -5.8316 C   0  0  0  0  0  0  0  0  0  0  0  0
 25 26  1  0  0  0
 26 10  1  0  0  0
 10 11  2  0  0  0
 11 12  1  0  0  0
 12 13  2  0  0  0
 13 14  1  0  0  0
 14 15  2  0  0  0
 15  8  1  0  0  0
  8  1  1  0  0  0
  1  2  2  0  0  0
  2  3  1  0  0  0
  3  4  2  0  0  0
  4  5  1  0  0  0
  4  6  1  0  0  0
  6 27  1  0  0  0
 27 29  1  0  0  0
 29 30  2  0  0  0
 30 31  1  0  0  0
 31 32  2  0  0  0
 32 33  1  0  0  0
 33 34  2  0  0  0
 34 35  1  0  0  0
 35 36  2  0  0  0
 35 37  2  0  0  0
 35 38  1  0  0  0
 38 39  1  0  0  0
 38 40  1  0  0  0
  6  7  2  0  0  0
 12 16  1  0  0  0
 16 17  1  0  0  0
 17 18  1  0  0  0
 18 19  1  0  0  0
 19 20  1  0  0  0
 20 21  1  0  0  0
 19 22  1  0  0  0
 22 23  1  0  0  0
 22 24  1  0  0  0
 15 10  1  0  0  0
  7  1  1  0  0  0
 21 16  1  0  0  0
 34 29  1  0  0  0
  8  9  1  0  0  0
 27 28  1  0  0  0
M  END
> <minimizedAffinity>
-4.90842

> <CNNscore>
0.5446677208

> <CNNaffinity>
8.1507549286

> <CNN_VS>
4.4394531250

> <CNNaffinity_variance>
0.0901518017

$$$$
[H]c1nc(N([H])c2c([H])c([H])c(N3C([H])([H])C([H])([H])C([H])(N(C([H])([H])[H])C([H])([H])[H])C([H])([H])C3([H])[H])c([H])c2OC([H])([H])[H])nc(N([H])c2c([H])c([H])c([H])c([H])c2S(=O)(=O)C([H])(C([H])([H])[H])C([H])([H])[H])c1Cl


 40 43  0  0  0  0  0  0  0  0999 V2000
   15.3477   21.2505    0.7542 C   0  0  0  0  0  0  0  0  0  0  0  0
   16.4701   21.0995    1.4489 N   0  0  0  0  0  0  0  0  0  0  0  0
   17.3220   22.1029    1.6936 C   0  0  0  0  0  0  0  0  0  0  0  0
   17.0689   23.3641    1.2269 C   0  0  0  0  0  0  0  0  0  0  0  0
   18.1414   24.7132    1.5247 Cl  0  0  0  0  0  0  0  0  0  0  0  0
   15.8886   23.5849    0.4804 C   0  0  0  0  0  0  0  0  0  0  0  0
   15.1333   22.5230    0.3071 N   0  0  0  0  0  0  0  0  0  0  0  0
   14.3890   20.2477    0.4467 N   0  0  0  0  0  0  0  0  0  0  0  0
   14.7755   19.2532    0.2625 H   0  0  0  0  0  0  0  0  0  0  0  0
   12.4489   20.5247   -0.9405 C   0  0  0  0  0  0  0  0  0  0  0  0
   11.0988   20.6545   -1.0434 C   0  0  0  0  0  0  0  0  0  0  0  0
   10.2536   20.6505    0.0344 C   0  0  0  0  0  0  0  0  0  0  0  0
   10.8180   20.5070    1.2756 C   0  0  0  0  0  0  0  0  0  0  0  0
   12.1902   20.3704    1.4448 C   0  0  0  0  0  0  0  0  0  0  0  0
   13.0146   20.3774    0.3508 C   0  0  0  0  0  0  0  0  0  0  0  0
    8.8263   20.7866   -0.0786 N   0  0  0  0  0  0  0  0  0  0  0  0
    8.2258   20.1536   -1.2272 C   0  0  0  0  0  0  0  0  0  0  0  0
    6.7412   20.1348   -1.2507 C   0  0  0  0  0  0  0  0  0  0  0  0
    6.1293   20.4133    0.0874 C   0  0  0  0  0  0  0  0  0  0  0  0
    6.6624   21.7396    0.5885 C   0  0  0  0  0  0  0  0  0  0  0  0
    8.1161   21.5168    0.9196 C   0  0  0  0  0  0  0  0  0  0  0  0
    4.6889   20.3853    0.0112 N   0  0  0  0  0  0  0  0  0  0  0  0
    4.0653   20.3162    1.2985 C   0  0  0  0  0  0  0  0  0  0  0  0
    4.1501   21.4338   -0.8232 C   0  0  0  0  0  0  0  0  0  0  0  0
   13.8835   21.7231   -2.4612 C   0  0  0  0  0  0  0  0  0  0  0  0
   13.2909   20.5302   -2.0354 O   0  0  0  0  0  0  0  0  0  0  0  0
   15.6335   24.8715   -0.0430 N   0  0  0  0  0  0  0  0  0  0  0  0
   15.9177   25.6602    0.5734 H   0  0  0  0  0  0  0  0  0  0  0  0
   15.0240   25.1560   -1.2617 C   0  0  0  0  0  0  0  0  0  0  0  0
   15.7288   25.3281   -2.4533 C   0  0  0  0  0  0  0  0  0  0  0  0
   15.0843   25.4901   -3.6705 C   0  0  0  0  0  0  0  0  0  0  0  0
   13.7198   25.4861   -3.7477 C   0  0  0  0  0  0  0  0  0  0  0  0
   13.0283   25.3183   -2.5792 C   0  0  0  0  0  0  0  0  0  0  0  0
   13.6297   25.1529   -1.3243 C   0  0  0  0  0  0  0  0  0  0  0  0
   12.6053   25.0776    0.0448 S   0  0  0  0  0  0  0  0  0  0  0  0
   13.0446   23.8579    0.8881 O   0  0  0  0  0  0  0  0  0  0  0  0
   12.7588   26.2211    1.0176 O   0  0  0  0  0  0  0  0  0  0  0  0
   10.8973   24.7904   -0.2856 C   0  0  0  0  0  0  0  0  0  0  0  0
   10.7311   23.8592   -1.4906 C   0  0  0  0  0  0  0  0  0  0  0  0
   10.1138   24.2124    0.8187 C   0  0  0  0  0  0  0  0  0  0  0  0
 25 26  1  0  0  0
 26 10  1  0  0  0
 10 11  2  0  0  0
 11 12  1  0  0  0
 12 13  2  0  0  0
 13 14  1  0  0  0
 14 15  2  0  0  0
 15  8  1  0  0  0
  8  1  1  0  0  0
  1  2  2  0  0  0
  2  3  1  0  0  0
  3  4  2  0  0  0
  4  5  1  0  0  0
  4  6  1  0  0  0
  6 27  1  0  0  0
 27 29  1  0  0  0
 29 30  2  0  0  0
 30 31  1  0  0  0
 31 32  2  0  0  0
 32 33  1  0  0  0
 33 34  2  0  0  0
 34 35  1  0  0  0
 35 36  2  0  0  0
 35 37  2  0  0  0
 35 38  1  0  0  0
 38 39  1  0  0  0
 38 40  1  0  0  0
  6  7  2  0  0  0
 12 16  1  0  0  0
 16 17  1  0  0  0
 17 18  1  0  0  0
 18 19  1  0  0  0
 19 20  1  0  0  0
 20 21  1  0  0  0
 19 22  1  0  0  0
 22 23  1  0  0  0
 22 24  1  0  0  0
 15 10  1  0  0  0
  7  1  1  0  0  0
 21 16  1  0  0  0
 34 29  1  0  0  0
  8  9  1  0  0  0
 27 28  1  0  0  0
M  END
> <minimizedAffinity>
-2.54172

> <CNNscore>
0.5295650959

> <CNNaffinity>
8.0078134537

> <CNN_VS>
4.2406582832

> <CNNaffinity_variance>
0.0863751918

$$$$
[H]c1nc(N([H])c2c([H])c([H])c(N3C([H])([H])C([H])([H])C([H])(N(C([H])([H])[H])C([H])([H])[H])C([H])([H])C3([H])[H])c([H])c2OC([H])([H])[H])nc(N([H])c2c([H])c([H])c([H])c([H])c2S(=O)(=O)C([H])(C([H])([H])[H])C([H])([H])[H])c1Cl


 40 43  0  0  0  0  0  0  0  0999 V2000
   13.6516   24.5938    0.3583 C   0  0  0  0  0  0  0  0  0  0  0  0
   14.5782   24.1351    1.1928 N   0  0  0  0  0  0  0  0  0  0  0  0
   15.8674   24.0029    0.8565 C   0  0  0  0  0  0  0  0  0  0  0  0
   16.3014   24.3434   -0.3958 C   0  0  0  0  0  0  0  0  0  0  0  0
   17.9743   24.2002   -0.8857 Cl  0  0  0  0  0  0  0  0  0  0  0  0
   15.3594   24.8375   -1.3272 C   0  0  0  0  0  0  0  0  0  0  0  0
   14.1262   24.9215   -0.8796 N   0  0  0  0  0  0  0  0  0  0  0  0
   12.2669   24.7668    0.6270 N   0  0  0  0  0  0  0  0  0  0  0  0
   11.9560   25.7588    0.9295 H   0  0  0  0  0  0  0  0  0  0  0  0
   10.9310   23.2979   -0.7229 C   0  0  0  0  0  0  0  0  0  0  0  0
    9.9373   22.3727   -0.8055 C   0  0  0  0  0  0  0  0  0  0  0  0
    9.2315   21.9211    0.2780 C   0  0  0  0  0  0  0  0  0  0  0  0
    9.5591   22.4417    1.5033 C   0  0  0  0  0  0  0  0  0  0  0  0
   10.5643   23.3893    1.6514 C   0  0  0  0  0  0  0  0  0  0  0  0
   11.2558   23.8250    0.5522 C   0  0  0  0  0  0  0  0  0  0  0  0
    8.1823   20.9417    0.1867 N   0  0  0  0  0  0  0  0  0  0  0  0
    7.1898   20.9877    1.2324 C   0  0  0  0  0  0  0  0  0  0  0  0
    6.0118   20.1038    1.0430 C   0  0  0  0  0  0  0  0  0  0  0  0
    5.8602   19.6216   -0.3666 C   0  0  0  0  0  0  0  0  0  0  0  0
    7.1459   18.9328   -0.7756 C   0  0  0  0  0  0  0  0  0  0  0  0
    8.1887   20.0146   -0.8970 C   0  0  0  0  0  0  0  0  0  0  0  0
    4.7051   18.7673   -0.4976 N   0  0  0  0  0  0  0  0  0  0  0  0
    5.0125   17.5050   -1.1000 C   0  0  0  0  0  0  0  0  0  0  0  0
    3.9577   18.6407    0.7317 C   0  0  0  0  0  0  0  0  0  0  0  0
   11.3997   25.0242   -2.3376 C   0  0  0  0  0  0  0  0  0  0  0  0
   11.6357   23.7453   -1.8233 O   0  0  0  0  0  0  0  0  0  0  0  0
   15.7839   25.1546   -2.6362 N   0  0  0  0  0  0  0  0  0  0  0  0
   15.7087   24.3761   -3.3225 H   0  0  0  0  0  0  0  0  0  0  0  0
   16.3066   26.3742   -3.0569 C   0  0  0  0  0  0  0  0  0  0  0  0
   17.1355   27.1704   -2.2662 C   0  0  0  0  0  0  0  0  0  0  0  0
   17.7367   28.3193   -2.7581 C   0  0  0  0  0  0  0  0  0  0  0  0
   17.5373   28.7170   -4.0503 C   0  0  0  0  0  0  0  0  0  0  0  0
   16.7237   27.9369   -4.8258 C   0  0  0  0  0  0  0  0  0  0  0  0
   16.0910   26.7695   -4.3780 C   0  0  0  0  0  0  0  0  0  0  0  0
   15.0125   25.9872   -5.4525 S   0  0  0  0  0  0  0  0  0  0  0  0
   14.7325   24.5760   -4.8852 O   0  0  0  0  0  0  0  0  0  0  0  0
   13.6320   26.5930   -5.5208 O   0  0  0  0  0  0  0  0  0  0  0  0
   15.6244   25.6926   -7.0797 C   0  0  0  0  0  0  0  0  0  0  0  0
   14.4706   25.4005   -8.0441 C   0  0  0  0  0  0  0  0  0  0  0  0
   16.4223   26.7767   -7.6760 C   0  0  0  0  0  0  0  0  0  0  0  0
 25 26  1  0  0  0
 26 10  1  0  0  0
 10 11  2  0  0  0
 11 12  1  0  0  0
 12 13  2  0  0  0
 13 14  1  0  0  0
 14 15  2  0  0  0
 15  8  1  0  0  0
  8  1  1  0  0  0
  1  2  2  0  0  0
  2  3  1  0  0  0
  3  4  2  0  0  0
  4  5  1  0  0  0
  4  6  1  0  0  0
  6 27  1  0  0  0
 27 29  1  0  0  0
 29 30  2  0  0  0
 30 31  1  0  0  0
 31 32  2  0  0  0
 32 33  1  0  0  0
 33 34  2  0  0  0
 34 35  1  0  0  0
 35 36  2  0  0  0
 35 37  2  0  0  0
 35 38  1  0  0  0
 38 39  1  0  0  0
 38 40  1  0  0  0
  6  7  2  0  0  0
 12 16  1  0  0  0
 16 17  1  0  0  0
 17 18  1  0  0  0
 18 19  1  0  0  0
 19 20  1  0  0  0
 20 21  1  0  0  0
 19 22  1  0  0  0
 22 23  1  0  0  0
 22 24  1  0  0  0
 15 10  1  0  0  0
  7  1  1  0  0  0
 21 16  1  0  0  0
 34 29  1  0  0  0
  8  9  1  0  0  0
 27 28  1  0  0  0
M  END
> <minimizedAffinity>
-2.76394

> <CNNscore>
0.5261594057

> <CNNaffinity>
7.9167060852

> <CNN_VS>
4.1654491425

> <CNNaffinity_variance>
0.2796178162

$$$$
[H]C1=C2C([H])([H])C([H])([H])[C@@]3([H])[C@]4([H])C([H])([H])C([H])([H])C([H])([H])[C@@]4(C([H])([H])[H])C([H])([H])C([H])([H])[C@]3([H])[C@@]2(C([H])([H])[H])C([H])([H])C([H])([H])C1=O


 20 23  0  0  0  0  0  0  0  0999 V2000
   12.9374   23.3486   -0.0855 C   0  0  0  0  0  0  0  0  0  0  0  0
   14.3527   22.9191    0.1020 C   0  0  0  0  0  0  0  0  0  0  0  0
   15.2040   24.1078    0.3667 C   0  0  0  0  0  0  0  0  0  0  0  0
   15.4056   25.0195   -0.8063 C   0  0  0  0  0  0  0  0  0  0  0  0
   15.4802   24.3694   -2.1250 C   0  0  0  0  0  0  0  0  0  0  0  0
   14.5917   23.1567   -2.2863 C   0  0  0  0  0  0  0  0  0  0  0  0
   14.7690   22.5049   -3.6022 C   0  0  0  0  0  0  0  0  0  0  0  0
   15.4728   23.2657   -4.6606 C   0  0  0  0  0  0  0  0  0  0  0  0
   15.4617   24.7285   -4.5376 C   0  0  0  0  0  0  0  0  0  0  0  0
   15.6720   25.5163   -5.5686 C   0  0  0  0  0  0  0  0  0  0  0  0
   15.6577   26.9900   -5.4232 C   0  0  0  0  0  0  0  0  0  0  0  0
   15.3255   27.7368   -6.3530 O   0  0  0  0  0  0  0  0  0  0  0  0
   16.0573   27.5668   -4.1145 C   0  0  0  0  0  0  0  0  0  0  0  0
   16.2974   26.4543   -3.0974 C   0  0  0  0  0  0  0  0  0  0  0  0
   15.2107   25.3785   -3.2163 C   0  0  0  0  0  0  0  0  0  0  0  0
   13.8680   26.0243   -3.1368 C   0  0  0  0  0  0  0  0  0  0  0  0
   14.9464   22.2531   -1.1485 C   0  0  0  0  0  0  0  0  0  0  0  0
   14.2950   20.9310   -1.1150 C   0  0  0  0  0  0  0  0  0  0  0  0
   14.5691   20.5112    0.3211 C   0  0  0  0  0  0  0  0  0  0  0  0
   14.5115   21.8109    1.0951 C   0  0  0  0  0  0  0  0  0  0  0  0
  2  1  1  0  0  0
  2  3  1  0  0  0
  3  4  1  0  0  0
  4  5  1  0  0  0
  5  6  1  0  0  0
  6  7  1  0  0  0
  7  8  1  0  0  0
  8  9  1  0  0  0
  9 10  2  0  0  0
 10 11  1  0  0  0
 11 12  2  0  0  0
 11 13  1  0  0  0
 13 14  1  0  0  0
 14 15  1  0  0  0
 15 16  1  0  0  0
  6 17  1  0  0  0
 17 18  1  0  0  0
 18 19  1  0  0  0
 19 20  1  0  0  0
 17  2  1  0  0  0
 20  2  1  0  0  0
 15  5  1  0  0  0
 15  9  1  0  0  0
M  END
> <minimizedAffinity>
-8.65473

> <CNNscore>
0.6473262310

> <CNNaffinity>
6.9906640053

> <CNN_VS>
4.5252399445

> <CNNaffinity_variance>
0.1470799148

$$$$
[H]C1=C2C([H])([H])C([H])([H])[C@@]3([H])[C@]4([H])C([H])([H])C([H])([H])C([H])([H])[C@@]4(C([H])([H])[H])C([H])([H])C([H])([H])[C@]3([H])[C@@]2(C([H])([H])[H])C([H])([H])C([H])([H])C1=O


 20 23  0  0  0  0  0  0  0  0999 V2000
   15.1932   22.7141    0.6057 C   0  0  0  0  0  0  0  0  0  0  0  0
   14.1154   21.9783   -0.1153 C   0  0  0  0  0  0  0  0  0  0  0  0
   14.6401   21.4646   -1.4070 C   0  0  0  0  0  0  0  0  0  0  0  0
   14.9195   22.5128   -2.4419 C   0  0  0  0  0  0  0  0  0  0  0  0
   14.0091   23.6696   -2.4525 C   0  0  0  0  0  0  0  0  0  0  0  0
   13.5148   24.1011   -1.0903 C   0  0  0  0  0  0  0  0  0  0  0  0
   12.5463   25.2159   -1.1744 C   0  0  0  0  0  0  0  0  0  0  0  0
   12.4575   25.9587   -2.4530 C   0  0  0  0  0  0  0  0  0  0  0  0
   13.6412   25.9192   -3.3206 C   0  0  0  0  0  0  0  0  0  0  0  0
   13.8575   26.8272   -4.2461 C   0  0  0  0  0  0  0  0  0  0  0  0
   15.0575   26.7688   -5.1119 C   0  0  0  0  0  0  0  0  0  0  0  0
   15.5735   27.7894   -5.5860 O   0  0  0  0  0  0  0  0  0  0  0  0
   15.6422   25.4360   -5.4068 C   0  0  0  0  0  0  0  0  0  0  0  0
   14.9157   24.3528   -4.6139 C   0  0  0  0  0  0  0  0  0  0  0  0
   14.6510   24.8276   -3.1798 C   0  0  0  0  0  0  0  0  0  0  0  0
   15.9301   25.2995   -2.5736 C   0  0  0  0  0  0  0  0  0  0  0  0
   12.9203   22.8725   -0.4785 C   0  0  0  0  0  0  0  0  0  0  0  0
   12.2608   23.0283    0.8307 C   0  0  0  0  0  0  0  0  0  0  0  0
   12.1714   21.5786    1.2824 C   0  0  0  0  0  0  0  0  0  0  0  0
   13.4313   20.9486    0.7280 C   0  0  0  0  0  0  0  0  0  0  0  0
  2  1  1  0  0  0
  2  3  1  0  0  0
  3  4  1  0  0  0
  4  5  1  0  0  0
  5  6  1  0  0  0
  6  7  1  0  0  0
  7  8  1  0  0  0
  8  9  1  0  0  0
  9 10  2  0  0  0
 10 11  1  0  0  0
 11 12  2  0  0  0
 11 13  1  0  0  0
 13 14  1  0  0  0
 14 15  1  0  0  0
 15 16  1  0  0  0
  6 17  1  0  0  0
 17 18  1  0  0  0
 18 19  1  0  0  0
 19 20  1  0  0  0
 17  2  1  0  0  0
 20  2  1  0  0  0
 15  5  1  0  0  0
 15  9  1  0  0  0
M  END
> <minimizedAffinity>
-10.13353

> <CNNscore>
0.5939039588

> <CNNaffinity>
6.8341178894

> <CNN_VS>
4.0588097572

> <CNNaffinity_variance>
0.3732472062

$$$$
[H]C1=C2C([H])([H])C([H])([H])[C@@]3([H])[C@]4([H])C([H])([H])C([H])([H])C([H])([H])[C@@]4(C([H])([H])[H])C([H])([H])C([H])([H])[C@]3([H])[C@@]2(C([H])([H])[H])C([H])([H])C([H])([H])C1=O


 20 23  0  0  0  0  0  0  0  0999 V2000
   14.2206   22.2608   -1.5955 C   0  0  0  0  0  0  0  0  0  0  0  0
   13.6449   23.4241   -0.8620 C   0  0  0  0  0  0  0  0  0  0  0  0
   12.5831   24.0576   -1.6861 C   0  0  0  0  0  0  0  0  0  0  0  0
   13.0715   24.7858   -2.9022 C   0  0  0  0  0  0  0  0  0  0  0  0
   14.3713   25.4644   -2.7708 C   0  0  0  0  0  0  0  0  0  0  0  0
   15.3751   24.7497   -1.8947 C   0  0  0  0  0  0  0  0  0  0  0  0
   16.6297   25.5179   -1.7408 C   0  0  0  0  0  0  0  0  0  0  0  0
   16.8744   26.6365   -2.6807 C   0  0  0  0  0  0  0  0  0  0  0  0
   16.1805   26.5740   -3.9729 C   0  0  0  0  0  0  0  0  0  0  0  0
   16.6014   27.2433   -5.0230 C   0  0  0  0  0  0  0  0  0  0  0  0
   15.8865   27.1675   -6.3177 C   0  0  0  0  0  0  0  0  0  0  0  0
   16.4724   27.3096   -7.3989 O   0  0  0  0  0  0  0  0  0  0  0  0
   14.4237   26.9128   -6.2942 C   0  0  0  0  0  0  0  0  0  0  0  0
   13.9561   26.6474   -4.8656 C   0  0  0  0  0  0  0  0  0  0  0  0
   14.9536   25.7381   -4.1375 C   0  0  0  0  0  0  0  0  0  0  0  0
   15.1943   24.5152   -4.9578 C   0  0  0  0  0  0  0  0  0  0  0  0
   14.6758   24.5302   -0.5909 C   0  0  0  0  0  0  0  0  0  0  0  0
   15.4666   23.9341    0.5012 C   0  0  0  0  0  0  0  0  0  0  0  0
   14.3623   23.5056    1.4555 C   0  0  0  0  0  0  0  0  0  0  0  0
   13.2293   23.0980    0.5381 C   0  0  0  0  0  0  0  0  0  0  0  0
  2  1  1  0  0  0
  2  3  1  0  0  0
  3  4  1  0  0  0
  4  5  1  0  0  0
  5  6  1  0  0  0
  6  7  1  0  0  0
  7  8  1  0  0  0
  8  9  1  0  0  0
  9 10  2  0  0  0
 10 11  1  0  0  0
 11 12  2  0  0  0
 11 13  1  0  0  0
 13 14  1  0  0  0
 14 15  1  0  0  0
 15 16  1  0  0  0
  6 17  1  0  0  0
 17 18  1  0  0  0
 18 19  1  0  0  0
 19 20  1  0  0  0
 17  2  1  0  0  0
 20  2  1  0  0  0
 15  5  1  0  0  0
 15  9  1  0  0  0
M  END
> <minimizedAffinity>
-7.64108

> <CNNscore>
0.5462286472

> <CNNaffinity>
6.6583924294

> <CNN_VS>
3.6370046139

> <CNNaffinity_variance>
0.2648406029

$$$$
[H]C1=C2C([H])([H])C([H])([H])[C@@]3([H])[C@]4([H])C([H])([H])C([H])([H])C([H])([H])[C@@]4(C([H])([H])[H])C([H])([H])C([H])([H])[C@]3([H])[C@@]2(C([H])([H])[H])C([H])([H])C([H])([H])C1=O


 20 23  0  0  0  0  0  0  0  0999 V2000
   11.3003   23.5609   -0.2876 C   0  0  0  0  0  0  0  0  0  0  0  0
   12.5609   23.2339    0.4381 C   0  0  0  0  0  0  0  0  0  0  0  0
   13.3119   24.4843    0.7219 C   0  0  0  0  0  0  0  0  0  0  0  0
   13.9164   25.1493   -0.4782 C   0  0  0  0  0  0  0  0  0  0  0  0
   14.4028   24.2513   -1.5384 C   0  0  0  0  0  0  0  0  0  0  0  0
   13.5819   22.9967   -1.7342 C   0  0  0  0  0  0  0  0  0  0  0  0
   14.1644   22.1017   -2.7576 C   0  0  0  0  0  0  0  0  0  0  0  0
   15.2004   22.6618   -3.6562 C   0  0  0  0  0  0  0  0  0  0  0  0
   15.1925   24.1180   -3.8424 C   0  0  0  0  0  0  0  0  0  0  0  0
   15.7547   24.6905   -4.8835 C   0  0  0  0  0  0  0  0  0  0  0  0
   15.7367   26.1616   -5.0524 C   0  0  0  0  0  0  0  0  0  0  0  0
   15.7524   26.6930   -6.1704 O   0  0  0  0  0  0  0  0  0  0  0  0
   15.6988   27.0047   -3.8305 C   0  0  0  0  0  0  0  0  0  0  0  0
   15.5565   26.1293   -2.5883 C   0  0  0  0  0  0  0  0  0  0  0  0
   14.5388   25.0095   -2.8378 C   0  0  0  0  0  0  0  0  0  0  0  0
   13.2648   25.6045   -3.3371 C   0  0  0  0  0  0  0  0  0  0  0  0
   13.5142   22.3545   -0.3851 C   0  0  0  0  0  0  0  0  0  0  0  0
   12.8495   21.0413   -0.3011 C   0  0  0  0  0  0  0  0  0  0  0  0
   12.6215   20.9295    1.1987 C   0  0  0  0  0  0  0  0  0  0  0  0
   12.3501   22.3548    1.6306 C   0  0  0  0  0  0  0  0  0  0  0  0
  2  1  1  0  0  0
  2  3  1  0  0  0
  3  4  1  0  0  0
  4  5  1  0  0  0
  5  6  1  0  0  0
  6  7  1  0  0  0
  7  8  1  0  0  0
  8  9  1  0  0  0
  9 10  2  0  0  0
 10 11  1  0  0  0
 11 12  2  0  0  0
 11 13  1  0  0  0
 13 14  1  0  0  0
 14 15  1  0  0  0
 15 16  1  0  0  0
  6 17  1  0  0  0
 17 18  1  0  0  0
 18 19  1  0  0  0
 19 20  1  0  0  0
 17  2  1  0  0  0
 20  2  1  0  0  0
 15  5  1  0  0  0
 15  9  1  0  0  0
M  END
> <minimizedAffinity>
-7.52901

> <CNNscore>
0.5372500420

> <CNNaffinity>
6.8112387657

> <CNN_VS>
3.6593382359

> <CNNaffinity_variance>
0.3096928000

$$$$
[H]C1=C2C([H])([H])C([H])([H])[C@@]3([H])[C@]4([H])C([H])([H])C([H])([H])C([H])([H])[C@@]4(C([H])([H])[H])C([H])([H])C([H])([H])[C@]3([H])[C@@]2(C([H])([H])[H])C([H])([H])C([H])([H])C1=O


 20 23  0  0  0  0  0  0  0  0999 V2000
   14.8809   24.2721   -4.6209 C   0  0  0  0  0  0  0  0  0  0  0  0
   15.2323   25.3564   -3.6599 C   0  0  0  0  0  0  0  0  0  0  0  0
   16.1353   24.8189   -2.6094 C   0  0  0  0  0  0  0  0  0  0  0  0
   15.4925   23.8698   -1.6430 C   0  0  0  0  0  0  0  0  0  0  0  0
   14.0881   24.1483   -1.3008 C   0  0  0  0  0  0  0  0  0  0  0  0
   13.2586   24.7125   -2.4320 C   0  0  0  0  0  0  0  0  0  0  0  0
   11.8814   25.0423   -2.0049 C   0  0  0  0  0  0  0  0  0  0  0  0
   11.4067   24.4879   -0.7158 C   0  0  0  0  0  0  0  0  0  0  0  0
   12.0759   23.2727   -0.2357 C   0  0  0  0  0  0  0  0  0  0  0  0
   11.5140   22.4658    0.6366 C   0  0  0  0  0  0  0  0  0  0  0  0
   12.2065   21.2451    1.1092 C   0  0  0  0  0  0  0  0  0  0  0  0
   11.5847   20.2371    1.4695 O   0  0  0  0  0  0  0  0  0  0  0  0
   13.6910   21.2530    1.1436 C   0  0  0  0  0  0  0  0  0  0  0  0
   14.2270   22.5470    0.5369 C   0  0  0  0  0  0  0  0  0  0  0  0
   13.4390   22.9105   -0.7277 C   0  0  0  0  0  0  0  0  0  0  0  0
   13.4263   21.7401   -1.6530 C   0  0  0  0  0  0  0  0  0  0  0  0
   14.0107   25.9126   -2.9127 C   0  0  0  0  0  0  0  0  0  0  0  0
   13.3710   26.7283   -3.9609 C   0  0  0  0  0  0  0  0  0  0  0  0
   14.5546   27.5497   -4.4490 C   0  0  0  0  0  0  0  0  0  0  0  0
   15.7286   26.6022   -4.3240 C   0  0  0  0  0  0  0  0  0  0  0  0
  2  1  1  0  0  0
  2  3  1  0  0  0
  3  4  1  0  0  0
  4  5  1  0  0  0
  5  6  1  0  0  0
  6  7  1  0  0  0
  7  8  1  0  0  0
  8  9  1  0  0  0
  9 10  2  0  0  0
 10 11  1  0  0  0
 11 12  2  0  0  0
 11 13  1  0  0  0
 13 14  1  0  0  0
 14 15  1  0  0  0
 15 16  1  0  0  0
  6 17  1  0  0  0
 17 18  1  0  0  0
 18 19  1  0  0  0
 19 20  1  0  0  0
 17  2  1  0  0  0
 20  2  1  0  0  0
 15  5  1  0  0  0
 15  9  1  0  0  0
M  END
> <minimizedAffinity>
-8.28447

> <CNNscore>
0.4903032184

> <CNNaffinity>
6.7611055374

> <CNN_VS>
3.3149917126

> <CNNaffinity_variance>
0.1071964130

$$$$
[H]C1=C2C([H])([H])C([H])([H])[C@@]3([H])[C@]4([H])C([H])([H])C([H])([H])C([H])([H])[C@@]4(C([H])([H])[H])C([H])([H])C([H])([H])[C@]3([H])[C@@]2(C([H])([H])[H])C([H])([H])C([H])([H])C1=O


 20 23  0  0  0  0  0  0  0  0999 V2000
   15.6716   26.6745   -3.0725 C   0  0  0  0  0  0  0  0  0  0  0  0
   14.6192   26.2358   -4.0331 C   0  0  0  0  0  0  0  0  0  0  0  0
   13.2790   26.6025   -3.5066 C   0  0  0  0  0  0  0  0  0  0  0  0
   12.8275   25.8156   -2.3130 C   0  0  0  0  0  0  0  0  0  0  0  0
   13.2474   24.4052   -2.2721 C   0  0  0  0  0  0  0  0  0  0  0  0
   14.6175   24.1335   -2.8508 C   0  0  0  0  0  0  0  0  0  0  0  0
   14.9484   22.6919   -2.8509 C   0  0  0  0  0  0  0  0  0  0  0  0
   14.1164   21.7922   -2.0186 C   0  0  0  0  0  0  0  0  0  0  0  0
   13.4152   22.4063   -0.8844 C   0  0  0  0  0  0  0  0  0  0  0  0
   12.9960   21.6992    0.1414 C   0  0  0  0  0  0  0  0  0  0  0  0
   12.2896   22.3378    1.2755 C   0  0  0  0  0  0  0  0  0  0  0  0
   12.3483   21.8810    2.4246 O   0  0  0  0  0  0  0  0  0  0  0  0
   11.4933   23.5612    1.0029 C   0  0  0  0  0  0  0  0  0  0  0  0
   11.6767   23.9991   -0.4477 C   0  0  0  0  0  0  0  0  0  0  0  0
   13.1485   23.8758   -0.8608 C   0  0  0  0  0  0  0  0  0  0  0  0
   13.9995   24.6008    0.1274 C   0  0  0  0  0  0  0  0  0  0  0  0
   14.5858   24.7126   -4.2294 C   0  0  0  0  0  0  0  0  0  0  0  0
   15.7756   24.4987   -5.0733 C   0  0  0  0  0  0  0  0  0  0  0  0
   15.5446   25.5330   -6.1643 C   0  0  0  0  0  0  0  0  0  0  0  0
   14.8744   26.6804   -5.4390 C   0  0  0  0  0  0  0  0  0  0  0  0
  2  1  1  0  0  0
  2  3  1  0  0  0
  3  4  1  0  0  0
  4  5  1  0  0  0
  5  6  1  0  0  0
  6  7  1  0  0  0
  7  8  1  0  0  0
  8  9  1  0  0  0
  9 10  2  0  0  0
 10 11  1  0  0  0
 11 12  2  0  0  0
 11 13  1  0  0  0
 13 14  1  0  0  0
 14 15  1  0  0  0
 15 16  1  0  0  0
  6 17  1  0  0  0
 17 18  1  0  0  0
 18 19  1  0  0  0
 19 20  1  0  0  0
 17  2  1  0  0  0
 20  2  1  0  0  0
 15  5  1  0  0  0
 15  9  1  0  0  0
M  END
> <minimizedAffinity>
-10.35171

> <CNNscore>
0.4694654047

> <CNNaffinity>
6.6951971054

> <CNN_VS>
3.1431634426

> <CNNaffinity_variance>
0.3800595403

$$$$
[H]C1=C2C([H])([H])C([H])([H])[C@@]3([H])[C@]4([H])C([H])([H])C([H])([H])C([H])([H])[C@@]4(C([H])([H])[H])C([H])([H])C([H])([H])[C@]3([H])[C@@]2(C([H])([H])[H])C([H])([H])C([H])([H])C1=O


 20 23  0  0  0  0  0  0  0  0999 V2000
   14.2128   26.7221   -3.9029 C   0  0  0  0  0  0  0  0  0  0  0  0
   15.5467   26.1089   -4.1622 C   0  0  0  0  0  0  0  0  0  0  0  0
   15.3683   24.7586   -4.7560 C   0  0  0  0  0  0  0  0  0  0  0  0
   14.8277   23.7190   -3.8208 C   0  0  0  0  0  0  0  0  0  0  0  0
   15.2542   23.8286   -2.4161 C   0  0  0  0  0  0  0  0  0  0  0  0
   15.4277   25.2441   -1.9137 C   0  0  0  0  0  0  0  0  0  0  0  0
   15.9303   25.2861   -0.5233 C   0  0  0  0  0  0  0  0  0  0  0  0
   15.8647   24.0386    0.2729 C   0  0  0  0  0  0  0  0  0  0  0  0
   14.8633   23.0471   -0.1388 C   0  0  0  0  0  0  0  0  0  0  0  0
   14.4215   22.1205    0.6822 C   0  0  0  0  0  0  0  0  0  0  0  0
   13.4117   21.1286    0.2470 C   0  0  0  0  0  0  0  0  0  0  0  0
   12.6086   20.6202    1.0401 O   0  0  0  0  0  0  0  0  0  0  0  0
   13.3798   20.7475   -1.1879 C   0  0  0  0  0  0  0  0  0  0  0  0
   14.3706   21.5945   -1.9820 C   0  0  0  0  0  0  0  0  0  0  0  0
   14.3086   23.0574   -1.5256 C   0  0  0  0  0  0  0  0  0  0  0  0
   12.8942   23.5297   -1.5778 C   0  0  0  0  0  0  0  0  0  0  0  0
   16.3658   25.8941   -2.8804 C   0  0  0  0  0  0  0  0  0  0  0  0
   16.7973   27.2698   -2.5730 C   0  0  0  0  0  0  0  0  0  0  0  0
   17.3622   27.7017   -3.9176 C   0  0  0  0  0  0  0  0  0  0  0  0
   16.4741   27.0023   -4.9245 C   0  0  0  0  0  0  0  0  0  0  0  0
  2  1  1  0  0  0
  2  3  1  0  0  0
  3  4  1  0  0  0
  4  5  1  0  0  0
  5  6  1  0  0  0
  6  7  1  0  0  0
  7  8  1  0  0  0
  8  9  1  0  0  0
  9 10  2  0  0  0
 10 11  1  0  0  0
 11 12  2  0  0  0
 11 13  1  0  0  0
 13 14  1  0  0  0
 14 15  1  0  0  0
 15 16  1  0  0  0
  6 17  1  0  0  0
 17 18  1  0  0  0
 18 19  1  0  0  0
 19 20  1  0  0  0
 17  2  1  0  0  0
 20  2  1  0  0  0
 15  5  1  0  0  0
 15  9  1  0  0  0
M  END
> <minimizedAffinity>
-9.31794

> <CNNscore>
0.3739101291

> <CNNaffinity>
6.7649116516

> <CNN_VS>
2.5294690132

> <CNNaffinity_variance>
0.3420504034

$$$$
[H]C1=C2C([H])([H])C([H])([H])[C@@]3([H])[C@]4([H])C([H])([H])C([H])([H])C([H])([H])[C@@]4(C([H])([H])[H])C([H])([H])C([H])([H])[C@]3([H])[C@@]2(C([H])([H])[H])C([H])([H])C([H])([H])C1=O


 20 23  0  0  0  0  0  0  0  0999 V2000
   12.7887   21.6861    1.2502 C   0  0  0  0  0  0  0  0  0  0  0  0
   12.0932   21.1646    0.0390 C   0  0  0  0  0  0  0  0  0  0  0  0
   13.0956   20.6452   -0.9271 C   0  0  0  0  0  0  0  0  0  0  0  0
   13.9389   21.6912   -1.5924 C   0  0  0  0  0  0  0  0  0  0  0  0
   13.2739   22.9735   -1.8762 C   0  0  0  0  0  0  0  0  0  0  0  0
   12.2563   23.4033   -0.8438 C   0  0  0  0  0  0  0  0  0  0  0  0
   11.5696   24.6569   -1.2240 C   0  0  0  0  0  0  0  0  0  0  0  0
   12.1681   25.4713   -2.3071 C   0  0  0  0  0  0  0  0  0  0  0  0
   13.6062   25.2957   -2.5444 C   0  0  0  0  0  0  0  0  0  0  0  0
   14.3277   26.2072   -3.1580 C   0  0  0  0  0  0  0  0  0  0  0  0
   15.7772   26.0105   -3.3886 C   0  0  0  0  0  0  0  0  0  0  0  0
   16.5653   26.9629   -3.4543 O   0  0  0  0  0  0  0  0  0  0  0  0
   16.2779   24.6210   -3.5427 C   0  0  0  0  0  0  0  0  0  0  0  0
   15.1499   23.6223   -3.2976 C   0  0  0  0  0  0  0  0  0  0  0  0
   14.3055   24.0555   -2.0928 C   0  0  0  0  0  0  0  0  0  0  0  0
   15.2015   24.2918   -0.9233 C   0  0  0  0  0  0  0  0  0  0  0  0
   11.3120   22.2504   -0.7164 C   0  0  0  0  0  0  0  0  0  0  0  0
   10.1427   22.4364    0.1619 C   0  0  0  0  0  0  0  0  0  0  0  0
    9.6917   20.9959    0.3498 C   0  0  0  0  0  0  0  0  0  0  0  0
   10.9851   20.2095    0.3541 C   0  0  0  0  0  0  0  0  0  0  0  0
  2  1  1  0  0  0
  2  3  1  0  0  0
  3  4  1  0  0  0
  4  5  1  0  0  0
  5  6  1  0  0  0
  6  7  1  0  0  0
  7  8  1  0  0  0
  8  9  1  0  0  0
  9 10  2  0  0  0
 10 11  1  0  0  0
 11 12  2  0  0  0
 11 13  1  0  0  0
 13 14  1  0  0  0
 14 15  1  0  0  0
 15 16  1  0  0  0
  6 17  1  0  0  0
 17 18  1  0  0  0
 18 19  1  0  0  0
 19 20  1  0  0  0
 17  2  1  0  0  0
 20  2  1  0  0  0
 15  5  1  0  0  0
 15  9  1  0  0  0
M  END
> <minimizedAffinity>
-9.37840

> <CNNscore>
0.3570614457

> <CNNaffinity>
6.6142058372

> <CNN_VS>
2.3616778851

> <CNNaffinity_variance>
0.2274638414

$$$$
[H]C1=C2C([H])([H])C([H])([H])[C@@]3([H])[C@]4([H])C([H])([H])C([H])([H])C([H])([H])[C@@]4(C([H])([H])[H])C([H])([H])C([H])([H])[C@]3([H])[C@@]2(C([H])([H])[H])C([H])([H])C([H])([H])C1=O


 20 23  0  0  0  0  0  0  0  0999 V2000
   12.6966   20.0629   -1.6996 C   0  0  0  0  0  0  0  0  0  0  0  0
   11.8812   20.9394   -0.8110 C   0  0  0  0  0  0  0  0  0  0  0  0
   11.2489   22.0162   -1.6163 C   0  0  0  0  0  0  0  0  0  0  0  0
   12.1933   23.0553   -2.1418 C   0  0  0  0  0  0  0  0  0  0  0  0
   13.3331   23.3915   -1.2730 C   0  0  0  0  0  0  0  0  0  0  0  0
   13.8909   22.2314   -0.4797 C   0  0  0  0  0  0  0  0  0  0  0  0
   14.9809   22.6483    0.4290 C   0  0  0  0  0  0  0  0  0  0  0  0
   15.5933   23.9790    0.2082 C   0  0  0  0  0  0  0  0  0  0  0  0
   15.4821   24.5383   -1.1445 C   0  0  0  0  0  0  0  0  0  0  0  0
   16.2970   25.4725   -1.5816 C   0  0  0  0  0  0  0  0  0  0  0  0
   16.1674   26.0245   -2.9497 C   0  0  0  0  0  0  0  0  0  0  0  0
   17.1421   26.4631   -3.5742 O   0  0  0  0  0  0  0  0  0  0  0  0
   14.8187   26.0424   -3.5710 C   0  0  0  0  0  0  0  0  0  0  0  0
   13.8106   25.3383   -2.6667 C   0  0  0  0  0  0  0  0  0  0  0  0
   14.4211   24.0593   -2.0805 C   0  0  0  0  0  0  0  0  0  0  0  0
   14.9649   23.2209   -3.1885 C   0  0  0  0  0  0  0  0  0  0  0  0
   12.7218   21.6575    0.2556 C   0  0  0  0  0  0  0  0  0  0  0  0
   12.9980   20.5600    1.2004 C   0  0  0  0  0  0  0  0  0  0  0  0
   11.5988   20.0014    1.4100 C   0  0  0  0  0  0  0  0  0  0  0  0
   10.9318   20.1820    0.0631 C   0  0  0  0  0  0  0  0  0  0  0  0
  2  1  1  0  0  0
  2  3  1  0  0  0
  3  4  1  0  0  0
  4  5  1  0  0  0
  5  6  1  0  0  0
  6  7  1  0  0  0
  7  8  1  0  0  0
  8  9  1  0  0  0
  9 10  2  0  0  0
 10 11  1  0  0  0
 11 12  2  0  0  0
 11 13  1  0  0  0
 13 14  1  0  0  0
 14 15  1  0  0  0
 15 16  1  0  0  0
  6 17  1  0  0  0
 17 18  1  0  0  0
 18 19  1  0  0  0
 19 20  1  0  0  0
 17  2  1  0  0  0
 20  2  1  0  0  0
 15  5  1  0  0  0
 15  9  1  0  0  0
M  END
> <minimizedAffinity>
-6.13370

> <CNNscore>
0.3465431333

> <CNNaffinity>
6.5310950279

> <CNN_VS>
2.2633061409

> <CNNaffinity_variance>
0.1896556765

$$$$
[H]C1=C([H])C([H])(F)C([H])([H])C([H])=C1N([H])C(=O)C1(C(=O)N([H])c2c([H])c([H])c(Oc3c([H])c([H])nc4c([H])c(OC([H])([H])C([H])([H])C([H])([H])N5C([H])([H])C([H])([H])OC([H])([H])C5([H])[H])c(OC([H])([H])[H])c([H])c34)c(F)c2[H])C([H])([H])C1([H])[H]


 48 53  0  0  0  0  0  0  0  0999 V2000
    6.9172   26.0672    6.5846 C   0  0  0  0  0  0  0  0  0  0  0  0
    6.5477   26.3842    5.2849 C   0  0  0  0  0  0  0  0  0  0  0  0
    7.1191   25.8534    4.1669 C   0  0  0  0  0  0  0  0  0  0  0  0
    8.1533   24.9216    4.3110 C   0  0  0  0  0  0  0  0  0  0  0  0
    8.5480   24.5799    5.5759 C   0  0  0  0  0  0  0  0  0  0  0  0
    7.9402   25.1434    6.7097 C   0  0  0  0  0  0  0  0  0  0  0  0
    8.3684   24.7346    7.9266 F   0  0  0  0  0  0  0  0  0  0  0  0
    8.7187   24.3364    3.1229 N   0  0  0  0  0  0  0  0  0  0  0  0
    8.1048   23.3243    2.4211 C   0  0  0  0  0  0  0  0  0  0  0  0
    6.9853   22.8901    2.9130 O   0  0  0  0  0  0  0  0  0  0  0  0
    9.6367   24.7286    2.8635 H   0  0  0  0  0  0  0  0  0  0  0  0
    8.4990   22.6190    1.1777 C   0  0  0  0  0  0  0  0  0  0  0  0
    9.9993   22.4970    0.9713 C   0  0  0  0  0  0  0  0  0  0  0  0
    9.3302   23.5403    0.1998 C   0  0  0  0  0  0  0  0  0  0  0  0
    7.6527   21.6586    0.4688 C   0  0  0  0  0  0  0  0  0  0  0  0
    8.1963   20.4664    0.3614 O   0  0  0  0  0  0  0  0  0  0  0  0
    6.3922   21.7400   -0.1104 N   0  0  0  0  0  0  0  0  0  0  0  0
    5.8003   22.5867   -0.1025 H   0  0  0  0  0  0  0  0  0  0  0  0
    5.7922   20.5760   -0.7633 C   0  0  0  0  0  0  0  0  0  0  0  0
    5.0364   19.7952   -0.0251 C   0  0  0  0  0  0  0  0  0  0  0  0
    4.3468   18.5911   -0.4788 C   0  0  0  0  0  0  0  0  0  0  0  0
    4.5778   18.2219   -1.8921 C   0  0  0  0  0  0  0  0  0  0  0  0
    3.3386   18.1658   -2.5802 F   0  0  0  0  0  0  0  0  0  0  0  0
    5.4327   19.1568   -2.6260 C   0  0  0  0  0  0  0  0  0  0  0  0
    6.0003   20.2395   -2.1346 C   0  0  0  0  0  0  0  0  0  0  0  0
    6.2965   26.6376    7.6742 O   0  0  0  0  0  0  0  0  0  0  0  0
    4.4984   23.0528    8.5018 C   0  0  0  0  0  0  0  0  0  0  0  0
    5.1149   24.2417    8.2241 C   0  0  0  0  0  0  0  0  0  0  0  0
    4.3453   25.3791    8.1069 C   0  0  0  0  0  0  0  0  0  0  0  0
    4.9366   26.6280    7.8184 C   0  0  0  0  0  0  0  0  0  0  0  0
    4.1501   27.7498    7.7006 C   0  0  0  0  0  0  0  0  0  0  0  0
    2.7839   27.6789    7.8620 C   0  0  0  0  0  0  0  0  0  0  0  0
    2.2246   26.4901    8.1373 N   0  0  0  0  0  0  0  0  0  0  0  0
    2.9828   25.3651    8.2577 C   0  0  0  0  0  0  0  0  0  0  0  0
    2.3630   24.1570    8.5389 C   0  0  0  0  0  0  0  0  0  0  0  0
    3.1037   23.0063    8.6629 C   0  0  0  0  0  0  0  0  0  0  0  0
    6.5421   21.7816    8.3242 C   0  0  0  0  0  0  0  0  0  0  0  0
    5.1705   21.8536    8.6397 O   0  0  0  0  0  0  0  0  0  0  0  0
    2.5080   21.8208    8.9458 O   0  0  0  0  0  0  0  0  0  0  0  0
    1.6380   21.1418    8.1152 C   0  0  0  0  0  0  0  0  0  0  0  0
    2.2325   20.8816    6.7381 C   0  0  0  0  0  0  0  0  0  0  0  0
    2.4391   19.3689    6.5827 C   0  0  0  0  0  0  0  0  0  0  0  0
    3.3832   19.1562    5.5143 N   0  0  0  0  0  0  0  0  0  0  0  0
    4.1366   20.4052    5.2548 C   0  0  0  0  0  0  0  0  0  0  0  0
    5.1785   20.0053    4.2060 C   0  0  0  0  0  0  0  0  0  0  0  0
    4.8564   18.8040    3.5745 O   0  0  0  0  0  0  0  0  0  0  0  0
    4.9293   17.7099    4.4592 C   0  0  0  0  0  0  0  0  0  0  0  0
    4.3931   18.1471    5.8288 C   0  0  0  0  0  0  0  0  0  0  0  0
 37 38  1  0  0  0
 38 27  1  0  0  0
 27 28  2  0  0  0
 28 29  1  0  0  0
 29 30  2  0  0  0
 30 26  1  0  0  0
 26  1  1  0  0  0
  1  2  2  0  0  0
  2  3  1  0  0  0
  3  4  2  0  0  0
  4  8  1  0  0  0
  8  9  1  0  0  0
  9 10  2  0  0  0
  9 12  1  0  0  0
 12 13  1  0  0  0
 13 14  1  0  0  0
 12 15  1  0  0  0
 15 16  2  0  0  0
 15 17  1  0  0  0
 17 19  1  0  0  0
 19 20  2  0  0  0
 20 21  1  0  0  0
 21 22  1  0  0  0
 22 23  1  0  0  0
 22 24  1  0  0  0
 24 25  2  0  0  0
  4  5  1  0  0  0
  5  6  2  0  0  0
  6  7  1  0  0  0
 30 31  1  0  0  0
 31 32  2  0  0  0
 32 33  1  0  0  0
 33 34  2  0  0  0
 34 35  1  0  0  0
 35 36  2  0  0  0
 36 39  1  0  0  0
 39 40  1  0  0  0
 40 41  1  0  0  0
 41 42  1  0  0  0
 42 43  1  0  0  0
 43 44  1  0  0  0
 44 45  1  0  0  0
 45 46  1  0  0  0
 46 47  1  0  0  0
 47 48  1  0  0  0
 36 27  1  0  0  0
 48 43  1  0  0  0
 34 29  1  0  0  0
  6  1  1  0  0  0
 14 12  1  0  0  0
 25 19  1  0  0  0
  8 11  1  0  0  0
 17 18  1  0  0  0
M  END
> <minimizedAffinity>
-5.56974

> <CNNscore>
0.1214889884

> <CNNaffinity>
6.2369246483

> <CNN_VS>
0.7577176690

> <CNNaffinity_variance>
0.2232653350

$$$$
[H]C1=C([H])C([H])(F)C([H])([H])C([H])=C1N([H])C(=O)C1(C(=O)N([H])c2c([H])c([H])c(Oc3c([H])c([H])nc4c([H])c(OC([H])([H])C([H])([H])C([H])([H])N5C([H])([H])C([H])([H])OC([H])([H])C5([H])[H])c(OC([H])([H])[H])c([H])c34)c(F)c2[H])C([H])([H])C1([H])[H]


 48 53  0  0  0  0  0  0  0  0999 V2000
    8.6661   23.6552    3.7733 C   0  0  0  0  0  0  0  0  0  0  0  0
    9.3247   22.5061    3.3585 C   0  0  0  0  0  0  0  0  0  0  0  0
   10.2925   22.4728    2.3990 C   0  0  0  0  0  0  0  0  0  0  0  0
   10.6671   23.6665    1.7718 C   0  0  0  0  0  0  0  0  0  0  0  0
   10.0431   24.8235    2.1520 C   0  0  0  0  0  0  0  0  0  0  0  0
    9.0491   24.8271    3.1442 C   0  0  0  0  0  0  0  0  0  0  0  0
    8.4977   26.0155    3.4836 F   0  0  0  0  0  0  0  0  0  0  0  0
   11.7207   23.6238    0.7911 N   0  0  0  0  0  0  0  0  0  0  0  0
   12.2458   22.4479    0.3063 C   0  0  0  0  0  0  0  0  0  0  0  0
   11.7592   21.3569    0.8132 O   0  0  0  0  0  0  0  0  0  0  0  0
   12.0609   24.5550    0.5067 H   0  0  0  0  0  0  0  0  0  0  0  0
   13.2939   22.1920   -0.7111 C   0  0  0  0  0  0  0  0  0  0  0  0
   13.4303   20.7357   -1.1224 C   0  0  0  0  0  0  0  0  0  0  0  0
   14.4286   21.2302   -0.1788 C   0  0  0  0  0  0  0  0  0  0  0  0
   13.7961   23.1953   -1.6504 C   0  0  0  0  0  0  0  0  0  0  0  0
   14.1756   22.6862   -2.8015 O   0  0  0  0  0  0  0  0  0  0  0  0
   13.9514   24.5746   -1.5837 N   0  0  0  0  0  0  0  0  0  0  0  0
   13.6836   25.1530   -0.7706 H   0  0  0  0  0  0  0  0  0  0  0  0
   14.4949   25.3220   -2.7181 C   0  0  0  0  0  0  0  0  0  0  0  0
   13.6345   25.8885   -3.5332 C   0  0  0  0  0  0  0  0  0  0  0  0
   13.9653   26.6763   -4.7169 C   0  0  0  0  0  0  0  0  0  0  0  0
   15.4081   26.7894   -5.0211 C   0  0  0  0  0  0  0  0  0  0  0  0
   15.7852   28.1565   -5.0485 F   0  0  0  0  0  0  0  0  0  0  0  0
   16.2811   26.1242   -4.0520 C   0  0  0  0  0  0  0  0  0  0  0  0
   15.8901   25.4471   -2.9916 C   0  0  0  0  0  0  0  0  0  0  0  0
    7.6976   23.6222    4.7523 O   0  0  0  0  0  0  0  0  0  0  0  0
    4.4863   22.3872    6.9730 C   0  0  0  0  0  0  0  0  0  0  0  0
    5.5477   22.8053    6.2184 C   0  0  0  0  0  0  0  0  0  0  0  0
    6.8193   22.6914    6.7374 C   0  0  0  0  0  0  0  0  0  0  0  0
    7.9451   23.1123    5.9969 C   0  0  0  0  0  0  0  0  0  0  0  0
    9.2049   22.9945    6.5353 C   0  0  0  0  0  0  0  0  0  0  0  0
    9.3924   22.4672    7.7940 C   0  0  0  0  0  0  0  0  0  0  0  0
    8.3201   22.0669    8.4953 N   0  0  0  0  0  0  0  0  0  0  0  0
    7.0625   22.1745    7.9837 C   0  0  0  0  0  0  0  0  0  0  0  0
    5.9829   21.7523    8.7444 C   0  0  0  0  0  0  0  0  0  0  0  0
    4.7033   21.8520    8.2535 C   0  0  0  0  0  0  0  0  0  0  0  0
    2.4127   23.6123    6.8203 C   0  0  0  0  0  0  0  0  0  0  0  0
    3.1718   22.4555    6.5531 O   0  0  0  0  0  0  0  0  0  0  0  0
    3.6408   21.4344    8.9864 O   0  0  0  0  0  0  0  0  0  0  0  0
    2.8074   20.3815    8.6630 C   0  0  0  0  0  0  0  0  0  0  0  0
    3.4362   19.0283    8.9639 C   0  0  0  0  0  0  0  0  0  0  0  0
    2.5808   17.9426    8.2971 C   0  0  0  0  0  0  0  0  0  0  0  0
    3.4221   16.7962    8.0604 N   0  0  0  0  0  0  0  0  0  0  0  0
    4.8420   17.1648    8.2675 C   0  0  0  0  0  0  0  0  0  0  0  0
    5.6001   15.8428    8.1158 C   0  0  0  0  0  0  0  0  0  0  0  0
    4.8343   14.8663    7.4789 O   0  0  0  0  0  0  0  0  0  0  0  0
    3.7390   14.4612    8.2672 C   0  0  0  0  0  0  0  0  0  0  0  0
    3.1650   15.6913    8.9824 C   0  0  0  0  0  0  0  0  0  0  0  0
 37 38  1  0  0  0
 38 27  1  0  0  0
 27 28  2  0  0  0
 28 29  1  0  0  0
 29 30  2  0  0  0
 30 26  1  0  0  0
 26  1  1  0  0  0
  1  2  2  0  0  0
  2  3  1  0  0  0
  3  4  2  0  0  0
  4  8  1  0  0  0
  8  9  1  0  0  0
  9 10  2  0  0  0
  9 12  1  0  0  0
 12 13  1  0  0  0
 13 14  1  0  0  0
 12 15  1  0  0  0
 15 16  2  0  0  0
 15 17  1  0  0  0
 17 19  1  0  0  0
 19 20  2  0  0  0
 20 21  1  0  0  0
 21 22  1  0  0  0
 22 23  1  0  0  0
 22 24  1  0  0  0
 24 25  2  0  0  0
  4  5  1  0  0  0
  5  6  2  0  0  0
  6  7  1  0  0  0
 30 31  1  0  0  0
 31 32  2  0  0  0
 32 33  1  0  0  0
 33 34  2  0  0  0
 34 35  1  0  0  0
 35 36  2  0  0  0
 36 39  1  0  0  0
 39 40  1  0  0  0
 40 41  1  0  0  0
 41 42  1  0  0  0
 42 43  1  0  0  0
 43 44  1  0  0  0
 44 45  1  0  0  0
 45 46  1  0  0  0
 46 47  1  0  0  0
 47 48  1  0  0  0
 36 27  1  0  0  0
 48 43  1  0  0  0
 34 29  1  0  0  0
  6  1  1  0  0  0
 14 12  1  0  0  0
 25 19  1  0  0  0
  8 11  1  0  0  0
 17 18  1  0  0  0
M  END
> <minimizedAffinity>
-7.62450

> <CNNscore>
0.1141493917

> <CNNaffinity>
7.0395975113

> <CNN_VS>
0.8035658002

> <CNNaffinity_variance>
0.3214720488

$$$$
[H]C1=C([H])C([H])(F)C([H])([H])C([H])=C1N([H])C(=O)C1(C(=O)N([H])c2c([H])c([H])c(Oc3c([H])c([H])nc4c([H])c(OC([H])([H])C([H])([H])C([H])([H])N5C([H])([H])C([H])([H])OC([H])([H])C5([H])[H])c(OC([H])([H])[H])c([H])c34)c(F)c2[H])C([H])([H])C1([H])[H]


 48 53  0  0  0  0  0  0  0  0999 V2000
    9.7478   22.4291    4.6269 C   0  0  0  0  0  0  0  0  0  0  0  0
   10.5549   21.3231    4.3994 C   0  0  0  0  0  0  0  0  0  0  0  0
   11.1445   21.0280    3.2063 C   0  0  0  0  0  0  0  0  0  0  0  0
   10.9377   21.8829    2.1178 C   0  0  0  0  0  0  0  0  0  0  0  0
   10.1489   22.9863    2.2992 C   0  0  0  0  0  0  0  0  0  0  0  0
    9.5545   23.2650    3.5408 C   0  0  0  0  0  0  0  0  0  0  0  0
    8.8095   24.3897    3.6478 F   0  0  0  0  0  0  0  0  0  0  0  0
   11.6011   21.5830    0.8753 N   0  0  0  0  0  0  0  0  0  0  0  0
   12.7474   22.2239    0.4643 C   0  0  0  0  0  0  0  0  0  0  0  0
   13.1903   23.1559    1.2512 O   0  0  0  0  0  0  0  0  0  0  0  0
   11.1228   20.8630    0.3127 H   0  0  0  0  0  0  0  0  0  0  0  0
   13.5880   22.0434   -0.7438 C   0  0  0  0  0  0  0  0  0  0  0  0
   13.5498   20.6440   -1.3345 C   0  0  0  0  0  0  0  0  0  0  0  0
   14.7253   20.9676   -0.5315 C   0  0  0  0  0  0  0  0  0  0  0  0
   13.9944   23.1285   -1.6374 C   0  0  0  0  0  0  0  0  0  0  0  0
   14.2816   22.7206   -2.8538 O   0  0  0  0  0  0  0  0  0  0  0  0
   14.1354   24.5010   -1.4724 N   0  0  0  0  0  0  0  0  0  0  0  0
   13.9298   25.0072   -0.5955 H   0  0  0  0  0  0  0  0  0  0  0  0
   14.5699   25.3475   -2.5840 C   0  0  0  0  0  0  0  0  0  0  0  0
   15.8376   25.6902   -2.6196 C   0  0  0  0  0  0  0  0  0  0  0  0
   16.4726   26.5224   -3.6371 C   0  0  0  0  0  0  0  0  0  0  0  0
   15.5684   27.0467   -4.6833 C   0  0  0  0  0  0  0  0  0  0  0  0
   16.0192   26.6245   -5.9602 F   0  0  0  0  0  0  0  0  0  0  0  0
   14.1783   26.6057   -4.5530 C   0  0  0  0  0  0  0  0  0  0  0  0
   13.6956   25.8298   -3.6038 C   0  0  0  0  0  0  0  0  0  0  0  0
    9.1831   22.6732    5.8595 O   0  0  0  0  0  0  0  0  0  0  0  0
    5.1912   21.9325    6.3933 C   0  0  0  0  0  0  0  0  0  0  0  0
    6.5204   22.1939    6.2044 C   0  0  0  0  0  0  0  0  0  0  0  0
    7.4510   21.4248    6.8692 C   0  0  0  0  0  0  0  0  0  0  0  0
    8.8337   21.6592    6.7080 C   0  0  0  0  0  0  0  0  0  0  0  0
    9.7456   20.8835    7.3845 C   0  0  0  0  0  0  0  0  0  0  0  0
    9.3330   19.8713    8.2228 C   0  0  0  0  0  0  0  0  0  0  0  0
    8.0176   19.6501    8.3733 N   0  0  0  0  0  0  0  0  0  0  0  0
    7.0956   20.4058    7.7147 C   0  0  0  0  0  0  0  0  0  0  0  0
    5.7467   20.1453    7.9026 C   0  0  0  0  0  0  0  0  0  0  0  0
    4.7954   20.8942    7.2527 C   0  0  0  0  0  0  0  0  0  0  0  0
    3.6144   23.7592    6.4261 C   0  0  0  0  0  0  0  0  0  0  0  0
    4.1752   22.6396    5.7796 O   0  0  0  0  0  0  0  0  0  0  0  0
    3.4734   20.6422    7.4233 O   0  0  0  0  0  0  0  0  0  0  0  0
    2.6770   19.9165    6.5591 C   0  0  0  0  0  0  0  0  0  0  0  0
    3.4099   18.7281    5.9523 C   0  0  0  0  0  0  0  0  0  0  0  0
    2.8109   18.4513    4.5668 C   0  0  0  0  0  0  0  0  0  0  0  0
    3.8979   18.3339    3.6273 N   0  0  0  0  0  0  0  0  0  0  0  0
    3.9560   16.9514    3.0980 C   0  0  0  0  0  0  0  0  0  0  0  0
    5.0530   17.0028    2.0306 C   0  0  0  0  0  0  0  0  0  0  0  0
    5.8665   18.1279    2.1648 O   0  0  0  0  0  0  0  0  0  0  0  0
    5.1652   19.3186    1.8897 C   0  0  0  0  0  0  0  0  0  0  0  0
    3.7448   19.1961    2.4568 C   0  0  0  0  0  0  0  0  0  0  0  0
 37 38  1  0  0  0
 38 27  1  0  0  0
 27 28  2  0  0  0
 28 29  1  0  0  0
 29 30  2  0  0  0
 30 26  1  0  0  0
 26  1  1  0  0  0
  1  2  2  0  0  0
  2  3  1  0  0  0
  3  4  2  0  0  0
  4  8  1  0  0  0
  8  9  1  0  0  0
  9 10  2  0  0  0
  9 12  1  0  0  0
 12 13  1  0  0  0
 13 14  1  0  0  0
 12 15  1  0  0  0
 15 16  2  0  0  0
 15 17  1  0  0  0
 17 19  1  0  0  0
 19 20  2  0  0  0
 20 21  1  0  0  0
 21 22  1  0  0  0
 22 23  1  0  0  0
 22 24  1  0  0  0
 24 25  2  0  0  0
  4  5  1  0  0  0
  5  6  2  0  0  0
  6  7  1  0  0  0
 30 31  1  0  0  0
 31 32  2  0  0  0
 32 33  1  0  0  0
 33 34  2  0  0  0
 34 35  1  0  0  0
 35 36  2  0  0  0
 36 39  1  0  0  0
 39 40  1  0  0  0
 40 41  1  0  0  0
 41 42  1  0  0  0
 42 43  1  0  0  0
 43 44  1  0  0  0
 44 45  1  0  0  0
 45 46  1  0  0  0
 46 47  1  0  0  0
 47 48  1  0  0  0
 36 27  1  0  0  0
 48 43  1  0  0  0
 34 29  1  0  0  0
  6  1  1  0  0  0
 14 12  1  0  0  0
 25 19  1  0  0  0
  8 11  1  0  0  0
 17 18  1  0  0  0
M  END
> <minimizedAffinity>
-8.57465

> <CNNscore>
0.1088023335

> <CNNaffinity>
7.2152152061

> <CNN_VS>
0.7850322723

> <CNNaffinity_variance>
0.3075202703

$$$$
[H]C1=C([H])C([H])(F)C([H])([H])C([H])=C1N([H])C(=O)C1(C(=O)N([H])c2c([H])c([H])c(Oc3c([H])c([H])nc4c([H])c(OC([H])([H])C([H])([H])C([H])([H])N5C([H])([H])C([H])([H])OC([H])([H])C5([H])[H])c(OC([H])([H])[H])c([H])c34)c(F)c2[H])C([H])([H])C1([H])[H]


 48 53  0  0  0  0  0  0  0  0999 V2000
    8.6458   20.9634    0.7058 C   0  0  0  0  0  0  0  0  0  0  0  0
    9.3910   20.9071   -0.4638 C   0  0  0  0  0  0  0  0  0  0  0  0
   10.3966   21.7705   -0.7826 C   0  0  0  0  0  0  0  0  0  0  0  0
   10.7207   22.7950    0.1141 C   0  0  0  0  0  0  0  0  0  0  0  0
   10.0108   22.8858    1.2804 C   0  0  0  0  0  0  0  0  0  0  0  0
    8.9797   21.9813    1.5822 C   0  0  0  0  0  0  0  0  0  0  0  0
    8.3420   22.1207    2.7677 F   0  0  0  0  0  0  0  0  0  0  0  0
   11.8133   23.6733   -0.2151 N   0  0  0  0  0  0  0  0  0  0  0  0
   13.1335   23.3183   -0.0580 C   0  0  0  0  0  0  0  0  0  0  0  0
   13.3492   22.1417    0.4451 O   0  0  0  0  0  0  0  0  0  0  0  0
   11.5131   24.6000   -0.5541 H   0  0  0  0  0  0  0  0  0  0  0  0
   14.3855   24.0524   -0.3620 C   0  0  0  0  0  0  0  0  0  0  0  0
   15.5913   23.6028    0.4456 C   0  0  0  0  0  0  0  0  0  0  0  0
   14.9455   24.8338    0.8917 C   0  0  0  0  0  0  0  0  0  0  0  0
   14.6537   24.7411   -1.6249 C   0  0  0  0  0  0  0  0  0  0  0  0
   15.3100   24.0016   -2.4914 O   0  0  0  0  0  0  0  0  0  0  0  0
   14.3556   26.0111   -2.1035 N   0  0  0  0  0  0  0  0  0  0  0  0
   13.8231   26.7228   -1.5769 H   0  0  0  0  0  0  0  0  0  0  0  0
   14.7670   26.4201   -3.4469 C   0  0  0  0  0  0  0  0  0  0  0  0
   15.9932   26.8691   -3.5901 C   0  0  0  0  0  0  0  0  0  0  0  0
   16.5996   27.3238   -4.8378 C   0  0  0  0  0  0  0  0  0  0  0  0
   15.7104   27.3053   -6.0193 C   0  0  0  0  0  0  0  0  0  0  0  0
   16.2767   26.4882   -7.0310 F   0  0  0  0  0  0  0  0  0  0  0  0
   14.3671   26.7874   -5.7530 C   0  0  0  0  0  0  0  0  0  0  0  0
   13.9103   26.3765   -4.5876 C   0  0  0  0  0  0  0  0  0  0  0  0
    7.6428   20.0569    0.9705 O   0  0  0  0  0  0  0  0  0  0  0  0
    5.0521   18.6183    3.7968 C   0  0  0  0  0  0  0  0  0  0  0  0
    5.9309   19.0897    2.8607 C   0  0  0  0  0  0  0  0  0  0  0  0
    5.4525   19.8775    1.8359 C   0  0  0  0  0  0  0  0  0  0  0  0
    6.3209   20.3845    0.8452 C   0  0  0  0  0  0  0  0  0  0  0  0
    5.8224   21.1646   -0.1716 C   0  0  0  0  0  0  0  0  0  0  0  0
    4.4801   21.4657   -0.2424 C   0  0  0  0  0  0  0  0  0  0  0  0
    3.6570   20.9830    0.7017 N   0  0  0  0  0  0  0  0  0  0  0  0
    4.1272   20.2075    1.7178 C   0  0  0  0  0  0  0  0  0  0  0  0
    3.2407   19.7267    2.6695 C   0  0  0  0  0  0  0  0  0  0  0  0
    3.6879   18.9399    3.7035 C   0  0  0  0  0  0  0  0  0  0  0  0
    6.6936   17.2154    4.8747 C   0  0  0  0  0  0  0  0  0  0  0  0
    5.4213   17.8215    4.8634 O   0  0  0  0  0  0  0  0  0  0  0  0
    2.8303   18.4711    4.6443 O   0  0  0  0  0  0  0  0  0  0  0  0
    2.2020   19.2347    5.6086 C   0  0  0  0  0  0  0  0  0  0  0  0
    3.1447   19.6443    6.7315 C   0  0  0  0  0  0  0  0  0  0  0  0
    2.9270   21.1355    7.0209 C   0  0  0  0  0  0  0  0  0  0  0  0
    4.2100   21.7241    7.3134 N   0  0  0  0  0  0  0  0  0  0  0  0
    5.2856   20.7418    7.0430 C   0  0  0  0  0  0  0  0  0  0  0  0
    6.5798   21.5300    7.2651 C   0  0  0  0  0  0  0  0  0  0  0  0
    6.3647   22.7032    7.9884 O   0  0  0  0  0  0  0  0  0  0  0  0
    5.6010   23.6365    7.2598 C   0  0  0  0  0  0  0  0  0  0  0  0
    4.5177   22.8829    6.4771 C   0  0  0  0  0  0  0  0  0  0  0  0
 37 38  1  0  0  0
 38 27  1  0  0  0
 27 28  2  0  0  0
 28 29  1  0  0  0
 29 30  2  0  0  0
 30 26  1  0  0  0
 26  1  1  0  0  0
  1  2  2  0  0  0
  2  3  1  0  0  0
  3  4  2  0  0  0
  4  8  1  0  0  0
  8  9  1  0  0  0
  9 10  2  0  0  0
  9 12  1  0  0  0
 12 13  1  0  0  0
 13 14  1  0  0  0
 12 15  1  0  0  0
 15 16  2  0  0  0
 15 17  1  0  0  0
 17 19  1  0  0  0
 19 20  2  0  0  0
 20 21  1  0  0  0
 21 22  1  0  0  0
 22 23  1  0  0  0
 22 24  1  0  0  0
 24 25  2  0  0  0
  4  5  1  0  0  0
  5  6  2  0  0  0
  6  7  1  0  0  0
 30 31  1  0  0  0
 31 32  2  0  0  0
 32 33  1  0  0  0
 33 34  2  0  0  0
 34 35  1  0  0  0
 35 36  2  0  0  0
 36 39  1  0  0  0
 39 40  1  0  0  0
 40 41  1  0  0  0
 41 42  1  0  0  0
 42 43  1  0  0  0
 43 44  1  0  0  0
 44 45  1  0  0  0
 45 46  1  0  0  0
 46 47  1  0  0  0
 47 48  1  0  0  0
 36 27  1  0  0  0
 48 43  1  0  0  0
 34 29  1  0  0  0
  6  1  1  0  0  0
 14 12  1  0  0  0
 25 19  1  0  0  0
  8 11  1  0  0  0
 17 18  1  0  0  0
M  END
> <minimizedAffinity>
-6.25504

> <CNNscore>
0.1073811427

> <CNNaffinity>
6.7658081055

> <CNN_VS>
0.7265201807

> <CNNaffinity_variance>
0.6953523755

$$$$
[H]C1=C([H])C([H])(F)C([H])([H])C([H])=C1N([H])C(=O)C1(C(=O)N([H])c2c([H])c([H])c(Oc3c([H])c([H])nc4c([H])c(OC([H])([H])C([H])([H])C([H])([H])N5C([H])([H])C([H])([H])OC([H])([H])C5([H])[H])c(OC([H])([H])[H])c([H])c34)c(F)c2[H])C([H])([H])C1([H])[H]


 48 53  0  0  0  0  0  0  0  0999 V2000
   10.2400   22.6168    3.2734 C   0  0  0  0  0  0  0  0  0  0  0  0
    9.4775   22.4660    4.4233 C   0  0  0  0  0  0  0  0  0  0  0  0
    8.6795   23.4349    4.9549 C   0  0  0  0  0  0  0  0  0  0  0  0
    8.6056   24.6783    4.3169 C   0  0  0  0  0  0  0  0  0  0  0  0
    9.3410   24.8690    3.1788 C   0  0  0  0  0  0  0  0  0  0  0  0
   10.1546   23.8516    2.6539 C   0  0  0  0  0  0  0  0  0  0  0  0
   10.8307   24.1085    1.5101 F   0  0  0  0  0  0  0  0  0  0  0  0
    7.7257   25.6781    4.8645 N   0  0  0  0  0  0  0  0  0  0  0  0
    6.8891   26.4465    4.0877 C   0  0  0  0  0  0  0  0  0  0  0  0
    6.9595   26.2462    2.8076 O   0  0  0  0  0  0  0  0  0  0  0  0
    7.8006   25.7812    5.8881 H   0  0  0  0  0  0  0  0  0  0  0  0
    5.9004   27.4894    4.4533 C   0  0  0  0  0  0  0  0  0  0  0  0
    5.7458   27.7144    5.9480 C   0  0  0  0  0  0  0  0  0  0  0  0
    4.7053   26.9128    5.3107 C   0  0  0  0  0  0  0  0  0  0  0  0
    5.4898   28.5837    3.5729 C   0  0  0  0  0  0  0  0  0  0  0  0
    5.6752   29.7734    4.1007 O   0  0  0  0  0  0  0  0  0  0  0  0
    4.9500   28.6302    2.2933 N   0  0  0  0  0  0  0  0  0  0  0  0
    4.7589   27.7989    1.7103 H   0  0  0  0  0  0  0  0  0  0  0  0
    4.6379   29.9113    1.6590 C   0  0  0  0  0  0  0  0  0  0  0  0
    3.4600   30.4360    1.9101 C   0  0  0  0  0  0  0  0  0  0  0  0
    2.9543   31.6999    1.3830 C   0  0  0  0  0  0  0  0  0  0  0  0
    3.8588   32.4057    0.4499 C   0  0  0  0  0  0  0  0  0  0  0  0
    4.1420   33.7032    0.9481 F   0  0  0  0  0  0  0  0  0  0  0  0
    5.1448   31.7385    0.2386 C   0  0  0  0  0  0  0  0  0  0  0  0
    5.5261   30.5987    0.7783 C   0  0  0  0  0  0  0  0  0  0  0  0
   11.0250   21.5956    2.7850 O   0  0  0  0  0  0  0  0  0  0  0  0
   14.1066   22.4482    0.2266 C   0  0  0  0  0  0  0  0  0  0  0  0
   13.0856   22.1729    1.0941 C   0  0  0  0  0  0  0  0  0  0  0  0
   11.9974   21.4614    0.6368 C   0  0  0  0  0  0  0  0  0  0  0  0
   10.9185   21.1560    1.4944 C   0  0  0  0  0  0  0  0  0  0  0  0
    9.8399   20.4493    1.0168 C   0  0  0  0  0  0  0  0  0  0  0  0
    9.7915   20.0277   -0.2937 C   0  0  0  0  0  0  0  0  0  0  0  0
   10.8194   20.3188   -1.1065 N   0  0  0  0  0  0  0  0  0  0  0  0
   11.8979   21.0182   -0.6567 C   0  0  0  0  0  0  0  0  0  0  0  0
   12.9358   21.3004   -1.5319 C   0  0  0  0  0  0  0  0  0  0  0  0
   14.0345   22.0067   -1.1050 C   0  0  0  0  0  0  0  0  0  0  0  0
   15.2704   24.5535    0.4206 C   0  0  0  0  0  0  0  0  0  0  0  0
   15.2421   23.1532    0.5768 O   0  0  0  0  0  0  0  0  0  0  0  0
   15.0589   22.2811   -1.9510 O   0  0  0  0  0  0  0  0  0  0  0  0
   14.9560   22.3995   -3.3233 C   0  0  0  0  0  0  0  0  0  0  0  0
   15.5959   23.6780   -3.8462 C   0  0  0  0  0  0  0  0  0  0  0  0
   14.8051   24.8713   -3.2932 C   0  0  0  0  0  0  0  0  0  0  0  0
   15.0126   25.9908   -4.1774 N   0  0  0  0  0  0  0  0  0  0  0  0
   16.1146   26.8376   -3.6641 C   0  0  0  0  0  0  0  0  0  0  0  0
   16.3127   27.8976   -4.7516 C   0  0  0  0  0  0  0  0  0  0  0  0
   15.2195   27.9782   -5.6142 O   0  0  0  0  0  0  0  0  0  0  0  0
   15.0793   26.8133   -6.3942 C   0  0  0  0  0  0  0  0  0  0  0  0
   15.4172   25.5947   -5.5251 C   0  0  0  0  0  0  0  0  0  0  0  0
 37 38  1  0  0  0
 38 27  1  0  0  0
 27 28  2  0  0  0
 28 29  1  0  0  0
 29 30  2  0  0  0
 30 26  1  0  0  0
 26  1  1  0  0  0
  1  2  2  0  0  0
  2  3  1  0  0  0
  3  4  2  0  0  0
  4  8  1  0  0  0
  8  9  1  0  0  0
  9 10  2  0  0  0
  9 12  1  0  0  0
 12 13  1  0  0  0
 13 14  1  0  0  0
 12 15  1  0  0  0
 15 16  2  0  0  0
 15 17  1  0  0  0
 17 19  1  0  0  0
 19 20  2  0  0  0
 20 21  1  0  0  0
 21 22  1  0  0  0
 22 23  1  0  0  0
 22 24  1  0  0  0
 24 25  2  0  0  0
  4  5  1  0  0  0
  5  6  2  0  0  0
  6  7  1  0  0  0
 30 31  1  0  0  0
 31 32  2  0  0  0
 32 33  1  0  0  0
 33 34  2  0  0  0
 34 35  1  0  0  0
 35 36  2  0  0  0
 36 39  1  0  0  0
 39 40  1  0  0  0
 40 41  1  0  0  0
 41 42  1  0  0  0
 42 43  1  0  0  0
 43 44  1  0  0  0
 44 45  1  0  0  0
 45 46  1  0  0  0
 46 47  1  0  0  0
 47 48  1  0  0  0
 36 27  1  0  0  0
 48 43  1  0  0  0
 34 29  1  0  0  0
  6  1  1  0  0  0
 14 12  1  0  0  0
 25 19  1  0  0  0
  8 11  1  0  0  0
 17 18  1  0  0  0
M  END
> <minimizedAffinity>
-6.74818

> <CNNscore>
0.0999029428

> <CNNaffinity>
7.0768523216

> <CNN_VS>
0.7069983482

> <CNNaffinity_variance>
0.0368355699

$$$$
[H]C1=C([H])C([H])(F)C([H])([H])C([H])=C1N([H])C(=O)C1(C(=O)N([H])c2c([H])c([H])c(Oc3c([H])c([H])nc4c([H])c(OC([H])([H])C([H])([H])C([H])([H])N5C([H])([H])C([H])([H])OC([H])([H])C5([H])[H])c(OC([H])([H])[H])c([H])c34)c(F)c2[H])C([H])([H])C1([H])[H]


 48 53  0  0  0  0  0  0  0  0999 V2000
    8.8742   22.6831    2.5085 C   0  0  0  0  0  0  0  0  0  0  0  0
    9.9378   21.8141    2.7084 C   0  0  0  0  0  0  0  0  0  0  0  0
   11.1251   21.8784    2.0418 C   0  0  0  0  0  0  0  0  0  0  0  0
   11.3112   22.8809    1.0831 C   0  0  0  0  0  0  0  0  0  0  0  0
   10.2875   23.7600    0.8555 C   0  0  0  0  0  0  0  0  0  0  0  0
    9.0749   23.6692    1.5583 C   0  0  0  0  0  0  0  0  0  0  0  0
    8.1204   24.5919    1.2956 F   0  0  0  0  0  0  0  0  0  0  0  0
   12.5854   22.9642    0.4174 N   0  0  0  0  0  0  0  0  0  0  0  0
   13.2794   24.1436    0.2727 C   0  0  0  0  0  0  0  0  0  0  0  0
   12.7004   25.2049    0.7443 O   0  0  0  0  0  0  0  0  0  0  0  0
   12.9151   22.0636    0.0379 H   0  0  0  0  0  0  0  0  0  0  0  0
   14.5979   24.4324   -0.3414 C   0  0  0  0  0  0  0  0  0  0  0  0
   15.7630   23.6888    0.2896 C   0  0  0  0  0  0  0  0  0  0  0  0
   15.6088   25.0867    0.6813 C   0  0  0  0  0  0  0  0  0  0  0  0
   14.7840   24.9159   -1.7098 C   0  0  0  0  0  0  0  0  0  0  0  0
   13.6575   25.0347   -2.3771 O   0  0  0  0  0  0  0  0  0  0  0  0
   15.9009   25.2815   -2.4512 N   0  0  0  0  0  0  0  0  0  0  0  0
   16.8682   25.2798   -2.0881 H   0  0  0  0  0  0  0  0  0  0  0  0
   15.7640   25.7391   -3.8343 C   0  0  0  0  0  0  0  0  0  0  0  0
   15.9439   27.0197   -4.0651 C   0  0  0  0  0  0  0  0  0  0  0  0
   15.8555   27.6775   -5.3653 C   0  0  0  0  0  0  0  0  0  0  0  0
   15.4842   26.8001   -6.4964 C   0  0  0  0  0  0  0  0  0  0  0  0
   16.4951   26.8478   -7.4903 F   0  0  0  0  0  0  0  0  0  0  0  0
   15.3074   25.3929   -6.1332 C   0  0  0  0  0  0  0  0  0  0  0  0
   15.4291   24.8816   -4.9250 C   0  0  0  0  0  0  0  0  0  0  0  0
    7.6995   22.5663    3.2185 O   0  0  0  0  0  0  0  0  0  0  0  0
    5.3687   21.1476    6.2720 C   0  0  0  0  0  0  0  0  0  0  0  0
    6.1564   21.6315    5.2639 C   0  0  0  0  0  0  0  0  0  0  0  0
    5.9709   21.1513    3.9854 C   0  0  0  0  0  0  0  0  0  0  0  0
    6.7618   21.6187    2.9136 C   0  0  0  0  0  0  0  0  0  0  0  0
    6.5638   21.1229    1.6464 C   0  0  0  0  0  0  0  0  0  0  0  0
    5.5987   20.1716    1.3992 C   0  0  0  0  0  0  0  0  0  0  0  0
    4.8475   19.7299    2.4202 N   0  0  0  0  0  0  0  0  0  0  0  0
    5.0257   20.2052    3.6840 C   0  0  0  0  0  0  0  0  0  0  0  0
    4.2301   19.7180    4.7098 C   0  0  0  0  0  0  0  0  0  0  0  0
    4.3906   20.1782    5.9946 C   0  0  0  0  0  0  0  0  0  0  0  0
    5.2277   22.9047    7.9203 C   0  0  0  0  0  0  0  0  0  0  0  0
    5.4688   21.5566    7.5879 O   0  0  0  0  0  0  0  0  0  0  0  0
    3.6120   19.7141    7.0039 O   0  0  0  0  0  0  0  0  0  0  0  0
    2.2526   19.4823    6.9266 C   0  0  0  0  0  0  0  0  0  0  0  0
    1.9234   18.0064    6.7505 C   0  0  0  0  0  0  0  0  0  0  0  0
    2.0040   17.3294    8.1252 C   0  0  0  0  0  0  0  0  0  0  0  0
    3.0132   16.3023    8.0570 N   0  0  0  0  0  0  0  0  0  0  0  0
    4.3298   16.8672    8.4342 C   0  0  0  0  0  0  0  0  0  0  0  0
    5.2687   15.6574    8.4473 C   0  0  0  0  0  0  0  0  0  0  0  0
    4.7337   14.5676    7.7605 O   0  0  0  0  0  0  0  0  0  0  0  0
    3.6025   14.0394    8.4138 C   0  0  0  0  0  0  0  0  0  0  0  0
    2.7783   15.1995    8.9875 C   0  0  0  0  0  0  0  0  0  0  0  0
 37 38  1  0  0  0
 38 27  1  0  0  0
 27 28  2  0  0  0
 28 29  1  0  0  0
 29 30  2  0  0  0
 30 26  1  0  0  0
 26  1  1  0  0  0
  1  2  2  0  0  0
  2  3  1  0  0  0
  3  4  2  0  0  0
  4  8  1  0  0  0
  8  9  1  0  0  0
  9 10  2  0  0  0
  9 12  1  0  0  0
 12 13  1  0  0  0
 13 14  1  0  0  0
 12 15  1  0  0  0
 15 16  2  0  0  0
 15 17  1  0  0  0
 17 19  1  0  0  0
 19 20  2  0  0  0
 20 21  1  0  0  0
 21 22  1  0  0  0
 22 23  1  0  0  0
 22 24  1  0  0  0
 24 25  2  0  0  0
  4  5  1  0  0  0
  5  6  2  0  0  0
  6  7  1  0  0  0
 30 31  1  0  0  0
 31 32  2  0  0  0
 32 33  1  0  0  0
 33 34  2  0  0  0
 34 35  1  0  0  0
 35 36  2  0  0  0
 36 39  1  0  0  0
 39 40  1  0  0  0
 40 41  1  0  0  0
 41 42  1  0  0  0
 42 43  1  0  0  0
 43 44  1  0  0  0
 44 45  1  0  0  0
 45 46  1  0  0  0
 46 47  1  0  0  0
 47 48  1  0  0  0
 36 27  1  0  0  0
 48 43  1  0  0  0
 34 29  1  0  0  0
  6  1  1  0  0  0
 14 12  1  0  0  0
 25 19  1  0  0  0
  8 11  1  0  0  0
 17 18  1  0  0  0
M  END
> <minimizedAffinity>
-7.32793

> <CNNscore>
0.0857028663

> <CNNaffinity>
6.6102929115

> <CNN_VS>
0.5665210485

> <CNNaffinity_variance>
0.3849418759

$$$$
[H]C1=C([H])C([H])(F)C([H])([H])C([H])=C1N([H])C(=O)C1(C(=O)N([H])c2c([H])c([H])c(Oc3c([H])c([H])nc4c([H])c(OC([H])([H])C([H])([H])C([H])([H])N5C([H])([H])C([H])([H])OC([H])([H])C5([H])[H])c(OC([H])([H])[H])c([H])c34)c(F)c2[H])C([H])([H])C1([H])[H]


 48 53  0  0  0  0  0  0  0  0999 V2000
    9.3654   23.9287    4.1940 C   0  0  0  0  0  0  0  0  0  0  0  0
    9.7956   22.6349    3.9346 C   0  0  0  0  0  0  0  0  0  0  0  0
   10.3619   22.2282    2.7633 C   0  0  0  0  0  0  0  0  0  0  0  0
   10.5331   23.1599    1.7332 C   0  0  0  0  0  0  0  0  0  0  0  0
   10.1234   24.4478    1.9478 C   0  0  0  0  0  0  0  0  0  0  0  0
    9.5430   24.8381    3.1658 C   0  0  0  0  0  0  0  0  0  0  0  0
    9.1880   26.1359    3.3108 F   0  0  0  0  0  0  0  0  0  0  0  0
   11.1719   22.7275    0.5173 N   0  0  0  0  0  0  0  0  0  0  0  0
   12.4873   23.0043    0.2226 C   0  0  0  0  0  0  0  0  0  0  0  0
   13.1267   23.7195    1.0963 O   0  0  0  0  0  0  0  0  0  0  0  0
   10.5449   22.2145   -0.1212 H   0  0  0  0  0  0  0  0  0  0  0  0
   13.3278   22.6295   -0.9402 C   0  0  0  0  0  0  0  0  0  0  0  0
   13.1197   21.2084   -1.4358 C   0  0  0  0  0  0  0  0  0  0  0  0
   14.3064   21.4325   -0.6155 C   0  0  0  0  0  0  0  0  0  0  0  0
   13.8976   23.5855   -1.8902 C   0  0  0  0  0  0  0  0  0  0  0  0
   14.4580   23.0120   -2.9321 O   0  0  0  0  0  0  0  0  0  0  0  0
   13.9662   24.9729   -1.9257 N   0  0  0  0  0  0  0  0  0  0  0  0
   13.5586   25.5956   -1.2091 H   0  0  0  0  0  0  0  0  0  0  0  0
   14.6176   25.6615   -3.0404 C   0  0  0  0  0  0  0  0  0  0  0  0
   13.8797   25.9357   -4.0921 C   0  0  0  0  0  0  0  0  0  0  0  0
   14.3311   26.6147   -5.3030 C   0  0  0  0  0  0  0  0  0  0  0  0
   15.7656   26.9728   -5.3324 C   0  0  0  0  0  0  0  0  0  0  0  0
   15.9053   28.3726   -5.5147 F   0  0  0  0  0  0  0  0  0  0  0  0
   16.4976   26.6250   -4.1131 C   0  0  0  0  0  0  0  0  0  0  0  0
   15.9976   26.0257   -3.0516 C   0  0  0  0  0  0  0  0  0  0  0  0
    8.8029   24.2771    5.4023 O   0  0  0  0  0  0  0  0  0  0  0  0
    7.2227   21.4325    7.8882 C   0  0  0  0  0  0  0  0  0  0  0  0
    7.7668   22.3753    7.0601 C   0  0  0  0  0  0  0  0  0  0  0  0
    6.9335   23.2938    6.4589 C   0  0  0  0  0  0  0  0  0  0  0  0
    7.4489   24.2834    5.5942 C   0  0  0  0  0  0  0  0  0  0  0  0
    6.5995   25.1873    5.0006 C   0  0  0  0  0  0  0  0  0  0  0  0
    5.2430   25.1473    5.2367 C   0  0  0  0  0  0  0  0  0  0  0  0
    4.7559   24.2058    6.0602 N   0  0  0  0  0  0  0  0  0  0  0  0
    5.5772   23.2992    6.6589 C   0  0  0  0  0  0  0  0  0  0  0  0
    5.0309   22.3411    7.4993 C   0  0  0  0  0  0  0  0  0  0  0  0
    5.8364   21.4128    8.1139 C   0  0  0  0  0  0  0  0  0  0  0  0
    9.3703   20.5137    8.4948 C   0  0  0  0  0  0  0  0  0  0  0  0
    7.9626   20.4653    8.5409 O   0  0  0  0  0  0  0  0  0  0  0  0
    5.3130   20.4764    8.9443 O   0  0  0  0  0  0  0  0  0  0  0  0
    4.1705   19.7387    8.7026 C   0  0  0  0  0  0  0  0  0  0  0  0
    4.3642   18.7128    7.5947 C   0  0  0  0  0  0  0  0  0  0  0  0
    5.2734   17.5972    8.1273 C   0  0  0  0  0  0  0  0  0  0  0  0
    6.5225   17.6609    7.4106 N   0  0  0  0  0  0  0  0  0  0  0  0
    7.1396   16.3151    7.3579 C   0  0  0  0  0  0  0  0  0  0  0  0
    8.3725   16.5008    6.4686 C   0  0  0  0  0  0  0  0  0  0  0  0
    8.7289   17.8428    6.3354 O   0  0  0  0  0  0  0  0  0  0  0  0
    7.7631   18.5733    5.6151 C   0  0  0  0  0  0  0  0  0  0  0  0
    6.3683   18.0765    6.0176 C   0  0  0  0  0  0  0  0  0  0  0  0
 37 38  1  0  0  0
 38 27  1  0  0  0
 27 28  2  0  0  0
 28 29  1  0  0  0
 29 30  2  0  0  0
 30 26  1  0  0  0
 26  1  1  0  0  0
  1  2  2  0  0  0
  2  3  1  0  0  0
  3  4  2  0  0  0
  4  8  1  0  0  0
  8  9  1  0  0  0
  9 10  2  0  0  0
  9 12  1  0  0  0
 12 13  1  0  0  0
 13 14  1  0  0  0
 12 15  1  0  0  0
 15 16  2  0  0  0
 15 17  1  0  0  0
 17 19  1  0  0  0
 19 20  2  0  0  0
 20 21  1  0  0  0
 21 22  1  0  0  0
 22 23  1  0  0  0
 22 24  1  0  0  0
 24 25  2  0  0  0
  4  5  1  0  0  0
  5  6  2  0  0  0
  6  7  1  0  0  0
 30 31  1  0  0  0
 31 32  2  0  0  0
 32 33  1  0  0  0
 33 34  2  0  0  0
 34 35  1  0  0  0
 35 36  2  0  0  0
 36 39  1  0  0  0
 39 40  1  0  0  0
 40 41  1  0  0  0
 41 42  1  0  0  0
 42 43  1  0  0  0
 43 44  1  0  0  0
 44 45  1  0  0  0
 45 46  1  0  0  0
 46 47  1  0  0  0
 47 48  1  0  0  0
 36 27  1  0  0  0
 48 43  1  0  0  0
 34 29  1  0  0  0
  6  1  1  0  0  0
 14 12  1  0  0  0
 25 19  1  0  0  0
  8 11  1  0  0  0
 17 18  1  0  0  0
M  END
> <minimizedAffinity>
-8.68037

> <CNNscore>
0.0808085874

> <CNNaffinity>
6.9816436768

> <CNN_VS>
0.5641767383

> <CNNaffinity_variance>
0.2254244089

$$$$
[H]C1=C([H])C([H])(F)C([H])([H])C([H])=C1N([H])C(=O)C1(C(=O)N([H])c2c([H])c([H])c(Oc3c([H])c([H])nc4c([H])c(OC([H])([H])C([H])([H])C([H])([H])N5C([H])([H])C([H])([H])OC([H])([H])C5([H])[H])c(OC([H])([H])[H])c([H])c34)c(F)c2[H])C([H])([H])C1([H])[H]


 48 53  0  0  0  0  0  0  0  0999 V2000
    7.2196   20.5444   -0.0149 C   0  0  0  0  0  0  0  0  0  0  0  0
    8.0426   20.2512   -1.0934 C   0  0  0  0  0  0  0  0  0  0  0  0
    9.2631   20.8175   -1.3116 C   0  0  0  0  0  0  0  0  0  0  0  0
    9.7442   21.7643   -0.4001 C   0  0  0  0  0  0  0  0  0  0  0  0
    8.9645   22.0819    0.6786 C   0  0  0  0  0  0  0  0  0  0  0  0
    7.7105   21.4815    0.8776 C   0  0  0  0  0  0  0  0  0  0  0  0
    7.0106   21.8286    1.9826 F   0  0  0  0  0  0  0  0  0  0  0  0
   11.0533   22.3227   -0.6191 N   0  0  0  0  0  0  0  0  0  0  0  0
   12.1898   21.5528   -0.7156 C   0  0  0  0  0  0  0  0  0  0  0  0
   12.0249   20.2750   -0.5608 O   0  0  0  0  0  0  0  0  0  0  0  0
   11.0618   23.3528   -0.6708 H   0  0  0  0  0  0  0  0  0  0  0  0
   13.6033   21.9243   -0.9663 C   0  0  0  0  0  0  0  0  0  0  0  0
   14.5933   20.7839   -0.8000 C   0  0  0  0  0  0  0  0  0  0  0  0
   14.5134   21.7286    0.3102 C   0  0  0  0  0  0  0  0  0  0  0  0
   14.0263   23.0528   -1.7961 C   0  0  0  0  0  0  0  0  0  0  0  0
   14.5237   22.6872   -2.9568 O   0  0  0  0  0  0  0  0  0  0  0  0
   14.0079   24.4308   -1.6176 N   0  0  0  0  0  0  0  0  0  0  0  0
   13.6300   24.9056   -0.7815 H   0  0  0  0  0  0  0  0  0  0  0  0
   14.5131   25.3268   -2.6582 C   0  0  0  0  0  0  0  0  0  0  0  0
   15.7862   25.6473   -2.6102 C   0  0  0  0  0  0  0  0  0  0  0  0
   16.4866   26.5204   -3.5474 C   0  0  0  0  0  0  0  0  0  0  0  0
   15.6466   27.1160   -4.6088 C   0  0  0  0  0  0  0  0  0  0  0  0
   16.1568   26.7539   -5.8818 F   0  0  0  0  0  0  0  0  0  0  0  0
   14.2449   26.6946   -4.5740 C   0  0  0  0  0  0  0  0  0  0  0  0
   13.7011   25.8787   -3.6941 C   0  0  0  0  0  0  0  0  0  0  0  0
    5.9961   19.9334    0.1505 O   0  0  0  0  0  0  0  0  0  0  0  0
    5.4316   18.4007    3.9056 C   0  0  0  0  0  0  0  0  0  0  0  0
    5.6216   18.9292    2.6584 C   0  0  0  0  0  0  0  0  0  0  0  0
    5.6787   18.0775    1.5763 C   0  0  0  0  0  0  0  0  0  0  0  0
    5.8762   18.5764    0.2706 C   0  0  0  0  0  0  0  0  0  0  0  0
    5.9351   17.7090   -0.7947 C   0  0  0  0  0  0  0  0  0  0  0  0
    5.8021   16.3502   -0.6119 C   0  0  0  0  0  0  0  0  0  0  0  0
    5.6134   15.8789    0.6307 N   0  0  0  0  0  0  0  0  0  0  0  0
    5.5526   16.7181    1.7016 C   0  0  0  0  0  0  0  0  0  0  0  0
    5.3602   16.1878    2.9682 C   0  0  0  0  0  0  0  0  0  0  0  0
    5.2977   17.0116    4.0663 C   0  0  0  0  0  0  0  0  0  0  0  0
    6.1368   20.3294    5.1733 C   0  0  0  0  0  0  0  0  0  0  0  0
    5.3595   19.1596    5.0579 O   0  0  0  0  0  0  0  0  0  0  0  0
    5.1019   16.5037    5.3088 O   0  0  0  0  0  0  0  0  0  0  0  0
    5.9979   15.7144    6.0031 C   0  0  0  0  0  0  0  0  0  0  0  0
    5.8195   15.8208    7.5112 C   0  0  0  0  0  0  0  0  0  0  0  0
    6.1465   17.2597    7.9327 C   0  0  0  0  0  0  0  0  0  0  0  0
    4.9040   17.9795    8.0597 N   0  0  0  0  0  0  0  0  0  0  0  0
    3.9257   17.1619    8.8143 C   0  0  0  0  0  0  0  0  0  0  0  0
    2.7168   18.0860    8.9872 C   0  0  0  0  0  0  0  0  0  0  0  0
    2.7479   19.1653    8.1043 O   0  0  0  0  0  0  0  0  0  0  0  0
    3.8071   20.0487    8.3922 C   0  0  0  0  0  0  0  0  0  0  0  0
    5.0340   19.2273    8.8100 C   0  0  0  0  0  0  0  0  0  0  0  0
 37 38  1  0  0  0
 38 27  1  0  0  0
 27 28  2  0  0  0
 28 29  1  0  0  0
 29 30  2  0  0  0
 30 26  1  0  0  0
 26  1  1  0  0  0
  1  2  2  0  0  0
  2  3  1  0  0  0
  3  4  2  0  0  0
  4  8  1  0  0  0
  8  9  1  0  0  0
  9 10  2  0  0  0
  9 12  1  0  0  0
 12 13  1  0  0  0
 13 14  1  0  0  0
 12 15  1  0  0  0
 15 16  2  0  0  0
 15 17  1  0  0  0
 17 19  1  0  0  0
 19 20  2  0  0  0
 20 21  1  0  0  0
 21 22  1  0  0  0
 22 23  1  0  0  0
 22 24  1  0  0  0
 24 25  2  0  0  0
  4  5  1  0  0  0
  5  6  2  0  0  0
  6  7  1  0  0  0
 30 31  1  0  0  0
 31 32  2  0  0  0
 32 33  1  0  0  0
 33 34  2  0  0  0
 34 35  1  0  0  0
 35 36  2  0  0  0
 36 39  1  0  0  0
 39 40  1  0  0  0
 40 41  1  0  0  0
 41 42  1  0  0  0
 42 43  1  0  0  0
 43 44  1  0  0  0
 44 45  1  0  0  0
 45 46  1  0  0  0
 46 47  1  0  0  0
 47 48  1  0  0  0
 36 27  1  0  0  0
 48 43  1  0  0  0
 34 29  1  0  0  0
  6  1  1  0  0  0
 14 12  1  0  0  0
 25 19  1  0  0  0
  8 11  1  0  0  0
 17 18  1  0  0  0
M  END
> <minimizedAffinity>
-8.18634

> <CNNscore>
0.0801015496

> <CNNaffinity>
6.8201112747

> <CNN_VS>
0.5463014841

> <CNNaffinity_variance>
0.2285491973

$$$$
[H]C1=C([H])C([H])(F)C([H])([H])C([H])=C1N([H])C(=O)C1(C(=O)N([H])c2c([H])c([H])c(Oc3c([H])c([H])nc4c([H])c(OC([H])([H])C([H])([H])C([H])([H])N5C([H])([H])C([H])([H])OC([H])([H])C5([H])[H])c(OC([H])([H])[H])c([H])c34)c(F)c2[H])C([H])([H])C1([H])[H]


 48 53  0  0  0  0  0  0  0  0999 V2000
   10.0134   22.4081    4.6908 C   0  0  0  0  0  0  0  0  0  0  0  0
    9.7098   23.1407    3.5517 C   0  0  0  0  0  0  0  0  0  0  0  0
   10.2693   22.9327    2.3262 C   0  0  0  0  0  0  0  0  0  0  0  0
   11.2194   21.9159    2.1782 C   0  0  0  0  0  0  0  0  0  0  0  0
   11.5472   21.1684    3.2765 C   0  0  0  0  0  0  0  0  0  0  0  0
   10.9537   21.4057    4.5271 C   0  0  0  0  0  0  0  0  0  0  0  0
   11.3108   20.6065    5.5592 F   0  0  0  0  0  0  0  0  0  0  0  0
   11.7705   21.6784    0.8691 N   0  0  0  0  0  0  0  0  0  0  0  0
   12.8949   22.3195    0.4020 C   0  0  0  0  0  0  0  0  0  0  0  0
   13.4246   23.1928    1.2024 O   0  0  0  0  0  0  0  0  0  0  0  0
   11.2293   21.0037    0.3072 H   0  0  0  0  0  0  0  0  0  0  0  0
   13.6284   22.1954   -0.8808 C   0  0  0  0  0  0  0  0  0  0  0  0
   13.4001   20.8836   -1.6126 C   0  0  0  0  0  0  0  0  0  0  0  0
   14.6549   20.9944   -0.8744 C   0  0  0  0  0  0  0  0  0  0  0  0
   14.0885   23.3297   -1.6826 C   0  0  0  0  0  0  0  0  0  0  0  0
   13.2963   24.3760   -1.6062 O   0  0  0  0  0  0  0  0  0  0  0  0
   15.1902   23.5357   -2.5040 N   0  0  0  0  0  0  0  0  0  0  0  0
   15.9355   22.8387   -2.6660 H   0  0  0  0  0  0  0  0  0  0  0  0
   15.3838   24.8137   -3.1896 C   0  0  0  0  0  0  0  0  0  0  0  0
   16.2581   25.6472   -2.6731 C   0  0  0  0  0  0  0  0  0  0  0  0
   16.6009   26.9652   -3.1991 C   0  0  0  0  0  0  0  0  0  0  0  0
   15.8441   27.3866   -4.3977 C   0  0  0  0  0  0  0  0  0  0  0  0
   16.7443   27.6659   -5.4577 F   0  0  0  0  0  0  0  0  0  0  0  0
   14.8967   26.3864   -4.8933 C   0  0  0  0  0  0  0  0  0  0  0  0
   14.6668   25.2036   -4.3605 C   0  0  0  0  0  0  0  0  0  0  0  0
    9.4091   22.6666    5.9014 O   0  0  0  0  0  0  0  0  0  0  0  0
    6.2079   20.6014    4.3993 C   0  0  0  0  0  0  0  0  0  0  0  0
    7.2769   21.3019    4.8865 C   0  0  0  0  0  0  0  0  0  0  0  0
    7.7791   20.9724    6.1270 C   0  0  0  0  0  0  0  0  0  0  0  0
    8.8791   21.6691    6.6723 C   0  0  0  0  0  0  0  0  0  0  0  0
    9.3616   21.3277    7.9138 C   0  0  0  0  0  0  0  0  0  0  0  0
    8.7888   20.3085    8.6423 C   0  0  0  0  0  0  0  0  0  0  0  0
    7.7436   19.6471    8.1207 N   0  0  0  0  0  0  0  0  0  0  0  0
    7.2475   19.9678    6.8936 C   0  0  0  0  0  0  0  0  0  0  0  0
    6.1638   19.2610    6.3948 C   0  0  0  0  0  0  0  0  0  0  0  0
    5.6417   19.5656    5.1608 C   0  0  0  0  0  0  0  0  0  0  0  0
    6.3081   21.6275    2.2172 C   0  0  0  0  0  0  0  0  0  0  0  0
    5.6246   20.8471    3.1712 O   0  0  0  0  0  0  0  0  0  0  0  0
    4.5868   18.8750    4.6602 O   0  0  0  0  0  0  0  0  0  0  0  0
    4.5688   17.5198    4.3940 C   0  0  0  0  0  0  0  0  0  0  0  0
    3.6393   17.1658    3.2415 C   0  0  0  0  0  0  0  0  0  0  0  0
    2.1920   17.3242    3.7263 C   0  0  0  0  0  0  0  0  0  0  0  0
    2.2143   17.4425    5.1628 N   0  0  0  0  0  0  0  0  0  0  0  0
    1.5275   18.6893    5.5739 C   0  0  0  0  0  0  0  0  0  0  0  0
    1.5087   18.6218    7.1038 C   0  0  0  0  0  0  0  0  0  0  0  0
    2.4253   17.6958    7.6018 O   0  0  0  0  0  0  0  0  0  0  0  0
    2.0700   16.3738    7.2682 C   0  0  0  0  0  0  0  0  0  0  0  0
    1.5035   16.3608    5.8423 C   0  0  0  0  0  0  0  0  0  0  0  0
 37 38  1  0  0  0
 38 27  1  0  0  0
 27 28  2  0  0  0
 28 29  1  0  0  0
 29 30  2  0  0  0
 30 26  1  0  0  0
 26  1  1  0  0  0
  1  2  2  0  0  0
  2  3  1  0  0  0
  3  4  2  0  0  0
  4  8  1  0  0  0
  8  9  1  0  0  0
  9 10  2  0  0  0
  9 12  1  0  0  0
 12 13  1  0  0  0
 13 14  1  0  0  0
 12 15  1  0  0  0
 15 16  2  0  0  0
 15 17  1  0  0  0
 17 19  1  0  0  0
 19 20  2  0  0  0
 20 21  1  0  0  0
 21 22  1  0  0  0
 22 23  1  0  0  0
 22 24  1  0  0  0
 24 25  2  0  0  0
  4  5  1  0  0  0
  5  6  2  0  0  0
  6  7  1  0  0  0
 30 31  1  0  0  0
 31 32  2  0  0  0
 32 33  1  0  0  0
 33 34  2  0  0  0
 34 35  1  0  0  0
 35 36  2  0  0  0
 36 39  1  0  0  0
 39 40  1  0  0  0
 40 41  1  0  0  0
 41 42  1  0  0  0
 42 43  1  0  0  0
 43 44  1  0  0  0
 44 45  1  0  0  0
 45 46  1  0  0  0
 46 47  1  0  0  0
 47 48  1  0  0  0
 36 27  1  0  0  0
 48 43  1  0  0  0
 34 29  1  0  0  0
  6  1  1  0  0  0
 14 12  1  0  0  0
 25 19  1  0  0  0
  8 11  1  0  0  0
 17 18  1  0  0  0
M  END
> <minimizedAffinity>
-7.90366

> <CNNscore>
0.0783754140

> <CNNaffinity>
6.7751479149

> <CNN_VS>
0.5310050249

> <CNNaffinity_variance>
0.2389366180

$$$$
[H]C1=C(C(=O)[O-])N2C(=O)/C(=C(\[H])c3c([H])c([H])c([H])c([H])c3[H])[C@@]2([H])S1


 18 20  0  0  0  0  0  0  0  0999 V2000
   12.1273   23.7842    0.1977 C   0  0  0  0  0  0  0  0  0  0  0  0
   11.3730   24.4109   -0.6840 C   0  0  0  0  0  0  0  0  0  0  0  0
   12.4813   25.2650   -1.7951 S   0  0  0  0  0  0  0  0  0  0  0  0
   13.8914   25.1581   -0.6459 C   0  0  0  0  0  0  0  0  0  0  0  0
   13.5009   23.9341    0.0421 N   0  0  0  0  0  0  0  0  0  0  0  0
   14.8831   23.6348    0.1274 C   0  0  0  0  0  0  0  0  0  0  0  0
   15.6523   22.9720    0.9056 O   0  0  0  0  0  0  0  0  0  0  0  0
   15.0608   24.4306   -1.0916 C   0  0  0  0  0  0  0  0  0  0  0  0
   15.9353   24.3905   -2.0661 C   0  0  0  0  0  0  0  0  0  0  0  0
   15.8355   25.3403   -3.1578 C   0  0  0  0  0  0  0  0  0  0  0  0
   15.1406   25.0683   -4.3078 C   0  0  0  0  0  0  0  0  0  0  0  0
   15.0326   25.9385   -5.3546 C   0  0  0  0  0  0  0  0  0  0  0  0
   15.6442   27.1670   -5.2838 C   0  0  0  0  0  0  0  0  0  0  0  0
   16.3541   27.4863   -4.1468 C   0  0  0  0  0  0  0  0  0  0  0  0
   16.4486   26.5761   -3.0875 C   0  0  0  0  0  0  0  0  0  0  0  0
   12.2452   22.1005    1.9684 O   0  0  0  0  0  0  0  0  0  0  0  0
   11.4769   22.9921    1.2463 C   0  0  0  0  0  0  0  0  0  0  0  0
   10.2649   23.0793    1.5227 O   0  0  0  0  0  0  0  0  0  0  0  0
 16 17  1  0  0  0
 17 18  2  0  0  0
 17  1  1  0  0  0
  1  2  2  0  0  0
  2  3  1  0  0  0
  3  4  1  0  0  0
  4  5  1  0  0  0
  5  6  1  0  0  0
  6  7  2  0  0  0
  6  8  1  0  0  0
  8  9  2  0  0  0
  9 10  1  0  0  0
 10 11  2  0  0  0
 11 12  1  0  0  0
 12 13  2  0  0  0
 13 14  1  0  0  0
 14 15  2  0  0  0
  5  1  1  0  0  0
 15 10  1  0  0  0
  8  4  1  0  0  0
M  CHG 1  16  -1
M  END
> <minimizedAffinity>
-7.88369

> <CNNscore>
0.7081812024

> <CNNaffinity>
6.2223181725

> <CNN_VS>
4.4065289497

> <CNNaffinity_variance>
0.1239176542

$$$$
[H]C1=C(C(=O)[O-])N2C(=O)/C(=C(\[H])c3c([H])c([H])c([H])c([H])c3[H])[C@@]2([H])S1


 18 20  0  0  0  0  0  0  0  0999 V2000
   12.2687   23.6372    0.0680 C   0  0  0  0  0  0  0  0  0  0  0  0
   11.4966   24.1559   -0.8669 C   0  0  0  0  0  0  0  0  0  0  0  0
   12.5655   25.0717   -1.9675 S   0  0  0  0  0  0  0  0  0  0  0  0
   13.9291   25.1429   -0.7609 C   0  0  0  0  0  0  0  0  0  0  0  0
   13.6273   23.9128   -0.0399 N   0  0  0  0  0  0  0  0  0  0  0  0
   15.0267   23.7513    0.1112 C   0  0  0  0  0  0  0  0  0  0  0  0
   15.8214   23.1944    0.9448 O   0  0  0  0  0  0  0  0  0  0  0  0
   15.1800   24.5156   -1.1311 C   0  0  0  0  0  0  0  0  0  0  0  0
   16.0951   24.5244   -2.0684 C   0  0  0  0  0  0  0  0  0  0  0  0
   15.9524   25.4198   -3.2006 C   0  0  0  0  0  0  0  0  0  0  0  0
   16.4815   26.6844   -3.2090 C   0  0  0  0  0  0  0  0  0  0  0  0
   16.3599   27.5524   -4.2563 C   0  0  0  0  0  0  0  0  0  0  0  0
   15.6732   27.1674   -5.3826 C   0  0  0  0  0  0  0  0  0  0  0  0
   15.1237   25.9045   -5.4211 C   0  0  0  0  0  0  0  0  0  0  0  0
   15.2636   25.0337   -4.3340 C   0  0  0  0  0  0  0  0  0  0  0  0
   10.2873   22.9178    1.3093 O   0  0  0  0  0  0  0  0  0  0  0  0
   11.6522   22.8249    1.1216 C   0  0  0  0  0  0  0  0  0  0  0  0
   12.2940   22.0527    1.8597 O   0  0  0  0  0  0  0  0  0  0  0  0
 16 17  1  0  0  0
 17 18  2  0  0  0
 17  1  1  0  0  0
  1  2  2  0  0  0
  2  3  1  0  0  0
  3  4  1  0  0  0
  4  5  1  0  0  0
  5  6  1  0  0  0
  6  7  2  0  0  0
  6  8  1  0  0  0
  8  9  2  0  0  0
  9 10  1  0  0  0
 10 11  2  0  0  0
 11 12  1  0  0  0
 12 13  2  0  0  0
 13 14  1  0  0  0
 14 15  2  0  0  0
  5  1  1  0  0  0
 15 10  1  0  0  0
  8  4  1  0  0  0
M  CHG 1  16  -1
M  END
> <minimizedAffinity>
-7.77327

> <CNNscore>
0.6749825478

> <CNNaffinity>
6.1863408089

> <CNN_VS>
4.1756720543

> <CNNaffinity_variance>
0.1197565421

$$$$
[H]C1=C(C(=O)[O-])N2C(=O)/C(=C(\[H])c3c([H])c([H])c([H])c([H])c3[H])[C@@]2([H])S1


 18 20  0  0  0  0  0  0  0  0999 V2000
   13.8327   26.2873   -3.4155 C   0  0  0  0  0  0  0  0  0  0  0  0
   15.1325   26.0893   -3.3135 C   0  0  0  0  0  0  0  0  0  0  0  0
   15.3643   24.8192   -2.0783 S   0  0  0  0  0  0  0  0  0  0  0  0
   13.6934   25.0360   -1.3843 C   0  0  0  0  0  0  0  0  0  0  0  0
   13.0295   25.5037   -2.5944 N   0  0  0  0  0  0  0  0  0  0  0  0
   11.8832   24.8058   -2.1404 C   0  0  0  0  0  0  0  0  0  0  0  0
   10.6143   24.9016   -2.2717 O   0  0  0  0  0  0  0  0  0  0  0  0
   12.7974   23.9004   -1.4366 C   0  0  0  0  0  0  0  0  0  0  0  0
   12.7120   22.6426   -1.0802 C   0  0  0  0  0  0  0  0  0  0  0  0
   13.8185   22.0201   -0.3788 C   0  0  0  0  0  0  0  0  0  0  0  0
   14.6282   22.7155    0.4815 C   0  0  0  0  0  0  0  0  0  0  0  0
   15.6800   22.1599    1.1522 C   0  0  0  0  0  0  0  0  0  0  0  0
   15.9714   20.8284    0.9769 C   0  0  0  0  0  0  0  0  0  0  0  0
   15.1848   20.0876    0.1220 C   0  0  0  0  0  0  0  0  0  0  0  0
   14.1118   20.6815   -0.5528 C   0  0  0  0  0  0  0  0  0  0  0  0
   13.3947   26.9963   -5.7155 O   0  0  0  0  0  0  0  0  0  0  0  0
   13.3444   27.2902   -4.3672 C   0  0  0  0  0  0  0  0  0  0  0  0
   12.8850   28.3971   -4.0255 O   0  0  0  0  0  0  0  0  0  0  0  0
 16 17  1  0  0  0
 17 18  2  0  0  0
 17  1  1  0  0  0
  1  2  2  0  0  0
  2  3  1  0  0  0
  3  4  1  0  0  0
  4  5  1  0  0  0
  5  6  1  0  0  0
  6  7  2  0  0  0
  6  8  1  0  0  0
  8  9  2  0  0  0
  9 10  1  0  0  0
 10 11  2  0  0  0
 11 12  1  0  0  0
 12 13  2  0  0  0
 13 14  1  0  0  0
 14 15  2  0  0  0
  5  1  1  0  0  0
 15 10  1  0  0  0
  8  4  1  0  0  0
M  CHG 1  16  -1
M  END
> <minimizedAffinity>
-2.14556

> <CNNscore>
0.5931187868

> <CNNaffinity>
5.6878948212

> <CNN_VS>
3.3735973835

> <CNNaffinity_variance>
0.6091753244

$$$$
[H]C1=C(C(=O)[O-])N2C(=O)/C(=C(\[H])c3c([H])c([H])c([H])c([H])c3[H])[C@@]2([H])S1


 18 20  0  0  0  0  0  0  0  0999 V2000
   15.1506   25.4403   -5.0589 C   0  0  0  0  0  0  0  0  0  0  0  0
   15.6713   24.2606   -4.7827 C   0  0  0  0  0  0  0  0  0  0  0  0
   14.9325   23.7183   -3.2488 S   0  0  0  0  0  0  0  0  0  0  0  0
   14.3711   25.3929   -2.8003 C   0  0  0  0  0  0  0  0  0  0  0  0
   14.2172   25.9239   -4.1488 N   0  0  0  0  0  0  0  0  0  0  0  0
   13.1170   26.6623   -3.6474 C   0  0  0  0  0  0  0  0  0  0  0  0
   12.5214   27.7605   -3.9228 O   0  0  0  0  0  0  0  0  0  0  0  0
   12.9464   25.6003   -2.6504 C   0  0  0  0  0  0  0  0  0  0  0  0
   11.9059   25.1465   -1.9964 C   0  0  0  0  0  0  0  0  0  0  0  0
   12.0717   24.0559   -1.0546 C   0  0  0  0  0  0  0  0  0  0  0  0
   11.7373   22.7623   -1.3614 C   0  0  0  0  0  0  0  0  0  0  0  0
   11.8763   21.7154   -0.4957 C   0  0  0  0  0  0  0  0  0  0  0  0
   12.3773   21.9368    0.7646 C   0  0  0  0  0  0  0  0  0  0  0  0
   12.7283   23.2212    1.1190 C   0  0  0  0  0  0  0  0  0  0  0  0
   12.5765   24.2766    0.2121 C   0  0  0  0  0  0  0  0  0  0  0  0
   15.9622   27.4570   -6.1808 O   0  0  0  0  0  0  0  0  0  0  0  0
   15.5807   26.1334   -6.2774 C   0  0  0  0  0  0  0  0  0  0  0  0
   15.6211   25.5922   -7.3992 O   0  0  0  0  0  0  0  0  0  0  0  0
 16 17  1  0  0  0
 17 18  2  0  0  0
 17  1  1  0  0  0
  1  2  2  0  0  0
  2  3  1  0  0  0
  3  4  1  0  0  0
  4  5  1  0  0  0
  5  6  1  0  0  0
  6  7  2  0  0  0
  6  8  1  0  0  0
  8  9  2  0  0  0
  9 10  1  0  0  0
 10 11  2  0  0  0
 11 12  1  0  0  0
 12 13  2  0  0  0
 13 14  1  0  0  0
 14 15  2  0  0  0
  5  1  1  0  0  0
 15 10  1  0  0  0
  8  4  1  0  0  0
M  CHG 1  16  -1
M  END
> <minimizedAffinity>
-7.37741

> <CNNscore>
0.5403666496

> <CNNaffinity>
5.6453323364

> <CNN_VS>
3.0505492687

> <CNNaffinity_variance>
0.2098281384

$$$$
[H]C1=C(C(=O)[O-])N2C(=O)/C(=C(\[H])c3c([H])c([H])c([H])c([H])c3[H])[C@@]2([H])S1


 18 20  0  0  0  0  0  0  0  0999 V2000
   15.1646   25.4057   -4.8765 C   0  0  0  0  0  0  0  0  0  0  0  0
   15.6797   24.2410   -4.5339 C   0  0  0  0  0  0  0  0  0  0  0  0
   14.8599   23.7387   -3.0278 S   0  0  0  0  0  0  0  0  0  0  0  0
   14.2582   25.4201   -2.6653 C   0  0  0  0  0  0  0  0  0  0  0  0
   14.1765   25.9071   -4.0365 N   0  0  0  0  0  0  0  0  0  0  0  0
   13.0426   26.6484   -3.6219 C   0  0  0  0  0  0  0  0  0  0  0  0
   12.4535   27.7309   -3.9654 O   0  0  0  0  0  0  0  0  0  0  0  0
   12.8255   25.6163   -2.6029 C   0  0  0  0  0  0  0  0  0  0  0  0
   11.7538   25.1715   -1.9948 C   0  0  0  0  0  0  0  0  0  0  0  0
   11.8758   24.1127   -1.0109 C   0  0  0  0  0  0  0  0  0  0  0  0
   12.2211   24.3570    0.2931 C   0  0  0  0  0  0  0  0  0  0  0  0
   12.3492   23.3824    1.2410 C   0  0  0  0  0  0  0  0  0  0  0  0
   12.1263   22.0697    0.9012 C   0  0  0  0  0  0  0  0  0  0  0  0
   11.7760   21.7746   -0.3982 C   0  0  0  0  0  0  0  0  0  0  0  0
   11.6507   22.7928   -1.3505 C   0  0  0  0  0  0  0  0  0  0  0  0
   15.9894   27.4036   -6.0221 O   0  0  0  0  0  0  0  0  0  0  0  0
   15.6569   26.0652   -6.0901 C   0  0  0  0  0  0  0  0  0  0  0  0
   15.7922   25.4825   -7.1834 O   0  0  0  0  0  0  0  0  0  0  0  0
 16 17  1  0  0  0
 17 18  2  0  0  0
 17  1  1  0  0  0
  1  2  2  0  0  0
  2  3  1  0  0  0
  3  4  1  0  0  0
  4  5  1  0  0  0
  5  6  1  0  0  0
  6  7  2  0  0  0
  6  8  1  0  0  0
  8  9  2  0  0  0
  9 10  1  0  0  0
 10 11  2  0  0  0
 11 12  1  0  0  0
 12 13  2  0  0  0
 13 14  1  0  0  0
 14 15  2  0  0  0
  5  1  1  0  0  0
 15 10  1  0  0  0
  8  4  1  0  0  0
M  CHG 1  16  -1
M  END
> <minimizedAffinity>
-7.13546

> <CNNscore>
0.5366610289

> <CNNaffinity>
5.6104116440

> <CNN_VS>
3.0108892918

> <CNNaffinity_variance>
0.2181735486

$$$$
[H]C1=C(C(=O)[O-])N2C(=O)/C(=C(\[H])c3c([H])c([H])c([H])c([H])c3[H])[C@@]2([H])S1


 18 20  0  0  0  0  0  0  0  0999 V2000
   11.6843   23.2183   -0.9553 C   0  0  0  0  0  0  0  0  0  0  0  0
   11.2359   24.4389   -1.1748 C   0  0  0  0  0  0  0  0  0  0  0  0
   12.5671   25.3450   -1.9490 S   0  0  0  0  0  0  0  0  0  0  0  0
   13.8360   24.1505   -1.4165 C   0  0  0  0  0  0  0  0  0  0  0  0
   12.9897   22.9652   -1.3621 N   0  0  0  0  0  0  0  0  0  0  0  0
   14.1220   22.2335   -1.7975 C   0  0  0  0  0  0  0  0  0  0  0  0
   14.5660   21.0389   -1.6855 O   0  0  0  0  0  0  0  0  0  0  0  0
   14.5808   23.4639   -2.4505 C   0  0  0  0  0  0  0  0  0  0  0  0
   15.3298   23.6932   -3.5006 C   0  0  0  0  0  0  0  0  0  0  0  0
   15.6046   25.0603   -3.8998 C   0  0  0  0  0  0  0  0  0  0  0  0
   15.1425   25.5895   -5.0769 C   0  0  0  0  0  0  0  0  0  0  0  0
   15.3883   26.8699   -5.4831 C   0  0  0  0  0  0  0  0  0  0  0  0
   16.1396   27.7030   -4.6894 C   0  0  0  0  0  0  0  0  0  0  0  0
   16.6257   27.2159   -3.4957 C   0  0  0  0  0  0  0  0  0  0  0  0
   16.3585   25.8994   -3.1023 C   0  0  0  0  0  0  0  0  0  0  0  0
   11.0594   20.8991   -0.4919 O   0  0  0  0  0  0  0  0  0  0  0  0
   10.7931   22.2430   -0.3195 C   0  0  0  0  0  0  0  0  0  0  0  0
    9.8050   22.5609    0.3702 O   0  0  0  0  0  0  0  0  0  0  0  0
 16 17  1  0  0  0
 17 18  2  0  0  0
 17  1  1  0  0  0
  1  2  2  0  0  0
  2  3  1  0  0  0
  3  4  1  0  0  0
  4  5  1  0  0  0
  5  6  1  0  0  0
  6  7  2  0  0  0
  6  8  1  0  0  0
  8  9  2  0  0  0
  9 10  1  0  0  0
 10 11  2  0  0  0
 11 12  1  0  0  0
 12 13  2  0  0  0
 13 14  1  0  0  0
 14 15  2  0  0  0
  5  1  1  0  0  0
 15 10  1  0  0  0
  8  4  1  0  0  0
M  CHG 1  16  -1
M  END
> <minimizedAffinity>
-8.60928

> <CNNscore>
0.4661760330

> <CNNaffinity>
5.6544075012

> <CNN_VS>
2.6359493732

> <CNNaffinity_variance>
0.0852759853

$$$$
[H]C1=C(C(=O)[O-])N2C(=O)/C(=C(\[H])c3c([H])c([H])c([H])c([H])c3[H])[C@@]2([H])S1


 18 20  0  0  0  0  0  0  0  0999 V2000
   11.6957   23.2413   -0.9608 C   0  0  0  0  0  0  0  0  0  0  0  0
   11.2545   24.4649   -1.1783 C   0  0  0  0  0  0  0  0  0  0  0  0
   12.5910   25.3642   -1.9512 S   0  0  0  0  0  0  0  0  0  0  0  0
   13.8528   24.1614   -1.4209 C   0  0  0  0  0  0  0  0  0  0  0  0
   12.9995   22.9811   -1.3682 N   0  0  0  0  0  0  0  0  0  0  0  0
   14.1274   22.2433   -1.8049 C   0  0  0  0  0  0  0  0  0  0  0  0
   14.5642   21.0460   -1.6948 O   0  0  0  0  0  0  0  0  0  0  0  0
   14.5933   23.4720   -2.4561 C   0  0  0  0  0  0  0  0  0  0  0  0
   15.3436   23.6985   -3.5059 C   0  0  0  0  0  0  0  0  0  0  0  0
   15.6265   25.0646   -3.9029 C   0  0  0  0  0  0  0  0  0  0  0  0
   16.3637   25.9188   -3.1245 C   0  0  0  0  0  0  0  0  0  0  0  0
   16.6426   27.2109   -3.4677 C   0  0  0  0  0  0  0  0  0  0  0  0
   16.1716   27.7159   -4.6557 C   0  0  0  0  0  0  0  0  0  0  0  0
   15.4258   26.8944   -5.4726 C   0  0  0  0  0  0  0  0  0  0  0  0
   15.1549   25.5733   -5.0975 C   0  0  0  0  0  0  0  0  0  0  0  0
   11.0226   20.9259   -0.5483 O   0  0  0  0  0  0  0  0  0  0  0  0
   10.7988   22.2703   -0.3264 C   0  0  0  0  0  0  0  0  0  0  0  0
    9.8422   22.5923    0.4046 O   0  0  0  0  0  0  0  0  0  0  0  0
 16 17  1  0  0  0
 17 18  2  0  0  0
 17  1  1  0  0  0
  1  2  2  0  0  0
  2  3  1  0  0  0
  3  4  1  0  0  0
  4  5  1  0  0  0
  5  6  1  0  0  0
  6  7  2  0  0  0
  6  8  1  0  0  0
  8  9  2  0  0  0
  9 10  1  0  0  0
 10 11  2  0  0  0
 11 12  1  0  0  0
 12 13  2  0  0  0
 13 14  1  0  0  0
 14 15  2  0  0  0
  5  1  1  0  0  0
 15 10  1  0  0  0
  8  4  1  0  0  0
M  CHG 1  16  -1
M  END
> <minimizedAffinity>
-8.61669

> <CNNscore>
0.4600187242

> <CNNaffinity>
5.6460027695

> <CNN_VS>
2.5972669125

> <CNNaffinity_variance>
0.0875483081

$$$$
[H]C1=C(C(=O)[O-])N2C(=O)/C(=C(\[H])c3c([H])c([H])c([H])c([H])c3[H])[C@@]2([H])S1


 18 20  0  0  0  0  0  0  0  0999 V2000
   11.9504   23.1052    0.9694 C   0  0  0  0  0  0  0  0  0  0  0  0
   11.4817   24.3212    0.7676 C   0  0  0  0  0  0  0  0  0  0  0  0
   12.5873   25.1132   -0.3913 S   0  0  0  0  0  0  0  0  0  0  0  0
   13.9293   23.9163   -0.0970 C   0  0  0  0  0  0  0  0  0  0  0  0
   13.1046   22.7718    0.2694 N   0  0  0  0  0  0  0  0  0  0  0  0
   14.0762   21.9660   -0.3740 C   0  0  0  0  0  0  0  0  0  0  0  0
   14.5135   20.7677   -0.2769 O   0  0  0  0  0  0  0  0  0  0  0  0
   14.3745   23.1237   -1.2234 C   0  0  0  0  0  0  0  0  0  0  0  0
   14.8354   23.2422   -2.4440 C   0  0  0  0  0  0  0  0  0  0  0  0
   15.0228   24.5628   -3.0139 C   0  0  0  0  0  0  0  0  0  0  0  0
   14.0610   25.1801   -3.7709 C   0  0  0  0  0  0  0  0  0  0  0  0
   14.2091   26.4194   -4.3252 C   0  0  0  0  0  0  0  0  0  0  0  0
   15.3782   27.1154   -4.1325 C   0  0  0  0  0  0  0  0  0  0  0  0
   16.3746   26.5358   -3.3777 C   0  0  0  0  0  0  0  0  0  0  0  0
   16.1969   25.2643   -2.8200 C   0  0  0  0  0  0  0  0  0  0  0  0
   11.9713   21.3746    2.6983 O   0  0  0  0  0  0  0  0  0  0  0  0
   11.2338   22.2167    1.8897 C   0  0  0  0  0  0  0  0  0  0  0  0
    9.9916   22.1793    1.9829 O   0  0  0  0  0  0  0  0  0  0  0  0
 16 17  1  0  0  0
 17 18  2  0  0  0
 17  1  1  0  0  0
  1  2  2  0  0  0
  2  3  1  0  0  0
  3  4  1  0  0  0
  4  5  1  0  0  0
  5  6  1  0  0  0
  6  7  2  0  0  0
  6  8  1  0  0  0
  8  9  2  0  0  0
  9 10  1  0  0  0
 10 11  2  0  0  0
 11 12  1  0  0  0
 12 13  2  0  0  0
 13 14  1  0  0  0
 14 15  2  0  0  0
  5  1  1  0  0  0
 15 10  1  0  0  0
  8  4  1  0  0  0
M  CHG 1  16  -1
M  END
> <minimizedAffinity>
-7.76798

> <CNNscore>
0.4359105527

> <CNNaffinity>
5.8856616020

> <CNN_VS>
2.5656220913

> <CNNaffinity_variance>
0.3150685728

$$$$
[H]C1=C(C(=O)[O-])N2C(=O)/C(=C(\[H])c3c([H])c([H])c([H])c([H])c3[H])[C@@]2([H])S1


 18 20  0  0  0  0  0  0  0  0999 V2000
   10.9695   22.9622    0.3654 C   0  0  0  0  0  0  0  0  0  0  0  0
   10.4354   23.9392   -0.3412 C   0  0  0  0  0  0  0  0  0  0  0  0
   11.7808   24.7618   -1.1813 S   0  0  0  0  0  0  0  0  0  0  0  0
   13.0461   24.0605   -0.0734 C   0  0  0  0  0  0  0  0  0  0  0  0
   12.3506   22.8282    0.2756 N   0  0  0  0  0  0  0  0  0  0  0  0
   13.6252   22.2104    0.3054 C   0  0  0  0  0  0  0  0  0  0  0  0
   14.1736   21.2211    0.9029 O   0  0  0  0  0  0  0  0  0  0  0  0
   14.0598   23.2164   -0.6693 C   0  0  0  0  0  0  0  0  0  0  0  0
   14.9740   23.2159   -1.6077 C   0  0  0  0  0  0  0  0  0  0  0  0
   15.1624   24.3994   -2.4248 C   0  0  0  0  0  0  0  0  0  0  0  0
   14.3279   24.7147   -3.4657 C   0  0  0  0  0  0  0  0  0  0  0  0
   14.4815   25.8176   -4.2561 C   0  0  0  0  0  0  0  0  0  0  0  0
   15.5233   26.6826   -4.0217 C   0  0  0  0  0  0  0  0  0  0  0  0
   16.3888   26.4079   -2.9854 C   0  0  0  0  0  0  0  0  0  0  0  0
   16.2083   25.2706   -2.1896 C   0  0  0  0  0  0  0  0  0  0  0  0
    8.9480   22.6676    1.7112 O   0  0  0  0  0  0  0  0  0  0  0  0
   10.0880   22.1088    1.1684 C   0  0  0  0  0  0  0  0  0  0  0  0
   10.3116   20.9028    1.3889 O   0  0  0  0  0  0  0  0  0  0  0  0
 16 17  1  0  0  0
 17 18  2  0  0  0
 17  1  1  0  0  0
  1  2  2  0  0  0
  2  3  1  0  0  0
  3  4  1  0  0  0
  4  5  1  0  0  0
  5  6  1  0  0  0
  6  7  2  0  0  0
  6  8  1  0  0  0
  8  9  2  0  0  0
  9 10  1  0  0  0
 10 11  2  0  0  0
 11 12  1  0  0  0
 12 13  2  0  0  0
 13 14  1  0  0  0
 14 15  2  0  0  0
  5  1  1  0  0  0
 15 10  1  0  0  0
  8  4  1  0  0  0
M  CHG 1  16  -1
M  END
> <minimizedAffinity>
-7.10893

> <CNNscore>
0.4154235721

> <CNNaffinity>
5.9117293358

> <CNN_VS>
2.4558718204

> <CNNaffinity_variance>
0.3537233472

$$$$
[H]c1nc(N([H])[H])c(-c2onc(C([H])([H])[H])c2[H])c([H])c1-c1c([H])c(S(=O)(=O)N([H])C([H])([H])C2([H])C([H])([H])C2([H])[H])c([H])c([H])c1C([H])([H])[H]


 31 34  0  0  0  0  0  0  0  0999 V2000
   15.1372   23.6409   -4.0303 C   0  0  0  0  0  0  0  0  0  0  0  0
   15.1431   25.0290   -4.0480 C   0  0  0  0  0  0  0  0  0  0  0  0
   15.2773   25.7484   -5.2057 C   0  0  0  0  0  0  0  0  0  0  0  0
   15.4138   25.1046   -6.4154 C   0  0  0  0  0  0  0  0  0  0  0  0
   15.4110   23.7309   -6.4220 C   0  0  0  0  0  0  0  0  0  0  0  0
   15.2737   22.9988   -5.2367 C   0  0  0  0  0  0  0  0  0  0  0  0
   15.2899   21.5214   -5.3176 C   0  0  0  0  0  0  0  0  0  0  0  0
   15.5995   22.5454   -0.4876 C   0  0  0  0  0  0  0  0  0  0  0  0
   15.7834   23.2194   -1.6904 C   0  0  0  0  0  0  0  0  0  0  0  0
   14.9775   22.9431   -2.7437 C   0  0  0  0  0  0  0  0  0  0  0  0
   13.9779   21.9872   -2.6033 C   0  0  0  0  0  0  0  0  0  0  0  0
   13.8262   21.3591   -1.4408 N   0  0  0  0  0  0  0  0  0  0  0  0
   14.6169   21.6075   -0.3528 C   0  0  0  0  0  0  0  0  0  0  0  0
   14.3903   20.8950    0.8517 N   0  0  0  0  0  0  0  0  0  0  0  0
   14.8765   20.0193    1.0642 H   0  0  0  0  0  0  0  0  0  0  0  0
   13.7138   21.2646    1.5438 H   0  0  0  0  0  0  0  0  0  0  0  0
   19.1975   24.5556    2.5288 C   0  0  0  0  0  0  0  0  0  0  0  0
   18.0840   23.7533    1.9789 C   0  0  0  0  0  0  0  0  0  0  0  0
   17.5099   23.8116    0.6907 C   0  0  0  0  0  0  0  0  0  0  0  0
   16.5032   22.8918    0.6073 C   0  0  0  0  0  0  0  0  0  0  0  0
   16.4886   22.3126    1.8110 O   0  0  0  0  0  0  0  0  0  0  0  0
   17.3771   22.7933    2.5892 N   0  0  0  0  0  0  0  0  0  0  0  0
   15.2817   27.4952   -5.2054 S   0  0  0  0  0  0  0  0  0  0  0  0
   15.0896   27.9255   -6.6480 O   0  0  0  0  0  0  0  0  0  0  0  0
   16.6130   27.9704   -4.6894 O   0  0  0  0  0  0  0  0  0  0  0  0
   14.0063   28.1384   -4.2601 N   0  0  0  0  0  0  0  0  0  0  0  0
   14.3280   28.6016   -3.4046 H   0  0  0  0  0  0  0  0  0  0  0  0
   12.9724   27.1605   -4.0569 C   0  0  0  0  0  0  0  0  0  0  0  0
   13.2906   26.2066   -2.9331 C   0  0  0  0  0  0  0  0  0  0  0  0
   12.7364   26.4204   -1.5815 C   0  0  0  0  0  0  0  0  0  0  0  0
   12.1813   25.3412   -2.4662 C   0  0  0  0  0  0  0  0  0  0  0  0
 17 18  1  0  0  0
 18 19  1  0  0  0
 19 20  2  0  0  0
 20 21  1  0  0  0
 21 22  1  0  0  0
 20  8  1  0  0  0
  8  9  2  0  0  0
  9 10  1  0  0  0
 10 11  2  0  0  0
 11 12  1  0  0  0
 12 13  2  0  0  0
 13 14  1  0  0  0
 10  1  1  0  0  0
  1  2  2  0  0  0
  2  3  1  0  0  0
  3  4  2  0  0  0
  4  5  1  0  0  0
  5  6  2  0  0  0
  6  7  1  0  0  0
  3 23  1  0  0  0
 23 24  2  0  0  0
 23 25  2  0  0  0
 23 26  1  0  0  0
 26 28  1  0  0  0
 28 29  1  0  0  0
 29 30  1  0  0  0
 30 31  1  0  0  0
 22 18  2  0  0  0
 13  8  1  0  0  0
  6  1  1  0  0  0
 31 29  1  0  0  0
 14 15  1  0  0  0
 14 16  1  0  0  0
 26 27  1  0  0  0
M  END
> <minimizedAffinity>
9.32563

> <CNNscore>
0.5282065868

> <CNNaffinity>
7.3240995407

> <CNN_VS>
3.8686375618

> <CNNaffinity_variance>
0.7523052692

$$$$
[H]c1nc(N([H])[H])c(-c2onc(C([H])([H])[H])c2[H])c([H])c1-c1c([H])c(S(=O)(=O)N([H])C([H])([H])C2([H])C([H])([H])C2([H])[H])c([H])c([H])c1C([H])([H])[H]


 31 34  0  0  0  0  0  0  0  0999 V2000
   13.3004   25.9626   -3.0158 C   0  0  0  0  0  0  0  0  0  0  0  0
   14.6704   26.1042   -2.8411 C   0  0  0  0  0  0  0  0  0  0  0  0
   15.4143   26.9995   -3.5628 C   0  0  0  0  0  0  0  0  0  0  0  0
   14.8150   27.8053   -4.5052 C   0  0  0  0  0  0  0  0  0  0  0  0
   13.4601   27.6824   -4.6952 C   0  0  0  0  0  0  0  0  0  0  0  0
   12.7028   26.7661   -3.9558 C   0  0  0  0  0  0  0  0  0  0  0  0
   11.2496   26.6800   -4.2207 C   0  0  0  0  0  0  0  0  0  0  0  0
   12.5034   23.0801   -0.7752 C   0  0  0  0  0  0  0  0  0  0  0  0
   13.2228   23.9831   -1.5508 C   0  0  0  0  0  0  0  0  0  0  0  0
   12.5721   24.9837   -2.1916 C   0  0  0  0  0  0  0  0  0  0  0  0
   11.1921   25.0903   -2.0624 C   0  0  0  0  0  0  0  0  0  0  0  0
   10.5312   24.2118   -1.3138 N   0  0  0  0  0  0  0  0  0  0  0  0
   11.1483   23.1875   -0.6501 C   0  0  0  0  0  0  0  0  0  0  0  0
   10.3721   22.2925    0.1286 N   0  0  0  0  0  0  0  0  0  0  0  0
    9.9927   21.4241   -0.2591 H   0  0  0  0  0  0  0  0  0  0  0  0
   10.1779   22.5162    1.1213 H   0  0  0  0  0  0  0  0  0  0  0  0
   16.0031   19.6608    0.6896 C   0  0  0  0  0  0  0  0  0  0  0  0
   14.7891   20.4966    0.5725 C   0  0  0  0  0  0  0  0  0  0  0  0
   14.5060   21.5100   -0.3684 C   0  0  0  0  0  0  0  0  0  0  0  0
   13.2673   22.0257   -0.1117 C   0  0  0  0  0  0  0  0  0  0  0  0
   12.8383   21.3345    0.9480 O   0  0  0  0  0  0  0  0  0  0  0  0
   13.6911   20.4708    1.3389 N   0  0  0  0  0  0  0  0  0  0  0  0
   17.1375   27.1617   -3.3268 S   0  0  0  0  0  0  0  0  0  0  0  0
   17.3617   28.5396   -2.7316 O   0  0  0  0  0  0  0  0  0  0  0  0
   17.8164   27.0520   -4.6654 O   0  0  0  0  0  0  0  0  0  0  0  0
   17.7490   25.9836   -2.2443 N   0  0  0  0  0  0  0  0  0  0  0  0
   17.9296   25.0780   -2.6886 H   0  0  0  0  0  0  0  0  0  0  0  0
   16.9484   25.9147   -1.0524 C   0  0  0  0  0  0  0  0  0  0  0  0
   16.7882   24.5042   -0.5434 C   0  0  0  0  0  0  0  0  0  0  0  0
   17.3534   24.1031    0.7602 C   0  0  0  0  0  0  0  0  0  0  0  0
   15.8745   24.3168    0.6089 C   0  0  0  0  0  0  0  0  0  0  0  0
 17 18  1  0  0  0
 18 19  1  0  0  0
 19 20  2  0  0  0
 20 21  1  0  0  0
 21 22  1  0  0  0
 20  8  1  0  0  0
  8  9  2  0  0  0
  9 10  1  0  0  0
 10 11  2  0  0  0
 11 12  1  0  0  0
 12 13  2  0  0  0
 13 14  1  0  0  0
 10  1  1  0  0  0
  1  2  2  0  0  0
  2  3  1  0  0  0
  3  4  2  0  0  0
  4  5  1  0  0  0
  5  6  2  0  0  0
  6  7  1  0  0  0
  3 23  1  0  0  0
 23 24  2  0  0  0
 23 25  2  0  0  0
 23 26  1  0  0  0
 26 28  1  0  0  0
 28 29  1  0  0  0
 29 30  1  0  0  0
 30 31  1  0  0  0
 22 18  2  0  0  0
 13  8  1  0  0  0
  6  1  1  0  0  0
 31 29  1  0  0  0
 14 15  1  0  0  0
 14 16  1  0  0  0
 26 27  1  0  0  0
M  END
> <minimizedAffinity>
3.05609

> <CNNscore>
0.5214956999

> <CNNaffinity>
7.3275680542

> <CNN_VS>
3.8212952614

> <CNNaffinity_variance>
0.6676688194

$$$$
[H]c1nc(N([H])[H])c(-c2onc(C([H])([H])[H])c2[H])c([H])c1-c1c([H])c(S(=O)(=O)N([H])C([H])([H])C2([H])C([H])([H])C2([H])[H])c([H])c([H])c1C([H])([H])[H]


 31 34  0  0  0  0  0  0  0  0999 V2000
   13.3717   25.6867   -3.0254 C   0  0  0  0  0  0  0  0  0  0  0  0
   12.6415   26.8675   -3.0221 C   0  0  0  0  0  0  0  0  0  0  0  0
   12.9364   27.9160   -3.8525 C   0  0  0  0  0  0  0  0  0  0  0  0
   13.9892   27.8313   -4.7363 C   0  0  0  0  0  0  0  0  0  0  0  0
   14.7261   26.6722   -4.7569 C   0  0  0  0  0  0  0  0  0  0  0  0
   14.4218   25.6025   -3.9066 C   0  0  0  0  0  0  0  0  0  0  0  0
   15.2648   24.3884   -3.9756 C   0  0  0  0  0  0  0  0  0  0  0  0
   11.5887   23.6941   -0.4149 C   0  0  0  0  0  0  0  0  0  0  0  0
   11.9324   24.7414   -1.2633 C   0  0  0  0  0  0  0  0  0  0  0  0
   12.9824   24.6030   -2.1079 C   0  0  0  0  0  0  0  0  0  0  0  0
   13.7004   23.4126   -2.1115 C   0  0  0  0  0  0  0  0  0  0  0  0
   13.3482   22.4288   -1.2888 N   0  0  0  0  0  0  0  0  0  0  0  0
   12.2956   22.5264   -0.4209 C   0  0  0  0  0  0  0  0  0  0  0  0
   11.9840   21.4315    0.4240 N   0  0  0  0  0  0  0  0  0  0  0  0
   12.3747   21.3444    1.3664 H   0  0  0  0  0  0  0  0  0  0  0  0
   11.3419   20.6923    0.0856 H   0  0  0  0  0  0  0  0  0  0  0  0
    8.4282   25.0003    3.3786 C   0  0  0  0  0  0  0  0  0  0  0  0
    9.0095   24.4687    2.1274 C   0  0  0  0  0  0  0  0  0  0  0  0
   10.3485   24.5282    1.6845 C   0  0  0  0  0  0  0  0  0  0  0  0
   10.4460   23.9102    0.4700 C   0  0  0  0  0  0  0  0  0  0  0  0
    9.2011   23.5013    0.2100 O   0  0  0  0  0  0  0  0  0  0  0  0
    8.3861   23.8128    1.1400 N   0  0  0  0  0  0  0  0  0  0  0  0
   12.0041   29.3930   -3.8323 S   0  0  0  0  0  0  0  0  0  0  0  0
   12.8190   30.4258   -4.5888 O   0  0  0  0  0  0  0  0  0  0  0  0
   11.8146   29.8199   -2.4018 O   0  0  0  0  0  0  0  0  0  0  0  0
   10.4891   29.2044   -4.6090 N   0  0  0  0  0  0  0  0  0  0  0  0
   10.5653   28.8554   -5.5694 H   0  0  0  0  0  0  0  0  0  0  0  0
    9.6863   30.3883   -4.4658 C   0  0  0  0  0  0  0  0  0  0  0  0
    8.3235   30.2430   -5.0949 C   0  0  0  0  0  0  0  0  0  0  0  0
    7.8727   28.9419   -5.6278 C   0  0  0  0  0  0  0  0  0  0  0  0
    7.3223   29.4613   -4.3305 C   0  0  0  0  0  0  0  0  0  0  0  0
 17 18  1  0  0  0
 18 19  1  0  0  0
 19 20  2  0  0  0
 20 21  1  0  0  0
 21 22  1  0  0  0
 20  8  1  0  0  0
  8  9  2  0  0  0
  9 10  1  0  0  0
 10 11  2  0  0  0
 11 12  1  0  0  0
 12 13  2  0  0  0
 13 14  1  0  0  0
 10  1  1  0  0  0
  1  2  2  0  0  0
  2  3  1  0  0  0
  3  4  2  0  0  0
  4  5  1  0  0  0
  5  6  2  0  0  0
  6  7  1  0  0  0
  3 23  1  0  0  0
 23 24  2  0  0  0
 23 25  2  0  0  0
 23 26  1  0  0  0
 26 28  1  0  0  0
 28 29  1  0  0  0
 29 30  1  0  0  0
 30 31  1  0  0  0
 22 18  2  0  0  0
 13  8  1  0  0  0
  6  1  1  0  0  0
 31 29  1  0  0  0
 14 15  1  0  0  0
 14 16  1  0  0  0
 26 27  1  0  0  0
M  END
> <minimizedAffinity>
6.32607

> <CNNscore>
0.5137830377

> <CNNaffinity>
6.8124723434

> <CNN_VS>
3.5001327991

> <CNNaffinity_variance>
0.6826933622

$$$$
[H]c1nc(N([H])[H])c(-c2onc(C([H])([H])[H])c2[H])c([H])c1-c1c([H])c(S(=O)(=O)N([H])C([H])([H])C2([H])C([H])([H])C2([H])[H])c([H])c([H])c1C([H])([H])[H]


 31 34  0  0  0  0  0  0  0  0999 V2000
   13.5298   24.0028   -1.8757 C   0  0  0  0  0  0  0  0  0  0  0  0
   13.4226   25.2284   -2.5190 C   0  0  0  0  0  0  0  0  0  0  0  0
   14.1331   25.5287   -3.6507 C   0  0  0  0  0  0  0  0  0  0  0  0
   14.9952   24.6052   -4.1989 C   0  0  0  0  0  0  0  0  0  0  0  0
   15.1175   23.3855   -3.5790 C   0  0  0  0  0  0  0  0  0  0  0  0
   14.3898   23.0820   -2.4223 C   0  0  0  0  0  0  0  0  0  0  0  0
   14.5794   21.7522   -1.8017 C   0  0  0  0  0  0  0  0  0  0  0  0
   10.7419   23.0121    0.4069 C   0  0  0  0  0  0  0  0  0  0  0  0
   11.4734   23.2387   -0.7542 C   0  0  0  0  0  0  0  0  0  0  0  0
   12.7227   23.7557   -0.6693 C   0  0  0  0  0  0  0  0  0  0  0  0
   13.2530   24.0519    0.5811 C   0  0  0  0  0  0  0  0  0  0  0  0
   12.5296   23.8243    1.6737 N   0  0  0  0  0  0  0  0  0  0  0  0
   11.2655   23.3038    1.6334 C   0  0  0  0  0  0  0  0  0  0  0  0
   10.5597   23.0904    2.8442 N   0  0  0  0  0  0  0  0  0  0  0  0
    9.9395   23.8006    3.2436 H   0  0  0  0  0  0  0  0  0  0  0  0
   10.6688   22.1912    3.3469 H   0  0  0  0  0  0  0  0  0  0  0  0
    6.6741   20.0345   -0.4129 C   0  0  0  0  0  0  0  0  0  0  0  0
    7.5707   21.1706   -0.1109 C   0  0  0  0  0  0  0  0  0  0  0  0
    8.9818   21.1943   -0.0817 C   0  0  0  0  0  0  0  0  0  0  0  0
    9.4017   22.4529    0.2434 C   0  0  0  0  0  0  0  0  0  0  0  0
    8.2699   23.1453    0.3999 O   0  0  0  0  0  0  0  0  0  0  0  0
    7.2339   22.4287    0.2016 N   0  0  0  0  0  0  0  0  0  0  0  0
   13.9829   27.0774   -4.4446 S   0  0  0  0  0  0  0  0  0  0  0  0
   13.9491   26.7945   -5.9353 O   0  0  0  0  0  0  0  0  0  0  0  0
   15.1855   27.9124   -4.0966 O   0  0  0  0  0  0  0  0  0  0  0  0
   12.5402   27.8870   -4.0008 N   0  0  0  0  0  0  0  0  0  0  0  0
   11.7108   27.5378   -4.4909 H   0  0  0  0  0  0  0  0  0  0  0  0
   12.7115   29.3131   -4.0586 C   0  0  0  0  0  0  0  0  0  0  0  0
   11.5779   30.0593   -3.4012 C   0  0  0  0  0  0  0  0  0  0  0  0
   11.5477   31.5354   -3.3968 C   0  0  0  0  0  0  0  0  0  0  0  0
   10.6361   30.7615   -4.3054 C   0  0  0  0  0  0  0  0  0  0  0  0
 17 18  1  0  0  0
 18 19  1  0  0  0
 19 20  2  0  0  0
 20 21  1  0  0  0
 21 22  1  0  0  0
 20  8  1  0  0  0
  8  9  2  0  0  0
  9 10  1  0  0  0
 10 11  2  0  0  0
 11 12  1  0  0  0
 12 13  2  0  0  0
 13 14  1  0  0  0
 10  1  1  0  0  0
  1  2  2  0  0  0
  2  3  1  0  0  0
  3  4  2  0  0  0
  4  5  1  0  0  0
  5  6  2  0  0  0
  6  7  1  0  0  0
  3 23  1  0  0  0
 23 24  2  0  0  0
 23 25  2  0  0  0
 23 26  1  0  0  0
 26 28  1  0  0  0
 28 29  1  0  0  0
 29 30  1  0  0  0
 30 31  1  0  0  0
 22 18  2  0  0  0
 13  8  1  0  0  0
  6  1  1  0  0  0
 31 29  1  0  0  0
 14 15  1  0  0  0
 14 16  1  0  0  0
 26 27  1  0  0  0
M  END
> <minimizedAffinity>
0.96109

> <CNNscore>
0.4552097619

> <CNNaffinity>
7.0627632141

> <CNN_VS>
3.2150387764

> <CNNaffinity_variance>
0.9763685465

$$$$
[H]c1nc(N([H])[H])c(-c2onc(C([H])([H])[H])c2[H])c([H])c1-c1c([H])c(S(=O)(=O)N([H])C([H])([H])C2([H])C([H])([H])C2([H])[H])c([H])c([H])c1C([H])([H])[H]


 31 34  0  0  0  0  0  0  0  0999 V2000
   14.5682   23.0838   -1.2001 C   0  0  0  0  0  0  0  0  0  0  0  0
   13.4236   22.3222   -1.0070 C   0  0  0  0  0  0  0  0  0  0  0  0
   13.1199   21.7450    0.1973 C   0  0  0  0  0  0  0  0  0  0  0  0
   13.9576   21.9045    1.2786 C   0  0  0  0  0  0  0  0  0  0  0  0
   15.0964   22.6541    1.1107 C   0  0  0  0  0  0  0  0  0  0  0  0
   15.4038   23.2426   -0.1217 C   0  0  0  0  0  0  0  0  0  0  0  0
   16.6529   24.0281   -0.2331 C   0  0  0  0  0  0  0  0  0  0  0  0
   14.8474   25.5252   -4.0155 C   0  0  0  0  0  0  0  0  0  0  0  0
   14.5960   24.9955   -2.7541 C   0  0  0  0  0  0  0  0  0  0  0  0
   14.8160   23.6788   -2.5239 C   0  0  0  0  0  0  0  0  0  0  0  0
   15.2904   22.8775   -3.5561 C   0  0  0  0  0  0  0  0  0  0  0  0
   15.5214   23.4123   -4.7517 N   0  0  0  0  0  0  0  0  0  0  0  0
   15.3134   24.7358   -5.0270 C   0  0  0  0  0  0  0  0  0  0  0  0
   15.5846   25.2290   -6.3281 N   0  0  0  0  0  0  0  0  0  0  0  0
   14.8653   25.2654   -7.0559 H   0  0  0  0  0  0  0  0  0  0  0  0
   16.5372   25.5651   -6.5582 H   0  0  0  0  0  0  0  0  0  0  0  0
   12.9191   30.2545   -4.0319 C   0  0  0  0  0  0  0  0  0  0  0  0
   13.7725   29.0629   -4.2263 C   0  0  0  0  0  0  0  0  0  0  0  0
   13.5404   27.7361   -3.8041 C   0  0  0  0  0  0  0  0  0  0  0  0
   14.5887   26.9521   -4.1950 C   0  0  0  0  0  0  0  0  0  0  0  0
   15.4099   27.7953   -4.8270 O   0  0  0  0  0  0  0  0  0  0  0  0
   14.9561   28.9868   -4.8485 N   0  0  0  0  0  0  0  0  0  0  0  0
   11.6737   20.7905    0.4186 S   0  0  0  0  0  0  0  0  0  0  0  0
   11.7799   20.1628    1.7963 O   0  0  0  0  0  0  0  0  0  0  0  0
   11.6373   19.7237   -0.6421 O   0  0  0  0  0  0  0  0  0  0  0  0
   10.2569   21.7508    0.3543 N   0  0  0  0  0  0  0  0  0  0  0  0
   10.3902   22.6397   -0.1378 H   0  0  0  0  0  0  0  0  0  0  0  0
    9.6580   21.8727    1.6554 C   0  0  0  0  0  0  0  0  0  0  0  0
    8.1642   21.6680    1.6266 C   0  0  0  0  0  0  0  0  0  0  0  0
    7.3207   22.3972    0.6588 C   0  0  0  0  0  0  0  0  0  0  0  0
    7.6191   20.9393    0.4563 C   0  0  0  0  0  0  0  0  0  0  0  0
 17 18  1  0  0  0
 18 19  1  0  0  0
 19 20  2  0  0  0
 20 21  1  0  0  0
 21 22  1  0  0  0
 20  8  1  0  0  0
  8  9  2  0  0  0
  9 10  1  0  0  0
 10 11  2  0  0  0
 11 12  1  0  0  0
 12 13  2  0  0  0
 13 14  1  0  0  0
 10  1  1  0  0  0
  1  2  2  0  0  0
  2  3  1  0  0  0
  3  4  2  0  0  0
  4  5  1  0  0  0
  5  6  2  0  0  0
  6  7  1  0  0  0
  3 23  1  0  0  0
 23 24  2  0  0  0
 23 25  2  0  0  0
 23 26  1  0  0  0
 26 28  1  0  0  0
 28 29  1  0  0  0
 29 30  1  0  0  0
 30 31  1  0  0  0
 22 18  2  0  0  0
 13  8  1  0  0  0
  6  1  1  0  0  0
 31 29  1  0  0  0
 14 15  1  0  0  0
 14 16  1  0  0  0
 26 27  1  0  0  0
M  END
> <minimizedAffinity>
3.00356

> <CNNscore>
0.4251425564

> <CNNaffinity>
7.1050138474

> <CNN_VS>
3.0206437111

> <CNNaffinity_variance>
0.6730918884

$$$$
[H]c1nc(N([H])[H])c(-c2onc(C([H])([H])[H])c2[H])c([H])c1-c1c([H])c(S(=O)(=O)N([H])C([H])([H])C2([H])C([H])([H])C2([H])[H])c([H])c([H])c1C([H])([H])[H]


 31 34  0  0  0  0  0  0  0  0999 V2000
   14.8076   23.0010   -1.9557 C   0  0  0  0  0  0  0  0  0  0  0  0
   15.2903   24.2992   -1.8614 C   0  0  0  0  0  0  0  0  0  0  0  0
   15.8315   24.9613   -2.9313 C   0  0  0  0  0  0  0  0  0  0  0  0
   15.9163   24.3477   -4.1612 C   0  0  0  0  0  0  0  0  0  0  0  0
   15.4449   23.0627   -4.2780 C   0  0  0  0  0  0  0  0  0  0  0  0
   14.8925   22.3890   -3.1823 C   0  0  0  0  0  0  0  0  0  0  0  0
   14.4142   21.0026   -3.3783 C   0  0  0  0  0  0  0  0  0  0  0  0
   12.5886   22.2195    0.9478 C   0  0  0  0  0  0  0  0  0  0  0  0
   13.1092   22.8507   -0.1771 C   0  0  0  0  0  0  0  0  0  0  0  0
   14.2312   22.3641   -0.7599 C   0  0  0  0  0  0  0  0  0  0  0  0
   14.8446   21.2389   -0.2211 C   0  0  0  0  0  0  0  0  0  0  0  0
   14.3236   20.6569    0.8553 N   0  0  0  0  0  0  0  0  0  0  0  0
   13.1932   21.1147    1.4743 C   0  0  0  0  0  0  0  0  0  0  0  0
   12.7008   20.4371    2.6181 N   0  0  0  0  0  0  0  0  0  0  0  0
   12.9764   20.7034    3.5676 H   0  0  0  0  0  0  0  0  0  0  0  0
   12.0413   19.6471    2.4988 H   0  0  0  0  0  0  0  0  0  0  0  0
    8.2322   24.7251    1.8579 C   0  0  0  0  0  0  0  0  0  0  0  0
    9.4467   23.8900    1.9739 C   0  0  0  0  0  0  0  0  0  0  0  0
   10.4231   23.6158    0.9922 C   0  0  0  0  0  0  0  0  0  0  0  0
   11.3769   22.7963    1.5260 C   0  0  0  0  0  0  0  0  0  0  0  0
   10.9705   22.5968    2.7829 O   0  0  0  0  0  0  0  0  0  0  0  0
    9.8832   23.2103    3.0423 N   0  0  0  0  0  0  0  0  0  0  0  0
   16.4329   26.5952   -2.7907 S   0  0  0  0  0  0  0  0  0  0  0  0
   17.7899   26.6135   -3.4700 O   0  0  0  0  0  0  0  0  0  0  0  0
   16.5732   26.9297   -1.3302 O   0  0  0  0  0  0  0  0  0  0  0  0
   15.4072   27.7241   -3.5700 N   0  0  0  0  0  0  0  0  0  0  0  0
   14.7088   28.1381   -2.9447 H   0  0  0  0  0  0  0  0  0  0  0  0
   14.8701   27.1777   -4.7863 C   0  0  0  0  0  0  0  0  0  0  0  0
   13.4766   26.6293   -4.6087 C   0  0  0  0  0  0  0  0  0  0  0  0
   12.8895   26.4808   -3.2622 C   0  0  0  0  0  0  0  0  0  0  0  0
   12.4387   27.5914   -4.1672 C   0  0  0  0  0  0  0  0  0  0  0  0
 17 18  1  0  0  0
 18 19  1  0  0  0
 19 20  2  0  0  0
 20 21  1  0  0  0
 21 22  1  0  0  0
 20  8  1  0  0  0
  8  9  2  0  0  0
  9 10  1  0  0  0
 10 11  2  0  0  0
 11 12  1  0  0  0
 12 13  2  0  0  0
 13 14  1  0  0  0
 10  1  1  0  0  0
  1  2  2  0  0  0
  2  3  1  0  0  0
  3  4  2  0  0  0
  4  5  1  0  0  0
  5  6  2  0  0  0
  6  7  1  0  0  0
  3 23  1  0  0  0
 23 24  2  0  0  0
 23 25  2  0  0  0
 23 26  1  0  0  0
 26 28  1  0  0  0
 28 29  1  0  0  0
 29 30  1  0  0  0
 30 31  1  0  0  0
 22 18  2  0  0  0
 13  8  1  0  0  0
  6  1  1  0  0  0
 31 29  1  0  0  0
 14 15  1  0  0  0
 14 16  1  0  0  0
 26 27  1  0  0  0
M  END
> <minimizedAffinity>
-3.47257

> <CNNscore>
0.4035050273

> <CNNaffinity>
7.2784090042

> <CNN_VS>
2.9368746281

> <CNNaffinity_variance>
0.3211743236

$$$$
[H]c1nc(N([H])[H])c(-c2onc(C([H])([H])[H])c2[H])c([H])c1-c1c([H])c(S(=O)(=O)N([H])C([H])([H])C2([H])C([H])([H])C2([H])[H])c([H])c([H])c1C([H])([H])[H]


 31 34  0  0  0  0  0  0  0  0999 V2000
   13.8401   23.0521   -1.8148 C   0  0  0  0  0  0  0  0  0  0  0  0
   14.0510   24.3312   -2.3116 C   0  0  0  0  0  0  0  0  0  0  0  0
   14.7896   24.5684   -3.4404 C   0  0  0  0  0  0  0  0  0  0  0  0
   15.3592   23.5238   -4.1338 C   0  0  0  0  0  0  0  0  0  0  0  0
   15.1639   22.2491   -3.6605 C   0  0  0  0  0  0  0  0  0  0  0  0
   14.4084   22.0104   -2.5063 C   0  0  0  0  0  0  0  0  0  0  0  0
   14.2484   20.6126   -2.0481 C   0  0  0  0  0  0  0  0  0  0  0  0
   10.9839   22.3580    0.4926 C   0  0  0  0  0  0  0  0  0  0  0  0
   11.7225   22.5156   -0.6754 C   0  0  0  0  0  0  0  0  0  0  0  0
   13.0245   22.8822   -0.6008 C   0  0  0  0  0  0  0  0  0  0  0  0
   13.6011   23.0955    0.6461 C   0  0  0  0  0  0  0  0  0  0  0  0
   12.8696   22.9370    1.7454 N   0  0  0  0  0  0  0  0  0  0  0  0
   11.5529   22.5679    1.7155 C   0  0  0  0  0  0  0  0  0  0  0  0
   10.8419   22.4197    2.9331 N   0  0  0  0  0  0  0  0  0  0  0  0
   10.3138   23.1910    3.3508 H   0  0  0  0  0  0  0  0  0  0  0  0
   10.8516   21.5063    3.4217 H   0  0  0  0  0  0  0  0  0  0  0  0
    6.5868   19.8872   -0.3112 C   0  0  0  0  0  0  0  0  0  0  0  0
    7.6135   20.9065   -0.0062 C   0  0  0  0  0  0  0  0  0  0  0  0
    9.0179   20.7652    0.0038 C   0  0  0  0  0  0  0  0  0  0  0  0
    9.5858   21.9613    0.3402 C   0  0  0  0  0  0  0  0  0  0  0  0
    8.5445   22.7782    0.5218 O   0  0  0  0  0  0  0  0  0  0  0  0
    7.4296   22.1903    0.3282 N   0  0  0  0  0  0  0  0  0  0  0  0
   15.0422   26.1863   -4.0485 S   0  0  0  0  0  0  0  0  0  0  0  0
   16.0214   26.8536   -3.1003 O   0  0  0  0  0  0  0  0  0  0  0  0
   13.7244   26.9128   -4.0381 O   0  0  0  0  0  0  0  0  0  0  0  0
   15.7128   26.1803   -5.6246 N   0  0  0  0  0  0  0  0  0  0  0  0
   16.1773   25.2993   -5.8655 H   0  0  0  0  0  0  0  0  0  0  0  0
   16.5088   27.3559   -5.8500 C   0  0  0  0  0  0  0  0  0  0  0  0
   15.8461   28.3325   -6.7886 C   0  0  0  0  0  0  0  0  0  0  0  0
   16.2864   29.7405   -6.8476 C   0  0  0  0  0  0  0  0  0  0  0  0
   16.6511   28.7857   -7.9480 C   0  0  0  0  0  0  0  0  0  0  0  0
 17 18  1  0  0  0
 18 19  1  0  0  0
 19 20  2  0  0  0
 20 21  1  0  0  0
 21 22  1  0  0  0
 20  8  1  0  0  0
  8  9  2  0  0  0
  9 10  1  0  0  0
 10 11  2  0  0  0
 11 12  1  0  0  0
 12 13  2  0  0  0
 13 14  1  0  0  0
 10  1  1  0  0  0
  1  2  2  0  0  0
  2  3  1  0  0  0
  3  4  2  0  0  0
  4  5  1  0  0  0
  5  6  2  0  0  0
  6  7  1  0  0  0
  3 23  1  0  0  0
 23 24  2  0  0  0
 23 25  2  0  0  0
 23 26  1  0  0  0
 26 28  1  0  0  0
 28 29  1  0  0  0
 29 30  1  0  0  0
 30 31  1  0  0  0
 22 18  2  0  0  0
 13  8  1  0  0  0
  6  1  1  0  0  0
 31 29  1  0  0  0
 14 15  1  0  0  0
 14 16  1  0  0  0
 26 27  1  0  0  0
M  END
> <minimizedAffinity>
1.53398

> <CNNscore>
0.3920502663

> <CNNaffinity>
6.9300284386

> <CNN_VS>
2.7169194221

> <CNNaffinity_variance>
0.4573958516

$$$$
[H]c1nc(N([H])[H])c(-c2onc(C([H])([H])[H])c2[H])c([H])c1-c1c([H])c(S(=O)(=O)N([H])C([H])([H])C2([H])C([H])([H])C2([H])[H])c([H])c([H])c1C([H])([H])[H]


 31 34  0  0  0  0  0  0  0  0999 V2000
   12.7705   22.8933   -0.4478 C   0  0  0  0  0  0  0  0  0  0  0  0
   11.7505   23.5059    0.2675 C   0  0  0  0  0  0  0  0  0  0  0  0
   10.6696   22.8134    0.7450 C   0  0  0  0  0  0  0  0  0  0  0  0
   10.5570   21.4585    0.5264 C   0  0  0  0  0  0  0  0  0  0  0  0
   11.5547   20.8310   -0.1794 C   0  0  0  0  0  0  0  0  0  0  0  0
   12.6580   21.5420   -0.6661 C   0  0  0  0  0  0  0  0  0  0  0  0
   13.6896   20.8033   -1.4273 C   0  0  0  0  0  0  0  0  0  0  0  0
   15.0118   24.9913   -2.5785 C   0  0  0  0  0  0  0  0  0  0  0  0
   13.9281   24.2203   -2.1710 C   0  0  0  0  0  0  0  0  0  0  0  0
   13.9036   23.7080   -0.9172 C   0  0  0  0  0  0  0  0  0  0  0  0
   14.9658   23.9626   -0.0572 C   0  0  0  0  0  0  0  0  0  0  0  0
   15.9883   24.7033   -0.4752 N   0  0  0  0  0  0  0  0  0  0  0  0
   16.0532   25.2396   -1.7316 C   0  0  0  0  0  0  0  0  0  0  0  0
   17.1785   26.0190   -2.1004 N   0  0  0  0  0  0  0  0  0  0  0  0
   18.0005   25.6068   -2.5507 H   0  0  0  0  0  0  0  0  0  0  0  0
   17.1775   27.0378   -1.9123 H   0  0  0  0  0  0  0  0  0  0  0  0
   15.5844   25.8448   -7.5814 C   0  0  0  0  0  0  0  0  0  0  0  0
   15.2007   25.9298   -6.1560 C   0  0  0  0  0  0  0  0  0  0  0  0
   15.5436   25.0592   -5.0991 C   0  0  0  0  0  0  0  0  0  0  0  0
   14.9742   25.5126   -3.9431 C   0  0  0  0  0  0  0  0  0  0  0  0
   14.3174   26.6158   -4.3126 O   0  0  0  0  0  0  0  0  0  0  0  0
   14.4409   26.8569   -5.5587 N   0  0  0  0  0  0  0  0  0  0  0  0
    9.3972   23.6041    1.6434 S   0  0  0  0  0  0  0  0  0  0  0  0
    8.2891   23.8994    0.6493 O   0  0  0  0  0  0  0  0  0  0  0  0
    9.9411   24.8843    2.2177 O   0  0  0  0  0  0  0  0  0  0  0  0
    8.7749   22.6041    2.8869 N   0  0  0  0  0  0  0  0  0  0  0  0
    7.8428   22.8851    3.2064 H   0  0  0  0  0  0  0  0  0  0  0  0
    9.7393   22.4301    3.9387 C   0  0  0  0  0  0  0  0  0  0  0  0
   10.0492   20.9786    4.2056 C   0  0  0  0  0  0  0  0  0  0  0  0
   11.4237   20.4604    4.0576 C   0  0  0  0  0  0  0  0  0  0  0  0
   10.8414   20.6848    5.4237 C   0  0  0  0  0  0  0  0  0  0  0  0
 17 18  1  0  0  0
 18 19  1  0  0  0
 19 20  2  0  0  0
 20 21  1  0  0  0
 21 22  1  0  0  0
 20  8  1  0  0  0
  8  9  2  0  0  0
  9 10  1  0  0  0
 10 11  2  0  0  0
 11 12  1  0  0  0
 12 13  2  0  0  0
 13 14  1  0  0  0
 10  1  1  0  0  0
  1  2  2  0  0  0
  2  3  1  0  0  0
  3  4  2  0  0  0
  4  5  1  0  0  0
  5  6  2  0  0  0
  6  7  1  0  0  0
  3 23  1  0  0  0
 23 24  2  0  0  0
 23 25  2  0  0  0
 23 26  1  0  0  0
 26 28  1  0  0  0
 28 29  1  0  0  0
 29 30  1  0  0  0
 30 31  1  0  0  0
 22 18  2  0  0  0
 13  8  1  0  0  0
  6  1  1  0  0  0
 31 29  1  0  0  0
 14 15  1  0  0  0
 14 16  1  0  0  0
 26 27  1  0  0  0
M  END
> <minimizedAffinity>
-9.06770

> <CNNscore>
0.3414323628

> <CNNaffinity>
7.2714147568

> <CNN_VS>
2.4826962948

> <CNNaffinity_variance>
0.0409620404

$$$$
[H]c1nc(N([H])[H])c(-c2onc(C([H])([H])[H])c2[H])c([H])c1-c1c([H])c(S(=O)(=O)N([H])C([H])([H])C2([H])C([H])([H])C2([H])[H])c([H])c([H])c1C([H])([H])[H]


 31 34  0  0  0  0  0  0  0  0999 V2000
   13.0008   22.0146    0.3655 C   0  0  0  0  0  0  0  0  0  0  0  0
   13.1743   22.4864   -0.9286 C   0  0  0  0  0  0  0  0  0  0  0  0
   14.4125   22.7195   -1.4658 C   0  0  0  0  0  0  0  0  0  0  0  0
   15.5496   22.4887   -0.7239 C   0  0  0  0  0  0  0  0  0  0  0  0
   15.4020   22.0217    0.5595 C   0  0  0  0  0  0  0  0  0  0  0  0
   14.1349   21.7847    1.1053 C   0  0  0  0  0  0  0  0  0  0  0  0
   14.0508   21.2919    2.4980 C   0  0  0  0  0  0  0  0  0  0  0  0
    9.3782   21.1159    0.5487 C   0  0  0  0  0  0  0  0  0  0  0  0
   10.6554   21.3330    0.0422 C   0  0  0  0  0  0  0  0  0  0  0  0
   11.6353   21.7801    0.8637 C   0  0  0  0  0  0  0  0  0  0  0  0
   11.3459   22.0153    2.2029 C   0  0  0  0  0  0  0  0  0  0  0  0
   10.1153   21.7987    2.6584 N   0  0  0  0  0  0  0  0  0  0  0  0
    9.0972   21.3476    1.8643 C   0  0  0  0  0  0  0  0  0  0  0  0
    7.8124   21.1413    2.4267 N   0  0  0  0  0  0  0  0  0  0  0  0
    7.0962   21.8731    2.4279 H   0  0  0  0  0  0  0  0  0  0  0  0
    7.5825   20.2249    2.8517 H   0  0  0  0  0  0  0  0  0  0  0  0
    6.5659   19.9792   -3.5603 C   0  0  0  0  0  0  0  0  0  0  0  0
    7.0919   20.1071   -2.1845 C   0  0  0  0  0  0  0  0  0  0  0  0
    8.2651   20.7595   -1.7480 C   0  0  0  0  0  0  0  0  0  0  0  0
    8.3691   20.6336   -0.3917 C   0  0  0  0  0  0  0  0  0  0  0  0
    7.2888   19.9283   -0.0448 O   0  0  0  0  0  0  0  0  0  0  0  0
    6.5644   19.6281   -1.0504 N   0  0  0  0  0  0  0  0  0  0  0  0
   14.6082   23.3131   -3.0969 S   0  0  0  0  0  0  0  0  0  0  0  0
   13.3447   24.0860   -3.4273 O   0  0  0  0  0  0  0  0  0  0  0  0
   14.7584   22.1344   -4.0204 O   0  0  0  0  0  0  0  0  0  0  0  0
   15.9539   24.3632   -3.2388 N   0  0  0  0  0  0  0  0  0  0  0  0
   16.7022   24.1578   -2.5696 H   0  0  0  0  0  0  0  0  0  0  0  0
   15.5341   25.7378   -3.2616 C   0  0  0  0  0  0  0  0  0  0  0  0
   14.0675   25.8900   -3.5777 C   0  0  0  0  0  0  0  0  0  0  0  0
   13.1159   26.3462   -2.5451 C   0  0  0  0  0  0  0  0  0  0  0  0
   13.5455   27.2759   -3.6436 C   0  0  0  0  0  0  0  0  0  0  0  0
 17 18  1  0  0  0
 18 19  1  0  0  0
 19 20  2  0  0  0
 20 21  1  0  0  0
 21 22  1  0  0  0
 20  8  1  0  0  0
  8  9  2  0  0  0
  9 10  1  0  0  0
 10 11  2  0  0  0
 11 12  1  0  0  0
 12 13  2  0  0  0
 13 14  1  0  0  0
 10  1  1  0  0  0
  1  2  2  0  0  0
  2  3  1  0  0  0
  3  4  2  0  0  0
  4  5  1  0  0  0
  5  6  2  0  0  0
  6  7  1  0  0  0
  3 23  1  0  0  0
 23 24  2  0  0  0
 23 25  2  0  0  0
 23 26  1  0  0  0
 26 28  1  0  0  0
 28 29  1  0  0  0
 29 30  1  0  0  0
 30 31  1  0  0  0
 22 18  2  0  0  0
 13  8  1  0  0  0
  6  1  1  0  0  0
 31 29  1  0  0  0
 14 15  1  0  0  0
 14 16  1  0  0  0
 26 27  1  0  0  0
M  END
> <minimizedAffinity>
0.24946

> <CNNscore>
0.3367699981

> <CNNaffinity>
6.6839065552

> <CNN_VS>
2.2509391308

> <CNNaffinity_variance>
1.2542985678

$$$$
[H]O[C@]([H])(C([H])([H])[H])[C@@]([H])(C(=O)N([H])S(=O)(=O)c1c([H])c([H])c([H])c(-c2c([H])c(C([H])([H])[H])c([H])c(C([H])([H])[H])c2[H])c1[H])N([H])[H]


 29 30  0  0  0  0  0  0  0  0999 V2000
   12.6577   25.1862    0.1973 S   0  0  0  0  0  0  0  0  0  0  0  0
   13.2539   26.1122    1.2039 O   0  0  0  0  0  0  0  0  0  0  0  0
   11.1775   25.1006    0.5515 O   0  0  0  0  0  0  0  0  0  0  0  0
   12.8182   25.8222   -1.3979 C   0  0  0  0  0  0  0  0  0  0  0  0
   12.1643   26.9562   -1.7948 C   0  0  0  0  0  0  0  0  0  0  0  0
   12.3146   27.4630   -3.0787 C   0  0  0  0  0  0  0  0  0  0  0  0
   13.1277   26.8139   -3.9573 C   0  0  0  0  0  0  0  0  0  0  0  0
   13.8015   25.6683   -3.6039 C   0  0  0  0  0  0  0  0  0  0  0  0
   13.6406   25.1890   -2.3348 C   0  0  0  0  0  0  0  0  0  0  0  0
   14.6470   24.9680   -4.5803 C   0  0  0  0  0  0  0  0  0  0  0  0
   15.1889   25.5746   -5.6692 C   0  0  0  0  0  0  0  0  0  0  0  0
   15.9306   24.8826   -6.6245 C   0  0  0  0  0  0  0  0  0  0  0  0
   16.5275   25.5393   -7.8087 C   0  0  0  0  0  0  0  0  0  0  0  0
   16.1157   23.5334   -6.4516 C   0  0  0  0  0  0  0  0  0  0  0  0
   15.5788   22.8879   -5.3583 C   0  0  0  0  0  0  0  0  0  0  0  0
   15.7688   21.4347   -5.2192 C   0  0  0  0  0  0  0  0  0  0  0  0
   14.8558   23.5900   -4.4340 C   0  0  0  0  0  0  0  0  0  0  0  0
   14.5442   23.1585   -0.1003 C   0  0  0  0  0  0  0  0  0  0  0  0
   15.2791   23.9431   -0.7376 O   0  0  0  0  0  0  0  0  0  0  0  0
   13.3027   23.6041    0.3817 N   0  0  0  0  0  0  0  0  0  0  0  0
   12.7000   22.9067    0.9042 H   0  0  0  0  0  0  0  0  0  0  0  0
   14.9569   21.7444    0.1718 C   0  0  0  0  0  0  0  0  0  0  0  0
   14.6064   21.3692    1.5076 N   0  0  0  0  0  0  0  0  0  0  0  0
   13.5590   21.2929    1.5673 H   0  0  0  0  0  0  0  0  0  0  0  0
   15.0783   20.5160    1.8471 H   0  0  0  0  0  0  0  0  0  0  0  0
   15.1678   21.0280   -2.2422 C   0  0  0  0  0  0  0  0  0  0  0  0
   14.5694   20.7870   -0.8961 C   0  0  0  0  0  0  0  0  0  0  0  0
   14.7964   19.4527   -0.5372 O   0  0  0  0  0  0  0  0  0  0  0  0
   14.2096   19.2614    0.2455 H   0  0  0  0  0  0  0  0  0  0  0  0
 26 27  1  0  0  0
 27 28  1  0  0  0
 27 22  1  0  0  0
 22 23  1  0  0  0
 22 18  1  0  0  0
 18 19  2  0  0  0
 18 20  1  0  0  0
 20  1  1  0  0  0
  1  2  2  0  0  0
  1  3  2  0  0  0
  1  4  1  0  0  0
  4  5  2  0  0  0
  5  6  1  0  0  0
  6  7  2  0  0  0
  7  8  1  0  0  0
  8  9  2  0  0  0
  8 10  1  0  0  0
 10 11  2  0  0  0
 11 12  1  0  0  0
 12 13  1  0  0  0
 12 14  2  0  0  0
 14 15  1  0  0  0
 15 16  1  0  0  0
 15 17  2  0  0  0
  9  4  1  0  0  0
 17 10  1  0  0  0
 28 29  1  0  0  0
 23 24  1  0  0  0
 23 25  1  0  0  0
 20 21  1  0  0  0
M  END
> <minimizedAffinity>
8.17127

> <CNNscore>
0.5708652139

> <CNNaffinity>
6.8995437622

> <CNN_VS>
3.9387094975

> <CNNaffinity_variance>
1.2835663557

$$$$
[H]O[C@]([H])(C([H])([H])[H])[C@@]([H])(C(=O)N([H])S(=O)(=O)c1c([H])c([H])c([H])c(-c2c([H])c(C([H])([H])[H])c([H])c(C([H])([H])[H])c2[H])c1[H])N([H])[H]


 29 30  0  0  0  0  0  0  0  0999 V2000
   15.0236   20.8843   -4.6487 S   0  0  0  0  0  0  0  0  0  0  0  0
   14.2845   20.2799   -5.7952 O   0  0  0  0  0  0  0  0  0  0  0  0
   16.4050   20.2401   -4.6719 O   0  0  0  0  0  0  0  0  0  0  0  0
   15.1944   22.5883   -4.8534 C   0  0  0  0  0  0  0  0  0  0  0  0
   16.0165   23.1246   -5.8061 C   0  0  0  0  0  0  0  0  0  0  0  0
   16.1327   24.4989   -5.9673 C   0  0  0  0  0  0  0  0  0  0  0  0
   15.4144   25.3249   -5.1572 C   0  0  0  0  0  0  0  0  0  0  0  0
   14.5789   24.8308   -4.1831 C   0  0  0  0  0  0  0  0  0  0  0  0
   14.4784   23.4755   -4.0441 C   0  0  0  0  0  0  0  0  0  0  0  0
   13.8398   25.7432   -3.2999 C   0  0  0  0  0  0  0  0  0  0  0  0
   13.5383   25.4497   -2.0075 C   0  0  0  0  0  0  0  0  0  0  0  0
   12.7763   26.2940   -1.2026 C   0  0  0  0  0  0  0  0  0  0  0  0
   12.4500   25.9820    0.2067 C   0  0  0  0  0  0  0  0  0  0  0  0
   12.3145   27.4674   -1.7452 C   0  0  0  0  0  0  0  0  0  0  0  0
   12.6021   27.7944   -3.0531 C   0  0  0  0  0  0  0  0  0  0  0  0
   12.0648   29.0449   -3.6142 C   0  0  0  0  0  0  0  0  0  0  0  0
   13.3533   26.9492   -3.8221 C   0  0  0  0  0  0  0  0  0  0  0  0
   14.4385   21.1040   -1.9342 C   0  0  0  0  0  0  0  0  0  0  0  0
   15.1642   22.1191   -1.8655 O   0  0  0  0  0  0  0  0  0  0  0  0
   14.2930   20.4340   -3.1598 N   0  0  0  0  0  0  0  0  0  0  0  0
   13.6823   19.5683   -3.1766 H   0  0  0  0  0  0  0  0  0  0  0  0
   13.7079   20.5801   -0.7360 C   0  0  0  0  0  0  0  0  0  0  0  0
   14.6316   20.2291    0.2992 N   0  0  0  0  0  0  0  0  0  0  0  0
   15.0509   21.1135    0.6843 H   0  0  0  0  0  0  0  0  0  0  0  0
   14.2319   19.6331    1.0414 H   0  0  0  0  0  0  0  0  0  0  0  0
   11.3980   21.4565   -1.2665 C   0  0  0  0  0  0  0  0  0  0  0  0
   12.5524   21.4167   -0.3209 C   0  0  0  0  0  0  0  0  0  0  0  0
   12.0758   21.0894    0.9544 O   0  0  0  0  0  0  0  0  0  0  0  0
   12.8140   21.2825    1.5957 H   0  0  0  0  0  0  0  0  0  0  0  0
 26 27  1  0  0  0
 27 28  1  0  0  0
 27 22  1  0  0  0
 22 23  1  0  0  0
 22 18  1  0  0  0
 18 19  2  0  0  0
 18 20  1  0  0  0
 20  1  1  0  0  0
  1  2  2  0  0  0
  1  3  2  0  0  0
  1  4  1  0  0  0
  4  5  2  0  0  0
  5  6  1  0  0  0
  6  7  2  0  0  0
  7  8  1  0  0  0
  8  9  2  0  0  0
  8 10  1  0  0  0
 10 11  2  0  0  0
 11 12  1  0  0  0
 12 13  1  0  0  0
 12 14  2  0  0  0
 14 15  1  0  0  0
 15 16  1  0  0  0
 15 17  2  0  0  0
  9  4  1  0  0  0
 17 10  1  0  0  0
 28 29  1  0  0  0
 23 24  1  0  0  0
 23 25  1  0  0  0
 20 21  1  0  0  0
M  END
> <minimizedAffinity>
15.42669

> <CNNscore>
0.5228931308

> <CNNaffinity>
6.1939363480

> <CNN_VS>
3.2387666702

> <CNNaffinity_variance>
0.8937160373

$$$$
[H]O[C@]([H])(C([H])([H])[H])[C@@]([H])(C(=O)N([H])S(=O)(=O)c1c([H])c([H])c([H])c(-c2c([H])c(C([H])([H])[H])c([H])c(C([H])([H])[H])c2[H])c1[H])N([H])[H]


 29 30  0  0  0  0  0  0  0  0999 V2000
   15.3499   21.5077   -4.3500 S   0  0  0  0  0  0  0  0  0  0  0  0
   14.3178   20.6836   -5.0441 O   0  0  0  0  0  0  0  0  0  0  0  0
   16.6915   20.9390   -4.7978 O   0  0  0  0  0  0  0  0  0  0  0  0
   15.2495   23.1598   -4.8350 C   0  0  0  0  0  0  0  0  0  0  0  0
   15.8604   23.6203   -5.9689 C   0  0  0  0  0  0  0  0  0  0  0  0
   15.7588   24.9508   -6.3529 C   0  0  0  0  0  0  0  0  0  0  0  0
   15.0381   25.8108   -5.5813 C   0  0  0  0  0  0  0  0  0  0  0  0
   14.4106   25.3936   -4.4309 C   0  0  0  0  0  0  0  0  0  0  0  0
   14.5222   24.0798   -4.0737 C   0  0  0  0  0  0  0  0  0  0  0  0
   13.6665   26.3482   -3.5979 C   0  0  0  0  0  0  0  0  0  0  0  0
   13.2493   27.5620   -4.0452 C   0  0  0  0  0  0  0  0  0  0  0  0
   12.6062   28.4858   -3.2240 C   0  0  0  0  0  0  0  0  0  0  0  0
   12.1450   29.8062   -3.7073 C   0  0  0  0  0  0  0  0  0  0  0  0
   12.3902   28.1487   -1.9109 C   0  0  0  0  0  0  0  0  0  0  0  0
   12.8016   26.9257   -1.4257 C   0  0  0  0  0  0  0  0  0  0  0  0
   12.5833   26.6079   -0.0049 C   0  0  0  0  0  0  0  0  0  0  0  0
   13.4295   26.0357   -2.2526 C   0  0  0  0  0  0  0  0  0  0  0  0
   14.1573   20.7605   -1.9462 C   0  0  0  0  0  0  0  0  0  0  0  0
   13.1225   20.4352   -2.5669 O   0  0  0  0  0  0  0  0  0  0  0  0
   15.2577   21.2767   -2.6496 N   0  0  0  0  0  0  0  0  0  0  0  0
   16.1119   21.5560   -2.0884 H   0  0  0  0  0  0  0  0  0  0  0  0
   14.2600   20.6082   -0.4595 C   0  0  0  0  0  0  0  0  0  0  0  0
   15.4633   19.9172   -0.1094 N   0  0  0  0  0  0  0  0  0  0  0  0
   16.2798   20.5499   -0.3083 H   0  0  0  0  0  0  0  0  0  0  0  0
   15.4793   19.5542    0.8570 H   0  0  0  0  0  0  0  0  0  0  0  0
   13.3200   21.6901    1.6216 C   0  0  0  0  0  0  0  0  0  0  0  0
   13.9841   21.8578    0.2953 C   0  0  0  0  0  0  0  0  0  0  0  0
   15.1239   22.6538    0.4624 O   0  0  0  0  0  0  0  0  0  0  0  0
   15.4187   22.9291   -0.4491 H   0  0  0  0  0  0  0  0  0  0  0  0
 26 27  1  0  0  0
 27 28  1  0  0  0
 27 22  1  0  0  0
 22 23  1  0  0  0
 22 18  1  0  0  0
 18 19  2  0  0  0
 18 20  1  0  0  0
 20  1  1  0  0  0
  1  2  2  0  0  0
  1  3  2  0  0  0
  1  4  1  0  0  0
  4  5  2  0  0  0
  5  6  1  0  0  0
  6  7  2  0  0  0
  7  8  1  0  0  0
  8  9  2  0  0  0
  8 10  1  0  0  0
 10 11  2  0  0  0
 11 12  1  0  0  0
 12 13  1  0  0  0
 12 14  2  0  0  0
 14 15  1  0  0  0
 15 16  1  0  0  0
 15 17  2  0  0  0
  9  4  1  0  0  0
 17 10  1  0  0  0
 28 29  1  0  0  0
 23 24  1  0  0  0
 23 25  1  0  0  0
 20 21  1  0  0  0
M  END
> <minimizedAffinity>
19.13583

> <CNNscore>
0.4811513126

> <CNNaffinity>
5.8755240440

> <CNN_VS>
2.8270161152

> <CNNaffinity_variance>
0.7549017072

$$$$
[H]O[C@]([H])(C([H])([H])[H])[C@@]([H])(C(=O)N([H])S(=O)(=O)c1c([H])c([H])c([H])c(-c2c([H])c(C([H])([H])[H])c([H])c(C([H])([H])[H])c2[H])c1[H])N([H])[H]


 29 30  0  0  0  0  0  0  0  0999 V2000
   13.0075   27.0123   -3.8680 S   0  0  0  0  0  0  0  0  0  0  0  0
   11.7790   27.7477   -4.2873 O   0  0  0  0  0  0  0  0  0  0  0  0
   13.8897   28.0518   -3.1862 O   0  0  0  0  0  0  0  0  0  0  0  0
   12.6263   25.7685   -2.7355 C   0  0  0  0  0  0  0  0  0  0  0  0
   11.3402   25.3573   -2.5169 C   0  0  0  0  0  0  0  0  0  0  0  0
   11.0511   24.3451   -1.6114 C   0  0  0  0  0  0  0  0  0  0  0  0
   12.0705   23.7550   -0.9282 C   0  0  0  0  0  0  0  0  0  0  0  0
   13.3783   24.1387   -1.1122 C   0  0  0  0  0  0  0  0  0  0  0  0
   13.6396   25.1349   -2.0097 C   0  0  0  0  0  0  0  0  0  0  0  0
   14.4572   23.5092   -0.3385 C   0  0  0  0  0  0  0  0  0  0  0  0
   15.5738   24.1729    0.0616 C   0  0  0  0  0  0  0  0  0  0  0  0
   16.6210   23.5461    0.7338 C   0  0  0  0  0  0  0  0  0  0  0  0
   17.8362   24.2651    1.1766 C   0  0  0  0  0  0  0  0  0  0  0  0
   16.5128   22.2033    0.9978 C   0  0  0  0  0  0  0  0  0  0  0  0
   15.3936   21.5009    0.6048 C   0  0  0  0  0  0  0  0  0  0  0  0
   15.3229   20.0555    0.8749 C   0  0  0  0  0  0  0  0  0  0  0  0
   14.3787   22.1396   -0.0525 C   0  0  0  0  0  0  0  0  0  0  0  0
   14.9477   27.1139   -5.8641 C   0  0  0  0  0  0  0  0  0  0  0  0
   15.3414   28.2128   -5.4180 O   0  0  0  0  0  0  0  0  0  0  0  0
   13.8727   26.4559   -5.2447 N   0  0  0  0  0  0  0  0  0  0  0  0
   13.5566   25.5338   -5.6599 H   0  0  0  0  0  0  0  0  0  0  0  0
   15.6003   26.4696   -7.0487 C   0  0  0  0  0  0  0  0  0  0  0  0
   16.7647   27.2041   -7.4393 N   0  0  0  0  0  0  0  0  0  0  0  0
   17.5029   27.0736   -6.7015 H   0  0  0  0  0  0  0  0  0  0  0  0
   17.1142   26.9759   -8.3836 H   0  0  0  0  0  0  0  0  0  0  0  0
   15.6415   24.4446   -5.5378 C   0  0  0  0  0  0  0  0  0  0  0  0
   15.7717   24.9997   -6.9174 C   0  0  0  0  0  0  0  0  0  0  0  0
   14.9310   24.2767   -7.7725 O   0  0  0  0  0  0  0  0  0  0  0  0
   15.1954   24.5136   -8.7038 H   0  0  0  0  0  0  0  0  0  0  0  0
 26 27  1  0  0  0
 27 28  1  0  0  0
 27 22  1  0  0  0
 22 23  1  0  0  0
 22 18  1  0  0  0
 18 19  2  0  0  0
 18 20  1  0  0  0
 20  1  1  0  0  0
  1  2  2  0  0  0
  1  3  2  0  0  0
  1  4  1  0  0  0
  4  5  2  0  0  0
  5  6  1  0  0  0
  6  7  2  0  0  0
  7  8  1  0  0  0
  8  9  2  0  0  0
  8 10  1  0  0  0
 10 11  2  0  0  0
 11 12  1  0  0  0
 12 13  1  0  0  0
 12 14  2  0  0  0
 14 15  1  0  0  0
 15 16  1  0  0  0
 15 17  2  0  0  0
  9  4  1  0  0  0
 17 10  1  0  0  0
 28 29  1  0  0  0
 23 24  1  0  0  0
 23 25  1  0  0  0
 20 21  1  0  0  0
M  END
> <minimizedAffinity>
1.02886

> <CNNscore>
0.4685897529

> <CNNaffinity>
6.3573174477

> <CNN_VS>
2.9789738655

> <CNNaffinity_variance>
0.5001581907

$$$$
[H]O[C@]([H])(C([H])([H])[H])[C@@]([H])(C(=O)N([H])S(=O)(=O)c1c([H])c([H])c([H])c(-c2c([H])c(C([H])([H])[H])c([H])c(C([H])([H])[H])c2[H])c1[H])N([H])[H]


 29 30  0  0  0  0  0  0  0  0999 V2000
   13.1750   24.1138    0.2941 S   0  0  0  0  0  0  0  0  0  0  0  0
   14.2093   24.3596    1.3409 O   0  0  0  0  0  0  0  0  0  0  0  0
   12.4781   25.4542    0.0899 O   0  0  0  0  0  0  0  0  0  0  0  0
   13.9036   23.6269   -1.1915 C   0  0  0  0  0  0  0  0  0  0  0  0
   14.1422   22.3123   -1.4845 C   0  0  0  0  0  0  0  0  0  0  0  0
   14.7173   21.9355   -2.6909 C   0  0  0  0  0  0  0  0  0  0  0  0
   15.0508   22.8969   -3.5958 C   0  0  0  0  0  0  0  0  0  0  0  0
   14.8335   24.2311   -3.3426 C   0  0  0  0  0  0  0  0  0  0  0  0
   14.2645   24.5785   -2.1502 C   0  0  0  0  0  0  0  0  0  0  0  0
   15.2326   25.2516   -4.3213 C   0  0  0  0  0  0  0  0  0  0  0  0
   15.1619   25.0644   -5.6657 C   0  0  0  0  0  0  0  0  0  0  0  0
   15.6095   26.0139   -6.5819 C   0  0  0  0  0  0  0  0  0  0  0  0
   15.5296   25.8175   -8.0464 C   0  0  0  0  0  0  0  0  0  0  0  0
   16.1431   27.1827   -6.0985 C   0  0  0  0  0  0  0  0  0  0  0  0
   16.2298   27.4034   -4.7406 C   0  0  0  0  0  0  0  0  0  0  0  0
   16.8364   28.6536   -4.2547 C   0  0  0  0  0  0  0  0  0  0  0  0
   15.7821   26.4561   -3.8618 C   0  0  0  0  0  0  0  0  0  0  0  0
   12.2291   21.7716    1.4680 C   0  0  0  0  0  0  0  0  0  0  0  0
   13.4049   21.3691    1.5996 O   0  0  0  0  0  0  0  0  0  0  0  0
   11.9830   23.0200    0.8737 N   0  0  0  0  0  0  0  0  0  0  0  0
   10.9731   23.3213    0.7648 H   0  0  0  0  0  0  0  0  0  0  0  0
   11.0639   20.9547    1.9360 C   0  0  0  0  0  0  0  0  0  0  0  0
   10.8324   19.8579    1.0464 N   0  0  0  0  0  0  0  0  0  0  0  0
   11.6216   19.1708    1.1535 H   0  0  0  0  0  0  0  0  0  0  0  0
    9.9090   19.4093    1.1559 H   0  0  0  0  0  0  0  0  0  0  0  0
    9.8768   20.9531    4.1666 C   0  0  0  0  0  0  0  0  0  0  0  0
   11.1035   20.6215    3.3833 C   0  0  0  0  0  0  0  0  0  0  0  0
   11.4403   19.2837    3.6232 O   0  0  0  0  0  0  0  0  0  0  0  0
   12.3646   19.1527    3.2740 H   0  0  0  0  0  0  0  0  0  0  0  0
 26 27  1  0  0  0
 27 28  1  0  0  0
 27 22  1  0  0  0
 22 23  1  0  0  0
 22 18  1  0  0  0
 18 19  2  0  0  0
 18 20  1  0  0  0
 20  1  1  0  0  0
  1  2  2  0  0  0
  1  3  2  0  0  0
  1  4  1  0  0  0
  4  5  2  0  0  0
  5  6  1  0  0  0
  6  7  2  0  0  0
  7  8  1  0  0  0
  8  9  2  0  0  0
  8 10  1  0  0  0
 10 11  2  0  0  0
 11 12  1  0  0  0
 12 13  1  0  0  0
 12 14  2  0  0  0
 14 15  1  0  0  0
 15 16  1  0  0  0
 15 17  2  0  0  0
  9  4  1  0  0  0
 17 10  1  0  0  0
 28 29  1  0  0  0
 23 24  1  0  0  0
 23 25  1  0  0  0
 20 21  1  0  0  0
M  END
> <minimizedAffinity>
-8.75810

> <CNNscore>
0.4332588911

> <CNNaffinity>
6.7582182884

> <CNN_VS>
2.9280581474

> <CNNaffinity_variance>
0.1689710617

$$$$
[H]O[C@]([H])(C([H])([H])[H])[C@@]([H])(C(=O)N([H])S(=O)(=O)c1c([H])c([H])c([H])c(-c2c([H])c(C([H])([H])[H])c([H])c(C([H])([H])[H])c2[H])c1[H])N([H])[H]


 29 30  0  0  0  0  0  0  0  0999 V2000
   13.2957   24.0779    0.3220 S   0  0  0  0  0  0  0  0  0  0  0  0
   14.3444   24.5392    1.2777 O   0  0  0  0  0  0  0  0  0  0  0  0
   12.3986   25.2881    0.0890 O   0  0  0  0  0  0  0  0  0  0  0  0
   13.9962   23.5998   -1.1799 C   0  0  0  0  0  0  0  0  0  0  0  0
   14.1856   22.2847   -1.5048 C   0  0  0  0  0  0  0  0  0  0  0  0
   14.7386   21.9157   -2.7238 C   0  0  0  0  0  0  0  0  0  0  0  0
   15.1002   22.8853   -3.6089 C   0  0  0  0  0  0  0  0  0  0  0  0
   14.9326   24.2201   -3.3235 C   0  0  0  0  0  0  0  0  0  0  0  0
   14.3845   24.5599   -2.1192 C   0  0  0  0  0  0  0  0  0  0  0  0
   15.3615   25.2482   -4.2816 C   0  0  0  0  0  0  0  0  0  0  0  0
   15.8237   26.4705   -3.9076 C   0  0  0  0  0  0  0  0  0  0  0  0
   16.1606   27.4610   -4.8278 C   0  0  0  0  0  0  0  0  0  0  0  0
   16.6697   28.7912   -4.4262 C   0  0  0  0  0  0  0  0  0  0  0  0
   16.0157   27.1831   -6.1643 C   0  0  0  0  0  0  0  0  0  0  0  0
   15.5487   25.9534   -6.5768 C   0  0  0  0  0  0  0  0  0  0  0  0
   15.3746   25.6987   -8.0162 C   0  0  0  0  0  0  0  0  0  0  0  0
   15.2262   24.9974   -5.6537 C   0  0  0  0  0  0  0  0  0  0  0  0
   11.1079   22.3665    0.5314 C   0  0  0  0  0  0  0  0  0  0  0  0
   10.6585   22.8182   -0.5437 O   0  0  0  0  0  0  0  0  0  0  0  0
   12.3145   22.8673    1.0466 N   0  0  0  0  0  0  0  0  0  0  0  0
   12.6567   22.4714    1.9679 H   0  0  0  0  0  0  0  0  0  0  0  0
   10.3919   21.2915    1.2902 C   0  0  0  0  0  0  0  0  0  0  0  0
   10.9188   20.0047    0.9517 N   0  0  0  0  0  0  0  0  0  0  0  0
   11.8888   19.9272    1.3511 H   0  0  0  0  0  0  0  0  0  0  0  0
   10.3187   19.2126    1.2318 H   0  0  0  0  0  0  0  0  0  0  0  0
   11.1577   20.8205    3.6517 C   0  0  0  0  0  0  0  0  0  0  0  0
   10.2449   21.5733    2.7415 C   0  0  0  0  0  0  0  0  0  0  0  0
   10.3384   22.9378    3.0415 O   0  0  0  0  0  0  0  0  0  0  0  0
    9.5745   23.3859    2.5841 H   0  0  0  0  0  0  0  0  0  0  0  0
 26 27  1  0  0  0
 27 28  1  0  0  0
 27 22  1  0  0  0
 22 23  1  0  0  0
 22 18  1  0  0  0
 18 19  2  0  0  0
 18 20  1  0  0  0
 20  1  1  0  0  0
  1  2  2  0  0  0
  1  3  2  0  0  0
  1  4  1  0  0  0
  4  5  2  0  0  0
  5  6  1  0  0  0
  6  7  2  0  0  0
  7  8  1  0  0  0
  8  9  2  0  0  0
  8 10  1  0  0  0
 10 11  2  0  0  0
 11 12  1  0  0  0
 12 13  1  0  0  0
 12 14  2  0  0  0
 14 15  1  0  0  0
 15 16  1  0  0  0
 15 17  2  0  0  0
  9  4  1  0  0  0
 17 10  1  0  0  0
 28 29  1  0  0  0
 23 24  1  0  0  0
 23 25  1  0  0  0
 20 21  1  0  0  0
M  END
> <minimizedAffinity>
-8.40713

> <CNNscore>
0.3911960423

> <CNNaffinity>
6.7035164833

> <CNN_VS>
2.6223890781

> <CNNaffinity_variance>
0.2479962409

$$$$
[H]O[C@]([H])(C([H])([H])[H])[C@@]([H])(C(=O)N([H])S(=O)(=O)c1c([H])c([H])c([H])c(-c2c([H])c(C([H])([H])[H])c([H])c(C([H])([H])[H])c2[H])c1[H])N([H])[H]


 29 30  0  0  0  0  0  0  0  0999 V2000
   11.9819   24.3742   -0.5936 S   0  0  0  0  0  0  0  0  0  0  0  0
   11.7475   25.1398    0.6654 O   0  0  0  0  0  0  0  0  0  0  0  0
   11.0411   24.9892   -1.6234 O   0  0  0  0  0  0  0  0  0  0  0  0
   13.6085   24.5608   -1.1359 C   0  0  0  0  0  0  0  0  0  0  0  0
   14.6734   24.1264   -0.3954 C   0  0  0  0  0  0  0  0  0  0  0  0
   15.9765   24.2719   -0.8522 C   0  0  0  0  0  0  0  0  0  0  0  0
   16.1940   24.8614   -2.0603 C   0  0  0  0  0  0  0  0  0  0  0  0
   15.1548   25.3173   -2.8371 C   0  0  0  0  0  0  0  0  0  0  0  0
   13.8809   25.1615   -2.3688 C   0  0  0  0  0  0  0  0  0  0  0  0
   15.4175   25.9798   -4.1220 C   0  0  0  0  0  0  0  0  0  0  0  0
   15.6406   27.3152   -4.2412 C   0  0  0  0  0  0  0  0  0  0  0  0
   15.8186   27.9409   -5.4734 C   0  0  0  0  0  0  0  0  0  0  0  0
   16.0676   29.3934   -5.6083 C   0  0  0  0  0  0  0  0  0  0  0  0
   15.7638   27.1700   -6.6079 C   0  0  0  0  0  0  0  0  0  0  0  0
   15.5386   25.8128   -6.5215 C   0  0  0  0  0  0  0  0  0  0  0  0
   15.4538   25.0199   -7.7590 C   0  0  0  0  0  0  0  0  0  0  0  0
   15.3683   25.2222   -5.2999 C   0  0  0  0  0  0  0  0  0  0  0  0
   11.7667   21.9253    0.7163 C   0  0  0  0  0  0  0  0  0  0  0  0
   12.4222   22.3867    1.6751 O   0  0  0  0  0  0  0  0  0  0  0  0
   11.4991   22.7365   -0.3984 N   0  0  0  0  0  0  0  0  0  0  0  0
   10.9540   22.3066   -1.1988 H   0  0  0  0  0  0  0  0  0  0  0  0
   11.2485   20.5199    0.7252 C   0  0  0  0  0  0  0  0  0  0  0  0
   11.4204   19.9316    2.0184 N   0  0  0  0  0  0  0  0  0  0  0  0
   10.7571   20.3996    2.6873 H   0  0  0  0  0  0  0  0  0  0  0  0
   11.3267   18.9035    2.0335 H   0  0  0  0  0  0  0  0  0  0  0  0
    8.8282   21.2439    0.6735 C   0  0  0  0  0  0  0  0  0  0  0  0
    9.9019   20.3697    0.1157 C   0  0  0  0  0  0  0  0  0  0  0  0
    9.9177   20.5126   -1.2771 O   0  0  0  0  0  0  0  0  0  0  0  0
   10.4786   19.7710   -1.6361 H   0  0  0  0  0  0  0  0  0  0  0  0
 26 27  1  0  0  0
 27 28  1  0  0  0
 27 22  1  0  0  0
 22 23  1  0  0  0
 22 18  1  0  0  0
 18 19  2  0  0  0
 18 20  1  0  0  0
 20  1  1  0  0  0
  1  2  2  0  0  0
  1  3  2  0  0  0
  1  4  1  0  0  0
  4  5  2  0  0  0
  5  6  1  0  0  0
  6  7  2  0  0  0
  7  8  1  0  0  0
  8  9  2  0  0  0
  8 10  1  0  0  0
 10 11  2  0  0  0
 11 12  1  0  0  0
 12 13  1  0  0  0
 12 14  2  0  0  0
 14 15  1  0  0  0
 15 16  1  0  0  0
 15 17  2  0  0  0
  9  4  1  0  0  0
 17 10  1  0  0  0
 28 29  1  0  0  0
 23 24  1  0  0  0
 23 25  1  0  0  0
 20 21  1  0  0  0
M  END
> <minimizedAffinity>
-6.81543

> <CNNscore>
0.3870383501

> <CNNaffinity>
6.4787511826

> <CNN_VS>
2.5075252056

> <CNNaffinity_variance>
0.3293785155

$$$$
[H]O[C@]([H])(C([H])([H])[H])[C@@]([H])(C(=O)N([H])S(=O)(=O)c1c([H])c([H])c([H])c(-c2c([H])c(C([H])([H])[H])c([H])c(C([H])([H])[H])c2[H])c1[H])N([H])[H]


 29 30  0  0  0  0  0  0  0  0999 V2000
   13.9173   22.7628   -0.2462 S   0  0  0  0  0  0  0  0  0  0  0  0
   15.0155   22.6523    0.7576 O   0  0  0  0  0  0  0  0  0  0  0  0
   13.6446   21.3358   -0.7078 O   0  0  0  0  0  0  0  0  0  0  0  0
   12.4864   23.4044    0.4721 C   0  0  0  0  0  0  0  0  0  0  0  0
   12.3890   24.7168    0.8450 C   0  0  0  0  0  0  0  0  0  0  0  0
   11.2251   25.2213    1.4097 C   0  0  0  0  0  0  0  0  0  0  0  0
   10.1636   24.3891    1.5965 C   0  0  0  0  0  0  0  0  0  0  0  0
   10.2174   23.0617    1.2409 C   0  0  0  0  0  0  0  0  0  0  0  0
   11.3717   22.5877    0.6849 C   0  0  0  0  0  0  0  0  0  0  0  0
    9.0700   22.1766    1.4831 C   0  0  0  0  0  0  0  0  0  0  0  0
    8.5516   21.9478    2.7186 C   0  0  0  0  0  0  0  0  0  0  0  0
    7.5083   21.0518    2.9424 C   0  0  0  0  0  0  0  0  0  0  0  0
    6.9365   20.8033    4.2844 C   0  0  0  0  0  0  0  0  0  0  0  0
    6.9895   20.3761    1.8659 C   0  0  0  0  0  0  0  0  0  0  0  0
    7.4932   20.5849    0.5998 C   0  0  0  0  0  0  0  0  0  0  0  0
    6.9360   19.8207   -0.5284 C   0  0  0  0  0  0  0  0  0  0  0  0
    8.5167   21.4708    0.4062 C   0  0  0  0  0  0  0  0  0  0  0  0
   13.6329   24.3322   -2.5299 C   0  0  0  0  0  0  0  0  0  0  0  0
   12.3942   24.3390   -2.3644 O   0  0  0  0  0  0  0  0  0  0  0  0
   14.4520   23.6354   -1.6267 N   0  0  0  0  0  0  0  0  0  0  0  0
   15.4960   23.6390   -1.8075 H   0  0  0  0  0  0  0  0  0  0  0  0
   14.2751   25.0583   -3.6720 C   0  0  0  0  0  0  0  0  0  0  0  0
   14.6842   26.3680   -3.2654 N   0  0  0  0  0  0  0  0  0  0  0  0
   15.4941   26.2720   -2.6012 H   0  0  0  0  0  0  0  0  0  0  0  0
   14.8960   27.0088   -4.0467 H   0  0  0  0  0  0  0  0  0  0  0  0
   16.7179   24.5863   -4.1131 C   0  0  0  0  0  0  0  0  0  0  0  0
   15.2909   24.2564   -4.4016 C   0  0  0  0  0  0  0  0  0  0  0  0
   15.1092   22.8771   -4.2437 O   0  0  0  0  0  0  0  0  0  0  0  0
   14.2254   22.6552   -4.6477 H   0  0  0  0  0  0  0  0  0  0  0  0
 26 27  1  0  0  0
 27 28  1  0  0  0
 27 22  1  0  0  0
 22 23  1  0  0  0
 22 18  1  0  0  0
 18 19  2  0  0  0
 18 20  1  0  0  0
 20  1  1  0  0  0
  1  2  2  0  0  0
  1  3  2  0  0  0
  1  4  1  0  0  0
  4  5  2  0  0  0
  5  6  1  0  0  0
  6  7  2  0  0  0
  7  8  1  0  0  0
  8  9  2  0  0  0
  8 10  1  0  0  0
 10 11  2  0  0  0
 11 12  1  0  0  0
 12 13  1  0  0  0
 12 14  2  0  0  0
 14 15  1  0  0  0
 15 16  1  0  0  0
 15 17  2  0  0  0
  9  4  1  0  0  0
 17 10  1  0  0  0
 28 29  1  0  0  0
 23 24  1  0  0  0
 23 25  1  0  0  0
 20 21  1  0  0  0
M  END
> <minimizedAffinity>
-3.96395

> <CNNscore>
0.3666466177

> <CNNaffinity>
6.0744247437

> <CNN_VS>
2.2271673679

> <CNNaffinity_variance>
0.8598678708

$$$$
[H]O[C@]([H])(C([H])([H])[H])[C@@]([H])(C(=O)N([H])S(=O)(=O)c1c([H])c([H])c([H])c(-c2c([H])c(C([H])([H])[H])c([H])c(C([H])([H])[H])c2[H])c1[H])N([H])[H]


 29 30  0  0  0  0  0  0  0  0999 V2000
   15.7501   24.6023   -0.4306 S   0  0  0  0  0  0  0  0  0  0  0  0
   16.9862   24.9367   -1.1963 O   0  0  0  0  0  0  0  0  0  0  0  0
   15.5033   25.7973    0.4830 O   0  0  0  0  0  0  0  0  0  0  0  0
   14.4005   24.4147   -1.4880 C   0  0  0  0  0  0  0  0  0  0  0  0
   14.4370   24.8323   -2.7901 C   0  0  0  0  0  0  0  0  0  0  0  0
   13.3465   24.6618   -3.6326 C   0  0  0  0  0  0  0  0  0  0  0  0
   12.2202   24.0693   -3.1482 C   0  0  0  0  0  0  0  0  0  0  0  0
   12.1365   23.6378   -1.8451 C   0  0  0  0  0  0  0  0  0  0  0  0
   13.2223   23.8136   -1.0349 C   0  0  0  0  0  0  0  0  0  0  0  0
   10.8983   23.0314   -1.3373 C   0  0  0  0  0  0  0  0  0  0  0  0
    9.7162   23.6982   -1.2642 C   0  0  0  0  0  0  0  0  0  0  0  0
    8.5668   23.1334   -0.7153 C   0  0  0  0  0  0  0  0  0  0  0  0
    7.2759   23.8529   -0.6385 C   0  0  0  0  0  0  0  0  0  0  0  0
    8.6404   21.8513   -0.2300 C   0  0  0  0  0  0  0  0  0  0  0  0
    9.8245   21.1479   -0.2886 C   0  0  0  0  0  0  0  0  0  0  0  0
    9.8781   19.7867    0.2695 C   0  0  0  0  0  0  0  0  0  0  0  0
   10.9385   21.7243   -0.8335 C   0  0  0  0  0  0  0  0  0  0  0  0
   17.2171   22.5101    0.6785 C   0  0  0  0  0  0  0  0  0  0  0  0
   18.1921   22.8205   -0.0390 O   0  0  0  0  0  0  0  0  0  0  0  0
   16.0252   23.2476    0.5905 N   0  0  0  0  0  0  0  0  0  0  0  0
   15.2149   22.9459    1.2028 H   0  0  0  0  0  0  0  0  0  0  0  0
   17.2865   21.3662    1.6432 C   0  0  0  0  0  0  0  0  0  0  0  0
   16.5373   21.6631    2.8258 N   0  0  0  0  0  0  0  0  0  0  0  0
   15.5146   21.6631    2.5800 H   0  0  0  0  0  0  0  0  0  0  0  0
   16.7446   21.0453    3.6266 H   0  0  0  0  0  0  0  0  0  0  0  0
   15.7552   19.3687    1.4198 C   0  0  0  0  0  0  0  0  0  0  0  0
   17.0290   20.0398    1.0255 C   0  0  0  0  0  0  0  0  0  0  0  0
   17.1066   20.0678   -0.3723 O   0  0  0  0  0  0  0  0  0  0  0  0
   18.0444   20.3139   -0.6035 H   0  0  0  0  0  0  0  0  0  0  0  0
 26 27  1  0  0  0
 27 28  1  0  0  0
 27 22  1  0  0  0
 22 23  1  0  0  0
 22 18  1  0  0  0
 18 19  2  0  0  0
 18 20  1  0  0  0
 20  1  1  0  0  0
  1  2  2  0  0  0
  1  3  2  0  0  0
  1  4  1  0  0  0
  4  5  2  0  0  0
  5  6  1  0  0  0
  6  7  2  0  0  0
  7  8  1  0  0  0
  8  9  2  0  0  0
  8 10  1  0  0  0
 10 11  2  0  0  0
 11 12  1  0  0  0
 12 13  1  0  0  0
 12 14  2  0  0  0
 14 15  1  0  0  0
 15 16  1  0  0  0
 15 17  2  0  0  0
  9  4  1  0  0  0
 17 10  1  0  0  0
 28 29  1  0  0  0
 23 24  1  0  0  0
 23 25  1  0  0  0
 20 21  1  0  0  0
M  END
> <minimizedAffinity>
25.57366

> <CNNscore>
0.3510001004

> <CNNaffinity>
5.7000594139

> <CNN_VS>
2.0007214546

> <CNNaffinity_variance>
0.8957815170

$$$$
[H]O[C@]([H])(C([H])([H])[H])[C@]([H])(c1nnc(-c2c([H])c([H])c(N3C([H])([H])C([H])([H])OC([H])([H])C3([H])[H])c([H])c2[H])o1)N([H])c1c([H])c([H])c([N+]#[C-])c(Cl)c1C([H])([H])[H]


 34 37  0  0  0  0  0  0  0  0999 V2000
   14.8874   23.5829   -0.1998 C   0  0  0  0  0  0  0  0  0  0  0  0
   13.7400   22.7771    0.3596 C   0  0  0  0  0  0  0  0  0  0  0  0
   13.6899   22.1327    1.5396 N   0  0  0  0  0  0  0  0  0  0  0  0
   12.5063   21.5514    1.6428 N   0  0  0  0  0  0  0  0  0  0  0  0
   11.7909   21.8242    0.5213 C   0  0  0  0  0  0  0  0  0  0  0  0
   12.5792   22.5630   -0.2147 O   0  0  0  0  0  0  0  0  0  0  0  0
   10.4363   21.3641    0.2501 C   0  0  0  0  0  0  0  0  0  0  0  0
    9.3270   22.0578    0.6688 C   0  0  0  0  0  0  0  0  0  0  0  0
    8.0470   21.5718    0.3812 C   0  0  0  0  0  0  0  0  0  0  0  0
    7.8352   20.4146   -0.3115 C   0  0  0  0  0  0  0  0  0  0  0  0
    8.9692   19.7171   -0.7326 C   0  0  0  0  0  0  0  0  0  0  0  0
   10.2375   20.1960   -0.4493 C   0  0  0  0  0  0  0  0  0  0  0  0
    6.5630   19.8694   -0.6353 N   0  0  0  0  0  0  0  0  0  0  0  0
    6.2053   18.5068   -0.2121 C   0  0  0  0  0  0  0  0  0  0  0  0
    4.8752   18.1808   -0.8040 C   0  0  0  0  0  0  0  0  0  0  0  0
    4.8767   18.3732   -2.1627 O   0  0  0  0  0  0  0  0  0  0  0  0
    5.1503   19.6593   -2.5535 C   0  0  0  0  0  0  0  0  0  0  0  0
    5.5354   20.5629   -1.3795 C   0  0  0  0  0  0  0  0  0  0  0  0
   17.0050   24.2936    0.8536 C   0  0  0  0  0  0  0  0  0  0  0  0
   16.1334   23.0808    0.4821 C   0  0  0  0  0  0  0  0  0  0  0  0
   15.9568   22.2415    1.5371 O   0  0  0  0  0  0  0  0  0  0  0  0
   16.1429   22.7587    2.3836 H   0  0  0  0  0  0  0  0  0  0  0  0
   14.9103   23.5555   -1.6167 N   0  0  0  0  0  0  0  0  0  0  0  0
   14.7292   22.6183   -2.0838 H   0  0  0  0  0  0  0  0  0  0  0  0
   15.1501   24.6597   -2.4624 C   0  0  0  0  0  0  0  0  0  0  0  0
   16.4038   25.0594   -2.8697 C   0  0  0  0  0  0  0  0  0  0  0  0
   16.6194   26.1776   -3.6842 C   0  0  0  0  0  0  0  0  0  0  0  0
   15.5429   26.9254   -4.1070 C   0  0  0  0  0  0  0  0  0  0  0  0
   14.2927   26.5151   -3.6915 C   0  0  0  0  0  0  0  0  0  0  0  0
   12.8848   27.4486   -4.2126 Cl  0  0  0  0  0  0  0  0  0  0  0  0
   14.0696   25.4205   -2.8936 C   0  0  0  0  0  0  0  0  0  0  0  0
   12.6717   25.0580   -2.4972 C   0  0  0  0  0  0  0  0  0  0  0  0
   15.7105   28.0441   -4.9169 N   0  0  0  0  0  0  0  0  0  0  0  0
   15.8538   28.9849   -5.5748 C   0  0  0  0  0  0  0  0  0  0  0  0
 19 20  1  0  0  0
 20 21  1  0  0  0
 20  1  1  0  0  0
  1 23  1  0  0  0
 23 25  1  0  0  0
 25 26  2  0  0  0
 26 27  1  0  0  0
 27 28  2  0  0  0
 28 33  1  0  0  0
 33 34  3  0  0  0
 28 29  1  0  0  0
 29 30  1  0  0  0
 29 31  2  0  0  0
 31 32  1  0  0  0
  1  2  1  0  0  0
  2  3  2  0  0  0
  3  4  1  0  0  0
  4  5  2  0  0  0
  5  6  1  0  0  0
  5  7  1  0  0  0
  7  8  2  0  0  0
  8  9  1  0  0  0
  9 10  2  0  0  0
 10 11  1  0  0  0
 11 12  2  0  0  0
 10 13  1  0  0  0
 13 14  1  0  0  0
 14 15  1  0  0  0
 15 16  1  0  0  0
 16 17  1  0  0  0
 17 18  1  0  0  0
 31 25  1  0  0  0
  6  2  1  0  0  0
 12  7  1  0  0  0
 18 13  1  0  0  0
 21 22  1  0  0  0
 23 24  1  0  0  0
M  CHG 1  33   1
M  CHG 1  34  -1
M  END
> <minimizedAffinity>
-6.47659

> <CNNscore>
0.5405822992

> <CNNaffinity>
7.5191283226

> <CNN_VS>
4.0647077560

> <CNNaffinity_variance>
0.1415433884

$$$$
[H]O[C@]([H])(C([H])([H])[H])[C@]([H])(c1nnc(-c2c([H])c([H])c(N3C([H])([H])C([H])([H])OC([H])([H])C3([H])[H])c([H])c2[H])o1)N([H])c1c([H])c([H])c([N+]#[C-])c(Cl)c1C([H])([H])[H]


 34 37  0  0  0  0  0  0  0  0999 V2000
   11.0353   20.6436    1.9284 C   0  0  0  0  0  0  0  0  0  0  0  0
   12.2959   21.1131    1.2433 C   0  0  0  0  0  0  0  0  0  0  0  0
   13.5623   20.7546    1.5225 N   0  0  0  0  0  0  0  0  0  0  0  0
   14.3658   21.3943    0.6890 N   0  0  0  0  0  0  0  0  0  0  0  0
   13.6105   22.1690   -0.1315 C   0  0  0  0  0  0  0  0  0  0  0  0
   12.3759   21.9619    0.2452 O   0  0  0  0  0  0  0  0  0  0  0  0
   14.1221   23.0287   -1.1895 C   0  0  0  0  0  0  0  0  0  0  0  0
   14.6067   22.5280   -2.3734 C   0  0  0  0  0  0  0  0  0  0  0  0
   15.0865   23.3983   -3.3581 C   0  0  0  0  0  0  0  0  0  0  0  0
   15.0994   24.7545   -3.2017 C   0  0  0  0  0  0  0  0  0  0  0  0
   14.6047   25.2533   -1.9950 C   0  0  0  0  0  0  0  0  0  0  0  0
   14.1291   24.3939   -1.0186 C   0  0  0  0  0  0  0  0  0  0  0  0
   15.5717   25.6899   -4.1621 N   0  0  0  0  0  0  0  0  0  0  0  0
   16.1354   26.9794   -3.7336 C   0  0  0  0  0  0  0  0  0  0  0  0
   16.4201   27.7813   -4.9591 C   0  0  0  0  0  0  0  0  0  0  0  0
   15.3067   27.8828   -5.7548 O   0  0  0  0  0  0  0  0  0  0  0  0
   14.8187   26.6820   -6.2037 C   0  0  0  0  0  0  0  0  0  0  0  0
   15.5490   25.4833   -5.5931 C   0  0  0  0  0  0  0  0  0  0  0  0
   11.6290   19.3031    3.9156 C   0  0  0  0  0  0  0  0  0  0  0  0
   11.3015   20.7190    3.4093 C   0  0  0  0  0  0  0  0  0  0  0  0
   12.2242   21.6298    3.8188 O   0  0  0  0  0  0  0  0  0  0  0  0
   13.0679   21.1327    4.0635 H   0  0  0  0  0  0  0  0  0  0  0  0
    9.8933   21.3493    1.4738 N   0  0  0  0  0  0  0  0  0  0  0  0
    9.6967   21.3268    0.4296 H   0  0  0  0  0  0  0  0  0  0  0  0
    8.9936   22.0770    2.2818 C   0  0  0  0  0  0  0  0  0  0  0  0
    7.9423   21.5091    2.9672 C   0  0  0  0  0  0  0  0  0  0  0  0
    7.0435   22.2563    3.7380 C   0  0  0  0  0  0  0  0  0  0  0  0
    7.1996   23.6217    3.8271 C   0  0  0  0  0  0  0  0  0  0  0  0
    8.2559   24.1783    3.1353 C   0  0  0  0  0  0  0  0  0  0  0  0
    8.4905   25.9283    3.2238 Cl  0  0  0  0  0  0  0  0  0  0  0  0
    9.1433   23.4557    2.3771 C   0  0  0  0  0  0  0  0  0  0  0  0
   10.2585   24.1556    1.6635 C   0  0  0  0  0  0  0  0  0  0  0  0
    6.3302   24.4032    4.5813 N   0  0  0  0  0  0  0  0  0  0  0  0
    5.5957   25.0378    5.2109 C   0  0  0  0  0  0  0  0  0  0  0  0
 19 20  1  0  0  0
 20 21  1  0  0  0
 20  1  1  0  0  0
  1 23  1  0  0  0
 23 25  1  0  0  0
 25 26  2  0  0  0
 26 27  1  0  0  0
 27 28  2  0  0  0
 28 33  1  0  0  0
 33 34  3  0  0  0
 28 29  1  0  0  0
 29 30  1  0  0  0
 29 31  2  0  0  0
 31 32  1  0  0  0
  1  2  1  0  0  0
  2  3  2  0  0  0
  3  4  1  0  0  0
  4  5  2  0  0  0
  5  6  1  0  0  0
  5  7  1  0  0  0
  7  8  2  0  0  0
  8  9  1  0  0  0
  9 10  2  0  0  0
 10 11  1  0  0  0
 11 12  2  0  0  0
 10 13  1  0  0  0
 13 14  1  0  0  0
 14 15  1  0  0  0
 15 16  1  0  0  0
 16 17  1  0  0  0
 17 18  1  0  0  0
 31 25  1  0  0  0
  6  2  1  0  0  0
 12  7  1  0  0  0
 18 13  1  0  0  0
 21 22  1  0  0  0
 23 24  1  0  0  0
M  CHG 1  33   1
M  CHG 1  34  -1
M  END
> <minimizedAffinity>
-8.84816

> <CNNscore>
0.4739905000

> <CNNaffinity>
7.2025237083

> <CNN_VS>
3.4139277935

> <CNNaffinity_variance>
0.0175598953

$$$$
[H]O[C@]([H])(C([H])([H])[H])[C@]([H])(c1nnc(-c2c([H])c([H])c(N3C([H])([H])C([H])([H])OC([H])([H])C3([H])[H])c([H])c2[H])o1)N([H])c1c([H])c([H])c([N+]#[C-])c(Cl)c1C([H])([H])[H]


 34 37  0  0  0  0  0  0  0  0999 V2000
   14.6861   22.4354   -0.9264 C   0  0  0  0  0  0  0  0  0  0  0  0
   13.9104   21.9059    0.2555 C   0  0  0  0  0  0  0  0  0  0  0  0
   14.3647   21.1189    1.2476 N   0  0  0  0  0  0  0  0  0  0  0  0
   13.3644   20.8862    2.0810 N   0  0  0  0  0  0  0  0  0  0  0  0
   12.2597   21.5281    1.6213 C   0  0  0  0  0  0  0  0  0  0  0  0
   12.6440   22.1241    0.5230 O   0  0  0  0  0  0  0  0  0  0  0  0
   10.9503   21.5190    2.2582 C   0  0  0  0  0  0  0  0  0  0  0  0
   10.7918   21.6702    3.6144 C   0  0  0  0  0  0  0  0  0  0  0  0
    9.5106   21.6545    4.1760 C   0  0  0  0  0  0  0  0  0  0  0  0
    8.3792   21.4926    3.4293 C   0  0  0  0  0  0  0  0  0  0  0  0
    8.5511   21.3397    2.0520 C   0  0  0  0  0  0  0  0  0  0  0  0
    9.8184   21.3550    1.4934 C   0  0  0  0  0  0  0  0  0  0  0  0
    7.0524   21.4684    3.9387 N   0  0  0  0  0  0  0  0  0  0  0  0
    6.8085   21.5211    5.3884 C   0  0  0  0  0  0  0  0  0  0  0  0
    5.3427   21.3521    5.6097 C   0  0  0  0  0  0  0  0  0  0  0  0
    4.8762   20.2176    4.9946 O   0  0  0  0  0  0  0  0  0  0  0  0
    5.0496   20.1975    3.6341 C   0  0  0  0  0  0  0  0  0  0  0  0
    5.8594   21.3926    3.1252 C   0  0  0  0  0  0  0  0  0  0  0  0
   13.1679   20.7384   -1.8827 C   0  0  0  0  0  0  0  0  0  0  0  0
   14.5450   21.4113   -2.0223 C   0  0  0  0  0  0  0  0  0  0  0  0
   14.7732   21.8398   -3.2923 O   0  0  0  0  0  0  0  0  0  0  0  0
   13.8824   21.9254   -3.7590 H   0  0  0  0  0  0  0  0  0  0  0  0
   14.2955   23.7548   -1.2660 N   0  0  0  0  0  0  0  0  0  0  0  0
   13.2877   24.0261   -1.0651 H   0  0  0  0  0  0  0  0  0  0  0  0
   15.1235   24.7405   -1.8447 C   0  0  0  0  0  0  0  0  0  0  0  0
   16.4082   25.0090   -1.4265 C   0  0  0  0  0  0  0  0  0  0  0  0
   17.1999   26.0137   -1.9957 C   0  0  0  0  0  0  0  0  0  0  0  0
   16.6895   26.7797   -3.0202 C   0  0  0  0  0  0  0  0  0  0  0  0
   15.4014   26.5013   -3.4292 C   0  0  0  0  0  0  0  0  0  0  0  0
   14.7093   27.4625   -4.7416 Cl  0  0  0  0  0  0  0  0  0  0  0  0
   14.6164   25.5187   -2.8789 C   0  0  0  0  0  0  0  0  0  0  0  0
   13.2284   25.2954   -3.3949 C   0  0  0  0  0  0  0  0  0  0  0  0
   17.4405   27.7885   -3.6149 N   0  0  0  0  0  0  0  0  0  0  0  0
   18.0579   28.6400   -4.0968 C   0  0  0  0  0  0  0  0  0  0  0  0
 19 20  1  0  0  0
 20 21  1  0  0  0
 20  1  1  0  0  0
  1 23  1  0  0  0
 23 25  1  0  0  0
 25 26  2  0  0  0
 26 27  1  0  0  0
 27 28  2  0  0  0
 28 33  1  0  0  0
 33 34  3  0  0  0
 28 29  1  0  0  0
 29 30  1  0  0  0
 29 31  2  0  0  0
 31 32  1  0  0  0
  1  2  1  0  0  0
  2  3  2  0  0  0
  3  4  1  0  0  0
  4  5  2  0  0  0
  5  6  1  0  0  0
  5  7  1  0  0  0
  7  8  2  0  0  0
  8  9  1  0  0  0
  9 10  2  0  0  0
 10 11  1  0  0  0
 11 12  2  0  0  0
 10 13  1  0  0  0
 13 14  1  0  0  0
 14 15  1  0  0  0
 15 16  1  0  0  0
 16 17  1  0  0  0
 17 18  1  0  0  0
 31 25  1  0  0  0
  6  2  1  0  0  0
 12  7  1  0  0  0
 18 13  1  0  0  0
 21 22  1  0  0  0
 23 24  1  0  0  0
M  CHG 1  33   1
M  CHG 1  34  -1
M  END
> <minimizedAffinity>
-5.86687

> <CNNscore>
0.4494411945

> <CNNaffinity>
7.2979879379

> <CNN_VS>
3.2800164223

> <CNNaffinity_variance>
0.4948028922

$$$$
[H]O[C@]([H])(C([H])([H])[H])[C@]([H])(c1nnc(-c2c([H])c([H])c(N3C([H])([H])C([H])([H])OC([H])([H])C3([H])[H])c([H])c2[H])o1)N([H])c1c([H])c([H])c([N+]#[C-])c(Cl)c1C([H])([H])[H]


 34 37  0  0  0  0  0  0  0  0999 V2000
   12.8629   27.3291   -4.5936 C   0  0  0  0  0  0  0  0  0  0  0  0
   13.2518   26.3809   -3.4852 C   0  0  0  0  0  0  0  0  0  0  0  0
   14.4812   25.9155   -3.1988 N   0  0  0  0  0  0  0  0  0  0  0  0
   14.3850   25.1114   -2.1531 N   0  0  0  0  0  0  0  0  0  0  0  0
   13.0849   25.0599   -1.7648 C   0  0  0  0  0  0  0  0  0  0  0  0
   12.4488   25.8402   -2.5988 O   0  0  0  0  0  0  0  0  0  0  0  0
   12.5664   24.2824   -0.6481 C   0  0  0  0  0  0  0  0  0  0  0  0
   13.3561   23.4272    0.0814 C   0  0  0  0  0  0  0  0  0  0  0  0
   12.8078   22.7034    1.1457 C   0  0  0  0  0  0  0  0  0  0  0  0
   11.4954   22.8038    1.5082 C   0  0  0  0  0  0  0  0  0  0  0  0
   10.7013   23.6757    0.7605 C   0  0  0  0  0  0  0  0  0  0  0  0
   11.2415   24.3934   -0.2936 C   0  0  0  0  0  0  0  0  0  0  0  0
   10.8798   22.0978    2.5773 N   0  0  0  0  0  0  0  0  0  0  0  0
    9.9786   22.7926    3.5096 C   0  0  0  0  0  0  0  0  0  0  0  0
    9.5983   21.8259    4.5804 C   0  0  0  0  0  0  0  0  0  0  0  0
   10.7091   21.2738    5.1671 O   0  0  0  0  0  0  0  0  0  0  0  0
   11.5166   20.5740    4.3069 C   0  0  0  0  0  0  0  0  0  0  0  0
   11.0653   20.6897    2.8489 C   0  0  0  0  0  0  0  0  0  0  0  0
   11.6967   29.2425   -3.5556 C   0  0  0  0  0  0  0  0  0  0  0  0
   11.5055   27.8736   -4.2323 C   0  0  0  0  0  0  0  0  0  0  0  0
   10.5826   27.9257   -5.2294 O   0  0  0  0  0  0  0  0  0  0  0  0
   10.4871   28.8881   -5.5180 H   0  0  0  0  0  0  0  0  0  0  0  0
   13.8680   28.2986   -4.8359 N   0  0  0  0  0  0  0  0  0  0  0  0
   13.5570   29.2173   -5.2703 H   0  0  0  0  0  0  0  0  0  0  0  0
   15.2429   28.1550   -4.5511 C   0  0  0  0  0  0  0  0  0  0  0  0
   15.8282   28.5434   -3.3662 C   0  0  0  0  0  0  0  0  0  0  0  0
   17.2006   28.4196   -3.1184 C   0  0  0  0  0  0  0  0  0  0  0  0
   18.0195   27.8892   -4.0903 C   0  0  0  0  0  0  0  0  0  0  0  0
   17.4211   27.5048   -5.2728 C   0  0  0  0  0  0  0  0  0  0  0  0
   18.4379   26.8193   -6.5462 Cl  0  0  0  0  0  0  0  0  0  0  0  0
   16.0769   27.6210   -5.5265 C   0  0  0  0  0  0  0  0  0  0  0  0
   15.5245   27.1739   -6.8447 C   0  0  0  0  0  0  0  0  0  0  0  0
   19.3884   27.7478   -3.8872 N   0  0  0  0  0  0  0  0  0  0  0  0
   20.5295   27.6294   -3.7374 C   0  0  0  0  0  0  0  0  0  0  0  0
 19 20  1  0  0  0
 20 21  1  0  0  0
 20  1  1  0  0  0
  1 23  1  0  0  0
 23 25  1  0  0  0
 25 26  2  0  0  0
 26 27  1  0  0  0
 27 28  2  0  0  0
 28 33  1  0  0  0
 33 34  3  0  0  0
 28 29  1  0  0  0
 29 30  1  0  0  0
 29 31  2  0  0  0
 31 32  1  0  0  0
  1  2  1  0  0  0
  2  3  2  0  0  0
  3  4  1  0  0  0
  4  5  2  0  0  0
  5  6  1  0  0  0
  5  7  1  0  0  0
  7  8  2  0  0  0
  8  9  1  0  0  0
  9 10  2  0  0  0
 10 11  1  0  0  0
 11 12  2  0  0  0
 10 13  1  0  0  0
 13 14  1  0  0  0
 14 15  1  0  0  0
 15 16  1  0  0  0
 16 17  1  0  0  0
 17 18  1  0  0  0
 31 25  1  0  0  0
  6  2  1  0  0  0
 12  7  1  0  0  0
 18 13  1  0  0  0
 21 22  1  0  0  0
 23 24  1  0  0  0
M  CHG 1  33   1
M  CHG 1  34  -1
M  END
> <minimizedAffinity>
12.29271

> <CNNscore>
0.4481688738

> <CNNaffinity>
6.8269400597

> <CNN_VS>
3.0596220493

> <CNNaffinity_variance>
0.6159076095

$$$$
[H]O[C@]([H])(C([H])([H])[H])[C@]([H])(c1nnc(-c2c([H])c([H])c(N3C([H])([H])C([H])([H])OC([H])([H])C3([H])[H])c([H])c2[H])o1)N([H])c1c([H])c([H])c([N+]#[C-])c(Cl)c1C([H])([H])[H]


 34 37  0  0  0  0  0  0  0  0999 V2000
   13.7823   28.0316   -3.2305 C   0  0  0  0  0  0  0  0  0  0  0  0
   13.2991   26.7026   -2.7022 C   0  0  0  0  0  0  0  0  0  0  0  0
   13.3826   25.5022   -3.3041 N   0  0  0  0  0  0  0  0  0  0  0  0
   12.8413   24.5999   -2.5028 N   0  0  0  0  0  0  0  0  0  0  0  0
   12.4069   25.2247   -1.3782 C   0  0  0  0  0  0  0  0  0  0  0  0
   12.7070   26.4853   -1.5510 O   0  0  0  0  0  0  0  0  0  0  0  0
   11.7521   24.5768   -0.2505 C   0  0  0  0  0  0  0  0  0  0  0  0
   11.4438   25.2504    0.9063 C   0  0  0  0  0  0  0  0  0  0  0  0
   10.8136   24.5804    1.9605 C   0  0  0  0  0  0  0  0  0  0  0  0
   10.4796   23.2580    1.8999 C   0  0  0  0  0  0  0  0  0  0  0  0
   10.7972   22.5825    0.7198 C   0  0  0  0  0  0  0  0  0  0  0  0
   11.4210   23.2434   -0.3253 C   0  0  0  0  0  0  0  0  0  0  0  0
    9.8393   22.5219    2.9337 N   0  0  0  0  0  0  0  0  0  0  0  0
   10.0833   21.0790    3.0836 C   0  0  0  0  0  0  0  0  0  0  0  0
    9.1830   20.5748    4.1612 C   0  0  0  0  0  0  0  0  0  0  0  0
    7.8756   20.9084    3.9112 O   0  0  0  0  0  0  0  0  0  0  0  0
    7.6391   22.2572    3.8326 C   0  0  0  0  0  0  0  0  0  0  0  0
    8.9241   23.0861    3.9006 C   0  0  0  0  0  0  0  0  0  0  0  0
   15.1662   26.2951   -4.3114 C   0  0  0  0  0  0  0  0  0  0  0  0
   14.6212   27.7282   -4.4446 C   0  0  0  0  0  0  0  0  0  0  0  0
   14.0416   27.9395   -5.6562 O   0  0  0  0  0  0  0  0  0  0  0  0
   13.8022   27.0415   -6.0499 H   0  0  0  0  0  0  0  0  0  0  0  0
   12.7128   28.9388   -3.4351 N   0  0  0  0  0  0  0  0  0  0  0  0
   12.8655   29.9427   -3.1215 H   0  0  0  0  0  0  0  0  0  0  0  0
   11.4653   28.6302   -4.0186 C   0  0  0  0  0  0  0  0  0  0  0  0
   11.1822   27.4356   -4.6434 C   0  0  0  0  0  0  0  0  0  0  0  0
    9.9465   27.1640   -5.2429 C   0  0  0  0  0  0  0  0  0  0  0  0
    8.9566   28.1212   -5.2185 C   0  0  0  0  0  0  0  0  0  0  0  0
    9.2530   29.3136   -4.5904 C   0  0  0  0  0  0  0  0  0  0  0  0
    8.0090   30.5685   -4.5377 Cl  0  0  0  0  0  0  0  0  0  0  0  0
   10.4605   29.5905   -3.9990 C   0  0  0  0  0  0  0  0  0  0  0  0
   10.6831   30.9177   -3.3419 C   0  0  0  0  0  0  0  0  0  0  0  0
    7.7140   27.8944   -5.8015 N   0  0  0  0  0  0  0  0  0  0  0  0
    6.6894   27.7008   -6.3028 C   0  0  0  0  0  0  0  0  0  0  0  0
 19 20  1  0  0  0
 20 21  1  0  0  0
 20  1  1  0  0  0
  1 23  1  0  0  0
 23 25  1  0  0  0
 25 26  2  0  0  0
 26 27  1  0  0  0
 27 28  2  0  0  0
 28 33  1  0  0  0
 33 34  3  0  0  0
 28 29  1  0  0  0
 29 30  1  0  0  0
 29 31  2  0  0  0
 31 32  1  0  0  0
  1  2  1  0  0  0
  2  3  2  0  0  0
  3  4  1  0  0  0
  4  5  2  0  0  0
  5  6  1  0  0  0
  5  7  1  0  0  0
  7  8  2  0  0  0
  8  9  1  0  0  0
  9 10  2  0  0  0
 10 11  1  0  0  0
 11 12  2  0  0  0
 10 13  1  0  0  0
 13 14  1  0  0  0
 14 15  1  0  0  0
 15 16  1  0  0  0
 16 17  1  0  0  0
 17 18  1  0  0  0
 31 25  1  0  0  0
  6  2  1  0  0  0
 12  7  1  0  0  0
 18 13  1  0  0  0
 21 22  1  0  0  0
 23 24  1  0  0  0
M  CHG 1  33   1
M  CHG 1  34  -1
M  END
> <minimizedAffinity>
22.65351

> <CNNscore>
0.4386609197

> <CNNaffinity>
6.6049752235

> <CNN_VS>
2.8973445892

> <CNNaffinity_variance>
1.0885994434

$$$$
[H]O[C@]([H])(C([H])([H])[H])[C@]([H])(c1nnc(-c2c([H])c([H])c(N3C([H])([H])C([H])([H])OC([H])([H])C3([H])[H])c([H])c2[H])o1)N([H])c1c([H])c([H])c([N+]#[C-])c(Cl)c1C([H])([H])[H]


 34 37  0  0  0  0  0  0  0  0999 V2000
    9.7602   22.4107    2.3750 C   0  0  0  0  0  0  0  0  0  0  0  0
   11.0694   22.6074    1.6497 C   0  0  0  0  0  0  0  0  0  0  0  0
   12.2518   22.0255    1.9208 N   0  0  0  0  0  0  0  0  0  0  0  0
   13.1407   22.4706    1.0484 N   0  0  0  0  0  0  0  0  0  0  0  0
   12.5253   23.3445    0.2109 C   0  0  0  0  0  0  0  0  0  0  0  0
   11.2835   23.3891    0.6171 O   0  0  0  0  0  0  0  0  0  0  0  0
   13.1637   24.0528   -0.8896 C   0  0  0  0  0  0  0  0  0  0  0  0
   12.5549   25.0966   -1.5432 C   0  0  0  0  0  0  0  0  0  0  0  0
   13.2128   25.7439   -2.5946 C   0  0  0  0  0  0  0  0  0  0  0  0
   14.4602   25.3848   -3.0174 C   0  0  0  0  0  0  0  0  0  0  0  0
   15.0702   24.3228   -2.3466 C   0  0  0  0  0  0  0  0  0  0  0  0
   14.4213   23.6803   -1.3053 C   0  0  0  0  0  0  0  0  0  0  0  0
   15.1803   26.0015   -4.0764 N   0  0  0  0  0  0  0  0  0  0  0  0
   15.8642   27.2866   -3.8647 C   0  0  0  0  0  0  0  0  0  0  0  0
   16.4147   27.7310   -5.1782 C   0  0  0  0  0  0  0  0  0  0  0  0
   15.4378   27.7577   -6.1416 O   0  0  0  0  0  0  0  0  0  0  0  0
   14.8436   26.5448   -6.3809 C   0  0  0  0  0  0  0  0  0  0  0  0
   15.3105   25.4576   -5.4098 C   0  0  0  0  0  0  0  0  0  0  0  0
    9.2805   24.7339    3.0614 C   0  0  0  0  0  0  0  0  0  0  0  0
    9.7745   23.3591    3.5454 C   0  0  0  0  0  0  0  0  0  0  0  0
    9.1243   22.9536    4.6686 O   0  0  0  0  0  0  0  0  0  0  0  0
    8.2581   23.4677    4.7320 H   0  0  0  0  0  0  0  0  0  0  0  0
    8.6499   22.5304    1.5021 N   0  0  0  0  0  0  0  0  0  0  0  0
    8.4235   23.5038    1.1407 H   0  0  0  0  0  0  0  0  0  0  0  0
    7.8197   21.4744    1.0687 C   0  0  0  0  0  0  0  0  0  0  0  0
    6.7476   20.9935    1.7874 C   0  0  0  0  0  0  0  0  0  0  0  0
    5.9569   19.9236    1.3513 C   0  0  0  0  0  0  0  0  0  0  0  0
    6.2482   19.3101    0.1531 C   0  0  0  0  0  0  0  0  0  0  0  0
    7.3250   19.8007   -0.5568 C   0  0  0  0  0  0  0  0  0  0  0  0
    7.7320   19.0403   -2.0999 Cl  0  0  0  0  0  0  0  0  0  0  0  0
    8.1066   20.8492   -0.1392 C   0  0  0  0  0  0  0  0  0  0  0  0
    9.2551   21.3071   -0.9842 C   0  0  0  0  0  0  0  0  0  0  0  0
    5.4895   18.2438   -0.3189 N   0  0  0  0  0  0  0  0  0  0  0  0
    4.8732   17.3520   -0.7230 C   0  0  0  0  0  0  0  0  0  0  0  0
 19 20  1  0  0  0
 20 21  1  0  0  0
 20  1  1  0  0  0
  1 23  1  0  0  0
 23 25  1  0  0  0
 25 26  2  0  0  0
 26 27  1  0  0  0
 27 28  2  0  0  0
 28 33  1  0  0  0
 33 34  3  0  0  0
 28 29  1  0  0  0
 29 30  1  0  0  0
 29 31  2  0  0  0
 31 32  1  0  0  0
  1  2  1  0  0  0
  2  3  2  0  0  0
  3  4  1  0  0  0
  4  5  2  0  0  0
  5  6  1  0  0  0
  5  7  1  0  0  0
  7  8  2  0  0  0
  8  9  1  0  0  0
  9 10  2  0  0  0
 10 11  1  0  0  0
 11 12  2  0  0  0
 10 13  1  0  0  0
 13 14  1  0  0  0
 14 15  1  0  0  0
 15 16  1  0  0  0
 16 17  1  0  0  0
 17 18  1  0  0  0
 31 25  1  0  0  0
  6  2  1  0  0  0
 12  7  1  0  0  0
 18 13  1  0  0  0
 21 22  1  0  0  0
 23 24  1  0  0  0
M  CHG 1  33   1
M  CHG 1  34  -1
M  END
> <minimizedAffinity>
-8.31644

> <CNNscore>
0.4204637706

> <CNNaffinity>
7.1188735962

> <CNN_VS>
2.9932284355

> <CNNaffinity_variance>
0.1826252043

$$$$
[H]O[C@]([H])(C([H])([H])[H])[C@]([H])(c1nnc(-c2c([H])c([H])c(N3C([H])([H])C([H])([H])OC([H])([H])C3([H])[H])c([H])c2[H])o1)N([H])c1c([H])c([H])c([N+]#[C-])c(Cl)c1C([H])([H])[H]


 34 37  0  0  0  0  0  0  0  0999 V2000
   13.8102   22.4572   -0.2737 C   0  0  0  0  0  0  0  0  0  0  0  0
   12.7412   22.5290    0.7897 C   0  0  0  0  0  0  0  0  0  0  0  0
   12.6021   21.7346    1.8667 N   0  0  0  0  0  0  0  0  0  0  0  0
   11.5373   22.1358    2.5409 N   0  0  0  0  0  0  0  0  0  0  0  0
   10.9884   23.1953    1.8929 C   0  0  0  0  0  0  0  0  0  0  0  0
   11.7509   23.3886    0.8486 O   0  0  0  0  0  0  0  0  0  0  0  0
    9.8009   23.9232    2.3174 C   0  0  0  0  0  0  0  0  0  0  0  0
    8.5591   23.3379    2.3673 C   0  0  0  0  0  0  0  0  0  0  0  0
    7.4500   24.0824    2.7833 C   0  0  0  0  0  0  0  0  0  0  0  0
    7.5375   25.3939    3.1520 C   0  0  0  0  0  0  0  0  0  0  0  0
    8.8040   25.9794    3.0977 C   0  0  0  0  0  0  0  0  0  0  0  0
    9.9037   25.2447    2.6864 C   0  0  0  0  0  0  0  0  0  0  0  0
    6.4510   26.2026    3.5834 N   0  0  0  0  0  0  0  0  0  0  0  0
    6.0815   27.4157    2.8380 C   0  0  0  0  0  0  0  0  0  0  0  0
    5.0011   28.1069    3.6002 C   0  0  0  0  0  0  0  0  0  0  0  0
    5.3772   28.3302    4.9009 O   0  0  0  0  0  0  0  0  0  0  0  0
    5.6622   27.1926    5.6125 C   0  0  0  0  0  0  0  0  0  0  0  0
    5.6336   25.9318    4.7450 C   0  0  0  0  0  0  0  0  0  0  0  0
   13.4940   20.2350   -1.3036 C   0  0  0  0  0  0  0  0  0  0  0  0
   13.1969   21.7382   -1.4470 C   0  0  0  0  0  0  0  0  0  0  0  0
   11.8795   21.9737   -1.6874 O   0  0  0  0  0  0  0  0  0  0  0  0
   11.3566   21.1646   -1.3865 H   0  0  0  0  0  0  0  0  0  0  0  0
   14.3610   23.7323   -0.5555 N   0  0  0  0  0  0  0  0  0  0  0  0
   14.6290   24.3364    0.2768 H   0  0  0  0  0  0  0  0  0  0  0  0
   14.5871   24.2711   -1.8403 C   0  0  0  0  0  0  0  0  0  0  0  0
   15.6679   23.9486   -2.6309 C   0  0  0  0  0  0  0  0  0  0  0  0
   15.8879   24.5201   -3.8900 C   0  0  0  0  0  0  0  0  0  0  0  0
   14.9957   25.4492   -4.3775 C   0  0  0  0  0  0  0  0  0  0  0  0
   13.9178   25.7641   -3.5756 C   0  0  0  0  0  0  0  0  0  0  0  0
   12.7496   26.9527   -4.1652 Cl  0  0  0  0  0  0  0  0  0  0  0  0
   13.6920   25.2099   -2.3401 C   0  0  0  0  0  0  0  0  0  0  0  0
   12.4900   25.6196   -1.5464 C   0  0  0  0  0  0  0  0  0  0  0  0
   15.1748   26.0425   -5.6230 N   0  0  0  0  0  0  0  0  0  0  0  0
   15.3428   26.5331   -6.6573 C   0  0  0  0  0  0  0  0  0  0  0  0
 19 20  1  0  0  0
 20 21  1  0  0  0
 20  1  1  0  0  0
  1 23  1  0  0  0
 23 25  1  0  0  0
 25 26  2  0  0  0
 26 27  1  0  0  0
 27 28  2  0  0  0
 28 33  1  0  0  0
 33 34  3  0  0  0
 28 29  1  0  0  0
 29 30  1  0  0  0
 29 31  2  0  0  0
 31 32  1  0  0  0
  1  2  1  0  0  0
  2  3  2  0  0  0
  3  4  1  0  0  0
  4  5  2  0  0  0
  5  6  1  0  0  0
  5  7  1  0  0  0
  7  8  2  0  0  0
  8  9  1  0  0  0
  9 10  2  0  0  0
 10 11  1  0  0  0
 11 12  2  0  0  0
 10 13  1  0  0  0
 13 14  1  0  0  0
 14 15  1  0  0  0
 15 16  1  0  0  0
 16 17  1  0  0  0
 17 18  1  0  0  0
 31 25  1  0  0  0
  6  2  1  0  0  0
 12  7  1  0  0  0
 18 13  1  0  0  0
 21 22  1  0  0  0
 23 24  1  0  0  0
M  CHG 1  33   1
M  CHG 1  34  -1
M  END
> <minimizedAffinity>
-9.28014

> <CNNscore>
0.4204541445

> <CNNaffinity>
7.0501174927

> <CNN_VS>
2.9642510414

> <CNNaffinity_variance>
0.1649478376

$$$$
[H]O[C@]([H])(C([H])([H])[H])[C@]([H])(c1nnc(-c2c([H])c([H])c(N3C([H])([H])C([H])([H])OC([H])([H])C3([H])[H])c([H])c2[H])o1)N([H])c1c([H])c([H])c([N+]#[C-])c(Cl)c1C([H])([H])[H]


 34 37  0  0  0  0  0  0  0  0999 V2000
   14.0016   23.1637    0.0260 C   0  0  0  0  0  0  0  0  0  0  0  0
   12.6545   23.3963    0.6664 C   0  0  0  0  0  0  0  0  0  0  0  0
   12.0777   24.5768    0.9558 N   0  0  0  0  0  0  0  0  0  0  0  0
   10.9006   24.3367    1.5091 N   0  0  0  0  0  0  0  0  0  0  0  0
   10.7198   22.9925    1.5757 C   0  0  0  0  0  0  0  0  0  0  0  0
   11.8029   22.4766    1.0563 O   0  0  0  0  0  0  0  0  0  0  0  0
    9.5471   22.3234    2.1210 C   0  0  0  0  0  0  0  0  0  0  0  0
    8.3230   22.3627    1.4988 C   0  0  0  0  0  0  0  0  0  0  0  0
    7.2277   21.7017    2.0652 C   0  0  0  0  0  0  0  0  0  0  0  0
    7.3120   21.0012    3.2340 C   0  0  0  0  0  0  0  0  0  0  0  0
    8.5605   20.9674    3.8584 C   0  0  0  0  0  0  0  0  0  0  0  0
    9.6464   21.6208    3.2998 C   0  0  0  0  0  0  0  0  0  0  0  0
    6.2390   20.3094    3.8590 N   0  0  0  0  0  0  0  0  0  0  0  0
    6.3054   19.9630    5.2871 C   0  0  0  0  0  0  0  0  0  0  0  0
    5.1034   19.1414    5.6125 C   0  0  0  0  0  0  0  0  0  0  0  0
    4.9966   18.0638    4.7695 O   0  0  0  0  0  0  0  0  0  0  0  0
    4.8730   18.3910    3.4432 C   0  0  0  0  0  0  0  0  0  0  0  0
    5.0270   19.8926    3.1894 C   0  0  0  0  0  0  0  0  0  0  0  0
   14.5545   20.8066   -0.4608 C   0  0  0  0  0  0  0  0  0  0  0  0
   14.5464   21.8946    0.6277 C   0  0  0  0  0  0  0  0  0  0  0  0
   15.7450   21.9848    1.2631 O   0  0  0  0  0  0  0  0  0  0  0  0
   16.4471   21.5710    0.6677 H   0  0  0  0  0  0  0  0  0  0  0  0
   13.9246   23.1878   -1.3891 N   0  0  0  0  0  0  0  0  0  0  0  0
   13.4381   22.3683   -1.8595 H   0  0  0  0  0  0  0  0  0  0  0  0
   14.4337   24.2015   -2.2289 C   0  0  0  0  0  0  0  0  0  0  0  0
   15.7610   24.3170   -2.5786 C   0  0  0  0  0  0  0  0  0  0  0  0
   16.2480   25.3501   -3.3884 C   0  0  0  0  0  0  0  0  0  0  0  0
   15.3773   26.3042   -3.8662 C   0  0  0  0  0  0  0  0  0  0  0  0
   14.0507   26.1777   -3.5081 C   0  0  0  0  0  0  0  0  0  0  0  0
   12.9009   27.3825   -4.1009 Cl  0  0  0  0  0  0  0  0  0  0  0  0
   13.5621   25.1690   -2.7154 C   0  0  0  0  0  0  0  0  0  0  0  0
   12.1026   25.1205   -2.3837 C   0  0  0  0  0  0  0  0  0  0  0  0
   15.8174   27.3480   -4.6738 N   0  0  0  0  0  0  0  0  0  0  0  0
   16.1870   28.2034   -5.3594 C   0  0  0  0  0  0  0  0  0  0  0  0
 19 20  1  0  0  0
 20 21  1  0  0  0
 20  1  1  0  0  0
  1 23  1  0  0  0
 23 25  1  0  0  0
 25 26  2  0  0  0
 26 27  1  0  0  0
 27 28  2  0  0  0
 28 33  1  0  0  0
 33 34  3  0  0  0
 28 29  1  0  0  0
 29 30  1  0  0  0
 29 31  2  0  0  0
 31 32  1  0  0  0
  1  2  1  0  0  0
  2  3  2  0  0  0
  3  4  1  0  0  0
  4  5  2  0  0  0
  5  6  1  0  0  0
  5  7  1  0  0  0
  7  8  2  0  0  0
  8  9  1  0  0  0
  9 10  2  0  0  0
 10 11  1  0  0  0
 11 12  2  0  0  0
 10 13  1  0  0  0
 13 14  1  0  0  0
 14 15  1  0  0  0
 15 16  1  0  0  0
 16 17  1  0  0  0
 17 18  1  0  0  0
 31 25  1  0  0  0
  6  2  1  0  0  0
 12  7  1  0  0  0
 18 13  1  0  0  0
 21 22  1  0  0  0
 23 24  1  0  0  0
M  CHG 1  33   1
M  CHG 1  34  -1
M  END
> <minimizedAffinity>
-7.40298

> <CNNscore>
0.4028444588

> <CNNaffinity>
7.1201119423

> <CNN_VS>
2.8682975769

> <CNNaffinity_variance>
0.2179201394

$$$$
[H]O[C@]([H])(C([H])([H])[H])[C@]([H])(c1nnc(-c2c([H])c([H])c(N3C([H])([H])C([H])([H])OC([H])([H])C3([H])[H])c([H])c2[H])o1)N([H])c1c([H])c([H])c([N+]#[C-])c(Cl)c1C([H])([H])[H]


 34 37  0  0  0  0  0  0  0  0999 V2000
   15.1308   25.5127   -4.9877 C   0  0  0  0  0  0  0  0  0  0  0  0
   13.9626   25.8093   -4.0787 C   0  0  0  0  0  0  0  0  0  0  0  0
   13.1344   26.8684   -4.1281 N   0  0  0  0  0  0  0  0  0  0  0  0
   12.2481   26.7453   -3.1541 N   0  0  0  0  0  0  0  0  0  0  0  0
   12.5086   25.5992   -2.4741 C   0  0  0  0  0  0  0  0  0  0  0  0
   13.5478   25.0771   -3.0713 O   0  0  0  0  0  0  0  0  0  0  0  0
   11.7562   25.1059   -1.3292 C   0  0  0  0  0  0  0  0  0  0  0  0
   12.0879   25.4313   -0.0365 C   0  0  0  0  0  0  0  0  0  0  0  0
   11.3310   24.9304    1.0283 C   0  0  0  0  0  0  0  0  0  0  0  0
   10.2519   24.1141    0.8470 C   0  0  0  0  0  0  0  0  0  0  0  0
    9.9231   23.7894   -0.4707 C   0  0  0  0  0  0  0  0  0  0  0  0
   10.6706   24.2839   -1.5265 C   0  0  0  0  0  0  0  0  0  0  0  0
    9.4438   23.5743    1.8844 N   0  0  0  0  0  0  0  0  0  0  0  0
    8.5615   22.4267    1.6227 C   0  0  0  0  0  0  0  0  0  0  0  0
    7.7604   22.1779    2.8565 C   0  0  0  0  0  0  0  0  0  0  0  0
    7.1096   23.3157    3.2627 O   0  0  0  0  0  0  0  0  0  0  0  0
    7.9383   24.3661    3.5653 C   0  0  0  0  0  0  0  0  0  0  0  0
    9.4051   24.0722    3.2414 C   0  0  0  0  0  0  0  0  0  0  0  0
   15.8344   27.0667   -6.7734 C   0  0  0  0  0  0  0  0  0  0  0  0
   15.8103   26.8309   -5.2527 C   0  0  0  0  0  0  0  0  0  0  0  0
   15.3320   27.9112   -4.5798 O   0  0  0  0  0  0  0  0  0  0  0  0
   14.7988   28.4727   -5.2271 H   0  0  0  0  0  0  0  0  0  0  0  0
   15.9603   24.4894   -4.4644 N   0  0  0  0  0  0  0  0  0  0  0  0
   16.8946   24.3326   -4.9461 H   0  0  0  0  0  0  0  0  0  0  0  0
   15.6586   23.6618   -3.3616 C   0  0  0  0  0  0  0  0  0  0  0  0
   15.0586   22.4265   -3.4677 C   0  0  0  0  0  0  0  0  0  0  0  0
   14.7404   21.6366   -2.3564 C   0  0  0  0  0  0  0  0  0  0  0  0
   15.0313   22.0977   -1.0917 C   0  0  0  0  0  0  0  0  0  0  0  0
   15.6315   23.3368   -0.9991 C   0  0  0  0  0  0  0  0  0  0  0  0
   16.0210   23.9647    0.6069 Cl  0  0  0  0  0  0  0  0  0  0  0  0
   15.9484   24.1194   -2.0815 C   0  0  0  0  0  0  0  0  0  0  0  0
   16.5997   25.4520   -1.8742 C   0  0  0  0  0  0  0  0  0  0  0  0
   14.7328   21.3465    0.0405 N   0  0  0  0  0  0  0  0  0  0  0  0
   14.4734   20.7103    0.9713 C   0  0  0  0  0  0  0  0  0  0  0  0
 19 20  1  0  0  0
 20 21  1  0  0  0
 20  1  1  0  0  0
  1 23  1  0  0  0
 23 25  1  0  0  0
 25 26  2  0  0  0
 26 27  1  0  0  0
 27 28  2  0  0  0
 28 33  1  0  0  0
 33 34  3  0  0  0
 28 29  1  0  0  0
 29 30  1  0  0  0
 29 31  2  0  0  0
 31 32  1  0  0  0
  1  2  1  0  0  0
  2  3  2  0  0  0
  3  4  1  0  0  0
  4  5  2  0  0  0
  5  6  1  0  0  0
  5  7  1  0  0  0
  7  8  2  0  0  0
  8  9  1  0  0  0
  9 10  2  0  0  0
 10 11  1  0  0  0
 11 12  2  0  0  0
 10 13  1  0  0  0
 13 14  1  0  0  0
 14 15  1  0  0  0
 15 16  1  0  0  0
 16 17  1  0  0  0
 17 18  1  0  0  0
 31 25  1  0  0  0
  6  2  1  0  0  0
 12  7  1  0  0  0
 18 13  1  0  0  0
 21 22  1  0  0  0
 23 24  1  0  0  0
M  CHG 1  33   1
M  CHG 1  34  -1
M  END
> <minimizedAffinity>
-6.97516

> <CNNscore>
0.3996436298

> <CNNaffinity>
7.6184020042

> <CNN_VS>
3.0446457863

> <CNNaffinity_variance>
0.0815302581

$$$$
[H]N=C(N([H])[H])N([H])C([H])([H])C([H])([H])C([H])([H])[C@@]([H])(C(=O)N([H])[C@]([H])(C(=N[H])N([H])[H])C([H])([H])c1c([H])c([H])c([H])c([H])c1[H])N([H])C(=O)[C@@]([H])(N([H])C(=O)[C@@]([H])(N([H])C(=O)[C@@]([H])(N([H])C(=O)C([H])([H])[H])C([H])([H])C([H])([H])C([H])([H])N([H])C(=N[H])N([H])[H])C([H])(C([H])([H])[H])C([H])([H])[H])C([H])([H])C([H])([H])C([H])([H])N([H])C(=N[H])N([H])[H]


 75 75  0  0  0  0  0  0  0  0999 V2000
   12.3889   23.9872    0.0984 C   0  0  0  0  0  0  0  0  0  0  0  0
   13.8855   23.8885   -0.0423 C   0  0  0  0  0  0  0  0  0  0  0  0
   14.3708   22.8067   -0.5318 O   0  0  0  0  0  0  0  0  0  0  0  0
   14.7792   24.9042    0.3286 N   0  0  0  0  0  0  0  0  0  0  0  0
   14.3275   25.7701    0.7533 H   0  0  0  0  0  0  0  0  0  0  0  0
   16.1958   24.8557    0.1909 C   0  0  0  0  0  0  0  0  0  0  0  0
   16.6212   25.2963   -1.1437 C   0  0  0  0  0  0  0  0  0  0  0  0
   17.4211   24.5284   -1.7821 O   0  0  0  0  0  0  0  0  0  0  0  0
   16.2524   26.4741   -1.8190 N   0  0  0  0  0  0  0  0  0  0  0  0
   15.6300   27.1629   -1.3916 H   0  0  0  0  0  0  0  0  0  0  0  0
   16.7515   26.7671   -3.1750 C   0  0  0  0  0  0  0  0  0  0  0  0
   17.5818   27.9767   -3.2271 C   0  0  0  0  0  0  0  0  0  0  0  0
   18.9269   27.9897   -3.6735 N   0  0  0  0  0  0  0  0  0  0  0  0
   17.0734   29.1309   -2.8528 N   0  0  0  0  0  0  0  0  0  0  0  0
   19.3670   27.2978   -4.3143 H   0  0  0  0  0  0  0  0  0  0  0  0
   19.5491   28.7643   -3.3273 H   0  0  0  0  0  0  0  0  0  0  0  0
   16.1085   29.2205   -2.5227 H   0  0  0  0  0  0  0  0  0  0  0  0
   15.5117   26.9084   -4.0124 C   0  0  0  0  0  0  0  0  0  0  0  0
   15.6402   26.5855   -5.4264 C   0  0  0  0  0  0  0  0  0  0  0  0
   15.2028   25.3678   -5.8995 C   0  0  0  0  0  0  0  0  0  0  0  0
   15.3180   25.0969   -7.2503 C   0  0  0  0  0  0  0  0  0  0  0  0
   15.8561   26.0120   -8.1255 C   0  0  0  0  0  0  0  0  0  0  0  0
   16.2927   27.2281   -7.6500 C   0  0  0  0  0  0  0  0  0  0  0  0
   16.1773   27.4937   -6.3075 C   0  0  0  0  0  0  0  0  0  0  0  0
   16.9123   23.7299    0.8093 C   0  0  0  0  0  0  0  0  0  0  0  0
   16.1530   22.7453    1.6139 C   0  0  0  0  0  0  0  0  0  0  0  0
   16.6670   21.3450    1.2431 C   0  0  0  0  0  0  0  0  0  0  0  0
   15.8815   20.6960    0.2465 N   0  0  0  0  0  0  0  0  0  0  0  0
   16.2745   20.3564   -0.6784 H   0  0  0  0  0  0  0  0  0  0  0  0
   14.4916   20.4651    0.4508 C   0  0  0  0  0  0  0  0  0  0  0  0
   13.5871   20.1703   -0.6019 N   0  0  0  0  0  0  0  0  0  0  0  0
   14.0047   20.5182    1.6569 N   0  0  0  0  0  0  0  0  0  0  0  0
   13.6062   20.6464   -1.5303 H   0  0  0  0  0  0  0  0  0  0  0  0
   12.8271   19.4376   -0.5074 H   0  0  0  0  0  0  0  0  0  0  0  0
   13.0033   20.3569    1.8517 H   0  0  0  0  0  0  0  0  0  0  0  0
   11.3601   22.5160    1.8194 C   0  0  0  0  0  0  0  0  0  0  0  0
   11.1479   21.6460    0.9446 O   0  0  0  0  0  0  0  0  0  0  0  0
   11.9910   23.7202    1.4471 N   0  0  0  0  0  0  0  0  0  0  0  0
   12.1720   24.4349    2.1806 H   0  0  0  0  0  0  0  0  0  0  0  0
   10.9307   22.2295    3.2118 C   0  0  0  0  0  0  0  0  0  0  0  0
    8.6864   23.3864    3.2428 C   0  0  0  0  0  0  0  0  0  0  0  0
    9.2600   24.4979    3.0471 O   0  0  0  0  0  0  0  0  0  0  0  0
    9.4993   22.2362    3.3237 N   0  0  0  0  0  0  0  0  0  0  0  0
    9.0396   21.3140    3.4759 H   0  0  0  0  0  0  0  0  0  0  0  0
    7.2021   23.3786    3.3720 C   0  0  0  0  0  0  0  0  0  0  0  0
    5.9573   19.7265    3.2424 C   0  0  0  0  0  0  0  0  0  0  0  0
    6.5456   20.9790    3.7468 C   0  0  0  0  0  0  0  0  0  0  0  0
    6.9761   21.0379    4.9138 O   0  0  0  0  0  0  0  0  0  0  0  0
    6.6385   22.1416    2.9277 N   0  0  0  0  0  0  0  0  0  0  0  0
    6.2419   22.0644    1.9755 H   0  0  0  0  0  0  0  0  0  0  0  0
    6.6712   24.0106    4.5884 C   0  0  0  0  0  0  0  0  0  0  0  0
    7.4850   24.8597    5.4550 C   0  0  0  0  0  0  0  0  0  0  0  0
    7.0907   26.2868    5.5863 C   0  0  0  0  0  0  0  0  0  0  0  0
    6.1581   26.6701    4.5066 N   0  0  0  0  0  0  0  0  0  0  0  0
    5.4882   26.0012    4.1248 H   0  0  0  0  0  0  0  0  0  0  0  0
    6.2257   27.9915    4.0258 C   0  0  0  0  0  0  0  0  0  0  0  0
    5.1401   28.9010    4.1210 N   0  0  0  0  0  0  0  0  0  0  0  0
    7.3174   28.3875    3.4830 N   0  0  0  0  0  0  0  0  0  0  0  0
    5.2461   29.8906    4.4381 H   0  0  0  0  0  0  0  0  0  0  0  0
    4.1741   28.5718    3.8619 H   0  0  0  0  0  0  0  0  0  0  0  0
    7.3827   29.3583    3.1241 H   0  0  0  0  0  0  0  0  0  0  0  0
   11.6085   21.0512    3.8251 C   0  0  0  0  0  0  0  0  0  0  0  0
   11.3380   20.9827    5.3171 C   0  0  0  0  0  0  0  0  0  0  0  0
   11.2612   19.7386    3.1809 C   0  0  0  0  0  0  0  0  0  0  0  0
   11.8931   25.2447   -0.4994 C   0  0  0  0  0  0  0  0  0  0  0  0
   12.4149   25.4759   -1.9115 C   0  0  0  0  0  0  0  0  0  0  0  0
   12.8161   24.1603   -2.5411 C   0  0  0  0  0  0  0  0  0  0  0  0
   14.0855   24.2317   -3.2223 N   0  0  0  0  0  0  0  0  0  0  0  0
   14.4436   25.1409   -3.5769 H   0  0  0  0  0  0  0  0  0  0  0  0
   14.8746   23.0759   -3.4305 C   0  0  0  0  0  0  0  0  0  0  0  0
   16.1176   23.2072   -4.1042 N   0  0  0  0  0  0  0  0  0  0  0  0
   14.4632   21.9392   -3.0133 N   0  0  0  0  0  0  0  0  0  0  0  0
   16.3561   22.4796   -4.8115 H   0  0  0  0  0  0  0  0  0  0  0  0
   16.8008   23.9768   -3.9404 H   0  0  0  0  0  0  0  0  0  0  0  0
   15.0599   21.1008   -3.1777 H   0  0  0  0  0  0  0  0  0  0  0  0
 46 47  1  0  0  0
 47 48  2  0  0  0
 47 49  1  0  0  0
 49 45  1  0  0  0
 45 51  1  0  0  0
 51 52  1  0  0  0
 52 53  1  0  0  0
 53 54  1  0  0  0
 54 56  1  0  0  0
 56 57  1  0  0  0
 56 58  2  0  0  0
 45 41  1  0  0  0
 41 42  2  0  0  0
 41 43  1  0  0  0
 43 40  1  0  0  0
 40 62  1  0  0  0
 62 63  1  0  0  0
 62 64  1  0  0  0
 40 36  1  0  0  0
 36 37  2  0  0  0
 36 38  1  0  0  0
 38  1  1  0  0  0
  1 65  1  0  0  0
 65 66  1  0  0  0
 66 67  1  0  0  0
 67 68  1  0  0  0
 68 70  1  0  0  0
 70 71  1  0  0  0
 70 72  2  0  0  0
  1  2  1  0  0  0
  2  3  2  0  0  0
  2  4  1  0  0  0
  4  6  1  0  0  0
  6 25  1  0  0  0
 25 26  1  0  0  0
 26 27  1  0  0  0
 27 28  1  0  0  0
 28 30  1  0  0  0
 30 31  1  0  0  0
 30 32  2  0  0  0
  6  7  1  0  0  0
  7  8  2  0  0  0
  7  9  1  0  0  0
  9 11  1  0  0  0
 11 18  1  0  0  0
 18 19  1  0  0  0
 19 20  2  0  0  0
 20 21  1  0  0  0
 21 22  2  0  0  0
 22 23  1  0  0  0
 23 24  2  0  0  0
 11 12  1  0  0  0
 12 13  1  0  0  0
 12 14  2  0  0  0
 24 19  1  0  0  0
 49 50  1  0  0  0
 54 55  1  0  0  0
 57 59  1  0  0  0
 57 60  1  0  0  0
 58 61  1  0  0  0
 43 44  1  0  0  0
 38 39  1  0  0  0
 68 69  1  0  0  0
 71 73  1  0  0  0
 71 74  1  0  0  0
 72 75  1  0  0  0
  4  5  1  0  0  0
 28 29  1  0  0  0
 31 33  1  0  0  0
 31 34  1  0  0  0
 32 35  1  0  0  0
  9 10  1  0  0  0
 13 15  1  0  0  0
 13 16  1  0  0  0
 14 17  1  0  0  0
M  END
> <minimizedAffinity>
-3.72742

> <CNNscore>
0.4179562628

> <CNNaffinity>
7.8355817795

> <CNN_VS>
3.2749304771

> <CNNaffinity_variance>
0.3347516954

$$$$
[H]N=C(N([H])[H])N([H])C([H])([H])C([H])([H])C([H])([H])[C@@]([H])(C(=O)N([H])[C@]([H])(C(=N[H])N([H])[H])C([H])([H])c1c([H])c([H])c([H])c([H])c1[H])N([H])C(=O)[C@@]([H])(N([H])C(=O)[C@@]([H])(N([H])C(=O)[C@@]([H])(N([H])C(=O)C([H])([H])[H])C([H])([H])C([H])([H])C([H])([H])N([H])C(=N[H])N([H])[H])C([H])(C([H])([H])[H])C([H])([H])[H])C([H])([H])C([H])([H])C([H])([H])N([H])C(=N[H])N([H])[H]


 75 75  0  0  0  0  0  0  0  0999 V2000
   11.6139   22.6107    2.1491 C   0  0  0  0  0  0  0  0  0  0  0  0
   12.3150   23.5054    1.1606 C   0  0  0  0  0  0  0  0  0  0  0  0
   11.5965   24.3107    0.4674 O   0  0  0  0  0  0  0  0  0  0  0  0
   13.7022   23.5119    0.9515 N   0  0  0  0  0  0  0  0  0  0  0  0
   14.2496   22.8071    1.5326 H   0  0  0  0  0  0  0  0  0  0  0  0
   14.4017   24.3567    0.0433 C   0  0  0  0  0  0  0  0  0  0  0  0
   14.5902   23.7056   -1.2594 C   0  0  0  0  0  0  0  0  0  0  0  0
   15.5537   22.8694   -1.3576 O   0  0  0  0  0  0  0  0  0  0  0  0
   13.8315   23.8878   -2.4300 N   0  0  0  0  0  0  0  0  0  0  0  0
   13.0491   24.5446   -2.4633 H   0  0  0  0  0  0  0  0  0  0  0  0
   14.1351   23.1388   -3.6632 C   0  0  0  0  0  0  0  0  0  0  0  0
   14.3102   21.7005   -3.4271 C   0  0  0  0  0  0  0  0  0  0  0  0
   13.7489   21.0094   -2.3244 N   0  0  0  0  0  0  0  0  0  0  0  0
   15.0162   20.9837   -4.2749 N   0  0  0  0  0  0  0  0  0  0  0  0
   12.9116   21.3014   -1.7795 H   0  0  0  0  0  0  0  0  0  0  0  0
   14.2169   20.1189   -2.0161 H   0  0  0  0  0  0  0  0  0  0  0  0
   15.4537   21.3945   -5.1043 H   0  0  0  0  0  0  0  0  0  0  0  0
   15.3917   23.7718   -4.1909 C   0  0  0  0  0  0  0  0  0  0  0  0
   15.2235   24.9292   -5.0583 C   0  0  0  0  0  0  0  0  0  0  0  0
   14.5087   26.0225   -4.6205 C   0  0  0  0  0  0  0  0  0  0  0  0
   14.3833   27.1158   -5.4574 C   0  0  0  0  0  0  0  0  0  0  0  0
   14.9540   27.1343   -6.7092 C   0  0  0  0  0  0  0  0  0  0  0  0
   15.6677   26.0402   -7.1443 C   0  0  0  0  0  0  0  0  0  0  0  0
   15.7898   24.9556   -6.3106 C   0  0  0  0  0  0  0  0  0  0  0  0
   15.5002   25.1799    0.5711 C   0  0  0  0  0  0  0  0  0  0  0  0
   16.7218   25.3635   -0.2459 C   0  0  0  0  0  0  0  0  0  0  0  0
   16.3667   26.3012   -1.4109 C   0  0  0  0  0  0  0  0  0  0  0  0
   17.3701   26.3580   -2.4216 N   0  0  0  0  0  0  0  0  0  0  0  0
   17.9554   25.5225   -2.7123 H   0  0  0  0  0  0  0  0  0  0  0  0
   17.6423   27.5742   -3.1099 C   0  0  0  0  0  0  0  0  0  0  0  0
   18.9186   27.9043   -3.6347 N   0  0  0  0  0  0  0  0  0  0  0  0
   16.6858   28.4401   -3.2818 N   0  0  0  0  0  0  0  0  0  0  0  0
   19.8149   27.7193   -3.1332 H   0  0  0  0  0  0  0  0  0  0  0  0
   19.0402   28.3648   -4.5816 H   0  0  0  0  0  0  0  0  0  0  0  0
   16.8377   29.3346   -3.7753 H   0  0  0  0  0  0  0  0  0  0  0  0
    9.5444   22.9927    3.4743 C   0  0  0  0  0  0  0  0  0  0  0  0
   10.1726   22.7313    4.5252 O   0  0  0  0  0  0  0  0  0  0  0  0
   10.2268   22.9517    2.2417 N   0  0  0  0  0  0  0  0  0  0  0  0
    9.7009   23.1785    1.3737 H   0  0  0  0  0  0  0  0  0  0  0  0
    8.1032   23.3329    3.5854 C   0  0  0  0  0  0  0  0  0  0  0  0
    7.1497   21.0655    4.1562 C   0  0  0  0  0  0  0  0  0  0  0  0
    7.8023   21.0675    5.2411 O   0  0  0  0  0  0  0  0  0  0  0  0
    7.2789   22.1892    3.3132 N   0  0  0  0  0  0  0  0  0  0  0  0
    6.7408   22.2045    2.4215 H   0  0  0  0  0  0  0  0  0  0  0  0
    6.2981   19.8807    3.8546 C   0  0  0  0  0  0  0  0  0  0  0  0
    6.2605   16.5458    5.7991 C   0  0  0  0  0  0  0  0  0  0  0  0
    6.1966   17.5085    4.6863 C   0  0  0  0  0  0  0  0  0  0  0  0
    6.0012   17.1040    3.5249 O   0  0  0  0  0  0  0  0  0  0  0  0
    6.3536   18.9084    4.9019 N   0  0  0  0  0  0  0  0  0  0  0  0
    6.5460   19.2037    5.8744 H   0  0  0  0  0  0  0  0  0  0  0  0
    5.0049   20.1777    3.2220 C   0  0  0  0  0  0  0  0  0  0  0  0
    4.7236   19.8714    1.8215 C   0  0  0  0  0  0  0  0  0  0  0  0
    5.8785   19.7940    0.8891 C   0  0  0  0  0  0  0  0  0  0  0  0
    5.4132   19.6121   -0.5011 N   0  0  0  0  0  0  0  0  0  0  0  0
    4.4187   19.6186   -0.7306 H   0  0  0  0  0  0  0  0  0  0  0  0
    6.3916   19.4319   -1.4973 C   0  0  0  0  0  0  0  0  0  0  0  0
    7.0231   18.1837   -1.7381 N   0  0  0  0  0  0  0  0  0  0  0  0
    6.7204   20.4397   -2.2180 N   0  0  0  0  0  0  0  0  0  0  0  0
    7.1649   17.7868   -2.6938 H   0  0  0  0  0  0  0  0  0  0  0  0
    7.3696   17.6205   -0.9188 H   0  0  0  0  0  0  0  0  0  0  0  0
    7.4395   20.3227   -2.9562 H   0  0  0  0  0  0  0  0  0  0  0  0
    7.7517   24.0869    4.8230 C   0  0  0  0  0  0  0  0  0  0  0  0
    8.3692   25.4736    4.8100 C   0  0  0  0  0  0  0  0  0  0  0  0
    6.2750   24.1863    5.0833 C   0  0  0  0  0  0  0  0  0  0  0  0
   11.9281   21.1919    1.8789 C   0  0  0  0  0  0  0  0  0  0  0  0
   10.7153   20.3932    1.4197 C   0  0  0  0  0  0  0  0  0  0  0  0
   10.8580   20.0207   -0.0394 C   0  0  0  0  0  0  0  0  0  0  0  0
    9.8071   20.5692   -0.8610 N   0  0  0  0  0  0  0  0  0  0  0  0
    8.8117   20.3426   -0.6652 H   0  0  0  0  0  0  0  0  0  0  0  0
   10.0959   21.4228   -1.9518 C   0  0  0  0  0  0  0  0  0  0  0  0
    9.5077   21.1446   -3.2139 N   0  0  0  0  0  0  0  0  0  0  0  0
   10.8744   22.4242   -1.7892 N   0  0  0  0  0  0  0  0  0  0  0  0
   10.1152   21.2420   -4.0553 H   0  0  0  0  0  0  0  0  0  0  0  0
    8.5176   20.8510   -3.3532 H   0  0  0  0  0  0  0  0  0  0  0  0
   11.0740   23.0396   -2.6062 H   0  0  0  0  0  0  0  0  0  0  0  0
 46 47  1  0  0  0
 47 48  2  0  0  0
 47 49  1  0  0  0
 49 45  1  0  0  0
 45 51  1  0  0  0
 51 52  1  0  0  0
 52 53  1  0  0  0
 53 54  1  0  0  0
 54 56  1  0  0  0
 56 57  1  0  0  0
 56 58  2  0  0  0
 45 41  1  0  0  0
 41 42  2  0  0  0
 41 43  1  0  0  0
 43 40  1  0  0  0
 40 62  1  0  0  0
 62 63  1  0  0  0
 62 64  1  0  0  0
 40 36  1  0  0  0
 36 37  2  0  0  0
 36 38  1  0  0  0
 38  1  1  0  0  0
  1 65  1  0  0  0
 65 66  1  0  0  0
 66 67  1  0  0  0
 67 68  1  0  0  0
 68 70  1  0  0  0
 70 71  1  0  0  0
 70 72  2  0  0  0
  1  2  1  0  0  0
  2  3  2  0  0  0
  2  4  1  0  0  0
  4  6  1  0  0  0
  6 25  1  0  0  0
 25 26  1  0  0  0
 26 27  1  0  0  0
 27 28  1  0  0  0
 28 30  1  0  0  0
 30 31  1  0  0  0
 30 32  2  0  0  0
  6  7  1  0  0  0
  7  8  2  0  0  0
  7  9  1  0  0  0
  9 11  1  0  0  0
 11 18  1  0  0  0
 18 19  1  0  0  0
 19 20  2  0  0  0
 20 21  1  0  0  0
 21 22  2  0  0  0
 22 23  1  0  0  0
 23 24  2  0  0  0
 11 12  1  0  0  0
 12 13  1  0  0  0
 12 14  2  0  0  0
 24 19  1  0  0  0
 49 50  1  0  0  0
 54 55  1  0  0  0
 57 59  1  0  0  0
 57 60  1  0  0  0
 58 61  1  0  0  0
 43 44  1  0  0  0
 38 39  1  0  0  0
 68 69  1  0  0  0
 71 73  1  0  0  0
 71 74  1  0  0  0
 72 75  1  0  0  0
  4  5  1  0  0  0
 28 29  1  0  0  0
 31 33  1  0  0  0
 31 34  1  0  0  0
 32 35  1  0  0  0
  9 10  1  0  0  0
 13 15  1  0  0  0
 13 16  1  0  0  0
 14 17  1  0  0  0
M  END
> <minimizedAffinity>
-3.50300

> <CNNscore>
0.3961080611

> <CNNaffinity>
7.7001237869

> <CNN_VS>
3.0500810146

> <CNNaffinity_variance>
0.6716972589

$$$$
[H]N=C(N([H])[H])N([H])C([H])([H])C([H])([H])C([H])([H])[C@@]([H])(C(=O)N([H])[C@]([H])(C(=N[H])N([H])[H])C([H])([H])c1c([H])c([H])c([H])c([H])c1[H])N([H])C(=O)[C@@]([H])(N([H])C(=O)[C@@]([H])(N([H])C(=O)[C@@]([H])(N([H])C(=O)C([H])([H])[H])C([H])([H])C([H])([H])C([H])([H])N([H])C(=N[H])N([H])[H])C([H])(C([H])([H])[H])C([H])([H])[H])C([H])([H])C([H])([H])C([H])([H])N([H])C(=N[H])N([H])[H]


 75 75  0  0  0  0  0  0  0  0999 V2000
   15.3460   24.3884    0.6232 C   0  0  0  0  0  0  0  0  0  0  0  0
   13.9845   25.0319    0.6602 C   0  0  0  0  0  0  0  0  0  0  0  0
   13.9277   26.3053    0.8032 O   0  0  0  0  0  0  0  0  0  0  0  0
   12.7773   24.3258    0.5484 N   0  0  0  0  0  0  0  0  0  0  0  0
   12.8788   23.2696    0.4579 H   0  0  0  0  0  0  0  0  0  0  0  0
   11.4745   24.9008    0.5574 C   0  0  0  0  0  0  0  0  0  0  0  0
   10.6272   24.2952    1.5927 C   0  0  0  0  0  0  0  0  0  0  0  0
   11.1614   23.3946    2.3280 O   0  0  0  0  0  0  0  0  0  0  0  0
    9.2818   24.5869    1.8824 N   0  0  0  0  0  0  0  0  0  0  0  0
    8.7570   25.2795    1.3444 H   0  0  0  0  0  0  0  0  0  0  0  0
    8.5686   23.9022    2.9762 C   0  0  0  0  0  0  0  0  0  0  0  0
    9.0802   24.2639    4.3037 C   0  0  0  0  0  0  0  0  0  0  0  0
    9.5100   23.3171    5.2667 N   0  0  0  0  0  0  0  0  0  0  0  0
    9.1646   25.5318    4.6447 N   0  0  0  0  0  0  0  0  0  0  0  0
    9.8463   22.3520    5.0702 H   0  0  0  0  0  0  0  0  0  0  0  0
    9.4870   23.6043    6.2786 H   0  0  0  0  0  0  0  0  0  0  0  0
    8.8844   26.2864    4.0123 H   0  0  0  0  0  0  0  0  0  0  0  0
    8.7527   22.4384    2.6902 C   0  0  0  0  0  0  0  0  0  0  0  0
    7.5650   21.6015    2.7855 C   0  0  0  0  0  0  0  0  0  0  0  0
    7.3261   20.8687    3.9273 C   0  0  0  0  0  0  0  0  0  0  0  0
    6.1795   20.0994    3.9981 C   0  0  0  0  0  0  0  0  0  0  0  0
    5.2786   20.0515    2.9594 C   0  0  0  0  0  0  0  0  0  0  0  0
    5.5199   20.7847    1.8193 C   0  0  0  0  0  0  0  0  0  0  0  0
    6.6601   21.5473    1.7520 C   0  0  0  0  0  0  0  0  0  0  0  0
   10.8569   25.2337   -0.7352 C   0  0  0  0  0  0  0  0  0  0  0  0
   11.4887   24.7484   -1.9836 C   0  0  0  0  0  0  0  0  0  0  0  0
   12.3223   25.9025   -2.5632 C   0  0  0  0  0  0  0  0  0  0  0  0
   13.6286   25.5093   -2.9763 N   0  0  0  0  0  0  0  0  0  0  0  0
   14.2840   24.9331   -2.3732 H   0  0  0  0  0  0  0  0  0  0  0  0
   14.1306   25.8814   -4.2555 C   0  0  0  0  0  0  0  0  0  0  0  0
   15.1540   25.1662   -4.9297 N   0  0  0  0  0  0  0  0  0  0  0  0
   13.6376   26.9248   -4.8577 N   0  0  0  0  0  0  0  0  0  0  0  0
   16.0000   24.7825   -4.4543 H   0  0  0  0  0  0  0  0  0  0  0  0
   15.1198   24.9754   -5.9717 H   0  0  0  0  0  0  0  0  0  0  0  0
   13.9709   27.2309   -5.7860 H   0  0  0  0  0  0  0  0  0  0  0  0
   14.5758   22.0352    0.3915 C   0  0  0  0  0  0  0  0  0  0  0  0
   13.9483   22.1374    1.4699 O   0  0  0  0  0  0  0  0  0  0  0  0
   15.2975   23.1471   -0.0876 N   0  0  0  0  0  0  0  0  0  0  0  0
   15.8092   23.0578   -0.9886 H   0  0  0  0  0  0  0  0  0  0  0  0
   14.5257   20.7373   -0.3284 C   0  0  0  0  0  0  0  0  0  0  0  0
   12.0732   20.3677    0.1459 C   0  0  0  0  0  0  0  0  0  0  0  0
   11.8210   21.5398   -0.2610 O   0  0  0  0  0  0  0  0  0  0  0  0
   13.4175   19.9407    0.1173 N   0  0  0  0  0  0  0  0  0  0  0  0
   13.6380   18.9756    0.4411 H   0  0  0  0  0  0  0  0  0  0  0  0
   10.9349   19.5326    0.6217 C   0  0  0  0  0  0  0  0  0  0  0  0
   10.9374   20.1257    4.4365 C   0  0  0  0  0  0  0  0  0  0  0  0
   11.3911   19.7515    3.0862 C   0  0  0  0  0  0  0  0  0  0  0  0
   12.5424   19.3077    2.9179 O   0  0  0  0  0  0  0  0  0  0  0  0
   10.5400   19.8835    1.9507 N   0  0  0  0  0  0  0  0  0  0  0  0
    9.6028   20.2852    2.1245 H   0  0  0  0  0  0  0  0  0  0  0  0
    9.8982   19.2484   -0.3810 C   0  0  0  0  0  0  0  0  0  0  0  0
    8.7696   20.1439   -0.6234 C   0  0  0  0  0  0  0  0  0  0  0  0
    7.4910   19.5330   -1.0719 C   0  0  0  0  0  0  0  0  0  0  0  0
    7.0168   20.1733   -2.3158 N   0  0  0  0  0  0  0  0  0  0  0  0
    7.6626   20.3987   -3.0735 H   0  0  0  0  0  0  0  0  0  0  0  0
    5.6421   20.4591   -2.4185 C   0  0  0  0  0  0  0  0  0  0  0  0
    4.7468   19.6661   -3.1830 N   0  0  0  0  0  0  0  0  0  0  0  0
    5.1827   21.4775   -1.7901 N   0  0  0  0  0  0  0  0  0  0  0  0
    3.8113   19.3585   -2.8347 H   0  0  0  0  0  0  0  0  0  0  0  0
    5.0302   19.3664   -4.1517 H   0  0  0  0  0  0  0  0  0  0  0  0
    4.1720   21.7009   -1.8558 H   0  0  0  0  0  0  0  0  0  0  0  0
   14.6638   20.8590   -1.8083 C   0  0  0  0  0  0  0  0  0  0  0  0
   13.5275   20.1491   -2.5217 C   0  0  0  0  0  0  0  0  0  0  0  0
   14.7727   22.2746   -2.3008 C   0  0  0  0  0  0  0  0  0  0  0  0
   16.3682   25.3613    0.1835 C   0  0  0  0  0  0  0  0  0  0  0  0
   16.6867   25.2557   -1.3021 C   0  0  0  0  0  0  0  0  0  0  0  0
   16.6174   26.6214   -1.9488 C   0  0  0  0  0  0  0  0  0  0  0  0
   17.6331   26.8151   -2.9542 N   0  0  0  0  0  0  0  0  0  0  0  0
   18.4228   26.1449   -3.0425 H   0  0  0  0  0  0  0  0  0  0  0  0
   17.5889   27.9159   -3.8420 C   0  0  0  0  0  0  0  0  0  0  0  0
   18.7534   28.7119   -4.0050 N   0  0  0  0  0  0  0  0  0  0  0  0
   16.5122   28.1774   -4.4805 N   0  0  0  0  0  0  0  0  0  0  0  0
   18.6235   29.7455   -4.0420 H   0  0  0  0  0  0  0  0  0  0  0  0
   19.7211   28.3344   -4.0883 H   0  0  0  0  0  0  0  0  0  0  0  0
   16.5013   28.9932   -5.1288 H   0  0  0  0  0  0  0  0  0  0  0  0
 46 47  1  0  0  0
 47 48  2  0  0  0
 47 49  1  0  0  0
 49 45  1  0  0  0
 45 51  1  0  0  0
 51 52  1  0  0  0
 52 53  1  0  0  0
 53 54  1  0  0  0
 54 56  1  0  0  0
 56 57  1  0  0  0
 56 58  2  0  0  0
 45 41  1  0  0  0
 41 42  2  0  0  0
 41 43  1  0  0  0
 43 40  1  0  0  0
 40 62  1  0  0  0
 62 63  1  0  0  0
 62 64  1  0  0  0
 40 36  1  0  0  0
 36 37  2  0  0  0
 36 38  1  0  0  0
 38  1  1  0  0  0
  1 65  1  0  0  0
 65 66  1  0  0  0
 66 67  1  0  0  0
 67 68  1  0  0  0
 68 70  1  0  0  0
 70 71  1  0  0  0
 70 72  2  0  0  0
  1  2  1  0  0  0
  2  3  2  0  0  0
  2  4  1  0  0  0
  4  6  1  0  0  0
  6 25  1  0  0  0
 25 26  1  0  0  0
 26 27  1  0  0  0
 27 28  1  0  0  0
 28 30  1  0  0  0
 30 31  1  0  0  0
 30 32  2  0  0  0
  6  7  1  0  0  0
  7  8  2  0  0  0
  7  9  1  0  0  0
  9 11  1  0  0  0
 11 18  1  0  0  0
 18 19  1  0  0  0
 19 20  2  0  0  0
 20 21  1  0  0  0
 21 22  2  0  0  0
 22 23  1  0  0  0
 23 24  2  0  0  0
 11 12  1  0  0  0
 12 13  1  0  0  0
 12 14  2  0  0  0
 24 19  1  0  0  0
 49 50  1  0  0  0
 54 55  1  0  0  0
 57 59  1  0  0  0
 57 60  1  0  0  0
 58 61  1  0  0  0
 43 44  1  0  0  0
 38 39  1  0  0  0
 68 69  1  0  0  0
 71 73  1  0  0  0
 71 74  1  0  0  0
 72 75  1  0  0  0
  4  5  1  0  0  0
 28 29  1  0  0  0
 31 33  1  0  0  0
 31 34  1  0  0  0
 32 35  1  0  0  0
  9 10  1  0  0  0
 13 15  1  0  0  0
 13 16  1  0  0  0
 14 17  1  0  0  0
M  END
> <minimizedAffinity>
-2.78501

> <CNNscore>
0.3834495246

> <CNNaffinity>
8.0274028778

> <CNN_VS>
3.0781037807

> <CNNaffinity_variance>
0.3012327254

$$$$
[H]N=C(N([H])[H])N([H])C([H])([H])C([H])([H])C([H])([H])[C@@]([H])(C(=O)N([H])[C@]([H])(C(=N[H])N([H])[H])C([H])([H])c1c([H])c([H])c([H])c([H])c1[H])N([H])C(=O)[C@@]([H])(N([H])C(=O)[C@@]([H])(N([H])C(=O)[C@@]([H])(N([H])C(=O)C([H])([H])[H])C([H])([H])C([H])([H])C([H])([H])N([H])C(=N[H])N([H])[H])C([H])(C([H])([H])[H])C([H])([H])[H])C([H])([H])C([H])([H])C([H])([H])N([H])C(=N[H])N([H])[H]


 75 75  0  0  0  0  0  0  0  0999 V2000
   15.7207   24.0813    0.5914 C   0  0  0  0  0  0  0  0  0  0  0  0
   14.4657   24.9030    0.7288 C   0  0  0  0  0  0  0  0  0  0  0  0
   14.5844   26.1144    1.1335 O   0  0  0  0  0  0  0  0  0  0  0  0
   13.1778   24.4261    0.4424 N   0  0  0  0  0  0  0  0  0  0  0  0
   13.1315   23.4073    0.1355 H   0  0  0  0  0  0  0  0  0  0  0  0
   11.9725   25.1782    0.5396 C   0  0  0  0  0  0  0  0  0  0  0  0
   11.0882   24.6435    1.5829 C   0  0  0  0  0  0  0  0  0  0  0  0
   11.2175   23.4048    1.8762 O   0  0  0  0  0  0  0  0  0  0  0  0
   10.1030   25.3337    2.3123 N   0  0  0  0  0  0  0  0  0  0  0  0
    9.9086   26.3230    2.1450 H   0  0  0  0  0  0  0  0  0  0  0  0
    9.3047   24.6567    3.3507 C   0  0  0  0  0  0  0  0  0  0  0  0
    8.1467   23.9404    2.8019 C   0  0  0  0  0  0  0  0  0  0  0  0
    7.2820   23.1295    3.5786 N   0  0  0  0  0  0  0  0  0  0  0  0
    7.8650   24.0448    1.5210 N   0  0  0  0  0  0  0  0  0  0  0  0
    7.1261   23.2069    4.6047 H   0  0  0  0  0  0  0  0  0  0  0  0
    6.7458   22.3722    3.0827 H   0  0  0  0  0  0  0  0  0  0  0  0
    8.4284   24.6138    0.8833 H   0  0  0  0  0  0  0  0  0  0  0  0
    8.8853   25.7576    4.2836 C   0  0  0  0  0  0  0  0  0  0  0  0
    7.6370   26.4382    3.9689 C   0  0  0  0  0  0  0  0  0  0  0  0
    7.5940   27.3673    2.9527 C   0  0  0  0  0  0  0  0  0  0  0  0
    6.3902   27.9821    2.6620 C   0  0  0  0  0  0  0  0  0  0  0  0
    5.2429   27.6869    3.3615 C   0  0  0  0  0  0  0  0  0  0  0  0
    5.2888   26.7582    4.3768 C   0  0  0  0  0  0  0  0  0  0  0  0
    6.4863   26.1497    4.6633 C   0  0  0  0  0  0  0  0  0  0  0  0
   11.3589   25.6647   -0.7054 C   0  0  0  0  0  0  0  0  0  0  0  0
   11.8625   25.1603   -2.0036 C   0  0  0  0  0  0  0  0  0  0  0  0
   13.0802   26.0132   -2.3943 C   0  0  0  0  0  0  0  0  0  0  0  0
   13.0670   26.4336   -3.7561 N   0  0  0  0  0  0  0  0  0  0  0  0
   12.3129   27.0549   -4.1691 H   0  0  0  0  0  0  0  0  0  0  0  0
   14.0955   26.0285   -4.6533 C   0  0  0  0  0  0  0  0  0  0  0  0
   14.3727   26.6959   -5.8743 N   0  0  0  0  0  0  0  0  0  0  0  0
   14.8342   24.9985   -4.3567 N   0  0  0  0  0  0  0  0  0  0  0  0
   13.6332   27.0515   -6.5191 H   0  0  0  0  0  0  0  0  0  0  0  0
   15.3618   26.8766   -6.2095 H   0  0  0  0  0  0  0  0  0  0  0  0
   15.5915   24.6696   -4.9773 H   0  0  0  0  0  0  0  0  0  0  0  0
   14.4994   21.9178    0.4797 C   0  0  0  0  0  0  0  0  0  0  0  0
   13.8867   22.2128    1.5308 O   0  0  0  0  0  0  0  0  0  0  0  0
   15.4370   22.8306   -0.0442 N   0  0  0  0  0  0  0  0  0  0  0  0
   15.9359   22.5829   -0.9224 H   0  0  0  0  0  0  0  0  0  0  0  0
   14.2030   20.6116   -0.1614 C   0  0  0  0  0  0  0  0  0  0  0  0
   11.6895   20.7209    0.0547 C   0  0  0  0  0  0  0  0  0  0  0  0
   11.6852   21.8142   -0.5838 O   0  0  0  0  0  0  0  0  0  0  0  0
   12.9355   20.0969    0.2744 N   0  0  0  0  0  0  0  0  0  0  0  0
   12.9527   19.1925    0.7909 H   0  0  0  0  0  0  0  0  0  0  0  0
   10.3829   20.1794    0.5230 C   0  0  0  0  0  0  0  0  0  0  0  0
   10.1484   21.0084    4.2863 C   0  0  0  0  0  0  0  0  0  0  0  0
   10.5868   20.3944    3.0214 C   0  0  0  0  0  0  0  0  0  0  0  0
   11.4968   19.5443    3.0256 O   0  0  0  0  0  0  0  0  0  0  0  0
    9.9923   20.7486    1.7755 N   0  0  0  0  0  0  0  0  0  0  0  0
    9.2624   21.4807    1.8076 H   0  0  0  0  0  0  0  0  0  0  0  0
    9.3680   19.9874   -0.5229 C   0  0  0  0  0  0  0  0  0  0  0  0
    8.1796   20.8300   -0.6323 C   0  0  0  0  0  0  0  0  0  0  0  0
    6.8615   20.1504   -0.7311 C   0  0  0  0  0  0  0  0  0  0  0  0
    6.0790   20.6948   -1.8597 N   0  0  0  0  0  0  0  0  0  0  0  0
    6.1473   21.6782   -2.1243 H   0  0  0  0  0  0  0  0  0  0  0  0
    5.2379   19.8073   -2.5576 C   0  0  0  0  0  0  0  0  0  0  0  0
    4.8244   18.5590   -2.0232 N   0  0  0  0  0  0  0  0  0  0  0  0
    4.8273   20.1465   -3.7236 N   0  0  0  0  0  0  0  0  0  0  0  0
    3.8389   18.2151   -2.0638 H   0  0  0  0  0  0  0  0  0  0  0  0
    5.5390   17.9404   -1.5593 H   0  0  0  0  0  0  0  0  0  0  0  0
    4.2070   19.5033   -4.2502 H   0  0  0  0  0  0  0  0  0  0  0  0
   14.4190   20.5974   -1.6369 C   0  0  0  0  0  0  0  0  0  0  0  0
   13.3023   19.8507   -2.3438 C   0  0  0  0  0  0  0  0  0  0  0  0
   14.5891   21.9606   -2.2460 C   0  0  0  0  0  0  0  0  0  0  0  0
   16.8085   24.8896    0.0014 C   0  0  0  0  0  0  0  0  0  0  0  0
   16.6889   25.0310   -1.5104 C   0  0  0  0  0  0  0  0  0  0  0  0
   16.7978   26.4864   -1.9084 C   0  0  0  0  0  0  0  0  0  0  0  0
   17.3582   26.6644   -3.2254 N   0  0  0  0  0  0  0  0  0  0  0  0
   17.6557   25.8423   -3.7878 H   0  0  0  0  0  0  0  0  0  0  0  0
   17.5223   27.9527   -3.7869 C   0  0  0  0  0  0  0  0  0  0  0  0
   16.3921   28.6052   -4.3466 N   0  0  0  0  0  0  0  0  0  0  0  0
   18.6742   28.5079   -3.7831 N   0  0  0  0  0  0  0  0  0  0  0  0
   16.5297   29.1071   -5.2498 H   0  0  0  0  0  0  0  0  0  0  0  0
   15.4422   28.6145   -3.9183 H   0  0  0  0  0  0  0  0  0  0  0  0
   18.7728   29.4569   -4.2025 H   0  0  0  0  0  0  0  0  0  0  0  0
 46 47  1  0  0  0
 47 48  2  0  0  0
 47 49  1  0  0  0
 49 45  1  0  0  0
 45 51  1  0  0  0
 51 52  1  0  0  0
 52 53  1  0  0  0
 53 54  1  0  0  0
 54 56  1  0  0  0
 56 57  1  0  0  0
 56 58  2  0  0  0
 45 41  1  0  0  0
 41 42  2  0  0  0
 41 43  1  0  0  0
 43 40  1  0  0  0
 40 62  1  0  0  0
 62 63  1  0  0  0
 62 64  1  0  0  0
 40 36  1  0  0  0
 36 37  2  0  0  0
 36 38  1  0  0  0
 38  1  1  0  0  0
  1 65  1  0  0  0
 65 66  1  0  0  0
 66 67  1  0  0  0
 67 68  1  0  0  0
 68 70  1  0  0  0
 70 71  1  0  0  0
 70 72  2  0  0  0
  1  2  1  0  0  0
  2  3  2  0  0  0
  2  4  1  0  0  0
  4  6  1  0  0  0
  6 25  1  0  0  0
 25 26  1  0  0  0
 26 27  1  0  0  0
 27 28  1  0  0  0
 28 30  1  0  0  0
 30 31  1  0  0  0
 30 32  2  0  0  0
  6  7  1  0  0  0
  7  8  2  0  0  0
  7  9  1  0  0  0
  9 11  1  0  0  0
 11 18  1  0  0  0
 18 19  1  0  0  0
 19 20  2  0  0  0
 20 21  1  0  0  0
 21 22  2  0  0  0
 22 23  1  0  0  0
 23 24  2  0  0  0
 11 12  1  0  0  0
 12 13  1  0  0  0
 12 14  2  0  0  0
 24 19  1  0  0  0
 49 50  1  0  0  0
 54 55  1  0  0  0
 57 59  1  0  0  0
 57 60  1  0  0  0
 58 61  1  0  0  0
 43 44  1  0  0  0
 38 39  1  0  0  0
 68 69  1  0  0  0
 71 73  1  0  0  0
 71 74  1  0  0  0
 72 75  1  0  0  0
  4  5  1  0  0  0
 28 29  1  0  0  0
 31 33  1  0  0  0
 31 34  1  0  0  0
 32 35  1  0  0  0
  9 10  1  0  0  0
 13 15  1  0  0  0
 13 16  1  0  0  0
 14 17  1  0  0  0
M  END
> <minimizedAffinity>
-4.19839

> <CNNscore>
0.3573251963

> <CNNaffinity>
7.8427925110

> <CNN_VS>
2.8024272919

> <CNNaffinity_variance>
0.4992231727

$$$$
[H]N=C(N([H])[H])N([H])C([H])([H])C([H])([H])C([H])([H])[C@@]([H])(C(=O)N([H])[C@]([H])(C(=N[H])N([H])[H])C([H])([H])c1c([H])c([H])c([H])c([H])c1[H])N([H])C(=O)[C@@]([H])(N([H])C(=O)[C@@]([H])(N([H])C(=O)[C@@]([H])(N([H])C(=O)C([H])([H])[H])C([H])([H])C([H])([H])C([H])([H])N([H])C(=N[H])N([H])[H])C([H])(C([H])([H])[H])C([H])([H])[H])C([H])([H])C([H])([H])C([H])([H])N([H])C(=N[H])N([H])[H]


 75 75  0  0  0  0  0  0  0  0999 V2000
   12.5466   20.6942   -1.2230 C   0  0  0  0  0  0  0  0  0  0  0  0
   11.2763   20.7499   -0.4154 C   0  0  0  0  0  0  0  0  0  0  0  0
   11.1381   19.9078    0.5422 O   0  0  0  0  0  0  0  0  0  0  0  0
   10.2370   21.6638   -0.6457 N   0  0  0  0  0  0  0  0  0  0  0  0
   10.3897   22.3232   -1.4679 H   0  0  0  0  0  0  0  0  0  0  0  0
    9.0331   21.7605    0.1087 C   0  0  0  0  0  0  0  0  0  0  0  0
    9.3040   22.1011    1.5112 C   0  0  0  0  0  0  0  0  0  0  0  0
    9.2665   23.3406    1.8264 O   0  0  0  0  0  0  0  0  0  0  0  0
    9.6026   21.2215    2.5678 N   0  0  0  0  0  0  0  0  0  0  0  0
    9.6721   20.2126    2.4203 H   0  0  0  0  0  0  0  0  0  0  0  0
    9.8310   21.7194    3.9367 C   0  0  0  0  0  0  0  0  0  0  0  0
   10.8283   20.9305    4.6704 C   0  0  0  0  0  0  0  0  0  0  0  0
   11.3145   19.6731    4.2331 N   0  0  0  0  0  0  0  0  0  0  0  0
   11.3240   21.3951    5.7971 N   0  0  0  0  0  0  0  0  0  0  0  0
   11.3231   19.3266    3.2518 H   0  0  0  0  0  0  0  0  0  0  0  0
   11.7010   19.0187    4.9606 H   0  0  0  0  0  0  0  0  0  0  0  0
   11.0386   22.2974    6.1874 H   0  0  0  0  0  0  0  0  0  0  0  0
    8.4806   21.6556    4.5930 C   0  0  0  0  0  0  0  0  0  0  0  0
    7.8900   22.9251    4.9929 C   0  0  0  0  0  0  0  0  0  0  0  0
    8.6936   23.9498    5.4423 C   0  0  0  0  0  0  0  0  0  0  0  0
    8.1073   25.1512    5.7950 C   0  0  0  0  0  0  0  0  0  0  0  0
    6.7478   25.3430    5.7066 C   0  0  0  0  0  0  0  0  0  0  0  0
    5.9470   24.3172    5.2573 C   0  0  0  0  0  0  0  0  0  0  0  0
    6.5325   23.1249    4.9083 C   0  0  0  0  0  0  0  0  0  0  0  0
    7.9604   20.7950   -0.1744 C   0  0  0  0  0  0  0  0  0  0  0  0
    6.9429   20.5205    0.8662 C   0  0  0  0  0  0  0  0  0  0  0  0
    5.6641   20.0498    0.1550 C   0  0  0  0  0  0  0  0  0  0  0  0
    5.8203   18.8140   -0.5376 N   0  0  0  0  0  0  0  0  0  0  0  0
    5.8264   18.7330   -1.5953 H   0  0  0  0  0  0  0  0  0  0  0  0
    5.9809   17.5935    0.1776 C   0  0  0  0  0  0  0  0  0  0  0  0
    5.2091   17.2506    1.3178 N   0  0  0  0  0  0  0  0  0  0  0  0
    6.8722   16.7318   -0.2192 N   0  0  0  0  0  0  0  0  0  0  0  0
    4.9611   17.9274    2.0723 H   0  0  0  0  0  0  0  0  0  0  0  0
    4.8321   16.2723    1.4735 H   0  0  0  0  0  0  0  0  0  0  0  0
    7.0225   15.8339    0.2686 H   0  0  0  0  0  0  0  0  0  0  0  0
   12.9967   23.1281   -0.9817 C   0  0  0  0  0  0  0  0  0  0  0  0
   12.8756   23.0245    0.2600 O   0  0  0  0  0  0  0  0  0  0  0  0
   12.8451   21.9777   -1.7818 N   0  0  0  0  0  0  0  0  0  0  0  0
   12.9557   22.0695   -2.8118 H   0  0  0  0  0  0  0  0  0  0  0  0
   13.2944   24.4684   -1.5476 C   0  0  0  0  0  0  0  0  0  0  0  0
   15.1836   24.5929   -3.2183 C   0  0  0  0  0  0  0  0  0  0  0  0
   15.9818   24.9092   -2.2878 O   0  0  0  0  0  0  0  0  0  0  0  0
   13.8354   24.3620   -2.8733 N   0  0  0  0  0  0  0  0  0  0  0  0
   13.1697   24.0926   -3.6278 H   0  0  0  0  0  0  0  0  0  0  0  0
   15.7280   24.4890   -4.6014 C   0  0  0  0  0  0  0  0  0  0  0  0
   15.9413   20.6467   -4.9110 C   0  0  0  0  0  0  0  0  0  0  0  0
   15.4311   21.9908   -4.5906 C   0  0  0  0  0  0  0  0  0  0  0  0
   14.3208   22.1197   -4.0416 O   0  0  0  0  0  0  0  0  0  0  0  0
   16.1806   23.1643   -4.8941 N   0  0  0  0  0  0  0  0  0  0  0  0
   17.0829   23.0195   -5.3784 H   0  0  0  0  0  0  0  0  0  0  0  0
   14.9874   25.2352   -5.6288 C   0  0  0  0  0  0  0  0  0  0  0  0
   15.0739   26.6873   -5.7643 C   0  0  0  0  0  0  0  0  0  0  0  0
   15.4411   27.4702   -4.5554 C   0  0  0  0  0  0  0  0  0  0  0  0
   16.6927   28.2213   -4.7826 N   0  0  0  0  0  0  0  0  0  0  0  0
   16.8150   28.8063   -5.6101 H   0  0  0  0  0  0  0  0  0  0  0  0
   17.7088   28.1023   -3.8154 C   0  0  0  0  0  0  0  0  0  0  0  0
   17.6608   27.1514   -2.7626 N   0  0  0  0  0  0  0  0  0  0  0  0
   18.7205   28.8854   -3.8948 N   0  0  0  0  0  0  0  0  0  0  0  0
   18.4744   26.5563   -2.4888 H   0  0  0  0  0  0  0  0  0  0  0  0
   16.7642   27.0310   -2.2240 H   0  0  0  0  0  0  0  0  0  0  0  0
   19.4774   28.8097   -3.1897 H   0  0  0  0  0  0  0  0  0  0  0  0
   12.1841   25.4520   -1.3935 C   0  0  0  0  0  0  0  0  0  0  0  0
   12.0895   26.3610   -2.6055 C   0  0  0  0  0  0  0  0  0  0  0  0
   10.8453   24.8285   -1.1152 C   0  0  0  0  0  0  0  0  0  0  0  0
   13.6254   20.0442   -0.4495 C   0  0  0  0  0  0  0  0  0  0  0  0
   14.9999   20.6328   -0.7390 C   0  0  0  0  0  0  0  0  0  0  0  0
   15.7060   20.9706    0.5554 C   0  0  0  0  0  0  0  0  0  0  0  0
   15.3469   22.2716    1.0641 N   0  0  0  0  0  0  0  0  0  0  0  0
   14.4705   22.4022    1.6077 H   0  0  0  0  0  0  0  0  0  0  0  0
   16.1675   23.4019    0.8382 C   0  0  0  0  0  0  0  0  0  0  0  0
   17.5741   23.2659    0.9759 N   0  0  0  0  0  0  0  0  0  0  0  0
   15.6378   24.5202    0.5156 N   0  0  0  0  0  0  0  0  0  0  0  0
   18.0825   24.0349    1.4625 H   0  0  0  0  0  0  0  0  0  0  0  0
   18.1270   22.4545    0.6266 H   0  0  0  0  0  0  0  0  0  0  0  0
   16.2606   25.3400    0.3544 H   0  0  0  0  0  0  0  0  0  0  0  0
 46 47  1  0  0  0
 47 48  2  0  0  0
 47 49  1  0  0  0
 49 45  1  0  0  0
 45 51  1  0  0  0
 51 52  1  0  0  0
 52 53  1  0  0  0
 53 54  1  0  0  0
 54 56  1  0  0  0
 56 57  1  0  0  0
 56 58  2  0  0  0
 45 41  1  0  0  0
 41 42  2  0  0  0
 41 43  1  0  0  0
 43 40  1  0  0  0
 40 62  1  0  0  0
 62 63  1  0  0  0
 62 64  1  0  0  0
 40 36  1  0  0  0
 36 37  2  0  0  0
 36 38  1  0  0  0
 38  1  1  0  0  0
  1 65  1  0  0  0
 65 66  1  0  0  0
 66 67  1  0  0  0
 67 68  1  0  0  0
 68 70  1  0  0  0
 70 71  1  0  0  0
 70 72  2  0  0  0
  1  2  1  0  0  0
  2  3  2  0  0  0
  2  4  1  0  0  0
  4  6  1  0  0  0
  6 25  1  0  0  0
 25 26  1  0  0  0
 26 27  1  0  0  0
 27 28  1  0  0  0
 28 30  1  0  0  0
 30 31  1  0  0  0
 30 32  2  0  0  0
  6  7  1  0  0  0
  7  8  2  0  0  0
  7  9  1  0  0  0
  9 11  1  0  0  0
 11 18  1  0  0  0
 18 19  1  0  0  0
 19 20  2  0  0  0
 20 21  1  0  0  0
 21 22  2  0  0  0
 22 23  1  0  0  0
 23 24  2  0  0  0
 11 12  1  0  0  0
 12 13  1  0  0  0
 12 14  2  0  0  0
 24 19  1  0  0  0
 49 50  1  0  0  0
 54 55  1  0  0  0
 57 59  1  0  0  0
 57 60  1  0  0  0
 58 61  1  0  0  0
 43 44  1  0  0  0
 38 39  1  0  0  0
 68 69  1  0  0  0
 71 73  1  0  0  0
 71 74  1  0  0  0
 72 75  1  0  0  0
  4  5  1  0  0  0
 28 29  1  0  0  0
 31 33  1  0  0  0
 31 34  1  0  0  0
 32 35  1  0  0  0
  9 10  1  0  0  0
 13 15  1  0  0  0
 13 16  1  0  0  0
 14 17  1  0  0  0
M  END
> <minimizedAffinity>
-2.72512

> <CNNscore>
0.3557672799

> <CNNaffinity>
7.9025688171

> <CNN_VS>
2.8114755154

> <CNNaffinity_variance>
0.0913569331

$$$$
[H]N=C(N([H])[H])N([H])C([H])([H])C([H])([H])C([H])([H])[C@@]([H])(C(=O)N([H])[C@]([H])(C(=N[H])N([H])[H])C([H])([H])c1c([H])c([H])c([H])c([H])c1[H])N([H])C(=O)[C@@]([H])(N([H])C(=O)[C@@]([H])(N([H])C(=O)[C@@]([H])(N([H])C(=O)C([H])([H])[H])C([H])([H])C([H])([H])C([H])([H])N([H])C(=N[H])N([H])[H])C([H])(C([H])([H])[H])C([H])([H])[H])C([H])([H])C([H])([H])C([H])([H])N([H])C(=N[H])N([H])[H]


 75 75  0  0  0  0  0  0  0  0999 V2000
   12.3983   25.3370   -1.5543 C   0  0  0  0  0  0  0  0  0  0  0  0
   11.1135   24.6667   -1.1430 C   0  0  0  0  0  0  0  0  0  0  0  0
   10.2860   24.3401   -2.0671 O   0  0  0  0  0  0  0  0  0  0  0  0
   10.7668   24.3785    0.1855 N   0  0  0  0  0  0  0  0  0  0  0  0
   11.4755   24.6931    0.9154 H   0  0  0  0  0  0  0  0  0  0  0  0
    9.5734   23.7279    0.6103 C   0  0  0  0  0  0  0  0  0  0  0  0
    9.2346   24.0782    1.9956 C   0  0  0  0  0  0  0  0  0  0  0  0
   10.1829   24.0398    2.8538 O   0  0  0  0  0  0  0  0  0  0  0  0
    7.9792   24.4580    2.5044 N   0  0  0  0  0  0  0  0  0  0  0  0
    7.1519   24.5055    1.9062 H   0  0  0  0  0  0  0  0  0  0  0  0
    7.8023   24.8023    3.9271 C   0  0  0  0  0  0  0  0  0  0  0  0
    7.9170   23.6376    4.8133 C   0  0  0  0  0  0  0  0  0  0  0  0
    9.0434   23.3808    5.6343 N   0  0  0  0  0  0  0  0  0  0  0  0
    6.9305   22.7695    4.8771 N   0  0  0  0  0  0  0  0  0  0  0  0
    9.7228   24.0883    5.9820 H   0  0  0  0  0  0  0  0  0  0  0  0
    9.2217   22.3845    5.9216 H   0  0  0  0  0  0  0  0  0  0  0  0
    6.0741   22.8758    4.3264 H   0  0  0  0  0  0  0  0  0  0  0  0
    6.4354   25.4224    3.9994 C   0  0  0  0  0  0  0  0  0  0  0  0
    6.3643   26.8657    3.8201 C   0  0  0  0  0  0  0  0  0  0  0  0
    7.0643   27.4702    2.7992 C   0  0  0  0  0  0  0  0  0  0  0  0
    6.9612   28.8397    2.6397 C   0  0  0  0  0  0  0  0  0  0  0  0
    6.1792   29.6054    3.4735 C   0  0  0  0  0  0  0  0  0  0  0  0
    5.4808   28.9986    4.4931 C   0  0  0  0  0  0  0  0  0  0  0  0
    5.5859   27.6382    4.6490 C   0  0  0  0  0  0  0  0  0  0  0  0
    9.3476   22.3423    0.1717 C   0  0  0  0  0  0  0  0  0  0  0  0
    8.3836   21.4980    0.9142 C   0  0  0  0  0  0  0  0  0  0  0  0
    7.0260   21.6036    0.2011 C   0  0  0  0  0  0  0  0  0  0  0  0
    6.4175   20.3403   -0.0541 N   0  0  0  0  0  0  0  0  0  0  0  0
    5.9166   19.7718    0.6883 H   0  0  0  0  0  0  0  0  0  0  0  0
    6.4535   19.7642   -1.3555 C   0  0  0  0  0  0  0  0  0  0  0  0
    5.6497   18.6608   -1.7424 N   0  0  0  0  0  0  0  0  0  0  0  0
    7.2542   20.2614   -2.2534 N   0  0  0  0  0  0  0  0  0  0  0  0
    5.4699   17.8345   -1.1309 H   0  0  0  0  0  0  0  0  0  0  0  0
    5.1760   18.6092   -2.6892 H   0  0  0  0  0  0  0  0  0  0  0  0
    7.3128   19.8759   -3.2098 H   0  0  0  0  0  0  0  0  0  0  0  0
   14.0736   25.0097    0.2542 C   0  0  0  0  0  0  0  0  0  0  0  0
   13.5548   25.9478    0.9006 O   0  0  0  0  0  0  0  0  0  0  0  0
   13.5246   24.6540   -0.9943 N   0  0  0  0  0  0  0  0  0  0  0  0
   13.9552   23.8680   -1.5218 H   0  0  0  0  0  0  0  0  0  0  0  0
   15.2489   24.3187    0.8428 C   0  0  0  0  0  0  0  0  0  0  0  0
   13.9142   22.1915    1.1070 C   0  0  0  0  0  0  0  0  0  0  0  0
   12.9095   22.8706    1.4706 O   0  0  0  0  0  0  0  0  0  0  0  0
   15.0946   22.8925    0.7824 N   0  0  0  0  0  0  0  0  0  0  0  0
   15.9262   22.3467    0.4734 H   0  0  0  0  0  0  0  0  0  0  0  0
   13.7729   20.7094    1.0498 C   0  0  0  0  0  0  0  0  0  0  0  0
   11.7508   19.2404    3.9921 C   0  0  0  0  0  0  0  0  0  0  0  0
   12.0759   19.7988    2.6686 C   0  0  0  0  0  0  0  0  0  0  0  0
   11.1750   19.9625    1.8246 O   0  0  0  0  0  0  0  0  0  0  0  0
   13.4090   20.1629    2.3203 N   0  0  0  0  0  0  0  0  0  0  0  0
   14.1349   19.9830    3.0349 H   0  0  0  0  0  0  0  0  0  0  0  0
   13.1341   20.1828   -0.1649 C   0  0  0  0  0  0  0  0  0  0  0  0
   13.0716   20.9385   -1.4136 C   0  0  0  0  0  0  0  0  0  0  0  0
   14.3010   20.9921   -2.2472 C   0  0  0  0  0  0  0  0  0  0  0  0
   14.6196   22.3870   -2.6148 N   0  0  0  0  0  0  0  0  0  0  0  0
   14.5078   23.1488   -1.9447 H   0  0  0  0  0  0  0  0  0  0  0  0
   15.0850   22.6263   -3.9218 C   0  0  0  0  0  0  0  0  0  0  0  0
   15.1221   21.6192   -4.9214 N   0  0  0  0  0  0  0  0  0  0  0  0
   15.4878   23.8064   -4.2188 N   0  0  0  0  0  0  0  0  0  0  0  0
   14.7917   21.7697   -5.9008 H   0  0  0  0  0  0  0  0  0  0  0  0
   15.4993   20.6679   -4.6737 H   0  0  0  0  0  0  0  0  0  0  0  0
   15.8333   23.9984   -5.1777 H   0  0  0  0  0  0  0  0  0  0  0  0
   16.5613   24.8350    0.3581 C   0  0  0  0  0  0  0  0  0  0  0  0
   17.6961   23.9186    0.7785 C   0  0  0  0  0  0  0  0  0  0  0  0
   16.6180   25.0733   -1.1247 C   0  0  0  0  0  0  0  0  0  0  0  0
   12.4221   25.5616   -3.0150 C   0  0  0  0  0  0  0  0  0  0  0  0
   12.9806   26.9265   -3.3958 C   0  0  0  0  0  0  0  0  0  0  0  0
   13.9877   26.7841   -4.5155 C   0  0  0  0  0  0  0  0  0  0  0  0
   15.3516   26.8528   -4.0516 N   0  0  0  0  0  0  0  0  0  0  0  0
   15.7196   26.1425   -3.3878 H   0  0  0  0  0  0  0  0  0  0  0  0
   16.2229   27.8824   -4.4789 C   0  0  0  0  0  0  0  0  0  0  0  0
   17.4638   28.0516   -3.8097 N   0  0  0  0  0  0  0  0  0  0  0  0
   15.8861   28.6395   -5.4528 N   0  0  0  0  0  0  0  0  0  0  0  0
   17.7635   29.0277   -3.5999 H   0  0  0  0  0  0  0  0  0  0  0  0
   18.0887   27.2711   -3.5160 H   0  0  0  0  0  0  0  0  0  0  0  0
   16.5426   29.3919   -5.7510 H   0  0  0  0  0  0  0  0  0  0  0  0
 46 47  1  0  0  0
 47 48  2  0  0  0
 47 49  1  0  0  0
 49 45  1  0  0  0
 45 51  1  0  0  0
 51 52  1  0  0  0
 52 53  1  0  0  0
 53 54  1  0  0  0
 54 56  1  0  0  0
 56 57  1  0  0  0
 56 58  2  0  0  0
 45 41  1  0  0  0
 41 42  2  0  0  0
 41 43  1  0  0  0
 43 40  1  0  0  0
 40 62  1  0  0  0
 62 63  1  0  0  0
 62 64  1  0  0  0
 40 36  1  0  0  0
 36 37  2  0  0  0
 36 38  1  0  0  0
 38  1  1  0  0  0
  1 65  1  0  0  0
 65 66  1  0  0  0
 66 67  1  0  0  0
 67 68  1  0  0  0
 68 70  1  0  0  0
 70 71  1  0  0  0
 70 72  2  0  0  0
  1  2  1  0  0  0
  2  3  2  0  0  0
  2  4  1  0  0  0
  4  6  1  0  0  0
  6 25  1  0  0  0
 25 26  1  0  0  0
 26 27  1  0  0  0
 27 28  1  0  0  0
 28 30  1  0  0  0
 30 31  1  0  0  0
 30 32  2  0  0  0
  6  7  1  0  0  0
  7  8  2  0  0  0
  7  9  1  0  0  0
  9 11  1  0  0  0
 11 18  1  0  0  0
 18 19  1  0  0  0
 19 20  2  0  0  0
 20 21  1  0  0  0
 21 22  2  0  0  0
 22 23  1  0  0  0
 23 24  2  0  0  0
 11 12  1  0  0  0
 12 13  1  0  0  0
 12 14  2  0  0  0
 24 19  1  0  0  0
 49 50  1  0  0  0
 54 55  1  0  0  0
 57 59  1  0  0  0
 57 60  1  0  0  0
 58 61  1  0  0  0
 43 44  1  0  0  0
 38 39  1  0  0  0
 68 69  1  0  0  0
 71 73  1  0  0  0
 71 74  1  0  0  0
 72 75  1  0  0  0
  4  5  1  0  0  0
 28 29  1  0  0  0
 31 33  1  0  0  0
 31 34  1  0  0  0
 32 35  1  0  0  0
  9 10  1  0  0  0
 13 15  1  0  0  0
 13 16  1  0  0  0
 14 17  1  0  0  0
M  END
> <minimizedAffinity>
-6.01398

> <CNNscore>
0.3467340469

> <CNNaffinity>
7.9683976173

> <CNN_VS>
2.7629146576

> <CNNaffinity_variance>
0.7272804976

$$$$
[H]N=C(N([H])[H])N([H])C([H])([H])C([H])([H])C([H])([H])[C@@]([H])(C(=O)N([H])[C@]([H])(C(=N[H])N([H])[H])C([H])([H])c1c([H])c([H])c([H])c([H])c1[H])N([H])C(=O)[C@@]([H])(N([H])C(=O)[C@@]([H])(N([H])C(=O)[C@@]([H])(N([H])C(=O)C([H])([H])[H])C([H])([H])C([H])([H])C([H])([H])N([H])C(=N[H])N([H])[H])C([H])(C([H])([H])[H])C([H])([H])[H])C([H])([H])C([H])([H])C([H])([H])N([H])C(=N[H])N([H])[H]


 75 75  0  0  0  0  0  0  0  0999 V2000
   11.7665   21.0959   -1.0048 C   0  0  0  0  0  0  0  0  0  0  0  0
   10.4295   20.6820   -0.4478 C   0  0  0  0  0  0  0  0  0  0  0  0
   10.2476   19.4390   -0.1887 O   0  0  0  0  0  0  0  0  0  0  0  0
    9.3732   21.5702   -0.1958 N   0  0  0  0  0  0  0  0  0  0  0  0
    9.5662   22.5856   -0.4523 H   0  0  0  0  0  0  0  0  0  0  0  0
    8.1051   21.2198    0.3493 C   0  0  0  0  0  0  0  0  0  0  0  0
    8.0563   21.4642    1.7965 C   0  0  0  0  0  0  0  0  0  0  0  0
    9.1172   21.2107    2.4652 O   0  0  0  0  0  0  0  0  0  0  0  0
    6.9731   21.9512    2.5506 N   0  0  0  0  0  0  0  0  0  0  0  0
    6.0745   22.1703    2.1158 H   0  0  0  0  0  0  0  0  0  0  0  0
    7.0875   22.1643    4.0050 C   0  0  0  0  0  0  0  0  0  0  0  0
    6.4431   21.1031    4.7884 C   0  0  0  0  0  0  0  0  0  0  0  0
    7.1278   19.9676    5.2888 N   0  0  0  0  0  0  0  0  0  0  0  0
    5.1597   21.1873    5.0653 N   0  0  0  0  0  0  0  0  0  0  0  0
    8.1486   19.9025    5.4811 H   0  0  0  0  0  0  0  0  0  0  0  0
    6.5619   19.1022    5.4835 H   0  0  0  0  0  0  0  0  0  0  0  0
    4.5848   21.9745    4.7524 H   0  0  0  0  0  0  0  0  0  0  0  0
    6.4421   23.5003    4.2437 C   0  0  0  0  0  0  0  0  0  0  0  0
    7.3280   24.6554    4.2759 C   0  0  0  0  0  0  0  0  0  0  0  0
    7.7146   25.2624    3.1011 C   0  0  0  0  0  0  0  0  0  0  0  0
    8.5393   26.3704    3.1631 C   0  0  0  0  0  0  0  0  0  0  0  0
    8.9782   26.8757    4.3652 C   0  0  0  0  0  0  0  0  0  0  0  0
    8.5904   26.2670    5.5377 C   0  0  0  0  0  0  0  0  0  0  0  0
    7.7717   25.1663    5.4725 C   0  0  0  0  0  0  0  0  0  0  0  0
    7.4363   20.0184   -0.1727 C   0  0  0  0  0  0  0  0  0  0  0  0
    6.1711   20.1669   -0.9281 C   0  0  0  0  0  0  0  0  0  0  0  0
    6.1563   19.0934   -2.0282 C   0  0  0  0  0  0  0  0  0  0  0  0
    6.6100   17.8174   -1.5840 N   0  0  0  0  0  0  0  0  0  0  0  0
    7.5611   17.4168   -1.8296 H   0  0  0  0  0  0  0  0  0  0  0  0
    5.7848   16.9955   -0.7652 C   0  0  0  0  0  0  0  0  0  0  0  0
    6.0812   16.6971    0.5899 N   0  0  0  0  0  0  0  0  0  0  0  0
    4.6959   16.4846   -1.2630 N   0  0  0  0  0  0  0  0  0  0  0  0
    7.0404   16.4758    0.9362 H   0  0  0  0  0  0  0  0  0  0  0  0
    5.3354   16.6815    1.3429 H   0  0  0  0  0  0  0  0  0  0  0  0
    4.0674   15.8835   -0.7058 H   0  0  0  0  0  0  0  0  0  0  0  0
   12.8143   23.2560   -1.6534 C   0  0  0  0  0  0  0  0  0  0  0  0
   13.3741   22.6909   -2.6200 O   0  0  0  0  0  0  0  0  0  0  0  0
   11.9840   22.4964   -0.8048 N   0  0  0  0  0  0  0  0  0  0  0  0
   11.5151   22.9742   -0.0089 H   0  0  0  0  0  0  0  0  0  0  0  0
   13.0592   24.7068   -1.4519 C   0  0  0  0  0  0  0  0  0  0  0  0
   14.6554   25.5950   -3.1952 C   0  0  0  0  0  0  0  0  0  0  0  0
   15.6340   25.1933   -2.4996 O   0  0  0  0  0  0  0  0  0  0  0  0
   13.3573   25.3590   -2.6957 N   0  0  0  0  0  0  0  0  0  0  0  0
   12.5429   25.6766   -3.2620 H   0  0  0  0  0  0  0  0  0  0  0  0
   14.9490   26.2833   -4.4835 C   0  0  0  0  0  0  0  0  0  0  0  0
   15.9382   24.7326   -7.8778 C   0  0  0  0  0  0  0  0  0  0  0  0
   15.6712   25.7323   -6.8297 C   0  0  0  0  0  0  0  0  0  0  0  0
   15.8367   26.9431   -7.0689 O   0  0  0  0  0  0  0  0  0  0  0  0
   15.2225   25.3501   -5.5321 N   0  0  0  0  0  0  0  0  0  0  0  0
   15.1272   24.3345   -5.3608 H   0  0  0  0  0  0  0  0  0  0  0  0
   14.1190   27.4615   -4.7730 C   0  0  0  0  0  0  0  0  0  0  0  0
   14.5245   28.8186   -4.4149 C   0  0  0  0  0  0  0  0  0  0  0  0
   15.8024   28.9815   -3.6737 C   0  0  0  0  0  0  0  0  0  0  0  0
   16.9309   28.4387   -4.4574 N   0  0  0  0  0  0  0  0  0  0  0  0
   16.9098   28.4300   -5.4778 H   0  0  0  0  0  0  0  0  0  0  0  0
   18.0367   27.9364   -3.7453 C   0  0  0  0  0  0  0  0  0  0  0  0
   19.3787   28.2369   -4.0968 N   0  0  0  0  0  0  0  0  0  0  0  0
   17.8178   27.1787   -2.7348 N   0  0  0  0  0  0  0  0  0  0  0  0
   20.1067   28.5127   -3.4004 H   0  0  0  0  0  0  0  0  0  0  0  0
   19.6658   28.1830   -5.1084 H   0  0  0  0  0  0  0  0  0  0  0  0
   18.6221   26.8010   -2.2000 H   0  0  0  0  0  0  0  0  0  0  0  0
   12.0300   25.3845   -0.6119 C   0  0  0  0  0  0  0  0  0  0  0  0
   10.6886   24.6827   -0.7221 C   0  0  0  0  0  0  0  0  0  0  0  0
   12.4150   25.5295    0.8335 C   0  0  0  0  0  0  0  0  0  0  0  0
   12.8310   20.1881   -0.5281 C   0  0  0  0  0  0  0  0  0  0  0  0
   14.2299   20.6828   -0.8719 C   0  0  0  0  0  0  0  0  0  0  0  0
   14.8945   21.2633    0.3568 C   0  0  0  0  0  0  0  0  0  0  0  0
   14.8339   22.7038    0.3961 N   0  0  0  0  0  0  0  0  0  0  0  0
   13.9496   23.2011    0.1696 H   0  0  0  0  0  0  0  0  0  0  0  0
   15.9673   23.4786    0.7380 C   0  0  0  0  0  0  0  0  0  0  0  0
   16.0573   24.8110    0.2553 N   0  0  0  0  0  0  0  0  0  0  0  0
   16.8868   22.9750    1.4702 N   0  0  0  0  0  0  0  0  0  0  0  0
   16.9849   25.1286   -0.0987 H   0  0  0  0  0  0  0  0  0  0  0  0
   15.2639   25.4862    0.2309 H   0  0  0  0  0  0  0  0  0  0  0  0
   17.7132   23.5630    1.7094 H   0  0  0  0  0  0  0  0  0  0  0  0
 46 47  1  0  0  0
 47 48  2  0  0  0
 47 49  1  0  0  0
 49 45  1  0  0  0
 45 51  1  0  0  0
 51 52  1  0  0  0
 52 53  1  0  0  0
 53 54  1  0  0  0
 54 56  1  0  0  0
 56 57  1  0  0  0
 56 58  2  0  0  0
 45 41  1  0  0  0
 41 42  2  0  0  0
 41 43  1  0  0  0
 43 40  1  0  0  0
 40 62  1  0  0  0
 62 63  1  0  0  0
 62 64  1  0  0  0
 40 36  1  0  0  0
 36 37  2  0  0  0
 36 38  1  0  0  0
 38  1  1  0  0  0
  1 65  1  0  0  0
 65 66  1  0  0  0
 66 67  1  0  0  0
 67 68  1  0  0  0
 68 70  1  0  0  0
 70 71  1  0  0  0
 70 72  2  0  0  0
  1  2  1  0  0  0
  2  3  2  0  0  0
  2  4  1  0  0  0
  4  6  1  0  0  0
  6 25  1  0  0  0
 25 26  1  0  0  0
 26 27  1  0  0  0
 27 28  1  0  0  0
 28 30  1  0  0  0
 30 31  1  0  0  0
 30 32  2  0  0  0
  6  7  1  0  0  0
  7  8  2  0  0  0
  7  9  1  0  0  0
  9 11  1  0  0  0
 11 18  1  0  0  0
 18 19  1  0  0  0
 19 20  2  0  0  0
 20 21  1  0  0  0
 21 22  2  0  0  0
 22 23  1  0  0  0
 23 24  2  0  0  0
 11 12  1  0  0  0
 12 13  1  0  0  0
 12 14  2  0  0  0
 24 19  1  0  0  0
 49 50  1  0  0  0
 54 55  1  0  0  0
 57 59  1  0  0  0
 57 60  1  0  0  0
 58 61  1  0  0  0
 43 44  1  0  0  0
 38 39  1  0  0  0
 68 69  1  0  0  0
 71 73  1  0  0  0
 71 74  1  0  0  0
 72 75  1  0  0  0
  4  5  1  0  0  0
 28 29  1  0  0  0
 31 33  1  0  0  0
 31 34  1  0  0  0
 32 35  1  0  0  0
  9 10  1  0  0  0
 13 15  1  0  0  0
 13 16  1  0  0  0
 14 17  1  0  0  0
M  END
> <minimizedAffinity>
-3.54928

> <CNNscore>
0.3422694802

> <CNNaffinity>
7.7134261131

> <CNN_VS>
2.6400704384

> <CNNaffinity_variance>
0.0809411332

$$$$
[H]N=C(N([H])[H])N([H])C([H])([H])C([H])([H])C([H])([H])[C@@]([H])(C(=O)N([H])[C@]([H])(C(=N[H])N([H])[H])C([H])([H])c1c([H])c([H])c([H])c([H])c1[H])N([H])C(=O)[C@@]([H])(N([H])C(=O)[C@@]([H])(N([H])C(=O)[C@@]([H])(N([H])C(=O)C([H])([H])[H])C([H])([H])C([H])([H])C([H])([H])N([H])C(=N[H])N([H])[H])C([H])(C([H])([H])[H])C([H])([H])[H])C([H])([H])C([H])([H])C([H])([H])N([H])C(=N[H])N([H])[H]


 75 75  0  0  0  0  0  0  0  0999 V2000
   11.2406   22.4330    1.7706 C   0  0  0  0  0  0  0  0  0  0  0  0
   12.0478   23.2624    0.8063 C   0  0  0  0  0  0  0  0  0  0  0  0
   11.4725   23.6594   -0.2692 O   0  0  0  0  0  0  0  0  0  0  0  0
   13.3871   23.6262    1.0113 N   0  0  0  0  0  0  0  0  0  0  0  0
   13.8253   23.2498    1.9060 H   0  0  0  0  0  0  0  0  0  0  0  0
   14.1745   24.4255    0.1345 C   0  0  0  0  0  0  0  0  0  0  0  0
   14.4330   23.7348   -1.1354 C   0  0  0  0  0  0  0  0  0  0  0  0
   15.3430   22.8354   -1.1336 O   0  0  0  0  0  0  0  0  0  0  0  0
   13.7943   23.9404   -2.3720 N   0  0  0  0  0  0  0  0  0  0  0  0
   13.0638   24.6460   -2.4857 H   0  0  0  0  0  0  0  0  0  0  0  0
   14.1544   23.1460   -3.5607 C   0  0  0  0  0  0  0  0  0  0  0  0
   14.3912   21.7310   -3.2496 C   0  0  0  0  0  0  0  0  0  0  0  0
   13.6170   20.9882   -2.3235 N   0  0  0  0  0  0  0  0  0  0  0  0
   15.3649   21.0861   -3.8554 N   0  0  0  0  0  0  0  0  0  0  0  0
   12.6396   21.1978   -2.0340 H   0  0  0  0  0  0  0  0  0  0  0  0
   14.0637   20.1466   -1.8773 H   0  0  0  0  0  0  0  0  0  0  0  0
   15.9718   21.5379   -4.5450 H   0  0  0  0  0  0  0  0  0  0  0  0
   15.3900   23.8101   -4.0998 C   0  0  0  0  0  0  0  0  0  0  0  0
   15.1846   24.9483   -4.9845 C   0  0  0  0  0  0  0  0  0  0  0  0
   14.4234   26.0184   -4.5681 C   0  0  0  0  0  0  0  0  0  0  0  0
   14.2631   27.0946   -5.4211 C   0  0  0  0  0  0  0  0  0  0  0  0
   14.8443   27.1187   -6.6679 C   0  0  0  0  0  0  0  0  0  0  0  0
   15.6044   26.0478   -7.0816 C   0  0  0  0  0  0  0  0  0  0  0  0
   15.7611   24.9802   -6.2320 C   0  0  0  0  0  0  0  0  0  0  0  0
   15.2590   25.2294    0.7184 C   0  0  0  0  0  0  0  0  0  0  0  0
   16.5198   25.4002   -0.0397 C   0  0  0  0  0  0  0  0  0  0  0  0
   16.1806   26.1291   -1.3499 C   0  0  0  0  0  0  0  0  0  0  0  0
   17.3135   26.3557   -2.1846 N   0  0  0  0  0  0  0  0  0  0  0  0
   18.1629   25.7205   -2.2028 H   0  0  0  0  0  0  0  0  0  0  0  0
   17.3605   27.4777   -3.0597 C   0  0  0  0  0  0  0  0  0  0  0  0
   17.7086   27.3822   -4.4319 N   0  0  0  0  0  0  0  0  0  0  0  0
   17.0693   28.6602   -2.6002 N   0  0  0  0  0  0  0  0  0  0  0  0
   18.4801   26.7786   -4.7916 H   0  0  0  0  0  0  0  0  0  0  0  0
   17.1979   27.9256   -5.1852 H   0  0  0  0  0  0  0  0  0  0  0  0
   17.0897   29.5017   -3.1988 H   0  0  0  0  0  0  0  0  0  0  0  0
    9.3207   23.3479    3.0597 C   0  0  0  0  0  0  0  0  0  0  0  0
   10.0108   23.3171    4.1037 O   0  0  0  0  0  0  0  0  0  0  0  0
    9.8955   22.9161    1.8473 N   0  0  0  0  0  0  0  0  0  0  0  0
    9.3193   22.9527    0.9823 H   0  0  0  0  0  0  0  0  0  0  0  0
    7.9232   23.8403    3.1574 C   0  0  0  0  0  0  0  0  0  0  0  0
    7.1387   21.4445    3.3009 C   0  0  0  0  0  0  0  0  0  0  0  0
    8.1810   21.1455    3.9544 O   0  0  0  0  0  0  0  0  0  0  0  0
    6.9836   22.7867    2.8953 N   0  0  0  0  0  0  0  0  0  0  0  0
    6.1265   23.0483    2.3644 H   0  0  0  0  0  0  0  0  0  0  0  0
    6.1593   20.3595    3.0118 C   0  0  0  0  0  0  0  0  0  0  0  0
    5.4231   17.4105    5.3921 C   0  0  0  0  0  0  0  0  0  0  0  0
    5.7234   18.1658    4.1638 C   0  0  0  0  0  0  0  0  0  0  0  0
    5.8548   17.5650    3.0810 O   0  0  0  0  0  0  0  0  0  0  0  0
    5.8696   19.5834    4.1775 N   0  0  0  0  0  0  0  0  0  0  0  0
    5.7852   20.0440    5.0998 H   0  0  0  0  0  0  0  0  0  0  0  0
    5.0617   20.7254    2.1050 C   0  0  0  0  0  0  0  0  0  0  0  0
    5.1027   20.4572    0.6694 C   0  0  0  0  0  0  0  0  0  0  0  0
    5.9223   21.3637   -0.1764 C   0  0  0  0  0  0  0  0  0  0  0  0
    5.7041   21.0770   -1.6090 N   0  0  0  0  0  0  0  0  0  0  0  0
    5.0314   21.6129   -2.1587 H   0  0  0  0  0  0  0  0  0  0  0  0
    6.4591   20.0394   -2.1883 C   0  0  0  0  0  0  0  0  0  0  0  0
    7.8484   20.1560   -2.4553 N   0  0  0  0  0  0  0  0  0  0  0  0
    5.8636   18.9430   -2.4821 N   0  0  0  0  0  0  0  0  0  0  0  0
    8.5423   19.4108   -2.2226 H   0  0  0  0  0  0  0  0  0  0  0  0
    8.2088   21.0345   -2.9102 H   0  0  0  0  0  0  0  0  0  0  0  0
    6.4064   18.1693   -2.9093 H   0  0  0  0  0  0  0  0  0  0  0  0
    7.6478   24.6444    4.3828 C   0  0  0  0  0  0  0  0  0  0  0  0
    8.2775   26.0220    4.2833 C   0  0  0  0  0  0  0  0  0  0  0  0
    6.1887   24.7713    4.7192 C   0  0  0  0  0  0  0  0  0  0  0  0
   11.4093   20.9928    1.4841 C   0  0  0  0  0  0  0  0  0  0  0  0
   12.4334   20.3239    2.3914 C   0  0  0  0  0  0  0  0  0  0  0  0
   11.7635   19.2721    3.2477 C   0  0  0  0  0  0  0  0  0  0  0  0
   11.8351   19.5711    4.6569 N   0  0  0  0  0  0  0  0  0  0  0  0
   12.7460   19.5416    5.1570 H   0  0  0  0  0  0  0  0  0  0  0  0
   10.6772   19.9076    5.3972 C   0  0  0  0  0  0  0  0  0  0  0  0
    9.7259   18.8922    5.6803 N   0  0  0  0  0  0  0  0  0  0  0  0
   10.5039   21.1093    5.7986 N   0  0  0  0  0  0  0  0  0  0  0  0
    8.7185   19.1410    5.5807 H   0  0  0  0  0  0  0  0  0  0  0  0
    9.9661   17.9227    5.9773 H   0  0  0  0  0  0  0  0  0  0  0  0
    9.6438   21.3354    6.3418 H   0  0  0  0  0  0  0  0  0  0  0  0
 46 47  1  0  0  0
 47 48  2  0  0  0
 47 49  1  0  0  0
 49 45  1  0  0  0
 45 51  1  0  0  0
 51 52  1  0  0  0
 52 53  1  0  0  0
 53 54  1  0  0  0
 54 56  1  0  0  0
 56 57  1  0  0  0
 56 58  2  0  0  0
 45 41  1  0  0  0
 41 42  2  0  0  0
 41 43  1  0  0  0
 43 40  1  0  0  0
 40 62  1  0  0  0
 62 63  1  0  0  0
 62 64  1  0  0  0
 40 36  1  0  0  0
 36 37  2  0  0  0
 36 38  1  0  0  0
 38  1  1  0  0  0
  1 65  1  0  0  0
 65 66  1  0  0  0
 66 67  1  0  0  0
 67 68  1  0  0  0
 68 70  1  0  0  0
 70 71  1  0  0  0
 70 72  2  0  0  0
  1  2  1  0  0  0
  2  3  2  0  0  0
  2  4  1  0  0  0
  4  6  1  0  0  0
  6 25  1  0  0  0
 25 26  1  0  0  0
 26 27  1  0  0  0
 27 28  1  0  0  0
 28 30  1  0  0  0
 30 31  1  0  0  0
 30 32  2  0  0  0
  6  7  1  0  0  0
  7  8  2  0  0  0
  7  9  1  0  0  0
  9 11  1  0  0  0
 11 18  1  0  0  0
 18 19  1  0  0  0
 19 20  2  0  0  0
 20 21  1  0  0  0
 21 22  2  0  0  0
 22 23  1  0  0  0
 23 24  2  0  0  0
 11 12  1  0  0  0
 12 13  1  0  0  0
 12 14  2  0  0  0
 24 19  1  0  0  0
 49 50  1  0  0  0
 54 55  1  0  0  0
 57 59  1  0  0  0
 57 60  1  0  0  0
 58 61  1  0  0  0
 43 44  1  0  0  0
 38 39  1  0  0  0
 68 69  1  0  0  0
 71 73  1  0  0  0
 71 74  1  0  0  0
 72 75  1  0  0  0
  4  5  1  0  0  0
 28 29  1  0  0  0
 31 33  1  0  0  0
 31 34  1  0  0  0
 32 35  1  0  0  0
  9 10  1  0  0  0
 13 15  1  0  0  0
 13 16  1  0  0  0
 14 17  1  0  0  0
M  END
> <minimizedAffinity>
-3.83886

> <CNNscore>
0.3322449327

> <CNNaffinity>
7.2323732376

> <CNN_VS>
2.4029192924

> <CNNaffinity_variance>
0.2875056267

$$$$
[H]N=C(N([H])[H])N([H])C([H])([H])C([H])([H])C([H])([H])[C@@]([H])(C(=O)N([H])[C@]([H])(C(=N[H])N([H])[H])C([H])([H])c1c([H])c([H])c([H])c([H])c1[H])N([H])C(=O)[C@@]([H])(N([H])C(=O)[C@@]([H])(N([H])C(=O)[C@@]([H])(N([H])C(=O)C([H])([H])[H])C([H])([H])C([H])([H])C([H])([H])N([H])C(=N[H])N([H])[H])C([H])(C([H])([H])[H])C([H])([H])[H])C([H])([H])C([H])([H])C([H])([H])N([H])C(=N[H])N([H])[H]


 75 75  0  0  0  0  0  0  0  0999 V2000
   12.1341   23.5955   -0.0722 C   0  0  0  0  0  0  0  0  0  0  0  0
   13.6251   23.6656   -0.2743 C   0  0  0  0  0  0  0  0  0  0  0  0
   14.1489   22.8825   -1.1448 O   0  0  0  0  0  0  0  0  0  0  0  0
   14.4746   24.5324    0.4295 N   0  0  0  0  0  0  0  0  0  0  0  0
   13.9940   25.1424    1.1582 H   0  0  0  0  0  0  0  0  0  0  0  0
   15.8831   24.6420    0.2508 C   0  0  0  0  0  0  0  0  0  0  0  0
   16.2200   25.0685   -1.1134 C   0  0  0  0  0  0  0  0  0  0  0  0
   16.1259   24.1888   -2.0377 O   0  0  0  0  0  0  0  0  0  0  0  0
   16.6381   26.3430   -1.5377 N   0  0  0  0  0  0  0  0  0  0  0  0
   16.7604   27.1131   -0.8770 H   0  0  0  0  0  0  0  0  0  0  0  0
   16.9209   26.6224   -2.9575 C   0  0  0  0  0  0  0  0  0  0  0  0
   17.6184   27.8984   -3.1587 C   0  0  0  0  0  0  0  0  0  0  0  0
   18.9580   28.0009   -3.6097 N   0  0  0  0  0  0  0  0  0  0  0  0
   16.9871   29.0285   -2.9237 N   0  0  0  0  0  0  0  0  0  0  0  0
   19.4745   27.2878   -4.1646 H   0  0  0  0  0  0  0  0  0  0  0  0
   19.4916   28.8733   -3.3622 H   0  0  0  0  0  0  0  0  0  0  0  0
   16.0154   29.0538   -2.6023 H   0  0  0  0  0  0  0  0  0  0  0  0
   15.5723   26.6163   -3.6204 C   0  0  0  0  0  0  0  0  0  0  0  0
   15.5463   26.3008   -5.0417 C   0  0  0  0  0  0  0  0  0  0  0  0
   15.6899   27.3041   -5.9748 C   0  0  0  0  0  0  0  0  0  0  0  0
   15.6827   26.9724   -7.3170 C   0  0  0  0  0  0  0  0  0  0  0  0
   15.5366   25.6703   -7.7367 C   0  0  0  0  0  0  0  0  0  0  0  0
   15.3931   24.6696   -6.8020 C   0  0  0  0  0  0  0  0  0  0  0  0
   15.4001   25.0027   -5.4696 C   0  0  0  0  0  0  0  0  0  0  0  0
   16.7419   23.6356    0.8933 C   0  0  0  0  0  0  0  0  0  0  0  0
   16.1164   22.5576    1.6935 C   0  0  0  0  0  0  0  0  0  0  0  0
   16.1432   21.2742    0.8479 C   0  0  0  0  0  0  0  0  0  0  0  0
   14.9109   20.5582    0.8615 N   0  0  0  0  0  0  0  0  0  0  0  0
   14.5038   20.1113    1.7332 H   0  0  0  0  0  0  0  0  0  0  0  0
   14.1449   20.4043   -0.3286 C   0  0  0  0  0  0  0  0  0  0  0  0
   12.7411   20.1975   -0.3312 N   0  0  0  0  0  0  0  0  0  0  0  0
   14.7410   20.4567   -1.4846 N   0  0  0  0  0  0  0  0  0  0  0  0
   12.2485   19.5696    0.3412 H   0  0  0  0  0  0  0  0  0  0  0  0
   12.0991   20.6759   -1.0258 H   0  0  0  0  0  0  0  0  0  0  0  0
   14.2253   20.3508   -2.3731 H   0  0  0  0  0  0  0  0  0  0  0  0
   11.0478   22.4229    1.8330 C   0  0  0  0  0  0  0  0  0  0  0  0
   10.6311   21.5406    1.0486 O   0  0  0  0  0  0  0  0  0  0  0  0
   11.8189   23.4852    1.3197 N   0  0  0  0  0  0  0  0  0  0  0  0
   12.1691   24.2098    1.9783 H   0  0  0  0  0  0  0  0  0  0  0  0
   10.7025   22.3011    3.2721 C   0  0  0  0  0  0  0  0  0  0  0  0
    8.8715   23.2963    4.6979 C   0  0  0  0  0  0  0  0  0  0  0  0
    9.7128   23.5197    5.6172 O   0  0  0  0  0  0  0  0  0  0  0  0
    9.3423   22.6926    3.5130 N   0  0  0  0  0  0  0  0  0  0  0  0
    8.6624   22.5110    2.7451 H   0  0  0  0  0  0  0  0  0  0  0  0
    7.4538   23.6871    4.9373 C   0  0  0  0  0  0  0  0  0  0  0  0
    7.1375   27.0664    3.0975 C   0  0  0  0  0  0  0  0  0  0  0  0
    7.3792   25.6351    3.3469 C   0  0  0  0  0  0  0  0  0  0  0  0
    7.7234   24.8903    2.4101 O   0  0  0  0  0  0  0  0  0  0  0  0
    7.2292   25.0692    4.6463 N   0  0  0  0  0  0  0  0  0  0  0  0
    6.9115   25.7115    5.3921 H   0  0  0  0  0  0  0  0  0  0  0  0
    6.4481   22.6970    4.5260 C   0  0  0  0  0  0  0  0  0  0  0  0
    6.6405   21.8056    3.3846 C   0  0  0  0  0  0  0  0  0  0  0  0
    6.0152   20.4588    3.4508 C   0  0  0  0  0  0  0  0  0  0  0  0
    5.1470   20.2303    2.2776 N   0  0  0  0  0  0  0  0  0  0  0  0
    4.1303   20.2181    2.3670 H   0  0  0  0  0  0  0  0  0  0  0  0
    5.7731   20.0325    1.0323 C   0  0  0  0  0  0  0  0  0  0  0  0
    5.8713   21.0528    0.0502 N   0  0  0  0  0  0  0  0  0  0  0  0
    6.2782   18.8817    0.7800 N   0  0  0  0  0  0  0  0  0  0  0  0
    6.7499   21.2620   -0.4746 H   0  0  0  0  0  0  0  0  0  0  0  0
    5.0216   21.6350   -0.1678 H   0  0  0  0  0  0  0  0  0  0  0  0
    6.7430   18.7206   -0.1331 H   0  0  0  0  0  0  0  0  0  0  0  0
   11.1061   21.0027    3.8848 C   0  0  0  0  0  0  0  0  0  0  0  0
   12.2053   20.3373    3.0766 C   0  0  0  0  0  0  0  0  0  0  0  0
   11.5206   21.1058    5.3256 C   0  0  0  0  0  0  0  0  0  0  0  0
   11.4576   24.6774   -0.8182 C   0  0  0  0  0  0  0  0  0  0  0  0
   10.3353   24.1683   -1.7131 C   0  0  0  0  0  0  0  0  0  0  0  0
   10.3955   22.6605   -1.8187 C   0  0  0  0  0  0  0  0  0  0  0  0
    9.3050   22.0091   -1.1356 N   0  0  0  0  0  0  0  0  0  0  0  0
    8.7903   22.4985   -0.3766 H   0  0  0  0  0  0  0  0  0  0  0  0
    8.9072   20.6936   -1.4720 C   0  0  0  0  0  0  0  0  0  0  0  0
    8.4286   20.4369   -2.7840 N   0  0  0  0  0  0  0  0  0  0  0  0
    8.9834   19.7617   -0.5997 N   0  0  0  0  0  0  0  0  0  0  0  0
    7.5947   19.8181   -2.8751 H   0  0  0  0  0  0  0  0  0  0  0  0
    8.8516   20.8238   -3.6542 H   0  0  0  0  0  0  0  0  0  0  0  0
    8.6846   18.8001   -0.8685 H   0  0  0  0  0  0  0  0  0  0  0  0
 46 47  1  0  0  0
 47 48  2  0  0  0
 47 49  1  0  0  0
 49 45  1  0  0  0
 45 51  1  0  0  0
 51 52  1  0  0  0
 52 53  1  0  0  0
 53 54  1  0  0  0
 54 56  1  0  0  0
 56 57  1  0  0  0
 56 58  2  0  0  0
 45 41  1  0  0  0
 41 42  2  0  0  0
 41 43  1  0  0  0
 43 40  1  0  0  0
 40 62  1  0  0  0
 62 63  1  0  0  0
 62 64  1  0  0  0
 40 36  1  0  0  0
 36 37  2  0  0  0
 36 38  1  0  0  0
 38  1  1  0  0  0
  1 65  1  0  0  0
 65 66  1  0  0  0
 66 67  1  0  0  0
 67 68  1  0  0  0
 68 70  1  0  0  0
 70 71  1  0  0  0
 70 72  2  0  0  0
  1  2  1  0  0  0
  2  3  2  0  0  0
  2  4  1  0  0  0
  4  6  1  0  0  0
  6 25  1  0  0  0
 25 26  1  0  0  0
 26 27  1  0  0  0
 27 28  1  0  0  0
 28 30  1  0  0  0
 30 31  1  0  0  0
 30 32  2  0  0  0
  6  7  1  0  0  0
  7  8  2  0  0  0
  7  9  1  0  0  0
  9 11  1  0  0  0
 11 18  1  0  0  0
 18 19  1  0  0  0
 19 20  2  0  0  0
 20 21  1  0  0  0
 21 22  2  0  0  0
 22 23  1  0  0  0
 23 24  2  0  0  0
 11 12  1  0  0  0
 12 13  1  0  0  0
 12 14  2  0  0  0
 24 19  1  0  0  0
 49 50  1  0  0  0
 54 55  1  0  0  0
 57 59  1  0  0  0
 57 60  1  0  0  0
 58 61  1  0  0  0
 43 44  1  0  0  0
 38 39  1  0  0  0
 68 69  1  0  0  0
 71 73  1  0  0  0
 71 74  1  0  0  0
 72 75  1  0  0  0
  4  5  1  0  0  0
 28 29  1  0  0  0
 31 33  1  0  0  0
 31 34  1  0  0  0
 32 35  1  0  0  0
  9 10  1  0  0  0
 13 15  1  0  0  0
 13 16  1  0  0  0
 14 17  1  0  0  0
M  END
> <minimizedAffinity>
-4.50790

> <CNNscore>
0.3310323358

> <CNNaffinity>
7.7854413986

> <CNN_VS>
2.5772328377

> <CNNaffinity_variance>
0.0739226341

$$$$
[H]OC(=O)C([H])([H])[C@@]([H])(C(=O)C([H])([H])Oc1c([H])c([H])c([H])c([H])c1[H])N([H])C(=O)[C@@]([H])(N([H])C(=O)[C@@]([H])(N([H])C(=O)OC([H])([H])c1c([H])c([H])c([H])c([H])c1[H])C([H])([H])c1c([H])c([H])c([H])c([H])c1[H])C([H])(C([H])([H])[H])C([H])([H])[H]


 48 50  0  0  0  0  0  0  0  0999 V2000
   11.3409   22.3353    1.1376 C   0  0  0  0  0  0  0  0  0  0  0  0
    9.9790   22.6192    1.4658 N   0  0  0  0  0  0  0  0  0  0  0  0
    9.4480   22.8981    2.7340 C   0  0  0  0  0  0  0  0  0  0  0  0
   10.1955   22.9218    3.7318 O   0  0  0  0  0  0  0  0  0  0  0  0
    9.2680   22.6230    0.6651 H   0  0  0  0  0  0  0  0  0  0  0  0
    8.0086   23.1611    2.9216 C   0  0  0  0  0  0  0  0  0  0  0  0
    7.2170   21.9508    2.7802 N   0  0  0  0  0  0  0  0  0  0  0  0
    6.7326   21.5724    1.5043 C   0  0  0  0  0  0  0  0  0  0  0  0
    7.0097   22.3266    0.5246 O   0  0  0  0  0  0  0  0  0  0  0  0
    6.9924   21.3488    3.5933 H   0  0  0  0  0  0  0  0  0  0  0  0
    5.9822   20.4389    1.2370 O   0  0  0  0  0  0  0  0  0  0  0  0
    4.6241   20.5205    0.8410 C   0  0  0  0  0  0  0  0  0  0  0  0
    4.4549   20.3785   -0.6142 C   0  0  0  0  0  0  0  0  0  0  0  0
    4.9047   19.2767   -1.2997 C   0  0  0  0  0  0  0  0  0  0  0  0
    4.7137   19.2006   -2.6636 C   0  0  0  0  0  0  0  0  0  0  0  0
    4.0681   20.2439   -3.3168 C   0  0  0  0  0  0  0  0  0  0  0  0
    3.6131   21.3499   -2.6471 C   0  0  0  0  0  0  0  0  0  0  0  0
    3.8129   21.4113   -1.2785 C   0  0  0  0  0  0  0  0  0  0  0  0
    7.7394   23.8028    4.2930 C   0  0  0  0  0  0  0  0  0  0  0  0
    7.1379   25.1385    4.0399 C   0  0  0  0  0  0  0  0  0  0  0  0
    5.9295   25.4663    4.6059 C   0  0  0  0  0  0  0  0  0  0  0  0
    5.3404   26.7138    4.3825 C   0  0  0  0  0  0  0  0  0  0  0  0
    5.9620   27.6551    3.5822 C   0  0  0  0  0  0  0  0  0  0  0  0
    7.1806   27.3218    3.0114 C   0  0  0  0  0  0  0  0  0  0  0  0
    7.7587   26.0701    3.2432 C   0  0  0  0  0  0  0  0  0  0  0  0
   11.9290   23.2028    0.0996 C   0  0  0  0  0  0  0  0  0  0  0  0
   11.3478   24.2470   -0.2835 O   0  0  0  0  0  0  0  0  0  0  0  0
   13.1773   22.9024   -0.5233 N   0  0  0  0  0  0  0  0  0  0  0  0
   13.7172   22.0577   -0.2550 H   0  0  0  0  0  0  0  0  0  0  0  0
   13.7571   23.7500   -1.5555 C   0  0  0  0  0  0  0  0  0  0  0  0
   14.4571   22.7860   -2.4794 C   0  0  0  0  0  0  0  0  0  0  0  0
   14.2647   21.5755   -2.4030 O   0  0  0  0  0  0  0  0  0  0  0  0
   15.4005   23.2270   -3.5216 C   0  0  0  0  0  0  0  0  0  0  0  0
   14.7854   24.1655   -4.3618 O   0  0  0  0  0  0  0  0  0  0  0  0
   15.3409   25.4240   -4.5248 C   0  0  0  0  0  0  0  0  0  0  0  0
   16.0407   26.0001   -3.4934 C   0  0  0  0  0  0  0  0  0  0  0  0
   16.5789   27.2612   -3.6980 C   0  0  0  0  0  0  0  0  0  0  0  0
   16.4063   27.9054   -4.9125 C   0  0  0  0  0  0  0  0  0  0  0  0
   15.7072   27.3307   -5.9458 C   0  0  0  0  0  0  0  0  0  0  0  0
   15.1743   26.0709   -5.7305 C   0  0  0  0  0  0  0  0  0  0  0  0
   14.7523   24.7018   -0.9450 C   0  0  0  0  0  0  0  0  0  0  0  0
   15.0001   24.4189    0.4856 C   0  0  0  0  0  0  0  0  0  0  0  0
   15.6522   23.2759    0.9020 O   0  0  0  0  0  0  0  0  0  0  0  0
   14.6039   25.2445    1.3431 O   0  0  0  0  0  0  0  0  0  0  0  0
   15.5059   22.8705    1.8190 H   0  0  0  0  0  0  0  0  0  0  0  0
   11.7600   20.1602    2.1936 C   0  0  0  0  0  0  0  0  0  0  0  0
   11.5869   20.8644    0.8544 C   0  0  0  0  0  0  0  0  0  0  0  0
   10.5310   20.1842    0.0812 C   0  0  0  0  0  0  0  0  0  0  0  0
 46 47  1  0  0  0
 47 48  1  0  0  0
 47  1  1  0  0  0
  1  2  1  0  0  0
  2  3  1  0  0  0
  3  4  2  0  0  0
  3  6  1  0  0  0
  6 19  1  0  0  0
 19 20  1  0  0  0
 20 21  2  0  0  0
 21 22  1  0  0  0
 22 23  2  0  0  0
 23 24  1  0  0  0
 24 25  2  0  0  0
  6  7  1  0  0  0
  7  8  1  0  0  0
  8  9  2  0  0  0
  8 11  1  0  0  0
 11 12  1  0  0  0
 12 13  1  0  0  0
 13 14  2  0  0  0
 14 15  1  0  0  0
 15 16  2  0  0  0
 16 17  1  0  0  0
 17 18  2  0  0  0
  1 26  1  0  0  0
 26 27  2  0  0  0
 26 28  1  0  0  0
 28 30  1  0  0  0
 30 41  1  0  0  0
 41 42  1  0  0  0
 42 43  1  0  0  0
 42 44  2  0  0  0
 30 31  1  0  0  0
 31 32  2  0  0  0
 31 33  1  0  0  0
 33 34  1  0  0  0
 34 35  1  0  0  0
 35 36  2  0  0  0
 36 37  1  0  0  0
 37 38  2  0  0  0
 38 39  1  0  0  0
 39 40  2  0  0  0
 25 20  1  0  0  0
 18 13  1  0  0  0
 40 35  1  0  0  0
  2  5  1  0  0  0
  7 10  1  0  0  0
 28 29  1  0  0  0
 43 45  1  0  0  0
M  END
> <minimizedAffinity>
-8.70417

> <CNNscore>
0.2234048992

> <CNNaffinity>
7.0661873817

> <CNN_VS>
1.5786209106

> <CNNaffinity_variance>
0.0937327370

$$$$
[H]OC(=O)C([H])([H])[C@@]([H])(C(=O)C([H])([H])Oc1c([H])c([H])c([H])c([H])c1[H])N([H])C(=O)[C@@]([H])(N([H])C(=O)[C@@]([H])(N([H])C(=O)OC([H])([H])c1c([H])c([H])c([H])c([H])c1[H])C([H])([H])c1c([H])c([H])c([H])c([H])c1[H])C([H])(C([H])([H])[H])C([H])([H])[H]


 48 50  0  0  0  0  0  0  0  0999 V2000
    9.6109   24.4382    3.0120 C   0  0  0  0  0  0  0  0  0  0  0  0
   10.0186   24.6465    1.6580 N   0  0  0  0  0  0  0  0  0  0  0  0
   11.2235   24.2486    1.0596 C   0  0  0  0  0  0  0  0  0  0  0  0
   12.0786   23.6343    1.7276 O   0  0  0  0  0  0  0  0  0  0  0  0
    9.3401   25.1646    1.0115 H   0  0  0  0  0  0  0  0  0  0  0  0
   11.5119   24.5474   -0.3560 C   0  0  0  0  0  0  0  0  0  0  0  0
   12.8611   24.1547   -0.7253 N   0  0  0  0  0  0  0  0  0  0  0  0
   13.5056   24.7908   -1.8144 C   0  0  0  0  0  0  0  0  0  0  0  0
   12.8597   25.6863   -2.4360 O   0  0  0  0  0  0  0  0  0  0  0  0
   13.3730   23.4145   -0.2114 H   0  0  0  0  0  0  0  0  0  0  0  0
   14.7903   24.5173   -2.2547 O   0  0  0  0  0  0  0  0  0  0  0  0
   15.7435   25.5461   -2.4572 C   0  0  0  0  0  0  0  0  0  0  0  0
   15.7285   26.0609   -3.8360 C   0  0  0  0  0  0  0  0  0  0  0  0
   16.0440   27.3637   -4.1347 C   0  0  0  0  0  0  0  0  0  0  0  0
   16.0145   27.7860   -5.4475 C   0  0  0  0  0  0  0  0  0  0  0  0
   15.6652   26.8808   -6.4428 C   0  0  0  0  0  0  0  0  0  0  0  0
   15.3481   25.5773   -6.1612 C   0  0  0  0  0  0  0  0  0  0  0  0
   15.3820   25.1694   -4.8386 C   0  0  0  0  0  0  0  0  0  0  0  0
   10.4963   23.8589   -1.2830 C   0  0  0  0  0  0  0  0  0  0  0  0
   10.4915   22.4148   -0.9300 C   0  0  0  0  0  0  0  0  0  0  0  0
   11.6500   21.6815   -1.0200 C   0  0  0  0  0  0  0  0  0  0  0  0
   11.6731   20.3222   -0.6968 C   0  0  0  0  0  0  0  0  0  0  0  0
   10.5245   19.6769   -0.2756 C   0  0  0  0  0  0  0  0  0  0  0  0
    9.3565   20.4184   -0.1865 C   0  0  0  0  0  0  0  0  0  0  0  0
    9.3476   21.7778   -0.5131 C   0  0  0  0  0  0  0  0  0  0  0  0
    9.2430   23.0500    3.3490 C   0  0  0  0  0  0  0  0  0  0  0  0
    8.4536   22.3917    2.6290 O   0  0  0  0  0  0  0  0  0  0  0  0
    9.7563   22.3874    4.5039 N   0  0  0  0  0  0  0  0  0  0  0  0
   10.4173   22.8675    5.1441 H   0  0  0  0  0  0  0  0  0  0  0  0
    9.3883   21.0209    4.8464 C   0  0  0  0  0  0  0  0  0  0  0  0
    8.3755   21.1740    5.9526 C   0  0  0  0  0  0  0  0  0  0  0  0
    7.2731   20.6369    5.8869 O   0  0  0  0  0  0  0  0  0  0  0  0
    8.6400   21.9627    7.1686 C   0  0  0  0  0  0  0  0  0  0  0  0
    8.9005   23.2976    6.8295 O   0  0  0  0  0  0  0  0  0  0  0  0
    7.8971   24.2482    6.9213 C   0  0  0  0  0  0  0  0  0  0  0  0
    6.7355   24.0858    6.2076 C   0  0  0  0  0  0  0  0  0  0  0  0
    5.7577   25.0612    6.3271 C   0  0  0  0  0  0  0  0  0  0  0  0
    5.9634   26.1594    7.1464 C   0  0  0  0  0  0  0  0  0  0  0  0
    7.1244   26.3236    7.8618 C   0  0  0  0  0  0  0  0  0  0  0  0
    8.0940   25.3432    7.7352 C   0  0  0  0  0  0  0  0  0  0  0  0
   10.5949   20.2697    5.3454 C   0  0  0  0  0  0  0  0  0  0  0  0
   11.2943   19.5421    4.2640 C   0  0  0  0  0  0  0  0  0  0  0  0
   12.0113   18.3877    4.5051 O   0  0  0  0  0  0  0  0  0  0  0  0
   11.2322   19.9912    3.0941 O   0  0  0  0  0  0  0  0  0  0  0  0
   12.7807   18.0929    3.9154 H   0  0  0  0  0  0  0  0  0  0  0  0
    9.2878   26.6236    4.0804 C   0  0  0  0  0  0  0  0  0  0  0  0
    8.5599   25.4318    3.4730 C   0  0  0  0  0  0  0  0  0  0  0  0
    7.6380   25.9086    2.4249 C   0  0  0  0  0  0  0  0  0  0  0  0
 46 47  1  0  0  0
 47 48  1  0  0  0
 47  1  1  0  0  0
  1  2  1  0  0  0
  2  3  1  0  0  0
  3  4  2  0  0  0
  3  6  1  0  0  0
  6 19  1  0  0  0
 19 20  1  0  0  0
 20 21  2  0  0  0
 21 22  1  0  0  0
 22 23  2  0  0  0
 23 24  1  0  0  0
 24 25  2  0  0  0
  6  7  1  0  0  0
  7  8  1  0  0  0
  8  9  2  0  0  0
  8 11  1  0  0  0
 11 12  1  0  0  0
 12 13  1  0  0  0
 13 14  2  0  0  0
 14 15  1  0  0  0
 15 16  2  0  0  0
 16 17  1  0  0  0
 17 18  2  0  0  0
  1 26  1  0  0  0
 26 27  2  0  0  0
 26 28  1  0  0  0
 28 30  1  0  0  0
 30 41  1  0  0  0
 41 42  1  0  0  0
 42 43  1  0  0  0
 42 44  2  0  0  0
 30 31  1  0  0  0
 31 32  2  0  0  0
 31 33  1  0  0  0
 33 34  1  0  0  0
 34 35  1  0  0  0
 35 36  2  0  0  0
 36 37  1  0  0  0
 37 38  2  0  0  0
 38 39  1  0  0  0
 39 40  2  0  0  0
 25 20  1  0  0  0
 18 13  1  0  0  0
 40 35  1  0  0  0
  2  5  1  0  0  0
  7 10  1  0  0  0
 28 29  1  0  0  0
 43 45  1  0  0  0
M  END
> <minimizedAffinity>
-7.74433

> <CNNscore>
0.1726409942

> <CNNaffinity>
6.7433204651

> <CNN_VS>
1.1641736031

> <CNNaffinity_variance>
0.2436884195

$$$$
[H]OC(=O)C([H])([H])[C@@]([H])(C(=O)C([H])([H])Oc1c([H])c([H])c([H])c([H])c1[H])N([H])C(=O)[C@@]([H])(N([H])C(=O)[C@@]([H])(N([H])C(=O)OC([H])([H])c1c([H])c([H])c([H])c([H])c1[H])C([H])([H])c1c([H])c([H])c([H])c([H])c1[H])C([H])(C([H])([H])[H])C([H])([H])[H]


 48 50  0  0  0  0  0  0  0  0999 V2000
   11.5899   21.8207    2.2213 C   0  0  0  0  0  0  0  0  0  0  0  0
   10.7070   22.3644    3.2050 N   0  0  0  0  0  0  0  0  0  0  0  0
    9.3490   22.0650    3.3903 C   0  0  0  0  0  0  0  0  0  0  0  0
    8.7867   21.2343    2.6497 O   0  0  0  0  0  0  0  0  0  0  0  0
   11.1101   23.0850    3.8869 H   0  0  0  0  0  0  0  0  0  0  0  0
    8.5567   22.7207    4.4480 C   0  0  0  0  0  0  0  0  0  0  0  0
    8.1379   24.0561    4.0577 N   0  0  0  0  0  0  0  0  0  0  0  0
    8.1215   25.0969    5.0181 C   0  0  0  0  0  0  0  0  0  0  0  0
    8.4718   24.8085    6.2012 O   0  0  0  0  0  0  0  0  0  0  0  0
    7.8466   24.2738    3.0873 H   0  0  0  0  0  0  0  0  0  0  0  0
    7.7575   26.4102    4.7690 O   0  0  0  0  0  0  0  0  0  0  0  0
    6.4264   26.8615    4.9485 C   0  0  0  0  0  0  0  0  0  0  0  0
    6.0005   27.7881    3.8871 C   0  0  0  0  0  0  0  0  0  0  0  0
    6.8993   28.5140    3.1447 C   0  0  0  0  0  0  0  0  0  0  0  0
    6.4382   29.3643    2.1613 C   0  0  0  0  0  0  0  0  0  0  0  0
    5.0696   29.4683    1.9424 C   0  0  0  0  0  0  0  0  0  0  0  0
    4.1598   28.7504    2.6744 C   0  0  0  0  0  0  0  0  0  0  0  0
    4.6386   27.9018    3.6579 C   0  0  0  0  0  0  0  0  0  0  0  0
    7.3264   21.8761    4.8192 C   0  0  0  0  0  0  0  0  0  0  0  0
    7.7615   20.9014    5.8539 C   0  0  0  0  0  0  0  0  0  0  0  0
    8.5999   21.3021    6.8661 C   0  0  0  0  0  0  0  0  0  0  0  0
    9.0263   20.4060    7.8501 C   0  0  0  0  0  0  0  0  0  0  0  0
    8.6128   19.0863    7.8303 C   0  0  0  0  0  0  0  0  0  0  0  0
    7.7677   18.6840    6.8077 C   0  0  0  0  0  0  0  0  0  0  0  0
    7.3490   19.5909    5.8295 C   0  0  0  0  0  0  0  0  0  0  0  0
   11.7420   22.6324    0.9989 C   0  0  0  0  0  0  0  0  0  0  0  0
   10.8195   23.3810    0.5945 O   0  0  0  0  0  0  0  0  0  0  0  0
   12.9335   22.6075    0.2141 N   0  0  0  0  0  0  0  0  0  0  0  0
   13.7402   22.0150    0.4887 H   0  0  0  0  0  0  0  0  0  0  0  0
   13.0846   23.3989   -0.9986 C   0  0  0  0  0  0  0  0  0  0  0  0
   13.9633   22.5553   -1.8869 C   0  0  0  0  0  0  0  0  0  0  0  0
   13.7907   21.3438   -1.9897 O   0  0  0  0  0  0  0  0  0  0  0  0
   15.0674   23.1215   -2.6813 C   0  0  0  0  0  0  0  0  0  0  0  0
   14.5597   23.9684   -3.6762 O   0  0  0  0  0  0  0  0  0  0  0  0
   15.1761   25.1805   -3.9403 C   0  0  0  0  0  0  0  0  0  0  0  0
   16.0695   25.7029   -3.0380 C   0  0  0  0  0  0  0  0  0  0  0  0
   16.6626   26.9189   -3.3405 C   0  0  0  0  0  0  0  0  0  0  0  0
   16.3516   27.5728   -4.5218 C   0  0  0  0  0  0  0  0  0  0  0  0
   15.4587   27.0517   -5.4261 C   0  0  0  0  0  0  0  0  0  0  0  0
   14.8726   25.8367   -5.1140 C   0  0  0  0  0  0  0  0  0  0  0  0
   13.7650   24.7052   -0.6826 C   0  0  0  0  0  0  0  0  0  0  0  0
   14.6856   24.5982    0.4702 C   0  0  0  0  0  0  0  0  0  0  0  0
   15.4159   23.4537    0.7182 O   0  0  0  0  0  0  0  0  0  0  0  0
   14.8030   25.5790    1.2438 O   0  0  0  0  0  0  0  0  0  0  0  0
   15.7339   23.2027    1.6469 H   0  0  0  0  0  0  0  0  0  0  0  0
   11.4391   20.1854    0.3979 C   0  0  0  0  0  0  0  0  0  0  0  0
   11.2977   20.3654    1.9035 C   0  0  0  0  0  0  0  0  0  0  0  0
   12.1557   19.3833    2.5926 C   0  0  0  0  0  0  0  0  0  0  0  0
 46 47  1  0  0  0
 47 48  1  0  0  0
 47  1  1  0  0  0
  1  2  1  0  0  0
  2  3  1  0  0  0
  3  4  2  0  0  0
  3  6  1  0  0  0
  6 19  1  0  0  0
 19 20  1  0  0  0
 20 21  2  0  0  0
 21 22  1  0  0  0
 22 23  2  0  0  0
 23 24  1  0  0  0
 24 25  2  0  0  0
  6  7  1  0  0  0
  7  8  1  0  0  0
  8  9  2  0  0  0
  8 11  1  0  0  0
 11 12  1  0  0  0
 12 13  1  0  0  0
 13 14  2  0  0  0
 14 15  1  0  0  0
 15 16  2  0  0  0
 16 17  1  0  0  0
 17 18  2  0  0  0
  1 26  1  0  0  0
 26 27  2  0  0  0
 26 28  1  0  0  0
 28 30  1  0  0  0
 30 41  1  0  0  0
 41 42  1  0  0  0
 42 43  1  0  0  0
 42 44  2  0  0  0
 30 31  1  0  0  0
 31 32  2  0  0  0
 31 33  1  0  0  0
 33 34  1  0  0  0
 34 35  1  0  0  0
 35 36  2  0  0  0
 36 37  1  0  0  0
 37 38  2  0  0  0
 38 39  1  0  0  0
 39 40  2  0  0  0
 25 20  1  0  0  0
 18 13  1  0  0  0
 40 35  1  0  0  0
  2  5  1  0  0  0
  7 10  1  0  0  0
 28 29  1  0  0  0
 43 45  1  0  0  0
M  END
> <minimizedAffinity>
-8.28109

> <CNNscore>
0.1657222360

> <CNNaffinity>
6.9072165489

> <CNN_VS>
1.1446794271

> <CNNaffinity_variance>
0.1223501787

$$$$
[H]OC(=O)C([H])([H])[C@@]([H])(C(=O)C([H])([H])Oc1c([H])c([H])c([H])c([H])c1[H])N([H])C(=O)[C@@]([H])(N([H])C(=O)[C@@]([H])(N([H])C(=O)OC([H])([H])c1c([H])c([H])c([H])c([H])c1[H])C([H])([H])c1c([H])c([H])c([H])c([H])c1[H])C([H])(C([H])([H])[H])C([H])([H])[H]


 48 50  0  0  0  0  0  0  0  0999 V2000
    9.7695   22.0888    2.0484 C   0  0  0  0  0  0  0  0  0  0  0  0
    9.1282   22.9504    2.9914 N   0  0  0  0  0  0  0  0  0  0  0  0
    9.2555   24.3435    3.0973 C   0  0  0  0  0  0  0  0  0  0  0  0
    9.9928   24.9644    2.3063 O   0  0  0  0  0  0  0  0  0  0  0  0
    8.4724   22.4988    3.7074 H   0  0  0  0  0  0  0  0  0  0  0  0
    8.5357   25.1023    4.1378 C   0  0  0  0  0  0  0  0  0  0  0  0
    8.9596   24.7195    5.4738 N   0  0  0  0  0  0  0  0  0  0  0  0
    8.1835   23.8006    6.2216 C   0  0  0  0  0  0  0  0  0  0  0  0
    7.1279   23.3510    5.6840 O   0  0  0  0  0  0  0  0  0  0  0  0
    9.8218   25.1027    5.9025 H   0  0  0  0  0  0  0  0  0  0  0  0
    8.4868   23.3472    7.4950 O   0  0  0  0  0  0  0  0  0  0  0  0
    9.6177   22.5309    7.7458 C   0  0  0  0  0  0  0  0  0  0  0  0
    9.5305   21.2280    7.0667 C   0  0  0  0  0  0  0  0  0  0  0  0
    8.6341   20.2608    7.4502 C   0  0  0  0  0  0  0  0  0  0  0  0
    8.5986   19.0602    6.7721 C   0  0  0  0  0  0  0  0  0  0  0  0
    9.4736   18.8547    5.7119 C   0  0  0  0  0  0  0  0  0  0  0  0
   10.3738   19.8099    5.3166 C   0  0  0  0  0  0  0  0  0  0  0  0
   10.3971   21.0092    6.0077 C   0  0  0  0  0  0  0  0  0  0  0  0
    8.7232   26.6164    3.9451 C   0  0  0  0  0  0  0  0  0  0  0  0
    7.3750   27.1975    3.7115 C   0  0  0  0  0  0  0  0  0  0  0  0
    6.2976   26.7465    4.4354 C   0  0  0  0  0  0  0  0  0  0  0  0
    5.0190   27.2734    4.2342 C   0  0  0  0  0  0  0  0  0  0  0  0
    4.8043   28.2675    3.2968 C   0  0  0  0  0  0  0  0  0  0  0  0
    5.8925   28.7203    2.5670 C   0  0  0  0  0  0  0  0  0  0  0  0
    7.1664   28.1842    2.7784 C   0  0  0  0  0  0  0  0  0  0  0  0
   11.2393   22.2021    1.9949 C   0  0  0  0  0  0  0  0  0  0  0  0
   11.9683   21.6344    2.8442 O   0  0  0  0  0  0  0  0  0  0  0  0
   11.9063   22.9602    0.9866 N   0  0  0  0  0  0  0  0  0  0  0  0
   11.3693   23.4540    0.2484 H   0  0  0  0  0  0  0  0  0  0  0  0
   13.3562   23.0836    0.9356 C   0  0  0  0  0  0  0  0  0  0  0  0
   13.5937   24.5010    0.4802 C   0  0  0  0  0  0  0  0  0  0  0  0
   14.6397   25.0885    0.7424 O   0  0  0  0  0  0  0  0  0  0  0  0
   12.6026   25.2612   -0.3012 C   0  0  0  0  0  0  0  0  0  0  0  0
   12.4638   24.7006   -1.5784 O   0  0  0  0  0  0  0  0  0  0  0  0
   13.2798   25.1206   -2.6160 C   0  0  0  0  0  0  0  0  0  0  0  0
   13.0353   26.3224   -3.2332 C   0  0  0  0  0  0  0  0  0  0  0  0
   13.8752   26.7042   -4.2680 C   0  0  0  0  0  0  0  0  0  0  0  0
   14.9243   25.8856   -4.6539 C   0  0  0  0  0  0  0  0  0  0  0  0
   15.1712   24.6833   -4.0374 C   0  0  0  0  0  0  0  0  0  0  0  0
   14.3264   24.3122   -3.0050 C   0  0  0  0  0  0  0  0  0  0  0  0
   13.9232   22.1127   -0.0670 C   0  0  0  0  0  0  0  0  0  0  0  0
   14.9904   21.2655    0.5083 C   0  0  0  0  0  0  0  0  0  0  0  0
   15.7530   21.6795    1.5816 O   0  0  0  0  0  0  0  0  0  0  0  0
   15.2065   20.1378    0.0026 O   0  0  0  0  0  0  0  0  0  0  0  0
   16.6902   21.3324    1.7483 H   0  0  0  0  0  0  0  0  0  0  0  0
    9.5278   20.8795   -0.0731 C   0  0  0  0  0  0  0  0  0  0  0  0
    9.1445   22.1543    0.6666 C   0  0  0  0  0  0  0  0  0  0  0  0
    7.6777   22.3071    0.6428 C   0  0  0  0  0  0  0  0  0  0  0  0
 46 47  1  0  0  0
 47 48  1  0  0  0
 47  1  1  0  0  0
  1  2  1  0  0  0
  2  3  1  0  0  0
  3  4  2  0  0  0
  3  6  1  0  0  0
  6 19  1  0  0  0
 19 20  1  0  0  0
 20 21  2  0  0  0
 21 22  1  0  0  0
 22 23  2  0  0  0
 23 24  1  0  0  0
 24 25  2  0  0  0
  6  7  1  0  0  0
  7  8  1  0  0  0
  8  9  2  0  0  0
  8 11  1  0  0  0
 11 12  1  0  0  0
 12 13  1  0  0  0
 13 14  2  0  0  0
 14 15  1  0  0  0
 15 16  2  0  0  0
 16 17  1  0  0  0
 17 18  2  0  0  0
  1 26  1  0  0  0
 26 27  2  0  0  0
 26 28  1  0  0  0
 28 30  1  0  0  0
 30 41  1  0  0  0
 41 42  1  0  0  0
 42 43  1  0  0  0
 42 44  2  0  0  0
 30 31  1  0  0  0
 31 32  2  0  0  0
 31 33  1  0  0  0
 33 34  1  0  0  0
 34 35  1  0  0  0
 35 36  2  0  0  0
 36 37  1  0  0  0
 37 38  2  0  0  0
 38 39  1  0  0  0
 39 40  2  0  0  0
 25 20  1  0  0  0
 18 13  1  0  0  0
 40 35  1  0  0  0
  2  5  1  0  0  0
  7 10  1  0  0  0
 28 29  1  0  0  0
 43 45  1  0  0  0
M  END
> <minimizedAffinity>
-8.92576

> <CNNscore>
0.1620847285

> <CNNaffinity>
6.5395073891

> <CNN_VS>
1.0599542856

> <CNNaffinity_variance>
0.6019793153

$$$$
[H]OC(=O)C([H])([H])[C@@]([H])(C(=O)C([H])([H])Oc1c([H])c([H])c([H])c([H])c1[H])N([H])C(=O)[C@@]([H])(N([H])C(=O)[C@@]([H])(N([H])C(=O)OC([H])([H])c1c([H])c([H])c([H])c([H])c1[H])C([H])([H])c1c([H])c([H])c([H])c([H])c1[H])C([H])(C([H])([H])[H])C([H])([H])[H]


 48 50  0  0  0  0  0  0  0  0999 V2000
   11.5203   22.0826    1.9467 C   0  0  0  0  0  0  0  0  0  0  0  0
   10.1846   22.3378    2.3869 N   0  0  0  0  0  0  0  0  0  0  0  0
    9.7030   22.3196    3.7045 C   0  0  0  0  0  0  0  0  0  0  0  0
   10.4771   22.0637    4.6480 O   0  0  0  0  0  0  0  0  0  0  0  0
    9.4536   22.5702    1.6396 H   0  0  0  0  0  0  0  0  0  0  0  0
    8.2850   22.5925    4.0064 C   0  0  0  0  0  0  0  0  0  0  0  0
    7.5480   21.3708    4.2811 N   0  0  0  0  0  0  0  0  0  0  0  0
    6.4621   21.0025    3.4498 C   0  0  0  0  0  0  0  0  0  0  0  0
    6.1707   21.7756    2.4892 O   0  0  0  0  0  0  0  0  0  0  0  0
    7.7943   20.7532    5.0760 H   0  0  0  0  0  0  0  0  0  0  0  0
    5.6926   19.8601    3.5977 O   0  0  0  0  0  0  0  0  0  0  0  0
    5.0122   19.5712    4.8067 C   0  0  0  0  0  0  0  0  0  0  0  0
    5.4025   18.2697    5.3726 C   0  0  0  0  0  0  0  0  0  0  0  0
    5.3536   18.0132    6.7209 C   0  0  0  0  0  0  0  0  0  0  0  0
    5.7300   16.7719    7.1903 C   0  0  0  0  0  0  0  0  0  0  0  0
    6.1517   15.8047    6.2856 C   0  0  0  0  0  0  0  0  0  0  0  0
    6.2057   16.0448    4.9372 C   0  0  0  0  0  0  0  0  0  0  0  0
    5.8251   17.2957    4.4821 C   0  0  0  0  0  0  0  0  0  0  0  0
    8.1504   23.5608    5.1935 C   0  0  0  0  0  0  0  0  0  0  0  0
    7.8769   24.9086    4.6292 C   0  0  0  0  0  0  0  0  0  0  0  0
    8.8967   25.8209    4.5036 C   0  0  0  0  0  0  0  0  0  0  0  0
    8.6669   27.0956    3.9789 C   0  0  0  0  0  0  0  0  0  0  0  0
    7.4007   27.4732    3.5703 C   0  0  0  0  0  0  0  0  0  0  0  0
    6.3731   26.5516    3.6988 C   0  0  0  0  0  0  0  0  0  0  0  0
    6.6170   25.2797    4.2256 C   0  0  0  0  0  0  0  0  0  0  0  0
   12.0564   23.0553    0.9758 C   0  0  0  0  0  0  0  0  0  0  0  0
   11.6036   24.2236    0.9056 O   0  0  0  0  0  0  0  0  0  0  0  0
   13.1063   22.7225    0.0684 N   0  0  0  0  0  0  0  0  0  0  0  0
   13.5329   21.7764    0.0709 H   0  0  0  0  0  0  0  0  0  0  0  0
   13.6319   23.6757   -0.8986 C   0  0  0  0  0  0  0  0  0  0  0  0
   14.3131   22.8181   -1.9346 C   0  0  0  0  0  0  0  0  0  0  0  0
   14.2398   21.5928   -1.8968 O   0  0  0  0  0  0  0  0  0  0  0  0
   15.0962   23.3857   -3.0461 C   0  0  0  0  0  0  0  0  0  0  0  0
   14.4430   24.5097   -3.5705 O   0  0  0  0  0  0  0  0  0  0  0  0
   15.1712   25.6270   -3.9445 C   0  0  0  0  0  0  0  0  0  0  0  0
   16.0915   26.1636   -3.0782 C   0  0  0  0  0  0  0  0  0  0  0  0
   16.7977   27.2827   -3.4916 C   0  0  0  0  0  0  0  0  0  0  0  0
   16.5690   27.8293   -4.7440 C   0  0  0  0  0  0  0  0  0  0  0  0
   15.6494   27.2938   -5.6125 C   0  0  0  0  0  0  0  0  0  0  0  0
   14.9501   26.1761   -5.1894 C   0  0  0  0  0  0  0  0  0  0  0  0
   14.6329   24.5861   -0.2364 C   0  0  0  0  0  0  0  0  0  0  0  0
   15.6974   23.8382    0.4675 C   0  0  0  0  0  0  0  0  0  0  0  0
   15.4734   22.5925    1.0180 O   0  0  0  0  0  0  0  0  0  0  0  0
   16.8364   24.3550    0.5656 O   0  0  0  0  0  0  0  0  0  0  0  0
   16.0147   22.2377    1.7976 H   0  0  0  0  0  0  0  0  0  0  0  0
   11.9182   19.7927    2.7337 C   0  0  0  0  0  0  0  0  0  0  0  0
   11.7291   20.6503    1.4895 C   0  0  0  0  0  0  0  0  0  0  0  0
   10.6418   20.0834    0.6698 C   0  0  0  0  0  0  0  0  0  0  0  0
 46 47  1  0  0  0
 47 48  1  0  0  0
 47  1  1  0  0  0
  1  2  1  0  0  0
  2  3  1  0  0  0
  3  4  2  0  0  0
  3  6  1  0  0  0
  6 19  1  0  0  0
 19 20  1  0  0  0
 20 21  2  0  0  0
 21 22  1  0  0  0
 22 23  2  0  0  0
 23 24  1  0  0  0
 24 25  2  0  0  0
  6  7  1  0  0  0
  7  8  1  0  0  0
  8  9  2  0  0  0
  8 11  1  0  0  0
 11 12  1  0  0  0
 12 13  1  0  0  0
 13 14  2  0  0  0
 14 15  1  0  0  0
 15 16  2  0  0  0
 16 17  1  0  0  0
 17 18  2  0  0  0
  1 26  1  0  0  0
 26 27  2  0  0  0
 26 28  1  0  0  0
 28 30  1  0  0  0
 30 41  1  0  0  0
 41 42  1  0  0  0
 42 43  1  0  0  0
 42 44  2  0  0  0
 30 31  1  0  0  0
 31 32  2  0  0  0
 31 33  1  0  0  0
 33 34  1  0  0  0
 34 35  1  0  0  0
 35 36  2  0  0  0
 36 37  1  0  0  0
 37 38  2  0  0  0
 38 39  1  0  0  0
 39 40  2  0  0  0
 25 20  1  0  0  0
 18 13  1  0  0  0
 40 35  1  0  0  0
  2  5  1  0  0  0
  7 10  1  0  0  0
 28 29  1  0  0  0
 43 45  1  0  0  0
M  END
> <minimizedAffinity>
-8.31752

> <CNNscore>
0.1480943412

> <CNNaffinity>
6.8417382240

> <CNN_VS>
1.0132226944

> <CNNaffinity_variance>
0.2567513585

$$$$
[H]OC(=O)C([H])([H])[C@@]([H])(C(=O)C([H])([H])Oc1c([H])c([H])c([H])c([H])c1[H])N([H])C(=O)[C@@]([H])(N([H])C(=O)[C@@]([H])(N([H])C(=O)OC([H])([H])c1c([H])c([H])c([H])c([H])c1[H])C([H])([H])c1c([H])c([H])c([H])c([H])c1[H])C([H])(C([H])([H])[H])C([H])([H])[H]


 48 50  0  0  0  0  0  0  0  0999 V2000
    5.7793   20.9653   -0.8942 C   0  0  0  0  0  0  0  0  0  0  0  0
    6.8570   21.7593   -0.3933 N   0  0  0  0  0  0  0  0  0  0  0  0
    7.7230   21.4502    0.6663 C   0  0  0  0  0  0  0  0  0  0  0  0
    7.5964   20.3728    1.2812 O   0  0  0  0  0  0  0  0  0  0  0  0
    7.0389   22.7019   -0.8679 H   0  0  0  0  0  0  0  0  0  0  0  0
    8.7892   22.3813    1.0817 C   0  0  0  0  0  0  0  0  0  0  0  0
    9.1450   23.3027    0.0161 N   0  0  0  0  0  0  0  0  0  0  0  0
   10.4903   23.3904   -0.4179 C   0  0  0  0  0  0  0  0  0  0  0  0
   11.3423   22.6523    0.1609 O   0  0  0  0  0  0  0  0  0  0  0  0
    8.4372   23.9055   -0.4418 H   0  0  0  0  0  0  0  0  0  0  0  0
   10.9527   24.2158   -1.4298 O   0  0  0  0  0  0  0  0  0  0  0  0
   11.9523   25.1927   -1.1966 C   0  0  0  0  0  0  0  0  0  0  0  0
   12.9572   25.2344   -2.2712 C   0  0  0  0  0  0  0  0  0  0  0  0
   13.0151   26.2623   -3.1801 C   0  0  0  0  0  0  0  0  0  0  0  0
   13.9825   26.2460   -4.1633 C   0  0  0  0  0  0  0  0  0  0  0  0
   14.8806   25.1863   -4.2128 C   0  0  0  0  0  0  0  0  0  0  0  0
   14.8362   24.1532   -3.3130 C   0  0  0  0  0  0  0  0  0  0  0  0
   13.8591   24.1842   -2.3326 C   0  0  0  0  0  0  0  0  0  0  0  0
    8.3754   23.1693    2.3358 C   0  0  0  0  0  0  0  0  0  0  0  0
    9.1325   22.5981    3.4805 C   0  0  0  0  0  0  0  0  0  0  0  0
   10.1363   21.6874    3.2544 C   0  0  0  0  0  0  0  0  0  0  0  0
   10.8621   21.1330    4.3121 C   0  0  0  0  0  0  0  0  0  0  0  0
   10.5873   21.4888    5.6201 C   0  0  0  0  0  0  0  0  0  0  0  0
    9.5736   22.4070    5.8460 C   0  0  0  0  0  0  0  0  0  0  0  0
    8.8552   22.9538    4.7784 C   0  0  0  0  0  0  0  0  0  0  0  0
    4.8704   20.4229    0.1334 C   0  0  0  0  0  0  0  0  0  0  0  0
    4.0078   21.1462    0.6880 O   0  0  0  0  0  0  0  0  0  0  0  0
    4.9250   19.0599    0.5524 N   0  0  0  0  0  0  0  0  0  0  0  0
    5.6101   18.4012    0.1354 H   0  0  0  0  0  0  0  0  0  0  0  0
    4.0371   18.5224    1.5734 C   0  0  0  0  0  0  0  0  0  0  0  0
    4.9445   18.2358    2.7428 C   0  0  0  0  0  0  0  0  0  0  0  0
    5.3547   17.1005    2.9687 O   0  0  0  0  0  0  0  0  0  0  0  0
    5.3950   19.2842    3.6747 C   0  0  0  0  0  0  0  0  0  0  0  0
    6.7411   19.0839    4.0106 O   0  0  0  0  0  0  0  0  0  0  0  0
    7.1722   19.2871    5.3112 C   0  0  0  0  0  0  0  0  0  0  0  0
    6.5262   20.1982    6.1100 C   0  0  0  0  0  0  0  0  0  0  0  0
    6.9908   20.3718    7.4045 C   0  0  0  0  0  0  0  0  0  0  0  0
    8.0747   19.6397    7.8615 C   0  0  0  0  0  0  0  0  0  0  0  0
    8.7219   18.7273    7.0644 C   0  0  0  0  0  0  0  0  0  0  0  0
    8.2493   18.5617    5.7735 C   0  0  0  0  0  0  0  0  0  0  0  0
    3.3986   17.2483    1.0853 C   0  0  0  0  0  0  0  0  0  0  0  0
    4.1234   16.6561   -0.0601 C   0  0  0  0  0  0  0  0  0  0  0  0
    5.2985   15.9511    0.1045 O   0  0  0  0  0  0  0  0  0  0  0  0
    3.6532   16.8015   -1.2141 O   0  0  0  0  0  0  0  0  0  0  0  0
    5.9923   15.8727   -0.6297 H   0  0  0  0  0  0  0  0  0  0  0  0
    5.2757   19.9097   -3.0515 C   0  0  0  0  0  0  0  0  0  0  0  0
    6.2360   19.8956   -1.8697 C   0  0  0  0  0  0  0  0  0  0  0  0
    7.6177   20.0404   -2.3652 C   0  0  0  0  0  0  0  0  0  0  0  0
 46 47  1  0  0  0
 47 48  1  0  0  0
 47  1  1  0  0  0
  1  2  1  0  0  0
  2  3  1  0  0  0
  3  4  2  0  0  0
  3  6  1  0  0  0
  6 19  1  0  0  0
 19 20  1  0  0  0
 20 21  2  0  0  0
 21 22  1  0  0  0
 22 23  2  0  0  0
 23 24  1  0  0  0
 24 25  2  0  0  0
  6  7  1  0  0  0
  7  8  1  0  0  0
  8  9  2  0  0  0
  8 11  1  0  0  0
 11 12  1  0  0  0
 12 13  1  0  0  0
 13 14  2  0  0  0
 14 15  1  0  0  0
 15 16  2  0  0  0
 16 17  1  0  0  0
 17 18  2  0  0  0
  1 26  1  0  0  0
 26 27  2  0  0  0
 26 28  1  0  0  0
 28 30  1  0  0  0
 30 41  1  0  0  0
 41 42  1  0  0  0
 42 43  1  0  0  0
 42 44  2  0  0  0
 30 31  1  0  0  0
 31 32  2  0  0  0
 31 33  1  0  0  0
 33 34  1  0  0  0
 34 35  1  0  0  0
 35 36  2  0  0  0
 36 37  1  0  0  0
 37 38  2  0  0  0
 38 39  1  0  0  0
 39 40  2  0  0  0
 25 20  1  0  0  0
 18 13  1  0  0  0
 40 35  1  0  0  0
  2  5  1  0  0  0
  7 10  1  0  0  0
 28 29  1  0  0  0
 43 45  1  0  0  0
M  END
> <minimizedAffinity>
-8.27784

> <CNNscore>
0.1470715851

> <CNNaffinity>
6.2344422340

> <CNN_VS>
0.9169092774

> <CNNaffinity_variance>
0.6188904643

$$$$
[H]OC(=O)C([H])([H])[C@@]([H])(C(=O)C([H])([H])Oc1c([H])c([H])c([H])c([H])c1[H])N([H])C(=O)[C@@]([H])(N([H])C(=O)[C@@]([H])(N([H])C(=O)OC([H])([H])c1c([H])c([H])c([H])c([H])c1[H])C([H])([H])c1c([H])c([H])c([H])c([H])c1[H])C([H])(C([H])([H])[H])C([H])([H])[H]


 48 50  0  0  0  0  0  0  0  0999 V2000
   11.3374   22.2644    1.8405 C   0  0  0  0  0  0  0  0  0  0  0  0
    9.9865   22.5052    2.2406 N   0  0  0  0  0  0  0  0  0  0  0  0
    9.4634   22.4694    3.5418 C   0  0  0  0  0  0  0  0  0  0  0  0
   10.2089   22.2090    4.5068 O   0  0  0  0  0  0  0  0  0  0  0  0
    9.2780   22.7403    1.4728 H   0  0  0  0  0  0  0  0  0  0  0  0
    8.0345   22.7287    3.8011 C   0  0  0  0  0  0  0  0  0  0  0  0
    7.6984   24.1296    3.6120 N   0  0  0  0  0  0  0  0  0  0  0  0
    7.6927   25.0077    4.7233 C   0  0  0  0  0  0  0  0  0  0  0  0
    7.9784   24.5201    5.8573 O   0  0  0  0  0  0  0  0  0  0  0  0
    7.4592   24.5113    2.6787 H   0  0  0  0  0  0  0  0  0  0  0  0
    7.4044   26.3617    4.6719 O   0  0  0  0  0  0  0  0  0  0  0  0
    6.0873   26.8508    4.8561 C   0  0  0  0  0  0  0  0  0  0  0  0
    5.7214   27.8669    3.8559 C   0  0  0  0  0  0  0  0  0  0  0  0
    4.4341   28.0169    3.4016 C   0  0  0  0  0  0  0  0  0  0  0  0
    4.1533   28.9899    2.4650 C   0  0  0  0  0  0  0  0  0  0  0  0
    5.1826   29.7999    2.0000 C   0  0  0  0  0  0  0  0  0  0  0  0
    6.4724   29.6631    2.4436 C   0  0  0  0  0  0  0  0  0  0  0  0
    6.7377   28.6816    3.3833 C   0  0  0  0  0  0  0  0  0  0  0  0
    7.1435   21.8532    2.9042 C   0  0  0  0  0  0  0  0  0  0  0  0
    6.6213   20.7490    3.7516 C   0  0  0  0  0  0  0  0  0  0  0  0
    5.9285   19.7107    3.1772 C   0  0  0  0  0  0  0  0  0  0  0  0
    5.4246   18.6614    3.9505 C   0  0  0  0  0  0  0  0  0  0  0  0
    5.6117   18.6410    5.3207 C   0  0  0  0  0  0  0  0  0  0  0  0
    6.3102   19.6900    5.8983 C   0  0  0  0  0  0  0  0  0  0  0  0
    6.8088   20.7336    5.1127 C   0  0  0  0  0  0  0  0  0  0  0  0
   11.8957   23.2494    0.8948 C   0  0  0  0  0  0  0  0  0  0  0  0
   11.4737   24.4307    0.8592 O   0  0  0  0  0  0  0  0  0  0  0  0
   12.9332   22.9145   -0.0259 N   0  0  0  0  0  0  0  0  0  0  0  0
   13.3346   21.9578   -0.0517 H   0  0  0  0  0  0  0  0  0  0  0  0
   13.4804   23.8802   -0.9683 C   0  0  0  0  0  0  0  0  0  0  0  0
   14.2355   23.0398   -1.9666 C   0  0  0  0  0  0  0  0  0  0  0  0
   14.1169   21.8178   -1.9908 O   0  0  0  0  0  0  0  0  0  0  0  0
   15.1481   23.6217   -2.9662 C   0  0  0  0  0  0  0  0  0  0  0  0
   14.5201   24.6840   -3.6309 O   0  0  0  0  0  0  0  0  0  0  0  0
   15.2472   25.8057   -3.9941 C   0  0  0  0  0  0  0  0  0  0  0  0
   15.0201   26.4025   -5.2096 C   0  0  0  0  0  0  0  0  0  0  0  0
   15.7706   27.5219   -5.5342 C   0  0  0  0  0  0  0  0  0  0  0  0
   16.7163   28.0099   -4.6469 C   0  0  0  0  0  0  0  0  0  0  0  0
   16.9447   27.4150   -3.4302 C   0  0  0  0  0  0  0  0  0  0  0  0
   16.1892   26.2978   -3.1162 C   0  0  0  0  0  0  0  0  0  0  0  0
   14.4221   24.8184   -0.2596 C   0  0  0  0  0  0  0  0  0  0  0  0
   15.6019   24.1210    0.2967 C   0  0  0  0  0  0  0  0  0  0  0  0
   16.8900   24.5440    0.0380 O   0  0  0  0  0  0  0  0  0  0  0  0
   15.4225   23.1148    1.0244 O   0  0  0  0  0  0  0  0  0  0  0  0
   17.6840   23.9152    0.0647 H   0  0  0  0  0  0  0  0  0  0  0  0
   11.8210   19.9876    2.6176 C   0  0  0  0  0  0  0  0  0  0  0  0
   11.5725   20.8376    1.3787 C   0  0  0  0  0  0  0  0  0  0  0  0
   10.4780   20.2397    0.5912 C   0  0  0  0  0  0  0  0  0  0  0  0
 46 47  1  0  0  0
 47 48  1  0  0  0
 47  1  1  0  0  0
  1  2  1  0  0  0
  2  3  1  0  0  0
  3  4  2  0  0  0
  3  6  1  0  0  0
  6 19  1  0  0  0
 19 20  1  0  0  0
 20 21  2  0  0  0
 21 22  1  0  0  0
 22 23  2  0  0  0
 23 24  1  0  0  0
 24 25  2  0  0  0
  6  7  1  0  0  0
  7  8  1  0  0  0
  8  9  2  0  0  0
  8 11  1  0  0  0
 11 12  1  0  0  0
 12 13  1  0  0  0
 13 14  2  0  0  0
 14 15  1  0  0  0
 15 16  2  0  0  0
 16 17  1  0  0  0
 17 18  2  0  0  0
  1 26  1  0  0  0
 26 27  2  0  0  0
 26 28  1  0  0  0
 28 30  1  0  0  0
 30 41  1  0  0  0
 41 42  1  0  0  0
 42 43  1  0  0  0
 42 44  2  0  0  0
 30 31  1  0  0  0
 31 32  2  0  0  0
 31 33  1  0  0  0
 33 34  1  0  0  0
 34 35  1  0  0  0
 35 36  2  0  0  0
 36 37  1  0  0  0
 37 38  2  0  0  0
 38 39  1  0  0  0
 39 40  2  0  0  0
 25 20  1  0  0  0
 18 13  1  0  0  0
 40 35  1  0  0  0
  2  5  1  0  0  0
  7 10  1  0  0  0
 28 29  1  0  0  0
 43 45  1  0  0  0
M  END
> <minimizedAffinity>
-8.20042

> <CNNscore>
0.1259819716

> <CNNaffinity>
6.7770767212

> <CNN_VS>
0.8537895083

> <CNNaffinity_variance>
0.2205300033

$$$$
[H]OC(=O)C([H])([H])[C@@]([H])(C(=O)C([H])([H])Oc1c([H])c([H])c([H])c([H])c1[H])N([H])C(=O)[C@@]([H])(N([H])C(=O)[C@@]([H])(N([H])C(=O)OC([H])([H])c1c([H])c([H])c([H])c([H])c1[H])C([H])([H])c1c([H])c([H])c([H])c([H])c1[H])C([H])(C([H])([H])[H])C([H])([H])[H]


 48 50  0  0  0  0  0  0  0  0999 V2000
    6.2783   20.7277    0.0003 C   0  0  0  0  0  0  0  0  0  0  0  0
    7.5692   20.9199    0.5830 N   0  0  0  0  0  0  0  0  0  0  0  0
    8.2719   22.1265    0.7195 C   0  0  0  0  0  0  0  0  0  0  0  0
    7.7678   23.1915    0.3115 O   0  0  0  0  0  0  0  0  0  0  0  0
    8.0736   20.0553    0.9636 H   0  0  0  0  0  0  0  0  0  0  0  0
    9.6118   22.1679    1.3354 C   0  0  0  0  0  0  0  0  0  0  0  0
   10.3629   23.3377    0.9127 N   0  0  0  0  0  0  0  0  0  0  0  0
   11.6526   23.1796    0.3491 C   0  0  0  0  0  0  0  0  0  0  0  0
   12.1063   22.0012    0.2448 O   0  0  0  0  0  0  0  0  0  0  0  0
    9.9806   24.2958    1.0122 H   0  0  0  0  0  0  0  0  0  0  0  0
   12.4599   24.2103   -0.1038 O   0  0  0  0  0  0  0  0  0  0  0  0
   12.0029   25.1492   -1.0617 C   0  0  0  0  0  0  0  0  0  0  0  0
   12.9285   25.2871   -2.1977 C   0  0  0  0  0  0  0  0  0  0  0  0
   12.8119   26.2992   -3.1186 C   0  0  0  0  0  0  0  0  0  0  0  0
   13.7125   26.3768   -4.1604 C   0  0  0  0  0  0  0  0  0  0  0  0
   14.7219   25.4261   -4.2559 C   0  0  0  0  0  0  0  0  0  0  0  0
   14.8520   24.4101   -3.3449 C   0  0  0  0  0  0  0  0  0  0  0  0
   13.9398   24.3459   -2.3054 C   0  0  0  0  0  0  0  0  0  0  0  0
    9.5147   22.1372    2.8698 C   0  0  0  0  0  0  0  0  0  0  0  0
    8.8469   23.3969    3.2907 C   0  0  0  0  0  0  0  0  0  0  0  0
    9.5281   24.5887    3.2315 C   0  0  0  0  0  0  0  0  0  0  0  0
    8.9254   25.7871    3.6233 C   0  0  0  0  0  0  0  0  0  0  0  0
    7.6209   25.8041    4.0828 C   0  0  0  0  0  0  0  0  0  0  0  0
    6.9358   24.6004    4.1427 C   0  0  0  0  0  0  0  0  0  0  0  0
    7.5511   23.4087    3.7476 C   0  0  0  0  0  0  0  0  0  0  0  0
    5.2468   20.2107    0.9195 C   0  0  0  0  0  0  0  0  0  0  0  0
    4.4765   20.9854    1.5371 O   0  0  0  0  0  0  0  0  0  0  0  0
    5.0732   18.8145    1.1581 N   0  0  0  0  0  0  0  0  0  0  0  0
    5.6710   18.1138    0.6799 H   0  0  0  0  0  0  0  0  0  0  0  0
    4.0634   18.2998    2.0721 C   0  0  0  0  0  0  0  0  0  0  0  0
    4.8307   17.3980    3.0054 C   0  0  0  0  0  0  0  0  0  0  0  0
    4.8629   16.1823    2.8348 O   0  0  0  0  0  0  0  0  0  0  0  0
    5.5844   17.9094    4.1634 C   0  0  0  0  0  0  0  0  0  0  0  0
    6.4133   16.9041    4.6805 O   0  0  0  0  0  0  0  0  0  0  0  0
    7.2418   17.1703    5.7582 C   0  0  0  0  0  0  0  0  0  0  0  0
    7.3125   16.2801    6.8011 C   0  0  0  0  0  0  0  0  0  0  0  0
    8.1530   16.5857    7.8605 C   0  0  0  0  0  0  0  0  0  0  0  0
    8.8916   17.7579    7.8501 C   0  0  0  0  0  0  0  0  0  0  0  0
    8.8229   18.6495    6.8075 C   0  0  0  0  0  0  0  0  0  0  0  0
    7.9807   18.3341    5.7547 C   0  0  0  0  0  0  0  0  0  0  0  0
    3.0332   17.5064    1.3115 C   0  0  0  0  0  0  0  0  0  0  0  0
    3.4849   17.1553   -0.0526 C   0  0  0  0  0  0  0  0  0  0  0  0
    4.3177   16.0812   -0.2926 O   0  0  0  0  0  0  0  0  0  0  0  0
    3.0978   17.8574   -1.0176 O   0  0  0  0  0  0  0  0  0  0  0  0
    4.9313   16.0388   -1.0977 H   0  0  0  0  0  0  0  0  0  0  0  0
    5.2136   20.4690   -2.1954 C   0  0  0  0  0  0  0  0  0  0  0  0
    6.3262   19.9430   -1.2982 C   0  0  0  0  0  0  0  0  0  0  0  0
    7.6071   20.0041   -2.0269 C   0  0  0  0  0  0  0  0  0  0  0  0
 46 47  1  0  0  0
 47 48  1  0  0  0
 47  1  1  0  0  0
  1  2  1  0  0  0
  2  3  1  0  0  0
  3  4  2  0  0  0
  3  6  1  0  0  0
  6 19  1  0  0  0
 19 20  1  0  0  0
 20 21  2  0  0  0
 21 22  1  0  0  0
 22 23  2  0  0  0
 23 24  1  0  0  0
 24 25  2  0  0  0
  6  7  1  0  0  0
  7  8  1  0  0  0
  8  9  2  0  0  0
  8 11  1  0  0  0
 11 12  1  0  0  0
 12 13  1  0  0  0
 13 14  2  0  0  0
 14 15  1  0  0  0
 15 16  2  0  0  0
 16 17  1  0  0  0
 17 18  2  0  0  0
  1 26  1  0  0  0
 26 27  2  0  0  0
 26 28  1  0  0  0
 28 30  1  0  0  0
 30 41  1  0  0  0
 41 42  1  0  0  0
 42 43  1  0  0  0
 42 44  2  0  0  0
 30 31  1  0  0  0
 31 32  2  0  0  0
 31 33  1  0  0  0
 33 34  1  0  0  0
 34 35  1  0  0  0
 35 36  2  0  0  0
 36 37  1  0  0  0
 37 38  2  0  0  0
 38 39  1  0  0  0
 39 40  2  0  0  0
 25 20  1  0  0  0
 18 13  1  0  0  0
 40 35  1  0  0  0
  2  5  1  0  0  0
  7 10  1  0  0  0
 28 29  1  0  0  0
 43 45  1  0  0  0
M  END
> <minimizedAffinity>
-7.85484

> <CNNscore>
0.1135587096

> <CNNaffinity>
6.2024221420

> <CNN_VS>
0.7043390274

> <CNNaffinity_variance>
0.2871324420

$$$$
[H]OC(=O)C([H])([H])[C@@]([H])(C(=O)C([H])([H])Oc1c([H])c([H])c([H])c([H])c1[H])N([H])C(=O)[C@@]([H])(N([H])C(=O)[C@@]([H])(N([H])C(=O)OC([H])([H])c1c([H])c([H])c([H])c([H])c1[H])C([H])([H])c1c([H])c([H])c([H])c([H])c1[H])C([H])(C([H])([H])[H])C([H])([H])[H]


 48 50  0  0  0  0  0  0  0  0999 V2000
    6.3145   20.6932   -0.5002 C   0  0  0  0  0  0  0  0  0  0  0  0
    7.6589   20.9539   -0.0909 N   0  0  0  0  0  0  0  0  0  0  0  0
    8.2078   22.1846    0.2995 C   0  0  0  0  0  0  0  0  0  0  0  0
    7.4949   23.2074    0.3190 O   0  0  0  0  0  0  0  0  0  0  0  0
    8.3399   20.1276   -0.0749 H   0  0  0  0  0  0  0  0  0  0  0  0
    9.6265   22.3031    0.6863 C   0  0  0  0  0  0  0  0  0  0  0  0
   10.2026   23.5609    0.2423 N   0  0  0  0  0  0  0  0  0  0  0  0
   10.9879   23.5978   -0.9358 C   0  0  0  0  0  0  0  0  0  0  0  0
   11.1637   22.5078   -1.5575 O   0  0  0  0  0  0  0  0  0  0  0  0
   10.0559   24.4426    0.7668 H   0  0  0  0  0  0  0  0  0  0  0  0
   11.5779   24.7320   -1.4692 O   0  0  0  0  0  0  0  0  0  0  0  0
   12.9697   24.9721   -1.3548 C   0  0  0  0  0  0  0  0  0  0  0  0
   13.5881   25.3122   -2.6465 C   0  0  0  0  0  0  0  0  0  0  0  0
   13.1687   26.3809   -3.4003 C   0  0  0  0  0  0  0  0  0  0  0  0
   13.7903   26.6503   -4.6018 C   0  0  0  0  0  0  0  0  0  0  0  0
   14.8310   25.8318   -5.0249 C   0  0  0  0  0  0  0  0  0  0  0  0
   15.2615   24.7618   -4.2841 C   0  0  0  0  0  0  0  0  0  0  0  0
   14.6270   24.5046   -3.0808 C   0  0  0  0  0  0  0  0  0  0  0  0
    9.7970   22.1600    2.2080 C   0  0  0  0  0  0  0  0  0  0  0  0
    9.1685   23.3538    2.8323 C   0  0  0  0  0  0  0  0  0  0  0  0
    7.9910   23.2253    3.5287 C   0  0  0  0  0  0  0  0  0  0  0  0
    7.3775   24.3312    4.1233 C   0  0  0  0  0  0  0  0  0  0  0  0
    7.9430   25.5897    4.0256 C   0  0  0  0  0  0  0  0  0  0  0  0
    9.1304   25.7172    3.3217 C   0  0  0  0  0  0  0  0  0  0  0  0
    9.7334   24.6023    2.7316 C   0  0  0  0  0  0  0  0  0  0  0  0
    5.4233   20.1880    0.5612 C   0  0  0  0  0  0  0  0  0  0  0  0
    4.8208   20.9716    1.3344 O   0  0  0  0  0  0  0  0  0  0  0  0
    5.2033   18.7933    0.7679 N   0  0  0  0  0  0  0  0  0  0  0  0
    5.6646   18.0858    0.1648 H   0  0  0  0  0  0  0  0  0  0  0  0
    4.3327   18.2893    1.8206 C   0  0  0  0  0  0  0  0  0  0  0  0
    5.2024   17.3340    2.5977 C   0  0  0  0  0  0  0  0  0  0  0  0
    5.6318   16.3029    2.0872 O   0  0  0  0  0  0  0  0  0  0  0  0
    5.5916   17.5736    3.9984 C   0  0  0  0  0  0  0  0  0  0  0  0
    4.4970   18.0617    4.7255 O   0  0  0  0  0  0  0  0  0  0  0  0
    4.5966   19.2594    5.4142 C   0  0  0  0  0  0  0  0  0  0  0  0
    3.9527   19.4105    6.6175 C   0  0  0  0  0  0  0  0  0  0  0  0
    4.0773   20.6257    7.2730 C   0  0  0  0  0  0  0  0  0  0  0  0
    4.8327   21.6451    6.7164 C   0  0  0  0  0  0  0  0  0  0  0  0
    5.4782   21.4959    5.5132 C   0  0  0  0  0  0  0  0  0  0  0  0
    5.3472   20.2781    4.8673 C   0  0  0  0  0  0  0  0  0  0  0  0
    3.1631   17.5558    1.2179 C   0  0  0  0  0  0  0  0  0  0  0  0
    3.2512   17.4663   -0.2559 C   0  0  0  0  0  0  0  0  0  0  0  0
    2.6931   18.4220   -1.0806 O   0  0  0  0  0  0  0  0  0  0  0  0
    3.8515   16.4908   -0.7680 O   0  0  0  0  0  0  0  0  0  0  0  0
    2.4009   18.2176   -2.0290 H   0  0  0  0  0  0  0  0  0  0  0  0
    5.0995   20.4046   -2.6125 C   0  0  0  0  0  0  0  0  0  0  0  0
    6.2324   19.8496   -1.7595 C   0  0  0  0  0  0  0  0  0  0  0  0
    7.4662   19.7963   -2.5661 C   0  0  0  0  0  0  0  0  0  0  0  0
 46 47  1  0  0  0
 47 48  1  0  0  0
 47  1  1  0  0  0
  1  2  1  0  0  0
  2  3  1  0  0  0
  3  4  2  0  0  0
  3  6  1  0  0  0
  6 19  1  0  0  0
 19 20  1  0  0  0
 20 21  2  0  0  0
 21 22  1  0  0  0
 22 23  2  0  0  0
 23 24  1  0  0  0
 24 25  2  0  0  0
  6  7  1  0  0  0
  7  8  1  0  0  0
  8  9  2  0  0  0
  8 11  1  0  0  0
 11 12  1  0  0  0
 12 13  1  0  0  0
 13 14  2  0  0  0
 14 15  1  0  0  0
 15 16  2  0  0  0
 16 17  1  0  0  0
 17 18  2  0  0  0
  1 26  1  0  0  0
 26 27  2  0  0  0
 26 28  1  0  0  0
 28 30  1  0  0  0
 30 41  1  0  0  0
 41 42  1  0  0  0
 42 43  1  0  0  0
 42 44  2  0  0  0
 30 31  1  0  0  0
 31 32  2  0  0  0
 31 33  1  0  0  0
 33 34  1  0  0  0
 34 35  1  0  0  0
 35 36  2  0  0  0
 36 37  1  0  0  0
 37 38  2  0  0  0
 38 39  1  0  0  0
 39 40  2  0  0  0
 25 20  1  0  0  0
 18 13  1  0  0  0
 40 35  1  0  0  0
  2  5  1  0  0  0
  7 10  1  0  0  0
 28 29  1  0  0  0
 43 45  1  0  0  0
M  END
> <minimizedAffinity>
-7.54696

> <CNNscore>
0.1061312631

> <CNNaffinity>
6.0695858002

> <CNN_VS>
0.6441727877

> <CNNaffinity_variance>
0.2812832296

$$$$
[H]Oc1c([H])c([H])c(C([H])([H])[C@@]([H])(C(=O)N2C([H])([H])C([H])([H])C([H])([H])[C@@]2([H])C(=O)N([H])[C@]([H])(C(=O)N([H])[C@]([H])(C(=O)N([H])[C@]([H])(C(=O)N([H])[H])C([H])([H])C([H])(C([H])([H])[H])C([H])([H])[H])C([H])([H])C([H])(C([H])([H])[H])C([H])([H])[H])C([H])([H])c2c([H])c([H])c([H])c([H])c2[H])N([H])[H])c([H])c1[H]


 55 57  0  0  0  0  0  0  0  0999 V2000
   13.1278   22.3521   -0.7059 C   0  0  0  0  0  0  0  0  0  0  0  0
   14.6160   24.2515   -1.3218 N   0  0  0  0  0  0  0  0  0  0  0  0
   13.4514   23.5806   -1.4761 C   0  0  0  0  0  0  0  0  0  0  0  0
   12.5098   23.9133   -2.2775 O   0  0  0  0  0  0  0  0  0  0  0  0
   14.1955   25.2421   -2.1321 H   0  0  0  0  0  0  0  0  0  0  0  0
   15.8073   24.9378   -1.1641 C   0  0  0  0  0  0  0  0  0  0  0  0
   16.2227   26.9270   -2.7678 N   0  0  0  0  0  0  0  0  0  0  0  0
   16.2711   25.5665   -2.4376 C   0  0  0  0  0  0  0  0  0  0  0  0
   16.7647   24.7789   -3.3150 O   0  0  0  0  0  0  0  0  0  0  0  0
   15.8485   27.6173   -2.1036 H   0  0  0  0  0  0  0  0  0  0  0  0
   16.7247   27.3507   -4.0688 C   0  0  0  0  0  0  0  0  0  0  0  0
   17.9372   28.2157   -3.9516 C   0  0  0  0  0  0  0  0  0  0  0  0
   19.2506   27.6780   -4.0912 N   0  0  0  0  0  0  0  0  0  0  0  0
   17.7918   29.4307   -3.7259 O   0  0  0  0  0  0  0  0  0  0  0  0
   20.0940   28.2216   -3.8177 H   0  0  0  0  0  0  0  0  0  0  0  0
   19.4321   26.7320   -4.4835 H   0  0  0  0  0  0  0  0  0  0  0  0
   15.6953   27.8312   -5.0161 C   0  0  0  0  0  0  0  0  0  0  0  0
   15.4852   25.5358   -6.0667 C   0  0  0  0  0  0  0  0  0  0  0  0
   14.8283   26.8221   -5.6606 C   0  0  0  0  0  0  0  0  0  0  0  0
   13.7792   26.4275   -4.5918 C   0  0  0  0  0  0  0  0  0  0  0  0
   16.9147   24.4509   -0.3233 C   0  0  0  0  0  0  0  0  0  0  0  0
   16.6295   24.0384    1.0763 C   0  0  0  0  0  0  0  0  0  0  0  0
   16.4778   22.4655    1.0887 C   0  0  0  0  0  0  0  0  0  0  0  0
   15.2849   24.5723    1.5356 C   0  0  0  0  0  0  0  0  0  0  0  0
   12.3264   22.5774    0.4605 N   0  0  0  0  0  0  0  0  0  0  0  0
   12.5407   21.7485    1.6407 C   0  0  0  0  0  0  0  0  0  0  0  0
   13.4683   20.9445    1.5373 O   0  0  0  0  0  0  0  0  0  0  0  0
   11.6393   23.3155    0.5105 H   0  0  0  0  0  0  0  0  0  0  0  0
   11.6415   21.9908    2.7071 C   0  0  0  0  0  0  0  0  0  0  0  0
   11.2936   20.6918    3.4376 C   0  0  0  0  0  0  0  0  0  0  0  0
   10.2208   21.1150    4.4275 C   0  0  0  0  0  0  0  0  0  0  0  0
    9.9804   22.5646    4.0494 C   0  0  0  0  0  0  0  0  0  0  0  0
   10.3858   22.6285    2.6312 N   0  0  0  0  0  0  0  0  0  0  0  0
    9.5770   23.2092    1.6416 C   0  0  0  0  0  0  0  0  0  0  0  0
    9.9104   23.1665    0.3933 O   0  0  0  0  0  0  0  0  0  0  0  0
    8.3148   23.9291    1.8384 C   0  0  0  0  0  0  0  0  0  0  0  0
    7.2494   22.9225    1.5521 N   0  0  0  0  0  0  0  0  0  0  0  0
    7.7043   22.0803    1.1463 H   0  0  0  0  0  0  0  0  0  0  0  0
    6.7783   22.6657    2.4323 H   0  0  0  0  0  0  0  0  0  0  0  0
    8.0829   24.3974    3.2220 C   0  0  0  0  0  0  0  0  0  0  0  0
    7.2851   25.5829    3.4639 C   0  0  0  0  0  0  0  0  0  0  0  0
    6.2856   25.4933    4.4257 C   0  0  0  0  0  0  0  0  0  0  0  0
    5.5094   26.5803    4.7428 C   0  0  0  0  0  0  0  0  0  0  0  0
    5.7066   27.7871    4.1160 C   0  0  0  0  0  0  0  0  0  0  0  0
    4.8753   28.8458    4.5014 O   0  0  0  0  0  0  0  0  0  0  0  0
    6.6931   27.9065    3.1558 C   0  0  0  0  0  0  0  0  0  0  0  0
    7.4567   26.8009    2.8565 C   0  0  0  0  0  0  0  0  0  0  0  0
    5.1269   29.4432    5.2502 H   0  0  0  0  0  0  0  0  0  0  0  0
   12.5922   21.2112   -1.5088 C   0  0  0  0  0  0  0  0  0  0  0  0
   11.2170   20.7561   -1.2822 C   0  0  0  0  0  0  0  0  0  0  0  0
   10.2042   21.2279   -2.1626 C   0  0  0  0  0  0  0  0  0  0  0  0
    8.8842   20.8550   -2.0006 C   0  0  0  0  0  0  0  0  0  0  0  0
    8.4744   20.0116   -0.9867 C   0  0  0  0  0  0  0  0  0  0  0  0
    9.4384   19.5447   -0.1231 C   0  0  0  0  0  0  0  0  0  0  0  0
   10.7883   19.9268   -0.2896 C   0  0  0  0  0  0  0  0  0  0  0  0
 18 19  1  0  0  0
 19 20  1  0  0  0
 19 17  1  0  0  0
 17 11  1  0  0  0
 11  7  1  0  0  0
  7  8  1  0  0  0
  8  9  2  0  0  0
  8  6  1  0  0  0
  6 21  1  0  0  0
 21 22  1  0  0  0
 22 23  1  0  0  0
 22 24  1  0  0  0
  6  2  1  0  0  0
  2  3  1  0  0  0
  3  4  2  0  0  0
  3  1  1  0  0  0
  1 49  1  0  0  0
 49 50  1  0  0  0
 50 51  2  0  0  0
 51 52  1  0  0  0
 52 53  2  0  0  0
 53 54  1  0  0  0
 54 55  2  0  0  0
  1 25  1  0  0  0
 25 26  1  0  0  0
 26 27  2  0  0  0
 26 29  1  0  0  0
 29 30  1  0  0  0
 30 31  1  0  0  0
 31 32  1  0  0  0
 32 33  1  0  0  0
 33 34  1  0  0  0
 34 35  2  0  0  0
 34 36  1  0  0  0
 36 37  1  0  0  0
 36 40  1  0  0  0
 40 41  1  0  0  0
 41 42  2  0  0  0
 42 43  1  0  0  0
 43 44  2  0  0  0
 44 45  1  0  0  0
 44 46  1  0  0  0
 46 47  2  0  0  0
 11 12  1  0  0  0
 12 13  1  0  0  0
 12 14  2  0  0  0
 55 50  1  0  0  0
 33 29  1  0  0  0
 47 41  1  0  0  0
  7 10  1  0  0  0
  2  5  1  0  0  0
 25 28  1  0  0  0
 37 38  1  0  0  0
 37 39  1  0  0  0
 45 48  1  0  0  0
 13 15  1  0  0  0
 13 16  1  0  0  0
M  END
> <minimizedAffinity>
-5.14961

> <CNNscore>
0.3176623285

> <CNNaffinity>
7.8209137917

> <CNN_VS>
2.4844095707

> <CNNaffinity_variance>
0.1068502441

$$$$
[H]Oc1c([H])c([H])c(C([H])([H])[C@@]([H])(C(=O)N2C([H])([H])C([H])([H])C([H])([H])[C@@]2([H])C(=O)N([H])[C@]([H])(C(=O)N([H])[C@]([H])(C(=O)N([H])[C@]([H])(C(=O)N([H])[H])C([H])([H])C([H])(C([H])([H])[H])C([H])([H])[H])C([H])([H])C([H])(C([H])([H])[H])C([H])([H])[H])C([H])([H])c2c([H])c([H])c([H])c([H])c2[H])N([H])[H])c([H])c1[H]


 55 57  0  0  0  0  0  0  0  0999 V2000
   11.8222   23.7228   -1.4208 C   0  0  0  0  0  0  0  0  0  0  0  0
   12.3124   21.4382   -0.5592 N   0  0  0  0  0  0  0  0  0  0  0  0
   12.6522   22.4936   -1.3344 C   0  0  0  0  0  0  0  0  0  0  0  0
   13.7018   22.5642   -2.0645 O   0  0  0  0  0  0  0  0  0  0  0  0
   13.4808   20.8215   -0.8223 H   0  0  0  0  0  0  0  0  0  0  0  0
   11.9649   20.3586    0.2337 C   0  0  0  0  0  0  0  0  0  0  0  0
    9.4382   20.6736   -0.2336 N   0  0  0  0  0  0  0  0  0  0  0  0
   10.5761   19.8799   -0.0392 C   0  0  0  0  0  0  0  0  0  0  0  0
   10.4121   18.6139   -0.1031 O   0  0  0  0  0  0  0  0  0  0  0  0
    9.5009   21.6997   -0.2069 H   0  0  0  0  0  0  0  0  0  0  0  0
    8.1615   20.0180   -0.4874 C   0  0  0  0  0  0  0  0  0  0  0  0
    7.9294   19.7787   -1.9437 C   0  0  0  0  0  0  0  0  0  0  0  0
    8.5647   20.5781   -2.9392 N   0  0  0  0  0  0  0  0  0  0  0  0
    7.1631   18.8614   -2.2896 O   0  0  0  0  0  0  0  0  0  0  0  0
    8.2619   20.5525   -3.9338 H   0  0  0  0  0  0  0  0  0  0  0  0
    9.3644   21.2087   -2.7280 H   0  0  0  0  0  0  0  0  0  0  0  0
    7.0084   20.5751    0.2528 C   0  0  0  0  0  0  0  0  0  0  0  0
    6.3167   18.1658    0.6181 C   0  0  0  0  0  0  0  0  0  0  0  0
    6.0160   19.6247    0.7979 C   0  0  0  0  0  0  0  0  0  0  0  0
    6.0112   19.8569    2.3291 C   0  0  0  0  0  0  0  0  0  0  0  0
   12.3487   20.2406    1.6511 C   0  0  0  0  0  0  0  0  0  0  0  0
   11.2890   20.0099    2.6679 C   0  0  0  0  0  0  0  0  0  0  0  0
   11.0281   21.3829    3.4053 C   0  0  0  0  0  0  0  0  0  0  0  0
   11.7732   19.0619    3.7500 C   0  0  0  0  0  0  0  0  0  0  0  0
   10.6093   23.6739   -0.6592 N   0  0  0  0  0  0  0  0  0  0  0  0
   10.6758   23.8022    0.7917 C   0  0  0  0  0  0  0  0  0  0  0  0
   11.8067   24.0100    1.2337 O   0  0  0  0  0  0  0  0  0  0  0  0
    9.7013   23.5895   -1.0926 H   0  0  0  0  0  0  0  0  0  0  0  0
    9.4355   23.6532    1.4579 C   0  0  0  0  0  0  0  0  0  0  0  0
    8.2753   23.6338    0.4601 C   0  0  0  0  0  0  0  0  0  0  0  0
    7.0413   23.6259    1.3472 C   0  0  0  0  0  0  0  0  0  0  0  0
    7.6347   23.7870    2.7343 C   0  0  0  0  0  0  0  0  0  0  0  0
    8.9213   24.4679    2.4880 N   0  0  0  0  0  0  0  0  0  0  0  0
    9.3188   25.6092    3.2021 C   0  0  0  0  0  0  0  0  0  0  0  0
   10.4046   26.2433    2.9019 O   0  0  0  0  0  0  0  0  0  0  0  0
    8.6321   26.2255    4.3417 C   0  0  0  0  0  0  0  0  0  0  0  0
    9.3208   27.5352    4.5433 N   0  0  0  0  0  0  0  0  0  0  0  0
   10.1681   27.5483    3.9409 H   0  0  0  0  0  0  0  0  0  0  0  0
    8.6891   28.2992    4.2609 H   0  0  0  0  0  0  0  0  0  0  0  0
    7.2060   26.5383    4.1047 C   0  0  0  0  0  0  0  0  0  0  0  0
    6.8340   27.7609    3.4214 C   0  0  0  0  0  0  0  0  0  0  0  0
    6.5195   27.6658    2.0707 C   0  0  0  0  0  0  0  0  0  0  0  0
    6.1207   28.7691    1.3577 C   0  0  0  0  0  0  0  0  0  0  0  0
    6.0199   29.9966    1.9672 C   0  0  0  0  0  0  0  0  0  0  0  0
    5.6015   31.0687    1.1697 O   0  0  0  0  0  0  0  0  0  0  0  0
    6.3256   30.1217    3.3089 C   0  0  0  0  0  0  0  0  0  0  0  0
    6.7234   28.9997    4.0001 C   0  0  0  0  0  0  0  0  0  0  0  0
    4.6398   31.2841    1.0710 H   0  0  0  0  0  0  0  0  0  0  0  0
   12.5482   25.0076   -1.1857 C   0  0  0  0  0  0  0  0  0  0  0  0
   13.2816   25.6313   -2.2915 C   0  0  0  0  0  0  0  0  0  0  0  0
   14.6931   25.4603   -2.3368 C   0  0  0  0  0  0  0  0  0  0  0  0
   15.4517   26.0323   -3.3393 C   0  0  0  0  0  0  0  0  0  0  0  0
   14.8915   26.7946   -4.3455 C   0  0  0  0  0  0  0  0  0  0  0  0
   13.5275   26.9734   -4.3196 C   0  0  0  0  0  0  0  0  0  0  0  0
   12.7524   26.3879   -3.2937 C   0  0  0  0  0  0  0  0  0  0  0  0
 18 19  1  0  0  0
 19 20  1  0  0  0
 19 17  1  0  0  0
 17 11  1  0  0  0
 11  7  1  0  0  0
  7  8  1  0  0  0
  8  9  2  0  0  0
  8  6  1  0  0  0
  6 21  1  0  0  0
 21 22  1  0  0  0
 22 23  1  0  0  0
 22 24  1  0  0  0
  6  2  1  0  0  0
  2  3  1  0  0  0
  3  4  2  0  0  0
  3  1  1  0  0  0
  1 49  1  0  0  0
 49 50  1  0  0  0
 50 51  2  0  0  0
 51 52  1  0  0  0
 52 53  2  0  0  0
 53 54  1  0  0  0
 54 55  2  0  0  0
  1 25  1  0  0  0
 25 26  1  0  0  0
 26 27  2  0  0  0
 26 29  1  0  0  0
 29 30  1  0  0  0
 30 31  1  0  0  0
 31 32  1  0  0  0
 32 33  1  0  0  0
 33 34  1  0  0  0
 34 35  2  0  0  0
 34 36  1  0  0  0
 36 37  1  0  0  0
 36 40  1  0  0  0
 40 41  1  0  0  0
 41 42  2  0  0  0
 42 43  1  0  0  0
 43 44  2  0  0  0
 44 45  1  0  0  0
 44 46  1  0  0  0
 46 47  2  0  0  0
 11 12  1  0  0  0
 12 13  1  0  0  0
 12 14  2  0  0  0
 55 50  1  0  0  0
 33 29  1  0  0  0
 47 41  1  0  0  0
  7 10  1  0  0  0
  2  5  1  0  0  0
 25 28  1  0  0  0
 37 38  1  0  0  0
 37 39  1  0  0  0
 45 48  1  0  0  0
 13 15  1  0  0  0
 13 16  1  0  0  0
M  END
> <minimizedAffinity>
-6.53674

> <CNNscore>
0.2802125216

> <CNNaffinity>
7.5071411133

> <CNN_VS>
2.1035950184

> <CNNaffinity_variance>
0.2642918527

$$$$
[H]Oc1c([H])c([H])c(C([H])([H])[C@@]([H])(C(=O)N2C([H])([H])C([H])([H])C([H])([H])[C@@]2([H])C(=O)N([H])[C@]([H])(C(=O)N([H])[C@]([H])(C(=O)N([H])[C@]([H])(C(=O)N([H])[H])C([H])([H])C([H])(C([H])([H])[H])C([H])([H])[H])C([H])([H])C([H])(C([H])([H])[H])C([H])([H])[H])C([H])([H])c2c([H])c([H])c([H])c([H])c2[H])N([H])[H])c([H])c1[H]


 55 57  0  0  0  0  0  0  0  0999 V2000
    8.7843   24.0479    2.7007 C   0  0  0  0  0  0  0  0  0  0  0  0
   10.5098   23.3397    1.0505 N   0  0  0  0  0  0  0  0  0  0  0  0
   10.0717   23.4064    2.3287 C   0  0  0  0  0  0  0  0  0  0  0  0
   10.6911   22.9355    3.3457 O   0  0  0  0  0  0  0  0  0  0  0  0
   11.5514   22.5643    1.4090 H   0  0  0  0  0  0  0  0  0  0  0  0
   10.9580   23.2714   -0.2570 C   0  0  0  0  0  0  0  0  0  0  0  0
   13.0808   22.4992   -1.5215 N   0  0  0  0  0  0  0  0  0  0  0  0
   12.3175   22.6600   -0.3579 C   0  0  0  0  0  0  0  0  0  0  0  0
   12.8368   22.2424    0.7328 O   0  0  0  0  0  0  0  0  0  0  0  0
   12.7284   22.8234   -2.4317 H   0  0  0  0  0  0  0  0  0  0  0  0
   14.3930   21.8733   -1.4181 C   0  0  0  0  0  0  0  0  0  0  0  0
   14.3653   20.6402   -0.5752 C   0  0  0  0  0  0  0  0  0  0  0  0
   15.1036   20.5545    0.6419 N   0  0  0  0  0  0  0  0  0  0  0  0
   13.6825   19.6693   -0.9489 O   0  0  0  0  0  0  0  0  0  0  0  0
   15.2505   19.6467    1.1276 H   0  0  0  0  0  0  0  0  0  0  0  0
   15.5151   21.3874    1.1097 H   0  0  0  0  0  0  0  0  0  0  0  0
   15.5137   22.7995   -1.1460 C   0  0  0  0  0  0  0  0  0  0  0  0
   15.1952   23.5876   -3.5322 C   0  0  0  0  0  0  0  0  0  0  0  0
   15.9606   23.6812   -2.2451 C   0  0  0  0  0  0  0  0  0  0  0  0
   15.7364   25.1276   -1.7389 C   0  0  0  0  0  0  0  0  0  0  0  0
   10.7299   24.3394   -1.2458 C   0  0  0  0  0  0  0  0  0  0  0  0
   11.5639   25.5686   -1.1845 C   0  0  0  0  0  0  0  0  0  0  0  0
   12.4715   25.5944   -2.4778 C   0  0  0  0  0  0  0  0  0  0  0  0
   12.5335   25.5083   -0.0182 C   0  0  0  0  0  0  0  0  0  0  0  0
    7.7221   23.1273    2.9799 N   0  0  0  0  0  0  0  0  0  0  0  0
    7.6744   22.4713    4.2812 C   0  0  0  0  0  0  0  0  0  0  0  0
    8.5514   22.8331    5.0669 O   0  0  0  0  0  0  0  0  0  0  0  0
    6.9806   22.9406    2.3206 H   0  0  0  0  0  0  0  0  0  0  0  0
    6.6392   21.5164    4.4265 C   0  0  0  0  0  0  0  0  0  0  0  0
    6.9131   20.5859    5.6103 C   0  0  0  0  0  0  0  0  0  0  0  0
    5.8022   19.5529    5.5171 C   0  0  0  0  0  0  0  0  0  0  0  0
    5.1153   19.9277    4.2172 C   0  0  0  0  0  0  0  0  0  0  0  0
    6.1720   20.6145    3.4481 N   0  0  0  0  0  0  0  0  0  0  0  0
    6.4655   20.2895    2.1143 C   0  0  0  0  0  0  0  0  0  0  0  0
    7.4584   20.8374    1.4939 O   0  0  0  0  0  0  0  0  0  0  0  0
    5.7392   19.3542    1.2496 C   0  0  0  0  0  0  0  0  0  0  0  0
    4.8756   20.2171    0.3894 N   0  0  0  0  0  0  0  0  0  0  0  0
    4.9185   21.1868    0.7621 H   0  0  0  0  0  0  0  0  0  0  0  0
    5.2370   20.2059   -0.5759 H   0  0  0  0  0  0  0  0  0  0  0  0
    6.5959   18.5753    0.3292 C   0  0  0  0  0  0  0  0  0  0  0  0
    7.2468   19.2307   -0.7875 C   0  0  0  0  0  0  0  0  0  0  0  0
    8.4797   19.8258   -0.5468 C   0  0  0  0  0  0  0  0  0  0  0  0
    9.1808   20.4349   -1.5578 C   0  0  0  0  0  0  0  0  0  0  0  0
    8.6784   20.4669   -2.8364 C   0  0  0  0  0  0  0  0  0  0  0  0
    9.4587   21.1034   -3.8092 O   0  0  0  0  0  0  0  0  0  0  0  0
    7.4552   19.8833   -3.1060 C   0  0  0  0  0  0  0  0  0  0  0  0
    6.7729   19.2798   -2.0738 C   0  0  0  0  0  0  0  0  0  0  0  0
   10.1388   20.6005   -4.3246 H   0  0  0  0  0  0  0  0  0  0  0  0
    8.8710   25.0992    3.7590 C   0  0  0  0  0  0  0  0  0  0  0  0
    7.7599   26.0406    3.9295 C   0  0  0  0  0  0  0  0  0  0  0  0
    7.9363   27.3729    3.4633 C   0  0  0  0  0  0  0  0  0  0  0  0
    6.9398   28.3186    3.6046 C   0  0  0  0  0  0  0  0  0  0  0  0
    5.7272   28.0303    4.1993 C   0  0  0  0  0  0  0  0  0  0  0  0
    5.5363   26.7473    4.6583 C   0  0  0  0  0  0  0  0  0  0  0  0
    6.5564   25.7806    4.5133 C   0  0  0  0  0  0  0  0  0  0  0  0
 18 19  1  0  0  0
 19 20  1  0  0  0
 19 17  1  0  0  0
 17 11  1  0  0  0
 11  7  1  0  0  0
  7  8  1  0  0  0
  8  9  2  0  0  0
  8  6  1  0  0  0
  6 21  1  0  0  0
 21 22  1  0  0  0
 22 23  1  0  0  0
 22 24  1  0  0  0
  6  2  1  0  0  0
  2  3  1  0  0  0
  3  4  2  0  0  0
  3  1  1  0  0  0
  1 49  1  0  0  0
 49 50  1  0  0  0
 50 51  2  0  0  0
 51 52  1  0  0  0
 52 53  2  0  0  0
 53 54  1  0  0  0
 54 55  2  0  0  0
  1 25  1  0  0  0
 25 26  1  0  0  0
 26 27  2  0  0  0
 26 29  1  0  0  0
 29 30  1  0  0  0
 30 31  1  0  0  0
 31 32  1  0  0  0
 32 33  1  0  0  0
 33 34  1  0  0  0
 34 35  2  0  0  0
 34 36  1  0  0  0
 36 37  1  0  0  0
 36 40  1  0  0  0
 40 41  1  0  0  0
 41 42  2  0  0  0
 42 43  1  0  0  0
 43 44  2  0  0  0
 44 45  1  0  0  0
 44 46  1  0  0  0
 46 47  2  0  0  0
 11 12  1  0  0  0
 12 13  1  0  0  0
 12 14  2  0  0  0
 55 50  1  0  0  0
 33 29  1  0  0  0
 47 41  1  0  0  0
  7 10  1  0  0  0
  2  5  1  0  0  0
 25 28  1  0  0  0
 37 38  1  0  0  0
 37 39  1  0  0  0
 45 48  1  0  0  0
 13 15  1  0  0  0
 13 16  1  0  0  0
M  END
> <minimizedAffinity>
-5.38706

> <CNNscore>
0.2726678848

> <CNNaffinity>
7.4559111595

> <CNN_VS>
2.0329875946

> <CNNaffinity_variance>
0.1477500349

$$$$
[H]Oc1c([H])c([H])c(C([H])([H])[C@@]([H])(C(=O)N2C([H])([H])C([H])([H])C([H])([H])[C@@]2([H])C(=O)N([H])[C@]([H])(C(=O)N([H])[C@]([H])(C(=O)N([H])[C@]([H])(C(=O)N([H])[H])C([H])([H])C([H])(C([H])([H])[H])C([H])([H])[H])C([H])([H])C([H])(C([H])([H])[H])C([H])([H])[H])C([H])([H])c2c([H])c([H])c([H])c([H])c2[H])N([H])[H])c([H])c1[H]


 55 57  0  0  0  0  0  0  0  0999 V2000
   11.5891   25.1628   -0.2477 C   0  0  0  0  0  0  0  0  0  0  0  0
   10.0423   24.8252    1.6746 N   0  0  0  0  0  0  0  0  0  0  0  0
   10.3645   24.6025    0.3797 C   0  0  0  0  0  0  0  0  0  0  0  0
    9.6774   23.8988   -0.4403 O   0  0  0  0  0  0  0  0  0  0  0  0
    9.0039   23.9702    1.6018 H   0  0  0  0  0  0  0  0  0  0  0  0
    9.7126   25.0531    2.9991 C   0  0  0  0  0  0  0  0  0  0  0  0
    9.0519   22.5535    3.1297 N   0  0  0  0  0  0  0  0  0  0  0  0
    9.3328   23.7962    3.7121 C   0  0  0  0  0  0  0  0  0  0  0  0
    9.2589   23.8642    4.9863 O   0  0  0  0  0  0  0  0  0  0  0  0
    9.1040   22.4255    2.1106 H   0  0  0  0  0  0  0  0  0  0  0  0
    8.6952   21.4377    3.9969 C   0  0  0  0  0  0  0  0  0  0  0  0
    7.2162   21.2540    4.1010 C   0  0  0  0  0  0  0  0  0  0  0  0
    6.4118   21.0278    2.9454 N   0  0  0  0  0  0  0  0  0  0  0  0
    6.6800   21.3018    5.2228 O   0  0  0  0  0  0  0  0  0  0  0  0
    5.3747   21.0970    2.9811 H   0  0  0  0  0  0  0  0  0  0  0  0
    6.8144   20.7695    2.0218 H   0  0  0  0  0  0  0  0  0  0  0  0
    9.4312   21.3746    5.2784 C   0  0  0  0  0  0  0  0  0  0  0  0
    9.3159   18.8614    5.5736 C   0  0  0  0  0  0  0  0  0  0  0  0
   10.1361   20.1173    5.6063 C   0  0  0  0  0  0  0  0  0  0  0  0
   11.2064   19.9370    4.5015 C   0  0  0  0  0  0  0  0  0  0  0  0
    8.9459   26.2274    3.4500 C   0  0  0  0  0  0  0  0  0  0  0  0
    7.5247   26.3630    3.0352 C   0  0  0  0  0  0  0  0  0  0  0  0
    7.2021   27.9067    2.9347 C   0  0  0  0  0  0  0  0  0  0  0  0
    6.5933   25.8301    4.1087 C   0  0  0  0  0  0  0  0  0  0  0  0
   12.7966   24.4650    0.0820 N   0  0  0  0  0  0  0  0  0  0  0  0
   13.9012   25.2019    0.6842 C   0  0  0  0  0  0  0  0  0  0  0  0
   13.6567   26.3867    0.9167 O   0  0  0  0  0  0  0  0  0  0  0  0
   12.9007   23.4699   -0.0539 H   0  0  0  0  0  0  0  0  0  0  0  0
   15.0782   24.4427    0.8908 C   0  0  0  0  0  0  0  0  0  0  0  0
   16.2997   25.1527    0.3027 C   0  0  0  0  0  0  0  0  0  0  0  0
   17.4194   24.1398    0.4761 C   0  0  0  0  0  0  0  0  0  0  0  0
   16.6818   22.9245    1.0063 C   0  0  0  0  0  0  0  0  0  0  0  0
   15.3045   23.1048    0.5061 N   0  0  0  0  0  0  0  0  0  0  0  0
   14.6021   22.0833   -0.1525 C   0  0  0  0  0  0  0  0  0  0  0  0
   13.4351   22.2960   -0.6663 O   0  0  0  0  0  0  0  0  0  0  0  0
   15.0299   20.6938   -0.3426 C   0  0  0  0  0  0  0  0  0  0  0  0
   15.6163   20.2889    0.9698 N   0  0  0  0  0  0  0  0  0  0  0  0
   15.6984   21.1403    1.5609 H   0  0  0  0  0  0  0  0  0  0  0  0
   14.9880   19.6132    1.4295 H   0  0  0  0  0  0  0  0  0  0  0  0
   13.9301   19.7435   -0.6171 C   0  0  0  0  0  0  0  0  0  0  0  0
   12.5654   20.0939   -0.2780 C   0  0  0  0  0  0  0  0  0  0  0  0
   11.7146   20.4293   -1.3248 C   0  0  0  0  0  0  0  0  0  0  0  0
   10.3967   20.7372   -1.0946 C   0  0  0  0  0  0  0  0  0  0  0  0
    9.8865   20.7172    0.1813 C   0  0  0  0  0  0  0  0  0  0  0  0
    8.5318   21.0390    0.3282 O   0  0  0  0  0  0  0  0  0  0  0  0
   10.7084   20.3872    1.2419 C   0  0  0  0  0  0  0  0  0  0  0  0
   12.0259   20.0832    0.9831 C   0  0  0  0  0  0  0  0  0  0  0  0
    7.8340   20.3383    0.2743 H   0  0  0  0  0  0  0  0  0  0  0  0
   11.5022   25.4129   -1.7184 C   0  0  0  0  0  0  0  0  0  0  0  0
   12.7363   25.5430   -2.4993 C   0  0  0  0  0  0  0  0  0  0  0  0
   13.6164   24.4265   -2.5478 C   0  0  0  0  0  0  0  0  0  0  0  0
   14.8046   24.4815   -3.2497 C   0  0  0  0  0  0  0  0  0  0  0  0
   15.2037   25.6101   -3.9384 C   0  0  0  0  0  0  0  0  0  0  0  0
   14.3672   26.7020   -3.9035 C   0  0  0  0  0  0  0  0  0  0  0  0
   13.1520   26.6447   -3.1852 C   0  0  0  0  0  0  0  0  0  0  0  0
 18 19  1  0  0  0
 19 20  1  0  0  0
 19 17  1  0  0  0
 17 11  1  0  0  0
 11  7  1  0  0  0
  7  8  1  0  0  0
  8  9  2  0  0  0
  8  6  1  0  0  0
  6 21  1  0  0  0
 21 22  1  0  0  0
 22 23  1  0  0  0
 22 24  1  0  0  0
  6  2  1  0  0  0
  2  3  1  0  0  0
  3  4  2  0  0  0
  3  1  1  0  0  0
  1 49  1  0  0  0
 49 50  1  0  0  0
 50 51  2  0  0  0
 51 52  1  0  0  0
 52 53  2  0  0  0
 53 54  1  0  0  0
 54 55  2  0  0  0
  1 25  1  0  0  0
 25 26  1  0  0  0
 26 27  2  0  0  0
 26 29  1  0  0  0
 29 30  1  0  0  0
 30 31  1  0  0  0
 31 32  1  0  0  0
 32 33  1  0  0  0
 33 34  1  0  0  0
 34 35  2  0  0  0
 34 36  1  0  0  0
 36 37  1  0  0  0
 36 40  1  0  0  0
 40 41  1  0  0  0
 41 42  2  0  0  0
 42 43  1  0  0  0
 43 44  2  0  0  0
 44 45  1  0  0  0
 44 46  1  0  0  0
 46 47  2  0  0  0
 11 12  1  0  0  0
 12 13  1  0  0  0
 12 14  2  0  0  0
 55 50  1  0  0  0
 33 29  1  0  0  0
 47 41  1  0  0  0
  7 10  1  0  0  0
  2  5  1  0  0  0
 25 28  1  0  0  0
 37 38  1  0  0  0
 37 39  1  0  0  0
 45 48  1  0  0  0
 13 15  1  0  0  0
 13 16  1  0  0  0
M  END
> <minimizedAffinity>
-4.79132

> <CNNscore>
0.2711680532

> <CNNaffinity>
7.5848679543

> <CNN_VS>
2.0567739010

> <CNNaffinity_variance>
0.5411593914

$$$$
[H]Oc1c([H])c([H])c(C([H])([H])[C@@]([H])(C(=O)N2C([H])([H])C([H])([H])C([H])([H])[C@@]2([H])C(=O)N([H])[C@]([H])(C(=O)N([H])[C@]([H])(C(=O)N([H])[C@]([H])(C(=O)N([H])[H])C([H])([H])C([H])(C([H])([H])[H])C([H])([H])[H])C([H])([H])C([H])(C([H])([H])[H])C([H])([H])[H])C([H])([H])c2c([H])c([H])c([H])c([H])c2[H])N([H])[H])c([H])c1[H]


 55 57  0  0  0  0  0  0  0  0999 V2000
   10.0013   24.1338    1.8568 C   0  0  0  0  0  0  0  0  0  0  0  0
   10.6422   22.4169    3.5430 N   0  0  0  0  0  0  0  0  0  0  0  0
    9.9689   23.5451    3.2205 C   0  0  0  0  0  0  0  0  0  0  0  0
    9.2386   24.2230    4.0247 O   0  0  0  0  0  0  0  0  0  0  0  0
   10.0821   22.3886    4.7678 H   0  0  0  0  0  0  0  0  0  0  0  0
   11.3309   21.2629    3.8731 C   0  0  0  0  0  0  0  0  0  0  0  0
   12.7385   21.2395    1.7006 N   0  0  0  0  0  0  0  0  0  0  0  0
   11.9550   20.6155    2.6799 C   0  0  0  0  0  0  0  0  0  0  0  0
   11.7528   19.3610    2.5415 O   0  0  0  0  0  0  0  0  0  0  0  0
   12.9503   22.2443    1.7568 H   0  0  0  0  0  0  0  0  0  0  0  0
   13.2606   20.4350    0.6032 C   0  0  0  0  0  0  0  0  0  0  0  0
   14.7419   20.5679    0.4607 C   0  0  0  0  0  0  0  0  0  0  0  0
   15.5288   21.2220    1.4539 N   0  0  0  0  0  0  0  0  0  0  0  0
   15.2953   20.0967   -0.5493 O   0  0  0  0  0  0  0  0  0  0  0  0
   16.5167   21.4935    1.2751 H   0  0  0  0  0  0  0  0  0  0  0  0
   15.1652   21.4449    2.4026 H   0  0  0  0  0  0  0  0  0  0  0  0
   12.4947   20.5179   -0.6595 C   0  0  0  0  0  0  0  0  0  0  0  0
   10.6101   21.7513   -1.8187 C   0  0  0  0  0  0  0  0  0  0  0  0
   11.1155   21.0460   -0.5947 C   0  0  0  0  0  0  0  0  0  0  0  0
   10.2005   19.8076   -0.4277 C   0  0  0  0  0  0  0  0  0  0  0  0
   10.8494   20.2924    4.8714 C   0  0  0  0  0  0  0  0  0  0  0  0
    9.5938   20.5836    5.6123 C   0  0  0  0  0  0  0  0  0  0  0  0
    8.4027   19.9228    4.8112 C   0  0  0  0  0  0  0  0  0  0  0  0
    9.2969   22.0721    5.6123 C   0  0  0  0  0  0  0  0  0  0  0  0
   11.1081   23.7068    1.0529 N   0  0  0  0  0  0  0  0  0  0  0  0
   12.1317   24.6762    0.6810 C   0  0  0  0  0  0  0  0  0  0  0  0
   11.9713   25.7978    1.1646 O   0  0  0  0  0  0  0  0  0  0  0  0
   11.2269   22.7474    0.7617 H   0  0  0  0  0  0  0  0  0  0  0  0
   13.1345   24.1773   -0.1851 C   0  0  0  0  0  0  0  0  0  0  0  0
   14.5208   24.3016    0.4511 C   0  0  0  0  0  0  0  0  0  0  0  0
   15.4638   23.8720   -0.6606 C   0  0  0  0  0  0  0  0  0  0  0  0
   14.5225   23.6934   -1.8371 C   0  0  0  0  0  0  0  0  0  0  0  0
   13.3858   24.5783   -1.5137 N   0  0  0  0  0  0  0  0  0  0  0  0
   12.8628   25.5003   -2.4341 C   0  0  0  0  0  0  0  0  0  0  0  0
   11.9316   26.3305   -2.0954 O   0  0  0  0  0  0  0  0  0  0  0  0
   13.2406   25.6586   -3.8420 C   0  0  0  0  0  0  0  0  0  0  0  0
   13.1044   27.1206   -4.1146 N   0  0  0  0  0  0  0  0  0  0  0  0
   12.6340   27.5571   -3.2965 H   0  0  0  0  0  0  0  0  0  0  0  0
   14.0415   27.5341   -4.2306 H   0  0  0  0  0  0  0  0  0  0  0  0
   14.6454   25.3087   -4.1451 C   0  0  0  0  0  0  0  0  0  0  0  0
   15.6673   26.3362   -4.1417 C   0  0  0  0  0  0  0  0  0  0  0  0
   16.4989   26.4044   -3.0300 C   0  0  0  0  0  0  0  0  0  0  0  0
   17.5164   27.3236   -2.9628 C   0  0  0  0  0  0  0  0  0  0  0  0
   17.7383   28.1981   -3.9994 C   0  0  0  0  0  0  0  0  0  0  0  0
   18.7992   29.0998   -3.8528 O   0  0  0  0  0  0  0  0  0  0  0  0
   16.9279   28.1536   -5.1177 C   0  0  0  0  0  0  0  0  0  0  0  0
   15.9146   27.2226   -5.1590 C   0  0  0  0  0  0  0  0  0  0  0  0
   19.7138   28.8614   -4.1489 H   0  0  0  0  0  0  0  0  0  0  0  0
    8.7216   24.0515    1.0895 C   0  0  0  0  0  0  0  0  0  0  0  0
    7.8696   22.8675    1.2380 C   0  0  0  0  0  0  0  0  0  0  0  0
    7.6248   22.0724    0.0841 C   0  0  0  0  0  0  0  0  0  0  0  0
    6.8192   20.9522    0.1444 C   0  0  0  0  0  0  0  0  0  0  0  0
    6.2111   20.5422    1.3146 C   0  0  0  0  0  0  0  0  0  0  0  0
    6.4340   21.2981    2.4425 C   0  0  0  0  0  0  0  0  0  0  0  0
    7.2583   22.4438    2.3797 C   0  0  0  0  0  0  0  0  0  0  0  0
 18 19  1  0  0  0
 19 20  1  0  0  0
 19 17  1  0  0  0
 17 11  1  0  0  0
 11  7  1  0  0  0
  7  8  1  0  0  0
  8  9  2  0  0  0
  8  6  1  0  0  0
  6 21  1  0  0  0
 21 22  1  0  0  0
 22 23  1  0  0  0
 22 24  1  0  0  0
  6  2  1  0  0  0
  2  3  1  0  0  0
  3  4  2  0  0  0
  3  1  1  0  0  0
  1 49  1  0  0  0
 49 50  1  0  0  0
 50 51  2  0  0  0
 51 52  1  0  0  0
 52 53  2  0  0  0
 53 54  1  0  0  0
 54 55  2  0  0  0
  1 25  1  0  0  0
 25 26  1  0  0  0
 26 27  2  0  0  0
 26 29  1  0  0  0
 29 30  1  0  0  0
 30 31  1  0  0  0
 31 32  1  0  0  0
 32 33  1  0  0  0
 33 34  1  0  0  0
 34 35  2  0  0  0
 34 36  1  0  0  0
 36 37  1  0  0  0
 36 40  1  0  0  0
 40 41  1  0  0  0
 41 42  2  0  0  0
 42 43  1  0  0  0
 43 44  2  0  0  0
 44 45  1  0  0  0
 44 46  1  0  0  0
 46 47  2  0  0  0
 11 12  1  0  0  0
 12 13  1  0  0  0
 12 14  2  0  0  0
 55 50  1  0  0  0
 33 29  1  0  0  0
 47 41  1  0  0  0
  7 10  1  0  0  0
  2  5  1  0  0  0
 25 28  1  0  0  0
 37 38  1  0  0  0
 37 39  1  0  0  0
 45 48  1  0  0  0
 13 15  1  0  0  0
 13 16  1  0  0  0
M  END
> <minimizedAffinity>
-7.12768

> <CNNscore>
0.2651712596

> <CNNaffinity>
7.9260306358

> <CNN_VS>
2.1017556190

> <CNNaffinity_variance>
0.4299696982

$$$$
[H]Oc1c([H])c([H])c(C([H])([H])[C@@]([H])(C(=O)N2C([H])([H])C([H])([H])C([H])([H])[C@@]2([H])C(=O)N([H])[C@]([H])(C(=O)N([H])[C@]([H])(C(=O)N([H])[C@]([H])(C(=O)N([H])[H])C([H])([H])C([H])(C([H])([H])[H])C([H])([H])[H])C([H])([H])C([H])(C([H])([H])[H])C([H])([H])[H])C([H])([H])c2c([H])c([H])c([H])c([H])c2[H])N([H])[H])c([H])c1[H]


 55 57  0  0  0  0  0  0  0  0999 V2000
   13.3430   20.7674    1.1308 C   0  0  0  0  0  0  0  0  0  0  0  0
   13.5107   22.7327   -0.3895 N   0  0  0  0  0  0  0  0  0  0  0  0
   14.0677   21.9213    0.5387 C   0  0  0  0  0  0  0  0  0  0  0  0
   15.2543   22.0403    1.0049 O   0  0  0  0  0  0  0  0  0  0  0  0
   14.6742   23.3875   -0.5690 H   0  0  0  0  0  0  0  0  0  0  0  0
   12.9410   23.5629   -1.3388 C   0  0  0  0  0  0  0  0  0  0  0  0
   14.2362   25.5182   -2.4346 N   0  0  0  0  0  0  0  0  0  0  0  0
   13.9600   24.1565   -2.2562 C   0  0  0  0  0  0  0  0  0  0  0  0
   14.6518   23.3338   -2.9479 O   0  0  0  0  0  0  0  0  0  0  0  0
   13.7250   26.2337   -1.9014 H   0  0  0  0  0  0  0  0  0  0  0  0
   15.2727   25.9046   -3.3836 C   0  0  0  0  0  0  0  0  0  0  0  0
   16.5759   26.1898   -2.7111 C   0  0  0  0  0  0  0  0  0  0  0  0
   17.3565   27.3323   -3.0560 N   0  0  0  0  0  0  0  0  0  0  0  0
   16.9848   25.4092   -1.8325 O   0  0  0  0  0  0  0  0  0  0  0  0
   18.3434   27.4328   -2.7436 H   0  0  0  0  0  0  0  0  0  0  0  0
   16.9793   28.1222   -3.6178 H   0  0  0  0  0  0  0  0  0  0  0  0
   14.8580   26.8934   -4.4025 C   0  0  0  0  0  0  0  0  0  0  0  0
   15.9724   27.2250   -6.6530 C   0  0  0  0  0  0  0  0  0  0  0  0
   14.9543   26.4990   -5.8239 C   0  0  0  0  0  0  0  0  0  0  0  0
   15.4104   25.0189   -5.8177 C   0  0  0  0  0  0  0  0  0  0  0  0
   11.8245   24.4782   -1.0457 C   0  0  0  0  0  0  0  0  0  0  0  0
   10.9788   24.2237    0.1502 C   0  0  0  0  0  0  0  0  0  0  0  0
    9.4694   24.3782   -0.2910 C   0  0  0  0  0  0  0  0  0  0  0  0
   11.1970   25.2923    1.2059 C   0  0  0  0  0  0  0  0  0  0  0  0
   12.4317   21.1153    2.1807 N   0  0  0  0  0  0  0  0  0  0  0  0
   12.1345   20.1341    3.2175 C   0  0  0  0  0  0  0  0  0  0  0  0
   12.7680   19.0821    3.1203 O   0  0  0  0  0  0  0  0  0  0  0  0
   12.0120   22.0308    2.2516 H   0  0  0  0  0  0  0  0  0  0  0  0
   11.1579   20.5421    4.1579 C   0  0  0  0  0  0  0  0  0  0  0  0
   10.4378   19.3337    4.7606 C   0  0  0  0  0  0  0  0  0  0  0  0
    9.3433   19.9576    5.6107 C   0  0  0  0  0  0  0  0  0  0  0  0
    9.4746   21.4329    5.2816 C   0  0  0  0  0  0  0  0  0  0  0  0
   10.0916   21.4390    3.9403 N   0  0  0  0  0  0  0  0  0  0  0  0
    9.5812   22.2038    2.8795 C   0  0  0  0  0  0  0  0  0  0  0  0
   10.0806   22.1177    1.6902 O   0  0  0  0  0  0  0  0  0  0  0  0
    8.4852   23.1762    2.9350 C   0  0  0  0  0  0  0  0  0  0  0  0
    7.2696   22.3680    3.2503 N   0  0  0  0  0  0  0  0  0  0  0  0
    7.5237   21.3628    3.1732 H   0  0  0  0  0  0  0  0  0  0  0  0
    6.9665   22.5708    4.2144 H   0  0  0  0  0  0  0  0  0  0  0  0
    8.6076   24.1805    4.0139 C   0  0  0  0  0  0  0  0  0  0  0  0
    7.6869   25.2979    4.0746 C   0  0  0  0  0  0  0  0  0  0  0  0
    7.0713   25.5511    5.2949 C   0  0  0  0  0  0  0  0  0  0  0  0
    6.2145   26.6128    5.4484 C   0  0  0  0  0  0  0  0  0  0  0  0
    5.9481   27.4542    4.3951 C   0  0  0  0  0  0  0  0  0  0  0  0
    5.0671   28.5151    4.6376 O   0  0  0  0  0  0  0  0  0  0  0  0
    6.5457   27.2277    3.1700 C   0  0  0  0  0  0  0  0  0  0  0  0
    7.4001   26.1558    3.0433 C   0  0  0  0  0  0  0  0  0  0  0  0
    5.4006   29.3884    4.9648 H   0  0  0  0  0  0  0  0  0  0  0  0
   12.6995   19.8401    0.1515 C   0  0  0  0  0  0  0  0  0  0  0  0
   11.3351   20.1154   -0.3093 C   0  0  0  0  0  0  0  0  0  0  0  0
   11.1683   21.0003   -1.4106 C   0  0  0  0  0  0  0  0  0  0  0  0
    9.9125   21.3192   -1.8889 C   0  0  0  0  0  0  0  0  0  0  0  0
    8.7581   20.8037   -1.3333 C   0  0  0  0  0  0  0  0  0  0  0  0
    8.8970   19.9464   -0.2661 C   0  0  0  0  0  0  0  0  0  0  0  0
   10.1821   19.6209    0.2224 C   0  0  0  0  0  0  0  0  0  0  0  0
 18 19  1  0  0  0
 19 20  1  0  0  0
 19 17  1  0  0  0
 17 11  1  0  0  0
 11  7  1  0  0  0
  7  8  1  0  0  0
  8  9  2  0  0  0
  8  6  1  0  0  0
  6 21  1  0  0  0
 21 22  1  0  0  0
 22 23  1  0  0  0
 22 24  1  0  0  0
  6  2  1  0  0  0
  2  3  1  0  0  0
  3  4  2  0  0  0
  3  1  1  0  0  0
  1 49  1  0  0  0
 49 50  1  0  0  0
 50 51  2  0  0  0
 51 52  1  0  0  0
 52 53  2  0  0  0
 53 54  1  0  0  0
 54 55  2  0  0  0
  1 25  1  0  0  0
 25 26  1  0  0  0
 26 27  2  0  0  0
 26 29  1  0  0  0
 29 30  1  0  0  0
 30 31  1  0  0  0
 31 32  1  0  0  0
 32 33  1  0  0  0
 33 34  1  0  0  0
 34 35  2  0  0  0
 34 36  1  0  0  0
 36 37  1  0  0  0
 36 40  1  0  0  0
 40 41  1  0  0  0
 41 42  2  0  0  0
 42 43  1  0  0  0
 43 44  2  0  0  0
 44 45  1  0  0  0
 44 46  1  0  0  0
 46 47  2  0  0  0
 11 12  1  0  0  0
 12 13  1  0  0  0
 12 14  2  0  0  0
 55 50  1  0  0  0
 33 29  1  0  0  0
 47 41  1  0  0  0
  7 10  1  0  0  0
  2  5  1  0  0  0
 25 28  1  0  0  0
 37 38  1  0  0  0
 37 39  1  0  0  0
 45 48  1  0  0  0
 13 15  1  0  0  0
 13 16  1  0  0  0
M  END
> <minimizedAffinity>
-6.58895

> <CNNscore>
0.2501319647

> <CNNaffinity>
7.8205323219

> <CNN_VS>
1.9561650753

> <CNNaffinity_variance>
0.1567152590

$$$$
[H]Oc1c([H])c([H])c(C([H])([H])[C@@]([H])(C(=O)N2C([H])([H])C([H])([H])C([H])([H])[C@@]2([H])C(=O)N([H])[C@]([H])(C(=O)N([H])[C@]([H])(C(=O)N([H])[C@]([H])(C(=O)N([H])[H])C([H])([H])C([H])(C([H])([H])[H])C([H])([H])[H])C([H])([H])C([H])(C([H])([H])[H])C([H])([H])[H])C([H])([H])c2c([H])c([H])c([H])c([H])c2[H])N([H])[H])c([H])c1[H]


 55 57  0  0  0  0  0  0  0  0999 V2000
   11.8990   25.1781   -0.9029 C   0  0  0  0  0  0  0  0  0  0  0  0
   10.3216   24.1042    0.6972 N   0  0  0  0  0  0  0  0  0  0  0  0
   10.8605   24.1790   -0.5414 C   0  0  0  0  0  0  0  0  0  0  0  0
   10.5552   23.4185   -1.5252 O   0  0  0  0  0  0  0  0  0  0  0  0
    9.6435   22.9858    0.3748 H   0  0  0  0  0  0  0  0  0  0  0  0
    9.7702   24.0276    1.9641 C   0  0  0  0  0  0  0  0  0  0  0  0
    8.5717   21.8414    2.6610 N   0  0  0  0  0  0  0  0  0  0  0  0
    8.6109   23.0868    2.0208 C   0  0  0  0  0  0  0  0  0  0  0  0
    7.5443   23.4605    1.4237 O   0  0  0  0  0  0  0  0  0  0  0  0
    9.3910   21.4848    3.1701 H   0  0  0  0  0  0  0  0  0  0  0  0
    7.3414   21.0621    2.6032 C   0  0  0  0  0  0  0  0  0  0  0  0
    6.9197   20.7762    1.1988 C   0  0  0  0  0  0  0  0  0  0  0  0
    5.7843   21.4149    0.6185 N   0  0  0  0  0  0  0  0  0  0  0  0
    7.5765   19.9612    0.5259 O   0  0  0  0  0  0  0  0  0  0  0  0
    5.3684   21.0814   -0.2744 H   0  0  0  0  0  0  0  0  0  0  0  0
    5.3283   22.2469    1.0447 H   0  0  0  0  0  0  0  0  0  0  0  0
    6.2625   21.5190    3.5060 C   0  0  0  0  0  0  0  0  0  0  0  0
    7.4200   22.3207    5.6118 C   0  0  0  0  0  0  0  0  0  0  0  0
    6.4689   21.3598    4.9612 C   0  0  0  0  0  0  0  0  0  0  0  0
    5.0922   21.6409    5.6125 C   0  0  0  0  0  0  0  0  0  0  0  0
    9.6101   25.1958    2.8473 C   0  0  0  0  0  0  0  0  0  0  0  0
    8.3863   25.3041    3.6844 C   0  0  0  0  0  0  0  0  0  0  0  0
    7.5181   26.4925    3.1090 C   0  0  0  0  0  0  0  0  0  0  0  0
    8.7347   25.7155    5.1033 C   0  0  0  0  0  0  0  0  0  0  0  0
   13.2419   24.7669   -0.6180 N   0  0  0  0  0  0  0  0  0  0  0  0
   14.0634   25.5859    0.2653 C   0  0  0  0  0  0  0  0  0  0  0  0
   13.4799   26.5571    0.7488 O   0  0  0  0  0  0  0  0  0  0  0  0
   13.6328   23.9085   -0.9782 H   0  0  0  0  0  0  0  0  0  0  0  0
   15.3997   25.1421    0.4133 C   0  0  0  0  0  0  0  0  0  0  0  0
   16.2778   25.6535   -0.7311 C   0  0  0  0  0  0  0  0  0  0  0  0
   17.6109   24.9632   -0.4944 C   0  0  0  0  0  0  0  0  0  0  0  0
   17.2970   24.0342    0.6635 C   0  0  0  0  0  0  0  0  0  0  0  0
   15.8423   23.8099    0.5482 N   0  0  0  0  0  0  0  0  0  0  0  0
   15.2725   22.5274    0.5830 C   0  0  0  0  0  0  0  0  0  0  0  0
   14.0076   22.3504    0.3831 O   0  0  0  0  0  0  0  0  0  0  0  0
   15.9587   21.2596    0.8508 C   0  0  0  0  0  0  0  0  0  0  0  0
   16.5226   21.4103    2.2254 N   0  0  0  0  0  0  0  0  0  0  0  0
   16.4089   22.4034    2.5118 H   0  0  0  0  0  0  0  0  0  0  0  0
   16.0000   20.8052    2.8760 H   0  0  0  0  0  0  0  0  0  0  0  0
   15.0716   20.0768    0.8931 C   0  0  0  0  0  0  0  0  0  0  0  0
   13.6784   20.1994    0.5135 C   0  0  0  0  0  0  0  0  0  0  0  0
   13.3891   20.2382   -0.8455 C   0  0  0  0  0  0  0  0  0  0  0  0
   12.0928   20.3152   -1.2911 C   0  0  0  0  0  0  0  0  0  0  0  0
   11.0479   20.3524   -0.3993 C   0  0  0  0  0  0  0  0  0  0  0  0
    9.7572   20.4259   -0.9368 O   0  0  0  0  0  0  0  0  0  0  0  0
   11.3048   20.3150    0.9579 C   0  0  0  0  0  0  0  0  0  0  0  0
   12.6137   20.2383    1.3776 C   0  0  0  0  0  0  0  0  0  0  0  0
    9.2508   19.6039   -1.1579 H   0  0  0  0  0  0  0  0  0  0  0  0
   11.7956   25.7439   -2.2821 C   0  0  0  0  0  0  0  0  0  0  0  0
   12.9941   25.8076   -3.1244 C   0  0  0  0  0  0  0  0  0  0  0  0
   13.8330   24.6601   -3.1794 C   0  0  0  0  0  0  0  0  0  0  0  0
   14.9870   24.6526   -3.9383 C   0  0  0  0  0  0  0  0  0  0  0  0
   15.3897   25.7456   -4.6802 C   0  0  0  0  0  0  0  0  0  0  0  0
   14.5929   26.8666   -4.6399 C   0  0  0  0  0  0  0  0  0  0  0  0
   13.4127   26.8731   -3.8634 C   0  0  0  0  0  0  0  0  0  0  0  0
 18 19  1  0  0  0
 19 20  1  0  0  0
 19 17  1  0  0  0
 17 11  1  0  0  0
 11  7  1  0  0  0
  7  8  1  0  0  0
  8  9  2  0  0  0
  8  6  1  0  0  0
  6 21  1  0  0  0
 21 22  1  0  0  0
 22 23  1  0  0  0
 22 24  1  0  0  0
  6  2  1  0  0  0
  2  3  1  0  0  0
  3  4  2  0  0  0
  3  1  1  0  0  0
  1 49  1  0  0  0
 49 50  1  0  0  0
 50 51  2  0  0  0
 51 52  1  0  0  0
 52 53  2  0  0  0
 53 54  1  0  0  0
 54 55  2  0  0  0
  1 25  1  0  0  0
 25 26  1  0  0  0
 26 27  2  0  0  0
 26 29  1  0  0  0
 29 30  1  0  0  0
 30 31  1  0  0  0
 31 32  1  0  0  0
 32 33  1  0  0  0
 33 34  1  0  0  0
 34 35  2  0  0  0
 34 36  1  0  0  0
 36 37  1  0  0  0
 36 40  1  0  0  0
 40 41  1  0  0  0
 41 42  2  0  0  0
 42 43  1  0  0  0
 43 44  2  0  0  0
 44 45  1  0  0  0
 44 46  1  0  0  0
 46 47  2  0  0  0
 11 12  1  0  0  0
 12 13  1  0  0  0
 12 14  2  0  0  0
 55 50  1  0  0  0
 33 29  1  0  0  0
 47 41  1  0  0  0
  7 10  1  0  0  0
  2  5  1  0  0  0
 25 28  1  0  0  0
 37 38  1  0  0  0
 37 39  1  0  0  0
 45 48  1  0  0  0
 13 15  1  0  0  0
 13 16  1  0  0  0
M  END
> <minimizedAffinity>
-3.89600

> <CNNscore>
0.2261828035

> <CNNaffinity>
7.4521598816

> <CNN_VS>
1.6855504513

> <CNNaffinity_variance>
0.6468745470

$$$$
[H]Oc1c([H])c([H])c(C([H])([H])[C@@]([H])(C(=O)N2C([H])([H])C([H])([H])C([H])([H])[C@@]2([H])C(=O)N([H])[C@]([H])(C(=O)N([H])[C@]([H])(C(=O)N([H])[C@]([H])(C(=O)N([H])[H])C([H])([H])C([H])(C([H])([H])[H])C([H])([H])[H])C([H])([H])C([H])(C([H])([H])[H])C([H])([H])[H])C([H])([H])c2c([H])c([H])c([H])c([H])c2[H])N([H])[H])c([H])c1[H]


 55 57  0  0  0  0  0  0  0  0999 V2000
   10.7112   22.5134    0.3396 C   0  0  0  0  0  0  0  0  0  0  0  0
   11.2645   24.2624   -1.3447 N   0  0  0  0  0  0  0  0  0  0  0  0
   10.4028   23.7378   -0.4433 C   0  0  0  0  0  0  0  0  0  0  0  0
    9.2510   24.2191   -0.1581 O   0  0  0  0  0  0  0  0  0  0  0  0
   10.4743   25.3376   -1.5297 H   0  0  0  0  0  0  0  0  0  0  0  0
   12.1458   24.7990   -2.2668 C   0  0  0  0  0  0  0  0  0  0  0  0
   14.4711   25.2813   -1.2362 N   0  0  0  0  0  0  0  0  0  0  0  0
   13.5686   24.4768   -1.9438 C   0  0  0  0  0  0  0  0  0  0  0  0
   14.0047   23.3481   -2.3555 O   0  0  0  0  0  0  0  0  0  0  0  0
   14.1830   26.1966   -0.8664 H   0  0  0  0  0  0  0  0  0  0  0  0
   15.8271   24.7919   -1.0219 C   0  0  0  0  0  0  0  0  0  0  0  0
   16.1633   24.6780    0.4293 C   0  0  0  0  0  0  0  0  0  0  0  0
   15.2350   25.0647    1.4404 N   0  0  0  0  0  0  0  0  0  0  0  0
   17.2797   24.2366    0.7569 O   0  0  0  0  0  0  0  0  0  0  0  0
   15.5253   25.1771    2.4327 H   0  0  0  0  0  0  0  0  0  0  0  0
   14.2284   25.2370    1.2433 H   0  0  0  0  0  0  0  0  0  0  0  0
   16.8662   25.4244   -1.8633 C   0  0  0  0  0  0  0  0  0  0  0  0
   17.3072   27.5163   -3.2220 C   0  0  0  0  0  0  0  0  0  0  0  0
   16.4211   26.3401   -2.9350 C   0  0  0  0  0  0  0  0  0  0  0  0
   16.4248   25.4970   -4.2342 C   0  0  0  0  0  0  0  0  0  0  0  0
   11.9770   26.1358   -2.8623 C   0  0  0  0  0  0  0  0  0  0  0  0
   13.1571   26.8114   -3.4633 C   0  0  0  0  0  0  0  0  0  0  0  0
   12.7096   28.2666   -3.8867 C   0  0  0  0  0  0  0  0  0  0  0  0
   13.5723   26.1304   -4.7547 C   0  0  0  0  0  0  0  0  0  0  0  0
    9.5953   21.9718    1.0573 N   0  0  0  0  0  0  0  0  0  0  0  0
    8.5259   21.3135    0.3164 C   0  0  0  0  0  0  0  0  0  0  0  0
    8.7233   21.2293   -0.8966 O   0  0  0  0  0  0  0  0  0  0  0  0
    9.5367   21.9963    2.0650 H   0  0  0  0  0  0  0  0  0  0  0  0
    7.4296   20.8913    1.1064 C   0  0  0  0  0  0  0  0  0  0  0  0
    6.1420   20.8485    0.2804 C   0  0  0  0  0  0  0  0  0  0  0  0
    5.0683   20.5332    1.3087 C   0  0  0  0  0  0  0  0  0  0  0  0
    5.8420   20.5761    2.6132 C   0  0  0  0  0  0  0  0  0  0  0  0
    6.9825   21.4649    2.3148 N   0  0  0  0  0  0  0  0  0  0  0  0
    7.3412   22.5362    3.1481 C   0  0  0  0  0  0  0  0  0  0  0  0
    8.2822   23.3579    2.8157 O   0  0  0  0  0  0  0  0  0  0  0  0
    6.7659   22.8747    4.4536 C   0  0  0  0  0  0  0  0  0  0  0  0
    5.5160   22.0626    4.5455 N   0  0  0  0  0  0  0  0  0  0  0  0
    5.3406   21.6371    3.6131 H   0  0  0  0  0  0  0  0  0  0  0  0
    5.6462   21.3150    5.2431 H   0  0  0  0  0  0  0  0  0  0  0  0
    7.5993   22.4869    5.6124 C   0  0  0  0  0  0  0  0  0  0  0  0
    8.6507   21.5020    5.4542 C   0  0  0  0  0  0  0  0  0  0  0  0
    8.2955   20.1644    5.5831 C   0  0  0  0  0  0  0  0  0  0  0  0
    9.2225   19.1665    5.4108 C   0  0  0  0  0  0  0  0  0  0  0  0
   10.5269   19.4694    5.1025 C   0  0  0  0  0  0  0  0  0  0  0  0
   11.4068   18.3927    4.9389 O   0  0  0  0  0  0  0  0  0  0  0  0
   10.9093   20.7904    4.9677 C   0  0  0  0  0  0  0  0  0  0  0  0
    9.9600   21.7712    5.1462 C   0  0  0  0  0  0  0  0  0  0  0  0
   11.5280   17.9649    4.0538 H   0  0  0  0  0  0  0  0  0  0  0  0
   11.4390   21.4404   -0.4035 C   0  0  0  0  0  0  0  0  0  0  0  0
   12.8606   21.2122   -0.1268 C   0  0  0  0  0  0  0  0  0  0  0  0
   13.5549   20.2696   -0.9348 C   0  0  0  0  0  0  0  0  0  0  0  0
   14.8908   19.9908   -0.7220 C   0  0  0  0  0  0  0  0  0  0  0  0
   15.6231   20.6038    0.2756 C   0  0  0  0  0  0  0  0  0  0  0  0
   14.9700   21.5183    1.0696 C   0  0  0  0  0  0  0  0  0  0  0  0
   13.6035   21.8027    0.8510 C   0  0  0  0  0  0  0  0  0  0  0  0
 18 19  1  0  0  0
 19 20  1  0  0  0
 19 17  1  0  0  0
 17 11  1  0  0  0
 11  7  1  0  0  0
  7  8  1  0  0  0
  8  9  2  0  0  0
  8  6  1  0  0  0
  6 21  1  0  0  0
 21 22  1  0  0  0
 22 23  1  0  0  0
 22 24  1  0  0  0
  6  2  1  0  0  0
  2  3  1  0  0  0
  3  4  2  0  0  0
  3  1  1  0  0  0
  1 49  1  0  0  0
 49 50  1  0  0  0
 50 51  2  0  0  0
 51 52  1  0  0  0
 52 53  2  0  0  0
 53 54  1  0  0  0
 54 55  2  0  0  0
  1 25  1  0  0  0
 25 26  1  0  0  0
 26 27  2  0  0  0
 26 29  1  0  0  0
 29 30  1  0  0  0
 30 31  1  0  0  0
 31 32  1  0  0  0
 32 33  1  0  0  0
 33 34  1  0  0  0
 34 35  2  0  0  0
 34 36  1  0  0  0
 36 37  1  0  0  0
 36 40  1  0  0  0
 40 41  1  0  0  0
 41 42  2  0  0  0
 42 43  1  0  0  0
 43 44  2  0  0  0
 44 45  1  0  0  0
 44 46  1  0  0  0
 46 47  2  0  0  0
 11 12  1  0  0  0
 12 13  1  0  0  0
 12 14  2  0  0  0
 55 50  1  0  0  0
 33 29  1  0  0  0
 47 41  1  0  0  0
  7 10  1  0  0  0
  2  5  1  0  0  0
 25 28  1  0  0  0
 37 38  1  0  0  0
 37 39  1  0  0  0
 45 48  1  0  0  0
 13 15  1  0  0  0
 13 16  1  0  0  0
M  END
> <minimizedAffinity>
-4.19320

> <CNNscore>
0.1931284070

> <CNNaffinity>
7.1534233093

> <CNN_VS>
1.3815292120

> <CNNaffinity_variance>
0.4486444592

$$$$
[H]Oc1c([H])c([H])c(C([H])([H])[C@@]([H])(C(=O)N2C([H])([H])C([H])([H])C([H])([H])[C@@]2([H])C(=O)N([H])[C@]([H])(C(=O)N([H])[C@]([H])(C(=O)N([H])[C@]([H])(C(=O)N([H])[H])C([H])([H])C([H])(C([H])([H])[H])C([H])([H])[H])C([H])([H])C([H])(C([H])([H])[H])C([H])([H])[H])C([H])([H])c2c([H])c([H])c([H])c([H])c2[H])N([H])[H])c([H])c1[H]


 55 57  0  0  0  0  0  0  0  0999 V2000
   10.0184   24.7480    1.0174 C   0  0  0  0  0  0  0  0  0  0  0  0
    9.5079   23.9782    3.3302 N   0  0  0  0  0  0  0  0  0  0  0  0
    9.3284   24.8688    2.3276 C   0  0  0  0  0  0  0  0  0  0  0  0
    8.5616   25.8928    2.3800 O   0  0  0  0  0  0  0  0  0  0  0  0
    8.5488   24.5647    4.0724 H   0  0  0  0  0  0  0  0  0  0  0  0
    9.6915   23.0675    4.3557 C   0  0  0  0  0  0  0  0  0  0  0  0
   11.2310   21.2689    3.3086 N   0  0  0  0  0  0  0  0  0  0  0  0
   10.0117   21.6996    3.8473 C   0  0  0  0  0  0  0  0  0  0  0  0
    9.0742   20.8334    3.9133 O   0  0  0  0  0  0  0  0  0  0  0  0
   12.0312   21.9110    3.2367 H   0  0  0  0  0  0  0  0  0  0  0  0
   11.3506   19.8869    2.8615 C   0  0  0  0  0  0  0  0  0  0  0  0
   11.7684   18.9706    3.9650 C   0  0  0  0  0  0  0  0  0  0  0  0
   10.9358   18.7465    5.1009 N   0  0  0  0  0  0  0  0  0  0  0  0
   12.8684   18.3943    3.8865 O   0  0  0  0  0  0  0  0  0  0  0  0
   11.2953   18.2760    5.9559 H   0  0  0  0  0  0  0  0  0  0  0  0
    9.9339   19.0243    5.1273 H   0  0  0  0  0  0  0  0  0  0  0  0
   12.0641   19.6984    1.5796 C   0  0  0  0  0  0  0  0  0  0  0  0
   14.3187   20.7000    1.0048 C   0  0  0  0  0  0  0  0  0  0  0  0
   12.8257   20.8449    1.0405 C   0  0  0  0  0  0  0  0  0  0  0  0
   12.3909   20.9773   -0.4401 C   0  0  0  0  0  0  0  0  0  0  0  0
    8.8702   23.0518    5.5786 C   0  0  0  0  0  0  0  0  0  0  0  0
    7.6127   23.8441    5.6125 C   0  0  0  0  0  0  0  0  0  0  0  0
    6.8105   23.5231    4.2895 C   0  0  0  0  0  0  0  0  0  0  0  0
    7.9073   25.3318    5.5490 C   0  0  0  0  0  0  0  0  0  0  0  0
   11.3837   24.3212    1.1035 N   0  0  0  0  0  0  0  0  0  0  0  0
   12.3878   24.9814    0.2777 C   0  0  0  0  0  0  0  0  0  0  0  0
   11.9580   25.9200   -0.3945 O   0  0  0  0  0  0  0  0  0  0  0  0
   11.6861   23.6012    1.7434 H   0  0  0  0  0  0  0  0  0  0  0  0
   13.6883   24.4296    0.3704 C   0  0  0  0  0  0  0  0  0  0  0  0
   14.6654   25.4290    0.9938 C   0  0  0  0  0  0  0  0  0  0  0  0
   16.0123   24.7359    0.8708 C   0  0  0  0  0  0  0  0  0  0  0  0
   15.6695   23.4953    0.0673 C   0  0  0  0  0  0  0  0  0  0  0  0
   14.4571   23.8855   -0.6793 N   0  0  0  0  0  0  0  0  0  0  0  0
   14.3247   23.6805   -2.0617 C   0  0  0  0  0  0  0  0  0  0  0  0
   13.2946   24.1181   -2.7086 O   0  0  0  0  0  0  0  0  0  0  0  0
   15.2545   22.9702   -2.9454 C   0  0  0  0  0  0  0  0  0  0  0  0
   14.6769   21.6007   -3.0906 N   0  0  0  0  0  0  0  0  0  0  0  0
   13.8988   21.5065   -2.4074 H   0  0  0  0  0  0  0  0  0  0  0  0
   14.3080   21.4863   -4.0463 H   0  0  0  0  0  0  0  0  0  0  0  0
   15.3513   23.5272   -4.3122 C   0  0  0  0  0  0  0  0  0  0  0  0
   15.5781   24.9456   -4.5045 C   0  0  0  0  0  0  0  0  0  0  0  0
   15.1555   25.5014   -5.7064 C   0  0  0  0  0  0  0  0  0  0  0  0
   15.2981   26.8443   -5.9537 C   0  0  0  0  0  0  0  0  0  0  0  0
   15.8613   27.6726   -5.0130 C   0  0  0  0  0  0  0  0  0  0  0  0
   15.9651   29.0294   -5.3428 O   0  0  0  0  0  0  0  0  0  0  0  0
   16.2905   27.1485   -3.8087 C   0  0  0  0  0  0  0  0  0  0  0  0
   16.1361   25.7987   -3.5866 C   0  0  0  0  0  0  0  0  0  0  0  0
   15.2297   29.6603   -5.1378 H   0  0  0  0  0  0  0  0  0  0  0  0
    9.2828   23.9750   -0.0287 C   0  0  0  0  0  0  0  0  0  0  0  0
    8.5628   22.7558    0.3519 C   0  0  0  0  0  0  0  0  0  0  0  0
    9.1494   21.5031    0.0200 C   0  0  0  0  0  0  0  0  0  0  0  0
    8.5212   20.3134    0.3322 C   0  0  0  0  0  0  0  0  0  0  0  0
    7.3012   20.2699    0.9777 C   0  0  0  0  0  0  0  0  0  0  0  0
    6.7158   21.4708    1.3068 C   0  0  0  0  0  0  0  0  0  0  0  0
    7.3592   22.6873    0.9871 C   0  0  0  0  0  0  0  0  0  0  0  0
 18 19  1  0  0  0
 19 20  1  0  0  0
 19 17  1  0  0  0
 17 11  1  0  0  0
 11  7  1  0  0  0
  7  8  1  0  0  0
  8  9  2  0  0  0
  8  6  1  0  0  0
  6 21  1  0  0  0
 21 22  1  0  0  0
 22 23  1  0  0  0
 22 24  1  0  0  0
  6  2  1  0  0  0
  2  3  1  0  0  0
  3  4  2  0  0  0
  3  1  1  0  0  0
  1 49  1  0  0  0
 49 50  1  0  0  0
 50 51  2  0  0  0
 51 52  1  0  0  0
 52 53  2  0  0  0
 53 54  1  0  0  0
 54 55  2  0  0  0
  1 25  1  0  0  0
 25 26  1  0  0  0
 26 27  2  0  0  0
 26 29  1  0  0  0
 29 30  1  0  0  0
 30 31  1  0  0  0
 31 32  1  0  0  0
 32 33  1  0  0  0
 33 34  1  0  0  0
 34 35  2  0  0  0
 34 36  1  0  0  0
 36 37  1  0  0  0
 36 40  1  0  0  0
 40 41  1  0  0  0
 41 42  2  0  0  0
 42 43  1  0  0  0
 43 44  2  0  0  0
 44 45  1  0  0  0
 44 46  1  0  0  0
 46 47  2  0  0  0
 11 12  1  0  0  0
 12 13  1  0  0  0
 12 14  2  0  0  0
 55 50  1  0  0  0
 33 29  1  0  0  0
 47 41  1  0  0  0
  7 10  1  0  0  0
  2  5  1  0  0  0
 25 28  1  0  0  0
 37 38  1  0  0  0
 37 39  1  0  0  0
 45 48  1  0  0  0
 13 15  1  0  0  0
 13 16  1  0  0  0
M  END
> <minimizedAffinity>
-6.81607

> <CNNscore>
0.1854412705

> <CNNaffinity>
7.7249007225

> <CNN_VS>
1.4325153828

> <CNNaffinity_variance>
0.4231296480

$$$$
[H]/C(C(=O)N([H])c1c(OC([H])([H])C([H])([H])[H])c([H])c2nc([H])c(C#N)c(N([H])c3c([H])c([H])c(OC([H])([H])c4nc([H])c([H])c([H])c4[H])c(Cl)c3[H])c2c1[H])=C(/[H])C([H])([H])N1C([H])([H])C([H])([H])OC([H])([H])C1([H])[H]


 45 49  0  0  0  0  0  0  0  0999 V2000
   14.6997   21.8764   -3.8226 C   0  0  0  0  0  0  0  0  0  0  0  0
   15.1565   22.8075   -4.7281 C   0  0  0  0  0  0  0  0  0  0  0  0
   15.5120   24.0532   -4.3740 C   0  0  0  0  0  0  0  0  0  0  0  0
   16.0270   24.9360   -5.2920 N   0  0  0  0  0  0  0  0  0  0  0  0
   16.4197   26.1485   -4.9924 C   0  0  0  0  0  0  0  0  0  0  0  0
   16.3548   26.6879   -3.6779 C   0  0  0  0  0  0  0  0  0  0  0  0
   15.8401   25.8218   -2.7313 C   0  0  0  0  0  0  0  0  0  0  0  0
   15.4525   24.5613   -3.0759 C   0  0  0  0  0  0  0  0  0  0  0  0
   14.9903   23.6262   -2.1616 C   0  0  0  0  0  0  0  0  0  0  0  0
   14.6279   22.3552   -2.4537 C   0  0  0  0  0  0  0  0  0  0  0  0
   14.2118   21.3285   -1.6262 N   0  0  0  0  0  0  0  0  0  0  0  0
   13.8383   20.3379   -0.8194 C   0  0  0  0  0  0  0  0  0  0  0  0
   14.5930   19.7402    0.0620 O   0  0  0  0  0  0  0  0  0  0  0  0
   15.5366   21.0334   -1.3842 H   0  0  0  0  0  0  0  0  0  0  0  0
   12.4215   19.7605   -0.8431 C   0  0  0  0  0  0  0  0  0  0  0  0
   11.5116   20.4308   -0.2190 C   0  0  0  0  0  0  0  0  0  0  0  0
   10.0746   19.9835   -0.1484 C   0  0  0  0  0  0  0  0  0  0  0  0
    9.4549   20.7797    0.8259 N   0  0  0  0  0  0  0  0  0  0  0  0
   10.2097   21.2502    1.9323 C   0  0  0  0  0  0  0  0  0  0  0  0
    9.3781   20.9473    3.2071 C   0  0  0  0  0  0  0  0  0  0  0  0
    8.0513   20.7901    2.8406 O   0  0  0  0  0  0  0  0  0  0  0  0
    7.5340   21.6492    1.9279 C   0  0  0  0  0  0  0  0  0  0  0  0
    8.2895   21.4694    0.5910 C   0  0  0  0  0  0  0  0  0  0  0  0
   16.8005   28.0272   -3.4324 C   0  0  0  0  0  0  0  0  0  0  0  0
   17.1563   29.1023   -3.2036 N   0  0  0  0  0  0  0  0  0  0  0  0
   15.5677   26.3770   -1.4122 N   0  0  0  0  0  0  0  0  0  0  0  0
   16.2339   27.0449   -1.0323 H   0  0  0  0  0  0  0  0  0  0  0  0
   14.3566   25.9190   -0.7764 C   0  0  0  0  0  0  0  0  0  0  0  0
   14.3270   25.7733    0.5632 C   0  0  0  0  0  0  0  0  0  0  0  0
   13.1488   25.3158    1.1317 C   0  0  0  0  0  0  0  0  0  0  0  0
   12.0241   24.9923    0.4885 C   0  0  0  0  0  0  0  0  0  0  0  0
   12.0800   25.1509   -0.9498 C   0  0  0  0  0  0  0  0  0  0  0  0
   10.6604   24.7406   -1.8535 Cl  0  0  0  0  0  0  0  0  0  0  0  0
   13.2280   25.6069   -1.5537 C   0  0  0  0  0  0  0  0  0  0  0  0
   10.8531   24.5371    0.9821 O   0  0  0  0  0  0  0  0  0  0  0  0
   10.3779   24.3178    2.2379 C   0  0  0  0  0  0  0  0  0  0  0  0
    9.3421   25.2266    2.7695 C   0  0  0  0  0  0  0  0  0  0  0  0
    7.9938   25.0710    2.5736 C   0  0  0  0  0  0  0  0  0  0  0  0
    7.0326   25.9067    3.1087 C   0  0  0  0  0  0  0  0  0  0  0  0
    7.4812   26.9762    3.8965 C   0  0  0  0  0  0  0  0  0  0  0  0
    8.8067   27.1047    4.0714 C   0  0  0  0  0  0  0  0  0  0  0  0
    9.7649   26.2795    3.5398 N   0  0  0  0  0  0  0  0  0  0  0  0
   14.3594   20.5922   -4.1678 O   0  0  0  0  0  0  0  0  0  0  0  0
   13.1066   19.3631   -5.8532 C   0  0  0  0  0  0  0  0  0  0  0  0
   14.3545   20.1654   -5.5178 C   0  0  0  0  0  0  0  0  0  0  0  0
 44 45  1  0  0  0
 45 43  1  0  0  0
 43  1  1  0  0  0
  1  2  2  0  0  0
  2  3  1  0  0  0
  3  4  2  0  0  0
  4  5  1  0  0  0
  5  6  2  0  0  0
  6 24  1  0  0  0
 24 25  3  0  0  0
  6  7  1  0  0  0
  7 26  1  0  0  0
 26 28  1  0  0  0
 28 29  2  0  0  0
 29 30  1  0  0  0
 30 31  2  0  0  0
 31 35  1  0  0  0
 35 36  1  0  0  0
 36 37  1  0  0  0
 37 38  2  0  0  0
 38 39  1  0  0  0
 39 40  2  0  0  0
 40 41  1  0  0  0
 41 42  2  0  0  0
 31 32  1  0  0  0
 32 33  1  0  0  0
 32 34  2  0  0  0
  7  8  2  0  0  0
  8  9  1  0  0  0
  9 10  2  0  0  0
 10 11  1  0  0  0
 11 12  1  0  0  0
 12 13  2  0  0  0
 12 15  1  0  0  0
 15 16  2  0  0  0
 16 17  1  0  0  0
 17 18  1  0  0  0
 18 19  1  0  0  0
 19 20  1  0  0  0
 20 21  1  0  0  0
 21 22  1  0  0  0
 22 23  1  0  0  0
 10  1  1  0  0  0
 23 18  1  0  0  0
  8  3  1  0  0  0
 34 28  1  0  0  0
 42 37  1  0  0  0
 26 27  1  0  0  0
 11 14  1  0  0  0
M  END
> <minimizedAffinity>
2.20489

> <CNNscore>
0.5165576339

> <CNNaffinity>
8.1064176559

> <CNN_VS>
4.1874318123

> <CNNaffinity_variance>
0.5143231153

$$$$
[H]/C(C(=O)N([H])c1c(OC([H])([H])C([H])([H])[H])c([H])c2nc([H])c(C#N)c(N([H])c3c([H])c([H])c(OC([H])([H])c4nc([H])c([H])c([H])c4[H])c(Cl)c3[H])c2c1[H])=C(/[H])C([H])([H])N1C([H])([H])C([H])([H])OC([H])([H])C1([H])[H]


 45 49  0  0  0  0  0  0  0  0999 V2000
   14.9929   21.9371   -4.5173 C   0  0  0  0  0  0  0  0  0  0  0  0
   15.2574   22.7347   -5.6079 C   0  0  0  0  0  0  0  0  0  0  0  0
   15.3326   24.0732   -5.5293 C   0  0  0  0  0  0  0  0  0  0  0  0
   15.6645   24.8343   -6.6237 N   0  0  0  0  0  0  0  0  0  0  0  0
   15.7842   26.1377   -6.5924 C   0  0  0  0  0  0  0  0  0  0  0  0
   15.5814   26.9125   -5.4171 C   0  0  0  0  0  0  0  0  0  0  0  0
   15.2456   26.1734   -4.2981 C   0  0  0  0  0  0  0  0  0  0  0  0
   15.1420   24.8159   -4.3636 C   0  0  0  0  0  0  0  0  0  0  0  0
   14.8729   24.0152   -3.2634 C   0  0  0  0  0  0  0  0  0  0  0  0
   14.7952   22.6640   -3.2759 C   0  0  0  0  0  0  0  0  0  0  0  0
   14.5922   21.7676   -2.2428 N   0  0  0  0  0  0  0  0  0  0  0  0
   14.4249   20.9070   -1.2412 C   0  0  0  0  0  0  0  0  0  0  0  0
   15.3319   20.5577   -0.3700 O   0  0  0  0  0  0  0  0  0  0  0  0
   15.9606   21.6558   -2.1174 H   0  0  0  0  0  0  0  0  0  0  0  0
   13.0928   20.1955   -0.9950 C   0  0  0  0  0  0  0  0  0  0  0  0
   12.3319   20.6905   -0.0770 C   0  0  0  0  0  0  0  0  0  0  0  0
   10.9960   20.0941    0.2831 C   0  0  0  0  0  0  0  0  0  0  0  0
   10.0624   20.6319   -0.6148 N   0  0  0  0  0  0  0  0  0  0  0  0
    8.7268   20.8557   -0.1887 C   0  0  0  0  0  0  0  0  0  0  0  0
    7.7992   20.2501   -1.2756 C   0  0  0  0  0  0  0  0  0  0  0  0
    8.5138   20.1486   -2.4581 O   0  0  0  0  0  0  0  0  0  0  0  0
    9.3210   21.1804   -2.8079 C   0  0  0  0  0  0  0  0  0  0  0  0
   10.4302   21.3286   -1.7410 C   0  0  0  0  0  0  0  0  0  0  0  0
   15.7267   28.3370   -5.4664 C   0  0  0  0  0  0  0  0  0  0  0  0
   15.8542   29.4852   -5.4765 N   0  0  0  0  0  0  0  0  0  0  0  0
   14.8367   26.9202   -3.1160 N   0  0  0  0  0  0  0  0  0  0  0  0
   15.1357   27.8893   -3.0407 H   0  0  0  0  0  0  0  0  0  0  0  0
   14.0301   26.1961   -2.1642 C   0  0  0  0  0  0  0  0  0  0  0  0
   12.6911   26.1706   -2.3157 C   0  0  0  0  0  0  0  0  0  0  0  0
   11.9526   25.4767   -1.3702 C   0  0  0  0  0  0  0  0  0  0  0  0
   12.4279   24.8258   -0.3054 C   0  0  0  0  0  0  0  0  0  0  0  0
   13.8679   24.8709   -0.1590 C   0  0  0  0  0  0  0  0  0  0  0  0
   14.5570   24.0566    1.2056 Cl  0  0  0  0  0  0  0  0  0  0  0  0
   14.6383   25.5442   -1.0777 C   0  0  0  0  0  0  0  0  0  0  0  0
   11.7636   24.1414    0.6497 O   0  0  0  0  0  0  0  0  0  0  0  0
   10.4467   23.9461    0.9298 C   0  0  0  0  0  0  0  0  0  0  0  0
   10.0624   23.6057    2.3147 C   0  0  0  0  0  0  0  0  0  0  0  0
   10.3096   22.3992    2.9179 C   0  0  0  0  0  0  0  0  0  0  0  0
    9.9792   22.1066    4.2271 C   0  0  0  0  0  0  0  0  0  0  0  0
    9.3509   23.1163    4.9696 C   0  0  0  0  0  0  0  0  0  0  0  0
    9.1210   24.2876    4.3537 C   0  0  0  0  0  0  0  0  0  0  0  0
    9.4442   24.5818    3.0535 N   0  0  0  0  0  0  0  0  0  0  0  0
   14.9406   20.5669   -4.5797 O   0  0  0  0  0  0  0  0  0  0  0  0
   12.9988   19.3392   -5.3815 C   0  0  0  0  0  0  0  0  0  0  0  0
   14.3787   19.8977   -5.6937 C   0  0  0  0  0  0  0  0  0  0  0  0
 44 45  1  0  0  0
 45 43  1  0  0  0
 43  1  1  0  0  0
  1  2  2  0  0  0
  2  3  1  0  0  0
  3  4  2  0  0  0
  4  5  1  0  0  0
  5  6  2  0  0  0
  6 24  1  0  0  0
 24 25  3  0  0  0
  6  7  1  0  0  0
  7 26  1  0  0  0
 26 28  1  0  0  0
 28 29  2  0  0  0
 29 30  1  0  0  0
 30 31  2  0  0  0
 31 35  1  0  0  0
 35 36  1  0  0  0
 36 37  1  0  0  0
 37 38  2  0  0  0
 38 39  1  0  0  0
 39 40  2  0  0  0
 40 41  1  0  0  0
 41 42  2  0  0  0
 31 32  1  0  0  0
 32 33  1  0  0  0
 32 34  2  0  0  0
  7  8  2  0  0  0
  8  9  1  0  0  0
  9 10  2  0  0  0
 10 11  1  0  0  0
 11 12  1  0  0  0
 12 13  2  0  0  0
 12 15  1  0  0  0
 15 16  2  0  0  0
 16 17  1  0  0  0
 17 18  1  0  0  0
 18 19  1  0  0  0
 19 20  1  0  0  0
 20 21  1  0  0  0
 21 22  1  0  0  0
 22 23  1  0  0  0
 10  1  1  0  0  0
 23 18  1  0  0  0
  8  3  1  0  0  0
 34 28  1  0  0  0
 42 37  1  0  0  0
 26 27  1  0  0  0
 11 14  1  0  0  0
M  END
> <minimizedAffinity>
1.32348

> <CNNscore>
0.4495141804

> <CNNaffinity>
8.1368999481

> <CNN_VS>
3.6576519012

> <CNNaffinity_variance>
0.1057693511

$$$$
[H]/C(C(=O)N([H])c1c(OC([H])([H])C([H])([H])[H])c([H])c2nc([H])c(C#N)c(N([H])c3c([H])c([H])c(OC([H])([H])c4nc([H])c([H])c([H])c4[H])c(Cl)c3[H])c2c1[H])=C(/[H])C([H])([H])N1C([H])([H])C([H])([H])OC([H])([H])C1([H])[H]


 45 49  0  0  0  0  0  0  0  0999 V2000
   14.8431   21.9570   -4.1664 C   0  0  0  0  0  0  0  0  0  0  0  0
   15.2318   22.7254   -5.2406 C   0  0  0  0  0  0  0  0  0  0  0  0
   15.2947   24.0659   -5.1913 C   0  0  0  0  0  0  0  0  0  0  0  0
   15.7508   24.7982   -6.2605 N   0  0  0  0  0  0  0  0  0  0  0  0
   15.8635   26.1026   -6.2520 C   0  0  0  0  0  0  0  0  0  0  0  0
   15.5233   26.9085   -5.1306 C   0  0  0  0  0  0  0  0  0  0  0  0
   15.0604   26.1989   -4.0382 C   0  0  0  0  0  0  0  0  0  0  0  0
   14.9678   24.8396   -4.0772 C   0  0  0  0  0  0  0  0  0  0  0  0
   14.5734   24.0682   -2.9939 C   0  0  0  0  0  0  0  0  0  0  0  0
   14.5004   22.7168   -2.9775 C   0  0  0  0  0  0  0  0  0  0  0  0
   14.1796   21.8483   -1.9505 N   0  0  0  0  0  0  0  0  0  0  0  0
   13.8939   21.0220   -0.9468 C   0  0  0  0  0  0  0  0  0  0  0  0
   14.5229   20.9552    0.1950 O   0  0  0  0  0  0  0  0  0  0  0  0
   15.4213   22.0924   -1.4031 H   0  0  0  0  0  0  0  0  0  0  0  0
   12.7499   20.0092   -1.0284 C   0  0  0  0  0  0  0  0  0  0  0  0
   11.7051   20.2554   -0.3111 C   0  0  0  0  0  0  0  0  0  0  0  0
   10.5042   19.3461   -0.2819 C   0  0  0  0  0  0  0  0  0  0  0  0
    9.3818   20.1581   -0.5012 N   0  0  0  0  0  0  0  0  0  0  0  0
    9.4018   21.5129   -0.0777 C   0  0  0  0  0  0  0  0  0  0  0  0
    8.0805   21.7629    0.6968 C   0  0  0  0  0  0  0  0  0  0  0  0
    7.1575   20.8028    0.3151 O   0  0  0  0  0  0  0  0  0  0  0  0
    7.0777   20.4797   -0.9993 C   0  0  0  0  0  0  0  0  0  0  0  0
    8.4252   19.8652   -1.4435 C   0  0  0  0  0  0  0  0  0  0  0  0
   15.6706   28.3319   -5.2027 C   0  0  0  0  0  0  0  0  0  0  0  0
   15.8039   29.4791   -5.2328 N   0  0  0  0  0  0  0  0  0  0  0  0
   14.5147   26.9760   -2.9334 N   0  0  0  0  0  0  0  0  0  0  0  0
   14.6885   27.9780   -2.9273 H   0  0  0  0  0  0  0  0  0  0  0  0
   13.7655   26.2306   -1.9517 C   0  0  0  0  0  0  0  0  0  0  0  0
   14.3156   25.9853   -0.7460 C   0  0  0  0  0  0  0  0  0  0  0  0
   13.5680   25.2521    0.1620 C   0  0  0  0  0  0  0  0  0  0  0  0
   12.3464   24.7485   -0.0309 C   0  0  0  0  0  0  0  0  0  0  0  0
   11.7769   25.0190   -1.3346 C   0  0  0  0  0  0  0  0  0  0  0  0
   10.1972   24.3882   -1.6617 Cl  0  0  0  0  0  0  0  0  0  0  0  0
   12.4831   25.7470   -2.2630 C   0  0  0  0  0  0  0  0  0  0  0  0
   11.5739   24.0245    0.8064 O   0  0  0  0  0  0  0  0  0  0  0  0
   10.6121   24.3397    1.7156 C   0  0  0  0  0  0  0  0  0  0  0  0
   10.3401   23.3900    2.8136 C   0  0  0  0  0  0  0  0  0  0  0  0
    9.3963   23.5779    3.7906 C   0  0  0  0  0  0  0  0  0  0  0  0
    9.1250   22.6638    4.7903 C   0  0  0  0  0  0  0  0  0  0  0  0
    9.8715   21.4771    4.7922 C   0  0  0  0  0  0  0  0  0  0  0  0
   10.7889   21.3196    3.8239 C   0  0  0  0  0  0  0  0  0  0  0  0
   11.0641   22.2254    2.8312 N   0  0  0  0  0  0  0  0  0  0  0  0
   14.8010   20.5852   -4.1960 O   0  0  0  0  0  0  0  0  0  0  0  0
   13.1044   19.5036   -5.5642 C   0  0  0  0  0  0  0  0  0  0  0  0
   14.5696   19.8778   -5.4003 C   0  0  0  0  0  0  0  0  0  0  0  0
 44 45  1  0  0  0
 45 43  1  0  0  0
 43  1  1  0  0  0
  1  2  2  0  0  0
  2  3  1  0  0  0
  3  4  2  0  0  0
  4  5  1  0  0  0
  5  6  2  0  0  0
  6 24  1  0  0  0
 24 25  3  0  0  0
  6  7  1  0  0  0
  7 26  1  0  0  0
 26 28  1  0  0  0
 28 29  2  0  0  0
 29 30  1  0  0  0
 30 31  2  0  0  0
 31 35  1  0  0  0
 35 36  1  0  0  0
 36 37  1  0  0  0
 37 38  2  0  0  0
 38 39  1  0  0  0
 39 40  2  0  0  0
 40 41  1  0  0  0
 41 42  2  0  0  0
 31 32  1  0  0  0
 32 33  1  0  0  0
 32 34  2  0  0  0
  7  8  2  0  0  0
  8  9  1  0  0  0
  9 10  2  0  0  0
 10 11  1  0  0  0
 11 12  1  0  0  0
 12 13  2  0  0  0
 12 15  1  0  0  0
 15 16  2  0  0  0
 16 17  1  0  0  0
 17 18  1  0  0  0
 18 19  1  0  0  0
 19 20  1  0  0  0
 20 21  1  0  0  0
 21 22  1  0  0  0
 22 23  1  0  0  0
 10  1  1  0  0  0
 23 18  1  0  0  0
  8  3  1  0  0  0
 34 28  1  0  0  0
 42 37  1  0  0  0
 26 27  1  0  0  0
 11 14  1  0  0  0
M  END
> <minimizedAffinity>
1.98347

> <CNNscore>
0.4493835568

> <CNNaffinity>
8.0557632446

> <CNN_VS>
3.6201274395

> <CNNaffinity_variance>
0.2245580256

$$$$
[H]/C(C(=O)N([H])c1c(OC([H])([H])C([H])([H])[H])c([H])c2nc([H])c(C#N)c(N([H])c3c([H])c([H])c(OC([H])([H])c4nc([H])c([H])c([H])c4[H])c(Cl)c3[H])c2c1[H])=C(/[H])C([H])([H])N1C([H])([H])C([H])([H])OC([H])([H])C1([H])[H]


 45 49  0  0  0  0  0  0  0  0999 V2000
   14.4282   21.0503   -1.1428 C   0  0  0  0  0  0  0  0  0  0  0  0
   15.1298   21.5039   -2.2372 C   0  0  0  0  0  0  0  0  0  0  0  0
   14.9004   22.6995   -2.8039 C   0  0  0  0  0  0  0  0  0  0  0  0
   15.6641   23.1494   -3.8536 N   0  0  0  0  0  0  0  0  0  0  0  0
   15.5039   24.3193   -4.4191 C   0  0  0  0  0  0  0  0  0  0  0  0
   14.5163   25.2567   -4.0079 C   0  0  0  0  0  0  0  0  0  0  0  0
   13.7313   24.8314   -2.9525 C   0  0  0  0  0  0  0  0  0  0  0  0
   13.9339   23.6117   -2.3789 C   0  0  0  0  0  0  0  0  0  0  0  0
   13.2237   23.1564   -1.2779 C   0  0  0  0  0  0  0  0  0  0  0  0
   13.4149   21.9694   -0.6563 C   0  0  0  0  0  0  0  0  0  0  0  0
   12.8136   21.4400    0.4707 N   0  0  0  0  0  0  0  0  0  0  0  0
   12.2580   20.9134    1.5597 C   0  0  0  0  0  0  0  0  0  0  0  0
   12.8156   20.0505    2.3648 O   0  0  0  0  0  0  0  0  0  0  0  0
   13.7672   20.4442    0.4691 H   0  0  0  0  0  0  0  0  0  0  0  0
   10.8381   21.2725    2.0025 C   0  0  0  0  0  0  0  0  0  0  0  0
    9.8746   20.8708    1.2428 C   0  0  0  0  0  0  0  0  0  0  0  0
    8.4263   21.1555    1.5446 C   0  0  0  0  0  0  0  0  0  0  0  0
    7.6733   20.4534    0.5920 N   0  0  0  0  0  0  0  0  0  0  0  0
    6.2556   20.4774    0.6612 C   0  0  0  0  0  0  0  0  0  0  0  0
    5.7729   19.0080    0.5341 C   0  0  0  0  0  0  0  0  0  0  0  0
    6.7755   18.2654   -0.0681 O   0  0  0  0  0  0  0  0  0  0  0  0
    7.4363   18.8151   -1.1168 C   0  0  0  0  0  0  0  0  0  0  0  0
    8.1823   20.0781   -0.6282 C   0  0  0  0  0  0  0  0  0  0  0  0
   14.4015   26.5156   -4.6823 C   0  0  0  0  0  0  0  0  0  0  0  0
   14.3086   27.5155   -5.2535 N   0  0  0  0  0  0  0  0  0  0  0  0
   12.5817   25.6597   -2.6134 N   0  0  0  0  0  0  0  0  0  0  0  0
   12.2933   26.3675   -3.2842 H   0  0  0  0  0  0  0  0  0  0  0  0
   11.9581   25.3782   -1.3435 C   0  0  0  0  0  0  0  0  0  0  0  0
   12.5939   25.7175   -0.2046 C   0  0  0  0  0  0  0  0  0  0  0  0
   11.9667   25.4148    0.9936 C   0  0  0  0  0  0  0  0  0  0  0  0
   10.7867   24.8089    1.1471 C   0  0  0  0  0  0  0  0  0  0  0  0
   10.1240   24.4482   -0.0889 C   0  0  0  0  0  0  0  0  0  0  0  0
    8.5920   23.6489    0.0310 Cl  0  0  0  0  0  0  0  0  0  0  0  0
   10.7093   24.7349   -1.2997 C   0  0  0  0  0  0  0  0  0  0  0  0
   10.1300   24.4821    2.2803 O   0  0  0  0  0  0  0  0  0  0  0  0
    9.3691   25.1795    3.1666 C   0  0  0  0  0  0  0  0  0  0  0  0
    8.3334   24.4553    3.9310 C   0  0  0  0  0  0  0  0  0  0  0  0
    8.4982   23.2095    4.4799 C   0  0  0  0  0  0  0  0  0  0  0  0
    7.5344   22.5589    5.2258 C   0  0  0  0  0  0  0  0  0  0  0  0
    6.3177   23.2273    5.4219 C   0  0  0  0  0  0  0  0  0  0  0  0
    6.1837   24.4458    4.8730 C   0  0  0  0  0  0  0  0  0  0  0  0
    7.1363   25.0945    4.1292 N   0  0  0  0  0  0  0  0  0  0  0  0
   14.6720   19.8424   -0.5380 O   0  0  0  0  0  0  0  0  0  0  0  0
   16.0683   21.0658    1.0349 C   0  0  0  0  0  0  0  0  0  0  0  0
   15.6303   19.7125    0.4961 C   0  0  0  0  0  0  0  0  0  0  0  0
 44 45  1  0  0  0
 45 43  1  0  0  0
 43  1  1  0  0  0
  1  2  2  0  0  0
  2  3  1  0  0  0
  3  4  2  0  0  0
  4  5  1  0  0  0
  5  6  2  0  0  0
  6 24  1  0  0  0
 24 25  3  0  0  0
  6  7  1  0  0  0
  7 26  1  0  0  0
 26 28  1  0  0  0
 28 29  2  0  0  0
 29 30  1  0  0  0
 30 31  2  0  0  0
 31 35  1  0  0  0
 35 36  1  0  0  0
 36 37  1  0  0  0
 37 38  2  0  0  0
 38 39  1  0  0  0
 39 40  2  0  0  0
 40 41  1  0  0  0
 41 42  2  0  0  0
 31 32  1  0  0  0
 32 33  1  0  0  0
 32 34  2  0  0  0
  7  8  2  0  0  0
  8  9  1  0  0  0
  9 10  2  0  0  0
 10 11  1  0  0  0
 11 12  1  0  0  0
 12 13  2  0  0  0
 12 15  1  0  0  0
 15 16  2  0  0  0
 16 17  1  0  0  0
 17 18  1  0  0  0
 18 19  1  0  0  0
 19 20  1  0  0  0
 20 21  1  0  0  0
 21 22  1  0  0  0
 22 23  1  0  0  0
 10  1  1  0  0  0
 23 18  1  0  0  0
  8  3  1  0  0  0
 34 28  1  0  0  0
 42 37  1  0  0  0
 26 27  1  0  0  0
 11 14  1  0  0  0
M  END
> <minimizedAffinity>
-4.91246

> <CNNscore>
0.4376640022

> <CNNaffinity>
8.1161623001

> <CNN_VS>
3.5521521568

> <CNNaffinity_variance>
0.0758879334

$$$$
[H]/C(C(=O)N([H])c1c(OC([H])([H])C([H])([H])[H])c([H])c2nc([H])c(C#N)c(N([H])c3c([H])c([H])c(OC([H])([H])c4nc([H])c([H])c([H])c4[H])c(Cl)c3[H])c2c1[H])=C(/[H])C([H])([H])N1C([H])([H])C([H])([H])OC([H])([H])C1([H])[H]


 45 49  0  0  0  0  0  0  0  0999 V2000
   13.6328   20.6887   -1.9225 C   0  0  0  0  0  0  0  0  0  0  0  0
   14.5762   21.2167   -2.7750 C   0  0  0  0  0  0  0  0  0  0  0  0
   14.7623   22.5381   -2.9256 C   0  0  0  0  0  0  0  0  0  0  0  0
   15.7576   23.0305   -3.7345 N   0  0  0  0  0  0  0  0  0  0  0  0
   16.0023   24.3073   -3.8894 C   0  0  0  0  0  0  0  0  0  0  0  0
   15.2604   25.3296   -3.2355 C   0  0  0  0  0  0  0  0  0  0  0  0
   14.2506   24.8642   -2.4140 C   0  0  0  0  0  0  0  0  0  0  0  0
   14.0317   23.5270   -2.2661 C   0  0  0  0  0  0  0  0  0  0  0  0
   13.0786   22.9981   -1.4082 C   0  0  0  0  0  0  0  0  0  0  0  0
   12.8510   21.6795   -1.2047 C   0  0  0  0  0  0  0  0  0  0  0  0
   11.9778   21.0427   -0.3421 N   0  0  0  0  0  0  0  0  0  0  0  0
   11.1355   20.4074    0.4697 C   0  0  0  0  0  0  0  0  0  0  0  0
   10.6528   19.2084    0.2886 O   0  0  0  0  0  0  0  0  0  0  0  0
   11.6763   20.1583   -1.3559 H   0  0  0  0  0  0  0  0  0  0  0  0
   10.6118   21.0452    1.7581 C   0  0  0  0  0  0  0  0  0  0  0  0
    9.3301   21.0761    1.9106 C   0  0  0  0  0  0  0  0  0  0  0  0
    8.6681   21.6788    3.1223 C   0  0  0  0  0  0  0  0  0  0  0  0
    9.1897   21.0086    4.2385 N   0  0  0  0  0  0  0  0  0  0  0  0
    9.9876   21.7182    5.1739 C   0  0  0  0  0  0  0  0  0  0  0  0
   11.2573   20.8619    5.4249 C   0  0  0  0  0  0  0  0  0  0  0  0
   10.9817   19.5511    5.0711 O   0  0  0  0  0  0  0  0  0  0  0  0
    9.7798   19.0325    5.4248 C   0  0  0  0  0  0  0  0  0  0  0  0
    8.6642   19.8293    4.7099 C   0  0  0  0  0  0  0  0  0  0  0  0
   15.5877   26.7060   -3.4618 C   0  0  0  0  0  0  0  0  0  0  0  0
   15.8396   27.8229   -3.6160 N   0  0  0  0  0  0  0  0  0  0  0  0
   13.3347   25.8586   -1.8711 N   0  0  0  0  0  0  0  0  0  0  0  0
   13.5604   26.8396   -2.0154 H   0  0  0  0  0  0  0  0  0  0  0  0
   12.1801   25.3377   -1.1810 C   0  0  0  0  0  0  0  0  0  0  0  0
   11.1390   24.8665   -1.8957 C   0  0  0  0  0  0  0  0  0  0  0  0
   10.0434   24.3899   -1.1933 C   0  0  0  0  0  0  0  0  0  0  0  0
    9.9003   24.3511    0.1338 C   0  0  0  0  0  0  0  0  0  0  0  0
   11.0279   24.8673    0.8816 C   0  0  0  0  0  0  0  0  0  0  0  0
   10.9105   24.8586    2.6097 Cl  0  0  0  0  0  0  0  0  0  0  0  0
   12.1368   25.3450    0.2238 C   0  0  0  0  0  0  0  0  0  0  0  0
    8.8613   23.9081    0.8729 O   0  0  0  0  0  0  0  0  0  0  0  0
    7.7464   24.4963    1.3847 C   0  0  0  0  0  0  0  0  0  0  0  0
    7.8361   25.1494    2.7064 C   0  0  0  0  0  0  0  0  0  0  0  0
    7.8261   24.4852    3.9062 C   0  0  0  0  0  0  0  0  0  0  0  0
    7.9495   25.1049    5.1347 C   0  0  0  0  0  0  0  0  0  0  0  0
    8.0907   26.4998    5.1366 C   0  0  0  0  0  0  0  0  0  0  0  0
    8.0971   27.1243    3.9475 C   0  0  0  0  0  0  0  0  0  0  0  0
    7.9717   26.5139    2.7255 N   0  0  0  0  0  0  0  0  0  0  0  0
   13.4519   19.3404   -1.7394 O   0  0  0  0  0  0  0  0  0  0  0  0
   13.2207   19.2068   -4.1580 C   0  0  0  0  0  0  0  0  0  0  0  0
   13.1545   18.4797   -2.8236 C   0  0  0  0  0  0  0  0  0  0  0  0
 44 45  1  0  0  0
 45 43  1  0  0  0
 43  1  1  0  0  0
  1  2  2  0  0  0
  2  3  1  0  0  0
  3  4  2  0  0  0
  4  5  1  0  0  0
  5  6  2  0  0  0
  6 24  1  0  0  0
 24 25  3  0  0  0
  6  7  1  0  0  0
  7 26  1  0  0  0
 26 28  1  0  0  0
 28 29  2  0  0  0
 29 30  1  0  0  0
 30 31  2  0  0  0
 31 35  1  0  0  0
 35 36  1  0  0  0
 36 37  1  0  0  0
 37 38  2  0  0  0
 38 39  1  0  0  0
 39 40  2  0  0  0
 40 41  1  0  0  0
 41 42  2  0  0  0
 31 32  1  0  0  0
 32 33  1  0  0  0
 32 34  2  0  0  0
  7  8  2  0  0  0
  8  9  1  0  0  0
  9 10  2  0  0  0
 10 11  1  0  0  0
 11 12  1  0  0  0
 12 13  2  0  0  0
 12 15  1  0  0  0
 15 16  2  0  0  0
 16 17  1  0  0  0
 17 18  1  0  0  0
 18 19  1  0  0  0
 19 20  1  0  0  0
 20 21  1  0  0  0
 21 22  1  0  0  0
 22 23  1  0  0  0
 10  1  1  0  0  0
 23 18  1  0  0  0
  8  3  1  0  0  0
 34 28  1  0  0  0
 42 37  1  0  0  0
 26 27  1  0  0  0
 11 14  1  0  0  0
M  END
> <minimizedAffinity>
4.20267

> <CNNscore>
0.4370654523

> <CNNaffinity>
7.9035172462

> <CNN_VS>
3.4543542862

> <CNNaffinity_variance>
0.6153393984

$$$$
[H]/C(C(=O)N([H])c1c(OC([H])([H])C([H])([H])[H])c([H])c2nc([H])c(C#N)c(N([H])c3c([H])c([H])c(OC([H])([H])c4nc([H])c([H])c([H])c4[H])c(Cl)c3[H])c2c1[H])=C(/[H])C([H])([H])N1C([H])([H])C([H])([H])OC([H])([H])C1([H])[H]


 45 49  0  0  0  0  0  0  0  0999 V2000
   14.3818   21.0581   -0.8412 C   0  0  0  0  0  0  0  0  0  0  0  0
   15.0900   21.5558   -1.9119 C   0  0  0  0  0  0  0  0  0  0  0  0
   14.8000   22.7313   -2.4927 C   0  0  0  0  0  0  0  0  0  0  0  0
   15.5687   23.2298   -3.5164 N   0  0  0  0  0  0  0  0  0  0  0  0
   15.3494   24.3845   -4.0933 C   0  0  0  0  0  0  0  0  0  0  0  0
   14.2857   25.2529   -3.7230 C   0  0  0  0  0  0  0  0  0  0  0  0
   13.4938   24.7776   -2.6944 C   0  0  0  0  0  0  0  0  0  0  0  0
   13.7585   23.5762   -2.1076 C   0  0  0  0  0  0  0  0  0  0  0  0
   13.0416   23.0762   -1.0305 C   0  0  0  0  0  0  0  0  0  0  0  0
   13.2909   21.9068   -0.3963 C   0  0  0  0  0  0  0  0  0  0  0  0
   12.6867   21.3403    0.7109 N   0  0  0  0  0  0  0  0  0  0  0  0
   12.1288   20.7789    1.7811 C   0  0  0  0  0  0  0  0  0  0  0  0
   12.7006   19.9245    2.5854 O   0  0  0  0  0  0  0  0  0  0  0  0
   13.6747   20.3787    0.7148 H   0  0  0  0  0  0  0  0  0  0  0  0
   10.6887   21.0816    2.2002 C   0  0  0  0  0  0  0  0  0  0  0  0
    9.7642   20.7998    1.3442 C   0  0  0  0  0  0  0  0  0  0  0  0
    8.3027   21.0492    1.6117 C   0  0  0  0  0  0  0  0  0  0  0  0
    7.5897   20.3343    0.6382 N   0  0  0  0  0  0  0  0  0  0  0  0
    6.1717   20.2965    0.6929 C   0  0  0  0  0  0  0  0  0  0  0  0
    5.7536   18.8106    0.5327 C   0  0  0  0  0  0  0  0  0  0  0  0
    6.7929   18.1233   -0.0730 O   0  0  0  0  0  0  0  0  0  0  0  0
    7.4396   18.7211   -1.1040 C   0  0  0  0  0  0  0  0  0  0  0  0
    8.1261   20.0050   -0.5836 C   0  0  0  0  0  0  0  0  0  0  0  0
   14.1095   26.4992   -4.4075 C   0  0  0  0  0  0  0  0  0  0  0  0
   13.9987   27.5082   -4.9592 N   0  0  0  0  0  0  0  0  0  0  0  0
   12.2786   25.5259   -2.4013 N   0  0  0  0  0  0  0  0  0  0  0  0
   11.9704   26.2150   -3.0828 H   0  0  0  0  0  0  0  0  0  0  0  0
   11.6250   25.1992   -1.1576 C   0  0  0  0  0  0  0  0  0  0  0  0
   12.2494   25.4635    0.0072 C   0  0  0  0  0  0  0  0  0  0  0  0
   11.5929   25.1193    1.1783 C   0  0  0  0  0  0  0  0  0  0  0  0
   10.3942   24.5399    1.2816 C   0  0  0  0  0  0  0  0  0  0  0  0
    9.7441   24.2598    0.0183 C   0  0  0  0  0  0  0  0  0  0  0  0
    8.1890   23.4990    0.0727 Cl  0  0  0  0  0  0  0  0  0  0  0  0
   10.3585   24.5899   -1.1667 C   0  0  0  0  0  0  0  0  0  0  0  0
    9.7088   24.1757    2.3860 O   0  0  0  0  0  0  0  0  0  0  0  0
    9.4861   24.7579    3.5953 C   0  0  0  0  0  0  0  0  0  0  0  0
    8.3436   25.6836    3.7335 C   0  0  0  0  0  0  0  0  0  0  0  0
    8.4010   27.0333    3.4973 C   0  0  0  0  0  0  0  0  0  0  0  0
    7.3155   27.8824    3.5929 C   0  0  0  0  0  0  0  0  0  0  0  0
    6.0874   27.3126    3.9573 C   0  0  0  0  0  0  0  0  0  0  0  0
    6.0602   25.9888    4.1828 C   0  0  0  0  0  0  0  0  0  0  0  0
    7.1357   25.1422    4.0922 N   0  0  0  0  0  0  0  0  0  0  0  0
   14.6856   19.8713   -0.2218 O   0  0  0  0  0  0  0  0  0  0  0  0
   16.1553   21.1494    1.2367 C   0  0  0  0  0  0  0  0  0  0  0  0
   15.7288   19.7797    0.7311 C   0  0  0  0  0  0  0  0  0  0  0  0
 44 45  1  0  0  0
 45 43  1  0  0  0
 43  1  1  0  0  0
  1  2  2  0  0  0
  2  3  1  0  0  0
  3  4  2  0  0  0
  4  5  1  0  0  0
  5  6  2  0  0  0
  6 24  1  0  0  0
 24 25  3  0  0  0
  6  7  1  0  0  0
  7 26  1  0  0  0
 26 28  1  0  0  0
 28 29  2  0  0  0
 29 30  1  0  0  0
 30 31  2  0  0  0
 31 35  1  0  0  0
 35 36  1  0  0  0
 36 37  1  0  0  0
 37 38  2  0  0  0
 38 39  1  0  0  0
 39 40  2  0  0  0
 40 41  1  0  0  0
 41 42  2  0  0  0
 31 32  1  0  0  0
 32 33  1  0  0  0
 32 34  2  0  0  0
  7  8  2  0  0  0
  8  9  1  0  0  0
  9 10  2  0  0  0
 10 11  1  0  0  0
 11 12  1  0  0  0
 12 13  2  0  0  0
 12 15  1  0  0  0
 15 16  2  0  0  0
 16 17  1  0  0  0
 17 18  1  0  0  0
 18 19  1  0  0  0
 19 20  1  0  0  0
 20 21  1  0  0  0
 21 22  1  0  0  0
 22 23  1  0  0  0
 10  1  1  0  0  0
 23 18  1  0  0  0
  8  3  1  0  0  0
 34 28  1  0  0  0
 42 37  1  0  0  0
 26 27  1  0  0  0
 11 14  1  0  0  0
M  END
> <minimizedAffinity>
-5.28352

> <CNNscore>
0.4236787558

> <CNNaffinity>
8.1120586395

> <CNN_VS>
3.4369068146

> <CNNaffinity_variance>
0.0744781122

$$$$
[H]/C(C(=O)N([H])c1c(OC([H])([H])C([H])([H])[H])c([H])c2nc([H])c(C#N)c(N([H])c3c([H])c([H])c(OC([H])([H])c4nc([H])c([H])c([H])c4[H])c(Cl)c3[H])c2c1[H])=C(/[H])C([H])([H])N1C([H])([H])C([H])([H])OC([H])([H])C1([H])[H]


 45 49  0  0  0  0  0  0  0  0999 V2000
   14.4881   21.8276   -3.8852 C   0  0  0  0  0  0  0  0  0  0  0  0
   15.1354   22.7226   -4.7072 C   0  0  0  0  0  0  0  0  0  0  0  0
   15.5003   23.9499   -4.3021 C   0  0  0  0  0  0  0  0  0  0  0  0
   16.2042   24.7932   -5.1271 N   0  0  0  0  0  0  0  0  0  0  0  0
   16.6126   25.9848   -4.7698 C   0  0  0  0  0  0  0  0  0  0  0  0
   16.3700   26.5401   -3.4831 C   0  0  0  0  0  0  0  0  0  0  0  0
   15.6627   25.7138   -2.6299 C   0  0  0  0  0  0  0  0  0  0  0  0
   15.2638   24.4736   -3.0307 C   0  0  0  0  0  0  0  0  0  0  0  0
   14.6095   23.5750   -2.2010 C   0  0  0  0  0  0  0  0  0  0  0  0
   14.2266   22.3235   -2.5458 C   0  0  0  0  0  0  0  0  0  0  0  0
   13.6263   21.3300   -1.7943 N   0  0  0  0  0  0  0  0  0  0  0  0
   13.0643   20.3539   -1.0851 C   0  0  0  0  0  0  0  0  0  0  0  0
   13.3706   19.0866   -1.1465 O   0  0  0  0  0  0  0  0  0  0  0  0
   14.1449   20.4014   -2.6716 H   0  0  0  0  0  0  0  0  0  0  0  0
   11.9419   20.6218   -0.0803 C   0  0  0  0  0  0  0  0  0  0  0  0
   10.7386   20.6458   -0.5476 C   0  0  0  0  0  0  0  0  0  0  0  0
    9.5334   20.9056    0.3182 C   0  0  0  0  0  0  0  0  0  0  0  0
    8.4521   20.2562   -0.2954 N   0  0  0  0  0  0  0  0  0  0  0  0
    8.6789   19.4354   -1.4312 C   0  0  0  0  0  0  0  0  0  0  0  0
    7.6356   19.8499   -2.5027 C   0  0  0  0  0  0  0  0  0  0  0  0
    6.5801   20.4839   -1.8678 O   0  0  0  0  0  0  0  0  0  0  0  0
    6.1269   19.9596   -0.7024 C   0  0  0  0  0  0  0  0  0  0  0  0
    7.2592   20.0291    0.3482 C   0  0  0  0  0  0  0  0  0  0  0  0
   16.8463   27.8548   -3.1710 C   0  0  0  0  0  0  0  0  0  0  0  0
   17.2550   28.9101   -2.9383 N   0  0  0  0  0  0  0  0  0  0  0  0
   15.2157   26.2966   -1.3717 N   0  0  0  0  0  0  0  0  0  0  0  0
   15.6619   27.1567   -1.0629 H   0  0  0  0  0  0  0  0  0  0  0  0
   14.1637   25.5842   -0.6888 C   0  0  0  0  0  0  0  0  0  0  0  0
   14.4015   25.0630    0.5312 C   0  0  0  0  0  0  0  0  0  0  0  0
   13.3684   24.3727    1.1452 C   0  0  0  0  0  0  0  0  0  0  0  0
   12.1464   24.1580    0.6514 C   0  0  0  0  0  0  0  0  0  0  0  0
   11.9146   24.7216   -0.6622 C   0  0  0  0  0  0  0  0  0  0  0  0
   10.3541   24.4749   -1.3722 Cl  0  0  0  0  0  0  0  0  0  0  0  0
   12.9112   25.4182   -1.3044 C   0  0  0  0  0  0  0  0  0  0  0  0
   11.1056   23.4917    1.1944 O   0  0  0  0  0  0  0  0  0  0  0  0
   10.4496   23.5705    2.3838 C   0  0  0  0  0  0  0  0  0  0  0  0
   10.4575   22.3918    3.2738 C   0  0  0  0  0  0  0  0  0  0  0  0
   11.4664   21.4646    3.3302 C   0  0  0  0  0  0  0  0  0  0  0  0
   11.4796   20.3872    4.1949 C   0  0  0  0  0  0  0  0  0  0  0  0
   10.3849   20.2472    5.0597 C   0  0  0  0  0  0  0  0  0  0  0  0
    9.4115   21.1694    4.9827 C   0  0  0  0  0  0  0  0  0  0  0  0
    9.3924   22.2389    4.1239 N   0  0  0  0  0  0  0  0  0  0  0  0
   14.1346   20.5611   -4.2791 O   0  0  0  0  0  0  0  0  0  0  0  0
   13.0939   19.1489   -5.9653 C   0  0  0  0  0  0  0  0  0  0  0  0
   14.1715   20.1719   -5.6399 C   0  0  0  0  0  0  0  0  0  0  0  0
 44 45  1  0  0  0
 45 43  1  0  0  0
 43  1  1  0  0  0
  1  2  2  0  0  0
  2  3  1  0  0  0
  3  4  2  0  0  0
  4  5  1  0  0  0
  5  6  2  0  0  0
  6 24  1  0  0  0
 24 25  3  0  0  0
  6  7  1  0  0  0
  7 26  1  0  0  0
 26 28  1  0  0  0
 28 29  2  0  0  0
 29 30  1  0  0  0
 30 31  2  0  0  0
 31 35  1  0  0  0
 35 36  1  0  0  0
 36 37  1  0  0  0
 37 38  2  0  0  0
 38 39  1  0  0  0
 39 40  2  0  0  0
 40 41  1  0  0  0
 41 42  2  0  0  0
 31 32  1  0  0  0
 32 33  1  0  0  0
 32 34  2  0  0  0
  7  8  2  0  0  0
  8  9  1  0  0  0
  9 10  2  0  0  0
 10 11  1  0  0  0
 11 12  1  0  0  0
 12 13  2  0  0  0
 12 15  1  0  0  0
 15 16  2  0  0  0
 16 17  1  0  0  0
 17 18  1  0  0  0
 18 19  1  0  0  0
 19 20  1  0  0  0
 20 21  1  0  0  0
 21 22  1  0  0  0
 22 23  1  0  0  0
 10  1  1  0  0  0
 23 18  1  0  0  0
  8  3  1  0  0  0
 34 28  1  0  0  0
 42 37  1  0  0  0
 26 27  1  0  0  0
 11 14  1  0  0  0
M  END
> <minimizedAffinity>
2.35293

> <CNNscore>
0.4127182066

> <CNNaffinity>
8.0025987625

> <CNN_VS>
3.3028182983

> <CNNaffinity_variance>
0.2032563388

$$$$
[H]/C(C(=O)N([H])c1c(OC([H])([H])C([H])([H])[H])c([H])c2nc([H])c(C#N)c(N([H])c3c([H])c([H])c(OC([H])([H])c4nc([H])c([H])c([H])c4[H])c(Cl)c3[H])c2c1[H])=C(/[H])C([H])([H])N1C([H])([H])C([H])([H])OC([H])([H])C1([H])[H]


 45 49  0  0  0  0  0  0  0  0999 V2000
   16.0167   25.9087   -1.6337 C   0  0  0  0  0  0  0  0  0  0  0  0
   16.4100   25.0737   -0.6121 C   0  0  0  0  0  0  0  0  0  0  0  0
   15.6489   24.0611   -0.1662 C   0  0  0  0  0  0  0  0  0  0  0  0
   16.1002   23.2058    0.8096 N   0  0  0  0  0  0  0  0  0  0  0  0
   15.4124   22.1846    1.2549 C   0  0  0  0  0  0  0  0  0  0  0  0
   14.1161   21.8479    0.7763 C   0  0  0  0  0  0  0  0  0  0  0  0
   13.6347   22.6917   -0.2072 C   0  0  0  0  0  0  0  0  0  0  0  0
   14.3831   23.7384   -0.6566 C   0  0  0  0  0  0  0  0  0  0  0  0
   13.9830   24.5796   -1.6844 C   0  0  0  0  0  0  0  0  0  0  0  0
   14.7075   25.6076   -2.1846 C   0  0  0  0  0  0  0  0  0  0  0  0
   14.4386   26.4676   -3.2336 N   0  0  0  0  0  0  0  0  0  0  0  0
   14.2039   27.3105   -4.2367 C   0  0  0  0  0  0  0  0  0  0  0  0
   14.9779   28.2926   -4.6108 O   0  0  0  0  0  0  0  0  0  0  0  0
   15.3866   27.3294   -2.7241 H   0  0  0  0  0  0  0  0  0  0  0  0
   12.9403   27.2207   -5.0949 C   0  0  0  0  0  0  0  0  0  0  0  0
   11.8935   27.8329   -4.6518 C   0  0  0  0  0  0  0  0  0  0  0  0
   10.5760   27.8270   -5.3824 C   0  0  0  0  0  0  0  0  0  0  0  0
    9.9228   29.0199   -5.0395 N   0  0  0  0  0  0  0  0  0  0  0  0
   10.6687   30.0964   -4.4918 C   0  0  0  0  0  0  0  0  0  0  0  0
    9.8992   30.5852   -3.2358 C   0  0  0  0  0  0  0  0  0  0  0  0
    8.5793   30.1778   -3.3414 O   0  0  0  0  0  0  0  0  0  0  0  0
    7.9707   30.2881   -4.5481 C   0  0  0  0  0  0  0  0  0  0  0  0
    8.7006   29.3739   -5.5591 C   0  0  0  0  0  0  0  0  0  0  0  0
   13.4257   20.7159    1.3193 C   0  0  0  0  0  0  0  0  0  0  0  0
   12.8437   19.8110    1.7402 N   0  0  0  0  0  0  0  0  0  0  0  0
   12.2422   22.5175   -0.5984 N   0  0  0  0  0  0  0  0  0  0  0  0
   12.0498   21.9777   -1.4385 H   0  0  0  0  0  0  0  0  0  0  0  0
   11.2657   23.1330    0.2667 C   0  0  0  0  0  0  0  0  0  0  0  0
   11.5036   24.3633    0.7631 C   0  0  0  0  0  0  0  0  0  0  0  0
   10.5467   24.9113    1.6026 C   0  0  0  0  0  0  0  0  0  0  0  0
    9.4000   24.3437    1.9852 C   0  0  0  0  0  0  0  0  0  0  0  0
    9.1675   23.0205    1.4449 C   0  0  0  0  0  0  0  0  0  0  0  0
    7.7040   22.2165    1.9053 Cl  0  0  0  0  0  0  0  0  0  0  0  0
   10.0891   22.4422    0.6040 C   0  0  0  0  0  0  0  0  0  0  0  0
    8.4362   24.8204    2.8013 O   0  0  0  0  0  0  0  0  0  0  0  0
    8.4454   25.4641    3.9998 C   0  0  0  0  0  0  0  0  0  0  0  0
    7.5532   26.6266    4.1837 C   0  0  0  0  0  0  0  0  0  0  0  0
    7.6350   27.7929    3.4669 C   0  0  0  0  0  0  0  0  0  0  0  0
    6.7697   28.8587    3.6220 C   0  0  0  0  0  0  0  0  0  0  0  0
    5.7523   28.7233    4.5771 C   0  0  0  0  0  0  0  0  0  0  0  0
    5.6959   27.5708    5.2644 C   0  0  0  0  0  0  0  0  0  0  0  0
    6.5544   26.5112    5.1164 N   0  0  0  0  0  0  0  0  0  0  0  0
   16.7971   26.9295   -2.1164 O   0  0  0  0  0  0  0  0  0  0  0  0
   18.1453   28.1250   -3.7516 C   0  0  0  0  0  0  0  0  0  0  0  0
   17.4894   26.8140   -3.3460 C   0  0  0  0  0  0  0  0  0  0  0  0
 44 45  1  0  0  0
 45 43  1  0  0  0
 43  1  1  0  0  0
  1  2  2  0  0  0
  2  3  1  0  0  0
  3  4  2  0  0  0
  4  5  1  0  0  0
  5  6  2  0  0  0
  6 24  1  0  0  0
 24 25  3  0  0  0
  6  7  1  0  0  0
  7 26  1  0  0  0
 26 28  1  0  0  0
 28 29  2  0  0  0
 29 30  1  0  0  0
 30 31  2  0  0  0
 31 35  1  0  0  0
 35 36  1  0  0  0
 36 37  1  0  0  0
 37 38  2  0  0  0
 38 39  1  0  0  0
 39 40  2  0  0  0
 40 41  1  0  0  0
 41 42  2  0  0  0
 31 32  1  0  0  0
 32 33  1  0  0  0
 32 34  2  0  0  0
  7  8  2  0  0  0
  8  9  1  0  0  0
  9 10  2  0  0  0
 10 11  1  0  0  0
 11 12  1  0  0  0
 12 13  2  0  0  0
 12 15  1  0  0  0
 15 16  2  0  0  0
 16 17  1  0  0  0
 17 18  1  0  0  0
 18 19  1  0  0  0
 19 20  1  0  0  0
 20 21  1  0  0  0
 21 22  1  0  0  0
 22 23  1  0  0  0
 10  1  1  0  0  0
 23 18  1  0  0  0
  8  3  1  0  0  0
 34 28  1  0  0  0
 42 37  1  0  0  0
 26 27  1  0  0  0
 11 14  1  0  0  0
M  END
> <minimizedAffinity>
6.20195

> <CNNscore>
0.4052238762

> <CNNaffinity>
8.0639600754

> <CNN_VS>
3.2677092552

> <CNNaffinity_variance>
0.8405025601

$$$$
[H]/C(C(=O)N([H])c1c(OC([H])([H])C([H])([H])[H])c([H])c2nc([H])c(C#N)c(N([H])c3c([H])c([H])c(OC([H])([H])c4nc([H])c([H])c([H])c4[H])c(Cl)c3[H])c2c1[H])=C(/[H])C([H])([H])N1C([H])([H])C([H])([H])OC([H])([H])C1([H])[H]


 45 49  0  0  0  0  0  0  0  0999 V2000
   15.0864   21.9230   -4.5654 C   0  0  0  0  0  0  0  0  0  0  0  0
   15.3974   22.7376   -5.6310 C   0  0  0  0  0  0  0  0  0  0  0  0
   15.4419   24.0762   -5.5347 C   0  0  0  0  0  0  0  0  0  0  0  0
   15.8210   24.8557   -6.6006 N   0  0  0  0  0  0  0  0  0  0  0  0
   15.9133   26.1607   -6.5493 C   0  0  0  0  0  0  0  0  0  0  0  0
   15.6285   26.9184   -5.3799 C   0  0  0  0  0  0  0  0  0  0  0  0
   15.2436   26.1606   -4.2896 C   0  0  0  0  0  0  0  0  0  0  0  0
   15.1704   24.8022   -4.3745 C   0  0  0  0  0  0  0  0  0  0  0  0
   14.8543   23.9843   -3.2997 C   0  0  0  0  0  0  0  0  0  0  0  0
   14.8039   22.6321   -3.3303 C   0  0  0  0  0  0  0  0  0  0  0  0
   14.5595   21.7206   -2.3196 N   0  0  0  0  0  0  0  0  0  0  0  0
   14.3527   20.8373   -1.3455 C   0  0  0  0  0  0  0  0  0  0  0  0
   15.2752   20.1779   -0.6991 O   0  0  0  0  0  0  0  0  0  0  0  0
   15.8423   21.2439   -2.4870 H   0  0  0  0  0  0  0  0  0  0  0  0
   12.9471   20.4767   -0.8602 C   0  0  0  0  0  0  0  0  0  0  0  0
   12.6407   20.8298    0.3431 C   0  0  0  0  0  0  0  0  0  0  0  0
   11.2983   20.5369    0.9613 C   0  0  0  0  0  0  0  0  0  0  0  0
   11.4889   20.5365    2.3508 N   0  0  0  0  0  0  0  0  0  0  0  0
   12.3237   19.5538    2.9446 C   0  0  0  0  0  0  0  0  0  0  0  0
   11.5379   18.9590    4.1434 C   0  0  0  0  0  0  0  0  0  0  0  0
   10.5605   19.8647    4.5225 O   0  0  0  0  0  0  0  0  0  0  0  0
   10.8880   21.1800    4.5611 C   0  0  0  0  0  0  0  0  0  0  0  0
   11.2584   21.6427    3.1330 C   0  0  0  0  0  0  0  0  0  0  0  0
   15.7486   28.3458   -5.4065 C   0  0  0  0  0  0  0  0  0  0  0  0
   15.8196   29.4989   -5.4101 N   0  0  0  0  0  0  0  0  0  0  0  0
   14.7532   26.8863   -3.1254 N   0  0  0  0  0  0  0  0  0  0  0  0
   15.0784   27.8403   -2.9900 H   0  0  0  0  0  0  0  0  0  0  0  0
   13.8358   26.1654   -2.2772 C   0  0  0  0  0  0  0  0  0  0  0  0
   12.5407   26.0665   -2.6370 C   0  0  0  0  0  0  0  0  0  0  0  0
   11.6902   25.3789   -1.7857 C   0  0  0  0  0  0  0  0  0  0  0  0
   12.0157   24.8000   -0.6272 C   0  0  0  0  0  0  0  0  0  0  0  0
   13.4104   24.9234   -0.2575 C   0  0  0  0  0  0  0  0  0  0  0  0
   13.9056   24.2053    1.2390 Cl  0  0  0  0  0  0  0  0  0  0  0  0
   14.2889   25.5931   -1.0762 C   0  0  0  0  0  0  0  0  0  0  0  0
   11.2364   24.1259    0.2448 O   0  0  0  0  0  0  0  0  0  0  0  0
    9.8962   23.9159    0.3481 C   0  0  0  0  0  0  0  0  0  0  0  0
    9.2689   24.0018    1.6825 C   0  0  0  0  0  0  0  0  0  0  0  0
    9.6016   24.9232    2.6422 C   0  0  0  0  0  0  0  0  0  0  0  0
    8.9804   25.0176    3.8726 C   0  0  0  0  0  0  0  0  0  0  0  0
    7.9497   24.1058    4.1407 C   0  0  0  0  0  0  0  0  0  0  0  0
    7.6450   23.2146    3.1831 C   0  0  0  0  0  0  0  0  0  0  0  0
    8.2608   23.1149    1.9615 N   0  0  0  0  0  0  0  0  0  0  0  0
   15.0644   20.5528   -4.6445 O   0  0  0  0  0  0  0  0  0  0  0  0
   13.4733   19.8911   -6.3624 C   0  0  0  0  0  0  0  0  0  0  0  0
   13.8637   19.8450   -4.8931 C   0  0  0  0  0  0  0  0  0  0  0  0
 44 45  1  0  0  0
 45 43  1  0  0  0
 43  1  1  0  0  0
  1  2  2  0  0  0
  2  3  1  0  0  0
  3  4  2  0  0  0
  4  5  1  0  0  0
  5  6  2  0  0  0
  6 24  1  0  0  0
 24 25  3  0  0  0
  6  7  1  0  0  0
  7 26  1  0  0  0
 26 28  1  0  0  0
 28 29  2  0  0  0
 29 30  1  0  0  0
 30 31  2  0  0  0
 31 35  1  0  0  0
 35 36  1  0  0  0
 36 37  1  0  0  0
 37 38  2  0  0  0
 38 39  1  0  0  0
 39 40  2  0  0  0
 40 41  1  0  0  0
 41 42  2  0  0  0
 31 32  1  0  0  0
 32 33  1  0  0  0
 32 34  2  0  0  0
  7  8  2  0  0  0
  8  9  1  0  0  0
  9 10  2  0  0  0
 10 11  1  0  0  0
 11 12  1  0  0  0
 12 13  2  0  0  0
 12 15  1  0  0  0
 15 16  2  0  0  0
 16 17  1  0  0  0
 17 18  1  0  0  0
 18 19  1  0  0  0
 19 20  1  0  0  0
 20 21  1  0  0  0
 21 22  1  0  0  0
 22 23  1  0  0  0
 10  1  1  0  0  0
 23 18  1  0  0  0
  8  3  1  0  0  0
 34 28  1  0  0  0
 42 37  1  0  0  0
 26 27  1  0  0  0
 11 14  1  0  0  0
M  END
> <minimizedAffinity>
1.27417

> <CNNscore>
0.3940242827

> <CNNaffinity>
8.1074695587

> <CNN_VS>
3.1945397854

> <CNNaffinity_variance>
0.0536666028

$$$$
[H]OC([H])([H])[C@@]1(O[H])C([H])([H])[C@@]2([H])O[C@]1(C([H])([H])[H])n1c3c([H])c([H])c([H])c([H])c3c3c4c(c5c6c([H])c([H])c([H])c([H])c6n2c5c31)C(=O)N([H])C4([H])[H]


 36 43  0  0  0  0  0  0  0  0999 V2000
   15.2107   21.1713   -0.2678 C   0  0  0  0  0  0  0  0  0  0  0  0
   15.1949   22.6568   -0.3880 C   0  0  0  0  0  0  0  0  0  0  0  0
   16.2415   22.8461   -1.3324 O   0  0  0  0  0  0  0  0  0  0  0  0
   16.8387   24.0415   -1.1217 C   0  0  0  0  0  0  0  0  0  0  0  0
   16.7850   24.3144    0.3207 C   0  0  0  0  0  0  0  0  0  0  0  0
   15.7088   23.3778    0.8230 C   0  0  0  0  0  0  0  0  0  0  0  0
   14.7478   24.1689    1.4345 O   0  0  0  0  0  0  0  0  0  0  0  0
   16.2271   25.0821   -1.9586 N   0  0  0  0  0  0  0  0  0  0  0  0
   16.8014   26.0900   -2.5923 C   0  0  0  0  0  0  0  0  0  0  0  0
   18.1285   26.4314   -2.6304 C   0  0  0  0  0  0  0  0  0  0  0  0
   18.5020   27.5456   -3.3719 C   0  0  0  0  0  0  0  0  0  0  0  0
   17.5655   28.2844   -4.0484 C   0  0  0  0  0  0  0  0  0  0  0  0
   16.2094   27.9380   -4.0113 C   0  0  0  0  0  0  0  0  0  0  0  0
   15.8538   26.8420   -3.2801 C   0  0  0  0  0  0  0  0  0  0  0  0
   14.6449   26.2329   -3.0308 C   0  0  0  0  0  0  0  0  0  0  0  0
   13.3421   26.5012   -3.4093 C   0  0  0  0  0  0  0  0  0  0  0  0
   12.7048   27.5119   -4.2341 C   0  0  0  0  0  0  0  0  0  0  0  0
   13.1830   28.4627   -4.8547 O   0  0  0  0  0  0  0  0  0  0  0  0
   11.3002   27.2380   -4.2380 N   0  0  0  0  0  0  0  0  0  0  0  0
   11.0048   26.0794   -3.4306 C   0  0  0  0  0  0  0  0  0  0  0  0
   12.3440   25.6643   -2.9460 C   0  0  0  0  0  0  0  0  0  0  0  0
   12.6111   24.5759   -2.1228 C   0  0  0  0  0  0  0  0  0  0  0  0
   11.8599   23.6197   -1.5153 C   0  0  0  0  0  0  0  0  0  0  0  0
   10.4994   23.4154   -1.5302 C   0  0  0  0  0  0  0  0  0  0  0  0
    9.9648   22.3543   -0.7935 C   0  0  0  0  0  0  0  0  0  0  0  0
   10.8257   21.5456   -0.0734 C   0  0  0  0  0  0  0  0  0  0  0  0
   12.1911   21.7719   -0.0745 C   0  0  0  0  0  0  0  0  0  0  0  0
   12.7380   22.8081   -0.7924 C   0  0  0  0  0  0  0  0  0  0  0  0
   14.0149   23.2487   -0.9504 N   0  0  0  0  0  0  0  0  0  0  0  0
   13.8991   24.3439   -1.7748 C   0  0  0  0  0  0  0  0  0  0  0  0
   14.9206   25.1563   -2.2156 C   0  0  0  0  0  0  0  0  0  0  0  0
   14.9841   24.2591    2.3890 H   0  0  0  0  0  0  0  0  0  0  0  0
   10.5515   27.7819   -4.7464 H   0  0  0  0  0  0  0  0  0  0  0  0
   16.3132   22.4819    1.8504 C   0  0  0  0  0  0  0  0  0  0  0  0
   16.1336   21.1602    1.4409 O   0  0  0  0  0  0  0  0  0  0  0  0
   15.4772   20.6730    2.0010 H   0  0  0  0  0  0  0  0  0  0  0  0
  2  1  1  0  0  0
  2  3  1  0  0  0
  3  4  1  0  0  0
  4  5  1  0  0  0
  5  6  1  0  0  0
  6  7  1  0  0  0
  6 34  1  0  0  0
 34 35  1  0  0  0
  4  8  1  0  0  0
  8  9  1  0  0  0
  9 10  2  0  0  0
 10 11  1  0  0  0
 11 12  2  0  0  0
 12 13  1  0  0  0
 13 14  2  0  0  0
 14 15  1  0  0  0
 15 16  2  0  0  0
 16 17  1  0  0  0
 17 18  2  0  0  0
 17 19  1  0  0  0
 19 20  1  0  0  0
 20 21  1  0  0  0
 21 22  2  0  0  0
 22 23  1  0  0  0
 23 24  2  0  0  0
 24 25  1  0  0  0
 25 26  2  0  0  0
 26 27  1  0  0  0
 27 28  2  0  0  0
 28 29  1  0  0  0
 29 30  1  0  0  0
 30 31  2  0  0  0
  6  2  1  0  0  0
 31  8  1  0  0  0
 29  2  1  0  0  0
 14  9  1  0  0  0
 31 15  1  0  0  0
 21 16  1  0  0  0
 30 22  1  0  0  0
 28 23  1  0  0  0
  7 32  1  0  0  0
 35 36  1  0  0  0
 19 33  1  0  0  0
M  END
> <minimizedAffinity>
11.96050

> <CNNscore>
0.5576769710

> <CNNaffinity>
7.2240304947

> <CNN_VS>
4.0286755562

> <CNNaffinity_variance>
0.9779750705

$$$$
[H]OC([H])([H])[C@@]1(O[H])C([H])([H])[C@@]2([H])O[C@]1(C([H])([H])[H])n1c3c([H])c([H])c([H])c([H])c3c3c4c(c5c6c([H])c([H])c([H])c([H])c6n2c5c31)C(=O)N([H])C4([H])[H]


 36 43  0  0  0  0  0  0  0  0999 V2000
   14.0885   26.2079   -5.4825 C   0  0  0  0  0  0  0  0  0  0  0  0
   13.8906   25.9561   -4.0270 C   0  0  0  0  0  0  0  0  0  0  0  0
   13.3655   24.6349   -4.0669 O   0  0  0  0  0  0  0  0  0  0  0  0
   12.5343   24.4398   -3.0176 C   0  0  0  0  0  0  0  0  0  0  0  0
   11.8839   25.7237   -2.7241 C   0  0  0  0  0  0  0  0  0  0  0  0
   12.7675   26.7392   -3.4140 C   0  0  0  0  0  0  0  0  0  0  0  0
   13.1919   27.6258   -2.4357 O   0  0  0  0  0  0  0  0  0  0  0  0
   13.2597   23.8542   -1.8826 N   0  0  0  0  0  0  0  0  0  0  0  0
   12.8617   22.9340   -1.0212 C   0  0  0  0  0  0  0  0  0  0  0  0
   11.6565   22.2838   -0.9602 C   0  0  0  0  0  0  0  0  0  0  0  0
   11.4637   21.3445    0.0454 C   0  0  0  0  0  0  0  0  0  0  0  0
   12.4553   21.0753    0.9536 C   0  0  0  0  0  0  0  0  0  0  0  0
   13.6872   21.7378    0.8938 C   0  0  0  0  0  0  0  0  0  0  0  0
   13.8657   22.6583   -0.0978 C   0  0  0  0  0  0  0  0  0  0  0  0
   14.9205   23.4725   -0.4428 C   0  0  0  0  0  0  0  0  0  0  0  0
   16.1828   23.6779    0.0836 C   0  0  0  0  0  0  0  0  0  0  0  0
   16.9306   23.1175    1.1947 C   0  0  0  0  0  0  0  0  0  0  0  0
   16.6211   22.2569    2.0202 O   0  0  0  0  0  0  0  0  0  0  0  0
   18.2105   23.7572    1.2154 N   0  0  0  0  0  0  0  0  0  0  0  0
   18.3133   24.7257    0.1510 C   0  0  0  0  0  0  0  0  0  0  0  0
   16.9977   24.6141   -0.5253 C   0  0  0  0  0  0  0  0  0  0  0  0
   16.5885   25.3432   -1.6364 C   0  0  0  0  0  0  0  0  0  0  0  0
   17.1438   26.3123   -2.4113 C   0  0  0  0  0  0  0  0  0  0  0  0
   18.3776   26.9158   -2.3316 C   0  0  0  0  0  0  0  0  0  0  0  0
   18.7040   27.9159   -3.2523 C   0  0  0  0  0  0  0  0  0  0  0  0
   17.7716   28.2643   -4.2129 C   0  0  0  0  0  0  0  0  0  0  0  0
   16.5366   27.6422   -4.2721 C   0  0  0  0  0  0  0  0  0  0  0  0
   16.1955   26.6558   -3.3782 C   0  0  0  0  0  0  0  0  0  0  0  0
   15.0703   25.9105   -3.2112 N   0  0  0  0  0  0  0  0  0  0  0  0
   15.3464   25.1134   -2.1245 C   0  0  0  0  0  0  0  0  0  0  0  0
   14.5053   24.1895   -1.5442 C   0  0  0  0  0  0  0  0  0  0  0  0
   12.5398   28.3656   -2.3858 H   0  0  0  0  0  0  0  0  0  0  0  0
   18.9971   23.5757    1.8961 H   0  0  0  0  0  0  0  0  0  0  0  0
   11.9368   27.4833   -4.4039 C   0  0  0  0  0  0  0  0  0  0  0  0
   12.0664   28.8487   -4.1478 O   0  0  0  0  0  0  0  0  0  0  0  0
   11.2392   29.2474   -3.7753 H   0  0  0  0  0  0  0  0  0  0  0  0
  2  1  1  0  0  0
  2  3  1  0  0  0
  3  4  1  0  0  0
  4  5  1  0  0  0
  5  6  1  0  0  0
  6  7  1  0  0  0
  6 34  1  0  0  0
 34 35  1  0  0  0
  4  8  1  0  0  0
  8  9  1  0  0  0
  9 10  2  0  0  0
 10 11  1  0  0  0
 11 12  2  0  0  0
 12 13  1  0  0  0
 13 14  2  0  0  0
 14 15  1  0  0  0
 15 16  2  0  0  0
 16 17  1  0  0  0
 17 18  2  0  0  0
 17 19  1  0  0  0
 19 20  1  0  0  0
 20 21  1  0  0  0
 21 22  2  0  0  0
 22 23  1  0  0  0
 23 24  2  0  0  0
 24 25  1  0  0  0
 25 26  2  0  0  0
 26 27  1  0  0  0
 27 28  2  0  0  0
 28 29  1  0  0  0
 29 30  1  0  0  0
 30 31  2  0  0  0
  6  2  1  0  0  0
 31  8  1  0  0  0
 29  2  1  0  0  0
 14  9  1  0  0  0
 31 15  1  0  0  0
 21 16  1  0  0  0
 30 22  1  0  0  0
 28 23  1  0  0  0
  7 32  1  0  0  0
 35 36  1  0  0  0
 19 33  1  0  0  0
M  END
> <minimizedAffinity>
10.53682

> <CNNscore>
0.5465016365

> <CNNaffinity>
7.3612775803

> <CNN_VS>
4.0229501724

> <CNNaffinity_variance>
0.7039275169

$$$$
[H]OC([H])([H])[C@@]1(O[H])C([H])([H])[C@@]2([H])O[C@]1(C([H])([H])[H])n1c3c([H])c([H])c([H])c([H])c3c3c4c(c5c6c([H])c([H])c([H])c([H])c6n2c5c31)C(=O)N([H])C4([H])[H]


 36 43  0  0  0  0  0  0  0  0999 V2000
   16.2868   21.5015    0.4053 C   0  0  0  0  0  0  0  0  0  0  0  0
   15.9186   22.9116    0.0936 C   0  0  0  0  0  0  0  0  0  0  0  0
   16.7126   23.1309   -1.0659 O   0  0  0  0  0  0  0  0  0  0  0  0
   17.0552   24.4371   -1.1469 C   0  0  0  0  0  0  0  0  0  0  0  0
   17.1977   24.9427    0.2249 C   0  0  0  0  0  0  0  0  0  0  0  0
   16.4640   23.9188    1.0624 C   0  0  0  0  0  0  0  0  0  0  0  0
   15.4742   24.6044    1.7505 O   0  0  0  0  0  0  0  0  0  0  0  0
   16.0885   25.1774   -1.9683 N   0  0  0  0  0  0  0  0  0  0  0  0
   16.3019   26.1504   -2.8374 C   0  0  0  0  0  0  0  0  0  0  0  0
   17.4910   26.7292   -3.1982 C   0  0  0  0  0  0  0  0  0  0  0  0
   17.4690   27.7472   -4.1437 C   0  0  0  0  0  0  0  0  0  0  0  0
   16.2867   28.1616   -4.7013 C   0  0  0  0  0  0  0  0  0  0  0  0
   15.0708   27.5722   -4.3347 C   0  0  0  0  0  0  0  0  0  0  0  0
   15.1040   26.5734   -3.4053 C   0  0  0  0  0  0  0  0  0  0  0  0
   14.1254   25.7959   -2.8289 C   0  0  0  0  0  0  0  0  0  0  0  0
   12.7497   25.7375   -2.9582 C   0  0  0  0  0  0  0  0  0  0  0  0
   11.7673   26.4462   -3.7585 C   0  0  0  0  0  0  0  0  0  0  0  0
   11.9035   27.3478   -4.5871 O   0  0  0  0  0  0  0  0  0  0  0  0
   10.4813   25.9103   -3.4312 N   0  0  0  0  0  0  0  0  0  0  0  0
   10.5997   24.8760   -2.4323 C   0  0  0  0  0  0  0  0  0  0  0  0
   12.0617   24.8181   -2.1883 C   0  0  0  0  0  0  0  0  0  0  0  0
   12.7064   23.9628   -1.3014 C   0  0  0  0  0  0  0  0  0  0  0  0
   12.3074   23.0011   -0.4276 C   0  0  0  0  0  0  0  0  0  0  0  0
   11.0462   22.5390   -0.1294 C   0  0  0  0  0  0  0  0  0  0  0  0
   10.9011   21.5403    0.8380 C   0  0  0  0  0  0  0  0  0  0  0  0
   12.0342   21.0515    1.4631 C   0  0  0  0  0  0  0  0  0  0  0  0
   13.2923   21.5330    1.1455 C   0  0  0  0  0  0  0  0  0  0  0  0
   13.4581   22.5133    0.1969 C   0  0  0  0  0  0  0  0  0  0  0  0
   14.5558   23.1572   -0.2828 N   0  0  0  0  0  0  0  0  0  0  0  0
   14.0544   24.0480   -1.2034 C   0  0  0  0  0  0  0  0  0  0  0  0
   14.7742   24.9522   -1.9532 C   0  0  0  0  0  0  0  0  0  0  0  0
   15.8492   24.9041    2.6133 H   0  0  0  0  0  0  0  0  0  0  0  0
    9.5523   26.2021   -3.8393 H   0  0  0  0  0  0  0  0  0  0  0  0
   17.4251   23.3501    2.0505 C   0  0  0  0  0  0  0  0  0  0  0  0
   18.5715   24.1455    2.0558 O   0  0  0  0  0  0  0  0  0  0  0  0
   19.3543   23.6895    1.6544 H   0  0  0  0  0  0  0  0  0  0  0  0
  2  1  1  0  0  0
  2  3  1  0  0  0
  3  4  1  0  0  0
  4  5  1  0  0  0
  5  6  1  0  0  0
  6  7  1  0  0  0
  6 34  1  0  0  0
 34 35  1  0  0  0
  4  8  1  0  0  0
  8  9  1  0  0  0
  9 10  2  0  0  0
 10 11  1  0  0  0
 11 12  2  0  0  0
 12 13  1  0  0  0
 13 14  2  0  0  0
 14 15  1  0  0  0
 15 16  2  0  0  0
 16 17  1  0  0  0
 17 18  2  0  0  0
 17 19  1  0  0  0
 19 20  1  0  0  0
 20 21  1  0  0  0
 21 22  2  0  0  0
 22 23  1  0  0  0
 23 24  2  0  0  0
 24 25  1  0  0  0
 25 26  2  0  0  0
 26 27  1  0  0  0
 27 28  2  0  0  0
 28 29  1  0  0  0
 29 30  1  0  0  0
 30 31  2  0  0  0
  6  2  1  0  0  0
 31  8  1  0  0  0
 29  2  1  0  0  0
 14  9  1  0  0  0
 31 15  1  0  0  0
 21 16  1  0  0  0
 30 22  1  0  0  0
 28 23  1  0  0  0
  7 32  1  0  0  0
 35 36  1  0  0  0
 19 33  1  0  0  0
M  END
> <minimizedAffinity>
15.67617

> <CNNscore>
0.5148933530

> <CNNaffinity>
7.1113395691

> <CNN_VS>
3.6615815163

> <CNNaffinity_variance>
0.5503443480

$$$$
[H]OC([H])([H])[C@@]1(O[H])C([H])([H])[C@@]2([H])O[C@]1(C([H])([H])[H])n1c3c([H])c([H])c([H])c([H])c3c3c4c(c5c6c([H])c([H])c([H])c([H])c6n2c5c31)C(=O)N([H])C4([H])[H]


 36 43  0  0  0  0  0  0  0  0999 V2000
   15.3884   21.9676   -0.6504 C   0  0  0  0  0  0  0  0  0  0  0  0
   15.0283   23.2068   -1.3959 C   0  0  0  0  0  0  0  0  0  0  0  0
   16.1481   24.0260   -1.0826 O   0  0  0  0  0  0  0  0  0  0  0  0
   15.7772   25.3269   -1.0761 C   0  0  0  0  0  0  0  0  0  0  0  0
   14.3837   25.3871   -0.6153 C   0  0  0  0  0  0  0  0  0  0  0  0
   13.8830   23.9720   -0.8014 C   0  0  0  0  0  0  0  0  0  0  0  0
   12.7832   24.0475   -1.6427 O   0  0  0  0  0  0  0  0  0  0  0  0
   16.0076   25.9389   -2.3912 N   0  0  0  0  0  0  0  0  0  0  0  0
   16.4440   27.1520   -2.6839 C   0  0  0  0  0  0  0  0  0  0  0  0
   16.7942   28.1643   -1.8286 C   0  0  0  0  0  0  0  0  0  0  0  0
   17.2299   29.3664   -2.3726 C   0  0  0  0  0  0  0  0  0  0  0  0
   17.3073   29.5346   -3.7313 C   0  0  0  0  0  0  0  0  0  0  0  0
   16.9503   28.5024   -4.6073 C   0  0  0  0  0  0  0  0  0  0  0  0
   16.5237   27.3262   -4.0623 C   0  0  0  0  0  0  0  0  0  0  0  0
   16.1054   26.1354   -4.6114 C   0  0  0  0  0  0  0  0  0  0  0  0
   15.9459   25.6835   -5.9087 C   0  0  0  0  0  0  0  0  0  0  0  0
   16.1667   26.2555   -7.2247 C   0  0  0  0  0  0  0  0  0  0  0  0
   16.5784   27.3672   -7.5600 O   0  0  0  0  0  0  0  0  0  0  0  0
   15.8083   25.2611   -8.1894 N   0  0  0  0  0  0  0  0  0  0  0  0
   15.3523   24.0584   -7.5359 C   0  0  0  0  0  0  0  0  0  0  0  0
   15.4741   24.3977   -6.0970 C   0  0  0  0  0  0  0  0  0  0  0  0
   15.1611   23.5591   -5.0328 C   0  0  0  0  0  0  0  0  0  0  0  0
   14.6758   22.2951   -4.9123 C   0  0  0  0  0  0  0  0  0  0  0  0
   14.3197   21.3837   -5.8794 C   0  0  0  0  0  0  0  0  0  0  0  0
   13.8204   20.1383   -5.4867 C   0  0  0  0  0  0  0  0  0  0  0  0
   13.7017   19.8664   -4.1356 C   0  0  0  0  0  0  0  0  0  0  0  0
   14.0669   20.8004   -3.1816 C   0  0  0  0  0  0  0  0  0  0  0  0
   14.5610   22.0300   -3.5452 C   0  0  0  0  0  0  0  0  0  0  0  0
   14.9717   23.1089   -2.8264 N   0  0  0  0  0  0  0  0  0  0  0  0
   15.3319   24.0360   -3.7769 C   0  0  0  0  0  0  0  0  0  0  0  0
   15.7987   25.3120   -3.5495 C   0  0  0  0  0  0  0  0  0  0  0  0
   11.9757   24.1605   -1.0857 H   0  0  0  0  0  0  0  0  0  0  0  0
   15.8557   25.3535   -9.2401 H   0  0  0  0  0  0  0  0  0  0  0  0
   13.4347   23.4583    0.5248 C   0  0  0  0  0  0  0  0  0  0  0  0
   12.5473   24.3829    1.0766 O   0  0  0  0  0  0  0  0  0  0  0  0
   12.9302   24.8615    1.8553 H   0  0  0  0  0  0  0  0  0  0  0  0
  2  1  1  0  0  0
  2  3  1  0  0  0
  3  4  1  0  0  0
  4  5  1  0  0  0
  5  6  1  0  0  0
  6  7  1  0  0  0
  6 34  1  0  0  0
 34 35  1  0  0  0
  4  8  1  0  0  0
  8  9  1  0  0  0
  9 10  2  0  0  0
 10 11  1  0  0  0
 11 12  2  0  0  0
 12 13  1  0  0  0
 13 14  2  0  0  0
 14 15  1  0  0  0
 15 16  2  0  0  0
 16 17  1  0  0  0
 17 18  2  0  0  0
 17 19  1  0  0  0
 19 20  1  0  0  0
 20 21  1  0  0  0
 21 22  2  0  0  0
 22 23  1  0  0  0
 23 24  2  0  0  0
 24 25  1  0  0  0
 25 26  2  0  0  0
 26 27  1  0  0  0
 27 28  2  0  0  0
 28 29  1  0  0  0
 29 30  1  0  0  0
 30 31  2  0  0  0
  6  2  1  0  0  0
 31  8  1  0  0  0
 29  2  1  0  0  0
 14  9  1  0  0  0
 31 15  1  0  0  0
 21 16  1  0  0  0
 30 22  1  0  0  0
 28 23  1  0  0  0
  7 32  1  0  0  0
 35 36  1  0  0  0
 19 33  1  0  0  0
M  END
> <minimizedAffinity>
24.36604

> <CNNscore>
0.5143551230

> <CNNaffinity>
7.0407471657

> <CNN_VS>
3.6214444637

> <CNNaffinity_variance>
1.0044530630

$$$$
[H]OC([H])([H])[C@@]1(O[H])C([H])([H])[C@@]2([H])O[C@]1(C([H])([H])[H])n1c3c([H])c([H])c([H])c([H])c3c3c4c(c5c6c([H])c([H])c([H])c([H])c6n2c5c31)C(=O)N([H])C4([H])[H]


 36 43  0  0  0  0  0  0  0  0999 V2000
   12.5333   27.0860   -2.8519 C   0  0  0  0  0  0  0  0  0  0  0  0
   13.5249   25.9780   -2.7508 C   0  0  0  0  0  0  0  0  0  0  0  0
   14.5836   26.6457   -2.0753 O   0  0  0  0  0  0  0  0  0  0  0  0
   15.7702   26.1036   -2.4335 C   0  0  0  0  0  0  0  0  0  0  0  0
   15.6499   25.6585   -3.8282 C   0  0  0  0  0  0  0  0  0  0  0  0
   14.1560   25.5956   -4.0569 C   0  0  0  0  0  0  0  0  0  0  0  0
   13.8676   24.2946   -4.4410 O   0  0  0  0  0  0  0  0  0  0  0  0
   16.1637   25.0473   -1.4920 N   0  0  0  0  0  0  0  0  0  0  0  0
   17.3628   24.7516   -1.0208 C   0  0  0  0  0  0  0  0  0  0  0  0
   18.5621   25.3569   -1.2937 C   0  0  0  0  0  0  0  0  0  0  0  0
   19.7046   24.8672   -0.6729 C   0  0  0  0  0  0  0  0  0  0  0  0
   19.6331   23.8049    0.1914 C   0  0  0  0  0  0  0  0  0  0  0  0
   18.4096   23.1848    0.4721 C   0  0  0  0  0  0  0  0  0  0  0  0
   17.2940   23.6738   -0.1432 C   0  0  0  0  0  0  0  0  0  0  0  0
   15.9657   23.3156   -0.0994 C   0  0  0  0  0  0  0  0  0  0  0  0
   15.2624   22.3276    0.5653 C   0  0  0  0  0  0  0  0  0  0  0  0
   15.6153   21.2754    1.5014 C   0  0  0  0  0  0  0  0  0  0  0  0
   16.7043   20.9587    1.9828 O   0  0  0  0  0  0  0  0  0  0  0  0
   14.4118   20.5753    1.8323 N   0  0  0  0  0  0  0  0  0  0  0  0
   13.2849   21.1393    1.1299 C   0  0  0  0  0  0  0  0  0  0  0  0
   13.8984   22.2458    0.3554 C   0  0  0  0  0  0  0  0  0  0  0  0
   13.2247   23.1178   -0.4929 C   0  0  0  0  0  0  0  0  0  0  0  0
   11.9357   23.2643   -0.8985 C   0  0  0  0  0  0  0  0  0  0  0  0
   10.8123   22.5420   -0.5681 C   0  0  0  0  0  0  0  0  0  0  0  0
    9.5883   22.8886   -1.1479 C   0  0  0  0  0  0  0  0  0  0  0  0
    9.5507   23.9484   -2.0362 C   0  0  0  0  0  0  0  0  0  0  0  0
   10.6951   24.6596   -2.3526 C   0  0  0  0  0  0  0  0  0  0  0  0
   11.9082   24.3369   -1.7935 C   0  0  0  0  0  0  0  0  0  0  0  0
   13.1581   24.8525   -1.9396 N   0  0  0  0  0  0  0  0  0  0  0  0
   13.9467   24.0733   -1.1251 C   0  0  0  0  0  0  0  0  0  0  0  0
   15.3075   24.1853   -0.9420 C   0  0  0  0  0  0  0  0  0  0  0  0
   13.9263   24.2433   -5.4253 H   0  0  0  0  0  0  0  0  0  0  0  0
   14.3178   19.7565    2.4923 H   0  0  0  0  0  0  0  0  0  0  0  0
   13.8183   26.5116   -5.1841 C   0  0  0  0  0  0  0  0  0  0  0  0
   14.8867   26.5161   -6.0814 O   0  0  0  0  0  0  0  0  0  0  0  0
   15.3834   27.3735   -6.0791 H   0  0  0  0  0  0  0  0  0  0  0  0
  2  1  1  0  0  0
  2  3  1  0  0  0
  3  4  1  0  0  0
  4  5  1  0  0  0
  5  6  1  0  0  0
  6  7  1  0  0  0
  6 34  1  0  0  0
 34 35  1  0  0  0
  4  8  1  0  0  0
  8  9  1  0  0  0
  9 10  2  0  0  0
 10 11  1  0  0  0
 11 12  2  0  0  0
 12 13  1  0  0  0
 13 14  2  0  0  0
 14 15  1  0  0  0
 15 16  2  0  0  0
 16 17  1  0  0  0
 17 18  2  0  0  0
 17 19  1  0  0  0
 19 20  1  0  0  0
 20 21  1  0  0  0
 21 22  2  0  0  0
 22 23  1  0  0  0
 23 24  2  0  0  0
 24 25  1  0  0  0
 25 26  2  0  0  0
 26 27  1  0  0  0
 27 28  2  0  0  0
 28 29  1  0  0  0
 29 30  1  0  0  0
 30 31  2  0  0  0
  6  2  1  0  0  0
 31  8  1  0  0  0
 29  2  1  0  0  0
 14  9  1  0  0  0
 31 15  1  0  0  0
 21 16  1  0  0  0
 30 22  1  0  0  0
 28 23  1  0  0  0
  7 32  1  0  0  0
 35 36  1  0  0  0
 19 33  1  0  0  0
M  END
> <minimizedAffinity>
23.93907

> <CNNscore>
0.4758089483

> <CNNaffinity>
7.2318887711

> <CNN_VS>
3.4409973621

> <CNNaffinity_variance>
1.4771174192

$$$$
[H]OC([H])([H])[C@@]1(O[H])C([H])([H])[C@@]2([H])O[C@]1(C([H])([H])[H])n1c3c([H])c([H])c([H])c([H])c3c3c4c(c5c6c([H])c([H])c([H])c([H])c6n2c5c31)C(=O)N([H])C4([H])[H]


 36 43  0  0  0  0  0  0  0  0999 V2000
   12.0990   20.2894    0.1975 C   0  0  0  0  0  0  0  0  0  0  0  0
   13.1015   21.2707   -0.3057 C   0  0  0  0  0  0  0  0  0  0  0  0
   13.2607   20.8088   -1.6415 O   0  0  0  0  0  0  0  0  0  0  0  0
   14.5128   21.0815   -2.0750 C   0  0  0  0  0  0  0  0  0  0  0  0
   15.4105   20.9961   -0.9155 C   0  0  0  0  0  0  0  0  0  0  0  0
   14.4760   21.0965    0.2697 C   0  0  0  0  0  0  0  0  0  0  0  0
   14.8966   22.1873    1.0157 O   0  0  0  0  0  0  0  0  0  0  0  0
   14.5498   22.3713   -2.7766 N   0  0  0  0  0  0  0  0  0  0  0  0
   15.2305   22.7166   -3.8559 C   0  0  0  0  0  0  0  0  0  0  0  0
   16.0893   21.9552   -4.6053 C   0  0  0  0  0  0  0  0  0  0  0  0
   16.6967   22.5398   -5.7099 C   0  0  0  0  0  0  0  0  0  0  0  0
   16.4424   23.8460   -6.0411 C   0  0  0  0  0  0  0  0  0  0  0  0
   15.5656   24.6261   -5.2776 C   0  0  0  0  0  0  0  0  0  0  0  0
   14.9747   24.0419   -4.1950 C   0  0  0  0  0  0  0  0  0  0  0  0
   14.0856   24.5014   -3.2501 C   0  0  0  0  0  0  0  0  0  0  0  0
   13.4678   25.7190   -3.0296 C   0  0  0  0  0  0  0  0  0  0  0  0
   13.4773   27.0063   -3.7007 C   0  0  0  0  0  0  0  0  0  0  0  0
   14.0776   27.3841   -4.7081 O   0  0  0  0  0  0  0  0  0  0  0  0
   12.6090   27.8771   -2.9688 N   0  0  0  0  0  0  0  0  0  0  0  0
   12.0400   27.1926   -1.8333 C   0  0  0  0  0  0  0  0  0  0  0  0
   12.6227   25.8327   -1.9414 C   0  0  0  0  0  0  0  0  0  0  0  0
   12.3802   24.7714   -1.0763 C   0  0  0  0  0  0  0  0  0  0  0  0
   11.6394   24.5958    0.0498 C   0  0  0  0  0  0  0  0  0  0  0  0
   10.8367   25.4803    0.7327 C   0  0  0  0  0  0  0  0  0  0  0  0
   10.1885   25.0502    1.8942 C   0  0  0  0  0  0  0  0  0  0  0  0
   10.3784   23.7468    2.3169 C   0  0  0  0  0  0  0  0  0  0  0  0
   11.1913   22.8759    1.6122 C   0  0  0  0  0  0  0  0  0  0  0  0
   11.8368   23.2771    0.4674 C   0  0  0  0  0  0  0  0  0  0  0  0
   12.6828   22.6409   -0.3863 N   0  0  0  0  0  0  0  0  0  0  0  0
   13.0017   23.5943   -1.3254 C   0  0  0  0  0  0  0  0  0  0  0  0
   13.8517   23.4429   -2.3990 C   0  0  0  0  0  0  0  0  0  0  0  0
   15.5550   21.8713    1.6802 H   0  0  0  0  0  0  0  0  0  0  0  0
   12.3883   28.8849   -3.1935 H   0  0  0  0  0  0  0  0  0  0  0  0
   14.6358   19.8645    1.0945 C   0  0  0  0  0  0  0  0  0  0  0  0
   13.7568   19.9426    2.1753 O   0  0  0  0  0  0  0  0  0  0  0  0
   14.2241   20.0816    3.0380 H   0  0  0  0  0  0  0  0  0  0  0  0
  2  1  1  0  0  0
  2  3  1  0  0  0
  3  4  1  0  0  0
  4  5  1  0  0  0
  5  6  1  0  0  0
  6  7  1  0  0  0
  6 34  1  0  0  0
 34 35  1  0  0  0
  4  8  1  0  0  0
  8  9  1  0  0  0
  9 10  2  0  0  0
 10 11  1  0  0  0
 11 12  2  0  0  0
 12 13  1  0  0  0
 13 14  2  0  0  0
 14 15  1  0  0  0
 15 16  2  0  0  0
 16 17  1  0  0  0
 17 18  2  0  0  0
 17 19  1  0  0  0
 19 20  1  0  0  0
 20 21  1  0  0  0
 21 22  2  0  0  0
 22 23  1  0  0  0
 23 24  2  0  0  0
 24 25  1  0  0  0
 25 26  2  0  0  0
 26 27  1  0  0  0
 27 28  2  0  0  0
 28 29  1  0  0  0
 29 30  1  0  0  0
 30 31  2  0  0  0
  6  2  1  0  0  0
 31  8  1  0  0  0
 29  2  1  0  0  0
 14  9  1  0  0  0
 31 15  1  0  0  0
 21 16  1  0  0  0
 30 22  1  0  0  0
 28 23  1  0  0  0
  7 32  1  0  0  0
 35 36  1  0  0  0
 19 33  1  0  0  0
M  END
> <minimizedAffinity>
10.96339

> <CNNscore>
0.4638817310

> <CNNaffinity>
7.1395645142

> <CNN_VS>
3.3119134903

> <CNNaffinity_variance>
0.6832417846

$$$$
[H]OC([H])([H])[C@@]1(O[H])C([H])([H])[C@@]2([H])O[C@]1(C([H])([H])[H])n1c3c([H])c([H])c([H])c([H])c3c3c4c(c5c6c([H])c([H])c([H])c([H])c6n2c5c31)C(=O)N([H])C4([H])[H]


 36 43  0  0  0  0  0  0  0  0999 V2000
    9.2829   24.7753    3.7490 C   0  0  0  0  0  0  0  0  0  0  0  0
    9.7081   24.1653    2.4574 C   0  0  0  0  0  0  0  0  0  0  0  0
   10.4541   25.2414    1.9018 O   0  0  0  0  0  0  0  0  0  0  0  0
   10.3849   25.1983    0.5515 C   0  0  0  0  0  0  0  0  0  0  0  0
    9.0673   24.6568    0.1933 C   0  0  0  0  0  0  0  0  0  0  0  0
    8.5969   23.9873    1.4654 C   0  0  0  0  0  0  0  0  0  0  0  0
    8.3566   22.6585    1.1493 O   0  0  0  0  0  0  0  0  0  0  0  0
   11.5196   24.4484   -0.0028 N   0  0  0  0  0  0  0  0  0  0  0  0
   12.2265   24.6871   -1.0940 C   0  0  0  0  0  0  0  0  0  0  0  0
   12.0806   25.7035   -2.0021 C   0  0  0  0  0  0  0  0  0  0  0  0
   12.9511   25.7515   -3.0840 C   0  0  0  0  0  0  0  0  0  0  0  0
   13.9315   24.8051   -3.2384 C   0  0  0  0  0  0  0  0  0  0  0  0
   14.0828   23.7659   -2.3125 C   0  0  0  0  0  0  0  0  0  0  0  0
   13.2225   23.7284   -1.2538 C   0  0  0  0  0  0  0  0  0  0  0  0
   13.0879   22.8721   -0.1846 C   0  0  0  0  0  0  0  0  0  0  0  0
   13.7549   21.7285    0.2154 C   0  0  0  0  0  0  0  0  0  0  0  0
   14.8766   20.9657   -0.3019 C   0  0  0  0  0  0  0  0  0  0  0  0
   15.5775   21.1418   -1.2998 O   0  0  0  0  0  0  0  0  0  0  0  0
   15.0916   19.8645    0.5864 N   0  0  0  0  0  0  0  0  0  0  0  0
   14.1338   19.8857    1.6651 C   0  0  0  0  0  0  0  0  0  0  0  0
   13.3277   21.0949    1.3675 C   0  0  0  0  0  0  0  0  0  0  0  0
   12.2619   21.5700    2.1238 C   0  0  0  0  0  0  0  0  0  0  0  0
   11.6245   21.1630    3.2534 C   0  0  0  0  0  0  0  0  0  0  0  0
   11.8560   20.0735    4.0611 C   0  0  0  0  0  0  0  0  0  0  0  0
   11.0318   19.8647    5.1708 C   0  0  0  0  0  0  0  0  0  0  0  0
   10.0095   20.7635    5.4173 C   0  0  0  0  0  0  0  0  0  0  0  0
    9.7970   21.8521    4.5894 C   0  0  0  0  0  0  0  0  0  0  0  0
   10.5958   22.0772    3.4942 C   0  0  0  0  0  0  0  0  0  0  0  0
   10.5950   23.0398    2.5335 N   0  0  0  0  0  0  0  0  0  0  0  0
   11.6345   22.6934    1.7016 C   0  0  0  0  0  0  0  0  0  0  0  0
   12.0306   23.3517    0.5582 C   0  0  0  0  0  0  0  0  0  0  0  0
    7.4142   22.5740    0.8669 H   0  0  0  0  0  0  0  0  0  0  0  0
   15.8346   19.1192    0.5011 H   0  0  0  0  0  0  0  0  0  0  0  0
    7.3106   24.6197    1.8766 C   0  0  0  0  0  0  0  0  0  0  0  0
    7.5591   25.9565    2.1900 O   0  0  0  0  0  0  0  0  0  0  0  0
    7.4821   26.1416    3.1604 H   0  0  0  0  0  0  0  0  0  0  0  0
  2  1  1  0  0  0
  2  3  1  0  0  0
  3  4  1  0  0  0
  4  5  1  0  0  0
  5  6  1  0  0  0
  6  7  1  0  0  0
  6 34  1  0  0  0
 34 35  1  0  0  0
  4  8  1  0  0  0
  8  9  1  0  0  0
  9 10  2  0  0  0
 10 11  1  0  0  0
 11 12  2  0  0  0
 12 13  1  0  0  0
 13 14  2  0  0  0
 14 15  1  0  0  0
 15 16  2  0  0  0
 16 17  1  0  0  0
 17 18  2  0  0  0
 17 19  1  0  0  0
 19 20  1  0  0  0
 20 21  1  0  0  0
 21 22  2  0  0  0
 22 23  1  0  0  0
 23 24  2  0  0  0
 24 25  1  0  0  0
 25 26  2  0  0  0
 26 27  1  0  0  0
 27 28  2  0  0  0
 28 29  1  0  0  0
 29 30  1  0  0  0
 30 31  2  0  0  0
  6  2  1  0  0  0
 31  8  1  0  0  0
 29  2  1  0  0  0
 14  9  1  0  0  0
 31 15  1  0  0  0
 21 16  1  0  0  0
 30 22  1  0  0  0
 28 23  1  0  0  0
  7 32  1  0  0  0
 35 36  1  0  0  0
 19 33  1  0  0  0
M  END
> <minimizedAffinity>
-1.49426

> <CNNscore>
0.4389635324

> <CNNaffinity>
6.4075684547

> <CNN_VS>
2.8126888275

> <CNNaffinity_variance>
0.2465762645

$$$$
[H]OC([H])([H])[C@@]1(O[H])C([H])([H])[C@@]2([H])O[C@]1(C([H])([H])[H])n1c3c([H])c([H])c([H])c([H])c3c3c4c(c5c6c([H])c([H])c([H])c([H])c6n2c5c31)C(=O)N([H])C4([H])[H]


 36 43  0  0  0  0  0  0  0  0999 V2000
   14.0706   25.8176   -4.4924 C   0  0  0  0  0  0  0  0  0  0  0  0
   13.5289   25.3696   -3.1782 C   0  0  0  0  0  0  0  0  0  0  0  0
   12.6476   24.3381   -3.6051 O   0  0  0  0  0  0  0  0  0  0  0  0
   11.6101   24.2353   -2.7430 C   0  0  0  0  0  0  0  0  0  0  0  0
   11.3338   25.5803   -2.2213 C   0  0  0  0  0  0  0  0  0  0  0  0
   12.5983   26.3511   -2.5291 C   0  0  0  0  0  0  0  0  0  0  0  0
   13.0734   26.8339   -1.3190 O   0  0  0  0  0  0  0  0  0  0  0  0
   11.8916   23.2303   -1.7096 N   0  0  0  0  0  0  0  0  0  0  0  0
   11.0760   22.3499   -1.1555 C   0  0  0  0  0  0  0  0  0  0  0  0
    9.7427   22.1466   -1.4008 C   0  0  0  0  0  0  0  0  0  0  0  0
    9.0851   21.1512   -0.6884 C   0  0  0  0  0  0  0  0  0  0  0  0
    9.7543   20.3917    0.2367 C   0  0  0  0  0  0  0  0  0  0  0  0
   11.1161   20.5970    0.4893 C   0  0  0  0  0  0  0  0  0  0  0  0
   11.7519   21.5772   -0.2160 C   0  0  0  0  0  0  0  0  0  0  0  0
   13.0490   22.0377   -0.2213 C   0  0  0  0  0  0  0  0  0  0  0  0
   14.1880   21.6979    0.4859 C   0  0  0  0  0  0  0  0  0  0  0  0
   14.5025   20.7132    1.5053 C   0  0  0  0  0  0  0  0  0  0  0  0
   13.7944   19.8647    2.0500 O   0  0  0  0  0  0  0  0  0  0  0  0
   15.8865   20.8657    1.8354 N   0  0  0  0  0  0  0  0  0  0  0  0
   16.4802   21.9298    1.0629 C   0  0  0  0  0  0  0  0  0  0  0  0
   15.3489   22.4031    0.2283 C   0  0  0  0  0  0  0  0  0  0  0  0
   15.4013   23.4288   -0.7092 C   0  0  0  0  0  0  0  0  0  0  0  0
   16.3618   24.2842   -1.1491 C   0  0  0  0  0  0  0  0  0  0  0  0
   17.6805   24.4075   -0.7768 C   0  0  0  0  0  0  0  0  0  0  0  0
   18.4648   25.3973   -1.3765 C   0  0  0  0  0  0  0  0  0  0  0  0
   17.8848   26.2199   -2.3254 C   0  0  0  0  0  0  0  0  0  0  0  0
   16.5555   26.0758   -2.6829 C   0  0  0  0  0  0  0  0  0  0  0  0
   15.7667   25.1090   -2.1072 C   0  0  0  0  0  0  0  0  0  0  0  0
   14.4590   24.7704   -2.2644 N   0  0  0  0  0  0  0  0  0  0  0  0
   14.2665   23.7318   -1.3831 C   0  0  0  0  0  0  0  0  0  0  0  0
   13.0903   23.0523   -1.1531 C   0  0  0  0  0  0  0  0  0  0  0  0
   12.6783   27.7258   -1.1660 H   0  0  0  0  0  0  0  0  0  0  0  0
   16.4347   20.3005    2.5389 H   0  0  0  0  0  0  0  0  0  0  0  0
   12.2384   27.5094   -3.3965 C   0  0  0  0  0  0  0  0  0  0  0  0
   13.3966   27.9591   -4.0315 O   0  0  0  0  0  0  0  0  0  0  0  0
   13.7010   28.8388   -3.6920 H   0  0  0  0  0  0  0  0  0  0  0  0
  2  1  1  0  0  0
  2  3  1  0  0  0
  3  4  1  0  0  0
  4  5  1  0  0  0
  5  6  1  0  0  0
  6  7  1  0  0  0
  6 34  1  0  0  0
 34 35  1  0  0  0
  4  8  1  0  0  0
  8  9  1  0  0  0
  9 10  2  0  0  0
 10 11  1  0  0  0
 11 12  2  0  0  0
 12 13  1  0  0  0
 13 14  2  0  0  0
 14 15  1  0  0  0
 15 16  2  0  0  0
 16 17  1  0  0  0
 17 18  2  0  0  0
 17 19  1  0  0  0
 19 20  1  0  0  0
 20 21  1  0  0  0
 21 22  2  0  0  0
 22 23  1  0  0  0
 23 24  2  0  0  0
 24 25  1  0  0  0
 25 26  2  0  0  0
 26 27  1  0  0  0
 27 28  2  0  0  0
 28 29  1  0  0  0
 29 30  1  0  0  0
 30 31  2  0  0  0
  6  2  1  0  0  0
 31  8  1  0  0  0
 29  2  1  0  0  0
 14  9  1  0  0  0
 31 15  1  0  0  0
 21 16  1  0  0  0
 30 22  1  0  0  0
 28 23  1  0  0  0
  7 32  1  0  0  0
 35 36  1  0  0  0
 19 33  1  0  0  0
M  END
> <minimizedAffinity>
15.47275

> <CNNscore>
0.4336785674

> <CNNaffinity>
7.3487725258

> <CNN_VS>
3.1870050430

> <CNNaffinity_variance>
1.1893371344

$$$$
[H]OC([H])([H])[C@@]1(O[H])C([H])([H])[C@@]2([H])O[C@]1(C([H])([H])[H])n1c3c([H])c([H])c([H])c([H])c3c3c4c(c5c6c([H])c([H])c([H])c([H])c6n2c5c31)C(=O)N([H])C4([H])[H]


 36 43  0  0  0  0  0  0  0  0999 V2000
   11.7711   27.5718   -4.0040 C   0  0  0  0  0  0  0  0  0  0  0  0
   13.0791   26.8573   -4.0049 C   0  0  0  0  0  0  0  0  0  0  0  0
   13.9670   27.9528   -3.8193 O   0  0  0  0  0  0  0  0  0  0  0  0
   15.1529   27.6879   -4.4138 C   0  0  0  0  0  0  0  0  0  0  0  0
   14.8794   26.8629   -5.5979 C   0  0  0  0  0  0  0  0  0  0  0  0
   13.4885   26.3244   -5.3462 C   0  0  0  0  0  0  0  0  0  0  0  0
   13.5868   24.9414   -5.3760 O   0  0  0  0  0  0  0  0  0  0  0  0
   16.0895   27.0838   -3.4572 N   0  0  0  0  0  0  0  0  0  0  0  0
   17.3908   27.2762   -3.3262 C   0  0  0  0  0  0  0  0  0  0  0  0
   18.2123   28.0939   -4.0580 C   0  0  0  0  0  0  0  0  0  0  0  0
   19.5629   28.1330   -3.7339 C   0  0  0  0  0  0  0  0  0  0  0  0
   20.0605   27.3720   -2.7073 C   0  0  0  0  0  0  0  0  0  0  0  0
   19.2238   26.5359   -1.9582 C   0  0  0  0  0  0  0  0  0  0  0  0
   17.8992   26.5054   -2.2851 C   0  0  0  0  0  0  0  0  0  0  0  0
   16.8228   25.8161   -1.7742 C   0  0  0  0  0  0  0  0  0  0  0  0
   16.6740   24.8922   -0.7559 C   0  0  0  0  0  0  0  0  0  0  0  0
   17.5710   24.2790    0.2070 C   0  0  0  0  0  0  0  0  0  0  0  0
   18.7815   24.4241    0.3849 O   0  0  0  0  0  0  0  0  0  0  0  0
   16.7914   23.3887    1.0117 N   0  0  0  0  0  0  0  0  0  0  0  0
   15.4109   23.4001    0.5929 C   0  0  0  0  0  0  0  0  0  0  0  0
   15.4121   24.3779   -0.5226 C   0  0  0  0  0  0  0  0  0  0  0  0
   14.3051   24.7596   -1.2727 C   0  0  0  0  0  0  0  0  0  0  0  0
   12.9883   24.4227   -1.2874 C   0  0  0  0  0  0  0  0  0  0  0  0
   12.2892   23.5342   -0.5033 C   0  0  0  0  0  0  0  0  0  0  0  0
   10.9231   23.3520   -0.7377 C   0  0  0  0  0  0  0  0  0  0  0  0
   10.3215   24.0735   -1.7532 C   0  0  0  0  0  0  0  0  0  0  0  0
   11.0468   24.9615   -2.5285 C   0  0  0  0  0  0  0  0  0  0  0  0
   12.3900   25.1570   -2.3146 C   0  0  0  0  0  0  0  0  0  0  0  0
   13.3175   25.9412   -2.9265 N   0  0  0  0  0  0  0  0  0  0  0  0
   14.4896   25.6677   -2.2602 C   0  0  0  0  0  0  0  0  0  0  0  0
   15.7320   26.2016   -2.5232 C   0  0  0  0  0  0  0  0  0  0  0  0
   13.4339   24.6411   -6.3041 H   0  0  0  0  0  0  0  0  0  0  0  0
   17.1381   22.7896    1.8091 H   0  0  0  0  0  0  0  0  0  0  0  0
   12.6088   26.7642   -6.4670 C   0  0  0  0  0  0  0  0  0  0  0  0
   13.4183   27.1299   -7.5430 O   0  0  0  0  0  0  0  0  0  0  0  0
   13.4166   28.1072   -7.7070 H   0  0  0  0  0  0  0  0  0  0  0  0
  2  1  1  0  0  0
  2  3  1  0  0  0
  3  4  1  0  0  0
  4  5  1  0  0  0
  5  6  1  0  0  0
  6  7  1  0  0  0
  6 34  1  0  0  0
 34 35  1  0  0  0
  4  8  1  0  0  0
  8  9  1  0  0  0
  9 10  2  0  0  0
 10 11  1  0  0  0
 11 12  2  0  0  0
 12 13  1  0  0  0
 13 14  2  0  0  0
 14 15  1  0  0  0
 15 16  2  0  0  0
 16 17  1  0  0  0
 17 18  2  0  0  0
 17 19  1  0  0  0
 19 20  1  0  0  0
 20 21  1  0  0  0
 21 22  2  0  0  0
 22 23  1  0  0  0
 23 24  2  0  0  0
 24 25  1  0  0  0
 25 26  2  0  0  0
 26 27  1  0  0  0
 27 28  2  0  0  0
 28 29  1  0  0  0
 29 30  1  0  0  0
 30 31  2  0  0  0
  6  2  1  0  0  0
 31  8  1  0  0  0
 29  2  1  0  0  0
 14  9  1  0  0  0
 31 15  1  0  0  0
 21 16  1  0  0  0
 30 22  1  0  0  0
 28 23  1  0  0  0
  7 32  1  0  0  0
 35 36  1  0  0  0
 19 33  1  0  0  0
M  END
> <minimizedAffinity>
27.11189

> <CNNscore>
0.4260824323

> <CNNaffinity>
6.8236641884

> <CNN_VS>
2.9074435234

> <CNNaffinity_variance>
0.8640016317

$$$$
[H]c1nc(N([H])c2c([H])c([H])c(C(=O)N([H])C3([H])C([H])([H])C([H])([H])N(C([H])([H])[H])C([H])([H])C3([H])[H])c([H])c2[H])nc2c1N(C([H])([H])[H])C(=O)[C@@]([H])(C([H])([H])C([H])([H])[H])N2C1([H])C([H])([H])C([H])([H])C([H])([H])C1([H])[H]


 38 42  0  0  0  0  0  0  0  0999 V2000
   15.2192   21.9655   -0.1716 C   0  0  0  0  0  0  0  0  0  0  0  0
   14.5277   23.0206   -0.8081 N   0  0  0  0  0  0  0  0  0  0  0  0
   15.3867   24.0893   -1.2911 C   0  0  0  0  0  0  0  0  0  0  0  0
   15.0191   24.8500   -2.3393 N   0  0  0  0  0  0  0  0  0  0  0  0
   15.8134   25.8636   -2.8058 C   0  0  0  0  0  0  0  0  0  0  0  0
   16.9754   26.0999   -2.2078 N   0  0  0  0  0  0  0  0  0  0  0  0
   17.4129   25.3913   -1.1621 C   0  0  0  0  0  0  0  0  0  0  0  0
   16.6023   24.3786   -0.7074 C   0  0  0  0  0  0  0  0  0  0  0  0
   17.0314   23.6060    0.4066 N   0  0  0  0  0  0  0  0  0  0  0  0
   18.3017   23.8551    1.0730 C   0  0  0  0  0  0  0  0  0  0  0  0
   16.1615   22.5735    0.8472 C   0  0  0  0  0  0  0  0  0  0  0  0
   16.1989   22.2022    2.0464 O   0  0  0  0  0  0  0  0  0  0  0  0
   13.1192   23.1854   -1.0383 C   0  0  0  0  0  0  0  0  0  0  0  0
   12.7139   24.3700   -1.8428 C   0  0  0  0  0  0  0  0  0  0  0  0
   11.5982   25.0537   -1.1119 C   0  0  0  0  0  0  0  0  0  0  0  0
   11.3471   24.3114    0.1560 C   0  0  0  0  0  0  0  0  0  0  0  0
   12.3149   23.1764    0.2454 C   0  0  0  0  0  0  0  0  0  0  0  0
   13.9051   19.9918   -0.5853 C   0  0  0  0  0  0  0  0  0  0  0  0
   14.4981   20.8939    0.5152 C   0  0  0  0  0  0  0  0  0  0  0  0
   15.4039   26.6190   -3.9238 N   0  0  0  0  0  0  0  0  0  0  0  0
   16.0552   26.5985   -4.7899 H   0  0  0  0  0  0  0  0  0  0  0  0
   14.2574   27.3956   -4.0682 C   0  0  0  0  0  0  0  0  0  0  0  0
   13.0322   26.7521   -4.2679 C   0  0  0  0  0  0  0  0  0  0  0  0
   11.8578   27.4459   -4.3971 C   0  0  0  0  0  0  0  0  0  0  0  0
   11.8268   28.8228   -4.3356 C   0  0  0  0  0  0  0  0  0  0  0  0
   13.0202   29.4690   -4.1393 C   0  0  0  0  0  0  0  0  0  0  0  0
   14.2272   28.7581   -4.0064 C   0  0  0  0  0  0  0  0  0  0  0  0
   10.6028   29.6081   -4.4676 C   0  0  0  0  0  0  0  0  0  0  0  0
   10.6663   30.8490   -4.2804 O   0  0  0  0  0  0  0  0  0  0  0  0
    9.3632   29.0291   -4.7952 N   0  0  0  0  0  0  0  0  0  0  0  0
    9.2230   27.9985   -4.9675 H   0  0  0  0  0  0  0  0  0  0  0  0
    8.1837   29.8654   -4.9128 C   0  0  0  0  0  0  0  0  0  0  0  0
    7.8506   30.3346   -3.5002 C   0  0  0  0  0  0  0  0  0  0  0  0
    6.3499   30.5306   -3.4421 C   0  0  0  0  0  0  0  0  0  0  0  0
    5.7744   29.1922   -3.3660 N   0  0  0  0  0  0  0  0  0  0  0  0
    6.1196   28.6031   -2.0817 C   0  0  0  0  0  0  0  0  0  0  0  0
    6.2177   28.3735   -4.4521 C   0  0  0  0  0  0  0  0  0  0  0  0
    7.0198   29.1228   -5.4888 C   0  0  0  0  0  0  0  0  0  0  0  0
 18 19  1  0  0  0
 19  1  1  0  0  0
  1  2  1  0  0  0
  2 13  1  0  0  0
 13 14  1  0  0  0
 14 15  1  0  0  0
 15 16  1  0  0  0
 16 17  1  0  0  0
  2  3  1  0  0  0
  3  4  2  0  0  0
  4  5  1  0  0  0
  5 20  1  0  0  0
 20 22  1  0  0  0
 22 23  2  0  0  0
 23 24  1  0  0  0
 24 25  2  0  0  0
 25 26  1  0  0  0
 26 27  2  0  0  0
 25 28  1  0  0  0
 28 29  2  0  0  0
 28 30  1  0  0  0
 30 32  1  0  0  0
 32 33  1  0  0  0
 33 34  1  0  0  0
 34 35  1  0  0  0
 35 36  1  0  0  0
 35 37  1  0  0  0
 37 38  1  0  0  0
  5  6  2  0  0  0
  6  7  1  0  0  0
  7  8  2  0  0  0
  8  9  1  0  0  0
  9 10  1  0  0  0
  9 11  1  0  0  0
 11 12  2  0  0  0
 11  1  1  0  0  0
 17 13  1  0  0  0
  8  3  1  0  0  0
 27 22  1  0  0  0
 38 32  1  0  0  0
 20 21  1  0  0  0
 30 31  1  0  0  0
M  END
> <minimizedAffinity>
13.31775

> <CNNscore>
0.6672418118

> <CNNaffinity>
7.7661705017

> <CNN_VS>
5.1819138527

> <CNNaffinity_variance>
0.7467424870

$$$$
[H]c1nc(N([H])c2c([H])c([H])c(C(=O)N([H])C3([H])C([H])([H])C([H])([H])N(C([H])([H])[H])C([H])([H])C3([H])[H])c([H])c2[H])nc2c1N(C([H])([H])[H])C(=O)[C@@]([H])(C([H])([H])C([H])([H])[H])N2C1([H])C([H])([H])C([H])([H])C([H])([H])C1([H])[H]


 38 42  0  0  0  0  0  0  0  0999 V2000
   12.4698   20.5777   -0.0338 C   0  0  0  0  0  0  0  0  0  0  0  0
   12.4062   21.8891   -0.5561 N   0  0  0  0  0  0  0  0  0  0  0  0
   13.6930   22.4332   -0.9575 C   0  0  0  0  0  0  0  0  0  0  0  0
   13.7767   23.3671   -1.9235 N   0  0  0  0  0  0  0  0  0  0  0  0
   14.9797   23.8939   -2.3122 C   0  0  0  0  0  0  0  0  0  0  0  0
   16.0906   23.4709   -1.7201 N   0  0  0  0  0  0  0  0  0  0  0  0
   16.0936   22.5476   -0.7533 C   0  0  0  0  0  0  0  0  0  0  0  0
   14.8771   22.0307   -0.3760 C   0  0  0  0  0  0  0  0  0  0  0  0
   14.8393   21.0501    0.6531 N   0  0  0  0  0  0  0  0  0  0  0  0
   16.0489   20.5786    1.3121 C   0  0  0  0  0  0  0  0  0  0  0  0
   13.5620   20.5466    1.0159 C   0  0  0  0  0  0  0  0  0  0  0  0
   13.3793   20.0988    2.1750 O   0  0  0  0  0  0  0  0  0  0  0  0
   11.2690   22.7477   -0.7400 C   0  0  0  0  0  0  0  0  0  0  0  0
   11.0452   23.7831    0.3053 C   0  0  0  0  0  0  0  0  0  0  0  0
    9.6012   23.7211    0.7023 C   0  0  0  0  0  0  0  0  0  0  0  0
    8.9514   22.6246   -0.0704 C   0  0  0  0  0  0  0  0  0  0  0  0
    9.9814   21.9739   -0.9356 C   0  0  0  0  0  0  0  0  0  0  0  0
   11.1399   20.5594    1.9723 C   0  0  0  0  0  0  0  0  0  0  0  0
   11.2959   19.9447    0.5672 C   0  0  0  0  0  0  0  0  0  0  0  0
   15.0261   24.8503   -3.3473 N   0  0  0  0  0  0  0  0  0  0  0  0
   15.9127   24.8501   -3.9706 H   0  0  0  0  0  0  0  0  0  0  0  0
   14.0710   25.8059   -3.6834 C   0  0  0  0  0  0  0  0  0  0  0  0
   12.9342   25.9300   -2.8787 C   0  0  0  0  0  0  0  0  0  0  0  0
   11.9610   26.8606   -3.1317 C   0  0  0  0  0  0  0  0  0  0  0  0
   12.0561   27.7268   -4.2000 C   0  0  0  0  0  0  0  0  0  0  0  0
   13.1655   27.6184   -4.9987 C   0  0  0  0  0  0  0  0  0  0  0  0
   14.1661   26.6633   -4.7403 C   0  0  0  0  0  0  0  0  0  0  0  0
   11.0471   28.7350   -4.5126 C   0  0  0  0  0  0  0  0  0  0  0  0
   11.2829   29.9307   -4.2070 O   0  0  0  0  0  0  0  0  0  0  0  0
    9.8284   28.4177   -5.1398 N   0  0  0  0  0  0  0  0  0  0  0  0
    9.5523   27.4418   -5.4281 H   0  0  0  0  0  0  0  0  0  0  0  0
    8.8678   29.4667   -5.4246 C   0  0  0  0  0  0  0  0  0  0  0  0
    8.4815   30.0689   -4.0775 C   0  0  0  0  0  0  0  0  0  0  0  0
    7.0567   30.5658   -4.2079 C   0  0  0  0  0  0  0  0  0  0  0  0
    6.2127   29.3768   -4.1626 N   0  0  0  0  0  0  0  0  0  0  0  0
    6.2818   28.8004   -2.8289 C   0  0  0  0  0  0  0  0  0  0  0  0
    6.5972   28.4282   -5.1620 C   0  0  0  0  0  0  0  0  0  0  0  0
    7.6483   28.9437   -6.1154 C   0  0  0  0  0  0  0  0  0  0  0  0
 18 19  1  0  0  0
 19  1  1  0  0  0
  1  2  1  0  0  0
  2 13  1  0  0  0
 13 14  1  0  0  0
 14 15  1  0  0  0
 15 16  1  0  0  0
 16 17  1  0  0  0
  2  3  1  0  0  0
  3  4  2  0  0  0
  4  5  1  0  0  0
  5 20  1  0  0  0
 20 22  1  0  0  0
 22 23  2  0  0  0
 23 24  1  0  0  0
 24 25  2  0  0  0
 25 26  1  0  0  0
 26 27  2  0  0  0
 25 28  1  0  0  0
 28 29  2  0  0  0
 28 30  1  0  0  0
 30 32  1  0  0  0
 32 33  1  0  0  0
 33 34  1  0  0  0
 34 35  1  0  0  0
 35 36  1  0  0  0
 35 37  1  0  0  0
 37 38  1  0  0  0
  5  6  2  0  0  0
  6  7  1  0  0  0
  7  8  2  0  0  0
  8  9  1  0  0  0
  9 10  1  0  0  0
  9 11  1  0  0  0
 11 12  2  0  0  0
 11  1  1  0  0  0
 17 13  1  0  0  0
  8  3  1  0  0  0
 27 22  1  0  0  0
 38 32  1  0  0  0
 20 21  1  0  0  0
 30 31  1  0  0  0
M  END
> <minimizedAffinity>
9.88996

> <CNNscore>
0.5639518499

> <CNNaffinity>
7.6771087646

> <CNN_VS>
4.3295197487

> <CNNaffinity_variance>
0.8051555753

$$$$
[H]c1nc(N([H])c2c([H])c([H])c(C(=O)N([H])C3([H])C([H])([H])C([H])([H])N(C([H])([H])[H])C([H])([H])C3([H])[H])c([H])c2[H])nc2c1N(C([H])([H])[H])C(=O)[C@@]([H])(C([H])([H])C([H])([H])[H])N2C1([H])C([H])([H])C([H])([H])C([H])([H])C1([H])[H]


 38 42  0  0  0  0  0  0  0  0999 V2000
   16.3690   26.2291   -2.3256 C   0  0  0  0  0  0  0  0  0  0  0  0
   15.0835   25.7149   -2.6081 N   0  0  0  0  0  0  0  0  0  0  0  0
   14.3661   25.2309   -1.4401 C   0  0  0  0  0  0  0  0  0  0  0  0
   13.0202   25.2261   -1.4096 N   0  0  0  0  0  0  0  0  0  0  0  0
   12.3273   24.7705   -0.3196 C   0  0  0  0  0  0  0  0  0  0  0  0
   13.0021   24.3229    0.7329 N   0  0  0  0  0  0  0  0  0  0  0  0
   14.3377   24.2939    0.7822 C   0  0  0  0  0  0  0  0  0  0  0  0
   15.0162   24.7546   -0.3208 C   0  0  0  0  0  0  0  0  0  0  0  0
   16.4380   24.7345   -0.3079 N   0  0  0  0  0  0  0  0  0  0  0  0
   17.1907   24.2450    0.8382 C   0  0  0  0  0  0  0  0  0  0  0  0
   17.0991   25.2143   -1.4696 C   0  0  0  0  0  0  0  0  0  0  0  0
   18.2484   24.7906   -1.7474 O   0  0  0  0  0  0  0  0  0  0  0  0
   14.3984   25.6013   -3.8658 C   0  0  0  0  0  0  0  0  0  0  0  0
   15.0626   24.7739   -4.9093 C   0  0  0  0  0  0  0  0  0  0  0  0
   15.0585   25.5630   -6.1836 C   0  0  0  0  0  0  0  0  0  0  0  0
   14.4277   26.8858   -5.9113 C   0  0  0  0  0  0  0  0  0  0  0  0
   14.0557   26.9497   -4.4654 C   0  0  0  0  0  0  0  0  0  0  0  0
   17.4782   28.1308   -3.2986 C   0  0  0  0  0  0  0  0  0  0  0  0
   17.2869   26.6046   -3.4010 C   0  0  0  0  0  0  0  0  0  0  0  0
   10.9177   24.8083   -0.3175 N   0  0  0  0  0  0  0  0  0  0  0  0
   10.4556   25.7448   -0.6078 H   0  0  0  0  0  0  0  0  0  0  0  0
   10.0270   23.7891    0.0084 C   0  0  0  0  0  0  0  0  0  0  0  0
    9.2607   23.9144    1.1713 C   0  0  0  0  0  0  0  0  0  0  0  0
    8.3477   22.9647    1.5477 C   0  0  0  0  0  0  0  0  0  0  0  0
    8.1384   21.8307    0.7921 C   0  0  0  0  0  0  0  0  0  0  0  0
    8.8816   21.6931   -0.3521 C   0  0  0  0  0  0  0  0  0  0  0  0
    9.8196   22.6675   -0.7402 C   0  0  0  0  0  0  0  0  0  0  0  0
    7.1786   20.7899    1.1495 C   0  0  0  0  0  0  0  0  0  0  0  0
    6.9464   20.5842    2.3671 O   0  0  0  0  0  0  0  0  0  0  0  0
    6.5086   20.0144    0.1856 N   0  0  0  0  0  0  0  0  0  0  0  0
    6.6457   20.1219   -0.8542 H   0  0  0  0  0  0  0  0  0  0  0  0
    5.5650   18.9961    0.6063 C   0  0  0  0  0  0  0  0  0  0  0  0
    6.3766   17.7215    0.8137 C   0  0  0  0  0  0  0  0  0  0  0  0
    5.4560   16.5573    0.5118 C   0  0  0  0  0  0  0  0  0  0  0  0
    5.3405   16.5053   -0.9416 N   0  0  0  0  0  0  0  0  0  0  0  0
    6.6246   16.1155   -1.5028 C   0  0  0  0  0  0  0  0  0  0  0  0
    4.8970   17.7574   -1.4727 C   0  0  0  0  0  0  0  0  0  0  0  0
    4.4980   18.7581   -0.4149 C   0  0  0  0  0  0  0  0  0  0  0  0
 18 19  1  0  0  0
 19  1  1  0  0  0
  1  2  1  0  0  0
  2 13  1  0  0  0
 13 14  1  0  0  0
 14 15  1  0  0  0
 15 16  1  0  0  0
 16 17  1  0  0  0
  2  3  1  0  0  0
  3  4  2  0  0  0
  4  5  1  0  0  0
  5 20  1  0  0  0
 20 22  1  0  0  0
 22 23  2  0  0  0
 23 24  1  0  0  0
 24 25  2  0  0  0
 25 26  1  0  0  0
 26 27  2  0  0  0
 25 28  1  0  0  0
 28 29  2  0  0  0
 28 30  1  0  0  0
 30 32  1  0  0  0
 32 33  1  0  0  0
 33 34  1  0  0  0
 34 35  1  0  0  0
 35 36  1  0  0  0
 35 37  1  0  0  0
 37 38  1  0  0  0
  5  6  2  0  0  0
  6  7  1  0  0  0
  7  8  2  0  0  0
  8  9  1  0  0  0
  9 10  1  0  0  0
  9 11  1  0  0  0
 11 12  2  0  0  0
 11  1  1  0  0  0
 17 13  1  0  0  0
  8  3  1  0  0  0
 27 22  1  0  0  0
 38 32  1  0  0  0
 20 21  1  0  0  0
 30 31  1  0  0  0
M  END
> <minimizedAffinity>
-4.69258

> <CNNscore>
0.4428142011

> <CNNaffinity>
7.3506174088

> <CNN_VS>
3.2549576759

> <CNNaffinity_variance>
0.3207136095

$$$$
[H]c1nc(N([H])c2c([H])c([H])c(C(=O)N([H])C3([H])C([H])([H])C([H])([H])N(C([H])([H])[H])C([H])([H])C3([H])[H])c([H])c2[H])nc2c1N(C([H])([H])[H])C(=O)[C@@]([H])(C([H])([H])C([H])([H])[H])N2C1([H])C([H])([H])C([H])([H])C([H])([H])C1([H])[H]


 38 42  0  0  0  0  0  0  0  0999 V2000
   13.7791   26.0024   -2.4099 C   0  0  0  0  0  0  0  0  0  0  0  0
   13.2574   24.7834   -1.9216 N   0  0  0  0  0  0  0  0  0  0  0  0
   14.0950   24.1334   -0.9270 C   0  0  0  0  0  0  0  0  0  0  0  0
   13.5583   23.3214    0.0032 N   0  0  0  0  0  0  0  0  0  0  0  0
   14.3319   22.6975    0.9456 C   0  0  0  0  0  0  0  0  0  0  0  0
   15.6443   22.9004    0.9401 N   0  0  0  0  0  0  0  0  0  0  0  0
   16.2547   23.6907    0.0513 C   0  0  0  0  0  0  0  0  0  0  0  0
   15.4624   24.3081   -0.8871 C   0  0  0  0  0  0  0  0  0  0  0  0
   16.0762   25.1524   -1.8527 N   0  0  0  0  0  0  0  0  0  0  0  0
   17.5138   25.3824   -1.8717 C   0  0  0  0  0  0  0  0  0  0  0  0
   15.2221   25.7660   -2.8070 C   0  0  0  0  0  0  0  0  0  0  0  0
   15.6802   26.0885   -3.9311 O   0  0  0  0  0  0  0  0  0  0  0  0
   12.0386   24.1053   -2.2660 C   0  0  0  0  0  0  0  0  0  0  0  0
   10.7879   24.6470   -1.6686 C   0  0  0  0  0  0  0  0  0  0  0  0
   10.0237   23.4930   -1.0935 C   0  0  0  0  0  0  0  0  0  0  0  0
   10.8230   22.2527   -1.3042 C   0  0  0  0  0  0  0  0  0  0  0  0
   12.1015   22.6177   -1.9864 C   0  0  0  0  0  0  0  0  0  0  0  0
   13.9836   26.3656   -4.7805 C   0  0  0  0  0  0  0  0  0  0  0  0
   13.1479   26.7012   -3.5294 C   0  0  0  0  0  0  0  0  0  0  0  0
   13.7269   21.8766    1.9194 N   0  0  0  0  0  0  0  0  0  0  0  0
   14.3921   21.2952    2.5472 H   0  0  0  0  0  0  0  0  0  0  0  0
   12.3709   21.7129    2.1893 C   0  0  0  0  0  0  0  0  0  0  0  0
   11.5225   22.8164    2.0562 C   0  0  0  0  0  0  0  0  0  0  0  0
   10.1740   22.7298    2.2829 C   0  0  0  0  0  0  0  0  0  0  0  0
    9.5835   21.5411    2.6558 C   0  0  0  0  0  0  0  0  0  0  0  0
   10.4019   20.4490    2.7899 C   0  0  0  0  0  0  0  0  0  0  0  0
   11.7869   20.5361    2.5574 C   0  0  0  0  0  0  0  0  0  0  0  0
    8.1527   21.3966    2.9092 C   0  0  0  0  0  0  0  0  0  0  0  0
    7.6162   22.1559    3.7544 O   0  0  0  0  0  0  0  0  0  0  0  0
    7.3585   20.4441    2.2450 N   0  0  0  0  0  0  0  0  0  0  0  0
    7.7288   19.7698    1.5241 H   0  0  0  0  0  0  0  0  0  0  0  0
    5.9414   20.3521    2.5412 C   0  0  0  0  0  0  0  0  0  0  0  0
    5.8255   19.5344    3.8235 C   0  0  0  0  0  0  0  0  0  0  0  0
    4.5004   18.8033    3.7632 C   0  0  0  0  0  0  0  0  0  0  0  0
    4.6924   17.7043    2.8232 N   0  0  0  0  0  0  0  0  0  0  0  0
    5.6176   16.7438    3.4039 C   0  0  0  0  0  0  0  0  0  0  0  0
    5.1590   18.1790    1.5570 C   0  0  0  0  0  0  0  0  0  0  0  0
    5.1768   19.6844    1.4424 C   0  0  0  0  0  0  0  0  0  0  0  0
 18 19  1  0  0  0
 19  1  1  0  0  0
  1  2  1  0  0  0
  2 13  1  0  0  0
 13 14  1  0  0  0
 14 15  1  0  0  0
 15 16  1  0  0  0
 16 17  1  0  0  0
  2  3  1  0  0  0
  3  4  2  0  0  0
  4  5  1  0  0  0
  5 20  1  0  0  0
 20 22  1  0  0  0
 22 23  2  0  0  0
 23 24  1  0  0  0
 24 25  2  0  0  0
 25 26  1  0  0  0
 26 27  2  0  0  0
 25 28  1  0  0  0
 28 29  2  0  0  0
 28 30  1  0  0  0
 30 32  1  0  0  0
 32 33  1  0  0  0
 33 34  1  0  0  0
 34 35  1  0  0  0
 35 36  1  0  0  0
 35 37  1  0  0  0
 37 38  1  0  0  0
  5  6  2  0  0  0
  6  7  1  0  0  0
  7  8  2  0  0  0
  8  9  1  0  0  0
  9 10  1  0  0  0
  9 11  1  0  0  0
 11 12  2  0  0  0
 11  1  1  0  0  0
 17 13  1  0  0  0
  8  3  1  0  0  0
 27 22  1  0  0  0
 38 32  1  0  0  0
 20 21  1  0  0  0
 30 31  1  0  0  0
M  END
> <minimizedAffinity>
-2.52668

> <CNNscore>
0.4364733696

> <CNNaffinity>
7.3082604408

> <CNN_VS>
3.1898610592

> <CNNaffinity_variance>
0.2488561124

$$$$
[H]c1nc(N([H])c2c([H])c([H])c(C(=O)N([H])C3([H])C([H])([H])C([H])([H])N(C([H])([H])[H])C([H])([H])C3([H])[H])c([H])c2[H])nc2c1N(C([H])([H])[H])C(=O)[C@@]([H])(C([H])([H])C([H])([H])[H])N2C1([H])C([H])([H])C([H])([H])C([H])([H])C1([H])[H]


 38 42  0  0  0  0  0  0  0  0999 V2000
   15.7163   26.3473   -4.6987 C   0  0  0  0  0  0  0  0  0  0  0  0
   14.7517   25.8482   -3.7949 N   0  0  0  0  0  0  0  0  0  0  0  0
   14.8921   24.4324   -3.4963 C   0  0  0  0  0  0  0  0  0  0  0  0
   14.4647   23.9287   -2.3232 N   0  0  0  0  0  0  0  0  0  0  0  0
   14.5852   22.5972   -2.0259 C   0  0  0  0  0  0  0  0  0  0  0  0
   15.1383   21.7843   -2.9186 N   0  0  0  0  0  0  0  0  0  0  0  0
   15.5875   22.2047   -4.1055 C   0  0  0  0  0  0  0  0  0  0  0  0
   15.4578   23.5440   -4.3866 C   0  0  0  0  0  0  0  0  0  0  0  0
   15.9193   24.0280   -5.6415 N   0  0  0  0  0  0  0  0  0  0  0  0
   16.5259   23.1481   -6.6303 C   0  0  0  0  0  0  0  0  0  0  0  0
   15.7612   25.4166   -5.8934 C   0  0  0  0  0  0  0  0  0  0  0  0
   15.6652   25.8240   -7.0776 O   0  0  0  0  0  0  0  0  0  0  0  0
   13.6678   26.5297   -3.1432 C   0  0  0  0  0  0  0  0  0  0  0  0
   12.3053   25.9762   -3.3707 C   0  0  0  0  0  0  0  0  0  0  0  0
   11.4068   27.1194   -3.7345 C   0  0  0  0  0  0  0  0  0  0  0  0
   12.2258   28.3644   -3.7672 C   0  0  0  0  0  0  0  0  0  0  0  0
   13.6435   28.0127   -3.4519 C   0  0  0  0  0  0  0  0  0  0  0  0
   16.8640   28.4630   -4.7221 C   0  0  0  0  0  0  0  0  0  0  0  0
   15.6217   27.7061   -5.2323 C   0  0  0  0  0  0  0  0  0  0  0  0
   14.1498   22.1148   -0.7745 N   0  0  0  0  0  0  0  0  0  0  0  0
   14.8511   21.5043   -0.2175 H   0  0  0  0  0  0  0  0  0  0  0  0
   12.9243   22.3232   -0.1476 C   0  0  0  0  0  0  0  0  0  0  0  0
   11.7554   22.2170   -0.9076 C   0  0  0  0  0  0  0  0  0  0  0  0
   10.5117   22.3867   -0.3585 C   0  0  0  0  0  0  0  0  0  0  0  0
   10.3510   22.6724    0.9806 C   0  0  0  0  0  0  0  0  0  0  0  0
   11.4878   22.7791    1.7401 C   0  0  0  0  0  0  0  0  0  0  0  0
   12.7658   22.6050    1.1778 C   0  0  0  0  0  0  0  0  0  0  0  0
    9.0489   22.8626    1.6136 C   0  0  0  0  0  0  0  0  0  0  0  0
    8.7961   23.9767    2.1366 O   0  0  0  0  0  0  0  0  0  0  0  0
    8.0735   21.8497    1.6583 N   0  0  0  0  0  0  0  0  0  0  0  0
    8.2048   20.8886    1.2453 H   0  0  0  0  0  0  0  0  0  0  0  0
    6.7981   22.1028    2.3014 C   0  0  0  0  0  0  0  0  0  0  0  0
    7.0597   23.1639    3.3655 C   0  0  0  0  0  0  0  0  0  0  0  0
    6.0642   22.9252    4.4817 C   0  0  0  0  0  0  0  0  0  0  0  0
    6.5541   21.7615    5.2125 N   0  0  0  0  0  0  0  0  0  0  0  0
    7.7907   22.1173    5.8908 C   0  0  0  0  0  0  0  0  0  0  0  0
    6.7396   20.6415    4.3420 C   0  0  0  0  0  0  0  0  0  0  0  0
    6.2329   20.8731    2.9388 C   0  0  0  0  0  0  0  0  0  0  0  0
 18 19  1  0  0  0
 19  1  1  0  0  0
  1  2  1  0  0  0
  2 13  1  0  0  0
 13 14  1  0  0  0
 14 15  1  0  0  0
 15 16  1  0  0  0
 16 17  1  0  0  0
  2  3  1  0  0  0
  3  4  2  0  0  0
  4  5  1  0  0  0
  5 20  1  0  0  0
 20 22  1  0  0  0
 22 23  2  0  0  0
 23 24  1  0  0  0
 24 25  2  0  0  0
 25 26  1  0  0  0
 26 27  2  0  0  0
 25 28  1  0  0  0
 28 29  2  0  0  0
 28 30  1  0  0  0
 30 32  1  0  0  0
 32 33  1  0  0  0
 33 34  1  0  0  0
 34 35  1  0  0  0
 35 36  1  0  0  0
 35 37  1  0  0  0
 37 38  1  0  0  0
  5  6  2  0  0  0
  6  7  1  0  0  0
  7  8  2  0  0  0
  8  9  1  0  0  0
  9 10  1  0  0  0
  9 11  1  0  0  0
 11 12  2  0  0  0
 11  1  1  0  0  0
 17 13  1  0  0  0
  8  3  1  0  0  0
 27 22  1  0  0  0
 38 32  1  0  0  0
 20 21  1  0  0  0
 30 31  1  0  0  0
M  END
> <minimizedAffinity>
6.34688

> <CNNscore>
0.4357351959

> <CNNaffinity>
7.2366714478

> <CNN_VS>
3.1532723904

> <CNNaffinity_variance>
0.6505516171

$$$$
[H]c1nc(N([H])c2c([H])c([H])c(C(=O)N([H])C3([H])C([H])([H])C([H])([H])N(C([H])([H])[H])C([H])([H])C3([H])[H])c([H])c2[H])nc2c1N(C([H])([H])[H])C(=O)[C@@]([H])(C([H])([H])C([H])([H])[H])N2C1([H])C([H])([H])C([H])([H])C([H])([H])C1([H])[H]


 38 42  0  0  0  0  0  0  0  0999 V2000
   14.5951   25.6553   -5.0638 C   0  0  0  0  0  0  0  0  0  0  0  0
   14.6501   24.6834   -4.0396 N   0  0  0  0  0  0  0  0  0  0  0  0
   13.5594   24.7653   -3.0820 C   0  0  0  0  0  0  0  0  0  0  0  0
   13.1448   23.6731   -2.4129 N   0  0  0  0  0  0  0  0  0  0  0  0
   12.1216   23.7318   -1.5044 C   0  0  0  0  0  0  0  0  0  0  0  0
   11.5245   24.8965   -1.2797 N   0  0  0  0  0  0  0  0  0  0  0  0
   11.8759   26.0263   -1.9017 C   0  0  0  0  0  0  0  0  0  0  0  0
   12.9050   25.9484   -2.8097 C   0  0  0  0  0  0  0  0  0  0  0  0
   13.3110   27.1306   -3.4876 N   0  0  0  0  0  0  0  0  0  0  0  0
   12.6667   28.4143   -3.2498 C   0  0  0  0  0  0  0  0  0  0  0  0
   14.3811   27.0067   -4.4129 C   0  0  0  0  0  0  0  0  0  0  0  0
   15.1050   28.0030   -4.6594 O   0  0  0  0  0  0  0  0  0  0  0  0
   15.6173   23.6456   -3.8126 C   0  0  0  0  0  0  0  0  0  0  0  0
   15.7415   22.6121   -4.8762 C   0  0  0  0  0  0  0  0  0  0  0  0
   15.7123   21.2701   -4.2093 C   0  0  0  0  0  0  0  0  0  0  0  0
   15.5319   21.4806   -2.7448 C   0  0  0  0  0  0  0  0  0  0  0  0
   15.4203   22.9475   -2.4826 C   0  0  0  0  0  0  0  0  0  0  0  0
   15.0740   25.7592   -7.4203 C   0  0  0  0  0  0  0  0  0  0  0  0
   15.6972   25.8190   -6.0116 C   0  0  0  0  0  0  0  0  0  0  0  0
   11.6996   22.5589   -0.8451 N   0  0  0  0  0  0  0  0  0  0  0  0
   12.2017   21.6386   -1.1203 H   0  0  0  0  0  0  0  0  0  0  0  0
   10.7135   22.4226    0.1281 C   0  0  0  0  0  0  0  0  0  0  0  0
    9.4169   22.0863   -0.2732 C   0  0  0  0  0  0  0  0  0  0  0  0
    8.3980   21.9132    0.6263 C   0  0  0  0  0  0  0  0  0  0  0  0
    8.6032   22.0631    1.9813 C   0  0  0  0  0  0  0  0  0  0  0  0
    9.8697   22.3922    2.3913 C   0  0  0  0  0  0  0  0  0  0  0  0
   10.9173   22.5702    1.4690 C   0  0  0  0  0  0  0  0  0  0  0  0
    7.5518   21.8902    2.9797 C   0  0  0  0  0  0  0  0  0  0  0  0
    7.5111   22.6890    3.9487 O   0  0  0  0  0  0  0  0  0  0  0  0
    6.5887   20.8681    2.8959 N   0  0  0  0  0  0  0  0  0  0  0  0
    6.5519   20.1574    2.1180 H   0  0  0  0  0  0  0  0  0  0  0  0
    5.5685   20.7510    3.9205 C   0  0  0  0  0  0  0  0  0  0  0  0
    6.2858   20.2959    5.1873 C   0  0  0  0  0  0  0  0  0  0  0  0
    5.2939   19.4770    5.9869 C   0  0  0  0  0  0  0  0  0  0  0  0
    5.2060   18.1860    5.3132 N   0  0  0  0  0  0  0  0  0  0  0  0
    6.4718   17.4864    5.4681 C   0  0  0  0  0  0  0  0  0  0  0  0
    4.8611   18.3422    3.9337 C   0  0  0  0  0  0  0  0  0  0  0  0
    4.5096   19.7603    3.5528 C   0  0  0  0  0  0  0  0  0  0  0  0
 18 19  1  0  0  0
 19  1  1  0  0  0
  1  2  1  0  0  0
  2 13  1  0  0  0
 13 14  1  0  0  0
 14 15  1  0  0  0
 15 16  1  0  0  0
 16 17  1  0  0  0
  2  3  1  0  0  0
  3  4  2  0  0  0
  4  5  1  0  0  0
  5 20  1  0  0  0
 20 22  1  0  0  0
 22 23  2  0  0  0
 23 24  1  0  0  0
 24 25  2  0  0  0
 25 26  1  0  0  0
 26 27  2  0  0  0
 25 28  1  0  0  0
 28 29  2  0  0  0
 28 30  1  0  0  0
 30 32  1  0  0  0
 32 33  1  0  0  0
 33 34  1  0  0  0
 34 35  1  0  0  0
 35 36  1  0  0  0
 35 37  1  0  0  0
 37 38  1  0  0  0
  5  6  2  0  0  0
  6  7  1  0  0  0
  7  8  2  0  0  0
  8  9  1  0  0  0
  9 10  1  0  0  0
  9 11  1  0  0  0
 11 12  2  0  0  0
 11  1  1  0  0  0
 17 13  1  0  0  0
  8  3  1  0  0  0
 27 22  1  0  0  0
 38 32  1  0  0  0
 20 21  1  0  0  0
 30 31  1  0  0  0
M  END
> <minimizedAffinity>
1.85948

> <CNNscore>
0.4300020635

> <CNNaffinity>
7.0475234985

> <CNN_VS>
3.0304496288

> <CNNaffinity_variance>
0.7322578430

$$$$
[H]c1nc(N([H])c2c([H])c([H])c(C(=O)N([H])C3([H])C([H])([H])C([H])([H])N(C([H])([H])[H])C([H])([H])C3([H])[H])c([H])c2[H])nc2c1N(C([H])([H])[H])C(=O)[C@@]([H])(C([H])([H])C([H])([H])[H])N2C1([H])C([H])([H])C([H])([H])C([H])([H])C1([H])[H]


 38 42  0  0  0  0  0  0  0  0999 V2000
   16.7462   25.6688   -2.8046 C   0  0  0  0  0  0  0  0  0  0  0  0
   15.7011   25.5173   -1.8657 N   0  0  0  0  0  0  0  0  0  0  0  0
   14.3736   25.7514   -2.4096 C   0  0  0  0  0  0  0  0  0  0  0  0
   13.2926   25.1548   -1.8728 N   0  0  0  0  0  0  0  0  0  0  0  0
   12.0338   25.3662   -2.3694 C   0  0  0  0  0  0  0  0  0  0  0  0
   11.8780   26.1803   -3.4070 N   0  0  0  0  0  0  0  0  0  0  0  0
   12.8985   26.8109   -3.9968 C   0  0  0  0  0  0  0  0  0  0  0  0
   14.1543   26.5870   -3.4846 C   0  0  0  0  0  0  0  0  0  0  0  0
   15.2647   27.2444   -4.0822 N   0  0  0  0  0  0  0  0  0  0  0  0
   15.1083   28.1408   -5.2188 C   0  0  0  0  0  0  0  0  0  0  0  0
   16.5431   26.9895   -3.5189 C   0  0  0  0  0  0  0  0  0  0  0  0
   17.4505   27.8510   -3.6277 O   0  0  0  0  0  0  0  0  0  0  0  0
   15.7645   25.1740   -0.4720 C   0  0  0  0  0  0  0  0  0  0  0  0
   16.9383   24.3667   -0.0417 C   0  0  0  0  0  0  0  0  0  0  0  0
   16.4257   23.2295    0.7893 C   0  0  0  0  0  0  0  0  0  0  0  0
   14.9386   23.3185    0.8354 C   0  0  0  0  0  0  0  0  0  0  0  0
   14.5040   24.4906    0.0167 C   0  0  0  0  0  0  0  0  0  0  0  0
   18.6650   27.0815   -2.4642 C   0  0  0  0  0  0  0  0  0  0  0  0
   18.1483   25.6311   -2.3890 C   0  0  0  0  0  0  0  0  0  0  0  0
   10.9314   24.7002   -1.7954 N   0  0  0  0  0  0  0  0  0  0  0  0
    9.9809   24.8032   -2.3060 H   0  0  0  0  0  0  0  0  0  0  0  0
   10.8999   23.9140   -0.6468 C   0  0  0  0  0  0  0  0  0  0  0  0
   10.3395   24.4492    0.5171 C   0  0  0  0  0  0  0  0  0  0  0  0
   10.2526   23.7307    1.6805 C   0  0  0  0  0  0  0  0  0  0  0  0
   10.7167   22.4350    1.7606 C   0  0  0  0  0  0  0  0  0  0  0  0
   11.2686   21.8951    0.6272 C   0  0  0  0  0  0  0  0  0  0  0  0
   11.3586   22.6315   -0.5684 C   0  0  0  0  0  0  0  0  0  0  0  0
   10.6478   21.6277    2.9754 C   0  0  0  0  0  0  0  0  0  0  0  0
    9.5159   21.3538    3.4471 O   0  0  0  0  0  0  0  0  0  0  0  0
   11.7959   21.1485    3.6323 N   0  0  0  0  0  0  0  0  0  0  0  0
   12.7808   21.3327    3.3042 H   0  0  0  0  0  0  0  0  0  0  0  0
   11.6594   20.3497    4.8355 C   0  0  0  0  0  0  0  0  0  0  0  0
   10.7272   19.1964    4.4787 C   0  0  0  0  0  0  0  0  0  0  0  0
    9.9879   18.8178    5.7452 C   0  0  0  0  0  0  0  0  0  0  0  0
    8.9813   19.8546    5.9458 N   0  0  0  0  0  0  0  0  0  0  0  0
    7.9838   19.7532    4.8920 C   0  0  0  0  0  0  0  0  0  0  0  0
    9.5750   21.1556    5.9794 C   0  0  0  0  0  0  0  0  0  0  0  0
   11.0847   21.1342    5.9722 C   0  0  0  0  0  0  0  0  0  0  0  0
 18 19  1  0  0  0
 19  1  1  0  0  0
  1  2  1  0  0  0
  2 13  1  0  0  0
 13 14  1  0  0  0
 14 15  1  0  0  0
 15 16  1  0  0  0
 16 17  1  0  0  0
  2  3  1  0  0  0
  3  4  2  0  0  0
  4  5  1  0  0  0
  5 20  1  0  0  0
 20 22  1  0  0  0
 22 23  2  0  0  0
 23 24  1  0  0  0
 24 25  2  0  0  0
 25 26  1  0  0  0
 26 27  2  0  0  0
 25 28  1  0  0  0
 28 29  2  0  0  0
 28 30  1  0  0  0
 30 32  1  0  0  0
 32 33  1  0  0  0
 33 34  1  0  0  0
 34 35  1  0  0  0
 35 36  1  0  0  0
 35 37  1  0  0  0
 37 38  1  0  0  0
  5  6  2  0  0  0
  6  7  1  0  0  0
  7  8  2  0  0  0
  8  9  1  0  0  0
  9 10  1  0  0  0
  9 11  1  0  0  0
 11 12  2  0  0  0
 11  1  1  0  0  0
 17 13  1  0  0  0
  8  3  1  0  0  0
 27 22  1  0  0  0
 38 32  1  0  0  0
 20 21  1  0  0  0
 30 31  1  0  0  0
M  END
> <minimizedAffinity>
1.00190

> <CNNscore>
0.4291102290

> <CNNaffinity>
7.3844461441

> <CNN_VS>
3.1687414646

> <CNNaffinity_variance>
0.1134753004

$$$$
[H]c1nc(N([H])c2c([H])c([H])c(C(=O)N([H])C3([H])C([H])([H])C([H])([H])N(C([H])([H])[H])C([H])([H])C3([H])[H])c([H])c2[H])nc2c1N(C([H])([H])[H])C(=O)[C@@]([H])(C([H])([H])C([H])([H])[H])N2C1([H])C([H])([H])C([H])([H])C([H])([H])C1([H])[H]


 38 42  0  0  0  0  0  0  0  0999 V2000
   15.2971   25.5475   -6.0701 C   0  0  0  0  0  0  0  0  0  0  0  0
   15.2752   24.9733   -4.7792 N   0  0  0  0  0  0  0  0  0  0  0  0
   14.5859   25.7758   -3.7823 C   0  0  0  0  0  0  0  0  0  0  0  0
   14.0054   25.1994   -2.7130 N   0  0  0  0  0  0  0  0  0  0  0  0
   13.3550   25.9396   -1.7618 C   0  0  0  0  0  0  0  0  0  0  0  0
   13.2962   27.2591   -1.8999 N   0  0  0  0  0  0  0  0  0  0  0  0
   13.8463   27.9080   -2.9312 C   0  0  0  0  0  0  0  0  0  0  0  0
   14.4952   27.1489   -3.8756 C   0  0  0  0  0  0  0  0  0  0  0  0
   15.0977   27.8039   -4.9847 N   0  0  0  0  0  0  0  0  0  0  0  0
   15.0426   29.2497   -5.1478 C   0  0  0  0  0  0  0  0  0  0  0  0
   15.7624   26.9830   -5.9338 C   0  0  0  0  0  0  0  0  0  0  0  0
   16.6990   27.4628   -6.6194 O   0  0  0  0  0  0  0  0  0  0  0  0
   15.8318   23.7311   -4.3197 C   0  0  0  0  0  0  0  0  0  0  0  0
   15.0283   22.5069   -4.5855 C   0  0  0  0  0  0  0  0  0  0  0  0
   14.9555   21.7266   -3.3079 C   0  0  0  0  0  0  0  0  0  0  0  0
   15.6801   22.4903   -2.2527 C   0  0  0  0  0  0  0  0  0  0  0  0
   16.1894   23.7628   -2.8479 C   0  0  0  0  0  0  0  0  0  0  0  0
   15.1496   24.8470   -8.3682 C   0  0  0  0  0  0  0  0  0  0  0  0
   16.0870   24.9540   -7.1490 C   0  0  0  0  0  0  0  0  0  0  0  0
   12.7365   25.2942   -0.6713 N   0  0  0  0  0  0  0  0  0  0  0  0
   12.8827   25.7410    0.3053 H   0  0  0  0  0  0  0  0  0  0  0  0
   11.9492   24.1460   -0.6809 C   0  0  0  0  0  0  0  0  0  0  0  0
   10.6982   24.1853   -0.0574 C   0  0  0  0  0  0  0  0  0  0  0  0
    9.8573   23.1037   -0.0432 C   0  0  0  0  0  0  0  0  0  0  0  0
   10.2063   21.9149   -0.6479 C   0  0  0  0  0  0  0  0  0  0  0  0
   11.4299   21.8602   -1.2646 C   0  0  0  0  0  0  0  0  0  0  0  0
   12.2947   22.9701   -1.2802 C   0  0  0  0  0  0  0  0  0  0  0  0
    9.3470   20.7343   -0.6605 C   0  0  0  0  0  0  0  0  0  0  0  0
    9.8215   19.6549   -1.0948 O   0  0  0  0  0  0  0  0  0  0  0  0
    8.0157   20.7618   -0.2064 N   0  0  0  0  0  0  0  0  0  0  0  0
    7.5414   21.6240    0.1719 H   0  0  0  0  0  0  0  0  0  0  0  0
    7.2145   19.5531   -0.2440 C   0  0  0  0  0  0  0  0  0  0  0  0
    7.2780   19.0433   -1.6802 C   0  0  0  0  0  0  0  0  0  0  0  0
    5.9743   18.3216   -1.9510 C   0  0  0  0  0  0  0  0  0  0  0  0
    4.9710   19.3643   -2.1365 N   0  0  0  0  0  0  0  0  0  0  0  0
    5.2588   20.0813   -3.3689 C   0  0  0  0  0  0  0  0  0  0  0  0
    4.9291   20.2506   -1.0144 C   0  0  0  0  0  0  0  0  0  0  0  0
    5.7916   19.8063    0.1424 C   0  0  0  0  0  0  0  0  0  0  0  0
 18 19  1  0  0  0
 19  1  1  0  0  0
  1  2  1  0  0  0
  2 13  1  0  0  0
 13 14  1  0  0  0
 14 15  1  0  0  0
 15 16  1  0  0  0
 16 17  1  0  0  0
  2  3  1  0  0  0
  3  4  2  0  0  0
  4  5  1  0  0  0
  5 20  1  0  0  0
 20 22  1  0  0  0
 22 23  2  0  0  0
 23 24  1  0  0  0
 24 25  2  0  0  0
 25 26  1  0  0  0
 26 27  2  0  0  0
 25 28  1  0  0  0
 28 29  2  0  0  0
 28 30  1  0  0  0
 30 32  1  0  0  0
 32 33  1  0  0  0
 33 34  1  0  0  0
 34 35  1  0  0  0
 35 36  1  0  0  0
 35 37  1  0  0  0
 37 38  1  0  0  0
  5  6  2  0  0  0
  6  7  1  0  0  0
  7  8  2  0  0  0
  8  9  1  0  0  0
  9 10  1  0  0  0
  9 11  1  0  0  0
 11 12  2  0  0  0
 11  1  1  0  0  0
 17 13  1  0  0  0
  8  3  1  0  0  0
 27 22  1  0  0  0
 38 32  1  0  0  0
 20 21  1  0  0  0
 30 31  1  0  0  0
M  END
> <minimizedAffinity>
5.79210

> <CNNscore>
0.4283042848

> <CNNaffinity>
7.4885520935

> <CNN_VS>
3.2073788643

> <CNNaffinity_variance>
0.6184645891

$$$$
[H]c1nc(N([H])c2c([H])c([H])c(C(=O)N([H])C3([H])C([H])([H])C([H])([H])N(C([H])([H])[H])C([H])([H])C3([H])[H])c([H])c2[H])nc2c1N(C([H])([H])[H])C(=O)[C@@]([H])(C([H])([H])C([H])([H])[H])N2C1([H])C([H])([H])C([H])([H])C([H])([H])C1([H])[H]


 38 42  0  0  0  0  0  0  0  0999 V2000
   15.9336   25.8515   -1.3071 C   0  0  0  0  0  0  0  0  0  0  0  0
   15.1374   24.8163   -1.8467 N   0  0  0  0  0  0  0  0  0  0  0  0
   15.1166   23.6027   -1.0468 C   0  0  0  0  0  0  0  0  0  0  0  0
   14.0598   22.7694   -1.0840 N   0  0  0  0  0  0  0  0  0  0  0  0
   14.0241   21.6199   -0.3403 C   0  0  0  0  0  0  0  0  0  0  0  0
   15.0590   21.3218    0.4367 N   0  0  0  0  0  0  0  0  0  0  0  0
   16.1454   22.0951    0.5300 C   0  0  0  0  0  0  0  0  0  0  0  0
   16.1637   23.2444   -0.2238 C   0  0  0  0  0  0  0  0  0  0  0  0
   17.3048   24.0902   -0.1551 N   0  0  0  0  0  0  0  0  0  0  0  0
   18.4470   23.7749    0.6909 C   0  0  0  0  0  0  0  0  0  0  0  0
   17.2849   25.2642   -0.9539 C   0  0  0  0  0  0  0  0  0  0  0  0
   18.3684   25.7712   -1.3365 O   0  0  0  0  0  0  0  0  0  0  0  0
   14.3616   24.7928   -3.0557 C   0  0  0  0  0  0  0  0  0  0  0  0
   15.0916   24.4421   -4.3042 C   0  0  0  0  0  0  0  0  0  0  0  0
   14.7262   25.4586   -5.3433 C   0  0  0  0  0  0  0  0  0  0  0  0
   13.8047   26.4513   -4.7212 C   0  0  0  0  0  0  0  0  0  0  0  0
   13.6047   26.0847   -3.2865 C   0  0  0  0  0  0  0  0  0  0  0  0
   17.2879   26.7277   -3.0936 C   0  0  0  0  0  0  0  0  0  0  0  0
   16.1961   27.0763   -2.0626 C   0  0  0  0  0  0  0  0  0  0  0  0
   12.8863   20.7883   -0.3870 N   0  0  0  0  0  0  0  0  0  0  0  0
   12.9684   19.8842   -0.9791 H   0  0  0  0  0  0  0  0  0  0  0  0
   11.6555   20.9731    0.2368 C   0  0  0  0  0  0  0  0  0  0  0  0
   11.6118   21.0199    1.6336 C   0  0  0  0  0  0  0  0  0  0  0  0
   10.4426   21.2200    2.3194 C   0  0  0  0  0  0  0  0  0  0  0  0
    9.2432   21.3867    1.6604 C   0  0  0  0  0  0  0  0  0  0  0  0
    9.2692   21.3442    0.2900 C   0  0  0  0  0  0  0  0  0  0  0  0
   10.4689   21.1389   -0.4159 C   0  0  0  0  0  0  0  0  0  0  0  0
    7.9711   21.6023    2.3441 C   0  0  0  0  0  0  0  0  0  0  0  0
    7.1527   22.4125    1.8414 O   0  0  0  0  0  0  0  0  0  0  0  0
    7.6309   20.9395    3.5375 N   0  0  0  0  0  0  0  0  0  0  0  0
    8.2587   20.2464    4.0245 H   0  0  0  0  0  0  0  0  0  0  0  0
    6.3495   21.1968    4.1669 C   0  0  0  0  0  0  0  0  0  0  0  0
    6.3005   20.3161    5.4112 C   0  0  0  0  0  0  0  0  0  0  0  0
    4.8454   19.9714    5.6516 C   0  0  0  0  0  0  0  0  0  0  0  0
    4.5046   18.9595    4.6576 N   0  0  0  0  0  0  0  0  0  0  0  0
    5.2290   17.7358    4.9634 C   0  0  0  0  0  0  0  0  0  0  0  0
    4.7882   19.4169    3.3322 C   0  0  0  0  0  0  0  0  0  0  0  0
    5.2014   20.8675    3.2662 C   0  0  0  0  0  0  0  0  0  0  0  0
 18 19  1  0  0  0
 19  1  1  0  0  0
  1  2  1  0  0  0
  2 13  1  0  0  0
 13 14  1  0  0  0
 14 15  1  0  0  0
 15 16  1  0  0  0
 16 17  1  0  0  0
  2  3  1  0  0  0
  3  4  2  0  0  0
  4  5  1  0  0  0
  5 20  1  0  0  0
 20 22  1  0  0  0
 22 23  2  0  0  0
 23 24  1  0  0  0
 24 25  2  0  0  0
 25 26  1  0  0  0
 26 27  2  0  0  0
 25 28  1  0  0  0
 28 29  2  0  0  0
 28 30  1  0  0  0
 30 32  1  0  0  0
 32 33  1  0  0  0
 33 34  1  0  0  0
 34 35  1  0  0  0
 35 36  1  0  0  0
 35 37  1  0  0  0
 37 38  1  0  0  0
  5  6  2  0  0  0
  6  7  1  0  0  0
  7  8  2  0  0  0
  8  9  1  0  0  0
  9 10  1  0  0  0
  9 11  1  0  0  0
 11 12  2  0  0  0
 11  1  1  0  0  0
 17 13  1  0  0  0
  8  3  1  0  0  0
 27 22  1  0  0  0
 38 32  1  0  0  0
 20 21  1  0  0  0
 30 31  1  0  0  0
M  END
> <minimizedAffinity>
0.63185

> <CNNscore>
0.4166724980

> <CNNaffinity>
7.3229498863

> <CNN_VS>
3.0512719154

> <CNNaffinity_variance>
0.5532677174

$$$$
[H]c1nc2c([H])c([H])c([H])c([H])n2c1C(=O)N([H])c1c([H])c(N([H])C(=O)c2c([H])c([H])c(C([H])([H])N3C([H])([H])C([H])([H])N(C([H])([H])[H])C([H])([H])C3([H])[H])c(C(F)(F)F)c2[H])c([H])c([H])c1C([H])([H])[H]


 42 46  0  0  0  0  0  0  0  0999 V2000
    9.1425   23.3488    1.4429 C   0  0  0  0  0  0  0  0  0  0  0  0
    8.2555   24.1384    1.0690 O   0  0  0  0  0  0  0  0  0  0  0  0
   10.3616   23.2409    0.7644 N   0  0  0  0  0  0  0  0  0  0  0  0
   11.0468   22.5310    1.1837 H   0  0  0  0  0  0  0  0  0  0  0  0
   10.7276   23.9712   -0.3874 C   0  0  0  0  0  0  0  0  0  0  0  0
    9.8916   24.3659   -1.3862 C   0  0  0  0  0  0  0  0  0  0  0  0
   10.3617   25.1028   -2.4489 C   0  0  0  0  0  0  0  0  0  0  0  0
   11.6862   25.4616   -2.5347 C   0  0  0  0  0  0  0  0  0  0  0  0
   12.1896   26.2535   -3.6786 C   0  0  0  0  0  0  0  0  0  0  0  0
   12.5769   25.0786   -1.5355 C   0  0  0  0  0  0  0  0  0  0  0  0
   12.0799   24.3417   -0.4827 C   0  0  0  0  0  0  0  0  0  0  0  0
   13.9082   25.4705   -1.6629 N   0  0  0  0  0  0  0  0  0  0  0  0
   15.0209   24.7574   -2.1311 C   0  0  0  0  0  0  0  0  0  0  0  0
   14.9250   23.5820   -2.5230 O   0  0  0  0  0  0  0  0  0  0  0  0
   14.1460   26.4782   -1.3595 H   0  0  0  0  0  0  0  0  0  0  0  0
   16.3607   25.3835   -2.1749 C   0  0  0  0  0  0  0  0  0  0  0  0
   17.4569   24.9093   -1.4853 C   0  0  0  0  0  0  0  0  0  0  0  0
   18.4870   25.7129   -1.7630 N   0  0  0  0  0  0  0  0  0  0  0  0
   18.0733   26.6719   -2.6010 C   0  0  0  0  0  0  0  0  0  0  0  0
   18.7521   27.7399   -3.1833 C   0  0  0  0  0  0  0  0  0  0  0  0
   18.0878   28.5991   -4.0253 C   0  0  0  0  0  0  0  0  0  0  0  0
   16.7486   28.3564   -4.2581 C   0  0  0  0  0  0  0  0  0  0  0  0
   16.0948   27.2939   -3.6722 C   0  0  0  0  0  0  0  0  0  0  0  0
   16.7519   26.4604   -2.8516 N   0  0  0  0  0  0  0  0  0  0  0  0
    8.3069   20.9542    4.9176 C   0  0  0  0  0  0  0  0  0  0  0  0
    7.3488   21.7685    4.3496 C   0  0  0  0  0  0  0  0  0  0  0  0
    7.5878   22.5626    3.2206 C   0  0  0  0  0  0  0  0  0  0  0  0
    8.8248   22.5467    2.6331 C   0  0  0  0  0  0  0  0  0  0  0  0
    9.7769   21.7462    3.1848 C   0  0  0  0  0  0  0  0  0  0  0  0
    9.5537   20.9455    4.3152 C   0  0  0  0  0  0  0  0  0  0  0  0
   10.6342   20.1198    4.8518 C   0  0  0  0  0  0  0  0  0  0  0  0
   11.0479   20.4354    6.1234 F   0  0  0  0  0  0  0  0  0  0  0  0
   10.3843   18.7588    4.7205 F   0  0  0  0  0  0  0  0  0  0  0  0
   11.7740   20.3288    4.0565 F   0  0  0  0  0  0  0  0  0  0  0  0
    8.0275   20.0937    6.0710 C   0  0  0  0  0  0  0  0  0  0  0  0
    4.1431   19.4631    3.7438 C   0  0  0  0  0  0  0  0  0  0  0  0
    5.3321   19.7859    4.4534 N   0  0  0  0  0  0  0  0  0  0  0  0
    5.3251   19.5288    5.8533 C   0  0  0  0  0  0  0  0  0  0  0  0
    6.2809   18.5171    6.3356 C   0  0  0  0  0  0  0  0  0  0  0  0
    7.6296   18.7521    5.7811 N   0  0  0  0  0  0  0  0  0  0  0  0
    7.4183   18.4839    4.3554 C   0  0  0  0  0  0  0  0  0  0  0  0
    6.5660   19.5590    3.7917 C   0  0  0  0  0  0  0  0  0  0  0  0
 36 37  1  0  0  0
 37 38  1  0  0  0
 38 39  1  0  0  0
 39 40  1  0  0  0
 40 35  1  0  0  0
 35 25  1  0  0  0
 25 26  2  0  0  0
 26 27  1  0  0  0
 27 28  2  0  0  0
 28 29  1  0  0  0
 29 30  2  0  0  0
 30 31  1  0  0  0
 31 32  1  0  0  0
 31 33  1  0  0  0
 31 34  1  0  0  0
 28  1  1  0  0  0
  1  2  2  0  0  0
  1  3  1  0  0  0
  3  5  1  0  0  0
  5  6  2  0  0  0
  6  7  1  0  0  0
  7  8  2  0  0  0
  8  9  1  0  0  0
  8 10  1  0  0  0
 10 12  1  0  0  0
 12 13  1  0  0  0
 13 14  2  0  0  0
 13 16  1  0  0  0
 16 17  2  0  0  0
 17 18  1  0  0  0
 18 19  2  0  0  0
 19 20  1  0  0  0
 20 21  2  0  0  0
 21 22  1  0  0  0
 22 23  2  0  0  0
 23 24  1  0  0  0
 10 11  2  0  0  0
 40 41  1  0  0  0
 41 42  1  0  0  0
 42 37  1  0  0  0
 30 25  1  0  0  0
 11  5  1  0  0  0
 24 16  1  0  0  0
 24 19  1  0  0  0
  3  4  1  0  0  0
 12 15  1  0  0  0
M  END
> <minimizedAffinity>
4.69195

> <CNNscore>
0.3880812228

> <CNNaffinity>
6.8358316422

> <CNN_VS>
2.6528580189

> <CNNaffinity_variance>
0.8553797603

$$$$
[H]c1nc2c([H])c([H])c([H])c([H])n2c1C(=O)N([H])c1c([H])c(N([H])C(=O)c2c([H])c([H])c(C([H])([H])N3C([H])([H])C([H])([H])N(C([H])([H])[H])C([H])([H])C3([H])[H])c(C(F)(F)F)c2[H])c([H])c([H])c1C([H])([H])[H]


 42 46  0  0  0  0  0  0  0  0999 V2000
    9.3857   23.5461    0.9426 C   0  0  0  0  0  0  0  0  0  0  0  0
    9.0562   23.2484   -0.2206 O   0  0  0  0  0  0  0  0  0  0  0  0
   10.6824   23.3203    1.4178 N   0  0  0  0  0  0  0  0  0  0  0  0
   10.8466   23.6226    2.4332 H   0  0  0  0  0  0  0  0  0  0  0  0
   11.7381   22.7420    0.6798 C   0  0  0  0  0  0  0  0  0  0  0  0
   12.0394   21.4163    0.6149 C   0  0  0  0  0  0  0  0  0  0  0  0
   13.0796   20.9673   -0.1660 C   0  0  0  0  0  0  0  0  0  0  0  0
   13.8446   21.8410   -0.9021 C   0  0  0  0  0  0  0  0  0  0  0  0
   14.9628   21.3561   -1.7407 C   0  0  0  0  0  0  0  0  0  0  0  0
   13.5720   23.2058   -0.8649 C   0  0  0  0  0  0  0  0  0  0  0  0
   12.5250   23.6285   -0.0753 C   0  0  0  0  0  0  0  0  0  0  0  0
   14.3707   24.0518   -1.6320 N   0  0  0  0  0  0  0  0  0  0  0  0
   14.1126   25.3379   -2.1272 C   0  0  0  0  0  0  0  0  0  0  0  0
   13.0348   25.9169   -1.9091 O   0  0  0  0  0  0  0  0  0  0  0  0
   15.3476   23.6810   -1.9009 H   0  0  0  0  0  0  0  0  0  0  0  0
   15.1220   26.0577   -2.9346 C   0  0  0  0  0  0  0  0  0  0  0  0
   16.1347   26.8250   -2.3983 C   0  0  0  0  0  0  0  0  0  0  0  0
   16.8513   27.3144   -3.4137 N   0  0  0  0  0  0  0  0  0  0  0  0
   16.3222   26.8804   -4.5646 C   0  0  0  0  0  0  0  0  0  0  0  0
   16.6933   27.1027   -5.8888 C   0  0  0  0  0  0  0  0  0  0  0  0
   15.9719   26.5314   -6.9095 C   0  0  0  0  0  0  0  0  0  0  0  0
   14.8894   25.7467   -6.5647 C   0  0  0  0  0  0  0  0  0  0  0  0
   14.5385   25.5389   -5.2481 C   0  0  0  0  0  0  0  0  0  0  0  0
   15.2487   26.1009   -4.2585 N   0  0  0  0  0  0  0  0  0  0  0  0
    6.3118   25.3894    3.3216 C   0  0  0  0  0  0  0  0  0  0  0  0
    6.7746   24.1180    3.5919 C   0  0  0  0  0  0  0  0  0  0  0  0
    7.7717   23.4874    2.8366 C   0  0  0  0  0  0  0  0  0  0  0  0
    8.3308   24.1447    1.7731 C   0  0  0  0  0  0  0  0  0  0  0  0
    7.8821   25.3997    1.4982 C   0  0  0  0  0  0  0  0  0  0  0  0
    6.8843   26.0447    2.2445 C   0  0  0  0  0  0  0  0  0  0  0  0
    6.4517   27.3920    1.8771 C   0  0  0  0  0  0  0  0  0  0  0  0
    6.0572   27.5540    0.5710 F   0  0  0  0  0  0  0  0  0  0  0  0
    5.5140   27.9133    2.7608 F   0  0  0  0  0  0  0  0  0  0  0  0
    7.5544   28.2525    2.0135 F   0  0  0  0  0  0  0  0  0  0  0  0
    5.3009   26.0534    4.1499 C   0  0  0  0  0  0  0  0  0  0  0  0
    5.3750   30.0536    6.3622 C   0  0  0  0  0  0  0  0  0  0  0  0
    5.3236   28.8760    5.5674 N   0  0  0  0  0  0  0  0  0  0  0  0
    6.5636   28.2219    5.3214 C   0  0  0  0  0  0  0  0  0  0  0  0
    6.7061   26.8642    5.8745 C   0  0  0  0  0  0  0  0  0  0  0  0
    5.5244   26.0352    5.5613 N   0  0  0  0  0  0  0  0  0  0  0  0
    4.4769   26.6991    6.3431 C   0  0  0  0  0  0  0  0  0  0  0  0
    4.2017   28.0249    5.7379 C   0  0  0  0  0  0  0  0  0  0  0  0
 36 37  1  0  0  0
 37 38  1  0  0  0
 38 39  1  0  0  0
 39 40  1  0  0  0
 40 35  1  0  0  0
 35 25  1  0  0  0
 25 26  2  0  0  0
 26 27  1  0  0  0
 27 28  2  0  0  0
 28 29  1  0  0  0
 29 30  2  0  0  0
 30 31  1  0  0  0
 31 32  1  0  0  0
 31 33  1  0  0  0
 31 34  1  0  0  0
 28  1  1  0  0  0
  1  2  2  0  0  0
  1  3  1  0  0  0
  3  5  1  0  0  0
  5  6  2  0  0  0
  6  7  1  0  0  0
  7  8  2  0  0  0
  8  9  1  0  0  0
  8 10  1  0  0  0
 10 12  1  0  0  0
 12 13  1  0  0  0
 13 14  2  0  0  0
 13 16  1  0  0  0
 16 17  2  0  0  0
 17 18  1  0  0  0
 18 19  2  0  0  0
 19 20  1  0  0  0
 20 21  2  0  0  0
 21 22  1  0  0  0
 22 23  2  0  0  0
 23 24  1  0  0  0
 10 11  2  0  0  0
 40 41  1  0  0  0
 41 42  1  0  0  0
 42 37  1  0  0  0
 30 25  1  0  0  0
 11  5  1  0  0  0
 24 16  1  0  0  0
 24 19  1  0  0  0
  3  4  1  0  0  0
 12 15  1  0  0  0
M  END
> <minimizedAffinity>
0.22137

> <CNNscore>
0.3376408815

> <CNNaffinity>
6.6780319214

> <CNN_VS>
2.2547764778

> <CNNaffinity_variance>
0.7822828293

$$$$
[H]c1nc2c([H])c([H])c([H])c([H])n2c1C(=O)N([H])c1c([H])c(N([H])C(=O)c2c([H])c([H])c(C([H])([H])N3C([H])([H])C([H])([H])N(C([H])([H])[H])C([H])([H])C3([H])[H])c(C(F)(F)F)c2[H])c([H])c([H])c1C([H])([H])[H]


 42 46  0  0  0  0  0  0  0  0999 V2000
   11.7913   21.9881    0.5672 C   0  0  0  0  0  0  0  0  0  0  0  0
   12.3150   21.1647   -0.2061 O   0  0  0  0  0  0  0  0  0  0  0  0
   12.4937   23.1043    1.0350 N   0  0  0  0  0  0  0  0  0  0  0  0
   11.9355   23.7429    1.6907 H   0  0  0  0  0  0  0  0  0  0  0  0
   13.8313   23.4254    0.7162 C   0  0  0  0  0  0  0  0  0  0  0  0
   14.9398   22.9878    1.3734 C   0  0  0  0  0  0  0  0  0  0  0  0
   16.1986   23.3467    0.9489 C   0  0  0  0  0  0  0  0  0  0  0  0
   16.3749   24.1560   -0.1485 C   0  0  0  0  0  0  0  0  0  0  0  0
   17.7292   24.5410   -0.6029 C   0  0  0  0  0  0  0  0  0  0  0  0
   15.2687   24.6271   -0.8505 C   0  0  0  0  0  0  0  0  0  0  0  0
   14.0201   24.2525   -0.4043 C   0  0  0  0  0  0  0  0  0  0  0  0
   15.4972   25.4396   -1.9594 N   0  0  0  0  0  0  0  0  0  0  0  0
   14.9519   25.3845   -3.2499 C   0  0  0  0  0  0  0  0  0  0  0  0
   14.1214   24.5176   -3.5709 O   0  0  0  0  0  0  0  0  0  0  0  0
   16.2019   26.2463   -1.8298 H   0  0  0  0  0  0  0  0  0  0  0  0
   15.3494   26.3642   -4.2849 C   0  0  0  0  0  0  0  0  0  0  0  0
   15.6146   27.6930   -4.0283 C   0  0  0  0  0  0  0  0  0  0  0  0
   15.9450   28.2697   -5.1869 N   0  0  0  0  0  0  0  0  0  0  0  0
   15.8954   27.3488   -6.1576 C   0  0  0  0  0  0  0  0  0  0  0  0
   16.1483   27.4390   -7.5245 C   0  0  0  0  0  0  0  0  0  0  0  0
   16.0250   26.3258   -8.3209 C   0  0  0  0  0  0  0  0  0  0  0  0
   15.6473   25.1448   -7.7132 C   0  0  0  0  0  0  0  0  0  0  0  0
   15.4015   25.0763   -6.3588 C   0  0  0  0  0  0  0  0  0  0  0  0
   15.5246   26.1683   -5.5894 N   0  0  0  0  0  0  0  0  0  0  0  0
    7.7499   21.1632    1.7889 C   0  0  0  0  0  0  0  0  0  0  0  0
    8.0945   21.2913    0.4590 C   0  0  0  0  0  0  0  0  0  0  0  0
    9.3992   21.5621    0.0269 C   0  0  0  0  0  0  0  0  0  0  0  0
   10.3995   21.7104    0.9504 C   0  0  0  0  0  0  0  0  0  0  0  0
   10.0707   21.5852    2.2649 C   0  0  0  0  0  0  0  0  0  0  0  0
    8.7691   21.3147    2.7138 C   0  0  0  0  0  0  0  0  0  0  0  0
    8.4974   21.2044    4.1460 C   0  0  0  0  0  0  0  0  0  0  0  0
    7.4452   20.3908    4.4904 F   0  0  0  0  0  0  0  0  0  0  0  0
    9.6355   20.9058    4.8859 F   0  0  0  0  0  0  0  0  0  0  0  0
    8.1185   22.4746    4.6134 F   0  0  0  0  0  0  0  0  0  0  0  0
    6.3890   20.8335    2.2227 C   0  0  0  0  0  0  0  0  0  0  0  0
    4.1229   16.9425    3.0145 C   0  0  0  0  0  0  0  0  0  0  0  0
    4.8766   18.1413    2.8870 N   0  0  0  0  0  0  0  0  0  0  0  0
    5.9801   18.1046    1.9888 C   0  0  0  0  0  0  0  0  0  0  0  0
    5.8972   18.9930    0.8168 C   0  0  0  0  0  0  0  0  0  0  0  0
    5.4974   20.3590    1.2117 N   0  0  0  0  0  0  0  0  0  0  0  0
    4.1230   20.1467    1.6755 C   0  0  0  0  0  0  0  0  0  0  0  0
    4.1630   19.3662    2.9361 C   0  0  0  0  0  0  0  0  0  0  0  0
 36 37  1  0  0  0
 37 38  1  0  0  0
 38 39  1  0  0  0
 39 40  1  0  0  0
 40 35  1  0  0  0
 35 25  1  0  0  0
 25 26  2  0  0  0
 26 27  1  0  0  0
 27 28  2  0  0  0
 28 29  1  0  0  0
 29 30  2  0  0  0
 30 31  1  0  0  0
 31 32  1  0  0  0
 31 33  1  0  0  0
 31 34  1  0  0  0
 28  1  1  0  0  0
  1  2  2  0  0  0
  1  3  1  0  0  0
  3  5  1  0  0  0
  5  6  2  0  0  0
  6  7  1  0  0  0
  7  8  2  0  0  0
  8  9  1  0  0  0
  8 10  1  0  0  0
 10 12  1  0  0  0
 12 13  1  0  0  0
 13 14  2  0  0  0
 13 16  1  0  0  0
 16 17  2  0  0  0
 17 18  1  0  0  0
 18 19  2  0  0  0
 19 20  1  0  0  0
 20 21  2  0  0  0
 21 22  1  0  0  0
 22 23  2  0  0  0
 23 24  1  0  0  0
 10 11  2  0  0  0
 40 41  1  0  0  0
 41 42  1  0  0  0
 42 37  1  0  0  0
 30 25  1  0  0  0
 11  5  1  0  0  0
 24 16  1  0  0  0
 24 19  1  0  0  0
  3  4  1  0  0  0
 12 15  1  0  0  0
M  END
> <minimizedAffinity>
-2.78414

> <CNNscore>
0.2252655476

> <CNNaffinity>
6.7335052490

> <CNN_VS>
1.5168267488

> <CNNaffinity_variance>
0.3423854411

$$$$
[H]c1nc2c([H])c([H])c([H])c([H])n2c1C(=O)N([H])c1c([H])c(N([H])C(=O)c2c([H])c([H])c(C([H])([H])N3C([H])([H])C([H])([H])N(C([H])([H])[H])C([H])([H])C3([H])[H])c(C(F)(F)F)c2[H])c([H])c([H])c1C([H])([H])[H]


 42 46  0  0  0  0  0  0  0  0999 V2000
   11.7840   23.8010   -1.3793 C   0  0  0  0  0  0  0  0  0  0  0  0
   12.0372   22.6508   -0.9757 O   0  0  0  0  0  0  0  0  0  0  0  0
   10.5909   24.4502   -1.0428 N   0  0  0  0  0  0  0  0  0  0  0  0
   10.4891   25.4384   -1.4457 H   0  0  0  0  0  0  0  0  0  0  0  0
    9.5581   23.9088   -0.2465 C   0  0  0  0  0  0  0  0  0  0  0  0
    8.2419   24.2511   -0.2985 C   0  0  0  0  0  0  0  0  0  0  0  0
    7.3193   23.6292    0.5112 C   0  0  0  0  0  0  0  0  0  0  0  0
    7.6974   22.6464    1.3952 C   0  0  0  0  0  0  0  0  0  0  0  0
    6.7038   21.9794    2.2652 C   0  0  0  0  0  0  0  0  0  0  0  0
    9.0336   22.2651    1.4819 C   0  0  0  0  0  0  0  0  0  0  0  0
    9.9363   22.9035    0.6598 C   0  0  0  0  0  0  0  0  0  0  0  0
    9.3679   21.2606    2.3883 N   0  0  0  0  0  0  0  0  0  0  0  0
   10.6096   20.9172    2.9417 C   0  0  0  0  0  0  0  0  0  0  0  0
   11.6467   21.5381    2.6532 O   0  0  0  0  0  0  0  0  0  0  0  0
    8.5606   20.6339    2.7339 H   0  0  0  0  0  0  0  0  0  0  0  0
   10.7310   19.7935    3.8963 C   0  0  0  0  0  0  0  0  0  0  0  0
   11.9171   19.1526    4.1869 C   0  0  0  0  0  0  0  0  0  0  0  0
   11.6520   18.2012    5.0861 N   0  0  0  0  0  0  0  0  0  0  0  0
   10.3430   18.2249    5.3673 C   0  0  0  0  0  0  0  0  0  0  0  0
    9.5736   17.4477    6.2300 C   0  0  0  0  0  0  0  0  0  0  0  0
    8.2230   17.6764    6.3408 C   0  0  0  0  0  0  0  0  0  0  0  0
    7.6821   18.6890    5.5735 C   0  0  0  0  0  0  0  0  0  0  0  0
    8.4606   19.4470    4.7256 C   0  0  0  0  0  0  0  0  0  0  0  0
    9.7783   19.2163    4.6242 N   0  0  0  0  0  0  0  0  0  0  0  0
   14.7271   25.6983   -3.8783 C   0  0  0  0  0  0  0  0  0  0  0  0
   14.9592   24.4749   -3.2841 C   0  0  0  0  0  0  0  0  0  0  0  0
   14.0245   23.8307   -2.4632 C   0  0  0  0  0  0  0  0  0  0  0  0
   12.8134   24.4236   -2.2241 C   0  0  0  0  0  0  0  0  0  0  0  0
   12.5738   25.6301   -2.8061 C   0  0  0  0  0  0  0  0  0  0  0  0
   13.4993   26.2884   -3.6302 C   0  0  0  0  0  0  0  0  0  0  0  0
   13.1672   27.5886   -4.2101 C   0  0  0  0  0  0  0  0  0  0  0  0
   12.8196   27.5751   -5.5392 F   0  0  0  0  0  0  0  0  0  0  0  0
   12.2429   28.2945   -3.4490 F   0  0  0  0  0  0  0  0  0  0  0  0
   14.3207   28.3902   -4.1635 F   0  0  0  0  0  0  0  0  0  0  0  0
   15.6972   26.3374   -4.7724 C   0  0  0  0  0  0  0  0  0  0  0  0
   16.9631   25.2240   -9.0220 C   0  0  0  0  0  0  0  0  0  0  0  0
   16.6396   25.4701   -7.6596 N   0  0  0  0  0  0  0  0  0  0  0  0
   17.2119   26.6333   -7.0718 C   0  0  0  0  0  0  0  0  0  0  0  0
   16.2675   27.6776   -6.6391 C   0  0  0  0  0  0  0  0  0  0  0  0
   15.1578   27.0995   -5.8542 N   0  0  0  0  0  0  0  0  0  0  0  0
   14.4621   26.2972   -6.8649 C   0  0  0  0  0  0  0  0  0  0  0  0
   15.3248   25.1490   -7.2353 C   0  0  0  0  0  0  0  0  0  0  0  0
 36 37  1  0  0  0
 37 38  1  0  0  0
 38 39  1  0  0  0
 39 40  1  0  0  0
 40 35  1  0  0  0
 35 25  1  0  0  0
 25 26  2  0  0  0
 26 27  1  0  0  0
 27 28  2  0  0  0
 28 29  1  0  0  0
 29 30  2  0  0  0
 30 31  1  0  0  0
 31 32  1  0  0  0
 31 33  1  0  0  0
 31 34  1  0  0  0
 28  1  1  0  0  0
  1  2  2  0  0  0
  1  3  1  0  0  0
  3  5  1  0  0  0
  5  6  2  0  0  0
  6  7  1  0  0  0
  7  8  2  0  0  0
  8  9  1  0  0  0
  8 10  1  0  0  0
 10 12  1  0  0  0
 12 13  1  0  0  0
 13 14  2  0  0  0
 13 16  1  0  0  0
 16 17  2  0  0  0
 17 18  1  0  0  0
 18 19  2  0  0  0
 19 20  1  0  0  0
 20 21  2  0  0  0
 21 22  1  0  0  0
 22 23  2  0  0  0
 23 24  1  0  0  0
 10 11  2  0  0  0
 40 41  1  0  0  0
 41 42  1  0  0  0
 42 37  1  0  0  0
 30 25  1  0  0  0
 11  5  1  0  0  0
 24 16  1  0  0  0
 24 19  1  0  0  0
  3  4  1  0  0  0
 12 15  1  0  0  0
M  END
> <minimizedAffinity>
5.31497

> <CNNscore>
0.2240794748

> <CNNaffinity>
6.7642259598

> <CNN_VS>
1.5157241821

> <CNNaffinity_variance>
0.5081294775

$$$$
[H]c1nc2c([H])c([H])c([H])c([H])n2c1C(=O)N([H])c1c([H])c(N([H])C(=O)c2c([H])c([H])c(C([H])([H])N3C([H])([H])C([H])([H])N(C([H])([H])[H])C([H])([H])C3([H])[H])c(C(F)(F)F)c2[H])c([H])c([H])c1C([H])([H])[H]


 42 46  0  0  0  0  0  0  0  0999 V2000
   11.5906   22.6029   -0.8570 C   0  0  0  0  0  0  0  0  0  0  0  0
   10.9699   23.2333   -1.7329 O   0  0  0  0  0  0  0  0  0  0  0  0
   12.9488   22.2966   -0.9977 N   0  0  0  0  0  0  0  0  0  0  0  0
   13.3738   21.7550   -0.1759 H   0  0  0  0  0  0  0  0  0  0  0  0
   13.7566   22.6364   -2.1049 C   0  0  0  0  0  0  0  0  0  0  0  0
   14.5231   21.7785   -2.8320 C   0  0  0  0  0  0  0  0  0  0  0  0
   15.2476   22.2243   -3.9135 C   0  0  0  0  0  0  0  0  0  0  0  0
   15.2202   23.5459   -4.2917 C   0  0  0  0  0  0  0  0  0  0  0  0
   16.0004   24.0231   -5.4547 C   0  0  0  0  0  0  0  0  0  0  0  0
   14.4499   24.4585   -3.5759 C   0  0  0  0  0  0  0  0  0  0  0  0
   13.7341   23.9856   -2.4978 C   0  0  0  0  0  0  0  0  0  0  0  0
   14.4491   25.7859   -4.0002 N   0  0  0  0  0  0  0  0  0  0  0  0
   15.4348   26.7756   -3.8793 C   0  0  0  0  0  0  0  0  0  0  0  0
   16.5241   26.5476   -3.3262 O   0  0  0  0  0  0  0  0  0  0  0  0
   13.5598   26.1310   -4.5043 H   0  0  0  0  0  0  0  0  0  0  0  0
   15.2116   28.1387   -4.4094 C   0  0  0  0  0  0  0  0  0  0  0  0
   16.0114   28.7374   -5.3601 C   0  0  0  0  0  0  0  0  0  0  0  0
   15.5122   29.9528   -5.6003 N   0  0  0  0  0  0  0  0  0  0  0  0
   14.4295   30.1344   -4.8336 C   0  0  0  0  0  0  0  0  0  0  0  0
   13.5611   31.2166   -4.7104 C   0  0  0  0  0  0  0  0  0  0  0  0
   12.5034   31.1525   -3.8353 C   0  0  0  0  0  0  0  0  0  0  0  0
   12.3498   29.9916   -3.1036 C   0  0  0  0  0  0  0  0  0  0  0  0
   13.2202   28.9317   -3.2400 C   0  0  0  0  0  0  0  0  0  0  0  0
   14.2498   29.0036   -4.0970 N   0  0  0  0  0  0  0  0  0  0  0  0
    9.3784   21.3812    2.6243 C   0  0  0  0  0  0  0  0  0  0  0  0
    8.8110   22.1671    1.6425 C   0  0  0  0  0  0  0  0  0  0  0  0
    9.5030   22.5848    0.4983 C   0  0  0  0  0  0  0  0  0  0  0  0
   10.8075   22.2069    0.3224 C   0  0  0  0  0  0  0  0  0  0  0  0
   11.3767   21.4309    1.2845 C   0  0  0  0  0  0  0  0  0  0  0  0
   10.6975   21.0047    2.4360 C   0  0  0  0  0  0  0  0  0  0  0  0
   11.3851   20.1792    3.4274 C   0  0  0  0  0  0  0  0  0  0  0  0
   12.5139   19.5339    2.9836 F   0  0  0  0  0  0  0  0  0  0  0  0
   11.6205   20.8564    4.6182 F   0  0  0  0  0  0  0  0  0  0  0  0
   10.5172   19.1385    3.8005 F   0  0  0  0  0  0  0  0  0  0  0  0
    8.6266   20.9137    3.7928 C   0  0  0  0  0  0  0  0  0  0  0  0
    5.8048   24.3885    4.7225 C   0  0  0  0  0  0  0  0  0  0  0  0
    6.6115   23.2864    4.3277 N   0  0  0  0  0  0  0  0  0  0  0  0
    7.9273   23.5919    3.8789 C   0  0  0  0  0  0  0  0  0  0  0  0
    9.0341   23.0644    4.6952 C   0  0  0  0  0  0  0  0  0  0  0  0
    8.8298   21.6356    5.0092 N   0  0  0  0  0  0  0  0  0  0  0  0
    7.6522   21.6858    5.8809 C   0  0  0  0  0  0  0  0  0  0  0  0
    6.4771   22.0841    5.0682 C   0  0  0  0  0  0  0  0  0  0  0  0
 36 37  1  0  0  0
 37 38  1  0  0  0
 38 39  1  0  0  0
 39 40  1  0  0  0
 40 35  1  0  0  0
 35 25  1  0  0  0
 25 26  2  0  0  0
 26 27  1  0  0  0
 27 28  2  0  0  0
 28 29  1  0  0  0
 29 30  2  0  0  0
 30 31  1  0  0  0
 31 32  1  0  0  0
 31 33  1  0  0  0
 31 34  1  0  0  0
 28  1  1  0  0  0
  1  2  2  0  0  0
  1  3  1  0  0  0
  3  5  1  0  0  0
  5  6  2  0  0  0
  6  7  1  0  0  0
  7  8  2  0  0  0
  8  9  1  0  0  0
  8 10  1  0  0  0
 10 12  1  0  0  0
 12 13  1  0  0  0
 13 14  2  0  0  0
 13 16  1  0  0  0
 16 17  2  0  0  0
 17 18  1  0  0  0
 18 19  2  0  0  0
 19 20  1  0  0  0
 20 21  2  0  0  0
 21 22  1  0  0  0
 22 23  2  0  0  0
 23 24  1  0  0  0
 10 11  2  0  0  0
 40 41  1  0  0  0
 41 42  1  0  0  0
 42 37  1  0  0  0
 30 25  1  0  0  0
 11  5  1  0  0  0
 24 16  1  0  0  0
 24 19  1  0  0  0
  3  4  1  0  0  0
 12 15  1  0  0  0
M  END
> <minimizedAffinity>
12.82814

> <CNNscore>
0.2066635787

> <CNNaffinity>
6.6626448631

> <CNN_VS>
1.3769260645

> <CNNaffinity_variance>
0.3203044534

$$$$
[H]c1nc2c([H])c([H])c([H])c([H])n2c1C(=O)N([H])c1c([H])c(N([H])C(=O)c2c([H])c([H])c(C([H])([H])N3C([H])([H])C([H])([H])N(C([H])([H])[H])C([H])([H])C3([H])[H])c(C(F)(F)F)c2[H])c([H])c([H])c1C([H])([H])[H]


 42 46  0  0  0  0  0  0  0  0999 V2000
   11.3534   21.9234    0.0658 C   0  0  0  0  0  0  0  0  0  0  0  0
   11.8416   21.4250   -0.9654 O   0  0  0  0  0  0  0  0  0  0  0  0
   12.1282   22.6797    0.9523 N   0  0  0  0  0  0  0  0  0  0  0  0
   11.5953   23.0600    1.8012 H   0  0  0  0  0  0  0  0  0  0  0  0
   13.5052   22.9569    0.8082 C   0  0  0  0  0  0  0  0  0  0  0  0
   14.5115   22.4365    1.5626 C   0  0  0  0  0  0  0  0  0  0  0  0
   15.8241   22.7604    1.3067 C   0  0  0  0  0  0  0  0  0  0  0  0
   16.1587   23.6171    0.2848 C   0  0  0  0  0  0  0  0  0  0  0  0
   17.5708   23.9643    0.0117 C   0  0  0  0  0  0  0  0  0  0  0  0
   15.1614   24.1731   -0.5118 C   0  0  0  0  0  0  0  0  0  0  0  0
   13.8557   23.8319   -0.2342 C   0  0  0  0  0  0  0  0  0  0  0  0
   15.5494   25.0312   -1.5390 N   0  0  0  0  0  0  0  0  0  0  0  0
   15.0906   25.1270   -2.8605 C   0  0  0  0  0  0  0  0  0  0  0  0
   14.1973   24.3814   -3.2968 O   0  0  0  0  0  0  0  0  0  0  0  0
   16.3245   25.7444   -1.3054 H   0  0  0  0  0  0  0  0  0  0  0  0
   15.6588   26.1271   -3.7911 C   0  0  0  0  0  0  0  0  0  0  0  0
   16.2925   27.2838   -3.3879 C   0  0  0  0  0  0  0  0  0  0  0  0
   16.6777   27.9372   -4.4873 N   0  0  0  0  0  0  0  0  0  0  0  0
   16.3072   27.2301   -5.5624 C   0  0  0  0  0  0  0  0  0  0  0  0
   16.4706   27.4736   -6.9242 C   0  0  0  0  0  0  0  0  0  0  0  0
   15.9905   26.5739   -7.8454 C   0  0  0  0  0  0  0  0  0  0  0  0
   15.3545   25.4464   -7.3650 C   0  0  0  0  0  0  0  0  0  0  0  0
   15.2028   25.2237   -6.0133 C   0  0  0  0  0  0  0  0  0  0  0  0
   15.6749   26.1078   -5.1215 N   0  0  0  0  0  0  0  0  0  0  0  0
    7.1824   21.1811    0.8128 C   0  0  0  0  0  0  0  0  0  0  0  0
    7.7319   21.0357   -0.4444 C   0  0  0  0  0  0  0  0  0  0  0  0
    9.0844   21.2715   -0.7229 C   0  0  0  0  0  0  0  0  0  0  0  0
    9.9229   21.6659    0.2855 C   0  0  0  0  0  0  0  0  0  0  0  0
    9.3914   21.8115    1.5297 C   0  0  0  0  0  0  0  0  0  0  0  0
    8.0393   21.5798    1.8248 C   0  0  0  0  0  0  0  0  0  0  0  0
    7.5452   21.7684    3.1877 C   0  0  0  0  0  0  0  0  0  0  0  0
    6.8020   20.7322    3.6991 F   0  0  0  0  0  0  0  0  0  0  0  0
    8.5443   22.1626    4.0701 F   0  0  0  0  0  0  0  0  0  0  0  0
    6.6577   22.8581    3.1790 F   0  0  0  0  0  0  0  0  0  0  0  0
    5.7751   20.8853    1.0975 C   0  0  0  0  0  0  0  0  0  0  0  0
    5.9981   19.9532   -3.3728 C   0  0  0  0  0  0  0  0  0  0  0  0
    5.9881   20.3545   -2.0089 N   0  0  0  0  0  0  0  0  0  0  0  0
    4.7205   20.6910   -1.4558 C   0  0  0  0  0  0  0  0  0  0  0  0
    4.2370   19.8314   -0.3617 C   0  0  0  0  0  0  0  0  0  0  0  0
    5.2899   19.6172    0.6518 N   0  0  0  0  0  0  0  0  0  0  0  0
    6.2722   18.8290   -0.0985 C   0  0  0  0  0  0  0  0  0  0  0  0
    6.8881   19.6974   -1.1312 C   0  0  0  0  0  0  0  0  0  0  0  0
 36 37  1  0  0  0
 37 38  1  0  0  0
 38 39  1  0  0  0
 39 40  1  0  0  0
 40 35  1  0  0  0
 35 25  1  0  0  0
 25 26  2  0  0  0
 26 27  1  0  0  0
 27 28  2  0  0  0
 28 29  1  0  0  0
 29 30  2  0  0  0
 30 31  1  0  0  0
 31 32  1  0  0  0
 31 33  1  0  0  0
 31 34  1  0  0  0
 28  1  1  0  0  0
  1  2  2  0  0  0
  1  3  1  0  0  0
  3  5  1  0  0  0
  5  6  2  0  0  0
  6  7  1  0  0  0
  7  8  2  0  0  0
  8  9  1  0  0  0
  8 10  1  0  0  0
 10 12  1  0  0  0
 12 13  1  0  0  0
 13 14  2  0  0  0
 13 16  1  0  0  0
 16 17  2  0  0  0
 17 18  1  0  0  0
 18 19  2  0  0  0
 19 20  1  0  0  0
 20 21  2  0  0  0
 21 22  1  0  0  0
 22 23  2  0  0  0
 23 24  1  0  0  0
 10 11  2  0  0  0
 40 41  1  0  0  0
 41 42  1  0  0  0
 42 37  1  0  0  0
 30 25  1  0  0  0
 11  5  1  0  0  0
 24 16  1  0  0  0
 24 19  1  0  0  0
  3  4  1  0  0  0
 12 15  1  0  0  0
M  END
> <minimizedAffinity>
-3.60581

> <CNNscore>
0.2026460320

> <CNNaffinity>
7.0509400368

> <CNN_VS>
1.4288450480

> <CNNaffinity_variance>
0.2586264312

$$$$
[H]c1nc2c([H])c([H])c([H])c([H])n2c1C(=O)N([H])c1c([H])c(N([H])C(=O)c2c([H])c([H])c(C([H])([H])N3C([H])([H])C([H])([H])N(C([H])([H])[H])C([H])([H])C3([H])[H])c(C(F)(F)F)c2[H])c([H])c([H])c1C([H])([H])[H]


 42 46  0  0  0  0  0  0  0  0999 V2000
   11.4871   23.8745   -0.3525 C   0  0  0  0  0  0  0  0  0  0  0  0
   11.4816   23.0229   -1.2607 O   0  0  0  0  0  0  0  0  0  0  0  0
   12.1735   25.0863   -0.4878 N   0  0  0  0  0  0  0  0  0  0  0  0
   12.1006   25.7399    0.3589 H   0  0  0  0  0  0  0  0  0  0  0  0
   12.9255   25.4824   -1.6154 C   0  0  0  0  0  0  0  0  0  0  0  0
   12.4304   26.0385   -2.7548 C   0  0  0  0  0  0  0  0  0  0  0  0
   13.2697   26.4123   -3.7790 C   0  0  0  0  0  0  0  0  0  0  0  0
   14.6299   26.2360   -3.6838 C   0  0  0  0  0  0  0  0  0  0  0  0
   15.5305   26.6383   -4.7866 C   0  0  0  0  0  0  0  0  0  0  0  0
   15.1796   25.6705   -2.5364 C   0  0  0  0  0  0  0  0  0  0  0  0
   14.3168   25.3054   -1.5261 C   0  0  0  0  0  0  0  0  0  0  0  0
   16.5637   25.5170   -2.4834 N   0  0  0  0  0  0  0  0  0  0  0  0
   17.5627   26.4315   -2.1208 C   0  0  0  0  0  0  0  0  0  0  0  0
   17.2891   27.5923   -1.7713 O   0  0  0  0  0  0  0  0  0  0  0  0
   16.9532   24.5499   -2.7610 H   0  0  0  0  0  0  0  0  0  0  0  0
   18.9906   26.0447   -2.1421 C   0  0  0  0  0  0  0  0  0  0  0  0
   19.5471   25.1018   -1.3036 C   0  0  0  0  0  0  0  0  0  0  0  0
   20.8446   25.0078   -1.6066 N   0  0  0  0  0  0  0  0  0  0  0  0
   21.1181   25.8583   -2.6040 C   0  0  0  0  0  0  0  0  0  0  0  0
   22.3069   26.1377   -3.2742 C   0  0  0  0  0  0  0  0  0  0  0  0
   22.3241   27.0718   -4.2821 C   0  0  0  0  0  0  0  0  0  0  0  0
   21.1346   27.7024   -4.5883 C   0  0  0  0  0  0  0  0  0  0  0  0
   19.9686   27.4118   -3.9131 C   0  0  0  0  0  0  0  0  0  0  0  0
   19.9617   26.4984   -2.9306 N   0  0  0  0  0  0  0  0  0  0  0  0
    9.2535   22.9497    3.2059 C   0  0  0  0  0  0  0  0  0  0  0  0
    9.9750   21.9867    2.5309 C   0  0  0  0  0  0  0  0  0  0  0  0
   10.7106   22.2527    1.3687 C   0  0  0  0  0  0  0  0  0  0  0  0
   10.7310   23.5234    0.8583 C   0  0  0  0  0  0  0  0  0  0  0  0
   10.0234   24.4812    1.5169 C   0  0  0  0  0  0  0  0  0  0  0  0
    9.2815   24.2308    2.6813 C   0  0  0  0  0  0  0  0  0  0  0  0
    8.5403   25.3149    3.3237 C   0  0  0  0  0  0  0  0  0  0  0  0
    8.8877   26.5854    2.9329 F   0  0  0  0  0  0  0  0  0  0  0  0
    7.1642   25.1254    3.2751 F   0  0  0  0  0  0  0  0  0  0  0  0
    8.8338   25.2844    4.6979 F   0  0  0  0  0  0  0  0  0  0  0  0
    8.5269   22.6653    4.4469 C   0  0  0  0  0  0  0  0  0  0  0  0
    5.8449   19.3095    6.0114 C   0  0  0  0  0  0  0  0  0  0  0  0
    6.7798   20.2808    5.5598 N   0  0  0  0  0  0  0  0  0  0  0  0
    6.8780   20.4601    4.1512 C   0  0  0  0  0  0  0  0  0  0  0  0
    6.4864   21.7822    3.6329 C   0  0  0  0  0  0  0  0  0  0  0  0
    7.1125   22.8673    4.4154 N   0  0  0  0  0  0  0  0  0  0  0  0
    6.4558   22.7154    5.7172 C   0  0  0  0  0  0  0  0  0  0  0  0
    6.9263   21.4551    6.3418 C   0  0  0  0  0  0  0  0  0  0  0  0
 36 37  1  0  0  0
 37 38  1  0  0  0
 38 39  1  0  0  0
 39 40  1  0  0  0
 40 35  1  0  0  0
 35 25  1  0  0  0
 25 26  2  0  0  0
 26 27  1  0  0  0
 27 28  2  0  0  0
 28 29  1  0  0  0
 29 30  2  0  0  0
 30 31  1  0  0  0
 31 32  1  0  0  0
 31 33  1  0  0  0
 31 34  1  0  0  0
 28  1  1  0  0  0
  1  2  2  0  0  0
  1  3  1  0  0  0
  3  5  1  0  0  0
  5  6  2  0  0  0
  6  7  1  0  0  0
  7  8  2  0  0  0
  8  9  1  0  0  0
  8 10  1  0  0  0
 10 12  1  0  0  0
 12 13  1  0  0  0
 13 14  2  0  0  0
 13 16  1  0  0  0
 16 17  2  0  0  0
 17 18  1  0  0  0
 18 19  2  0  0  0
 19 20  1  0  0  0
 20 21  2  0  0  0
 21 22  1  0  0  0
 22 23  2  0  0  0
 23 24  1  0  0  0
 10 11  2  0  0  0
 40 41  1  0  0  0
 41 42  1  0  0  0
 42 37  1  0  0  0
 30 25  1  0  0  0
 11  5  1  0  0  0
 24 16  1  0  0  0
 24 19  1  0  0  0
  3  4  1  0  0  0
 12 15  1  0  0  0
M  END
> <minimizedAffinity>
29.20166

> <CNNscore>
0.1915780306

> <CNNaffinity>
6.5919446945

> <CNN_VS>
1.2628717422

> <CNNaffinity_variance>
0.2466051131

$$$$
[H]c1nc2c([H])c([H])c([H])c([H])n2c1C(=O)N([H])c1c([H])c(N([H])C(=O)c2c([H])c([H])c(C([H])([H])N3C([H])([H])C([H])([H])N(C([H])([H])[H])C([H])([H])C3([H])[H])c(C(F)(F)F)c2[H])c([H])c([H])c1C([H])([H])[H]


 42 46  0  0  0  0  0  0  0  0999 V2000
   10.0413   21.2192    0.5795 C   0  0  0  0  0  0  0  0  0  0  0  0
    9.6675   20.7022   -0.4896 O   0  0  0  0  0  0  0  0  0  0  0  0
   11.3663   21.6256    0.7735 N   0  0  0  0  0  0  0  0  0  0  0  0
   11.5657   22.0611    1.7326 H   0  0  0  0  0  0  0  0  0  0  0  0
   12.4100   21.4998   -0.1692 C   0  0  0  0  0  0  0  0  0  0  0  0
   13.1291   20.3728   -0.4241 C   0  0  0  0  0  0  0  0  0  0  0  0
   14.1069   20.3645   -1.3923 C   0  0  0  0  0  0  0  0  0  0  0  0
   14.3869   21.4908   -2.1295 C   0  0  0  0  0  0  0  0  0  0  0  0
   15.4389   21.4797   -3.1697 C   0  0  0  0  0  0  0  0  0  0  0  0
   13.6760   22.6660   -1.9017 C   0  0  0  0  0  0  0  0  0  0  0  0
   12.7025   22.6467   -0.9268 C   0  0  0  0  0  0  0  0  0  0  0  0
   13.9912   23.7800   -2.6774 N   0  0  0  0  0  0  0  0  0  0  0  0
   13.7053   25.1370   -2.4711 C   0  0  0  0  0  0  0  0  0  0  0  0
   13.0786   25.5273   -1.4715 O   0  0  0  0  0  0  0  0  0  0  0  0
   14.5424   23.5951   -3.5863 H   0  0  0  0  0  0  0  0  0  0  0  0
   14.1424   26.1618   -3.4447 C   0  0  0  0  0  0  0  0  0  0  0  0
   13.3326   26.6837   -4.4315 C   0  0  0  0  0  0  0  0  0  0  0  0
   14.0524   27.5791   -5.1127 N   0  0  0  0  0  0  0  0  0  0  0  0
   15.2825   27.6350   -4.5868 C   0  0  0  0  0  0  0  0  0  0  0  0
   16.3952   28.3999   -4.9293 C   0  0  0  0  0  0  0  0  0  0  0  0
   17.5640   28.2692   -4.2183 C   0  0  0  0  0  0  0  0  0  0  0  0
   17.5787   27.3649   -3.1750 C   0  0  0  0  0  0  0  0  0  0  0  0
   16.4669   26.6173   -2.8518 C   0  0  0  0  0  0  0  0  0  0  0  0
   15.3303   26.7518   -3.5517 N   0  0  0  0  0  0  0  0  0  0  0  0
    7.0855   21.6430    3.6762 C   0  0  0  0  0  0  0  0  0  0  0  0
    6.7478   21.6880    2.3392 C   0  0  0  0  0  0  0  0  0  0  0  0
    7.6846   21.5562    1.3061 C   0  0  0  0  0  0  0  0  0  0  0  0
    9.0067   21.3720    1.6125 C   0  0  0  0  0  0  0  0  0  0  0  0
    9.3506   21.3252    2.9283 C   0  0  0  0  0  0  0  0  0  0  0  0
    8.4247   21.4559    3.9745 C   0  0  0  0  0  0  0  0  0  0  0  0
    8.8780   21.4035    5.3634 C   0  0  0  0  0  0  0  0  0  0  0  0
    8.7844   22.5816    6.0640 F   0  0  0  0  0  0  0  0  0  0  0  0
    8.3189   20.3449    6.0698 F   0  0  0  0  0  0  0  0  0  0  0  0
   10.2531   21.1133    5.3588 F   0  0  0  0  0  0  0  0  0  0  0  0
    6.0869   21.7358    4.7454 C   0  0  0  0  0  0  0  0  0  0  0  0
    5.3437   17.3739    5.8957 C   0  0  0  0  0  0  0  0  0  0  0  0
    5.6916   18.7184    5.5915 N   0  0  0  0  0  0  0  0  0  0  0  0
    5.9048   19.0234    4.2177 C   0  0  0  0  0  0  0  0  0  0  0  0
    4.9690   19.9847    3.6098 C   0  0  0  0  0  0  0  0  0  0  0  0
    4.8017   21.1778    4.4644 N   0  0  0  0  0  0  0  0  0  0  0  0
    4.1232   20.6146    5.6356 C   0  0  0  0  0  0  0  0  0  0  0  0
    5.0760   19.7392    6.3605 C   0  0  0  0  0  0  0  0  0  0  0  0
 36 37  1  0  0  0
 37 38  1  0  0  0
 38 39  1  0  0  0
 39 40  1  0  0  0
 40 35  1  0  0  0
 35 25  1  0  0  0
 25 26  2  0  0  0
 26 27  1  0  0  0
 27 28  2  0  0  0
 28 29  1  0  0  0
 29 30  2  0  0  0
 30 31  1  0  0  0
 31 32  1  0  0  0
 31 33  1  0  0  0
 31 34  1  0  0  0
 28  1  1  0  0  0
  1  2  2  0  0  0
  1  3  1  0  0  0
  3  5  1  0  0  0
  5  6  2  0  0  0
  6  7  1  0  0  0
  7  8  2  0  0  0
  8  9  1  0  0  0
  8 10  1  0  0  0
 10 12  1  0  0  0
 12 13  1  0  0  0
 13 14  2  0  0  0
 13 16  1  0  0  0
 16 17  2  0  0  0
 17 18  1  0  0  0
 18 19  2  0  0  0
 19 20  1  0  0  0
 20 21  2  0  0  0
 21 22  1  0  0  0
 22 23  2  0  0  0
 23 24  1  0  0  0
 10 11  2  0  0  0
 40 41  1  0  0  0
 41 42  1  0  0  0
 42 37  1  0  0  0
 30 25  1  0  0  0
 11  5  1  0  0  0
 24 16  1  0  0  0
 24 19  1  0  0  0
  3  4  1  0  0  0
 12 15  1  0  0  0
M  END
> <minimizedAffinity>
-5.68962

> <CNNscore>
0.1802653670

> <CNNaffinity>
6.7537398338

> <CNN_VS>
1.2174654007

> <CNNaffinity_variance>
0.2891549468

$$$$
[H]c1nc2c([H])c([H])c([H])c([H])n2c1C(=O)N([H])c1c([H])c(N([H])C(=O)c2c([H])c([H])c(C([H])([H])N3C([H])([H])C([H])([H])N(C([H])([H])[H])C([H])([H])C3([H])[H])c(C(F)(F)F)c2[H])c([H])c([H])c1C([H])([H])[H]


 42 46  0  0  0  0  0  0  0  0999 V2000
   11.6304   21.9656   -0.3573 C   0  0  0  0  0  0  0  0  0  0  0  0
   12.0579   21.6712   -1.4890 O   0  0  0  0  0  0  0  0  0  0  0  0
   12.4131   22.6750    0.5605 N   0  0  0  0  0  0  0  0  0  0  0  0
   11.9344   22.8732    1.4991 H   0  0  0  0  0  0  0  0  0  0  0  0
   13.7344   23.1216    0.3403 C   0  0  0  0  0  0  0  0  0  0  0  0
   14.8185   22.8300    1.1098 C   0  0  0  0  0  0  0  0  0  0  0  0
   16.0673   23.3015    0.7757 C   0  0  0  0  0  0  0  0  0  0  0  0
   16.2580   24.0795   -0.3417 C   0  0  0  0  0  0  0  0  0  0  0  0
   17.6016   24.5858   -0.6987 C   0  0  0  0  0  0  0  0  0  0  0  0
   15.1769   24.4028   -1.1572 C   0  0  0  0  0  0  0  0  0  0  0  0
   13.9378   23.9176   -0.8000 C   0  0  0  0  0  0  0  0  0  0  0  0
   15.4201   25.1890   -2.2818 N   0  0  0  0  0  0  0  0  0  0  0  0
   14.5520   26.0054   -3.0206 C   0  0  0  0  0  0  0  0  0  0  0  0
   13.3531   26.1266   -2.7165 O   0  0  0  0  0  0  0  0  0  0  0  0
   16.4289   25.1856   -2.6643 H   0  0  0  0  0  0  0  0  0  0  0  0
   15.0358   26.7578   -4.1991 C   0  0  0  0  0  0  0  0  0  0  0  0
   15.2779   28.1155   -4.2016 C   0  0  0  0  0  0  0  0  0  0  0  0
   15.7053   28.4470   -5.4229 N   0  0  0  0  0  0  0  0  0  0  0  0
   15.7386   27.3451   -6.1829 C   0  0  0  0  0  0  0  0  0  0  0  0
   16.1067   27.1564   -7.5131 C   0  0  0  0  0  0  0  0  0  0  0  0
   16.0517   25.9010   -8.0696 C   0  0  0  0  0  0  0  0  0  0  0  0
   15.6241   24.8640   -7.2644 C   0  0  0  0  0  0  0  0  0  0  0  0
   15.2641   25.0715   -5.9502 C   0  0  0  0  0  0  0  0  0  0  0  0
   15.3212   26.3006   -5.4157 N   0  0  0  0  0  0  0  0  0  0  0  0
    7.6145   20.6374    0.4267 C   0  0  0  0  0  0  0  0  0  0  0  0
    8.3507   21.3212    1.3723 C   0  0  0  0  0  0  0  0  0  0  0  0
    9.6607   21.7654    1.1512 C   0  0  0  0  0  0  0  0  0  0  0  0
   10.2619   21.5220   -0.0550 C   0  0  0  0  0  0  0  0  0  0  0  0
    9.5444   20.8491   -0.9952 C   0  0  0  0  0  0  0  0  0  0  0  0
    8.2321   20.3973   -0.7892 C   0  0  0  0  0  0  0  0  0  0  0  0
    7.5330   19.6726   -1.8491 C   0  0  0  0  0  0  0  0  0  0  0  0
    6.1938   19.9517   -1.9764 F   0  0  0  0  0  0  0  0  0  0  0  0
    8.1879   19.7495   -3.0727 F   0  0  0  0  0  0  0  0  0  0  0  0
    7.5715   18.3033   -1.5347 F   0  0  0  0  0  0  0  0  0  0  0  0
    6.2282   20.2202    0.6568 C   0  0  0  0  0  0  0  0  0  0  0  0
    4.3380   17.8775    4.0978 C   0  0  0  0  0  0  0  0  0  0  0  0
    4.9751   18.4942    2.9865 N   0  0  0  0  0  0  0  0  0  0  0  0
    4.1230   18.9693    1.9500 C   0  0  0  0  0  0  0  0  0  0  0  0
    4.1230   20.4243    1.7209 C   0  0  0  0  0  0  0  0  0  0  0  0
    5.5008   20.9513    1.6460 N   0  0  0  0  0  0  0  0  0  0  0  0
    5.9764   20.7422    3.0169 C   0  0  0  0  0  0  0  0  0  0  0  0
    6.1225   19.2850    3.2513 C   0  0  0  0  0  0  0  0  0  0  0  0
 36 37  1  0  0  0
 37 38  1  0  0  0
 38 39  1  0  0  0
 39 40  1  0  0  0
 40 35  1  0  0  0
 35 25  1  0  0  0
 25 26  2  0  0  0
 26 27  1  0  0  0
 27 28  2  0  0  0
 28 29  1  0  0  0
 29 30  2  0  0  0
 30 31  1  0  0  0
 31 32  1  0  0  0
 31 33  1  0  0  0
 31 34  1  0  0  0
 28  1  1  0  0  0
  1  2  2  0  0  0
  1  3  1  0  0  0
  3  5  1  0  0  0
  5  6  2  0  0  0
  6  7  1  0  0  0
  7  8  2  0  0  0
  8  9  1  0  0  0
  8 10  1  0  0  0
 10 12  1  0  0  0
 12 13  1  0  0  0
 13 14  2  0  0  0
 13 16  1  0  0  0
 16 17  2  0  0  0
 17 18  1  0  0  0
 18 19  2  0  0  0
 19 20  1  0  0  0
 20 21  2  0  0  0
 21 22  1  0  0  0
 22 23  2  0  0  0
 23 24  1  0  0  0
 10 11  2  0  0  0
 40 41  1  0  0  0
 41 42  1  0  0  0
 42 37  1  0  0  0
 30 25  1  0  0  0
 11  5  1  0  0  0
 24 16  1  0  0  0
 24 19  1  0  0  0
  3  4  1  0  0  0
 12 15  1  0  0  0
M  END
> <minimizedAffinity>
-4.88223

> <CNNscore>
0.1797630936

> <CNNaffinity>
6.9265112877

> <CNN_VS>
1.2451311350

> <CNNaffinity_variance>
0.1914835423

$$$$
[H]c1c(OC([H])([H])[H])c(OC([H])([H])[H])c(OC([H])([H])[H])c([H])c1C(=O)N1C([H])([H])C([H])([H])N(c2nc(N([H])[H])nc(N([H])[H])n2)C([H])([H])C1([H])[H]


 32 34  0  0  0  0  0  0  0  0999 V2000
   12.2653   24.9449    0.1809 C   0  0  0  0  0  0  0  0  0  0  0  0
   12.2718   26.0246    0.9306 O   0  0  0  0  0  0  0  0  0  0  0  0
   12.4190   25.1923   -1.1843 N   0  0  0  0  0  0  0  0  0  0  0  0
   12.4770   24.3122   -2.2932 C   0  0  0  0  0  0  0  0  0  0  0  0
   12.7951   25.0083   -3.6133 C   0  0  0  0  0  0  0  0  0  0  0  0
   13.7894   26.0361   -3.4380 N   0  0  0  0  0  0  0  0  0  0  0  0
   13.9330   26.7451   -2.1687 C   0  0  0  0  0  0  0  0  0  0  0  0
   12.5301   26.6350   -1.5474 C   0  0  0  0  0  0  0  0  0  0  0  0
   14.6457   26.3721   -4.5066 C   0  0  0  0  0  0  0  0  0  0  0  0
   15.3070   27.5554   -4.5643 N   0  0  0  0  0  0  0  0  0  0  0  0
   16.1219   27.9233   -5.5411 C   0  0  0  0  0  0  0  0  0  0  0  0
   16.7565   29.1850   -5.4913 N   0  0  0  0  0  0  0  0  0  0  0  0
   16.3259   27.0624   -6.5775 N   0  0  0  0  0  0  0  0  0  0  0  0
   15.6890   25.8789   -6.5584 C   0  0  0  0  0  0  0  0  0  0  0  0
   15.9346   25.0088   -7.6680 N   0  0  0  0  0  0  0  0  0  0  0  0
   14.8688   25.5368   -5.5519 N   0  0  0  0  0  0  0  0  0  0  0  0
   17.4094   29.3891   -4.7184 H   0  0  0  0  0  0  0  0  0  0  0  0
   16.5859   29.9114   -6.2073 H   0  0  0  0  0  0  0  0  0  0  0  0
   16.9504   24.8185   -7.8785 H   0  0  0  0  0  0  0  0  0  0  0  0
   15.1482   24.6105   -8.2064 H   0  0  0  0  0  0  0  0  0  0  0  0
   13.0003   21.5511    1.5556 C   0  0  0  0  0  0  0  0  0  0  0  0
   13.0857   22.7291    0.8646 C   0  0  0  0  0  0  0  0  0  0  0  0
   12.1013   23.7316    0.9239 C   0  0  0  0  0  0  0  0  0  0  0  0
   11.0415   23.4362    1.7334 C   0  0  0  0  0  0  0  0  0  0  0  0
   10.9333   22.2338    2.4514 C   0  0  0  0  0  0  0  0  0  0  0  0
   11.9165   21.2910    2.3605 C   0  0  0  0  0  0  0  0  0  0  0  0
   15.0775   20.7892    0.5977 C   0  0  0  0  0  0  0  0  0  0  0  0
   13.9813   20.5712    1.4861 O   0  0  0  0  0  0  0  0  0  0  0  0
    9.8270   22.0151    3.2475 O   0  0  0  0  0  0  0  0  0  0  0  0
    8.5649   21.6436    2.7371 C   0  0  0  0  0  0  0  0  0  0  0  0
   11.8342   20.0895    3.0620 O   0  0  0  0  0  0  0  0  0  0  0  0
   11.3658   20.0167    4.3930 C   0  0  0  0  0  0  0  0  0  0  0  0
 27 28  1  0  0  0
 28 21  1  0  0  0
 21 22  2  0  0  0
 22 23  1  0  0  0
 23 24  2  0  0  0
 24 25  1  0  0  0
 25 29  1  0  0  0
 29 30  1  0  0  0
 25 26  2  0  0  0
 26 31  1  0  0  0
 31 32  1  0  0  0
 23  1  1  0  0  0
  1  2  2  0  0  0
  1  3  1  0  0  0
  3  4  1  0  0  0
  4  5  1  0  0  0
  5  6  1  0  0  0
  6  7  1  0  0  0
  7  8  1  0  0  0
  6  9  1  0  0  0
  9 10  2  0  0  0
 10 11  1  0  0  0
 11 12  1  0  0  0
 11 13  2  0  0  0
 13 14  1  0  0  0
 14 15  1  0  0  0
 14 16  2  0  0  0
 26 21  1  0  0  0
  8  3  1  0  0  0
 16  9  1  0  0  0
 12 17  1  0  0  0
 12 18  1  0  0  0
 15 19  1  0  0  0
 15 20  1  0  0  0
M  END
> <minimizedAffinity>
0.68887

> <CNNscore>
0.5801697373

> <CNNaffinity>
6.6658048630

> <CNN_VS>
3.8672983646

> <CNNaffinity_variance>
0.9462517500

$$$$
[H]c1c(OC([H])([H])[H])c(OC([H])([H])[H])c(OC([H])([H])[H])c([H])c1C(=O)N1C([H])([H])C([H])([H])N(c2nc(N([H])[H])nc(N([H])[H])n2)C([H])([H])C1([H])[H]


 32 34  0  0  0  0  0  0  0  0999 V2000
   13.6770   24.7387   -2.2506 C   0  0  0  0  0  0  0  0  0  0  0  0
   12.7544   23.8060   -2.1693 O   0  0  0  0  0  0  0  0  0  0  0  0
   14.3920   24.9444   -1.0695 N   0  0  0  0  0  0  0  0  0  0  0  0
   15.4537   25.8307   -0.7616 C   0  0  0  0  0  0  0  0  0  0  0  0
   16.0394   25.6260    0.6325 C   0  0  0  0  0  0  0  0  0  0  0  0
   16.1311   24.2267    0.9627 N   0  0  0  0  0  0  0  0  0  0  0  0
   15.2063   23.2498    0.3926 C   0  0  0  0  0  0  0  0  0  0  0  0
   13.9593   24.0934    0.0769 C   0  0  0  0  0  0  0  0  0  0  0  0
   17.1296   23.7808    1.8527 C   0  0  0  0  0  0  0  0  0  0  0  0
   16.9944   22.6498    2.5899 N   0  0  0  0  0  0  0  0  0  0  0  0
   17.8972   22.1844    3.4395 C   0  0  0  0  0  0  0  0  0  0  0  0
   17.6434   20.9915    4.1536 N   0  0  0  0  0  0  0  0  0  0  0  0
   19.0583   22.8794    3.6009 N   0  0  0  0  0  0  0  0  0  0  0  0
   19.2315   24.0060    2.8885 C   0  0  0  0  0  0  0  0  0  0  0  0
   20.4661   24.7010    3.0919 N   0  0  0  0  0  0  0  0  0  0  0  0
   18.2951   24.4504    2.0350 N   0  0  0  0  0  0  0  0  0  0  0  0
   17.5170   20.1103    3.6312 H   0  0  0  0  0  0  0  0  0  0  0  0
   17.5805   20.9750    5.1856 H   0  0  0  0  0  0  0  0  0  0  0  0
   21.3380   24.1183    2.9799 H   0  0  0  0  0  0  0  0  0  0  0  0
   20.4691   25.7058    3.3312 H   0  0  0  0  0  0  0  0  0  0  0  0
   14.8021   25.4107   -5.7479 C   0  0  0  0  0  0  0  0  0  0  0  0
   14.6777   24.8787   -4.4933 C   0  0  0  0  0  0  0  0  0  0  0  0
   13.7582   25.3542   -3.5413 C   0  0  0  0  0  0  0  0  0  0  0  0
   12.9901   26.3992   -3.9697 C   0  0  0  0  0  0  0  0  0  0  0  0
   13.1011   26.9607   -5.2525 C   0  0  0  0  0  0  0  0  0  0  0  0
   14.0099   26.4632   -6.1415 C   0  0  0  0  0  0  0  0  0  0  0  0
   16.5635   23.8522   -6.2784 C   0  0  0  0  0  0  0  0  0  0  0  0
   15.7151   24.9295   -6.6763 O   0  0  0  0  0  0  0  0  0  0  0  0
   12.2850   28.0168   -5.6047 O   0  0  0  0  0  0  0  0  0  0  0  0
   11.2130   28.4689   -4.8062 C   0  0  0  0  0  0  0  0  0  0  0  0
   14.1407   27.0015   -7.4204 O   0  0  0  0  0  0  0  0  0  0  0  0
   15.2459   26.7199   -8.2545 C   0  0  0  0  0  0  0  0  0  0  0  0
 27 28  1  0  0  0
 28 21  1  0  0  0
 21 22  2  0  0  0
 22 23  1  0  0  0
 23 24  2  0  0  0
 24 25  1  0  0  0
 25 29  1  0  0  0
 29 30  1  0  0  0
 25 26  2  0  0  0
 26 31  1  0  0  0
 31 32  1  0  0  0
 23  1  1  0  0  0
  1  2  2  0  0  0
  1  3  1  0  0  0
  3  4  1  0  0  0
  4  5  1  0  0  0
  5  6  1  0  0  0
  6  7  1  0  0  0
  7  8  1  0  0  0
  6  9  1  0  0  0
  9 10  2  0  0  0
 10 11  1  0  0  0
 11 12  1  0  0  0
 11 13  2  0  0  0
 13 14  1  0  0  0
 14 15  1  0  0  0
 14 16  2  0  0  0
 26 21  1  0  0  0
  8  3  1  0  0  0
 16  9  1  0  0  0
 12 17  1  0  0  0
 12 18  1  0  0  0
 15 19  1  0  0  0
 15 20  1  0  0  0
M  END
> <minimizedAffinity>
43.70677

> <CNNscore>
0.4424794912

> <CNNaffinity>
6.1337032318

> <CNN_VS>
2.7140378952

> <CNNaffinity_variance>
0.9750145078

$$$$
[H]c1c(OC([H])([H])[H])c(OC([H])([H])[H])c(OC([H])([H])[H])c([H])c1C(=O)N1C([H])([H])C([H])([H])N(c2nc(N([H])[H])nc(N([H])[H])n2)C([H])([H])C1([H])[H]


 32 34  0  0  0  0  0  0  0  0999 V2000
   13.7691   26.2313   -3.4460 C   0  0  0  0  0  0  0  0  0  0  0  0
   12.9348   27.2016   -3.1456 O   0  0  0  0  0  0  0  0  0  0  0  0
   13.7781   25.1772   -2.5309 N   0  0  0  0  0  0  0  0  0  0  0  0
   14.5125   23.9658   -2.5074 C   0  0  0  0  0  0  0  0  0  0  0  0
   14.1075   23.0243   -1.3768 C   0  0  0  0  0  0  0  0  0  0  0  0
   12.6801   23.0223   -1.1818 N   0  0  0  0  0  0  0  0  0  0  0  0
   11.8683   24.1940   -1.5022 C   0  0  0  0  0  0  0  0  0  0  0  0
   12.8656   25.3571   -1.3645 C   0  0  0  0  0  0  0  0  0  0  0  0
   12.0442   21.8717   -0.6721 C   0  0  0  0  0  0  0  0  0  0  0  0
   12.5625   21.1474    0.3514 N   0  0  0  0  0  0  0  0  0  0  0  0
   12.0101   20.0610    0.8693 C   0  0  0  0  0  0  0  0  0  0  0  0
   12.6456   19.3886    1.9375 N   0  0  0  0  0  0  0  0  0  0  0  0
   10.8304   19.6196    0.3491 N   0  0  0  0  0  0  0  0  0  0  0  0
   10.2833   20.3094   -0.6665 C   0  0  0  0  0  0  0  0  0  0  0  0
    9.0448   19.8075   -1.1792 N   0  0  0  0  0  0  0  0  0  0  0  0
   10.8701   21.4078   -1.1686 N   0  0  0  0  0  0  0  0  0  0  0  0
   12.7806   19.8831    2.8334 H   0  0  0  0  0  0  0  0  0  0  0  0
   12.9800   18.4141    1.8484 H   0  0  0  0  0  0  0  0  0  0  0  0
    8.2888   19.6474   -0.4615 H   0  0  0  0  0  0  0  0  0  0  0  0
    8.9310   19.6245   -2.1894 H   0  0  0  0  0  0  0  0  0  0  0  0
   15.5837   28.0514   -6.1558 C   0  0  0  0  0  0  0  0  0  0  0  0
   14.8760   27.7628   -5.0207 C   0  0  0  0  0  0  0  0  0  0  0  0
   14.5001   26.4575   -4.6566 C   0  0  0  0  0  0  0  0  0  0  0  0
   14.9003   25.4888   -5.5325 C   0  0  0  0  0  0  0  0  0  0  0  0
   15.6270   25.7623   -6.7031 C   0  0  0  0  0  0  0  0  0  0  0  0
   15.9682   27.0474   -7.0128 C   0  0  0  0  0  0  0  0  0  0  0  0
   17.3255   29.6000   -6.7729 C   0  0  0  0  0  0  0  0  0  0  0  0
   15.9471   29.3460   -6.5009 O   0  0  0  0  0  0  0  0  0  0  0  0
   15.9919   24.7227   -7.5347 O   0  0  0  0  0  0  0  0  0  0  0  0
   15.4263   23.4322   -7.4575 C   0  0  0  0  0  0  0  0  0  0  0  0
   16.6887   27.3467   -8.1676 O   0  0  0  0  0  0  0  0  0  0  0  0
   16.5674   28.5831   -8.8406 C   0  0  0  0  0  0  0  0  0  0  0  0
 27 28  1  0  0  0
 28 21  1  0  0  0
 21 22  2  0  0  0
 22 23  1  0  0  0
 23 24  2  0  0  0
 24 25  1  0  0  0
 25 29  1  0  0  0
 29 30  1  0  0  0
 25 26  2  0  0  0
 26 31  1  0  0  0
 31 32  1  0  0  0
 23  1  1  0  0  0
  1  2  2  0  0  0
  1  3  1  0  0  0
  3  4  1  0  0  0
  4  5  1  0  0  0
  5  6  1  0  0  0
  6  7  1  0  0  0
  7  8  1  0  0  0
  6  9  1  0  0  0
  9 10  2  0  0  0
 10 11  1  0  0  0
 11 12  1  0  0  0
 11 13  2  0  0  0
 13 14  1  0  0  0
 14 15  1  0  0  0
 14 16  2  0  0  0
 26 21  1  0  0  0
  8  3  1  0  0  0
 16  9  1  0  0  0
 12 17  1  0  0  0
 12 18  1  0  0  0
 15 19  1  0  0  0
 15 20  1  0  0  0
M  END
> <minimizedAffinity>
14.18612

> <CNNscore>
0.4418211877

> <CNNaffinity>
6.3649191856

> <CNN_VS>
2.8121562004

> <CNNaffinity_variance>
0.6166344881

$$$$
[H]c1c(OC([H])([H])[H])c(OC([H])([H])[H])c(OC([H])([H])[H])c([H])c1C(=O)N1C([H])([H])C([H])([H])N(c2nc(N([H])[H])nc(N([H])[H])n2)C([H])([H])C1([H])[H]


 32 34  0  0  0  0  0  0  0  0999 V2000
   13.8703   23.8630   -2.4433 C   0  0  0  0  0  0  0  0  0  0  0  0
   14.4768   23.3848   -3.5069 O   0  0  0  0  0  0  0  0  0  0  0  0
   13.6039   25.2320   -2.5002 N   0  0  0  0  0  0  0  0  0  0  0  0
   12.9661   26.0995   -1.5794 C   0  0  0  0  0  0  0  0  0  0  0  0
   12.7626   27.5157   -2.1100 C   0  0  0  0  0  0  0  0  0  0  0  0
   12.3769   27.5054   -3.4981 N   0  0  0  0  0  0  0  0  0  0  0  0
   12.7900   26.4269   -4.3929 C   0  0  0  0  0  0  0  0  0  0  0  0
   14.0831   25.9088   -3.7405 C   0  0  0  0  0  0  0  0  0  0  0  0
   11.5852   28.5522   -4.0131 C   0  0  0  0  0  0  0  0  0  0  0  0
   11.8711   29.8592   -3.7872 N   0  0  0  0  0  0  0  0  0  0  0  0
   11.1646   30.8814   -4.2448 C   0  0  0  0  0  0  0  0  0  0  0  0
   11.5618   32.2036   -3.9427 N   0  0  0  0  0  0  0  0  0  0  0  0
   10.0619   30.6231   -5.0027 N   0  0  0  0  0  0  0  0  0  0  0  0
    9.7439   29.3407   -5.2498 C   0  0  0  0  0  0  0  0  0  0  0  0
    8.5779   29.1197   -6.0500 N   0  0  0  0  0  0  0  0  0  0  0  0
   10.4824   28.3271   -4.7702 N   0  0  0  0  0  0  0  0  0  0  0  0
   12.4776   32.5421   -4.2775 H   0  0  0  0  0  0  0  0  0  0  0  0
   10.9614   32.8432   -3.3953 H   0  0  0  0  0  0  0  0  0  0  0  0
    8.5554   29.6345   -6.9701 H   0  0  0  0  0  0  0  0  0  0  0  0
    7.8267   28.4922   -5.7201 H   0  0  0  0  0  0  0  0  0  0  0  0
   11.9665   21.4906   -0.2762 C   0  0  0  0  0  0  0  0  0  0  0  0
   12.2902   22.4380   -1.2090 C   0  0  0  0  0  0  0  0  0  0  0  0
   13.6067   22.8749   -1.4405 C   0  0  0  0  0  0  0  0  0  0  0  0
   14.5483   22.2742   -0.6543 C   0  0  0  0  0  0  0  0  0  0  0  0
   14.2386   21.3000    0.3091 C   0  0  0  0  0  0  0  0  0  0  0  0
   12.9440   20.9092    0.4964 C   0  0  0  0  0  0  0  0  0  0  0  0
    9.8036   20.9523   -1.1952 C   0  0  0  0  0  0  0  0  0  0  0  0
   10.6613   21.0703   -0.0598 O   0  0  0  0  0  0  0  0  0  0  0  0
   15.2525   20.7430    1.0624 O   0  0  0  0  0  0  0  0  0  0  0  0
   16.1294   19.7524    0.5715 C   0  0  0  0  0  0  0  0  0  0  0  0
   12.6090   19.9449    1.4452 O   0  0  0  0  0  0  0  0  0  0  0  0
   12.1315   20.2784    2.7325 C   0  0  0  0  0  0  0  0  0  0  0  0
 27 28  1  0  0  0
 28 21  1  0  0  0
 21 22  2  0  0  0
 22 23  1  0  0  0
 23 24  2  0  0  0
 24 25  1  0  0  0
 25 29  1  0  0  0
 29 30  1  0  0  0
 25 26  2  0  0  0
 26 31  1  0  0  0
 31 32  1  0  0  0
 23  1  1  0  0  0
  1  2  2  0  0  0
  1  3  1  0  0  0
  3  4  1  0  0  0
  4  5  1  0  0  0
  5  6  1  0  0  0
  6  7  1  0  0  0
  7  8  1  0  0  0
  6  9  1  0  0  0
  9 10  2  0  0  0
 10 11  1  0  0  0
 11 12  1  0  0  0
 11 13  2  0  0  0
 13 14  1  0  0  0
 14 15  1  0  0  0
 14 16  2  0  0  0
 26 21  1  0  0  0
  8  3  1  0  0  0
 16  9  1  0  0  0
 12 17  1  0  0  0
 12 18  1  0  0  0
 15 19  1  0  0  0
 15 20  1  0  0  0
M  END
> <minimizedAffinity>
11.71671

> <CNNscore>
0.4314232171

> <CNNaffinity>
6.0774860382

> <CNN_VS>
2.6219685078

> <CNNaffinity_variance>
0.6093152165

$$$$
[H]c1c(OC([H])([H])[H])c(OC([H])([H])[H])c(OC([H])([H])[H])c([H])c1C(=O)N1C([H])([H])C([H])([H])N(c2nc(N([H])[H])nc(N([H])[H])n2)C([H])([H])C1([H])[H]


 32 34  0  0  0  0  0  0  0  0999 V2000
   14.9665   23.0305   -3.0102 C   0  0  0  0  0  0  0  0  0  0  0  0
   14.8664   22.1965   -4.0213 O   0  0  0  0  0  0  0  0  0  0  0  0
   15.5857   24.2417   -3.3233 N   0  0  0  0  0  0  0  0  0  0  0  0
   15.8637   25.3822   -2.5300 C   0  0  0  0  0  0  0  0  0  0  0  0
   16.4407   26.5535   -3.3197 C   0  0  0  0  0  0  0  0  0  0  0  0
   15.7977   26.6891   -4.6018 N   0  0  0  0  0  0  0  0  0  0  0  0
   15.2285   25.5340   -5.2918 C   0  0  0  0  0  0  0  0  0  0  0  0
   16.0492   24.3573   -4.7367 C   0  0  0  0  0  0  0  0  0  0  0  0
   15.7109   27.9576   -5.2113 C   0  0  0  0  0  0  0  0  0  0  0  0
   14.9953   28.9763   -4.6718 N   0  0  0  0  0  0  0  0  0  0  0  0
   14.8789   30.1854   -5.1991 C   0  0  0  0  0  0  0  0  0  0  0  0
   14.1036   31.1682   -4.5431 N   0  0  0  0  0  0  0  0  0  0  0  0
   15.5187   30.4478   -6.3733 N   0  0  0  0  0  0  0  0  0  0  0  0
   16.2387   29.4648   -6.9408 C   0  0  0  0  0  0  0  0  0  0  0  0
   16.8922   29.7878   -8.1726 N   0  0  0  0  0  0  0  0  0  0  0  0
   16.3361   28.2490   -6.3794 N   0  0  0  0  0  0  0  0  0  0  0  0
   14.3842   31.4837   -3.6013 H   0  0  0  0  0  0  0  0  0  0  0  0
   13.2619   31.5814   -4.9793 H   0  0  0  0  0  0  0  0  0  0  0  0
   17.4967   30.6517   -8.1520 H   0  0  0  0  0  0  0  0  0  0  0  0
   16.7601   29.1945   -9.0078 H   0  0  0  0  0  0  0  0  0  0  0  0
   12.6967   22.6862   -0.0643 C   0  0  0  0  0  0  0  0  0  0  0  0
   13.2814   23.1258   -1.2208 C   0  0  0  0  0  0  0  0  0  0  0  0
   14.4165   22.5211   -1.7899 C   0  0  0  0  0  0  0  0  0  0  0  0
   14.8957   21.4492   -1.0922 C   0  0  0  0  0  0  0  0  0  0  0  0
   14.3117   20.9811    0.0965 C   0  0  0  0  0  0  0  0  0  0  0  0
   13.2097   21.6029    0.6092 C   0  0  0  0  0  0  0  0  0  0  0  0
   10.3361   23.1544   -0.2093 C   0  0  0  0  0  0  0  0  0  0  0  0
   11.5761   23.2946    0.4845 O   0  0  0  0  0  0  0  0  0  0  0  0
   14.8606   19.8898    0.7393 O   0  0  0  0  0  0  0  0  0  0  0  0
   15.9949   19.9710    1.5748 C   0  0  0  0  0  0  0  0  0  0  0  0
   12.6106   21.1593    1.7867 O   0  0  0  0  0  0  0  0  0  0  0  0
   11.5939   20.1781    1.7997 C   0  0  0  0  0  0  0  0  0  0  0  0
 27 28  1  0  0  0
 28 21  1  0  0  0
 21 22  2  0  0  0
 22 23  1  0  0  0
 23 24  2  0  0  0
 24 25  1  0  0  0
 25 29  1  0  0  0
 29 30  1  0  0  0
 25 26  2  0  0  0
 26 31  1  0  0  0
 31 32  1  0  0  0
 23  1  1  0  0  0
  1  2  2  0  0  0
  1  3  1  0  0  0
  3  4  1  0  0  0
  4  5  1  0  0  0
  5  6  1  0  0  0
  6  7  1  0  0  0
  7  8  1  0  0  0
  6  9  1  0  0  0
  9 10  2  0  0  0
 10 11  1  0  0  0
 11 12  1  0  0  0
 11 13  2  0  0  0
 13 14  1  0  0  0
 14 15  1  0  0  0
 14 16  2  0  0  0
 26 21  1  0  0  0
  8  3  1  0  0  0
 16  9  1  0  0  0
 12 17  1  0  0  0
 12 18  1  0  0  0
 15 19  1  0  0  0
 15 20  1  0  0  0
M  END
> <minimizedAffinity>
10.54152

> <CNNscore>
0.3978352845

> <CNNaffinity>
6.6770629883

> <CNN_VS>
2.6563713551

> <CNNaffinity_variance>
1.1390478611

$$$$
[H]c1c(OC([H])([H])[H])c(OC([H])([H])[H])c(OC([H])([H])[H])c([H])c1C(=O)N1C([H])([H])C([H])([H])N(c2nc(N([H])[H])nc(N([H])[H])n2)C([H])([H])C1([H])[H]


 32 34  0  0  0  0  0  0  0  0999 V2000
   14.3124   23.8773   -2.3934 C   0  0  0  0  0  0  0  0  0  0  0  0
   15.0771   22.8131   -2.2914 O   0  0  0  0  0  0  0  0  0  0  0  0
   13.0889   23.7716   -1.7297 N   0  0  0  0  0  0  0  0  0  0  0  0
   12.0171   24.6881   -1.5930 C   0  0  0  0  0  0  0  0  0  0  0  0
   10.9136   24.2068   -0.6555 C   0  0  0  0  0  0  0  0  0  0  0  0
   11.4597   23.5375    0.4975 N   0  0  0  0  0  0  0  0  0  0  0  0
   12.7404   22.8372    0.4331 C   0  0  0  0  0  0  0  0  0  0  0  0
   12.8579   22.4617   -1.0540 C   0  0  0  0  0  0  0  0  0  0  0  0
   10.7521   23.5525    1.7169 C   0  0  0  0  0  0  0  0  0  0  0  0
   10.1379   24.6669    2.1877 N   0  0  0  0  0  0  0  0  0  0  0  0
    9.4609   24.7387    3.3236 C   0  0  0  0  0  0  0  0  0  0  0  0
    8.8624   25.9590    3.7108 N   0  0  0  0  0  0  0  0  0  0  0  0
    9.3612   23.6190    4.0938 N   0  0  0  0  0  0  0  0  0  0  0  0
    9.9560   22.4933    3.6626 C   0  0  0  0  0  0  0  0  0  0  0  0
    9.8237   21.3438    4.5052 N   0  0  0  0  0  0  0  0  0  0  0  0
   10.6353   22.4546    2.5051 N   0  0  0  0  0  0  0  0  0  0  0  0
    8.1253   26.3684    3.1155 H   0  0  0  0  0  0  0  0  0  0  0  0
    9.1413   26.4549    4.5743 H   0  0  0  0  0  0  0  0  0  0  0  0
    8.8366   21.0950    4.7807 H   0  0  0  0  0  0  0  0  0  0  0  0
   10.6585   20.8151    4.8059 H   0  0  0  0  0  0  0  0  0  0  0  0
   15.0489   26.0835   -5.3155 C   0  0  0  0  0  0  0  0  0  0  0  0
   14.5402   25.0938   -4.5191 C   0  0  0  0  0  0  0  0  0  0  0  0
   14.8959   24.9310   -3.1683 C   0  0  0  0  0  0  0  0  0  0  0  0
   15.7980   25.8468   -2.7068 C   0  0  0  0  0  0  0  0  0  0  0  0
   16.3330   26.8703   -3.5063 C   0  0  0  0  0  0  0  0  0  0  0  0
   15.9557   26.9866   -4.8132 C   0  0  0  0  0  0  0  0  0  0  0  0
   15.5350   25.6443   -7.6358 C   0  0  0  0  0  0  0  0  0  0  0  0
   14.6873   26.2305   -6.6477 O   0  0  0  0  0  0  0  0  0  0  0  0
   17.2410   27.7550   -2.9599 O   0  0  0  0  0  0  0  0  0  0  0  0
   18.4536   28.1094   -3.5885 C   0  0  0  0  0  0  0  0  0  0  0  0
   16.4710   27.9926   -5.6286 O   0  0  0  0  0  0  0  0  0  0  0  0
   15.8209   29.2344   -5.8070 C   0  0  0  0  0  0  0  0  0  0  0  0
 27 28  1  0  0  0
 28 21  1  0  0  0
 21 22  2  0  0  0
 22 23  1  0  0  0
 23 24  2  0  0  0
 24 25  1  0  0  0
 25 29  1  0  0  0
 29 30  1  0  0  0
 25 26  2  0  0  0
 26 31  1  0  0  0
 31 32  1  0  0  0
 23  1  1  0  0  0
  1  2  2  0  0  0
  1  3  1  0  0  0
  3  4  1  0  0  0
  4  5  1  0  0  0
  5  6  1  0  0  0
  6  7  1  0  0  0
  7  8  1  0  0  0
  6  9  1  0  0  0
  9 10  2  0  0  0
 10 11  1  0  0  0
 11 12  1  0  0  0
 11 13  2  0  0  0
 13 14  1  0  0  0
 14 15  1  0  0  0
 14 16  2  0  0  0
 26 21  1  0  0  0
  8  3  1  0  0  0
 16  9  1  0  0  0
 12 17  1  0  0  0
 12 18  1  0  0  0
 15 19  1  0  0  0
 15 20  1  0  0  0
M  END
> <minimizedAffinity>
-6.88571

> <CNNscore>
0.3189263344

> <CNNaffinity>
6.4963712692

> <CNN_VS>
2.0718638897

> <CNNaffinity_variance>
0.1210858449

$$$$
[H]c1c(OC([H])([H])[H])c(OC([H])([H])[H])c(OC([H])([H])[H])c([H])c1C(=O)N1C([H])([H])C([H])([H])N(c2nc(N([H])[H])nc(N([H])[H])n2)C([H])([H])C1([H])[H]


 32 34  0  0  0  0  0  0  0  0999 V2000
   15.1966   23.8167   -2.4876 C   0  0  0  0  0  0  0  0  0  0  0  0
   16.4312   23.5655   -2.1129 O   0  0  0  0  0  0  0  0  0  0  0  0
   14.2310   23.0437   -1.8407 N   0  0  0  0  0  0  0  0  0  0  0  0
   12.8188   23.0252   -1.9534 C   0  0  0  0  0  0  0  0  0  0  0  0
   12.1346   22.1053   -0.9464 C   0  0  0  0  0  0  0  0  0  0  0  0
   12.7678   22.1786    0.3457 N   0  0  0  0  0  0  0  0  0  0  0  0
   14.1855   22.5058    0.4790 C   0  0  0  0  0  0  0  0  0  0  0  0
   14.7757   22.0529   -0.8674 C   0  0  0  0  0  0  0  0  0  0  0  0
   12.0132   21.9315    1.5108 C   0  0  0  0  0  0  0  0  0  0  0  0
   12.0255   20.7318    2.1444 N   0  0  0  0  0  0  0  0  0  0  0  0
   11.3385   20.4439    3.2392 C   0  0  0  0  0  0  0  0  0  0  0  0
   11.4317   19.1548    3.8107 N   0  0  0  0  0  0  0  0  0  0  0  0
   10.5526   21.4126    3.7880 N   0  0  0  0  0  0  0  0  0  0  0  0
   10.5126   22.6160    3.1904 C   0  0  0  0  0  0  0  0  0  0  0  0
    9.6737   23.6004    3.8033 N   0  0  0  0  0  0  0  0  0  0  0  0
   11.2222   22.8749    2.0803 N   0  0  0  0  0  0  0  0  0  0  0  0
   12.3447   18.8256    4.1620 H   0  0  0  0  0  0  0  0  0  0  0  0
   10.6111   18.5302    3.8875 H   0  0  0  0  0  0  0  0  0  0  0  0
    9.8422   23.7629    4.8316 H   0  0  0  0  0  0  0  0  0  0  0  0
    8.9604   24.1006    3.2483 H   0  0  0  0  0  0  0  0  0  0  0  0
   14.1545   26.9836   -4.1710 C   0  0  0  0  0  0  0  0  0  0  0  0
   14.2880   25.9660   -3.2659 C   0  0  0  0  0  0  0  0  0  0  0  0
   15.0971   24.8373   -3.4875 C   0  0  0  0  0  0  0  0  0  0  0  0
   15.7470   24.8346   -4.6889 C   0  0  0  0  0  0  0  0  0  0  0  0
   15.6244   25.8679   -5.6325 C   0  0  0  0  0  0  0  0  0  0  0  0
   14.8257   26.9436   -5.3702 C   0  0  0  0  0  0  0  0  0  0  0  0
   11.9405   27.9345   -4.0897 C   0  0  0  0  0  0  0  0  0  0  0  0
   13.3514   28.0914   -3.9367 O   0  0  0  0  0  0  0  0  0  0  0  0
   16.3170   25.7858   -6.8237 O   0  0  0  0  0  0  0  0  0  0  0  0
   16.2926   24.6484   -7.6587 C   0  0  0  0  0  0  0  0  0  0  0  0
   14.6862   27.9825   -6.2887 O   0  0  0  0  0  0  0  0  0  0  0  0
   15.6511   29.0044   -6.4333 C   0  0  0  0  0  0  0  0  0  0  0  0
 27 28  1  0  0  0
 28 21  1  0  0  0
 21 22  2  0  0  0
 22 23  1  0  0  0
 23 24  2  0  0  0
 24 25  1  0  0  0
 25 29  1  0  0  0
 29 30  1  0  0  0
 25 26  2  0  0  0
 26 31  1  0  0  0
 31 32  1  0  0  0
 23  1  1  0  0  0
  1  2  2  0  0  0
  1  3  1  0  0  0
  3  4  1  0  0  0
  4  5  1  0  0  0
  5  6  1  0  0  0
  6  7  1  0  0  0
  7  8  1  0  0  0
  6  9  1  0  0  0
  9 10  2  0  0  0
 10 11  1  0  0  0
 11 12  1  0  0  0
 11 13  2  0  0  0
 13 14  1  0  0  0
 14 15  1  0  0  0
 14 16  2  0  0  0
 26 21  1  0  0  0
  8  3  1  0  0  0
 16  9  1  0  0  0
 12 17  1  0  0  0
 12 18  1  0  0  0
 15 19  1  0  0  0
 15 20  1  0  0  0
M  END
> <minimizedAffinity>
1.07389

> <CNNscore>
0.3034387231

> <CNNaffinity>
6.4306054115

> <CNN_VS>
1.9512946606

> <CNNaffinity_variance>
0.4499551654

$$$$
[H]c1c(OC([H])([H])[H])c(OC([H])([H])[H])c(OC([H])([H])[H])c([H])c1C(=O)N1C([H])([H])C([H])([H])N(c2nc(N([H])[H])nc(N([H])[H])n2)C([H])([H])C1([H])[H]


 32 34  0  0  0  0  0  0  0  0999 V2000
   13.2242   21.6850   -1.1098 C   0  0  0  0  0  0  0  0  0  0  0  0
   13.8640   20.5694   -1.3820 O   0  0  0  0  0  0  0  0  0  0  0  0
   13.8727   22.8409   -1.5477 N   0  0  0  0  0  0  0  0  0  0  0  0
   13.5084   24.2074   -1.4604 C   0  0  0  0  0  0  0  0  0  0  0  0
   14.4578   25.1443   -2.2015 C   0  0  0  0  0  0  0  0  0  0  0  0
   14.8832   24.5759   -3.4551 N   0  0  0  0  0  0  0  0  0  0  0  0
   14.9662   23.1295   -3.6437 C   0  0  0  0  0  0  0  0  0  0  0  0
   15.1858   22.6038   -2.2148 C   0  0  0  0  0  0  0  0  0  0  0  0
   15.2284   25.4236   -4.5276 C   0  0  0  0  0  0  0  0  0  0  0  0
   15.5648   26.7255   -4.3464 N   0  0  0  0  0  0  0  0  0  0  0  0
   15.8970   27.5660   -5.3143 C   0  0  0  0  0  0  0  0  0  0  0  0
   16.2293   28.9036   -5.0023 N   0  0  0  0  0  0  0  0  0  0  0  0
   15.9083   27.1087   -6.5980 N   0  0  0  0  0  0  0  0  0  0  0  0
   15.5810   25.8241   -6.8204 C   0  0  0  0  0  0  0  0  0  0  0  0
   15.6072   25.3903   -8.1841 N   0  0  0  0  0  0  0  0  0  0  0  0
   15.2487   24.9980   -5.8155 N   0  0  0  0  0  0  0  0  0  0  0  0
   17.0497   29.0915   -4.4048 H   0  0  0  0  0  0  0  0  0  0  0  0
   15.6740   29.7015   -5.3552 H   0  0  0  0  0  0  0  0  0  0  0  0
   16.5043   25.5832   -8.7039 H   0  0  0  0  0  0  0  0  0  0  0  0
   14.7862   24.9228   -8.6016 H   0  0  0  0  0  0  0  0  0  0  0  0
   10.5404   22.0799    1.4573 C   0  0  0  0  0  0  0  0  0  0  0  0
   11.7047   22.2138    0.7509 C   0  0  0  0  0  0  0  0  0  0  0  0
   11.9874   21.4824   -0.4166 C   0  0  0  0  0  0  0  0  0  0  0  0
   10.9996   20.6187   -0.7958 C   0  0  0  0  0  0  0  0  0  0  0  0
    9.7973   20.4652   -0.0859 C   0  0  0  0  0  0  0  0  0  0  0  0
    9.5699   21.1988    1.0427 C   0  0  0  0  0  0  0  0  0  0  0  0
    9.9488   24.1914    2.4596 C   0  0  0  0  0  0  0  0  0  0  0  0
   10.2767   22.8097    2.6084 O   0  0  0  0  0  0  0  0  0  0  0  0
    8.8506   19.5684   -0.5390 O   0  0  0  0  0  0  0  0  0  0  0  0
    7.9080   19.8762   -1.5430 C   0  0  0  0  0  0  0  0  0  0  0  0
    8.3859   21.0661    1.7659 O   0  0  0  0  0  0  0  0  0  0  0  0
    7.2300   21.8262    1.4785 C   0  0  0  0  0  0  0  0  0  0  0  0
 27 28  1  0  0  0
 28 21  1  0  0  0
 21 22  2  0  0  0
 22 23  1  0  0  0
 23 24  2  0  0  0
 24 25  1  0  0  0
 25 29  1  0  0  0
 29 30  1  0  0  0
 25 26  2  0  0  0
 26 31  1  0  0  0
 31 32  1  0  0  0
 23  1  1  0  0  0
  1  2  2  0  0  0
  1  3  1  0  0  0
  3  4  1  0  0  0
  4  5  1  0  0  0
  5  6  1  0  0  0
  6  7  1  0  0  0
  7  8  1  0  0  0
  6  9  1  0  0  0
  9 10  2  0  0  0
 10 11  1  0  0  0
 11 12  1  0  0  0
 11 13  2  0  0  0
 13 14  1  0  0  0
 14 15  1  0  0  0
 14 16  2  0  0  0
 26 21  1  0  0  0
  8  3  1  0  0  0
 16  9  1  0  0  0
 12 17  1  0  0  0
 12 18  1  0  0  0
 15 19  1  0  0  0
 15 20  1  0  0  0
M  END
> <minimizedAffinity>
-7.96079

> <CNNscore>
0.1943888217

> <CNNaffinity>
6.4636855125

> <CNN_VS>
1.2564681768

> <CNNaffinity_variance>
0.4494203925

$$$$
[H]c1c(OC([H])([H])[H])c(OC([H])([H])[H])c(OC([H])([H])[H])c([H])c1C(=O)N1C([H])([H])C([H])([H])N(c2nc(N([H])[H])nc(N([H])[H])n2)C([H])([H])C1([H])[H]


 32 34  0  0  0  0  0  0  0  0999 V2000
   13.2359   21.7678   -1.1025 C   0  0  0  0  0  0  0  0  0  0  0  0
   13.7729   20.6237   -1.4640 O   0  0  0  0  0  0  0  0  0  0  0  0
   13.9336   22.8943   -1.5415 N   0  0  0  0  0  0  0  0  0  0  0  0
   13.6758   24.2775   -1.3746 C   0  0  0  0  0  0  0  0  0  0  0  0
   14.6357   25.1783   -2.1464 C   0  0  0  0  0  0  0  0  0  0  0  0
   14.9298   24.6375   -3.4489 N   0  0  0  0  0  0  0  0  0  0  0  0
   14.8950   23.1985   -3.6992 C   0  0  0  0  0  0  0  0  0  0  0  0
   15.1761   22.5966   -2.3117 C   0  0  0  0  0  0  0  0  0  0  0  0
   15.2590   25.5056   -4.5100 C   0  0  0  0  0  0  0  0  0  0  0  0
   15.2973   25.0932   -5.8020 N   0  0  0  0  0  0  0  0  0  0  0  0
   15.5992   25.8628   -6.8365 C   0  0  0  0  0  0  0  0  0  0  0  0
   15.6063   25.3189   -8.1407 N   0  0  0  0  0  0  0  0  0  0  0  0
   15.8976   27.1727   -6.6080 N   0  0  0  0  0  0  0  0  0  0  0  0
   15.8710   27.6213   -5.3412 C   0  0  0  0  0  0  0  0  0  0  0  0
   16.1913   29.0033   -5.1513 N   0  0  0  0  0  0  0  0  0  0  0  0
   15.5605   26.8137   -4.3145 N   0  0  0  0  0  0  0  0  0  0  0  0
   14.7288   24.9433   -8.5335 H   0  0  0  0  0  0  0  0  0  0  0  0
   16.4660   25.2858   -8.7146 H   0  0  0  0  0  0  0  0  0  0  0  0
   15.6380   29.6818   -5.7392 H   0  0  0  0  0  0  0  0  0  0  0  0
   16.9207   29.2847   -4.4761 H   0  0  0  0  0  0  0  0  0  0  0  0
    9.8831   20.5130   -0.0381 C   0  0  0  0  0  0  0  0  0  0  0  0
   11.0448   20.7128   -0.7332 C   0  0  0  0  0  0  0  0  0  0  0  0
   12.0396   21.6209   -0.3289 C   0  0  0  0  0  0  0  0  0  0  0  0
   11.7545   22.2956    0.8239 C   0  0  0  0  0  0  0  0  0  0  0  0
   10.5689   22.1065    1.5531 C   0  0  0  0  0  0  0  0  0  0  0  0
    9.6330   21.2125    1.1188 C   0  0  0  0  0  0  0  0  0  0  0  0
    8.0896   19.9815   -1.5591 C   0  0  0  0  0  0  0  0  0  0  0  0
    8.9108   19.6124   -0.4509 O   0  0  0  0  0  0  0  0  0  0  0  0
   10.3597   22.8308    2.7095 O   0  0  0  0  0  0  0  0  0  0  0  0
    9.8335   24.1401    2.7205 C   0  0  0  0  0  0  0  0  0  0  0  0
    8.4482   21.0054    1.8231 O   0  0  0  0  0  0  0  0  0  0  0  0
    7.2800   21.7638    1.5854 C   0  0  0  0  0  0  0  0  0  0  0  0
 27 28  1  0  0  0
 28 21  1  0  0  0
 21 22  2  0  0  0
 22 23  1  0  0  0
 23 24  2  0  0  0
 24 25  1  0  0  0
 25 29  1  0  0  0
 29 30  1  0  0  0
 25 26  2  0  0  0
 26 31  1  0  0  0
 31 32  1  0  0  0
 23  1  1  0  0  0
  1  2  2  0  0  0
  1  3  1  0  0  0
  3  4  1  0  0  0
  4  5  1  0  0  0
  5  6  1  0  0  0
  6  7  1  0  0  0
  7  8  1  0  0  0
  6  9  1  0  0  0
  9 10  2  0  0  0
 10 11  1  0  0  0
 11 12  1  0  0  0
 11 13  2  0  0  0
 13 14  1  0  0  0
 14 15  1  0  0  0
 14 16  2  0  0  0
 26 21  1  0  0  0
  8  3  1  0  0  0
 16  9  1  0  0  0
 12 17  1  0  0  0
 12 18  1  0  0  0
 15 19  1  0  0  0
 15 20  1  0  0  0
M  END
> <minimizedAffinity>
-7.91179

> <CNNscore>
0.1934373081

> <CNNaffinity>
6.4722199440

> <CNN_VS>
1.2519688606

> <CNNaffinity_variance>
0.4338362813

$$$$
[H]OC(=O)[C@]1([H])O[C@]([H])([C@@]([H])(O[C@@]2([H])OC(C(=O)N([H])[C@]3([H])[C@]([H])(O[H])[C@]([H])(O[H])[C@]3([H])O[H])=C([H])[C@]([H])(O[H])[C@]2([H])O[H])n2c([H])c([H])c(=O)n([H])c2=O)[C@@]([H])(OC([H])([H])[H])[C@@]1([H])O[H]


 48 51  0  0  0  0  0  0  0  0999 V2000
   11.7964   23.2848   -1.1969 O   0  0  0  0  0  0  0  0  0  0  0  0
   11.3247   22.6023   -0.0730 C   0  0  0  0  0  0  0  0  0  0  0  0
   10.7241   23.5400    0.7855 O   0  0  0  0  0  0  0  0  0  0  0  0
    9.5357   23.3794    1.4587 C   0  0  0  0  0  0  0  0  0  0  0  0
    8.5941   22.6490    0.8855 C   0  0  0  0  0  0  0  0  0  0  0  0
    8.9448   22.0732   -0.4558 C   0  0  0  0  0  0  0  0  0  0  0  0
    8.0776   21.0349   -0.7899 O   0  0  0  0  0  0  0  0  0  0  0  0
   10.3561   21.5240   -0.4116 C   0  0  0  0  0  0  0  0  0  0  0  0
   10.4508   20.5432    0.5969 O   0  0  0  0  0  0  0  0  0  0  0  0
    8.5299   20.1704   -0.6428 H   0  0  0  0  0  0  0  0  0  0  0  0
   10.9893   20.8606    1.3650 H   0  0  0  0  0  0  0  0  0  0  0  0
    9.2780   23.9783    2.7665 C   0  0  0  0  0  0  0  0  0  0  0  0
    9.6370   23.3142    3.7914 O   0  0  0  0  0  0  0  0  0  0  0  0
    8.6597   25.2386    2.9513 N   0  0  0  0  0  0  0  0  0  0  0  0
    8.3550   25.8062    2.1495 H   0  0  0  0  0  0  0  0  0  0  0  0
    8.4387   25.7639    4.2669 C   0  0  0  0  0  0  0  0  0  0  0  0
    7.1134   25.3584    4.8959 C   0  0  0  0  0  0  0  0  0  0  0  0
    6.1521   25.0906    3.8954 O   0  0  0  0  0  0  0  0  0  0  0  0
    6.9934   26.7728    5.4249 C   0  0  0  0  0  0  0  0  0  0  0  0
    5.7253   27.3334    5.3292 O   0  0  0  0  0  0  0  0  0  0  0  0
    7.9280   27.2038    4.2899 C   0  0  0  0  0  0  0  0  0  0  0  0
    7.2583   27.5813    3.1266 O   0  0  0  0  0  0  0  0  0  0  0  0
    5.5584   24.3788    4.2449 H   0  0  0  0  0  0  0  0  0  0  0  0
    5.1587   26.9278    6.0131 H   0  0  0  0  0  0  0  0  0  0  0  0
    6.4766   28.1127    3.4044 H   0  0  0  0  0  0  0  0  0  0  0  0
   13.1300   23.6636   -1.0626 C   0  0  0  0  0  0  0  0  0  0  0  0
   13.8521   22.5660   -0.5041 N   0  0  0  0  0  0  0  0  0  0  0  0
   13.7500   21.3413   -1.0366 C   0  0  0  0  0  0  0  0  0  0  0  0
   14.4294   20.2801   -0.5205 C   0  0  0  0  0  0  0  0  0  0  0  0
   15.2405   20.4683    0.5735 C   0  0  0  0  0  0  0  0  0  0  0  0
   15.8934   19.5138    1.0906 O   0  0  0  0  0  0  0  0  0  0  0  0
   15.3465   21.6995    1.1129 N   0  0  0  0  0  0  0  0  0  0  0  0
   14.6512   22.7204    0.5635 C   0  0  0  0  0  0  0  0  0  0  0  0
   14.8034   23.8520    1.1291 O   0  0  0  0  0  0  0  0  0  0  0  0
   15.9683   21.8217    1.9442 H   0  0  0  0  0  0  0  0  0  0  0  0
   15.1461   24.4917   -2.3200 C   0  0  0  0  0  0  0  0  0  0  0  0
   15.2491   25.6743   -3.2938 C   0  0  0  0  0  0  0  0  0  0  0  0
   16.1785   25.4546   -4.2807 O   0  0  0  0  0  0  0  0  0  0  0  0
   13.8490   25.7241   -3.8732 C   0  0  0  0  0  0  0  0  0  0  0  0
   13.0706   25.3397   -2.7850 O   0  0  0  0  0  0  0  0  0  0  0  0
   13.6996   24.1875   -2.3515 C   0  0  0  0  0  0  0  0  0  0  0  0
   15.9091   25.8438   -5.1554 H   0  0  0  0  0  0  0  0  0  0  0  0
   13.5010   27.0521   -4.3828 C   0  0  0  0  0  0  0  0  0  0  0  0
   14.4493   27.8087   -5.0364 O   0  0  0  0  0  0  0  0  0  0  0  0
   12.3476   27.5254   -4.2384 O   0  0  0  0  0  0  0  0  0  0  0  0
   14.3592   28.1791   -5.9682 H   0  0  0  0  0  0  0  0  0  0  0  0
   15.1289   22.6789   -3.7560 C   0  0  0  0  0  0  0  0  0  0  0  0
   15.8798   23.4604   -2.9006 O   0  0  0  0  0  0  0  0  0  0  0  0
 47 48  1  0  0  0
 48 36  1  0  0  0
 36 37  1  0  0  0
 37 38  1  0  0  0
 37 39  1  0  0  0
 39 40  1  0  0  0
 40 41  1  0  0  0
 41 26  1  0  0  0
 26  1  1  0  0  0
  1  2  1  0  0  0
  2  3  1  0  0  0
  3  4  1  0  0  0
  4  5  2  0  0  0
  5  6  1  0  0  0
  6  7  1  0  0  0
  6  8  1  0  0  0
  8  9  1  0  0  0
  4 12  1  0  0  0
 12 13  2  0  0  0
 12 14  1  0  0  0
 14 16  1  0  0  0
 16 17  1  0  0  0
 17 18  1  0  0  0
 17 19  1  0  0  0
 19 20  1  0  0  0
 19 21  1  0  0  0
 21 22  1  0  0  0
 26 27  1  0  0  0
 27 28  1  0  0  0
 28 29  2  0  0  0
 29 30  1  0  0  0
 30 31  2  0  0  0
 30 32  1  0  0  0
 32 33  1  0  0  0
 33 34  2  0  0  0
 39 43  1  0  0  0
 43 44  1  0  0  0
 43 45  2  0  0  0
 41 36  1  0  0  0
  8  2  1  0  0  0
 21 16  1  0  0  0
 33 27  1  0  0  0
 38 42  1  0  0  0
  7 10  1  0  0  0
  9 11  1  0  0  0
 14 15  1  0  0  0
 18 23  1  0  0  0
 20 24  1  0  0  0
 22 25  1  0  0  0
 32 35  1  0  0  0
 44 46  1  0  0  0
M  END
> <minimizedAffinity>
-6.67116

> <CNNscore>
0.7538635731

> <CNNaffinity>
6.6129713058

> <CNN_VS>
4.9852781296

> <CNNaffinity_variance>
0.2491016090

$$$$
[H]OC(=O)[C@]1([H])O[C@]([H])([C@@]([H])(O[C@@]2([H])OC(C(=O)N([H])[C@]3([H])[C@]([H])(O[H])[C@]([H])(O[H])[C@]3([H])O[H])=C([H])[C@]([H])(O[H])[C@]2([H])O[H])n2c([H])c([H])c(=O)n([H])c2=O)[C@@]([H])(OC([H])([H])[H])[C@@]1([H])O[H]


 48 51  0  0  0  0  0  0  0  0999 V2000
   12.0953   23.1527   -1.8947 O   0  0  0  0  0  0  0  0  0  0  0  0
   11.6754   22.8070   -0.6080 C   0  0  0  0  0  0  0  0  0  0  0  0
   10.3786   23.3173   -0.4214 O   0  0  0  0  0  0  0  0  0  0  0  0
    9.3241   22.6586    0.1664 C   0  0  0  0  0  0  0  0  0  0  0  0
    9.2585   21.3455    0.0241 C   0  0  0  0  0  0  0  0  0  0  0  0
   10.3649   20.7227   -0.7770 C   0  0  0  0  0  0  0  0  0  0  0  0
   10.4278   19.3496   -0.5486 O   0  0  0  0  0  0  0  0  0  0  0  0
   11.6873   21.3382   -0.3676 C   0  0  0  0  0  0  0  0  0  0  0  0
   11.8938   21.1407    1.0133 O   0  0  0  0  0  0  0  0  0  0  0  0
   11.1759   19.1535    0.0640 H   0  0  0  0  0  0  0  0  0  0  0  0
   11.8114   21.9881    1.5191 H   0  0  0  0  0  0  0  0  0  0  0  0
    8.2869   23.3467    0.9319 C   0  0  0  0  0  0  0  0  0  0  0  0
    7.1537   22.7738    1.0220 O   0  0  0  0  0  0  0  0  0  0  0  0
    8.4724   24.5975    1.5690 N   0  0  0  0  0  0  0  0  0  0  0  0
    9.3726   25.0929    1.5201 H   0  0  0  0  0  0  0  0  0  0  0  0
    7.4073   25.2139    2.3044 C   0  0  0  0  0  0  0  0  0  0  0  0
    7.7852   26.5175    2.9932 C   0  0  0  0  0  0  0  0  0  0  0  0
    9.1678   26.5407    3.2843 O   0  0  0  0  0  0  0  0  0  0  0  0
    6.9686   26.0618    4.1850 C   0  0  0  0  0  0  0  0  0  0  0  0
    7.5458   26.3079    5.4251 O   0  0  0  0  0  0  0  0  0  0  0  0
    7.1835   24.6255    3.6967 C   0  0  0  0  0  0  0  0  0  0  0  0
    8.3143   24.0143    4.2369 O   0  0  0  0  0  0  0  0  0  0  0  0
    9.4638   27.4836    3.2178 H   0  0  0  0  0  0  0  0  0  0  0  0
    7.4673   27.2623    5.6154 H   0  0  0  0  0  0  0  0  0  0  0  0
    8.3492   24.2645    5.1891 H   0  0  0  0  0  0  0  0  0  0  0  0
   13.4663   23.3908   -1.9558 C   0  0  0  0  0  0  0  0  0  0  0  0
   13.7031   24.3864   -2.9511 N   0  0  0  0  0  0  0  0  0  0  0  0
   14.7259   24.2647   -3.8072 C   0  0  0  0  0  0  0  0  0  0  0  0
   14.9704   25.2018   -4.7643 C   0  0  0  0  0  0  0  0  0  0  0  0
   14.1487   26.3002   -4.8559 C   0  0  0  0  0  0  0  0  0  0  0  0
   14.3337   27.1996   -5.7286 O   0  0  0  0  0  0  0  0  0  0  0  0
   13.1177   26.4270   -3.9962 N   0  0  0  0  0  0  0  0  0  0  0  0
   12.9172   25.4690   -3.0637 C   0  0  0  0  0  0  0  0  0  0  0  0
   11.9238   25.6600   -2.2890 O   0  0  0  0  0  0  0  0  0  0  0  0
   12.5046   27.2692   -4.0824 H   0  0  0  0  0  0  0  0  0  0  0  0
   14.6151   25.0732   -0.4788 C   0  0  0  0  0  0  0  0  0  0  0  0
   15.7608   24.8488    0.5184 C   0  0  0  0  0  0  0  0  0  0  0  0
   15.6858   25.6982    1.5950 O   0  0  0  0  0  0  0  0  0  0  0  0
   15.5250   23.4137    0.9467 C   0  0  0  0  0  0  0  0  0  0  0  0
   15.0393   22.8376   -0.2238 O   0  0  0  0  0  0  0  0  0  0  0  0
   14.0425   23.7161   -0.6057 C   0  0  0  0  0  0  0  0  0  0  0  0
   15.9859   25.2721    2.4420 H   0  0  0  0  0  0  0  0  0  0  0  0
   16.7446   22.7681    1.4368 C   0  0  0  0  0  0  0  0  0  0  0  0
   16.6919   21.4833    1.9317 O   0  0  0  0  0  0  0  0  0  0  0  0
   17.8504   23.3614    1.4177 O   0  0  0  0  0  0  0  0  0  0  0  0
   17.2342   20.7052    1.5939 H   0  0  0  0  0  0  0  0  0  0  0  0
   12.6507   25.2645    0.7266 C   0  0  0  0  0  0  0  0  0  0  0  0
   13.7210   25.9281    0.1605 O   0  0  0  0  0  0  0  0  0  0  0  0
 47 48  1  0  0  0
 48 36  1  0  0  0
 36 37  1  0  0  0
 37 38  1  0  0  0
 37 39  1  0  0  0
 39 40  1  0  0  0
 40 41  1  0  0  0
 41 26  1  0  0  0
 26  1  1  0  0  0
  1  2  1  0  0  0
  2  3  1  0  0  0
  3  4  1  0  0  0
  4  5  2  0  0  0
  5  6  1  0  0  0
  6  7  1  0  0  0
  6  8  1  0  0  0
  8  9  1  0  0  0
  4 12  1  0  0  0
 12 13  2  0  0  0
 12 14  1  0  0  0
 14 16  1  0  0  0
 16 17  1  0  0  0
 17 18  1  0  0  0
 17 19  1  0  0  0
 19 20  1  0  0  0
 19 21  1  0  0  0
 21 22  1  0  0  0
 26 27  1  0  0  0
 27 28  1  0  0  0
 28 29  2  0  0  0
 29 30  1  0  0  0
 30 31  2  0  0  0
 30 32  1  0  0  0
 32 33  1  0  0  0
 33 34  2  0  0  0
 39 43  1  0  0  0
 43 44  1  0  0  0
 43 45  2  0  0  0
 41 36  1  0  0  0
  8  2  1  0  0  0
 21 16  1  0  0  0
 33 27  1  0  0  0
 38 42  1  0  0  0
  7 10  1  0  0  0
  9 11  1  0  0  0
 14 15  1  0  0  0
 18 23  1  0  0  0
 20 24  1  0  0  0
 22 25  1  0  0  0
 32 35  1  0  0  0
 44 46  1  0  0  0
M  END
> <minimizedAffinity>
-3.49216

> <CNNscore>
0.4700121582

> <CNNaffinity>
5.9454674721

> <CNN_VS>
2.7944419384

> <CNNaffinity_variance>
0.8495818377

$$$$
[H]OC(=O)[C@]1([H])O[C@]([H])([C@@]([H])(O[C@@]2([H])OC(C(=O)N([H])[C@]3([H])[C@]([H])(O[H])[C@]([H])(O[H])[C@]3([H])O[H])=C([H])[C@]([H])(O[H])[C@]2([H])O[H])n2c([H])c([H])c(=O)n([H])c2=O)[C@@]([H])(OC([H])([H])[H])[C@@]1([H])O[H]


 48 51  0  0  0  0  0  0  0  0999 V2000
   13.9273   21.9718    1.8810 O   0  0  0  0  0  0  0  0  0  0  0  0
   14.8011   22.0760    0.7961 C   0  0  0  0  0  0  0  0  0  0  0  0
   14.2008   22.9045   -0.1684 O   0  0  0  0  0  0  0  0  0  0  0  0
   14.8245   23.8983   -0.8858 C   0  0  0  0  0  0  0  0  0  0  0  0
   15.8124   24.5555   -0.3021 C   0  0  0  0  0  0  0  0  0  0  0  0
   16.1387   24.1276    1.0994 C   0  0  0  0  0  0  0  0  0  0  0  0
   17.3998   24.5858    1.4750 O   0  0  0  0  0  0  0  0  0  0  0  0
   16.1361   22.6144    1.1744 C   0  0  0  0  0  0  0  0  0  0  0  0
   17.0734   22.0937    0.2587 O   0  0  0  0  0  0  0  0  0  0  0  0
   18.0466   23.8424    1.4250 H   0  0  0  0  0  0  0  0  0  0  0  0
   16.6280   21.6471   -0.5047 H   0  0  0  0  0  0  0  0  0  0  0  0
   14.4408   24.2508   -2.2510 C   0  0  0  0  0  0  0  0  0  0  0  0
   13.7825   23.3849   -2.9123 O   0  0  0  0  0  0  0  0  0  0  0  0
   14.7573   25.4853   -2.8680 N   0  0  0  0  0  0  0  0  0  0  0  0
   15.2875   26.2112   -2.3680 H   0  0  0  0  0  0  0  0  0  0  0  0
   14.3470   25.7621   -4.2135 C   0  0  0  0  0  0  0  0  0  0  0  0
   15.1387   25.0215   -5.2817 C   0  0  0  0  0  0  0  0  0  0  0  0
   16.4381   24.7204   -4.8151 O   0  0  0  0  0  0  0  0  0  0  0  0
   15.1184   26.2943   -6.1028 C   0  0  0  0  0  0  0  0  0  0  0  0
   16.3149   26.6071   -6.7370 O   0  0  0  0  0  0  0  0  0  0  0  0
   14.9172   27.0574   -4.7895 C   0  0  0  0  0  0  0  0  0  0  0  0
   16.1089   27.4625   -4.1896 O   0  0  0  0  0  0  0  0  0  0  0  0
   16.7073   23.8644   -5.2346 H   0  0  0  0  0  0  0  0  0  0  0  0
   16.4247   26.0050   -7.4977 H   0  0  0  0  0  0  0  0  0  0  0  0
   16.6977   27.7869   -4.9098 H   0  0  0  0  0  0  0  0  0  0  0  0
   12.6682   21.5124    1.5018 C   0  0  0  0  0  0  0  0  0  0  0  0
   12.1995   20.6129    2.5063 N   0  0  0  0  0  0  0  0  0  0  0  0
   12.0052   19.3180    2.2247 C   0  0  0  0  0  0  0  0  0  0  0  0
   11.5587   18.4423    3.1670 C   0  0  0  0  0  0  0  0  0  0  0  0
   11.3008   18.8962    4.4388 C   0  0  0  0  0  0  0  0  0  0  0  0
   10.8844   18.1219    5.3508 O   0  0  0  0  0  0  0  0  0  0  0  0
   11.4950   20.1990    4.7269 N   0  0  0  0  0  0  0  0  0  0  0  0
   11.9395   21.0282    3.7562 C   0  0  0  0  0  0  0  0  0  0  0  0
   12.0981   22.2432    4.1057 O   0  0  0  0  0  0  0  0  0  0  0  0
   11.2932   20.5243    5.6997 H   0  0  0  0  0  0  0  0  0  0  0  0
   10.3220   22.2412    0.9582 C   0  0  0  0  0  0  0  0  0  0  0  0
    9.8557   23.2839   -0.0680 C   0  0  0  0  0  0  0  0  0  0  0  0
    8.7144   23.9335    0.3339 O   0  0  0  0  0  0  0  0  0  0  0  0
   11.0346   24.2366   -0.1022 C   0  0  0  0  0  0  0  0  0  0  0  0
   12.1107   23.3739    0.0861 O   0  0  0  0  0  0  0  0  0  0  0  0
   11.7253   22.6423    1.1940 C   0  0  0  0  0  0  0  0  0  0  0  0
    8.7001   24.8895    0.0603 H   0  0  0  0  0  0  0  0  0  0  0  0
   11.1149   24.9829   -1.3596 C   0  0  0  0  0  0  0  0  0  0  0  0
   10.2073   24.7348   -2.3663 O   0  0  0  0  0  0  0  0  0  0  0  0
   11.9994   25.8533   -1.5471 O   0  0  0  0  0  0  0  0  0  0  0  0
    9.6054   25.4209   -2.7913 H   0  0  0  0  0  0  0  0  0  0  0  0
    8.4514   21.6251    2.1707 C   0  0  0  0  0  0  0  0  0  0  0  0
    9.5487   22.4597    2.0954 O   0  0  0  0  0  0  0  0  0  0  0  0
 47 48  1  0  0  0
 48 36  1  0  0  0
 36 37  1  0  0  0
 37 38  1  0  0  0
 37 39  1  0  0  0
 39 40  1  0  0  0
 40 41  1  0  0  0
 41 26  1  0  0  0
 26  1  1  0  0  0
  1  2  1  0  0  0
  2  3  1  0  0  0
  3  4  1  0  0  0
  4  5  2  0  0  0
  5  6  1  0  0  0
  6  7  1  0  0  0
  6  8  1  0  0  0
  8  9  1  0  0  0
  4 12  1  0  0  0
 12 13  2  0  0  0
 12 14  1  0  0  0
 14 16  1  0  0  0
 16 17  1  0  0  0
 17 18  1  0  0  0
 17 19  1  0  0  0
 19 20  1  0  0  0
 19 21  1  0  0  0
 21 22  1  0  0  0
 26 27  1  0  0  0
 27 28  1  0  0  0
 28 29  2  0  0  0
 29 30  1  0  0  0
 30 31  2  0  0  0
 30 32  1  0  0  0
 32 33  1  0  0  0
 33 34  2  0  0  0
 39 43  1  0  0  0
 43 44  1  0  0  0
 43 45  2  0  0  0
 41 36  1  0  0  0
  8  2  1  0  0  0
 21 16  1  0  0  0
 33 27  1  0  0  0
 38 42  1  0  0  0
  7 10  1  0  0  0
  9 11  1  0  0  0
 14 15  1  0  0  0
 18 23  1  0  0  0
 20 24  1  0  0  0
 22 25  1  0  0  0
 32 35  1  0  0  0
 44 46  1  0  0  0
M  END
> <minimizedAffinity>
0.66012

> <CNNscore>
0.4306885600

> <CNNaffinity>
5.8883733749

> <CNN_VS>
2.5360550880

> <CNNaffinity_variance>
1.6966249943

$$$$
[H]OC(=O)[C@]1([H])O[C@]([H])([C@@]([H])(O[C@@]2([H])OC(C(=O)N([H])[C@]3([H])[C@]([H])(O[H])[C@]([H])(O[H])[C@]3([H])O[H])=C([H])[C@]([H])(O[H])[C@]2([H])O[H])n2c([H])c([H])c(=O)n([H])c2=O)[C@@]([H])(OC([H])([H])[H])[C@@]1([H])O[H]


 48 51  0  0  0  0  0  0  0  0999 V2000
   12.4674   23.9844   -1.4097 O   0  0  0  0  0  0  0  0  0  0  0  0
   12.0688   23.1079   -0.3976 C   0  0  0  0  0  0  0  0  0  0  0  0
   11.3419   23.8441    0.5546 O   0  0  0  0  0  0  0  0  0  0  0  0
   10.1734   23.4515    1.1642 C   0  0  0  0  0  0  0  0  0  0  0  0
    9.3401   22.6919    0.4732 C   0  0  0  0  0  0  0  0  0  0  0  0
    9.7808   22.3442   -0.9192 C   0  0  0  0  0  0  0  0  0  0  0  0
    9.0568   21.2597   -1.4102 O   0  0  0  0  0  0  0  0  0  0  0  0
   11.2493   21.9721   -0.9014 C   0  0  0  0  0  0  0  0  0  0  0  0
   11.4520   20.8870   -0.0242 O   0  0  0  0  0  0  0  0  0  0  0  0
    9.6123   20.4458   -1.3608 H   0  0  0  0  0  0  0  0  0  0  0  0
   11.9346   21.1651    0.7946 H   0  0  0  0  0  0  0  0  0  0  0  0
    9.8225   23.8379    2.5292 C   0  0  0  0  0  0  0  0  0  0  0  0
   10.0343   22.9831    3.4483 O   0  0  0  0  0  0  0  0  0  0  0  0
    9.2682   25.0931    2.8783 N   0  0  0  0  0  0  0  0  0  0  0  0
    9.0818   25.8109    2.1655 H   0  0  0  0  0  0  0  0  0  0  0  0
    8.9484   25.4029    4.2411 C   0  0  0  0  0  0  0  0  0  0  0  0
    7.5382   25.0168    4.6638 C   0  0  0  0  0  0  0  0  0  0  0  0
    6.6709   25.0122    3.5483 O   0  0  0  0  0  0  0  0  0  0  0  0
    7.4663   26.3245    5.4250 C   0  0  0  0  0  0  0  0  0  0  0  0
    6.2595   27.0053    5.3165 O   0  0  0  0  0  0  0  0  0  0  0  0
    8.5443   26.8577    4.4756 C   0  0  0  0  0  0  0  0  0  0  0  0
    8.0303   27.4878    3.3430 O   0  0  0  0  0  0  0  0  0  0  0  0
    5.9935   24.3076    3.7088 H   0  0  0  0  0  0  0  0  0  0  0  0
    5.5960   26.5412    5.8620 H   0  0  0  0  0  0  0  0  0  0  0  0
    7.2644   28.0320    3.6393 H   0  0  0  0  0  0  0  0  0  0  0  0
   13.5665   23.5060   -2.1191 C   0  0  0  0  0  0  0  0  0  0  0  0
   13.9286   24.4833   -3.0946 N   0  0  0  0  0  0  0  0  0  0  0  0
   14.9076   24.2375   -3.9749 C   0  0  0  0  0  0  0  0  0  0  0  0
   15.2697   25.1548   -4.9137 C   0  0  0  0  0  0  0  0  0  0  0  0
   14.6156   26.3631   -4.9610 C   0  0  0  0  0  0  0  0  0  0  0  0
   14.9148   27.2495   -5.8151 O   0  0  0  0  0  0  0  0  0  0  0  0
   13.6293   26.6151   -4.0768 N   0  0  0  0  0  0  0  0  0  0  0  0
   13.3074   25.6714   -3.1640 C   0  0  0  0  0  0  0  0  0  0  0  0
   12.3662   25.9836   -2.3638 O   0  0  0  0  0  0  0  0  0  0  0  0
   13.1444   27.5396   -4.1293 H   0  0  0  0  0  0  0  0  0  0  0  0
   14.2758   22.3557    0.0035 C   0  0  0  0  0  0  0  0  0  0  0  0
   15.3282   22.8006    1.0291 C   0  0  0  0  0  0  0  0  0  0  0  0
   15.9583   21.7343    1.6223 O   0  0  0  0  0  0  0  0  0  0  0  0
   16.2951   23.5847    0.1636 C   0  0  0  0  0  0  0  0  0  0  0  0
   15.4423   24.1682   -0.7691 O   0  0  0  0  0  0  0  0  0  0  0  0
   14.6897   23.0949   -1.2081 C   0  0  0  0  0  0  0  0  0  0  0  0
   16.9181   21.9125    1.8122 H   0  0  0  0  0  0  0  0  0  0  0  0
   17.0611   24.5693    0.9307 C   0  0  0  0  0  0  0  0  0  0  0  0
   16.5026   25.7922    1.2324 O   0  0  0  0  0  0  0  0  0  0  0  0
   18.2273   24.3257    1.3255 O   0  0  0  0  0  0  0  0  0  0  0  0
   16.3918   26.1704    2.1589 H   0  0  0  0  0  0  0  0  0  0  0  0
   14.5797   20.6156   -1.4893 C   0  0  0  0  0  0  0  0  0  0  0  0
   14.4681   20.9868   -0.1642 O   0  0  0  0  0  0  0  0  0  0  0  0
 47 48  1  0  0  0
 48 36  1  0  0  0
 36 37  1  0  0  0
 37 38  1  0  0  0
 37 39  1  0  0  0
 39 40  1  0  0  0
 40 41  1  0  0  0
 41 26  1  0  0  0
 26  1  1  0  0  0
  1  2  1  0  0  0
  2  3  1  0  0  0
  3  4  1  0  0  0
  4  5  2  0  0  0
  5  6  1  0  0  0
  6  7  1  0  0  0
  6  8  1  0  0  0
  8  9  1  0  0  0
  4 12  1  0  0  0
 12 13  2  0  0  0
 12 14  1  0  0  0
 14 16  1  0  0  0
 16 17  1  0  0  0
 17 18  1  0  0  0
 17 19  1  0  0  0
 19 20  1  0  0  0
 19 21  1  0  0  0
 21 22  1  0  0  0
 26 27  1  0  0  0
 27 28  1  0  0  0
 28 29  2  0  0  0
 29 30  1  0  0  0
 30 31  2  0  0  0
 30 32  1  0  0  0
 32 33  1  0  0  0
 33 34  2  0  0  0
 39 43  1  0  0  0
 43 44  1  0  0  0
 43 45  2  0  0  0
 41 36  1  0  0  0
  8  2  1  0  0  0
 21 16  1  0  0  0
 33 27  1  0  0  0
 38 42  1  0  0  0
  7 10  1  0  0  0
  9 11  1  0  0  0
 14 15  1  0  0  0
 18 23  1  0  0  0
 20 24  1  0  0  0
 22 25  1  0  0  0
 32 35  1  0  0  0
 44 46  1  0  0  0
M  END
> <minimizedAffinity>
-5.99597

> <CNNscore>
0.4294585586

> <CNNaffinity>
5.9517464638

> <CNN_VS>
2.5560283661

> <CNNaffinity_variance>
0.7599049807

$$$$
[H]OC(=O)[C@]1([H])O[C@]([H])([C@@]([H])(O[C@@]2([H])OC(C(=O)N([H])[C@]3([H])[C@]([H])(O[H])[C@]([H])(O[H])[C@]3([H])O[H])=C([H])[C@]([H])(O[H])[C@]2([H])O[H])n2c([H])c([H])c(=O)n([H])c2=O)[C@@]([H])(OC([H])([H])[H])[C@@]1([H])O[H]


 48 51  0  0  0  0  0  0  0  0999 V2000
   12.3084   23.8000   -1.9700 O   0  0  0  0  0  0  0  0  0  0  0  0
   11.9870   22.9808   -0.8850 C   0  0  0  0  0  0  0  0  0  0  0  0
   11.3239   23.7678    0.0732 O   0  0  0  0  0  0  0  0  0  0  0  0
   10.2033   23.4075    0.7843 C   0  0  0  0  0  0  0  0  0  0  0  0
    9.3285   22.6084    0.1970 C   0  0  0  0  0  0  0  0  0  0  0  0
    9.6729   22.1839   -1.2012 C   0  0  0  0  0  0  0  0  0  0  0  0
    8.9231   21.0718   -1.5788 O   0  0  0  0  0  0  0  0  0  0  0  0
   11.1413   21.8167   -1.2657 C   0  0  0  0  0  0  0  0  0  0  0  0
   11.4116   20.7831   -0.3455 O   0  0  0  0  0  0  0  0  0  0  0  0
    9.4857   20.2632   -1.5230 H   0  0  0  0  0  0  0  0  0  0  0  0
   11.9485   21.1079    0.4205 H   0  0  0  0  0  0  0  0  0  0  0  0
    9.9464   23.8692    2.1467 C   0  0  0  0  0  0  0  0  0  0  0  0
   10.3422   23.1223    3.0985 O   0  0  0  0  0  0  0  0  0  0  0  0
    9.2906   25.0845    2.4597 N   0  0  0  0  0  0  0  0  0  0  0  0
    8.9555   25.7159    1.7200 H   0  0  0  0  0  0  0  0  0  0  0  0
    9.0729   25.4734    3.8223 C   0  0  0  0  0  0  0  0  0  0  0  0
    7.8031   24.9116    4.4457 C   0  0  0  0  0  0  0  0  0  0  0  0
    6.8332   24.6580    3.4499 O   0  0  0  0  0  0  0  0  0  0  0  0
    7.5932   26.2604    5.1026 C   0  0  0  0  0  0  0  0  0  0  0  0
    6.2838   26.7260    5.0899 O   0  0  0  0  0  0  0  0  0  0  0  0
    8.4554   26.8613    3.9876 C   0  0  0  0  0  0  0  0  0  0  0  0
    7.7218   27.2856    2.8804 O   0  0  0  0  0  0  0  0  0  0  0  0
    6.3068   23.8739    3.7488 H   0  0  0  0  0  0  0  0  0  0  0  0
    5.7720   26.2187    5.7486 H   0  0  0  0  0  0  0  0  0  0  0  0
    6.9114   27.7276    3.2245 H   0  0  0  0  0  0  0  0  0  0  0  0
   13.6686   23.7701   -2.2685 C   0  0  0  0  0  0  0  0  0  0  0  0
   13.9297   24.7605   -3.2630 N   0  0  0  0  0  0  0  0  0  0  0  0
   13.3073   25.9459   -3.2243 C   0  0  0  0  0  0  0  0  0  0  0  0
   13.5409   26.9050   -4.1621 C   0  0  0  0  0  0  0  0  0  0  0  0
   14.4368   26.6527   -5.1739 C   0  0  0  0  0  0  0  0  0  0  0  0
   14.6889   27.5118   -6.0700 O   0  0  0  0  0  0  0  0  0  0  0  0
   15.0657   25.4608   -5.2169 N   0  0  0  0  0  0  0  0  0  0  0  0
   14.7991   24.5416   -4.2621 C   0  0  0  0  0  0  0  0  0  0  0  0
   15.4324   23.4413   -4.3709 O   0  0  0  0  0  0  0  0  0  0  0  0
   15.7432   25.2886   -5.9941 H   0  0  0  0  0  0  0  0  0  0  0  0
   15.9169   24.3096   -1.2757 C   0  0  0  0  0  0  0  0  0  0  0  0
   16.6702   23.5786   -0.1552 C   0  0  0  0  0  0  0  0  0  0  0  0
   17.4368   24.4332    0.5984 O   0  0  0  0  0  0  0  0  0  0  0  0
   15.5305   23.0096    0.6671 C   0  0  0  0  0  0  0  0  0  0  0  0
   14.5847   22.7164   -0.3113 O   0  0  0  0  0  0  0  0  0  0  0  0
   14.5191   23.8927   -1.0348 C   0  0  0  0  0  0  0  0  0  0  0  0
   17.4647   24.1781    1.5593 H   0  0  0  0  0  0  0  0  0  0  0  0
   15.9322   21.8342    1.4427 C   0  0  0  0  0  0  0  0  0  0  0  0
   15.1561   20.6959    1.4188 O   0  0  0  0  0  0  0  0  0  0  0  0
   16.9775   21.8361    2.1372 O   0  0  0  0  0  0  0  0  0  0  0  0
   15.4737   19.7788    1.1513 H   0  0  0  0  0  0  0  0  0  0  0  0
   16.8051   26.3222   -1.9894 C   0  0  0  0  0  0  0  0  0  0  0  0
   16.0785   25.6678   -1.0146 O   0  0  0  0  0  0  0  0  0  0  0  0
 47 48  1  0  0  0
 48 36  1  0  0  0
 36 37  1  0  0  0
 37 38  1  0  0  0
 37 39  1  0  0  0
 39 40  1  0  0  0
 40 41  1  0  0  0
 41 26  1  0  0  0
 26  1  1  0  0  0
  1  2  1  0  0  0
  2  3  1  0  0  0
  3  4  1  0  0  0
  4  5  2  0  0  0
  5  6  1  0  0  0
  6  7  1  0  0  0
  6  8  1  0  0  0
  8  9  1  0  0  0
  4 12  1  0  0  0
 12 13  2  0  0  0
 12 14  1  0  0  0
 14 16  1  0  0  0
 16 17  1  0  0  0
 17 18  1  0  0  0
 17 19  1  0  0  0
 19 20  1  0  0  0
 19 21  1  0  0  0
 21 22  1  0  0  0
 26 27  1  0  0  0
 27 28  1  0  0  0
 28 29  2  0  0  0
 29 30  1  0  0  0
 30 31  2  0  0  0
 30 32  1  0  0  0
 32 33  1  0  0  0
 33 34  2  0  0  0
 39 43  1  0  0  0
 43 44  1  0  0  0
 43 45  2  0  0  0
 41 36  1  0  0  0
  8  2  1  0  0  0
 21 16  1  0  0  0
 33 27  1  0  0  0
 38 42  1  0  0  0
  7 10  1  0  0  0
  9 11  1  0  0  0
 14 15  1  0  0  0
 18 23  1  0  0  0
 20 24  1  0  0  0
 22 25  1  0  0  0
 32 35  1  0  0  0
 44 46  1  0  0  0
M  END
> <minimizedAffinity>
-5.87861

> <CNNscore>
0.4169175029

> <CNNaffinity>
5.9941005707

> <CNN_VS>
2.4990453720

> <CNNaffinity_variance>
0.5924150348

$$$$
[H]OC(=O)[C@]1([H])O[C@]([H])([C@@]([H])(O[C@@]2([H])OC(C(=O)N([H])[C@]3([H])[C@]([H])(O[H])[C@]([H])(O[H])[C@]3([H])O[H])=C([H])[C@]([H])(O[H])[C@]2([H])O[H])n2c([H])c([H])c(=O)n([H])c2=O)[C@@]([H])(OC([H])([H])[H])[C@@]1([H])O[H]


 48 51  0  0  0  0  0  0  0  0999 V2000
   11.0581   22.6230   -0.9868 O   0  0  0  0  0  0  0  0  0  0  0  0
   12.3512   23.1233   -0.8163 C   0  0  0  0  0  0  0  0  0  0  0  0
   12.7709   23.6715   -2.0412 O   0  0  0  0  0  0  0  0  0  0  0  0
   13.4356   24.8633   -2.2115 C   0  0  0  0  0  0  0  0  0  0  0  0
   13.1753   25.8435   -1.3628 C   0  0  0  0  0  0  0  0  0  0  0  0
   12.1665   25.5287   -0.2965 C   0  0  0  0  0  0  0  0  0  0  0  0
   12.2469   26.4489    0.7467 O   0  0  0  0  0  0  0  0  0  0  0  0
   12.4412   24.1469    0.2606 C   0  0  0  0  0  0  0  0  0  0  0  0
   13.7519   24.0972    0.7780 O   0  0  0  0  0  0  0  0  0  0  0  0
   12.7237   26.0403    1.5078 H   0  0  0  0  0  0  0  0  0  0  0  0
   14.3455   23.5396    0.2146 H   0  0  0  0  0  0  0  0  0  0  0  0
   14.4059   25.0841   -3.2816 C   0  0  0  0  0  0  0  0  0  0  0  0
   14.7426   24.0740   -3.9792 O   0  0  0  0  0  0  0  0  0  0  0  0
   14.9826   26.3426   -3.5793 N   0  0  0  0  0  0  0  0  0  0  0  0
   14.7372   27.1831   -3.0395 H   0  0  0  0  0  0  0  0  0  0  0  0
   15.9297   26.4842   -4.6462 C   0  0  0  0  0  0  0  0  0  0  0  0
   16.4304   27.9049   -4.8637 C   0  0  0  0  0  0  0  0  0  0  0  0
   15.4655   28.8416   -4.4297 O   0  0  0  0  0  0  0  0  0  0  0  0
   16.3361   27.6523   -6.3544 C   0  0  0  0  0  0  0  0  0  0  0  0
   15.8138   28.7028   -7.0995 O   0  0  0  0  0  0  0  0  0  0  0  0
   15.3010   26.5684   -6.0363 C   0  0  0  0  0  0  0  0  0  0  0  0
   13.9868   27.0342   -6.0314 O   0  0  0  0  0  0  0  0  0  0  0  0
   15.9579   29.6315   -4.0912 H   0  0  0  0  0  0  0  0  0  0  0  0
   16.4939   29.4003   -7.1641 H   0  0  0  0  0  0  0  0  0  0  0  0
   13.8969   27.6493   -6.7956 H   0  0  0  0  0  0  0  0  0  0  0  0
   10.9733   21.2663   -0.6828 C   0  0  0  0  0  0  0  0  0  0  0  0
   12.2576   20.8262   -0.2416 N   0  0  0  0  0  0  0  0  0  0  0  0
   12.5374   20.7423    1.0655 C   0  0  0  0  0  0  0  0  0  0  0  0
   13.7554   20.3252    1.5090 C   0  0  0  0  0  0  0  0  0  0  0  0
   14.7226   19.9811    0.5945 C   0  0  0  0  0  0  0  0  0  0  0  0
   15.8709   19.5871    0.9560 O   0  0  0  0  0  0  0  0  0  0  0  0
   14.4454   20.0639   -0.7224 N   0  0  0  0  0  0  0  0  0  0  0  0
   13.2209   20.4840   -1.1117 C   0  0  0  0  0  0  0  0  0  0  0  0
   13.0358   20.5355   -2.3714 O   0  0  0  0  0  0  0  0  0  0  0  0
   15.1942   19.7978   -1.4015 H   0  0  0  0  0  0  0  0  0  0  0  0
    8.5571   20.6468   -0.3511 C   0  0  0  0  0  0  0  0  0  0  0  0
    7.5541   21.2104    0.6656 C   0  0  0  0  0  0  0  0  0  0  0  0
    6.6362   20.2703    1.0651 O   0  0  0  0  0  0  0  0  0  0  0  0
    8.4617   21.6003    1.8158 C   0  0  0  0  0  0  0  0  0  0  0  0
    9.6110   22.0174    1.1502 O   0  0  0  0  0  0  0  0  0  0  0  0
    9.8547   20.9729    0.2780 C   0  0  0  0  0  0  0  0  0  0  0  0
    6.3789   20.3666    2.0209 H   0  0  0  0  0  0  0  0  0  0  0  0
    7.8791   22.6466    2.6586 C   0  0  0  0  0  0  0  0  0  0  0  0
    8.6855   23.6272    3.1943 O   0  0  0  0  0  0  0  0  0  0  0  0
    6.6497   22.6743    2.9092 O   0  0  0  0  0  0  0  0  0  0  0  0
    8.5638   24.6181    3.0643 H   0  0  0  0  0  0  0  0  0  0  0  0
    7.6135   18.8465   -1.4543 C   0  0  0  0  0  0  0  0  0  0  0  0
    8.3474   19.2703   -0.3642 O   0  0  0  0  0  0  0  0  0  0  0  0
 47 48  1  0  0  0
 48 36  1  0  0  0
 36 37  1  0  0  0
 37 38  1  0  0  0
 37 39  1  0  0  0
 39 40  1  0  0  0
 40 41  1  0  0  0
 41 26  1  0  0  0
 26  1  1  0  0  0
  1  2  1  0  0  0
  2  3  1  0  0  0
  3  4  1  0  0  0
  4  5  2  0  0  0
  5  6  1  0  0  0
  6  7  1  0  0  0
  6  8  1  0  0  0
  8  9  1  0  0  0
  4 12  1  0  0  0
 12 13  2  0  0  0
 12 14  1  0  0  0
 14 16  1  0  0  0
 16 17  1  0  0  0
 17 18  1  0  0  0
 17 19  1  0  0  0
 19 20  1  0  0  0
 19 21  1  0  0  0
 21 22  1  0  0  0
 26 27  1  0  0  0
 27 28  1  0  0  0
 28 29  2  0  0  0
 29 30  1  0  0  0
 30 31  2  0  0  0
 30 32  1  0  0  0
 32 33  1  0  0  0
 33 34  2  0  0  0
 39 43  1  0  0  0
 43 44  1  0  0  0
 43 45  2  0  0  0
 41 36  1  0  0  0
  8  2  1  0  0  0
 21 16  1  0  0  0
 33 27  1  0  0  0
 38 42  1  0  0  0
  7 10  1  0  0  0
  9 11  1  0  0  0
 14 15  1  0  0  0
 18 23  1  0  0  0
 20 24  1  0  0  0
 22 25  1  0  0  0
 32 35  1  0  0  0
 44 46  1  0  0  0
M  END
> <minimizedAffinity>
-4.91651

> <CNNscore>
0.4133507609

> <CNNaffinity>
6.1555395126

> <CNN_VS>
2.5443968773

> <CNNaffinity_variance>
0.1812982708

$$$$
[H]OC(=O)[C@]1([H])O[C@]([H])([C@@]([H])(O[C@@]2([H])OC(C(=O)N([H])[C@]3([H])[C@]([H])(O[H])[C@]([H])(O[H])[C@]3([H])O[H])=C([H])[C@]([H])(O[H])[C@]2([H])O[H])n2c([H])c([H])c(=O)n([H])c2=O)[C@@]([H])(OC([H])([H])[H])[C@@]1([H])O[H]


 48 51  0  0  0  0  0  0  0  0999 V2000
   11.3389   23.9997   -0.6527 O   0  0  0  0  0  0  0  0  0  0  0  0
   12.0468   24.1749   -1.8442 C   0  0  0  0  0  0  0  0  0  0  0  0
   11.9160   25.5193   -2.2346 O   0  0  0  0  0  0  0  0  0  0  0  0
   12.9203   26.3256   -2.7169 C   0  0  0  0  0  0  0  0  0  0  0  0
   14.1473   26.1203   -2.2686 C   0  0  0  0  0  0  0  0  0  0  0  0
   14.2965   25.0103   -1.2688 C   0  0  0  0  0  0  0  0  0  0  0  0
   15.6301   24.6225   -1.1564 O   0  0  0  0  0  0  0  0  0  0  0  0
   13.4858   23.8141   -1.7240 C   0  0  0  0  0  0  0  0  0  0  0  0
   13.9235   23.4037   -3.0000 O   0  0  0  0  0  0  0  0  0  0  0  0
   15.7693   23.7810   -1.6524 H   0  0  0  0  0  0  0  0  0  0  0  0
   13.2517   23.6067   -3.6987 H   0  0  0  0  0  0  0  0  0  0  0  0
   12.6850   27.3872   -3.6931 C   0  0  0  0  0  0  0  0  0  0  0  0
   13.1626   27.2197   -4.8611 O   0  0  0  0  0  0  0  0  0  0  0  0
   11.9650   28.5739   -3.4133 N   0  0  0  0  0  0  0  0  0  0  0  0
   11.5633   28.7473   -2.4824 H   0  0  0  0  0  0  0  0  0  0  0  0
   11.7734   29.5736   -4.4228 C   0  0  0  0  0  0  0  0  0  0  0  0
   12.2825   30.9579   -4.0474 C   0  0  0  0  0  0  0  0  0  0  0  0
   12.2679   31.1270   -2.6446 O   0  0  0  0  0  0  0  0  0  0  0  0
   11.0389   31.5318   -4.6945 C   0  0  0  0  0  0  0  0  0  0  0  0
   10.4354   32.5707   -3.9958 O   0  0  0  0  0  0  0  0  0  0  0  0
   10.3692   30.1754   -4.4513 C   0  0  0  0  0  0  0  0  0  0  0  0
    9.6978   30.0936   -3.2320 O   0  0  0  0  0  0  0  0  0  0  0  0
   13.0262   31.7214   -2.4148 H   0  0  0  0  0  0  0  0  0  0  0  0
   10.9802   33.3729   -4.1089 H   0  0  0  0  0  0  0  0  0  0  0  0
    9.2287   30.9504   -3.1040 H   0  0  0  0  0  0  0  0  0  0  0  0
   11.0194   22.6639   -0.4207 C   0  0  0  0  0  0  0  0  0  0  0  0
   12.2337   21.9452   -0.2038 N   0  0  0  0  0  0  0  0  0  0  0  0
   12.9728   22.1704    0.8902 C   0  0  0  0  0  0  0  0  0  0  0  0
   14.1341   21.4968    1.1176 C   0  0  0  0  0  0  0  0  0  0  0  0
   14.5599   20.5624    0.2034 C   0  0  0  0  0  0  0  0  0  0  0  0
   15.6326   19.9093    0.3689 O   0  0  0  0  0  0  0  0  0  0  0  0
   13.8190   20.3324   -0.8995 N   0  0  0  0  0  0  0  0  0  0  0  0
   12.6737   21.0275   -1.0792 C   0  0  0  0  0  0  0  0  0  0  0  0
   12.0299   20.7540   -2.1443 O   0  0  0  0  0  0  0  0  0  0  0  0
   14.1600   19.6180   -1.5823 H   0  0  0  0  0  0  0  0  0  0  0  0
    8.6337   22.1910    0.2243 C   0  0  0  0  0  0  0  0  0  0  0  0
    7.7715   22.8889    1.2858 C   0  0  0  0  0  0  0  0  0  0  0  0
    6.8692   22.0322    1.8671 O   0  0  0  0  0  0  0  0  0  0  0  0
    8.8151   23.3358    2.2907 C   0  0  0  0  0  0  0  0  0  0  0  0
    9.8981   23.6376    1.4699 O   0  0  0  0  0  0  0  0  0  0  0  0
   10.0043   22.5098    0.6775 C   0  0  0  0  0  0  0  0  0  0  0  0
    6.7234   22.2247    2.8319 H   0  0  0  0  0  0  0  0  0  0  0  0
    8.3692   24.4788    3.0902 C   0  0  0  0  0  0  0  0  0  0  0  0
    7.6758   25.5084    2.4919 O   0  0  0  0  0  0  0  0  0  0  0  0
    8.6046   24.5464    4.3211 O   0  0  0  0  0  0  0  0  0  0  0  0
    6.7634   25.8340    2.7660 H   0  0  0  0  0  0  0  0  0  0  0  0
    7.6753   20.3035   -0.7072 C   0  0  0  0  0  0  0  0  0  0  0  0
    8.3726   20.8301    0.3619 O   0  0  0  0  0  0  0  0  0  0  0  0
 47 48  1  0  0  0
 48 36  1  0  0  0
 36 37  1  0  0  0
 37 38  1  0  0  0
 37 39  1  0  0  0
 39 40  1  0  0  0
 40 41  1  0  0  0
 41 26  1  0  0  0
 26  1  1  0  0  0
  1  2  1  0  0  0
  2  3  1  0  0  0
  3  4  1  0  0  0
  4  5  2  0  0  0
  5  6  1  0  0  0
  6  7  1  0  0  0
  6  8  1  0  0  0
  8  9  1  0  0  0
  4 12  1  0  0  0
 12 13  2  0  0  0
 12 14  1  0  0  0
 14 16  1  0  0  0
 16 17  1  0  0  0
 17 18  1  0  0  0
 17 19  1  0  0  0
 19 20  1  0  0  0
 19 21  1  0  0  0
 21 22  1  0  0  0
 26 27  1  0  0  0
 27 28  1  0  0  0
 28 29  2  0  0  0
 29 30  1  0  0  0
 30 31  2  0  0  0
 30 32  1  0  0  0
 32 33  1  0  0  0
 33 34  2  0  0  0
 39 43  1  0  0  0
 43 44  1  0  0  0
 43 45  2  0  0  0
 41 36  1  0  0  0
  8  2  1  0  0  0
 21 16  1  0  0  0
 33 27  1  0  0  0
 38 42  1  0  0  0
  7 10  1  0  0  0
  9 11  1  0  0  0
 14 15  1  0  0  0
 18 23  1  0  0  0
 20 24  1  0  0  0
 22 25  1  0  0  0
 32 35  1  0  0  0
 44 46  1  0  0  0
M  END
> <minimizedAffinity>
9.14181

> <CNNscore>
0.3987270892

> <CNNaffinity>
5.5019950867

> <CNN_VS>
2.1937944889

> <CNNaffinity_variance>
0.7299209833

$$$$
[H]OC(=O)[C@]1([H])O[C@]([H])([C@@]([H])(O[C@@]2([H])OC(C(=O)N([H])[C@]3([H])[C@]([H])(O[H])[C@]([H])(O[H])[C@]3([H])O[H])=C([H])[C@]([H])(O[H])[C@]2([H])O[H])n2c([H])c([H])c(=O)n([H])c2=O)[C@@]([H])(OC([H])([H])[H])[C@@]1([H])O[H]


 48 51  0  0  0  0  0  0  0  0999 V2000
   14.9904   25.8564   -4.9993 O   0  0  0  0  0  0  0  0  0  0  0  0
   13.8205   26.0093   -4.2513 C   0  0  0  0  0  0  0  0  0  0  0  0
   13.6284   24.8370   -3.4991 O   0  0  0  0  0  0  0  0  0  0  0  0
   13.2436   24.7729   -2.1804 C   0  0  0  0  0  0  0  0  0  0  0  0
   13.6308   25.7477   -1.3751 C   0  0  0  0  0  0  0  0  0  0  0  0
   14.4588   26.8261   -2.0117 C   0  0  0  0  0  0  0  0  0  0  0  0
   14.4853   27.9663   -1.2112 O   0  0  0  0  0  0  0  0  0  0  0  0
   13.8563   27.1948   -3.3520 C   0  0  0  0  0  0  0  0  0  0  0  0
   12.5254   27.6239   -3.1705 O   0  0  0  0  0  0  0  0  0  0  0  0
   13.8717   28.6428   -1.5846 H   0  0  0  0  0  0  0  0  0  0  0  0
   11.8778   26.9631   -3.5235 H   0  0  0  0  0  0  0  0  0  0  0  0
   12.4338   23.6818   -1.6429 C   0  0  0  0  0  0  0  0  0  0  0  0
   11.2343   23.5880   -2.0587 O   0  0  0  0  0  0  0  0  0  0  0  0
   12.9051   22.7377   -0.6986 N   0  0  0  0  0  0  0  0  0  0  0  0
   13.8674   22.7788   -0.3378 H   0  0  0  0  0  0  0  0  0  0  0  0
   12.0520   21.6920   -0.2149 C   0  0  0  0  0  0  0  0  0  0  0  0
   11.9212   21.6318    1.3002 C   0  0  0  0  0  0  0  0  0  0  0  0
   13.0736   22.1673    1.9181 O   0  0  0  0  0  0  0  0  0  0  0  0
   11.9926   20.1224    1.1925 C   0  0  0  0  0  0  0  0  0  0  0  0
   12.7773   19.4982    2.1548 O   0  0  0  0  0  0  0  0  0  0  0  0
   12.7211   20.3203   -0.1408 C   0  0  0  0  0  0  0  0  0  0  0  0
   14.1087   20.3778   -0.0170 O   0  0  0  0  0  0  0  0  0  0  0  0
   12.7806   22.5904    2.7645 H   0  0  0  0  0  0  0  0  0  0  0  0
   12.2910   19.5101    3.0013 H   0  0  0  0  0  0  0  0  0  0  0  0
   14.3682   19.6861    0.6348 H   0  0  0  0  0  0  0  0  0  0  0  0
   16.0445   26.6111   -4.4898 C   0  0  0  0  0  0  0  0  0  0  0  0
   15.7293   27.9927   -4.6628 N   0  0  0  0  0  0  0  0  0  0  0  0
   16.6295   28.8372   -5.1828 C   0  0  0  0  0  0  0  0  0  0  0  0
   16.3507   30.1586   -5.3568 C   0  0  0  0  0  0  0  0  0  0  0  0
   15.1159   30.6395   -4.9907 C   0  0  0  0  0  0  0  0  0  0  0  0
   14.8076   31.8600   -5.1324 O   0  0  0  0  0  0  0  0  0  0  0  0
   14.2064   29.7930   -4.4669 N   0  0  0  0  0  0  0  0  0  0  0  0
   14.5320   28.4899   -4.3144 C   0  0  0  0  0  0  0  0  0  0  0  0
   13.6205   27.7539   -3.8132 O   0  0  0  0  0  0  0  0  0  0  0  0
   13.2735   30.1783   -4.1950 H   0  0  0  0  0  0  0  0  0  0  0  0
   17.8102   26.3522   -2.7160 C   0  0  0  0  0  0  0  0  0  0  0  0
   17.9899   25.2139   -1.7015 C   0  0  0  0  0  0  0  0  0  0  0  0
   18.5242   25.6548   -0.5157 O   0  0  0  0  0  0  0  0  0  0  0  0
   16.5625   24.7413   -1.5069 C   0  0  0  0  0  0  0  0  0  0  0  0
   16.0201   24.9257   -2.7756 O   0  0  0  0  0  0  0  0  0  0  0  0
   16.3820   26.2256   -3.0764 C   0  0  0  0  0  0  0  0  0  0  0  0
   18.1586   25.1721    0.2733 H   0  0  0  0  0  0  0  0  0  0  0  0
   16.4901   23.3513   -1.0520 C   0  0  0  0  0  0  0  0  0  0  0  0
   15.4012   22.9208   -0.3255 O   0  0  0  0  0  0  0  0  0  0  0  0
   17.4047   22.5314   -1.3094 O   0  0  0  0  0  0  0  0  0  0  0  0
   14.8003   22.1524   -0.5749 H   0  0  0  0  0  0  0  0  0  0  0  0
   18.6169   28.5189   -2.7747 C   0  0  0  0  0  0  0  0  0  0  0  0
   18.0375   27.5287   -2.0065 O   0  0  0  0  0  0  0  0  0  0  0  0
 47 48  1  0  0  0
 48 36  1  0  0  0
 36 37  1  0  0  0
 37 38  1  0  0  0
 37 39  1  0  0  0
 39 40  1  0  0  0
 40 41  1  0  0  0
 41 26  1  0  0  0
 26  1  1  0  0  0
  1  2  1  0  0  0
  2  3  1  0  0  0
  3  4  1  0  0  0
  4  5  2  0  0  0
  5  6  1  0  0  0
  6  7  1  0  0  0
  6  8  1  0  0  0
  8  9  1  0  0  0
  4 12  1  0  0  0
 12 13  2  0  0  0
 12 14  1  0  0  0
 14 16  1  0  0  0
 16 17  1  0  0  0
 17 18  1  0  0  0
 17 19  1  0  0  0
 19 20  1  0  0  0
 19 21  1  0  0  0
 21 22  1  0  0  0
 26 27  1  0  0  0
 27 28  1  0  0  0
 28 29  2  0  0  0
 29 30  1  0  0  0
 30 31  2  0  0  0
 30 32  1  0  0  0
 32 33  1  0  0  0
 33 34  2  0  0  0
 39 43  1  0  0  0
 43 44  1  0  0  0
 43 45  2  0  0  0
 41 36  1  0  0  0
  8  2  1  0  0  0
 21 16  1  0  0  0
 33 27  1  0  0  0
 38 42  1  0  0  0
  7 10  1  0  0  0
  9 11  1  0  0  0
 14 15  1  0  0  0
 18 23  1  0  0  0
 20 24  1  0  0  0
 22 25  1  0  0  0
 32 35  1  0  0  0
 44 46  1  0  0  0
M  END
> <minimizedAffinity>
40.67244

> <CNNscore>
0.3944597244

> <CNNaffinity>
5.4439830780

> <CNN_VS>
2.1474320889

> <CNNaffinity_variance>
1.5359827280

$$$$
[H]OC(=O)[C@]1([H])O[C@]([H])([C@@]([H])(O[C@@]2([H])OC(C(=O)N([H])[C@]3([H])[C@]([H])(O[H])[C@]([H])(O[H])[C@]3([H])O[H])=C([H])[C@]([H])(O[H])[C@]2([H])O[H])n2c([H])c([H])c(=O)n([H])c2=O)[C@@]([H])(OC([H])([H])[H])[C@@]1([H])O[H]


 48 51  0  0  0  0  0  0  0  0999 V2000
   12.1722   24.9386    0.3695 O   0  0  0  0  0  0  0  0  0  0  0  0
   13.3944   24.3578    0.0224 C   0  0  0  0  0  0  0  0  0  0  0  0
   13.7581   24.8359   -1.2490 O   0  0  0  0  0  0  0  0  0  0  0  0
   15.0126   25.2485   -1.6324 C   0  0  0  0  0  0  0  0  0  0  0  0
   15.7844   25.8125   -0.7186 C   0  0  0  0  0  0  0  0  0  0  0  0
   15.1847   25.9352    0.6523 C   0  0  0  0  0  0  0  0  0  0  0  0
   16.1740   26.1696    1.6051 O   0  0  0  0  0  0  0  0  0  0  0  0
   14.4745   24.6446    1.0056 C   0  0  0  0  0  0  0  0  0  0  0  0
   15.3876   23.5715    0.9505 O   0  0  0  0  0  0  0  0  0  0  0  0
   16.3600   25.3343    2.0962 H   0  0  0  0  0  0  0  0  0  0  0  0
   15.2077   22.9789    0.1778 H   0  0  0  0  0  0  0  0  0  0  0  0
   15.5179   25.0895   -2.9943 C   0  0  0  0  0  0  0  0  0  0  0  0
   16.6059   24.4448   -3.1396 O   0  0  0  0  0  0  0  0  0  0  0  0
   14.8715   25.6063   -4.1432 N   0  0  0  0  0  0  0  0  0  0  0  0
   13.9910   26.1327   -4.0686 H   0  0  0  0  0  0  0  0  0  0  0  0
   15.4269   25.4108   -5.4504 C   0  0  0  0  0  0  0  0  0  0  0  0
   16.5969   26.3252   -5.7842 C   0  0  0  0  0  0  0  0  0  0  0  0
   16.5095   27.5290   -5.0494 O   0  0  0  0  0  0  0  0  0  0  0  0
   16.0145   26.4733   -7.1748 C   0  0  0  0  0  0  0  0  0  0  0  0
   16.0500   27.7613   -7.6957 O   0  0  0  0  0  0  0  0  0  0  0  0
   14.6551   26.1069   -6.5705 C   0  0  0  0  0  0  0  0  0  0  0  0
   13.9172   27.2101   -6.1432 O   0  0  0  0  0  0  0  0  0  0  0  0
   17.4364   27.8265   -4.8661 H   0  0  0  0  0  0  0  0  0  0  0  0
   16.9695   27.9612   -7.9560 H   0  0  0  0  0  0  0  0  0  0  0  0
   14.0250   27.9107   -6.8273 H   0  0  0  0  0  0  0  0  0  0  0  0
   11.1538   23.9952    0.4839 C   0  0  0  0  0  0  0  0  0  0  0  0
   11.6346   22.7539   -0.0318 N   0  0  0  0  0  0  0  0  0  0  0  0
   12.5632   22.0537    0.6326 C   0  0  0  0  0  0  0  0  0  0  0  0
   13.0361   20.8677    0.1597 C   0  0  0  0  0  0  0  0  0  0  0  0
   12.5500   20.3751   -1.0282 C   0  0  0  0  0  0  0  0  0  0  0  0
   12.9573   19.2768   -1.5104 O   0  0  0  0  0  0  0  0  0  0  0  0
   11.6151   21.0766   -1.7006 N   0  0  0  0  0  0  0  0  0  0  0  0
   11.1781   22.2490   -1.1889 C   0  0  0  0  0  0  0  0  0  0  0  0
   10.2951   22.8523   -1.8817 O   0  0  0  0  0  0  0  0  0  0  0  0
   11.2583   20.6850   -2.6017 H   0  0  0  0  0  0  0  0  0  0  0  0
    9.7947   22.7197    2.1742 C   0  0  0  0  0  0  0  0  0  0  0  0
    8.7828   23.2599    3.1949 C   0  0  0  0  0  0  0  0  0  0  0  0
    8.7589   22.5132    4.3472 O   0  0  0  0  0  0  0  0  0  0  0  0
    9.3239   24.6502    3.4647 C   0  0  0  0  0  0  0  0  0  0  0  0
    9.8365   25.0086    2.2210 O   0  0  0  0  0  0  0  0  0  0  0  0
   10.6138   23.9159    1.8848 C   0  0  0  0  0  0  0  0  0  0  0  0
    8.6042   23.0655    5.1597 H   0  0  0  0  0  0  0  0  0  0  0  0
    8.2897   25.5705    3.9422 C   0  0  0  0  0  0  0  0  0  0  0  0
    7.0216   25.5188    3.4058 O   0  0  0  0  0  0  0  0  0  0  0  0
    8.5307   26.4156    4.8382 O   0  0  0  0  0  0  0  0  0  0  0  0
    6.1725   25.3781    3.9281 H   0  0  0  0  0  0  0  0  0  0  0  0
   10.3370   20.4813    2.3838 C   0  0  0  0  0  0  0  0  0  0  0  0
   10.5426   21.7627    2.8551 O   0  0  0  0  0  0  0  0  0  0  0  0
 47 48  1  0  0  0
 48 36  1  0  0  0
 36 37  1  0  0  0
 37 38  1  0  0  0
 37 39  1  0  0  0
 39 40  1  0  0  0
 40 41  1  0  0  0
 41 26  1  0  0  0
 26  1  1  0  0  0
  1  2  1  0  0  0
  2  3  1  0  0  0
  3  4  1  0  0  0
  4  5  2  0  0  0
  5  6  1  0  0  0
  6  7  1  0  0  0
  6  8  1  0  0  0
  8  9  1  0  0  0
  4 12  1  0  0  0
 12 13  2  0  0  0
 12 14  1  0  0  0
 14 16  1  0  0  0
 16 17  1  0  0  0
 17 18  1  0  0  0
 17 19  1  0  0  0
 19 20  1  0  0  0
 19 21  1  0  0  0
 21 22  1  0  0  0
 26 27  1  0  0  0
 27 28  1  0  0  0
 28 29  2  0  0  0
 29 30  1  0  0  0
 30 31  2  0  0  0
 30 32  1  0  0  0
 32 33  1  0  0  0
 33 34  2  0  0  0
 39 43  1  0  0  0
 43 44  1  0  0  0
 43 45  2  0  0  0
 41 36  1  0  0  0
  8  2  1  0  0  0
 21 16  1  0  0  0
 33 27  1  0  0  0
 38 42  1  0  0  0
  7 10  1  0  0  0
  9 11  1  0  0  0
 14 15  1  0  0  0
 18 23  1  0  0  0
 20 24  1  0  0  0
 22 25  1  0  0  0
 32 35  1  0  0  0
 44 46  1  0  0  0
M  END
> <minimizedAffinity>
-1.61227

> <CNNscore>
0.3496505618

> <CNNaffinity>
5.8691058159

> <CNN_VS>
2.0521361828

> <CNNaffinity_variance>
0.5957736969

$$$$
[H]c1nc2c([H])c(OC([H])([H])C([H])([H])C([H])([H])N3C([H])([H])C([H])([H])C([H])([H])C3([H])[H])c(OC([H])([H])[H])c([H])c2c(Oc2c([H])c([H])c(N([H])C(=O)C3(C(=O)N([H])c4c([H])c([H])c(F)c([H])c4[H])C([H])([H])C3([H])[H])c([H])c2F)c1[H]


 47 52  0  0  0  0  0  0  0  0999 V2000
    7.2691   20.0501   -1.0714 C   0  0  0  0  0  0  0  0  0  0  0  0
    7.8564   20.6575    0.0303 C   0  0  0  0  0  0  0  0  0  0  0  0
    9.0972   21.3028   -0.0913 C   0  0  0  0  0  0  0  0  0  0  0  0
    9.7766   21.3619   -1.2824 C   0  0  0  0  0  0  0  0  0  0  0  0
    9.1703   20.7450   -2.3861 C   0  0  0  0  0  0  0  0  0  0  0  0
    7.9596   20.1172   -2.2653 C   0  0  0  0  0  0  0  0  0  0  0  0
    7.3883   19.5528   -3.3765 F   0  0  0  0  0  0  0  0  0  0  0  0
   11.0393   21.9645   -1.4578 N   0  0  0  0  0  0  0  0  0  0  0  0
   12.2232   21.3787   -1.0378 C   0  0  0  0  0  0  0  0  0  0  0  0
   12.1721   20.2254   -0.4766 O   0  0  0  0  0  0  0  0  0  0  0  0
   11.0009   22.9100   -1.9472 H   0  0  0  0  0  0  0  0  0  0  0  0
   13.6042   21.9258   -1.1547 C   0  0  0  0  0  0  0  0  0  0  0  0
   14.3079   21.8921    0.2238 C   0  0  0  0  0  0  0  0  0  0  0  0
   14.7729   21.0744   -0.9732 C   0  0  0  0  0  0  0  0  0  0  0  0
   13.7906   23.2675   -1.8070 C   0  0  0  0  0  0  0  0  0  0  0  0
   12.8025   24.0686   -1.7607 O   0  0  0  0  0  0  0  0  0  0  0  0
   15.0064   23.5980   -2.4324 N   0  0  0  0  0  0  0  0  0  0  0  0
   15.7483   22.8247   -2.4103 H   0  0  0  0  0  0  0  0  0  0  0  0
   15.3680   24.8002   -3.0863 C   0  0  0  0  0  0  0  0  0  0  0  0
   16.3301   25.6355   -2.6395 C   0  0  0  0  0  0  0  0  0  0  0  0
   16.6709   26.8293   -3.2963 C   0  0  0  0  0  0  0  0  0  0  0  0
   15.9975   27.1577   -4.4382 C   0  0  0  0  0  0  0  0  0  0  0  0
   16.2777   28.2947   -5.1190 F   0  0  0  0  0  0  0  0  0  0  0  0
   15.0036   26.3139   -4.9177 C   0  0  0  0  0  0  0  0  0  0  0  0
   14.7005   25.1701   -4.2586 C   0  0  0  0  0  0  0  0  0  0  0  0
    6.0506   19.4344   -0.8923 O   0  0  0  0  0  0  0  0  0  0  0  0
    2.5948   18.6876    1.1325 C   0  0  0  0  0  0  0  0  0  0  0  0
    3.7666   18.9289    0.4509 C   0  0  0  0  0  0  0  0  0  0  0  0
    4.7132   17.9336    0.3352 C   0  0  0  0  0  0  0  0  0  0  0  0
    5.9132   18.1794   -0.3607 C   0  0  0  0  0  0  0  0  0  0  0  0
    6.8617   17.2011   -0.4812 C   0  0  0  0  0  0  0  0  0  0  0  0
    6.6207   15.9506    0.0973 C   0  0  0  0  0  0  0  0  0  0  0  0
    5.4838   15.6956    0.7641 N   0  0  0  0  0  0  0  0  0  0  0  0
    4.5478   16.6799    0.8769 C   0  0  0  0  0  0  0  0  0  0  0  0
    3.3622   16.4384    1.5658 C   0  0  0  0  0  0  0  0  0  0  0  0
    2.4102   17.4208    1.6891 C   0  0  0  0  0  0  0  0  0  0  0  0
    1.1231   20.3565    0.1447 C   0  0  0  0  0  0  0  0  0  0  0  0
    1.6003   19.6626    1.2804 O   0  0  0  0  0  0  0  0  0  0  0  0
    1.2359   17.1654    2.3775 O   0  0  0  0  0  0  0  0  0  0  0  0
    1.1458   16.5028    3.6039 C   0  0  0  0  0  0  0  0  0  0  0  0
    1.2674   17.5613    4.6951 C   0  0  0  0  0  0  0  0  0  0  0  0
    2.5706   17.4449    5.4222 C   0  0  0  0  0  0  0  0  0  0  0  0
    2.7398   18.4180    6.4716 N   0  0  0  0  0  0  0  0  0  0  0  0
    4.0966   18.2898    6.9895 C   0  0  0  0  0  0  0  0  0  0  0  0
    4.9094   19.3427    6.3059 C   0  0  0  0  0  0  0  0  0  0  0  0
    3.9652   20.2239    5.5579 C   0  0  0  0  0  0  0  0  0  0  0  0
    2.6041   19.7735    6.0473 C   0  0  0  0  0  0  0  0  0  0  0  0
 37 38  1  0  0  0
 38 27  1  0  0  0
 27 28  2  0  0  0
 28 29  1  0  0  0
 29 30  2  0  0  0
 30 26  1  0  0  0
 26  1  1  0  0  0
  1  2  2  0  0  0
  2  3  1  0  0  0
  3  4  2  0  0  0
  4  8  1  0  0  0
  8  9  1  0  0  0
  9 10  2  0  0  0
  9 12  1  0  0  0
 12 13  1  0  0  0
 13 14  1  0  0  0
 12 15  1  0  0  0
 15 16  2  0  0  0
 15 17  1  0  0  0
 17 19  1  0  0  0
 19 20  2  0  0  0
 20 21  1  0  0  0
 21 22  2  0  0  0
 22 23  1  0  0  0
 22 24  1  0  0  0
 24 25  2  0  0  0
  4  5  1  0  0  0
  5  6  2  0  0  0
  6  7  1  0  0  0
 30 31  1  0  0  0
 31 32  2  0  0  0
 32 33  1  0  0  0
 33 34  2  0  0  0
 34 35  1  0  0  0
 35 36  2  0  0  0
 36 39  1  0  0  0
 39 40  1  0  0  0
 40 41  1  0  0  0
 41 42  1  0  0  0
 42 43  1  0  0  0
 43 44  1  0  0  0
 44 45  1  0  0  0
 45 46  1  0  0  0
 46 47  1  0  0  0
 36 27  1  0  0  0
 47 43  1  0  0  0
 34 29  1  0  0  0
  6  1  1  0  0  0
 14 12  1  0  0  0
 25 19  1  0  0  0
  8 11  1  0  0  0
 17 18  1  0  0  0
M  END
> <minimizedAffinity>
-7.40078

> <CNNscore>
0.1212195531

> <CNNaffinity>
6.8637137413

> <CNN_VS>
0.8320162892

> <CNNaffinity_variance>
0.0894386172

$$$$
[H]c1nc2c([H])c(OC([H])([H])C([H])([H])C([H])([H])N3C([H])([H])C([H])([H])C([H])([H])C3([H])[H])c(OC([H])([H])[H])c([H])c2c(Oc2c([H])c([H])c(N([H])C(=O)C3(C(=O)N([H])c4c([H])c([H])c(F)c([H])c4[H])C([H])([H])C3([H])[H])c([H])c2F)c1[H]


 47 52  0  0  0  0  0  0  0  0999 V2000
    5.8407   18.4530   -0.6032 C   0  0  0  0  0  0  0  0  0  0  0  0
    5.5286   19.8013   -0.4921 C   0  0  0  0  0  0  0  0  0  0  0  0
    6.5385   20.7733   -0.5693 C   0  0  0  0  0  0  0  0  0  0  0  0
    7.8580   20.4432   -0.7538 C   0  0  0  0  0  0  0  0  0  0  0  0
    8.1574   19.0779   -0.8653 C   0  0  0  0  0  0  0  0  0  0  0  0
    7.1704   18.1318   -0.7908 C   0  0  0  0  0  0  0  0  0  0  0  0
    7.5033   16.8096   -0.9348 F   0  0  0  0  0  0  0  0  0  0  0  0
    8.9184   21.3712   -0.8047 N   0  0  0  0  0  0  0  0  0  0  0  0
    9.7169   21.6698    0.2881 C   0  0  0  0  0  0  0  0  0  0  0  0
    9.4927   21.0625    1.3965 O   0  0  0  0  0  0  0  0  0  0  0  0
    9.0533   21.8188   -1.7620 H   0  0  0  0  0  0  0  0  0  0  0  0
   10.8475   22.6380    0.3553 C   0  0  0  0  0  0  0  0  0  0  0  0
   10.4031   23.9240    1.0938 C   0  0  0  0  0  0  0  0  0  0  0  0
   11.4745   22.9818    1.6252 C   0  0  0  0  0  0  0  0  0  0  0  0
   11.5699   22.9856   -0.9166 C   0  0  0  0  0  0  0  0  0  0  0  0
   11.3353   22.2486   -1.9277 O   0  0  0  0  0  0  0  0  0  0  0  0
   12.4572   24.0759   -0.9623 N   0  0  0  0  0  0  0  0  0  0  0  0
   12.5721   24.6014   -0.0352 H   0  0  0  0  0  0  0  0  0  0  0  0
   13.2148   24.5562   -2.0573 C   0  0  0  0  0  0  0  0  0  0  0  0
   12.9194   25.6869   -2.7337 C   0  0  0  0  0  0  0  0  0  0  0  0
   13.6772   26.1450   -3.8238 C   0  0  0  0  0  0  0  0  0  0  0  0
   14.7612   25.4123   -4.2154 C   0  0  0  0  0  0  0  0  0  0  0  0
   15.5332   25.7991   -5.2590 F   0  0  0  0  0  0  0  0  0  0  0  0
   15.0852   24.2455   -3.5348 C   0  0  0  0  0  0  0  0  0  0  0  0
   14.3321   23.8328   -2.4874 C   0  0  0  0  0  0  0  0  0  0  0  0
    4.8084   17.5455   -0.5217 O   0  0  0  0  0  0  0  0  0  0  0  0
    4.5058   18.0107    3.5147 C   0  0  0  0  0  0  0  0  0  0  0  0
    4.5962   17.8555    2.1495 C   0  0  0  0  0  0  0  0  0  0  0  0
    3.4767   18.0198    1.3623 C   0  0  0  0  0  0  0  0  0  0  0  0
    3.5673   17.8600   -0.0344 C   0  0  0  0  0  0  0  0  0  0  0  0
    2.4637   18.0184   -0.8270 C   0  0  0  0  0  0  0  0  0  0  0  0
    1.2420   18.3430   -0.2281 C   0  0  0  0  0  0  0  0  0  0  0  0
    1.1342   18.5003    1.1008 N   0  0  0  0  0  0  0  0  0  0  0  0
    2.2420   18.3389    1.8783 C   0  0  0  0  0  0  0  0  0  0  0  0
    2.1530   18.4952    3.2589 C   0  0  0  0  0  0  0  0  0  0  0  0
    3.2603   18.3343    4.0556 C   0  0  0  0  0  0  0  0  0  0  0  0
    5.9736   16.5647    4.8114 C   0  0  0  0  0  0  0  0  0  0  0  0
    5.6110   17.8548    4.3607 O   0  0  0  0  0  0  0  0  0  0  0  0
    3.1560   18.4929    5.4275 O   0  0  0  0  0  0  0  0  0  0  0  0
    3.3169   19.6975    6.1163 C   0  0  0  0  0  0  0  0  0  0  0  0
    3.3861   19.3585    7.6016 C   0  0  0  0  0  0  0  0  0  0  0  0
    2.2674   18.4489    8.0041 C   0  0  0  0  0  0  0  0  0  0  0  0
    2.6967   17.2966    8.7554 N   0  0  0  0  0  0  0  0  0  0  0  0
    1.5142   16.6722    9.3362 C   0  0  0  0  0  0  0  0  0  0  0  0
    1.1387   15.5500    8.4218 C   0  0  0  0  0  0  0  0  0  0  0  0
    2.2424   15.3902    7.4301 C   0  0  0  0  0  0  0  0  0  0  0  0
    3.3350   16.2870    7.9749 C   0  0  0  0  0  0  0  0  0  0  0  0
 37 38  1  0  0  0
 38 27  1  0  0  0
 27 28  2  0  0  0
 28 29  1  0  0  0
 29 30  2  0  0  0
 30 26  1  0  0  0
 26  1  1  0  0  0
  1  2  2  0  0  0
  2  3  1  0  0  0
  3  4  2  0  0  0
  4  8  1  0  0  0
  8  9  1  0  0  0
  9 10  2  0  0  0
  9 12  1  0  0  0
 12 13  1  0  0  0
 13 14  1  0  0  0
 12 15  1  0  0  0
 15 16  2  0  0  0
 15 17  1  0  0  0
 17 19  1  0  0  0
 19 20  2  0  0  0
 20 21  1  0  0  0
 21 22  2  0  0  0
 22 23  1  0  0  0
 22 24  1  0  0  0
 24 25  2  0  0  0
  4  5  1  0  0  0
  5  6  2  0  0  0
  6  7  1  0  0  0
 30 31  1  0  0  0
 31 32  2  0  0  0
 32 33  1  0  0  0
 33 34  2  0  0  0
 34 35  1  0  0  0
 35 36  2  0  0  0
 36 39  1  0  0  0
 39 40  1  0  0  0
 40 41  1  0  0  0
 41 42  1  0  0  0
 42 43  1  0  0  0
 43 44  1  0  0  0
 44 45  1  0  0  0
 45 46  1  0  0  0
 46 47  1  0  0  0
 36 27  1  0  0  0
 47 43  1  0  0  0
 34 29  1  0  0  0
  6  1  1  0  0  0
 14 12  1  0  0  0
 25 19  1  0  0  0
  8 11  1  0  0  0
 17 18  1  0  0  0
M  END
> <minimizedAffinity>
-7.12919

> <CNNscore>
0.1148324832

> <CNNaffinity>
6.7838392258

> <CNN_VS>
0.7790051103

> <CNNaffinity_variance>
0.1898712665

$$$$
[H]c1nc2c([H])c(OC([H])([H])C([H])([H])C([H])([H])N3C([H])([H])C([H])([H])C([H])([H])C3([H])[H])c(OC([H])([H])[H])c([H])c2c(Oc2c([H])c([H])c(N([H])C(=O)C3(C(=O)N([H])c4c([H])c([H])c(F)c([H])c4[H])C([H])([H])C3([H])[H])c([H])c2F)c1[H]


 47 52  0  0  0  0  0  0  0  0999 V2000
    9.3888   24.2936    3.6395 C   0  0  0  0  0  0  0  0  0  0  0  0
    9.7093   24.9804    2.4763 C   0  0  0  0  0  0  0  0  0  0  0  0
   10.3706   24.3271    1.4244 C   0  0  0  0  0  0  0  0  0  0  0  0
   10.7263   23.0033    1.4950 C   0  0  0  0  0  0  0  0  0  0  0  0
   10.3951   22.3228    2.6754 C   0  0  0  0  0  0  0  0  0  0  0  0
    9.7490   22.9620    3.6995 C   0  0  0  0  0  0  0  0  0  0  0  0
    9.4173   22.2512    4.8241 F   0  0  0  0  0  0  0  0  0  0  0  0
   11.4210   22.3035    0.4870 N   0  0  0  0  0  0  0  0  0  0  0  0
   12.7557   22.5301    0.1898 C   0  0  0  0  0  0  0  0  0  0  0  0
   13.3967   23.4068    0.8740 O   0  0  0  0  0  0  0  0  0  0  0  0
   10.8272   21.5807   -0.0228 H   0  0  0  0  0  0  0  0  0  0  0  0
   13.5832   21.8670   -0.8569 C   0  0  0  0  0  0  0  0  0  0  0  0
   14.6437   20.9528   -0.1964 C   0  0  0  0  0  0  0  0  0  0  0  0
   13.5165   20.4276   -1.0746 C   0  0  0  0  0  0  0  0  0  0  0  0
   14.2156   22.7227   -1.9191 C   0  0  0  0  0  0  0  0  0  0  0  0
   14.8058   22.1137   -2.8684 O   0  0  0  0  0  0  0  0  0  0  0  0
   14.1459   24.1256   -1.8454 N   0  0  0  0  0  0  0  0  0  0  0  0
   13.6315   24.5057   -0.9853 H   0  0  0  0  0  0  0  0  0  0  0  0
   14.6683   25.0869   -2.7436 C   0  0  0  0  0  0  0  0  0  0  0  0
   15.9681   25.4509   -2.7780 C   0  0  0  0  0  0  0  0  0  0  0  0
   16.4686   26.4130   -3.6704 C   0  0  0  0  0  0  0  0  0  0  0  0
   15.5996   27.0054   -4.5418 C   0  0  0  0  0  0  0  0  0  0  0  0
   16.0183   27.9406   -5.4276 F   0  0  0  0  0  0  0  0  0  0  0  0
   14.2576   26.6471   -4.5254 C   0  0  0  0  0  0  0  0  0  0  0  0
   13.8089   25.7152   -3.6509 C   0  0  0  0  0  0  0  0  0  0  0  0
    8.7384   24.9859    4.6363 O   0  0  0  0  0  0  0  0  0  0  0  0
    4.9752   24.3818    6.0762 C   0  0  0  0  0  0  0  0  0  0  0  0
    6.2433   24.5964    5.5847 C   0  0  0  0  0  0  0  0  0  0  0  0
    6.5275   25.7558    4.8954 C   0  0  0  0  0  0  0  0  0  0  0  0
    7.8242   25.9761    4.3908 C   0  0  0  0  0  0  0  0  0  0  0  0
    8.1190   27.1215    3.7033 C   0  0  0  0  0  0  0  0  0  0  0  0
    7.1117   28.0724    3.5100 C   0  0  0  0  0  0  0  0  0  0  0  0
    5.8698   27.8822    3.9830 N   0  0  0  0  0  0  0  0  0  0  0  0
    5.5900   26.7360    4.6656 C   0  0  0  0  0  0  0  0  0  0  0  0
    4.3085   26.5168    5.1634 C   0  0  0  0  0  0  0  0  0  0  0  0
    4.0110   25.3660    5.8520 C   0  0  0  0  0  0  0  0  0  0  0  0
    5.6447   22.4482    7.3952 C   0  0  0  0  0  0  0  0  0  0  0  0
    4.6323   23.2221    6.7826 O   0  0  0  0  0  0  0  0  0  0  0  0
    2.7314   25.1622    6.3410 O   0  0  0  0  0  0  0  0  0  0  0  0
    2.1058   25.9409    7.3175 C   0  0  0  0  0  0  0  0  0  0  0  0
    2.8164   25.6604    8.6374 C   0  0  0  0  0  0  0  0  0  0  0  0
    3.3668   26.9172    9.2360 C   0  0  0  0  0  0  0  0  0  0  0  0
    3.8219   27.8751    8.2605 N   0  0  0  0  0  0  0  0  0  0  0  0
    3.2364   29.1683    8.5926 C   0  0  0  0  0  0  0  0  0  0  0  0
    4.2789   29.9180    9.3591 C   0  0  0  0  0  0  0  0  0  0  0  0
    5.5478   29.1371    9.2736 C   0  0  0  0  0  0  0  0  0  0  0  0
    5.2349   28.0730    8.2417 C   0  0  0  0  0  0  0  0  0  0  0  0
 37 38  1  0  0  0
 38 27  1  0  0  0
 27 28  2  0  0  0
 28 29  1  0  0  0
 29 30  2  0  0  0
 30 26  1  0  0  0
 26  1  1  0  0  0
  1  2  2  0  0  0
  2  3  1  0  0  0
  3  4  2  0  0  0
  4  8  1  0  0  0
  8  9  1  0  0  0
  9 10  2  0  0  0
  9 12  1  0  0  0
 12 13  1  0  0  0
 13 14  1  0  0  0
 12 15  1  0  0  0
 15 16  2  0  0  0
 15 17  1  0  0  0
 17 19  1  0  0  0
 19 20  2  0  0  0
 20 21  1  0  0  0
 21 22  2  0  0  0
 22 23  1  0  0  0
 22 24  1  0  0  0
 24 25  2  0  0  0
  4  5  1  0  0  0
  5  6  2  0  0  0
  6  7  1  0  0  0
 30 31  1  0  0  0
 31 32  2  0  0  0
 32 33  1  0  0  0
 33 34  2  0  0  0
 34 35  1  0  0  0
 35 36  2  0  0  0
 36 39  1  0  0  0
 39 40  1  0  0  0
 40 41  1  0  0  0
 41 42  1  0  0  0
 42 43  1  0  0  0
 43 44  1  0  0  0
 44 45  1  0  0  0
 45 46  1  0  0  0
 46 47  1  0  0  0
 36 27  1  0  0  0
 47 43  1  0  0  0
 34 29  1  0  0  0
  6  1  1  0  0  0
 14 12  1  0  0  0
 25 19  1  0  0  0
  8 11  1  0  0  0
 17 18  1  0  0  0
M  END
> <minimizedAffinity>
-9.63969

> <CNNscore>
0.0897794738

> <CNNaffinity>
6.8697347641

> <CNN_VS>
0.6167611480

> <CNNaffinity_variance>
0.0887173712

$$$$
[H]c1nc2c([H])c(OC([H])([H])C([H])([H])C([H])([H])N3C([H])([H])C([H])([H])C([H])([H])C3([H])[H])c(OC([H])([H])[H])c([H])c2c(Oc2c([H])c([H])c(N([H])C(=O)C3(C(=O)N([H])c4c([H])c([H])c(F)c([H])c4[H])C([H])([H])C3([H])[H])c([H])c2F)c1[H]


 47 52  0  0  0  0  0  0  0  0999 V2000
   11.6223   21.3497    3.1816 C   0  0  0  0  0  0  0  0  0  0  0  0
   12.0357   20.0280    3.2794 C   0  0  0  0  0  0  0  0  0  0  0  0
   11.4112   19.1529    4.1821 C   0  0  0  0  0  0  0  0  0  0  0  0
   10.3822   19.5551    4.9966 C   0  0  0  0  0  0  0  0  0  0  0  0
    9.9751   20.8922    4.8856 C   0  0  0  0  0  0  0  0  0  0  0  0
   10.5851   21.7435    4.0036 C   0  0  0  0  0  0  0  0  0  0  0  0
   10.1357   23.0352    3.9058 F   0  0  0  0  0  0  0  0  0  0  0  0
    9.7405   18.7326    5.9453 N   0  0  0  0  0  0  0  0  0  0  0  0
    8.4011   18.3853    5.8641 C   0  0  0  0  0  0  0  0  0  0  0  0
    7.7137   18.8185    4.8704 O   0  0  0  0  0  0  0  0  0  0  0  0
   10.3806   18.3982    6.7285 H   0  0  0  0  0  0  0  0  0  0  0  0
    7.6177   17.5419    6.8103 C   0  0  0  0  0  0  0  0  0  0  0  0
    7.2475   16.1958    6.1412 C   0  0  0  0  0  0  0  0  0  0  0  0
    8.1649   16.3044    7.3514 C   0  0  0  0  0  0  0  0  0  0  0  0
    6.4138   18.1447    7.4793 C   0  0  0  0  0  0  0  0  0  0  0  0
    6.1850   17.7843    8.6785 O   0  0  0  0  0  0  0  0  0  0  0  0
    5.5949   19.0594    6.7929 N   0  0  0  0  0  0  0  0  0  0  0  0
    5.8949   19.2626    5.7842 H   0  0  0  0  0  0  0  0  0  0  0  0
    4.4362   19.7297    7.2533 C   0  0  0  0  0  0  0  0  0  0  0  0
    3.2452   19.1224    7.4422 C   0  0  0  0  0  0  0  0  0  0  0  0
    2.1027   19.8044    7.8918 C   0  0  0  0  0  0  0  0  0  0  0  0
    2.2036   21.1419    8.1491 C   0  0  0  0  0  0  0  0  0  0  0  0
    1.1394   21.8577    8.5848 F   0  0  0  0  0  0  0  0  0  0  0  0
    3.4187   21.7887    7.9625 C   0  0  0  0  0  0  0  0  0  0  0  0
    4.5007   21.0998    7.5274 C   0  0  0  0  0  0  0  0  0  0  0  0
   12.2706   22.1607    2.2772 O   0  0  0  0  0  0  0  0  0  0  0  0
   15.0182   23.9979   -0.1051 C   0  0  0  0  0  0  0  0  0  0  0  0
   14.0831   23.3744    0.6903 C   0  0  0  0  0  0  0  0  0  0  0  0
   12.9892   22.7627    0.1164 C   0  0  0  0  0  0  0  0  0  0  0  0
   12.0308   22.1256    0.9289 C   0  0  0  0  0  0  0  0  0  0  0  0
   10.9397   21.5165    0.3724 C   0  0  0  0  0  0  0  0  0  0  0  0
   10.7907   21.5353   -1.0182 C   0  0  0  0  0  0  0  0  0  0  0  0
   11.6925   22.1364   -1.8105 N   0  0  0  0  0  0  0  0  0  0  0  0
   12.7745   22.7398   -1.2423 C   0  0  0  0  0  0  0  0  0  0  0  0
   13.7213   23.3711   -2.0444 C   0  0  0  0  0  0  0  0  0  0  0  0
   14.8162   23.9847   -1.4862 C   0  0  0  0  0  0  0  0  0  0  0  0
   17.1481   23.8694    1.0671 C   0  0  0  0  0  0  0  0  0  0  0  0
   16.1472   24.6346    0.4254 O   0  0  0  0  0  0  0  0  0  0  0  0
   15.7495   24.6086   -2.2974 O   0  0  0  0  0  0  0  0  0  0  0  0
   16.8043   25.4073   -1.8493 C   0  0  0  0  0  0  0  0  0  0  0  0
   16.5375   26.8234   -2.3484 C   0  0  0  0  0  0  0  0  0  0  0  0
   16.7229   26.9212   -3.8306 C   0  0  0  0  0  0  0  0  0  0  0  0
   15.5274   27.2960   -4.5426 N   0  0  0  0  0  0  0  0  0  0  0  0
   15.9285   27.9588   -5.7776 C   0  0  0  0  0  0  0  0  0  0  0  0
   15.8701   26.9195   -6.8513 C   0  0  0  0  0  0  0  0  0  0  0  0
   15.2176   25.7096   -6.2703 C   0  0  0  0  0  0  0  0  0  0  0  0
   14.7033   26.1981   -4.9318 C   0  0  0  0  0  0  0  0  0  0  0  0
 37 38  1  0  0  0
 38 27  1  0  0  0
 27 28  2  0  0  0
 28 29  1  0  0  0
 29 30  2  0  0  0
 30 26  1  0  0  0
 26  1  1  0  0  0
  1  2  2  0  0  0
  2  3  1  0  0  0
  3  4  2  0  0  0
  4  8  1  0  0  0
  8  9  1  0  0  0
  9 10  2  0  0  0
  9 12  1  0  0  0
 12 13  1  0  0  0
 13 14  1  0  0  0
 12 15  1  0  0  0
 15 16  2  0  0  0
 15 17  1  0  0  0
 17 19  1  0  0  0
 19 20  2  0  0  0
 20 21  1  0  0  0
 21 22  2  0  0  0
 22 23  1  0  0  0
 22 24  1  0  0  0
 24 25  2  0  0  0
  4  5  1  0  0  0
  5  6  2  0  0  0
  6  7  1  0  0  0
 30 31  1  0  0  0
 31 32  2  0  0  0
 32 33  1  0  0  0
 33 34  2  0  0  0
 34 35  1  0  0  0
 35 36  2  0  0  0
 36 39  1  0  0  0
 39 40  1  0  0  0
 40 41  1  0  0  0
 41 42  1  0  0  0
 42 43  1  0  0  0
 43 44  1  0  0  0
 44 45  1  0  0  0
 45 46  1  0  0  0
 46 47  1  0  0  0
 36 27  1  0  0  0
 47 43  1  0  0  0
 34 29  1  0  0  0
  6  1  1  0  0  0
 14 12  1  0  0  0
 25 19  1  0  0  0
  8 11  1  0  0  0
 17 18  1  0  0  0
M  END
> <minimizedAffinity>
-8.02769

> <CNNscore>
0.0888834521

> <CNNaffinity>
7.1368217468

> <CNN_VS>
0.6343453526

> <CNNaffinity_variance>
0.0915275440

$$$$
[H]c1nc2c([H])c(OC([H])([H])C([H])([H])C([H])([H])N3C([H])([H])C([H])([H])C([H])([H])C3([H])[H])c(OC([H])([H])[H])c([H])c2c(Oc2c([H])c([H])c(N([H])C(=O)C3(C(=O)N([H])c4c([H])c([H])c(F)c([H])c4[H])C([H])([H])C3([H])[H])c([H])c2F)c1[H]


 47 52  0  0  0  0  0  0  0  0999 V2000
   10.4939   22.1704    3.6086 C   0  0  0  0  0  0  0  0  0  0  0  0
   10.2630   21.3354    4.6935 C   0  0  0  0  0  0  0  0  0  0  0  0
    9.1734   21.5653    5.5482 C   0  0  0  0  0  0  0  0  0  0  0  0
    8.3013   22.6077    5.3563 C   0  0  0  0  0  0  0  0  0  0  0  0
    8.5467   23.4415    4.2560 C   0  0  0  0  0  0  0  0  0  0  0  0
    9.6096   23.2145    3.4232 C   0  0  0  0  0  0  0  0  0  0  0  0
    9.7955   24.0365    2.3417 F   0  0  0  0  0  0  0  0  0  0  0  0
    7.2115   22.9086    6.1990 N   0  0  0  0  0  0  0  0  0  0  0  0
    5.9430   22.3814    6.0145 C   0  0  0  0  0  0  0  0  0  0  0  0
    5.7522   21.5677    5.0403 O   0  0  0  0  0  0  0  0  0  0  0  0
    7.4533   23.5751    6.9942 H   0  0  0  0  0  0  0  0  0  0  0  0
    4.7204   22.6389    6.8263 C   0  0  0  0  0  0  0  0  0  0  0  0
    3.5974   21.6522    6.4238 C   0  0  0  0  0  0  0  0  0  0  0  0
    4.2425   21.6684    7.8027 C   0  0  0  0  0  0  0  0  0  0  0  0
    4.1871   24.0430    6.8929 C   0  0  0  0  0  0  0  0  0  0  0  0
    3.3684   24.3881    5.9812 O   0  0  0  0  0  0  0  0  0  0  0  0
    4.5884   24.9145    7.9214 N   0  0  0  0  0  0  0  0  0  0  0  0
    5.2933   24.4987    8.6136 H   0  0  0  0  0  0  0  0  0  0  0  0
    4.1940   26.2544    8.1514 C   0  0  0  0  0  0  0  0  0  0  0  0
    2.9375   26.6182    8.4857 C   0  0  0  0  0  0  0  0  0  0  0  0
    2.5609   27.9538    8.7023 C   0  0  0  0  0  0  0  0  0  0  0  0
    3.5103   28.9265    8.5686 C   0  0  0  0  0  0  0  0  0  0  0  0
    3.2123   30.2333    8.7636 F   0  0  0  0  0  0  0  0  0  0  0  0
    4.8102   28.5766    8.2257 C   0  0  0  0  0  0  0  0  0  0  0  0
    5.1386   27.2781    8.0238 C   0  0  0  0  0  0  0  0  0  0  0  0
   11.5767   21.8946    2.8042 O   0  0  0  0  0  0  0  0  0  0  0  0
   13.7474   23.6844   -0.1429 C   0  0  0  0  0  0  0  0  0  0  0  0
   13.0092   23.0719    0.8450 C   0  0  0  0  0  0  0  0  0  0  0  0
   12.2206   21.9832    0.5402 C   0  0  0  0  0  0  0  0  0  0  0  0
   11.4637   21.3563    1.5495 C   0  0  0  0  0  0  0  0  0  0  0  0
   10.6756   20.2763    1.2603 C   0  0  0  0  0  0  0  0  0  0  0  0
   10.6337   19.8027   -0.0552 C   0  0  0  0  0  0  0  0  0  0  0  0
   11.3475   20.3851   -1.0316 N   0  0  0  0  0  0  0  0  0  0  0  0
   12.1280   21.4608   -0.7291 C   0  0  0  0  0  0  0  0  0  0  0  0
   12.8752   22.0819   -1.7262 C   0  0  0  0  0  0  0  0  0  0  0  0
   13.6652   23.1677   -1.4371 C   0  0  0  0  0  0  0  0  0  0  0  0
   15.9141   24.5999    0.4848 C   0  0  0  0  0  0  0  0  0  0  0  0
   14.5642   24.7932    0.1115 O   0  0  0  0  0  0  0  0  0  0  0  0
   14.4027   23.7749   -2.4399 O   0  0  0  0  0  0  0  0  0  0  0  0
   15.1864   23.1073   -3.3840 C   0  0  0  0  0  0  0  0  0  0  0  0
   16.1693   24.1259   -3.9514 C   0  0  0  0  0  0  0  0  0  0  0  0
   15.5975   24.8269   -5.1440 C   0  0  0  0  0  0  0  0  0  0  0  0
   15.5254   26.2587   -4.9976 N   0  0  0  0  0  0  0  0  0  0  0  0
   14.3305   26.7223   -5.6923 C   0  0  0  0  0  0  0  0  0  0  0  0
   13.2691   26.8729   -4.6496 C   0  0  0  0  0  0  0  0  0  0  0  0
   13.9217   26.7086   -3.3174 C   0  0  0  0  0  0  0  0  0  0  0  0
   15.3997   26.7088   -3.6494 C   0  0  0  0  0  0  0  0  0  0  0  0
 37 38  1  0  0  0
 38 27  1  0  0  0
 27 28  2  0  0  0
 28 29  1  0  0  0
 29 30  2  0  0  0
 30 26  1  0  0  0
 26  1  1  0  0  0
  1  2  2  0  0  0
  2  3  1  0  0  0
  3  4  2  0  0  0
  4  8  1  0  0  0
  8  9  1  0  0  0
  9 10  2  0  0  0
  9 12  1  0  0  0
 12 13  1  0  0  0
 13 14  1  0  0  0
 12 15  1  0  0  0
 15 16  2  0  0  0
 15 17  1  0  0  0
 17 19  1  0  0  0
 19 20  2  0  0  0
 20 21  1  0  0  0
 21 22  2  0  0  0
 22 23  1  0  0  0
 22 24  1  0  0  0
 24 25  2  0  0  0
  4  5  1  0  0  0
  5  6  2  0  0  0
  6  7  1  0  0  0
 30 31  1  0  0  0
 31 32  2  0  0  0
 32 33  1  0  0  0
 33 34  2  0  0  0
 34 35  1  0  0  0
 35 36  2  0  0  0
 36 39  1  0  0  0
 39 40  1  0  0  0
 40 41  1  0  0  0
 41 42  1  0  0  0
 42 43  1  0  0  0
 43 44  1  0  0  0
 44 45  1  0  0  0
 45 46  1  0  0  0
 46 47  1  0  0  0
 36 27  1  0  0  0
 47 43  1  0  0  0
 34 29  1  0  0  0
  6  1  1  0  0  0
 14 12  1  0  0  0
 25 19  1  0  0  0
  8 11  1  0  0  0
 17 18  1  0  0  0
M  END
> <minimizedAffinity>
-6.37984

> <CNNscore>
0.0887646824

> <CNNaffinity>
6.9374222755

> <CNN_VS>
0.6157980561

> <CNNaffinity_variance>
0.2508633733

$$$$
[H]c1nc2c([H])c(OC([H])([H])C([H])([H])C([H])([H])N3C([H])([H])C([H])([H])C([H])([H])C3([H])[H])c(OC([H])([H])[H])c([H])c2c(Oc2c([H])c([H])c(N([H])C(=O)C3(C(=O)N([H])c4c([H])c([H])c(F)c([H])c4[H])C([H])([H])C3([H])[H])c([H])c2F)c1[H]


 47 52  0  0  0  0  0  0  0  0999 V2000
    6.9329   20.1190   -0.0667 C   0  0  0  0  0  0  0  0  0  0  0  0
    7.4737   21.0892    0.7662 C   0  0  0  0  0  0  0  0  0  0  0  0
    8.7101   21.6795    0.4604 C   0  0  0  0  0  0  0  0  0  0  0  0
    9.4303   21.3313   -0.6550 C   0  0  0  0  0  0  0  0  0  0  0  0
    8.8707   20.3511   -1.4870 C   0  0  0  0  0  0  0  0  0  0  0  0
    7.6640   19.7777   -1.1872 C   0  0  0  0  0  0  0  0  0  0  0  0
    7.1390   18.8446   -2.0438 F   0  0  0  0  0  0  0  0  0  0  0  0
   10.6910   21.8634   -0.9954 N   0  0  0  0  0  0  0  0  0  0  0  0
   11.8872   21.3147   -0.5604 C   0  0  0  0  0  0  0  0  0  0  0  0
   11.8490   20.2628    0.1742 O   0  0  0  0  0  0  0  0  0  0  0  0
   10.6405   22.7235   -1.6219 H   0  0  0  0  0  0  0  0  0  0  0  0
   13.2686   21.7973   -0.8416 C   0  0  0  0  0  0  0  0  0  0  0  0
   14.1632   21.6056    0.4072 C   0  0  0  0  0  0  0  0  0  0  0  0
   14.3938   20.8736   -0.9076 C   0  0  0  0  0  0  0  0  0  0  0  0
   13.4437   23.1798   -1.4060 C   0  0  0  0  0  0  0  0  0  0  0  0
   12.5851   24.0529   -1.0583 O   0  0  0  0  0  0  0  0  0  0  0  0
   14.5113   23.4698   -2.2746 N   0  0  0  0  0  0  0  0  0  0  0  0
   15.1505   22.6380   -2.4949 H   0  0  0  0  0  0  0  0  0  0  0  0
   14.8404   24.6993   -2.8941 C   0  0  0  0  0  0  0  0  0  0  0  0
   14.0114   25.3632   -3.7278 C   0  0  0  0  0  0  0  0  0  0  0  0
   14.3571   26.5786   -4.3409 C   0  0  0  0  0  0  0  0  0  0  0  0
   15.5876   27.1110   -4.0803 C   0  0  0  0  0  0  0  0  0  0  0  0
   15.9822   28.2797   -4.6396 F   0  0  0  0  0  0  0  0  0  0  0  0
   16.4578   26.4463   -3.2255 C   0  0  0  0  0  0  0  0  0  0  0  0
   16.0917   25.2755   -2.6513 C   0  0  0  0  0  0  0  0  0  0  0  0
    5.7163   19.5772    0.2830 O   0  0  0  0  0  0  0  0  0  0  0  0
    4.7744   19.8636    4.2367 C   0  0  0  0  0  0  0  0  0  0  0  0
    5.0933   19.7548    2.9016 C   0  0  0  0  0  0  0  0  0  0  0  0
    5.2598   18.5103    2.3328 C   0  0  0  0  0  0  0  0  0  0  0  0
    5.5874   18.3974    0.9673 C   0  0  0  0  0  0  0  0  0  0  0  0
    5.7574   17.1686    0.3907 C   0  0  0  0  0  0  0  0  0  0  0  0
    5.5995   16.0241    1.1792 C   0  0  0  0  0  0  0  0  0  0  0  0
    5.2870   16.1095    2.4820 N   0  0  0  0  0  0  0  0  0  0  0  0
    5.1212   17.3405    3.0433 C   0  0  0  0  0  0  0  0  0  0  0  0
    4.7989   17.4530    4.3930 C   0  0  0  0  0  0  0  0  0  0  0  0
    4.6302   18.6866    4.9732 C   0  0  0  0  0  0  0  0  0  0  0  0
    5.6960   21.9735    5.0275 C   0  0  0  0  0  0  0  0  0  0  0  0
    4.5945   21.1023    4.8648 O   0  0  0  0  0  0  0  0  0  0  0  0
    4.3098   18.7823    6.3172 O   0  0  0  0  0  0  0  0  0  0  0  0
    5.0447   18.2227    7.3651 C   0  0  0  0  0  0  0  0  0  0  0  0
    5.0816   19.2545    8.4876 C   0  0  0  0  0  0  0  0  0  0  0  0
    6.4880   19.6403    8.8251 C   0  0  0  0  0  0  0  0  0  0  0  0
    7.1606   20.3625    7.7751 N   0  0  0  0  0  0  0  0  0  0  0  0
    7.5879   21.6475    8.3152 C   0  0  0  0  0  0  0  0  0  0  0  0
    9.0239   21.4857    8.7002 C   0  0  0  0  0  0  0  0  0  0  0  0
    9.4848   20.1681    8.1722 C   0  0  0  0  0  0  0  0  0  0  0  0
    8.3400   19.7275    7.2834 C   0  0  0  0  0  0  0  0  0  0  0  0
 37 38  1  0  0  0
 38 27  1  0  0  0
 27 28  2  0  0  0
 28 29  1  0  0  0
 29 30  2  0  0  0
 30 26  1  0  0  0
 26  1  1  0  0  0
  1  2  2  0  0  0
  2  3  1  0  0  0
  3  4  2  0  0  0
  4  8  1  0  0  0
  8  9  1  0  0  0
  9 10  2  0  0  0
  9 12  1  0  0  0
 12 13  1  0  0  0
 13 14  1  0  0  0
 12 15  1  0  0  0
 15 16  2  0  0  0
 15 17  1  0  0  0
 17 19  1  0  0  0
 19 20  2  0  0  0
 20 21  1  0  0  0
 21 22  2  0  0  0
 22 23  1  0  0  0
 22 24  1  0  0  0
 24 25  2  0  0  0
  4  5  1  0  0  0
  5  6  2  0  0  0
  6  7  1  0  0  0
 30 31  1  0  0  0
 31 32  2  0  0  0
 32 33  1  0  0  0
 33 34  2  0  0  0
 34 35  1  0  0  0
 35 36  2  0  0  0
 36 39  1  0  0  0
 39 40  1  0  0  0
 40 41  1  0  0  0
 41 42  1  0  0  0
 42 43  1  0  0  0
 43 44  1  0  0  0
 44 45  1  0  0  0
 45 46  1  0  0  0
 46 47  1  0  0  0
 36 27  1  0  0  0
 47 43  1  0  0  0
 34 29  1  0  0  0
  6  1  1  0  0  0
 14 12  1  0  0  0
 25 19  1  0  0  0
  8 11  1  0  0  0
 17 18  1  0  0  0
M  END
> <minimizedAffinity>
-8.29866

> <CNNscore>
0.0881288275

> <CNNaffinity>
6.8375158310

> <CNN_VS>
0.6025822759

> <CNNaffinity_variance>
0.2781230807

$$$$
[H]c1nc2c([H])c(OC([H])([H])C([H])([H])C([H])([H])N3C([H])([H])C([H])([H])C([H])([H])C3([H])[H])c(OC([H])([H])[H])c([H])c2c(Oc2c([H])c([H])c(N([H])C(=O)C3(C(=O)N([H])c4c([H])c([H])c(F)c([H])c4[H])C([H])([H])C3([H])[H])c([H])c2F)c1[H]


 47 52  0  0  0  0  0  0  0  0999 V2000
    9.4256   23.5876    3.3054 C   0  0  0  0  0  0  0  0  0  0  0  0
    8.3539   24.4368    3.0651 C   0  0  0  0  0  0  0  0  0  0  0  0
    7.2719   24.4862    3.9582 C   0  0  0  0  0  0  0  0  0  0  0  0
    7.2225   23.7108    5.0897 C   0  0  0  0  0  0  0  0  0  0  0  0
    8.3124   22.8591    5.3194 C   0  0  0  0  0  0  0  0  0  0  0  0
    9.3670   22.8137    4.4474 C   0  0  0  0  0  0  0  0  0  0  0  0
   10.4261   21.9886    4.7257 F   0  0  0  0  0  0  0  0  0  0  0  0
    6.1491   23.6918    6.0040 N   0  0  0  0  0  0  0  0  0  0  0  0
    5.0967   22.7938    5.9181 C   0  0  0  0  0  0  0  0  0  0  0  0
    5.1052   21.9268    4.9717 O   0  0  0  0  0  0  0  0  0  0  0  0
    6.2231   24.4281    6.7703 H   0  0  0  0  0  0  0  0  0  0  0  0
    3.9087   22.6916    6.8116 C   0  0  0  0  0  0  0  0  0  0  0  0
    4.2168   23.3416    8.1824 C   0  0  0  0  0  0  0  0  0  0  0  0
    3.1653   23.8766    7.2202 C   0  0  0  0  0  0  0  0  0  0  0  0
    3.2683   21.3446    7.0010 C   0  0  0  0  0  0  0  0  0  0  0  0
    1.9958   21.3125    7.0129 O   0  0  0  0  0  0  0  0  0  0  0  0
    4.0576   20.1907    7.1560 N   0  0  0  0  0  0  0  0  0  0  0  0
    5.1153   20.3640    7.1408 H   0  0  0  0  0  0  0  0  0  0  0  0
    3.6408   18.8500    7.3364 C   0  0  0  0  0  0  0  0  0  0  0  0
    2.6336   18.2791    6.6417 C   0  0  0  0  0  0  0  0  0  0  0  0
    2.2271   16.9493    6.8392 C   0  0  0  0  0  0  0  0  0  0  0  0
    2.8818   16.2020    7.7764 C   0  0  0  0  0  0  0  0  0  0  0  0
    2.5387   14.9137    8.0154 F   0  0  0  0  0  0  0  0  0  0  0  0
    3.9216   16.7675    8.5035 C   0  0  0  0  0  0  0  0  0  0  0  0
    4.2874   18.0536    8.2873 C   0  0  0  0  0  0  0  0  0  0  0  0
   10.4590   23.5836    2.3956 O   0  0  0  0  0  0  0  0  0  0  0  0
   13.6851   23.9671   -0.0633 C   0  0  0  0  0  0  0  0  0  0  0  0
   12.5903   23.8291    0.7603 C   0  0  0  0  0  0  0  0  0  0  0  0
   11.6186   22.8977    0.4634 C   0  0  0  0  0  0  0  0  0  0  0  0
   10.4972   22.7563    1.3044 C   0  0  0  0  0  0  0  0  0  0  0  0
    9.5246   21.8372    1.0203 C   0  0  0  0  0  0  0  0  0  0  0  0
    9.6617   21.0380   -0.1194 C   0  0  0  0  0  0  0  0  0  0  0  0
   10.7226   21.1563   -0.9336 N   0  0  0  0  0  0  0  0  0  0  0  0
   11.6836   22.0767   -0.6386 C   0  0  0  0  0  0  0  0  0  0  0  0
   12.7915   22.2182   -1.4699 C   0  0  0  0  0  0  0  0  0  0  0  0
   13.7674   23.1423   -1.1865 C   0  0  0  0  0  0  0  0  0  0  0  0
   16.0048   24.4462    0.4994 C   0  0  0  0  0  0  0  0  0  0  0  0
   14.7007   24.8973    0.1911 O   0  0  0  0  0  0  0  0  0  0  0  0
   14.8636   23.2714   -2.0231 O   0  0  0  0  0  0  0  0  0  0  0  0
   14.9853   22.6961   -3.2902 C   0  0  0  0  0  0  0  0  0  0  0  0
   15.3609   23.8150   -4.2561 C   0  0  0  0  0  0  0  0  0  0  0  0
   15.9892   24.9668   -3.5354 C   0  0  0  0  0  0  0  0  0  0  0  0
   15.2210   26.1842   -3.6037 N   0  0  0  0  0  0  0  0  0  0  0  0
   16.1352   27.2761   -3.9158 C   0  0  0  0  0  0  0  0  0  0  0  0
   16.0382   27.4975   -5.3917 C   0  0  0  0  0  0  0  0  0  0  0  0
   14.8971   26.6776   -5.8948 C   0  0  0  0  0  0  0  0  0  0  0  0
   14.2248   26.1972   -4.6251 C   0  0  0  0  0  0  0  0  0  0  0  0
 37 38  1  0  0  0
 38 27  1  0  0  0
 27 28  2  0  0  0
 28 29  1  0  0  0
 29 30  2  0  0  0
 30 26  1  0  0  0
 26  1  1  0  0  0
  1  2  2  0  0  0
  2  3  1  0  0  0
  3  4  2  0  0  0
  4  8  1  0  0  0
  8  9  1  0  0  0
  9 10  2  0  0  0
  9 12  1  0  0  0
 12 13  1  0  0  0
 13 14  1  0  0  0
 12 15  1  0  0  0
 15 16  2  0  0  0
 15 17  1  0  0  0
 17 19  1  0  0  0
 19 20  2  0  0  0
 20 21  1  0  0  0
 21 22  2  0  0  0
 22 23  1  0  0  0
 22 24  1  0  0  0
 24 25  2  0  0  0
  4  5  1  0  0  0
  5  6  2  0  0  0
  6  7  1  0  0  0
 30 31  1  0  0  0
 31 32  2  0  0  0
 32 33  1  0  0  0
 33 34  2  0  0  0
 34 35  1  0  0  0
 35 36  2  0  0  0
 36 39  1  0  0  0
 39 40  1  0  0  0
 40 41  1  0  0  0
 41 42  1  0  0  0
 42 43  1  0  0  0
 43 44  1  0  0  0
 44 45  1  0  0  0
 45 46  1  0  0  0
 46 47  1  0  0  0
 36 27  1  0  0  0
 47 43  1  0  0  0
 34 29  1  0  0  0
  6  1  1  0  0  0
 14 12  1  0  0  0
 25 19  1  0  0  0
  8 11  1  0  0  0
 17 18  1  0  0  0
M  END
> <minimizedAffinity>
-7.39967

> <CNNscore>
0.0828025267

> <CNNaffinity>
6.8954100609

> <CNN_VS>
0.5709573627

> <CNNaffinity_variance>
0.2736240625

$$$$
[H]c1nc2c([H])c(OC([H])([H])C([H])([H])C([H])([H])N3C([H])([H])C([H])([H])C([H])([H])C3([H])[H])c(OC([H])([H])[H])c([H])c2c(Oc2c([H])c([H])c(N([H])C(=O)C3(C(=O)N([H])c4c([H])c([H])c(F)c([H])c4[H])C([H])([H])C3([H])[H])c([H])c2F)c1[H]


 47 52  0  0  0  0  0  0  0  0999 V2000
    7.6803   21.4671    5.5822 C   0  0  0  0  0  0  0  0  0  0  0  0
    8.2237   20.1908    5.5256 C   0  0  0  0  0  0  0  0  0  0  0  0
    7.4968   19.1334    4.9562 C   0  0  0  0  0  0  0  0  0  0  0  0
    6.2374   19.3074    4.4390 C   0  0  0  0  0  0  0  0  0  0  0  0
    5.7025   20.6020    4.5023 C   0  0  0  0  0  0  0  0  0  0  0  0
    6.4139   21.6320    5.0571 C   0  0  0  0  0  0  0  0  0  0  0  0
    5.8652   22.8884    5.0716 F   0  0  0  0  0  0  0  0  0  0  0  0
    5.4467   18.2787    3.8868 N   0  0  0  0  0  0  0  0  0  0  0  0
    5.3582   18.0397    2.5244 C   0  0  0  0  0  0  0  0  0  0  0  0
    6.0398   18.7783    1.7260 O   0  0  0  0  0  0  0  0  0  0  0  0
    4.9267   17.6982    4.6132 H   0  0  0  0  0  0  0  0  0  0  0  0
    4.5482   16.9990    1.8309 C   0  0  0  0  0  0  0  0  0  0  0  0
    5.4094   15.7385    1.5741 C   0  0  0  0  0  0  0  0  0  0  0  0
    4.1954   15.7495    2.4928 C   0  0  0  0  0  0  0  0  0  0  0  0
    3.7988   17.3858    0.5862 C   0  0  0  0  0  0  0  0  0  0  0  0
    2.5280   17.3434    0.6468 O   0  0  0  0  0  0  0  0  0  0  0  0
    4.4902   17.7713   -0.5764 N   0  0  0  0  0  0  0  0  0  0  0  0
    5.5586   17.7481   -0.4928 H   0  0  0  0  0  0  0  0  0  0  0  0
    3.9643   18.1714   -1.8282 C   0  0  0  0  0  0  0  0  0  0  0  0
    3.0418   17.4629   -2.5138 C   0  0  0  0  0  0  0  0  0  0  0  0
    2.5364   17.8702   -3.7593 C   0  0  0  0  0  0  0  0  0  0  0  0
    3.0002   19.0360   -4.2990 C   0  0  0  0  0  0  0  0  0  0  0  0
    2.5538   19.4846   -5.4965 F   0  0  0  0  0  0  0  0  0  0  0  0
    3.9492   19.7825   -3.6121 C   0  0  0  0  0  0  0  0  0  0  0  0
    4.4151   19.3596   -2.4126 C   0  0  0  0  0  0  0  0  0  0  0  0
    8.4404   22.4648    6.1501 O   0  0  0  0  0  0  0  0  0  0  0  0
   10.2126   22.8998    2.5072 C   0  0  0  0  0  0  0  0  0  0  0  0
    9.6121   22.7647    3.7389 C   0  0  0  0  0  0  0  0  0  0  0  0
    9.1177   23.8750    4.3892 C   0  0  0  0  0  0  0  0  0  0  0  0
    8.5043   23.7386    5.6501 C   0  0  0  0  0  0  0  0  0  0  0  0
    8.0112   24.8325    6.3071 C   0  0  0  0  0  0  0  0  0  0  0  0
    8.1248   26.0903    5.7060 C   0  0  0  0  0  0  0  0  0  0  0  0
    8.7051   26.2421    4.5050 N   0  0  0  0  0  0  0  0  0  0  0  0
    9.1926   25.1435    3.8621 C   0  0  0  0  0  0  0  0  0  0  0  0
    9.8003   25.2776    2.6167 C   0  0  0  0  0  0  0  0  0  0  0  0
   10.2976   24.1800    1.9572 C   0  0  0  0  0  0  0  0  0  0  0  0
   12.0450   21.3567    2.0739 C   0  0  0  0  0  0  0  0  0  0  0  0
   10.7320   21.8059    1.8036 O   0  0  0  0  0  0  0  0  0  0  0  0
   10.8995   24.3294    0.7189 O   0  0  0  0  0  0  0  0  0  0  0  0
   12.0632   25.0607    0.4689 C   0  0  0  0  0  0  0  0  0  0  0  0
   12.2815   25.0532   -1.0405 C   0  0  0  0  0  0  0  0  0  0  0  0
   13.5717   24.3846   -1.3997 C   0  0  0  0  0  0  0  0  0  0  0  0
   13.7860   24.2590   -2.8191 N   0  0  0  0  0  0  0  0  0  0  0  0
   13.8246   25.6005   -3.3887 C   0  0  0  0  0  0  0  0  0  0  0  0
   15.2700   25.9624   -3.5159 C   0  0  0  0  0  0  0  0  0  0  0  0
   16.0677   24.7349   -3.2254 C   0  0  0  0  0  0  0  0  0  0  0  0
   15.0211   23.6408   -3.1774 C   0  0  0  0  0  0  0  0  0  0  0  0
 37 38  1  0  0  0
 38 27  1  0  0  0
 27 28  2  0  0  0
 28 29  1  0  0  0
 29 30  2  0  0  0
 30 26  1  0  0  0
 26  1  1  0  0  0
  1  2  2  0  0  0
  2  3  1  0  0  0
  3  4  2  0  0  0
  4  8  1  0  0  0
  8  9  1  0  0  0
  9 10  2  0  0  0
  9 12  1  0  0  0
 12 13  1  0  0  0
 13 14  1  0  0  0
 12 15  1  0  0  0
 15 16  2  0  0  0
 15 17  1  0  0  0
 17 19  1  0  0  0
 19 20  2  0  0  0
 20 21  1  0  0  0
 21 22  2  0  0  0
 22 23  1  0  0  0
 22 24  1  0  0  0
 24 25  2  0  0  0
  4  5  1  0  0  0
  5  6  2  0  0  0
  6  7  1  0  0  0
 30 31  1  0  0  0
 31 32  2  0  0  0
 32 33  1  0  0  0
 33 34  2  0  0  0
 34 35  1  0  0  0
 35 36  2  0  0  0
 36 39  1  0  0  0
 39 40  1  0  0  0
 40 41  1  0  0  0
 41 42  1  0  0  0
 42 43  1  0  0  0
 43 44  1  0  0  0
 44 45  1  0  0  0
 45 46  1  0  0  0
 46 47  1  0  0  0
 36 27  1  0  0  0
 47 43  1  0  0  0
 34 29  1  0  0  0
  6  1  1  0  0  0
 14 12  1  0  0  0
 25 19  1  0  0  0
  8 11  1  0  0  0
 17 18  1  0  0  0
M  END
> <minimizedAffinity>
-8.60988

> <CNNscore>
0.0767325014

> <CNNaffinity>
6.2615761757

> <CNN_VS>
0.4804663956

> <CNNaffinity_variance>
0.9079219699

$$$$
[H]c1nc2c([H])c(OC([H])([H])C([H])([H])C([H])([H])N3C([H])([H])C([H])([H])C([H])([H])C3([H])[H])c(OC([H])([H])[H])c([H])c2c(Oc2c([H])c([H])c(N([H])C(=O)C3(C(=O)N([H])c4c([H])c([H])c(F)c([H])c4[H])C([H])([H])C3([H])[H])c([H])c2F)c1[H]


 47 52  0  0  0  0  0  0  0  0999 V2000
   11.8861   20.9023    2.8249 C   0  0  0  0  0  0  0  0  0  0  0  0
   11.0176   21.9686    3.0154 C   0  0  0  0  0  0  0  0  0  0  0  0
   10.0671   21.9354    4.0479 C   0  0  0  0  0  0  0  0  0  0  0  0
    9.9525   20.8667    4.9016 C   0  0  0  0  0  0  0  0  0  0  0  0
   10.8371   19.7981    4.6975 C   0  0  0  0  0  0  0  0  0  0  0  0
   11.7641   19.8334    3.6904 C   0  0  0  0  0  0  0  0  0  0  0  0
   12.6296   18.7800    3.5448 F   0  0  0  0  0  0  0  0  0  0  0  0
    8.9967   20.7616    5.9330 N   0  0  0  0  0  0  0  0  0  0  0  0
    7.8830   19.9404    5.8530 C   0  0  0  0  0  0  0  0  0  0  0  0
    7.7198   19.2285    4.7975 O   0  0  0  0  0  0  0  0  0  0  0  0
    9.2113   21.3679    6.7823 H   0  0  0  0  0  0  0  0  0  0  0  0
    6.8056   19.7620    6.8666 C   0  0  0  0  0  0  0  0  0  0  0  0
    5.5838   19.0597    6.2259 C   0  0  0  0  0  0  0  0  0  0  0  0
    6.4199   18.4372    7.3354 C   0  0  0  0  0  0  0  0  0  0  0  0
    6.3656   20.9589    7.6630 C   0  0  0  0  0  0  0  0  0  0  0  0
    6.3728   20.8374    8.9301 O   0  0  0  0  0  0  0  0  0  0  0  0
    5.9691   22.1438    7.0170 N   0  0  0  0  0  0  0  0  0  0  0  0
    5.9973   22.1033    5.9462 H   0  0  0  0  0  0  0  0  0  0  0  0
    5.5347   23.3628    7.5906 C   0  0  0  0  0  0  0  0  0  0  0  0
    4.2507   23.6199    7.9195 C   0  0  0  0  0  0  0  0  0  0  0  0
    3.8351   24.8386    8.4804 C   0  0  0  0  0  0  0  0  0  0  0  0
    4.7740   25.8054    8.7025 C   0  0  0  0  0  0  0  0  0  0  0  0
    4.4389   27.0024    9.2405 F   0  0  0  0  0  0  0  0  0  0  0  0
    6.1016   25.5639    8.3726 C   0  0  0  0  0  0  0  0  0  0  0  0
    6.4673   24.3768    7.8328 C   0  0  0  0  0  0  0  0  0  0  0  0
   12.7984   20.9921    1.7976 O   0  0  0  0  0  0  0  0  0  0  0  0
   15.3265   23.8577    0.3841 C   0  0  0  0  0  0  0  0  0  0  0  0
   14.4652   22.8906    0.8520 C   0  0  0  0  0  0  0  0  0  0  0  0
   13.3812   22.5078    0.0914 C   0  0  0  0  0  0  0  0  0  0  0  0
   12.4984   21.5194    0.5693 C   0  0  0  0  0  0  0  0  0  0  0  0
   11.4178   21.1318   -0.1745 C   0  0  0  0  0  0  0  0  0  0  0  0
   11.2033   21.7322   -1.4194 C   0  0  0  0  0  0  0  0  0  0  0  0
   12.0326   22.6755   -1.8935 N   0  0  0  0  0  0  0  0  0  0  0  0
   13.1050   23.0524   -1.1413 C   0  0  0  0  0  0  0  0  0  0  0  0
   13.9771   24.0302   -1.6122 C   0  0  0  0  0  0  0  0  0  0  0  0
   15.0613   24.4215   -0.8650 C   0  0  0  0  0  0  0  0  0  0  0  0
   17.7413   23.9312    0.6837 C   0  0  0  0  0  0  0  0  0  0  0  0
   16.4421   24.2839    1.1156 O   0  0  0  0  0  0  0  0  0  0  0  0
   15.9198   25.3956   -1.3469 O   0  0  0  0  0  0  0  0  0  0  0  0
   16.3009   25.5483   -2.6821 C   0  0  0  0  0  0  0  0  0  0  0  0
   16.5253   27.0384   -2.9165 C   0  0  0  0  0  0  0  0  0  0  0  0
   16.7737   27.3296   -4.3636 C   0  0  0  0  0  0  0  0  0  0  0  0
   15.5706   27.5284   -5.1315 N   0  0  0  0  0  0  0  0  0  0  0  0
   15.9486   27.6623   -6.5332 C   0  0  0  0  0  0  0  0  0  0  0  0
   15.7517   26.3155   -7.1528 C   0  0  0  0  0  0  0  0  0  0  0  0
   15.0454   25.4605   -6.1540 C   0  0  0  0  0  0  0  0  0  0  0  0
   14.6462   26.4431   -5.0723 C   0  0  0  0  0  0  0  0  0  0  0  0
 37 38  1  0  0  0
 38 27  1  0  0  0
 27 28  2  0  0  0
 28 29  1  0  0  0
 29 30  2  0  0  0
 30 26  1  0  0  0
 26  1  1  0  0  0
  1  2  2  0  0  0
  2  3  1  0  0  0
  3  4  2  0  0  0
  4  8  1  0  0  0
  8  9  1  0  0  0
  9 10  2  0  0  0
  9 12  1  0  0  0
 12 13  1  0  0  0
 13 14  1  0  0  0
 12 15  1  0  0  0
 15 16  2  0  0  0
 15 17  1  0  0  0
 17 19  1  0  0  0
 19 20  2  0  0  0
 20 21  1  0  0  0
 21 22  2  0  0  0
 22 23  1  0  0  0
 22 24  1  0  0  0
 24 25  2  0  0  0
  4  5  1  0  0  0
  5  6  2  0  0  0
  6  7  1  0  0  0
 30 31  1  0  0  0
 31 32  2  0  0  0
 32 33  1  0  0  0
 33 34  2  0  0  0
 34 35  1  0  0  0
 35 36  2  0  0  0
 36 39  1  0  0  0
 39 40  1  0  0  0
 40 41  1  0  0  0
 41 42  1  0  0  0
 42 43  1  0  0  0
 43 44  1  0  0  0
 44 45  1  0  0  0
 45 46  1  0  0  0
 46 47  1  0  0  0
 36 27  1  0  0  0
 47 43  1  0  0  0
 34 29  1  0  0  0
  6  1  1  0  0  0
 14 12  1  0  0  0
 25 19  1  0  0  0
  8 11  1  0  0  0
 17 18  1  0  0  0
M  END
> <minimizedAffinity>
-6.91879

> <CNNscore>
0.0734796524

> <CNNaffinity>
7.0721054077

> <CNN_VS>
0.5196558237

> <CNNaffinity_variance>
0.0770090967

$$$$
[H]c1c([H])c([H])c(C([H])([H])OC(=O)[C@@]([H])(N([H])C(=O)[C@@]([H])(N([H])C(=O)[C@]2([H])OC(=O)[C@@]2([H])[C@@]([H])(C([H])([H])[H])C([H])([H])C([H])([H])[H])C([H])(C([H])([H])[H])C([H])([H])[H])C([H])(C([H])([H])[H])C([H])([H])[H])c(Cl)c1[H]


 36 37  0  0  0  0  0  0  0  0999 V2000
   12.7086   22.7921    0.4007 C   0  0  0  0  0  0  0  0  0  0  0  0
   12.7204   23.9238    1.0130 O   0  0  0  0  0  0  0  0  0  0  0  0
   13.1890   22.8293   -0.9142 N   0  0  0  0  0  0  0  0  0  0  0  0
   13.2357   21.9821   -1.4920 H   0  0  0  0  0  0  0  0  0  0  0  0
   12.2104   21.5817    1.1092 C   0  0  0  0  0  0  0  0  0  0  0  0
   11.0288   21.4417    3.3271 C   0  0  0  0  0  0  0  0  0  0  0  0
   11.8248   20.5601    3.7099 O   0  0  0  0  0  0  0  0  0  0  0  0
   11.1556   21.9966    2.0506 N   0  0  0  0  0  0  0  0  0  0  0  0
   10.4803   22.7305    1.7591 H   0  0  0  0  0  0  0  0  0  0  0  0
    8.7803   22.5129    3.5460 C   0  0  0  0  0  0  0  0  0  0  0  0
    9.9689   21.8744    4.2549 C   0  0  0  0  0  0  0  0  0  0  0  0
    9.1318   20.8228    4.7162 O   0  0  0  0  0  0  0  0  0  0  0  0
    8.2744   21.0942    3.6648 C   0  0  0  0  0  0  0  0  0  0  0  0
    7.4201   20.3793    3.0775 O   0  0  0  0  0  0  0  0  0  0  0  0
    7.9483   23.4046    4.4281 C   0  0  0  0  0  0  0  0  0  0  0  0
    8.7730   24.1734    5.4214 C   0  0  0  0  0  0  0  0  0  0  0  0
    7.9772   25.0281    2.5133 C   0  0  0  0  0  0  0  0  0  0  0  0
    7.1341   24.3257    3.5513 C   0  0  0  0  0  0  0  0  0  0  0  0
   11.6973   20.4894    0.2364 C   0  0  0  0  0  0  0  0  0  0  0  0
   12.6627   20.4418   -0.9638 C   0  0  0  0  0  0  0  0  0  0  0  0
   10.3457   20.7302   -0.3363 C   0  0  0  0  0  0  0  0  0  0  0  0
   13.6803   24.0559   -1.5421 C   0  0  0  0  0  0  0  0  0  0  0  0
   12.6829   25.1714   -1.5216 C   0  0  0  0  0  0  0  0  0  0  0  0
   12.8930   26.1423   -2.6752 C   0  0  0  0  0  0  0  0  0  0  0  0
   11.2796   24.6450   -1.5553 C   0  0  0  0  0  0  0  0  0  0  0  0
   14.9543   24.5135   -0.9158 C   0  0  0  0  0  0  0  0  0  0  0  0
   15.0193   24.8408    0.2877 O   0  0  0  0  0  0  0  0  0  0  0  0
   16.1031   24.5784   -1.6645 O   0  0  0  0  0  0  0  0  0  0  0  0
   16.6370   25.6207   -2.3743 C   0  0  0  0  0  0  0  0  0  0  0  0
   16.1626   25.9140   -3.7231 C   0  0  0  0  0  0  0  0  0  0  0  0
   15.5200   25.0943   -4.6015 C   0  0  0  0  0  0  0  0  0  0  0  0
   15.1250   25.5030   -5.8789 C   0  0  0  0  0  0  0  0  0  0  0  0
   15.3773   26.7755   -6.2994 C   0  0  0  0  0  0  0  0  0  0  0  0
   16.0286   27.6380   -5.4366 C   0  0  0  0  0  0  0  0  0  0  0  0
   16.4114   27.2191   -4.1851 C   0  0  0  0  0  0  0  0  0  0  0  0
   17.2285   28.3765   -3.1627 Cl  0  0  0  0  0  0  0  0  0  0  0  0
 17 18  1  0  0  0
 18 15  1  0  0  0
 15 16  1  0  0  0
 15 10  1  0  0  0
 10 11  1  0  0  0
 11 12  1  0  0  0
 12 13  1  0  0  0
 13 14  2  0  0  0
 11  6  1  0  0  0
  6  7  2  0  0  0
  6  8  1  0  0  0
  8  5  1  0  0  0
  5 19  1  0  0  0
 19 20  1  0  0  0
 19 21  1  0  0  0
  5  1  1  0  0  0
  1  2  2  0  0  0
  1  3  1  0  0  0
  3 22  1  0  0  0
 22 23  1  0  0  0
 23 24  1  0  0  0
 23 25  1  0  0  0
 22 26  1  0  0  0
 26 27  2  0  0  0
 26 28  1  0  0  0
 28 29  1  0  0  0
 29 30  1  0  0  0
 30 31  2  0  0  0
 31 32  1  0  0  0
 32 33  2  0  0  0
 33 34  1  0  0  0
 34 35  2  0  0  0
 35 36  1  0  0  0
 13 10  1  0  0  0
 35 30  1  0  0  0
  8  9  1  0  0  0
  3  4  1  0  0  0
M  END
> <minimizedAffinity>
-8.21148

> <CNNscore>
0.5822321773

> <CNNaffinity>
7.6207098961

> <CNN_VS>
4.4370226860

> <CNNaffinity_variance>
0.0717810765

$$$$
[H]c1c([H])c([H])c(C([H])([H])OC(=O)[C@@]([H])(N([H])C(=O)[C@@]([H])(N([H])C(=O)[C@]2([H])OC(=O)[C@@]2([H])[C@@]([H])(C([H])([H])[H])C([H])([H])C([H])([H])[H])C([H])(C([H])([H])[H])C([H])([H])[H])C([H])(C([H])([H])[H])C([H])([H])[H])c(Cl)c1[H]


 36 37  0  0  0  0  0  0  0  0999 V2000
   11.5742   21.7690    1.2035 C   0  0  0  0  0  0  0  0  0  0  0  0
   12.4430   21.6698    2.1476 O   0  0  0  0  0  0  0  0  0  0  0  0
   12.0826   22.2265   -0.0185 N   0  0  0  0  0  0  0  0  0  0  0  0
   11.4810   22.3326   -0.8434 H   0  0  0  0  0  0  0  0  0  0  0  0
   10.1571   21.4011    1.4713 C   0  0  0  0  0  0  0  0  0  0  0  0
    9.6736   23.6811    2.4211 C   0  0  0  0  0  0  0  0  0  0  0  0
   10.1552   24.2208    1.4042 O   0  0  0  0  0  0  0  0  0  0  0  0
    9.6393   22.2880    2.5279 N   0  0  0  0  0  0  0  0  0  0  0  0
    9.2307   21.8657    3.3847 H   0  0  0  0  0  0  0  0  0  0  0  0
    7.8006   25.1742    3.1376 C   0  0  0  0  0  0  0  0  0  0  0  0
    9.1462   24.5500    3.4880 C   0  0  0  0  0  0  0  0  0  0  0  0
    8.5426   23.8490    4.5669 O   0  0  0  0  0  0  0  0  0  0  0  0
    7.3276   23.9688    3.9161 C   0  0  0  0  0  0  0  0  0  0  0  0
    6.2687   23.2913    3.9923 O   0  0  0  0  0  0  0  0  0  0  0  0
    7.4806   26.4189    3.9210 C   0  0  0  0  0  0  0  0  0  0  0  0
    8.6872   27.2821    4.1599 C   0  0  0  0  0  0  0  0  0  0  0  0
    6.8476   28.5363    2.7299 C   0  0  0  0  0  0  0  0  0  0  0  0
    6.3908   27.1755    3.1998 C   0  0  0  0  0  0  0  0  0  0  0  0
    9.2463   21.4450    0.2936 C   0  0  0  0  0  0  0  0  0  0  0  0
    7.8272   21.2843    0.8721 C   0  0  0  0  0  0  0  0  0  0  0  0
    9.4217   20.3285   -0.6737 C   0  0  0  0  0  0  0  0  0  0  0  0
   13.4949   22.5541   -0.2144 C   0  0  0  0  0  0  0  0  0  0  0  0
   14.3046   21.4020   -0.7210 C   0  0  0  0  0  0  0  0  0  0  0  0
   15.1331   20.7609    0.3837 C   0  0  0  0  0  0  0  0  0  0  0  0
   13.4314   20.3656   -1.3620 C   0  0  0  0  0  0  0  0  0  0  0  0
   13.6597   23.7208   -1.1291 C   0  0  0  0  0  0  0  0  0  0  0  0
   13.5483   24.8977   -0.7265 O   0  0  0  0  0  0  0  0  0  0  0  0
   13.9489   23.5178   -2.4556 O   0  0  0  0  0  0  0  0  0  0  0  0
   15.1149   23.7168   -3.1458 C   0  0  0  0  0  0  0  0  0  0  0  0
   15.3902   25.0061   -3.7719 C   0  0  0  0  0  0  0  0  0  0  0  0
   14.9668   25.4802   -4.9770 C   0  0  0  0  0  0  0  0  0  0  0  0
   15.3150   26.7428   -5.4664 C   0  0  0  0  0  0  0  0  0  0  0  0
   16.1139   27.5665   -4.7295 C   0  0  0  0  0  0  0  0  0  0  0  0
   16.5651   27.1210   -3.5006 C   0  0  0  0  0  0  0  0  0  0  0  0
   16.2144   25.8762   -3.0356 C   0  0  0  0  0  0  0  0  0  0  0  0
   16.8304   25.3969   -1.4725 Cl  0  0  0  0  0  0  0  0  0  0  0  0
 17 18  1  0  0  0
 18 15  1  0  0  0
 15 16  1  0  0  0
 15 10  1  0  0  0
 10 11  1  0  0  0
 11 12  1  0  0  0
 12 13  1  0  0  0
 13 14  2  0  0  0
 11  6  1  0  0  0
  6  7  2  0  0  0
  6  8  1  0  0  0
  8  5  1  0  0  0
  5 19  1  0  0  0
 19 20  1  0  0  0
 19 21  1  0  0  0
  5  1  1  0  0  0
  1  2  2  0  0  0
  1  3  1  0  0  0
  3 22  1  0  0  0
 22 23  1  0  0  0
 23 24  1  0  0  0
 23 25  1  0  0  0
 22 26  1  0  0  0
 26 27  2  0  0  0
 26 28  1  0  0  0
 28 29  1  0  0  0
 29 30  1  0  0  0
 30 31  2  0  0  0
 31 32  1  0  0  0
 32 33  2  0  0  0
 33 34  1  0  0  0
 34 35  2  0  0  0
 35 36  1  0  0  0
 13 10  1  0  0  0
 35 30  1  0  0  0
  8  9  1  0  0  0
  3  4  1  0  0  0
M  END
> <minimizedAffinity>
-9.32731

> <CNNscore>
0.4809721112

> <CNNaffinity>
7.2497863770

> <CNN_VS>
3.4869451523

> <CNNaffinity_variance>
0.1159422025

$$$$
[H]c1c([H])c([H])c(C([H])([H])OC(=O)[C@@]([H])(N([H])C(=O)[C@@]([H])(N([H])C(=O)[C@]2([H])OC(=O)[C@@]2([H])[C@@]([H])(C([H])([H])[H])C([H])([H])C([H])([H])[H])C([H])(C([H])([H])[H])C([H])([H])[H])C([H])(C([H])([H])[H])C([H])([H])[H])c(Cl)c1[H]


 36 37  0  0  0  0  0  0  0  0999 V2000
   11.9981   22.7443    0.6969 C   0  0  0  0  0  0  0  0  0  0  0  0
   12.8670   22.9342    1.6269 O   0  0  0  0  0  0  0  0  0  0  0  0
   12.2469   23.4410   -0.4921 N   0  0  0  0  0  0  0  0  0  0  0  0
   11.6250   23.3547   -1.3042 H   0  0  0  0  0  0  0  0  0  0  0  0
   10.8472   21.8338    0.9453 C   0  0  0  0  0  0  0  0  0  0  0  0
    9.6522   22.1720    3.1344 C   0  0  0  0  0  0  0  0  0  0  0  0
   10.2821   21.2206    3.6398 O   0  0  0  0  0  0  0  0  0  0  0  0
    9.8773   22.5360    1.8039 N   0  0  0  0  0  0  0  0  0  0  0  0
    9.3404   23.3335    1.4098 H   0  0  0  0  0  0  0  0  0  0  0  0
    7.6234   23.6328    3.1679 C   0  0  0  0  0  0  0  0  0  0  0  0
    8.6804   22.8908    3.9773 C   0  0  0  0  0  0  0  0  0  0  0  0
    7.6715   22.0632    4.5403 O   0  0  0  0  0  0  0  0  0  0  0  0
    6.8781   22.3477    3.4431 C   0  0  0  0  0  0  0  0  0  0  0  0
    5.9146   21.7241    2.9247 O   0  0  0  0  0  0  0  0  0  0  0  0
    6.9559   24.7554    3.9161 C   0  0  0  0  0  0  0  0  0  0  0  0
    7.3605   24.8120    5.3622 C   0  0  0  0  0  0  0  0  0  0  0  0
    6.1727   27.0866    3.4116 C   0  0  0  0  0  0  0  0  0  0  0  0
    7.2548   26.0534    3.2047 C   0  0  0  0  0  0  0  0  0  0  0  0
   10.1564   21.3217   -0.2708 C   0  0  0  0  0  0  0  0  0  0  0  0
    8.6602   21.6070   -0.0379 C   0  0  0  0  0  0  0  0  0  0  0  0
   10.2644   19.8527   -0.4786 C   0  0  0  0  0  0  0  0  0  0  0  0
   13.4115   24.3081   -0.6717 C   0  0  0  0  0  0  0  0  0  0  0  0
   14.7089   23.6261   -0.3692 C   0  0  0  0  0  0  0  0  0  0  0  0
   15.0036   22.5037   -1.3545 C   0  0  0  0  0  0  0  0  0  0  0  0
   15.8464   24.6026   -0.3627 C   0  0  0  0  0  0  0  0  0  0  0  0
   13.4564   24.8783   -2.0493 C   0  0  0  0  0  0  0  0  0  0  0  0
   13.0267   26.0225   -2.3057 O   0  0  0  0  0  0  0  0  0  0  0  0
   13.9876   24.1431   -3.0797 O   0  0  0  0  0  0  0  0  0  0  0  0
   14.9649   24.4662   -3.9830 C   0  0  0  0  0  0  0  0  0  0  0  0
   15.7539   25.6822   -3.8123 C   0  0  0  0  0  0  0  0  0  0  0  0
   16.6310   26.0010   -2.8196 C   0  0  0  0  0  0  0  0  0  0  0  0
   17.3206   27.2163   -2.7706 C   0  0  0  0  0  0  0  0  0  0  0  0
   17.1323   28.1503   -3.7462 C   0  0  0  0  0  0  0  0  0  0  0  0
   16.2491   27.8643   -4.7712 C   0  0  0  0  0  0  0  0  0  0  0  0
   15.5783   26.6654   -4.8028 C   0  0  0  0  0  0  0  0  0  0  0  0
   14.4824   26.3899   -6.1354 Cl  0  0  0  0  0  0  0  0  0  0  0  0
 17 18  1  0  0  0
 18 15  1  0  0  0
 15 16  1  0  0  0
 15 10  1  0  0  0
 10 11  1  0  0  0
 11 12  1  0  0  0
 12 13  1  0  0  0
 13 14  2  0  0  0
 11  6  1  0  0  0
  6  7  2  0  0  0
  6  8  1  0  0  0
  8  5  1  0  0  0
  5 19  1  0  0  0
 19 20  1  0  0  0
 19 21  1  0  0  0
  5  1  1  0  0  0
  1  2  2  0  0  0
  1  3  1  0  0  0
  3 22  1  0  0  0
 22 23  1  0  0  0
 23 24  1  0  0  0
 23 25  1  0  0  0
 22 26  1  0  0  0
 26 27  2  0  0  0
 26 28  1  0  0  0
 28 29  1  0  0  0
 29 30  1  0  0  0
 30 31  2  0  0  0
 31 32  1  0  0  0
 32 33  2  0  0  0
 33 34  1  0  0  0
 34 35  2  0  0  0
 35 36  1  0  0  0
 13 10  1  0  0  0
 35 30  1  0  0  0
  8  9  1  0  0  0
  3  4  1  0  0  0
M  END
> <minimizedAffinity>
-7.48060

> <CNNscore>
0.4049620032

> <CNNaffinity>
7.2029533386

> <CNN_VS>
2.9169223309

> <CNNaffinity_variance>
0.2819684446

$$$$
[H]c1c([H])c([H])c(C([H])([H])OC(=O)[C@@]([H])(N([H])C(=O)[C@@]([H])(N([H])C(=O)[C@]2([H])OC(=O)[C@@]2([H])[C@@]([H])(C([H])([H])[H])C([H])([H])C([H])([H])[H])C([H])(C([H])([H])[H])C([H])([H])[H])C([H])(C([H])([H])[H])C([H])([H])[H])c(Cl)c1[H]


 36 37  0  0  0  0  0  0  0  0999 V2000
   13.4996   22.9737    0.5330 C   0  0  0  0  0  0  0  0  0  0  0  0
   14.3295   23.7528    1.1332 O   0  0  0  0  0  0  0  0  0  0  0  0
   13.1377   23.3809   -0.7571 N   0  0  0  0  0  0  0  0  0  0  0  0
   12.4907   22.8288   -1.3317 H   0  0  0  0  0  0  0  0  0  0  0  0
   13.0129   21.7495    1.2257 C   0  0  0  0  0  0  0  0  0  0  0  0
   11.3445   21.3249    3.0617 C   0  0  0  0  0  0  0  0  0  0  0  0
   11.9578   20.2911    3.3972 O   0  0  0  0  0  0  0  0  0  0  0  0
   11.8060   22.1007    1.9947 N   0  0  0  0  0  0  0  0  0  0  0  0
   11.2770   22.9575    1.7385 H   0  0  0  0  0  0  0  0  0  0  0  0
    9.2425   22.6786    3.0736 C   0  0  0  0  0  0  0  0  0  0  0  0
   10.1373   21.6967    3.8206 C   0  0  0  0  0  0  0  0  0  0  0  0
    9.1026   20.7232    3.7850 O   0  0  0  0  0  0  0  0  0  0  0  0
    8.5734   21.3799    2.6883 C   0  0  0  0  0  0  0  0  0  0  0  0
    7.8236   20.9821    1.7579 O   0  0  0  0  0  0  0  0  0  0  0  0
    8.3153   23.4613    3.9642 C   0  0  0  0  0  0  0  0  0  0  0  0
    8.5617   23.2097    5.4250 C   0  0  0  0  0  0  0  0  0  0  0  0
    9.5980   25.2033    2.6902 C   0  0  0  0  0  0  0  0  0  0  0  0
    8.4433   24.9269    3.6239 C   0  0  0  0  0  0  0  0  0  0  0  0
   12.7209   20.5840    0.3456 C   0  0  0  0  0  0  0  0  0  0  0  0
   13.9646   20.4313   -0.5513 C   0  0  0  0  0  0  0  0  0  0  0  0
   11.5712   20.7722   -0.5794 C   0  0  0  0  0  0  0  0  0  0  0  0
   13.6708   24.5911   -1.3830 C   0  0  0  0  0  0  0  0  0  0  0  0
   14.8025   24.3207   -2.3242 C   0  0  0  0  0  0  0  0  0  0  0  0
   16.1549   24.5833   -1.6764 C   0  0  0  0  0  0  0  0  0  0  0  0
   14.7552   22.9136   -2.8394 C   0  0  0  0  0  0  0  0  0  0  0  0
   12.6016   25.3511   -2.0928 C   0  0  0  0  0  0  0  0  0  0  0  0
   11.3968   25.0332   -2.0081 O   0  0  0  0  0  0  0  0  0  0  0  0
   12.9285   26.4398   -2.8624 O   0  0  0  0  0  0  0  0  0  0  0  0
   13.5375   26.5047   -4.0873 C   0  0  0  0  0  0  0  0  0  0  0  0
   14.9119   26.9823   -4.2031 C   0  0  0  0  0  0  0  0  0  0  0  0
   15.7711   27.3642   -3.2172 C   0  0  0  0  0  0  0  0  0  0  0  0
   17.0706   27.8150   -3.4685 C   0  0  0  0  0  0  0  0  0  0  0  0
   17.5344   27.8879   -4.7489 C   0  0  0  0  0  0  0  0  0  0  0  0
   16.6918   27.5096   -5.7780 C   0  0  0  0  0  0  0  0  0  0  0  0
   15.4168   27.0706   -5.5129 C   0  0  0  0  0  0  0  0  0  0  0  0
   14.4226   26.6132   -6.8749 Cl  0  0  0  0  0  0  0  0  0  0  0  0
 17 18  1  0  0  0
 18 15  1  0  0  0
 15 16  1  0  0  0
 15 10  1  0  0  0
 10 11  1  0  0  0
 11 12  1  0  0  0
 12 13  1  0  0  0
 13 14  2  0  0  0
 11  6  1  0  0  0
  6  7  2  0  0  0
  6  8  1  0  0  0
  8  5  1  0  0  0
  5 19  1  0  0  0
 19 20  1  0  0  0
 19 21  1  0  0  0
  5  1  1  0  0  0
  1  2  2  0  0  0
  1  3  1  0  0  0
  3 22  1  0  0  0
 22 23  1  0  0  0
 23 24  1  0  0  0
 23 25  1  0  0  0
 22 26  1  0  0  0
 26 27  2  0  0  0
 26 28  1  0  0  0
 28 29  1  0  0  0
 29 30  1  0  0  0
 30 31  2  0  0  0
 31 32  1  0  0  0
 32 33  2  0  0  0
 33 34  1  0  0  0
 34 35  2  0  0  0
 35 36  1  0  0  0
 13 10  1  0  0  0
 35 30  1  0  0  0
  8  9  1  0  0  0
  3  4  1  0  0  0
M  END
> <minimizedAffinity>
-6.56574

> <CNNscore>
0.3896641433

> <CNNaffinity>
7.3231325150

> <CNN_VS>
2.8535621166

> <CNNaffinity_variance>
0.0492481776

$$$$
[H]c1c([H])c([H])c(C([H])([H])OC(=O)[C@@]([H])(N([H])C(=O)[C@@]([H])(N([H])C(=O)[C@]2([H])OC(=O)[C@@]2([H])[C@@]([H])(C([H])([H])[H])C([H])([H])C([H])([H])[H])C([H])(C([H])([H])[H])C([H])([H])[H])C([H])(C([H])([H])[H])C([H])([H])[H])c(Cl)c1[H]


 36 37  0  0  0  0  0  0  0  0999 V2000
   12.7536   22.9318    0.3454 C   0  0  0  0  0  0  0  0  0  0  0  0
   13.2977   23.8114    1.1111 O   0  0  0  0  0  0  0  0  0  0  0  0
   11.5773   22.3614    0.8472 N   0  0  0  0  0  0  0  0  0  0  0  0
   11.0535   21.6572    0.3148 H   0  0  0  0  0  0  0  0  0  0  0  0
   13.3878   22.6062   -0.9612 C   0  0  0  0  0  0  0  0  0  0  0  0
   14.6378   23.8826   -2.7340 C   0  0  0  0  0  0  0  0  0  0  0  0
   14.5736   22.9021   -3.5033 O   0  0  0  0  0  0  0  0  0  0  0  0
   14.0734   23.8124   -1.4574 N   0  0  0  0  0  0  0  0  0  0  0  0
   14.1396   24.6446   -0.8388 H   0  0  0  0  0  0  0  0  0  0  0  0
   14.9437   25.4660   -4.6446 C   0  0  0  0  0  0  0  0  0  0  0  0
   15.3153   25.1008   -3.2123 C   0  0  0  0  0  0  0  0  0  0  0  0
   14.7335   26.3121   -2.7500 O   0  0  0  0  0  0  0  0  0  0  0  0
   13.9592   26.3342   -3.8964 C   0  0  0  0  0  0  0  0  0  0  0  0
   12.8576   26.8894   -4.1500 O   0  0  0  0  0  0  0  0  0  0  0  0
   15.9505   26.3488   -5.3320 C   0  0  0  0  0  0  0  0  0  0  0  0
   15.6430   26.5576   -6.7879 C   0  0  0  0  0  0  0  0  0  0  0  0
   17.3969   27.9054   -3.9950 C   0  0  0  0  0  0  0  0  0  0  0  0
   16.0294   27.6602   -4.5876 C   0  0  0  0  0  0  0  0  0  0  0  0
   14.3410   21.4618   -0.9475 C   0  0  0  0  0  0  0  0  0  0  0  0
   13.4996   20.2284   -1.3285 C   0  0  0  0  0  0  0  0  0  0  0  0
   14.9324   21.1573    0.3831 C   0  0  0  0  0  0  0  0  0  0  0  0
   11.0006   22.7436    2.1363 C   0  0  0  0  0  0  0  0  0  0  0  0
   10.2483   24.0364    2.0877 C   0  0  0  0  0  0  0  0  0  0  0  0
    9.4135   24.1603    0.8207 C   0  0  0  0  0  0  0  0  0  0  0  0
    9.3667   24.1965    3.2897 C   0  0  0  0  0  0  0  0  0  0  0  0
   10.1152   21.6705    2.6744 C   0  0  0  0  0  0  0  0  0  0  0  0
   10.1030   21.3690    3.8862 O   0  0  0  0  0  0  0  0  0  0  0  0
    9.2762   20.9855    1.8310 O   0  0  0  0  0  0  0  0  0  0  0  0
    8.2521   21.4396    1.0434 C   0  0  0  0  0  0  0  0  0  0  0  0
    7.5499   20.5260    0.1475 C   0  0  0  0  0  0  0  0  0  0  0  0
    6.3730   19.8688    0.3458 C   0  0  0  0  0  0  0  0  0  0  0  0
    5.8105   19.0068   -0.6004 C   0  0  0  0  0  0  0  0  0  0  0  0
    6.4412   18.7903   -1.7900 C   0  0  0  0  0  0  0  0  0  0  0  0
    7.6390   19.4388   -2.0288 C   0  0  0  0  0  0  0  0  0  0  0  0
    8.1785   20.2815   -1.0868 C   0  0  0  0  0  0  0  0  0  0  0  0
    9.6949   21.0580   -1.4742 Cl  0  0  0  0  0  0  0  0  0  0  0  0
 17 18  1  0  0  0
 18 15  1  0  0  0
 15 16  1  0  0  0
 15 10  1  0  0  0
 10 11  1  0  0  0
 11 12  1  0  0  0
 12 13  1  0  0  0
 13 14  2  0  0  0
 11  6  1  0  0  0
  6  7  2  0  0  0
  6  8  1  0  0  0
  8  5  1  0  0  0
  5 19  1  0  0  0
 19 20  1  0  0  0
 19 21  1  0  0  0
  5  1  1  0  0  0
  1  2  2  0  0  0
  1  3  1  0  0  0
  3 22  1  0  0  0
 22 23  1  0  0  0
 23 24  1  0  0  0
 23 25  1  0  0  0
 22 26  1  0  0  0
 26 27  2  0  0  0
 26 28  1  0  0  0
 28 29  1  0  0  0
 29 30  1  0  0  0
 30 31  2  0  0  0
 31 32  1  0  0  0
 32 33  2  0  0  0
 33 34  1  0  0  0
 34 35  2  0  0  0
 35 36  1  0  0  0
 13 10  1  0  0  0
 35 30  1  0  0  0
  8  9  1  0  0  0
  3  4  1  0  0  0
M  END
> <minimizedAffinity>
-8.34737

> <CNNscore>
0.3492908776

> <CNNaffinity>
7.5044794083

> <CNN_VS>
2.6212460995

> <CNNaffinity_variance>
0.1292032301

$$$$
[H]c1c([H])c([H])c(C([H])([H])OC(=O)[C@@]([H])(N([H])C(=O)[C@@]([H])(N([H])C(=O)[C@]2([H])OC(=O)[C@@]2([H])[C@@]([H])(C([H])([H])[H])C([H])([H])C([H])([H])[H])C([H])(C([H])([H])[H])C([H])([H])[H])C([H])(C([H])([H])[H])C([H])([H])[H])c(Cl)c1[H]


 36 37  0  0  0  0  0  0  0  0999 V2000
   11.4960   22.9498    0.0797 C   0  0  0  0  0  0  0  0  0  0  0  0
   11.3046   24.1555   -0.3272 O   0  0  0  0  0  0  0  0  0  0  0  0
   12.7693   22.4328   -0.1899 N   0  0  0  0  0  0  0  0  0  0  0  0
   13.0354   21.4848    0.1003 H   0  0  0  0  0  0  0  0  0  0  0  0
   10.3971   22.2304    0.7798 C   0  0  0  0  0  0  0  0  0  0  0  0
    9.9142   23.1228    3.0830 C   0  0  0  0  0  0  0  0  0  0  0  0
   10.6554   22.2552    3.5884 O   0  0  0  0  0  0  0  0  0  0  0  0
    9.7359   23.1743    1.6978 N   0  0  0  0  0  0  0  0  0  0  0  0
    9.1149   23.9085    1.3042 H   0  0  0  0  0  0  0  0  0  0  0  0
    8.0728   24.7964    3.3265 C   0  0  0  0  0  0  0  0  0  0  0  0
    9.2467   24.0796    3.9832 C   0  0  0  0  0  0  0  0  0  0  0  0
    8.3604   23.4803    4.9186 O   0  0  0  0  0  0  0  0  0  0  0  0
    7.3335   23.6706    4.0112 C   0  0  0  0  0  0  0  0  0  0  0  0
    6.2267   23.0871    3.8676 O   0  0  0  0  0  0  0  0  0  0  0  0
    7.7030   26.0974    3.9869 C   0  0  0  0  0  0  0  0  0  0  0  0
    8.8992   26.9508    4.3012 C   0  0  0  0  0  0  0  0  0  0  0  0
    7.0219   28.3006    2.9946 C   0  0  0  0  0  0  0  0  0  0  0  0
    6.7193   26.8247    3.1016 C   0  0  0  0  0  0  0  0  0  0  0  0
    9.3777   21.5963   -0.1017 C   0  0  0  0  0  0  0  0  0  0  0  0
    8.1326   21.4099    0.7867 C   0  0  0  0  0  0  0  0  0  0  0  0
    9.7350   20.2387   -0.5938 C   0  0  0  0  0  0  0  0  0  0  0  0
   13.8090   23.2059   -0.8693 C   0  0  0  0  0  0  0  0  0  0  0  0
   15.0478   23.3809   -0.0480 C   0  0  0  0  0  0  0  0  0  0  0  0
   15.0181   24.6733    0.7560 C   0  0  0  0  0  0  0  0  0  0  0  0
   15.2555   22.2179    0.8749 C   0  0  0  0  0  0  0  0  0  0  0  0
   14.1637   22.5996   -2.1851 C   0  0  0  0  0  0  0  0  0  0  0  0
   14.2437   21.3634   -2.3436 O   0  0  0  0  0  0  0  0  0  0  0  0
   14.4073   23.4057   -3.2693 O   0  0  0  0  0  0  0  0  0  0  0  0
   15.5908   23.8799   -3.7691 C   0  0  0  0  0  0  0  0  0  0  0  0
   15.6526   25.1982   -4.3924 C   0  0  0  0  0  0  0  0  0  0  0  0
   15.2262   25.5813   -5.6284 C   0  0  0  0  0  0  0  0  0  0  0  0
   15.3554   26.8875   -6.1103 C   0  0  0  0  0  0  0  0  0  0  0  0
   15.9295   27.8503   -5.3336 C   0  0  0  0  0  0  0  0  0  0  0  0
   16.3758   27.5005   -4.0723 C   0  0  0  0  0  0  0  0  0  0  0  0
   16.2424   26.2114   -3.6153 C   0  0  0  0  0  0  0  0  0  0  0  0
   16.8346   25.8604   -2.0094 Cl  0  0  0  0  0  0  0  0  0  0  0  0
 17 18  1  0  0  0
 18 15  1  0  0  0
 15 16  1  0  0  0
 15 10  1  0  0  0
 10 11  1  0  0  0
 11 12  1  0  0  0
 12 13  1  0  0  0
 13 14  2  0  0  0
 11  6  1  0  0  0
  6  7  2  0  0  0
  6  8  1  0  0  0
  8  5  1  0  0  0
  5 19  1  0  0  0
 19 20  1  0  0  0
 19 21  1  0  0  0
  5  1  1  0  0  0
  1  2  2  0  0  0
  1  3  1  0  0  0
  3 22  1  0  0  0
 22 23  1  0  0  0
 23 24  1  0  0  0
 23 25  1  0  0  0
 22 26  1  0  0  0
 26 27  2  0  0  0
 26 28  1  0  0  0
 28 29  1  0  0  0
 29 30  1  0  0  0
 30 31  2  0  0  0
 31 32  1  0  0  0
 32 33  2  0  0  0
 33 34  1  0  0  0
 34 35  2  0  0  0
 35 36  1  0  0  0
 13 10  1  0  0  0
 35 30  1  0  0  0
  8  9  1  0  0  0
  3  4  1  0  0  0
M  END
> <minimizedAffinity>
-8.75578

> <CNNscore>
0.3008983433

> <CNNaffinity>
6.7813959122

> <CNN_VS>
2.0405108929

> <CNNaffinity_variance>
0.2481694520

$$$$
[H]c1c([H])c([H])c(C([H])([H])OC(=O)[C@@]([H])(N([H])C(=O)[C@@]([H])(N([H])C(=O)[C@]2([H])OC(=O)[C@@]2([H])[C@@]([H])(C([H])([H])[H])C([H])([H])C([H])([H])[H])C([H])(C([H])([H])[H])C([H])([H])[H])C([H])(C([H])([H])[H])C([H])([H])[H])c(Cl)c1[H]


 36 37  0  0  0  0  0  0  0  0999 V2000
   11.0158   23.1651    1.4614 C   0  0  0  0  0  0  0  0  0  0  0  0
   11.5707   22.6547    2.5043 O   0  0  0  0  0  0  0  0  0  0  0  0
   11.8486   23.2627    0.3398 N   0  0  0  0  0  0  0  0  0  0  0  0
   11.5070   23.6437   -0.5500 H   0  0  0  0  0  0  0  0  0  0  0  0
    9.5907   23.5900    1.5244 C   0  0  0  0  0  0  0  0  0  0  0  0
    8.7570   21.2372    1.2029 C   0  0  0  0  0  0  0  0  0  0  0  0
    9.4480   20.8471    2.1661 O   0  0  0  0  0  0  0  0  0  0  0  0
    8.7750   22.5824    0.8243 N   0  0  0  0  0  0  0  0  0  0  0  0
    8.1881   22.8796    0.0200 H   0  0  0  0  0  0  0  0  0  0  0  0
    7.1554   20.8448   -0.6765 C   0  0  0  0  0  0  0  0  0  0  0  0
    7.9303   20.2462    0.4915 C   0  0  0  0  0  0  0  0  0  0  0  0
    8.6551   19.4203   -0.4096 O   0  0  0  0  0  0  0  0  0  0  0  0
    8.3691   20.3284   -1.4135 C   0  0  0  0  0  0  0  0  0  0  0  0
    8.9471   20.5775   -2.5043 O   0  0  0  0  0  0  0  0  0  0  0  0
    5.9528   20.0397   -1.0899 C   0  0  0  0  0  0  0  0  0  0  0  0
    5.9787   19.6599   -2.5435 C   0  0  0  0  0  0  0  0  0  0  0  0
    5.8201   17.5348   -0.9868 C   0  0  0  0  0  0  0  0  0  0  0  0
    5.8578   18.8235   -0.1999 C   0  0  0  0  0  0  0  0  0  0  0  0
    9.0439   23.8106    2.8921 C   0  0  0  0  0  0  0  0  0  0  0  0
    7.5123   23.7686    2.7283 C   0  0  0  0  0  0  0  0  0  0  0  0
    9.3550   25.1402    3.4824 C   0  0  0  0  0  0  0  0  0  0  0  0
   13.2390   22.8075    0.3453 C   0  0  0  0  0  0  0  0  0  0  0  0
   13.4842   21.6445   -0.5641 C   0  0  0  0  0  0  0  0  0  0  0  0
   14.5606   20.7155   -0.0202 C   0  0  0  0  0  0  0  0  0  0  0  0
   12.2240   20.8691   -0.8050 C   0  0  0  0  0  0  0  0  0  0  0  0
   14.1746   23.9169    0.0007 C   0  0  0  0  0  0  0  0  0  0  0  0
   15.3105   24.0068    0.5119 O   0  0  0  0  0  0  0  0  0  0  0  0
   13.7988   24.8749   -0.9078 O   0  0  0  0  0  0  0  0  0  0  0  0
   13.2176   24.7432   -2.1408 C   0  0  0  0  0  0  0  0  0  0  0  0
   13.8394   25.3431   -3.3170 C   0  0  0  0  0  0  0  0  0  0  0  0
   13.5945   26.5545   -3.8906 C   0  0  0  0  0  0  0  0  0  0  0  0
   14.2616   27.0078   -5.0327 C   0  0  0  0  0  0  0  0  0  0  0  0
   15.2092   26.2278   -5.6272 C   0  0  0  0  0  0  0  0  0  0  0  0
   15.4860   24.9906   -5.0751 C   0  0  0  0  0  0  0  0  0  0  0  0
   14.8195   24.5600   -3.9531 C   0  0  0  0  0  0  0  0  0  0  0  0
   15.2342   22.9833   -3.3248 Cl  0  0  0  0  0  0  0  0  0  0  0  0
 17 18  1  0  0  0
 18 15  1  0  0  0
 15 16  1  0  0  0
 15 10  1  0  0  0
 10 11  1  0  0  0
 11 12  1  0  0  0
 12 13  1  0  0  0
 13 14  2  0  0  0
 11  6  1  0  0  0
  6  7  2  0  0  0
  6  8  1  0  0  0
  8  5  1  0  0  0
  5 19  1  0  0  0
 19 20  1  0  0  0
 19 21  1  0  0  0
  5  1  1  0  0  0
  1  2  2  0  0  0
  1  3  1  0  0  0
  3 22  1  0  0  0
 22 23  1  0  0  0
 23 24  1  0  0  0
 23 25  1  0  0  0
 22 26  1  0  0  0
 26 27  2  0  0  0
 26 28  1  0  0  0
 28 29  1  0  0  0
 29 30  1  0  0  0
 30 31  2  0  0  0
 31 32  1  0  0  0
 32 33  2  0  0  0
 33 34  1  0  0  0
 34 35  2  0  0  0
 35 36  1  0  0  0
 13 10  1  0  0  0
 35 30  1  0  0  0
  8  9  1  0  0  0
  3  4  1  0  0  0
M  END
> <minimizedAffinity>
-7.66341

> <CNNscore>
0.2915180624

> <CNNaffinity>
7.3662695885

> <CNN_VS>
2.1474006176

> <CNNaffinity_variance>
0.1618804336

$$$$
[H]c1c([H])c([H])c(C([H])([H])OC(=O)[C@@]([H])(N([H])C(=O)[C@@]([H])(N([H])C(=O)[C@]2([H])OC(=O)[C@@]2([H])[C@@]([H])(C([H])([H])[H])C([H])([H])C([H])([H])[H])C([H])(C([H])([H])[H])C([H])([H])[H])C([H])(C([H])([H])[H])C([H])([H])[H])c(Cl)c1[H]


 36 37  0  0  0  0  0  0  0  0999 V2000
   11.9756   22.2466    0.8688 C   0  0  0  0  0  0  0  0  0  0  0  0
   10.9508   22.1327    0.0989 O   0  0  0  0  0  0  0  0  0  0  0  0
   13.0332   22.9927    0.3344 N   0  0  0  0  0  0  0  0  0  0  0  0
   13.8955   23.1574    0.8663 H   0  0  0  0  0  0  0  0  0  0  0  0
   11.9561   21.6071    2.2127 C   0  0  0  0  0  0  0  0  0  0  0  0
   10.1441   23.1616    3.0096 C   0  0  0  0  0  0  0  0  0  0  0  0
   10.8111   24.1493    2.6396 O   0  0  0  0  0  0  0  0  0  0  0  0
   10.6449   21.8690    2.8319 N   0  0  0  0  0  0  0  0  0  0  0  0
   10.0671   21.0650    3.1473 H   0  0  0  0  0  0  0  0  0  0  0  0
    7.9483   24.3405    2.8106 C   0  0  0  0  0  0  0  0  0  0  0  0
    8.8278   23.4011    3.6273 C   0  0  0  0  0  0  0  0  0  0  0  0
    7.8913   22.3503    3.4317 O   0  0  0  0  0  0  0  0  0  0  0  0
    7.4427   23.0107    2.3017 C   0  0  0  0  0  0  0  0  0  0  0  0
    6.8457   22.5959    1.2733 O   0  0  0  0  0  0  0  0  0  0  0  0
    6.8584   25.0058    3.6073 C   0  0  0  0  0  0  0  0  0  0  0  0
    6.9703   24.7393    5.0819 C   0  0  0  0  0  0  0  0  0  0  0  0
    8.1778   27.1392    3.7111 C   0  0  0  0  0  0  0  0  0  0  0  0
    6.8772   26.4857    3.3076 C   0  0  0  0  0  0  0  0  0  0  0  0
   12.2337   20.1440    2.2343 C   0  0  0  0  0  0  0  0  0  0  0  0
   11.2258   19.5251    1.2466 C   0  0  0  0  0  0  0  0  0  0  0  0
   11.9841   19.4801    3.5419 C   0  0  0  0  0  0  0  0  0  0  0  0
   12.9757   23.6087   -0.9914 C   0  0  0  0  0  0  0  0  0  0  0  0
   13.0216   25.1040   -0.9514 C   0  0  0  0  0  0  0  0  0  0  0  0
   12.4448   25.7238   -2.2167 C   0  0  0  0  0  0  0  0  0  0  0  0
   12.2956   25.6371    0.2470 C   0  0  0  0  0  0  0  0  0  0  0  0
   14.0646   23.0991   -1.8743 C   0  0  0  0  0  0  0  0  0  0  0  0
   13.9583   22.0251   -2.5028 O   0  0  0  0  0  0  0  0  0  0  0  0
   15.2242   23.8192   -2.0199 O   0  0  0  0  0  0  0  0  0  0  0  0
   16.0399   23.9690   -3.1097 C   0  0  0  0  0  0  0  0  0  0  0  0
   15.7977   25.0410   -4.0702 C   0  0  0  0  0  0  0  0  0  0  0  0
   15.2145   24.9729   -5.2997 C   0  0  0  0  0  0  0  0  0  0  0  0
   15.0511   26.0856   -6.1305 C   0  0  0  0  0  0  0  0  0  0  0  0
   15.4830   27.3134   -5.7234 C   0  0  0  0  0  0  0  0  0  0  0  0
   16.0811   27.4236   -4.4815 C   0  0  0  0  0  0  0  0  0  0  0  0
   16.2352   26.3191   -3.6785 C   0  0  0  0  0  0  0  0  0  0  0  0
   17.0017   26.5522   -2.1258 Cl  0  0  0  0  0  0  0  0  0  0  0  0
 17 18  1  0  0  0
 18 15  1  0  0  0
 15 16  1  0  0  0
 15 10  1  0  0  0
 10 11  1  0  0  0
 11 12  1  0  0  0
 12 13  1  0  0  0
 13 14  2  0  0  0
 11  6  1  0  0  0
  6  7  2  0  0  0
  6  8  1  0  0  0
  8  5  1  0  0  0
  5 19  1  0  0  0
 19 20  1  0  0  0
 19 21  1  0  0  0
  5  1  1  0  0  0
  1  2  2  0  0  0
  1  3  1  0  0  0
  3 22  1  0  0  0
 22 23  1  0  0  0
 23 24  1  0  0  0
 23 25  1  0  0  0
 22 26  1  0  0  0
 26 27  2  0  0  0
 26 28  1  0  0  0
 28 29  1  0  0  0
 29 30  1  0  0  0
 30 31  2  0  0  0
 31 32  1  0  0  0
 32 33  2  0  0  0
 33 34  1  0  0  0
 34 35  2  0  0  0
 35 36  1  0  0  0
 13 10  1  0  0  0
 35 30  1  0  0  0
  8  9  1  0  0  0
  3  4  1  0  0  0
M  END
> <minimizedAffinity>
-7.15928

> <CNNscore>
0.2856337726

> <CNNaffinity>
6.9730849266

> <CNN_VS>
1.9917485714

> <CNNaffinity_variance>
0.0300524291

$$$$
[H]c1c([H])c([H])c(C([H])([H])OC(=O)[C@@]([H])(N([H])C(=O)[C@@]([H])(N([H])C(=O)[C@]2([H])OC(=O)[C@@]2([H])[C@@]([H])(C([H])([H])[H])C([H])([H])C([H])([H])[H])C([H])(C([H])([H])[H])C([H])([H])[H])C([H])(C([H])([H])[H])C([H])([H])[H])c(Cl)c1[H]


 36 37  0  0  0  0  0  0  0  0999 V2000
   11.4442   22.6444   -0.2049 C   0  0  0  0  0  0  0  0  0  0  0  0
   11.1578   23.6869    0.4929 O   0  0  0  0  0  0  0  0  0  0  0  0
   10.4686   21.6398   -0.1898 N   0  0  0  0  0  0  0  0  0  0  0  0
   10.5871   20.7694   -0.7208 H   0  0  0  0  0  0  0  0  0  0  0  0
   12.7337   22.5913   -0.9463 C   0  0  0  0  0  0  0  0  0  0  0  0
   13.8385   24.4069   -2.2944 C   0  0  0  0  0  0  0  0  0  0  0  0
   13.9834   23.6233   -3.2548 O   0  0  0  0  0  0  0  0  0  0  0  0
   13.2281   23.9690   -1.1159 N   0  0  0  0  0  0  0  0  0  0  0  0
   13.1186   24.6435   -0.3332 H   0  0  0  0  0  0  0  0  0  0  0  0
   14.6042   26.1693   -3.8940 C   0  0  0  0  0  0  0  0  0  0  0  0
   14.3221   25.7908   -2.4448 C   0  0  0  0  0  0  0  0  0  0  0  0
   13.2999   26.7762   -2.3841 O   0  0  0  0  0  0  0  0  0  0  0  0
   13.1956   26.6995   -3.7616 C   0  0  0  0  0  0  0  0  0  0  0  0
   12.2507   26.9815   -4.5449 O   0  0  0  0  0  0  0  0  0  0  0  0
   15.5508   27.3290   -4.0506 C   0  0  0  0  0  0  0  0  0  0  0  0
   16.8541   27.1170   -3.3335 C   0  0  0  0  0  0  0  0  0  0  0  0
   15.6386   26.3238   -6.3494 C   0  0  0  0  0  0  0  0  0  0  0  0
   15.7626   27.5827   -5.5240 C   0  0  0  0  0  0  0  0  0  0  0  0
   13.7982   21.7527   -0.3285 C   0  0  0  0  0  0  0  0  0  0  0  0
   14.7899   22.7522    0.2975 C   0  0  0  0  0  0  0  0  0  0  0  0
   14.5903   20.9400   -1.2904 C   0  0  0  0  0  0  0  0  0  0  0  0
    9.2130   21.7681    0.5501 C   0  0  0  0  0  0  0  0  0  0  0  0
    8.1362   20.8568    0.0503 C   0  0  0  0  0  0  0  0  0  0  0  0
    6.7845   21.5547   -0.0105 C   0  0  0  0  0  0  0  0  0  0  0  0
    8.4782   20.3025   -1.3000 C   0  0  0  0  0  0  0  0  0  0  0  0
    9.4183   21.5446    2.0105 C   0  0  0  0  0  0  0  0  0  0  0  0
   10.0749   20.5754    2.4453 O   0  0  0  0  0  0  0  0  0  0  0  0
    8.8837   22.4218    2.9212 O   0  0  0  0  0  0  0  0  0  0  0  0
    7.9928   23.4463    2.7427 C   0  0  0  0  0  0  0  0  0  0  0  0
    8.1510   24.6974    3.4776 C   0  0  0  0  0  0  0  0  0  0  0  0
    8.9744   25.7493    3.2094 C   0  0  0  0  0  0  0  0  0  0  0  0
    9.0349   26.8952    4.0083 C   0  0  0  0  0  0  0  0  0  0  0  0
    8.2459   27.0004    5.1156 C   0  0  0  0  0  0  0  0  0  0  0  0
    7.3966   25.9530    5.4220 C   0  0  0  0  0  0  0  0  0  0  0  0
    7.3513   24.8332    4.6267 C   0  0  0  0  0  0  0  0  0  0  0  0
    6.2486   23.5597    5.0902 Cl  0  0  0  0  0  0  0  0  0  0  0  0
 17 18  1  0  0  0
 18 15  1  0  0  0
 15 16  1  0  0  0
 15 10  1  0  0  0
 10 11  1  0  0  0
 11 12  1  0  0  0
 12 13  1  0  0  0
 13 14  2  0  0  0
 11  6  1  0  0  0
  6  7  2  0  0  0
  6  8  1  0  0  0
  8  5  1  0  0  0
  5 19  1  0  0  0
 19 20  1  0  0  0
 19 21  1  0  0  0
  5  1  1  0  0  0
  1  2  2  0  0  0
  1  3  1  0  0  0
  3 22  1  0  0  0
 22 23  1  0  0  0
 23 24  1  0  0  0
 23 25  1  0  0  0
 22 26  1  0  0  0
 26 27  2  0  0  0
 26 28  1  0  0  0
 28 29  1  0  0  0
 29 30  1  0  0  0
 30 31  2  0  0  0
 31 32  1  0  0  0
 32 33  2  0  0  0
 33 34  1  0  0  0
 34 35  2  0  0  0
 35 36  1  0  0  0
 13 10  1  0  0  0
 35 30  1  0  0  0
  8  9  1  0  0  0
  3  4  1  0  0  0
M  END
> <minimizedAffinity>
-6.72706

> <CNNscore>
0.2763202786

> <CNNaffinity>
7.0325331688

> <CNN_VS>
1.9432315826

> <CNNaffinity_variance>
0.2646104991

$$$$
[H]O[C@]1([H])C([H])([H])C([H])([H])[C@@]([H])(n2c([H])c(-c3c([H])c([H])c(S(=O)(=O)C([H])([H])[H])c([H])c3[H])c3c([H])nc(N([H])C([H])([H])C([H])([H])C([H])([H])C([H])([H])[H])nc32)C([H])([H])C1([H])[H]


 33 36  0  0  0  0  0  0  0  0999 V2000
   12.9933   21.3216    1.3577 C   0  0  0  0  0  0  0  0  0  0  0  0
   14.0951   21.7431    0.7341 N   0  0  0  0  0  0  0  0  0  0  0  0
   14.0562   22.7205   -0.1785 C   0  0  0  0  0  0  0  0  0  0  0  0
   12.8496   23.3174   -0.4928 C   0  0  0  0  0  0  0  0  0  0  0  0
   12.4977   24.3158   -1.3602 C   0  0  0  0  0  0  0  0  0  0  0  0
   11.1364   24.4733   -1.2283 C   0  0  0  0  0  0  0  0  0  0  0  0
   10.6440   23.6213   -0.3246 N   0  0  0  0  0  0  0  0  0  0  0  0
   11.6934   22.9017    0.1367 C   0  0  0  0  0  0  0  0  0  0  0  0
   11.8210   21.9145    1.0403 N   0  0  0  0  0  0  0  0  0  0  0  0
    9.2829   23.4304    0.1353 C   0  0  0  0  0  0  0  0  0  0  0  0
    8.9267   21.9951    0.3097 C   0  0  0  0  0  0  0  0  0  0  0  0
    7.8930   21.8431    1.4339 C   0  0  0  0  0  0  0  0  0  0  0  0
    8.6537   22.1246    2.7243 C   0  0  0  0  0  0  0  0  0  0  0  0
    7.8199   22.2571    3.8125 O   0  0  0  0  0  0  0  0  0  0  0  0
    9.5098   23.3684    2.5730 C   0  0  0  0  0  0  0  0  0  0  0  0
    8.9982   24.1773    1.4053 C   0  0  0  0  0  0  0  0  0  0  0  0
    8.3824   22.0953    4.6289 H   0  0  0  0  0  0  0  0  0  0  0  0
   13.3835   25.0598   -2.2453 C   0  0  0  0  0  0  0  0  0  0  0  0
   14.7165   24.7832   -2.3003 C   0  0  0  0  0  0  0  0  0  0  0  0
   15.5203   25.5199   -3.1581 C   0  0  0  0  0  0  0  0  0  0  0  0
   14.9557   26.5110   -3.9325 C   0  0  0  0  0  0  0  0  0  0  0  0
   13.6089   26.7790   -3.8667 C   0  0  0  0  0  0  0  0  0  0  0  0
   12.8096   26.0523   -3.0191 C   0  0  0  0  0  0  0  0  0  0  0  0
   15.9405   27.4652   -5.0305 S   0  0  0  0  0  0  0  0  0  0  0  0
   15.9324   26.7277   -6.6506 C   0  0  0  0  0  0  0  0  0  0  0  0
   17.3221   27.5594   -4.4799 O   0  0  0  0  0  0  0  0  0  0  0  0
   15.3417   28.8270   -5.1015 O   0  0  0  0  0  0  0  0  0  0  0  0
   12.9773   20.2935    2.3294 N   0  0  0  0  0  0  0  0  0  0  0  0
   13.9071   19.9815    2.7395 H   0  0  0  0  0  0  0  0  0  0  0  0
   11.7475   19.6868    2.7527 C   0  0  0  0  0  0  0  0  0  0  0  0
   11.8104   19.1208    4.1305 C   0  0  0  0  0  0  0  0  0  0  0  0
   10.8862   21.0624    5.4238 C   0  0  0  0  0  0  0  0  0  0  0  0
   10.6817   19.6297    5.0070 C   0  0  0  0  0  0  0  0  0  0  0  0
 32 33  1  0  0  0
 33 31  1  0  0  0
 31 30  1  0  0  0
 30 28  1  0  0  0
 28  1  1  0  0  0
  1  2  2  0  0  0
  2  3  1  0  0  0
  3  4  2  0  0  0
  4  5  1  0  0  0
  5  6  2  0  0  0
  6  7  1  0  0  0
  7 10  1  0  0  0
 10 11  1  0  0  0
 11 12  1  0  0  0
 12 13  1  0  0  0
 13 14  1  0  0  0
 13 15  1  0  0  0
 15 16  1  0  0  0
  7  8  1  0  0  0
  8  9  2  0  0  0
  5 18  1  0  0  0
 18 19  2  0  0  0
 19 20  1  0  0  0
 20 21  2  0  0  0
 21 22  1  0  0  0
 22 23  2  0  0  0
 21 24  1  0  0  0
 24 25  1  0  0  0
 24 26  2  0  0  0
 24 27  2  0  0  0
  9  1  1  0  0  0
 23 18  1  0  0  0
  8  4  1  0  0  0
 16 10  1  0  0  0
 28 29  1  0  0  0
 14 17  1  0  0  0
M  END
> <minimizedAffinity>
-8.94309

> <CNNscore>
0.7205684781

> <CNNaffinity>
7.6710028648

> <CNN_VS>
5.5274829865

> <CNNaffinity_variance>
0.1039739400

$$$$
[H]O[C@]1([H])C([H])([H])C([H])([H])[C@@]([H])(n2c([H])c(-c3c([H])c([H])c(S(=O)(=O)C([H])([H])[H])c([H])c3[H])c3c([H])nc(N([H])C([H])([H])C([H])([H])C([H])([H])C([H])([H])[H])nc32)C([H])([H])C1([H])[H]


 33 36  0  0  0  0  0  0  0  0999 V2000
   17.3827   24.0663    1.0949 C   0  0  0  0  0  0  0  0  0  0  0  0
   17.8912   24.6044   -0.0152 N   0  0  0  0  0  0  0  0  0  0  0  0
   17.1630   24.7368   -1.1297 C   0  0  0  0  0  0  0  0  0  0  0  0
   15.8485   24.3090   -1.1447 C   0  0  0  0  0  0  0  0  0  0  0  0
   14.8753   24.3103   -2.1069 C   0  0  0  0  0  0  0  0  0  0  0  0
   13.7617   23.7492   -1.5235 C   0  0  0  0  0  0  0  0  0  0  0  0
   14.0094   23.4074   -0.2560 N   0  0  0  0  0  0  0  0  0  0  0  0
   15.2960   23.7485   -0.0105 C   0  0  0  0  0  0  0  0  0  0  0  0
   16.0963   23.6527    1.0653 N   0  0  0  0  0  0  0  0  0  0  0  0
   13.1452   22.7932    0.7322 C   0  0  0  0  0  0  0  0  0  0  0  0
   11.7313   23.2488    0.6278 C   0  0  0  0  0  0  0  0  0  0  0  0
   10.7838   22.1293    1.0798 C   0  0  0  0  0  0  0  0  0  0  0  0
   10.8445   21.0779   -0.0222 C   0  0  0  0  0  0  0  0  0  0  0  0
   10.2285   19.8993    0.3358 O   0  0  0  0  0  0  0  0  0  0  0  0
   12.2845   20.8103   -0.4190 C   0  0  0  0  0  0  0  0  0  0  0  0
   13.1955   21.2942    0.6835 C   0  0  0  0  0  0  0  0  0  0  0  0
   10.0122   19.4156   -0.5176 H   0  0  0  0  0  0  0  0  0  0  0  0
   14.9940   24.8035   -3.4722 C   0  0  0  0  0  0  0  0  0  0  0  0
   14.5094   26.0280   -3.8218 C   0  0  0  0  0  0  0  0  0  0  0  0
   14.6450   26.4539   -5.1351 C   0  0  0  0  0  0  0  0  0  0  0  0
   15.2641   25.6330   -6.0536 C   0  0  0  0  0  0  0  0  0  0  0  0
   15.7485   24.3998   -5.6866 C   0  0  0  0  0  0  0  0  0  0  0  0
   15.6165   23.9744   -4.3878 C   0  0  0  0  0  0  0  0  0  0  0  0
   15.4547   26.1370   -7.7256 S   0  0  0  0  0  0  0  0  0  0  0  0
   15.6729   27.9017   -7.8071 C   0  0  0  0  0  0  0  0  0  0  0  0
   14.2597   25.6979   -8.5002 O   0  0  0  0  0  0  0  0  0  0  0  0
   16.6685   25.4609   -8.2622 O   0  0  0  0  0  0  0  0  0  0  0  0
   18.1067   23.9026    2.2992 N   0  0  0  0  0  0  0  0  0  0  0  0
   17.5884   23.5162    3.1431 H   0  0  0  0  0  0  0  0  0  0  0  0
   19.4976   24.2453    2.3855 C   0  0  0  0  0  0  0  0  0  0  0  0
   19.7542   25.4829    3.1761 C   0  0  0  0  0  0  0  0  0  0  0  0
   18.6624   27.7271    2.9144 C   0  0  0  0  0  0  0  0  0  0  0  0
   19.6326   26.7352    2.3286 C   0  0  0  0  0  0  0  0  0  0  0  0
 32 33  1  0  0  0
 33 31  1  0  0  0
 31 30  1  0  0  0
 30 28  1  0  0  0
 28  1  1  0  0  0
  1  2  2  0  0  0
  2  3  1  0  0  0
  3  4  2  0  0  0
  4  5  1  0  0  0
  5  6  2  0  0  0
  6  7  1  0  0  0
  7 10  1  0  0  0
 10 11  1  0  0  0
 11 12  1  0  0  0
 12 13  1  0  0  0
 13 14  1  0  0  0
 13 15  1  0  0  0
 15 16  1  0  0  0
  7  8  1  0  0  0
  8  9  2  0  0  0
  5 18  1  0  0  0
 18 19  2  0  0  0
 19 20  1  0  0  0
 20 21  2  0  0  0
 21 22  1  0  0  0
 22 23  2  0  0  0
 21 24  1  0  0  0
 24 25  1  0  0  0
 24 26  2  0  0  0
 24 27  2  0  0  0
  9  1  1  0  0  0
 23 18  1  0  0  0
  8  4  1  0  0  0
 16 10  1  0  0  0
 28 29  1  0  0  0
 14 17  1  0  0  0
M  END
> <minimizedAffinity>
16.34345

> <CNNscore>
0.7034874558

> <CNNaffinity>
7.9175086021

> <CNN_VS>
5.5698680878

> <CNNaffinity_variance>
0.7590060234

$$$$
[H]O[C@]1([H])C([H])([H])C([H])([H])[C@@]([H])(n2c([H])c(-c3c([H])c([H])c(S(=O)(=O)C([H])([H])[H])c([H])c3[H])c3c([H])nc(N([H])C([H])([H])C([H])([H])C([H])([H])C([H])([H])[H])nc32)C([H])([H])C1([H])[H]


 33 36  0  0  0  0  0  0  0  0999 V2000
   15.0635   25.1809    0.8393 C   0  0  0  0  0  0  0  0  0  0  0  0
   15.4116   26.0471   -0.1141 N   0  0  0  0  0  0  0  0  0  0  0  0
   15.4066   25.7078   -1.4082 C   0  0  0  0  0  0  0  0  0  0  0  0
   15.0333   24.4298   -1.7805 C   0  0  0  0  0  0  0  0  0  0  0  0
   14.9301   23.8009   -2.9916 C   0  0  0  0  0  0  0  0  0  0  0  0
   14.5047   22.5199   -2.7209 C   0  0  0  0  0  0  0  0  0  0  0  0
   14.3444   22.3392   -1.4069 N   0  0  0  0  0  0  0  0  0  0  0  0
   14.6681   23.5127   -0.8155 C   0  0  0  0  0  0  0  0  0  0  0  0
   14.7008   23.9353    0.4603 N   0  0  0  0  0  0  0  0  0  0  0  0
   13.9166   21.1666   -0.6703 C   0  0  0  0  0  0  0  0  0  0  0  0
   14.1392   21.2916    0.7968 C   0  0  0  0  0  0  0  0  0  0  0  0
   13.0725   20.4945    1.5598 C   0  0  0  0  0  0  0  0  0  0  0  0
   11.7774   21.2785    1.3829 C   0  0  0  0  0  0  0  0  0  0  0  0
   10.6717   20.5786    1.8124 O   0  0  0  0  0  0  0  0  0  0  0  0
   11.6006   21.6872   -0.0678 C   0  0  0  0  0  0  0  0  0  0  0  0
   12.4809   20.8181   -0.9334 C   0  0  0  0  0  0  0  0  0  0  0  0
    9.9496   21.2558    1.9832 H   0  0  0  0  0  0  0  0  0  0  0  0
   15.2145   24.3707   -4.3016 C   0  0  0  0  0  0  0  0  0  0  0  0
   14.8298   25.6397   -4.6146 C   0  0  0  0  0  0  0  0  0  0  0  0
   15.1222   26.1382   -5.8758 C   0  0  0  0  0  0  0  0  0  0  0  0
   15.7925   25.3427   -6.7806 C   0  0  0  0  0  0  0  0  0  0  0  0
   16.1747   24.0639   -6.4509 C   0  0  0  0  0  0  0  0  0  0  0  0
   15.8874   23.5665   -5.2037 C   0  0  0  0  0  0  0  0  0  0  0  0
   16.1807   25.9382   -8.3871 S   0  0  0  0  0  0  0  0  0  0  0  0
   17.4335   24.9137   -9.1284 C   0  0  0  0  0  0  0  0  0  0  0  0
   16.6270   27.3560   -8.2803 O   0  0  0  0  0  0  0  0  0  0  0  0
   14.9367   25.8707   -9.2031 O   0  0  0  0  0  0  0  0  0  0  0  0
   15.0509   25.4862    2.2206 N   0  0  0  0  0  0  0  0  0  0  0  0
   15.4920   24.7872    2.8890 H   0  0  0  0  0  0  0  0  0  0  0  0
   14.4626   26.7001    2.7106 C   0  0  0  0  0  0  0  0  0  0  0  0
   13.2814   27.1470    1.9183 C   0  0  0  0  0  0  0  0  0  0  0  0
   12.0919   25.8891    0.1019 C   0  0  0  0  0  0  0  0  0  0  0  0
   12.3533   25.9955    1.5813 C   0  0  0  0  0  0  0  0  0  0  0  0
 32 33  1  0  0  0
 33 31  1  0  0  0
 31 30  1  0  0  0
 30 28  1  0  0  0
 28  1  1  0  0  0
  1  2  2  0  0  0
  2  3  1  0  0  0
  3  4  2  0  0  0
  4  5  1  0  0  0
  5  6  2  0  0  0
  6  7  1  0  0  0
  7 10  1  0  0  0
 10 11  1  0  0  0
 11 12  1  0  0  0
 12 13  1  0  0  0
 13 14  1  0  0  0
 13 15  1  0  0  0
 15 16  1  0  0  0
  7  8  1  0  0  0
  8  9  2  0  0  0
  5 18  1  0  0  0
 18 19  2  0  0  0
 19 20  1  0  0  0
 20 21  2  0  0  0
 21 22  1  0  0  0
 22 23  2  0  0  0
 21 24  1  0  0  0
 24 25  1  0  0  0
 24 26  2  0  0  0
 24 27  2  0  0  0
  9  1  1  0  0  0
 23 18  1  0  0  0
  8  4  1  0  0  0
 16 10  1  0  0  0
 28 29  1  0  0  0
 14 17  1  0  0  0
M  END
> <minimizedAffinity>
12.12161

> <CNNscore>
0.6500964761

> <CNNaffinity>
7.4814291000

> <CNN_VS>
4.8636507988

> <CNNaffinity_variance>
0.6146143675

$$$$
[H]O[C@]1([H])C([H])([H])C([H])([H])[C@@]([H])(n2c([H])c(-c3c([H])c([H])c(S(=O)(=O)C([H])([H])[H])c([H])c3[H])c3c([H])nc(N([H])C([H])([H])C([H])([H])C([H])([H])C([H])([H])[H])nc32)C([H])([H])C1([H])[H]


 33 36  0  0  0  0  0  0  0  0999 V2000
   14.4072   21.5933    0.5370 C   0  0  0  0  0  0  0  0  0  0  0  0
   15.1467   21.8197   -0.5503 N   0  0  0  0  0  0  0  0  0  0  0  0
   14.8415   22.7908   -1.4184 C   0  0  0  0  0  0  0  0  0  0  0  0
   13.7338   23.5871   -1.1948 C   0  0  0  0  0  0  0  0  0  0  0  0
   13.1792   24.6326   -1.8821 C   0  0  0  0  0  0  0  0  0  0  0  0
   12.0750   25.0220   -1.1579 C   0  0  0  0  0  0  0  0  0  0  0  0
   11.9311   24.2660   -0.0658 N   0  0  0  0  0  0  0  0  0  0  0  0
   12.9504   23.3757   -0.0779 C   0  0  0  0  0  0  0  0  0  0  0  0
   13.3275   22.3798    0.7426 N   0  0  0  0  0  0  0  0  0  0  0  0
   10.9250   24.3117    0.9764 C   0  0  0  0  0  0  0  0  0  0  0  0
    9.5429   24.4549    0.4407 C   0  0  0  0  0  0  0  0  0  0  0  0
    8.5420   23.7664    1.3786 C   0  0  0  0  0  0  0  0  0  0  0  0
    8.7818   22.2718    1.2002 C   0  0  0  0  0  0  0  0  0  0  0  0
    8.1234   21.5135    2.1426 O   0  0  0  0  0  0  0  0  0  0  0  0
   10.2679   21.9667    1.2356 C   0  0  0  0  0  0  0  0  0  0  0  0
   10.9905   23.1211    1.8874 C   0  0  0  0  0  0  0  0  0  0  0  0
    8.0474   20.5857    1.7651 H   0  0  0  0  0  0  0  0  0  0  0  0
   13.6588   25.2144   -3.1283 C   0  0  0  0  0  0  0  0  0  0  0  0
   14.5714   24.5632   -3.9025 C   0  0  0  0  0  0  0  0  0  0  0  0
   14.9990   25.1582   -5.0806 C   0  0  0  0  0  0  0  0  0  0  0  0
   14.4938   26.3894   -5.4405 C   0  0  0  0  0  0  0  0  0  0  0  0
   13.5732   27.0350   -4.6494 C   0  0  0  0  0  0  0  0  0  0  0  0
   13.1472   26.4497   -3.4827 C   0  0  0  0  0  0  0  0  0  0  0  0
   15.0108   27.1748   -6.9244 S   0  0  0  0  0  0  0  0  0  0  0  0
   16.1587   26.1306   -7.7964 C   0  0  0  0  0  0  0  0  0  0  0  0
   15.6194   28.4921   -6.5853 O   0  0  0  0  0  0  0  0  0  0  0  0
   13.7992   27.3903   -7.7633 O   0  0  0  0  0  0  0  0  0  0  0  0
   14.6839   20.5817    1.4866 N   0  0  0  0  0  0  0  0  0  0  0  0
   13.9063   19.8977    1.7262 H   0  0  0  0  0  0  0  0  0  0  0  0
   15.9722   20.4766    2.1101 C   0  0  0  0  0  0  0  0  0  0  0  0
   16.6205   21.7966    2.3549 C   0  0  0  0  0  0  0  0  0  0  0  0
   18.0609   23.5301    1.2517 C   0  0  0  0  0  0  0  0  0  0  0  0
   16.9727   22.5064    1.0614 C   0  0  0  0  0  0  0  0  0  0  0  0
 32 33  1  0  0  0
 33 31  1  0  0  0
 31 30  1  0  0  0
 30 28  1  0  0  0
 28  1  1  0  0  0
  1  2  2  0  0  0
  2  3  1  0  0  0
  3  4  2  0  0  0
  4  5  1  0  0  0
  5  6  2  0  0  0
  6  7  1  0  0  0
  7 10  1  0  0  0
 10 11  1  0  0  0
 11 12  1  0  0  0
 12 13  1  0  0  0
 13 14  1  0  0  0
 13 15  1  0  0  0
 15 16  1  0  0  0
  7  8  1  0  0  0
  8  9  2  0  0  0
  5 18  1  0  0  0
 18 19  2  0  0  0
 19 20  1  0  0  0
 20 21  2  0  0  0
 21 22  1  0  0  0
 22 23  2  0  0  0
 21 24  1  0  0  0
 24 25  1  0  0  0
 24 26  2  0  0  0
 24 27  2  0  0  0
  9  1  1  0  0  0
 23 18  1  0  0  0
  8  4  1  0  0  0
 16 10  1  0  0  0
 28 29  1  0  0  0
 14 17  1  0  0  0
M  END
> <minimizedAffinity>
3.99050

> <CNNscore>
0.5983973145

> <CNNaffinity>
7.7613015175

> <CNN_VS>
4.6443419456

> <CNNaffinity_variance>
0.9550892711

$$$$
[H]O[C@]1([H])C([H])([H])C([H])([H])[C@@]([H])(n2c([H])c(-c3c([H])c([H])c(S(=O)(=O)C([H])([H])[H])c([H])c3[H])c3c([H])nc(N([H])C([H])([H])C([H])([H])C([H])([H])C([H])([H])[H])nc32)C([H])([H])C1([H])[H]


 33 36  0  0  0  0  0  0  0  0999 V2000
   15.5732   22.8574    0.5838 C   0  0  0  0  0  0  0  0  0  0  0  0
   16.3827   23.0860   -0.4519 N   0  0  0  0  0  0  0  0  0  0  0  0
   15.9624   23.7368   -1.5426 C   0  0  0  0  0  0  0  0  0  0  0  0
   14.6578   24.1891   -1.6109 C   0  0  0  0  0  0  0  0  0  0  0  0
   13.9521   24.8684   -2.5667 C   0  0  0  0  0  0  0  0  0  0  0  0
   12.6843   25.0363   -2.0571 C   0  0  0  0  0  0  0  0  0  0  0  0
   12.5844   24.4934   -0.8405 N   0  0  0  0  0  0  0  0  0  0  0  0
   13.7979   23.9668   -0.5541 C   0  0  0  0  0  0  0  0  0  0  0  0
   14.3007   23.3055    0.5029 N   0  0  0  0  0  0  0  0  0  0  0  0
   11.4542   24.4300    0.0646 C   0  0  0  0  0  0  0  0  0  0  0  0
   10.1468   24.3684   -0.6455 C   0  0  0  0  0  0  0  0  0  0  0  0
    9.1320   23.5759    0.1897 C   0  0  0  0  0  0  0  0  0  0  0  0
    9.5880   22.1237    0.1097 C   0  0  0  0  0  0  0  0  0  0  0  0
    8.9184   21.3088    0.9955 O   0  0  0  0  0  0  0  0  0  0  0  0
   11.0839   22.0254    0.3444 C   0  0  0  0  0  0  0  0  0  0  0  0
   11.5572   23.2850    1.0290 C   0  0  0  0  0  0  0  0  0  0  0  0
    9.0151   20.3692    0.6533 H   0  0  0  0  0  0  0  0  0  0  0  0
   14.4424   25.3206   -3.8616 C   0  0  0  0  0  0  0  0  0  0  0  0
   14.2399   26.6007   -4.2818 C   0  0  0  0  0  0  0  0  0  0  0  0
   14.7246   26.9844   -5.5237 C   0  0  0  0  0  0  0  0  0  0  0  0
   15.3974   26.0666   -6.3020 C   0  0  0  0  0  0  0  0  0  0  0  0
   15.5944   24.7780   -5.8650 C   0  0  0  0  0  0  0  0  0  0  0  0
   15.1164   24.3941   -4.6365 C   0  0  0  0  0  0  0  0  0  0  0  0
   16.0259   26.5144   -7.8801 S   0  0  0  0  0  0  0  0  0  0  0  0
   16.4349   28.2467   -7.9018 C   0  0  0  0  0  0  0  0  0  0  0  0
   15.0084   26.1802   -8.9163 O   0  0  0  0  0  0  0  0  0  0  0  0
   17.2569   25.7103   -8.1172 O   0  0  0  0  0  0  0  0  0  0  0  0
   15.9649   22.1755    1.7599 N   0  0  0  0  0  0  0  0  0  0  0  0
   16.4702   22.7308    2.5124 H   0  0  0  0  0  0  0  0  0  0  0  0
   15.6915   20.7779    1.9376 C   0  0  0  0  0  0  0  0  0  0  0  0
   14.2892   20.4016    1.5995 C   0  0  0  0  0  0  0  0  0  0  0  0
   15.3871   19.6273   -0.5199 C   0  0  0  0  0  0  0  0  0  0  0  0
   14.1161   20.1223    0.1185 C   0  0  0  0  0  0  0  0  0  0  0  0
 32 33  1  0  0  0
 33 31  1  0  0  0
 31 30  1  0  0  0
 30 28  1  0  0  0
 28  1  1  0  0  0
  1  2  2  0  0  0
  2  3  1  0  0  0
  3  4  2  0  0  0
  4  5  1  0  0  0
  5  6  2  0  0  0
  6  7  1  0  0  0
  7 10  1  0  0  0
 10 11  1  0  0  0
 11 12  1  0  0  0
 12 13  1  0  0  0
 13 14  1  0  0  0
 13 15  1  0  0  0
 15 16  1  0  0  0
  7  8  1  0  0  0
  8  9  2  0  0  0
  5 18  1  0  0  0
 18 19  2  0  0  0
 19 20  1  0  0  0
 20 21  2  0  0  0
 21 22  1  0  0  0
 22 23  2  0  0  0
 21 24  1  0  0  0
 24 25  1  0  0  0
 24 26  2  0  0  0
 24 27  2  0  0  0
  9  1  1  0  0  0
 23 18  1  0  0  0
  8  4  1  0  0  0
 16 10  1  0  0  0
 28 29  1  0  0  0
 14 17  1  0  0  0
M  END
> <minimizedAffinity>
5.73850

> <CNNscore>
0.5980945826

> <CNNaffinity>
7.7799553871

> <CNN_VS>
4.6531491280

> <CNNaffinity_variance>
1.0850439072

$$$$
[H]O[C@]1([H])C([H])([H])C([H])([H])[C@@]([H])(n2c([H])c(-c3c([H])c([H])c(S(=O)(=O)C([H])([H])[H])c([H])c3[H])c3c([H])nc(N([H])C([H])([H])C([H])([H])C([H])([H])C([H])([H])[H])nc32)C([H])([H])C1([H])[H]


 33 36  0  0  0  0  0  0  0  0999 V2000
   13.0040   21.6551    1.4347 C   0  0  0  0  0  0  0  0  0  0  0  0
   14.0482   21.9914    0.6752 N   0  0  0  0  0  0  0  0  0  0  0  0
   13.9701   22.9690   -0.2346 C   0  0  0  0  0  0  0  0  0  0  0  0
   12.7824   23.6563   -0.4022 C   0  0  0  0  0  0  0  0  0  0  0  0
   12.4017   24.6787   -1.2285 C   0  0  0  0  0  0  0  0  0  0  0  0
   11.0834   24.9396   -0.9300 C   0  0  0  0  0  0  0  0  0  0  0  0
   10.6443   24.1275    0.0358 N   0  0  0  0  0  0  0  0  0  0  0  0
   11.6855   23.3299    0.3699 C   0  0  0  0  0  0  0  0  0  0  0  0
   11.8495   22.3358    1.2598 N   0  0  0  0  0  0  0  0  0  0  0  0
    9.3406   24.0410    0.6630 C   0  0  0  0  0  0  0  0  0  0  0  0
    8.8733   22.6377    0.8357 C   0  0  0  0  0  0  0  0  0  0  0  0
    7.9808   22.5305    2.0796 C   0  0  0  0  0  0  0  0  0  0  0  0
    8.9225   22.6838    3.2682 C   0  0  0  0  0  0  0  0  0  0  0  0
    8.2502   22.8430    4.4596 O   0  0  0  0  0  0  0  0  0  0  0  0
    9.8679   23.8500    3.0469 C   0  0  0  0  0  0  0  0  0  0  0  0
    9.2923   24.7533    1.9828 C   0  0  0  0  0  0  0  0  0  0  0  0
    8.8936   22.5944    5.1899 H   0  0  0  0  0  0  0  0  0  0  0  0
   13.2242   25.3531   -2.2237 C   0  0  0  0  0  0  0  0  0  0  0  0
   12.6964   26.3044   -3.0440 C   0  0  0  0  0  0  0  0  0  0  0  0
   13.5192   26.9180   -3.9772 C   0  0  0  0  0  0  0  0  0  0  0  0
   14.8467   26.5538   -4.0540 C   0  0  0  0  0  0  0  0  0  0  0  0
   15.3658   25.5922   -3.2197 C   0  0  0  0  0  0  0  0  0  0  0  0
   14.5549   24.9823   -2.2946 C   0  0  0  0  0  0  0  0  0  0  0  0
   15.9201   27.3079   -5.2224 S   0  0  0  0  0  0  0  0  0  0  0  0
   15.7896   26.4776   -6.7916 C   0  0  0  0  0  0  0  0  0  0  0  0
   17.3133   27.2638   -4.6951 O   0  0  0  0  0  0  0  0  0  0  0  0
   15.4925   28.7265   -5.3739 O   0  0  0  0  0  0  0  0  0  0  0  0
   13.0313   20.6311    2.4105 N   0  0  0  0  0  0  0  0  0  0  0  0
   13.8223   20.6410    3.1205 H   0  0  0  0  0  0  0  0  0  0  0  0
   12.0254   19.6081    2.4461 C   0  0  0  0  0  0  0  0  0  0  0  0
   10.8079   19.9476    1.6556 C   0  0  0  0  0  0  0  0  0  0  0  0
    9.7420   19.9432   -0.6161 C   0  0  0  0  0  0  0  0  0  0  0  0
   10.9456   19.5484    0.1986 C   0  0  0  0  0  0  0  0  0  0  0  0
 32 33  1  0  0  0
 33 31  1  0  0  0
 31 30  1  0  0  0
 30 28  1  0  0  0
 28  1  1  0  0  0
  1  2  2  0  0  0
  2  3  1  0  0  0
  3  4  2  0  0  0
  4  5  1  0  0  0
  5  6  2  0  0  0
  6  7  1  0  0  0
  7 10  1  0  0  0
 10 11  1  0  0  0
 11 12  1  0  0  0
 12 13  1  0  0  0
 13 14  1  0  0  0
 13 15  1  0  0  0
 15 16  1  0  0  0
  7  8  1  0  0  0
  8  9  2  0  0  0
  5 18  1  0  0  0
 18 19  2  0  0  0
 19 20  1  0  0  0
 20 21  2  0  0  0
 21 22  1  0  0  0
 22 23  2  0  0  0
 21 24  1  0  0  0
 24 25  1  0  0  0
 24 26  2  0  0  0
 24 27  2  0  0  0
  9  1  1  0  0  0
 23 18  1  0  0  0
  8  4  1  0  0  0
 16 10  1  0  0  0
 28 29  1  0  0  0
 14 17  1  0  0  0
M  END
> <minimizedAffinity>
-7.00703

> <CNNscore>
0.5802171230

> <CNNaffinity>
7.5766029358

> <CNN_VS>
4.3960747719

> <CNNaffinity_variance>
0.1534543037

$$$$
[H]O[C@]1([H])C([H])([H])C([H])([H])[C@@]([H])(n2c([H])c(-c3c([H])c([H])c(S(=O)(=O)C([H])([H])[H])c([H])c3[H])c3c([H])nc(N([H])C([H])([H])C([H])([H])C([H])([H])C([H])([H])[H])nc32)C([H])([H])C1([H])[H]


 33 36  0  0  0  0  0  0  0  0999 V2000
   13.6063   21.5221    0.4526 C   0  0  0  0  0  0  0  0  0  0  0  0
   14.6235   22.0008   -0.2662 N   0  0  0  0  0  0  0  0  0  0  0  0
   14.4774   23.0565   -1.0748 C   0  0  0  0  0  0  0  0  0  0  0  0
   13.2460   23.6763   -1.1776 C   0  0  0  0  0  0  0  0  0  0  0  0
   12.7955   24.7480   -1.8998 C   0  0  0  0  0  0  0  0  0  0  0  0
   11.4636   24.8895   -1.5815 C   0  0  0  0  0  0  0  0  0  0  0  0
   11.0827   23.9582   -0.7026 N   0  0  0  0  0  0  0  0  0  0  0  0
   12.1757   23.2026   -0.4455 C   0  0  0  0  0  0  0  0  0  0  0  0
   12.4085   22.1382    0.3420 N   0  0  0  0  0  0  0  0  0  0  0  0
    9.7896   23.7232   -0.0916 C   0  0  0  0  0  0  0  0  0  0  0  0
    9.4611   22.2758    0.0296 C   0  0  0  0  0  0  0  0  0  0  0  0
    8.5751   22.0394    1.2603 C   0  0  0  0  0  0  0  0  0  0  0  0
    9.4894   22.2435    2.4627 C   0  0  0  0  0  0  0  0  0  0  0  0
    8.7967   22.2953    3.6519 O   0  0  0  0  0  0  0  0  0  0  0  0
   10.3172   23.5034    2.2897 C   0  0  0  0  0  0  0  0  0  0  0  0
    9.6629   24.3819    1.2507 C   0  0  0  0  0  0  0  0  0  0  0  0
    9.4565   22.0861    4.3799 H   0  0  0  0  0  0  0  0  0  0  0  0
   13.5680   25.5711   -2.8203 C   0  0  0  0  0  0  0  0  0  0  0  0
   12.9578   26.4783   -3.6332 C   0  0  0  0  0  0  0  0  0  0  0  0
   13.7359   27.2386   -4.4942 C   0  0  0  0  0  0  0  0  0  0  0  0
   15.1030   27.0605   -4.5084 C   0  0  0  0  0  0  0  0  0  0  0  0
   15.7051   26.1412   -3.6823 C   0  0  0  0  0  0  0  0  0  0  0  0
   14.9388   25.3867   -2.8287 C   0  0  0  0  0  0  0  0  0  0  0  0
   16.1218   28.0041   -5.5844 S   0  0  0  0  0  0  0  0  0  0  0  0
   16.1338   27.2720   -7.2069 C   0  0  0  0  0  0  0  0  0  0  0  0
   17.4940   28.0769   -5.0076 O   0  0  0  0  0  0  0  0  0  0  0  0
   15.5438   29.3745   -5.6619 O   0  0  0  0  0  0  0  0  0  0  0  0
   13.7049   20.4104    1.3221 N   0  0  0  0  0  0  0  0  0  0  0  0
   12.8931   20.2207    1.9816 H   0  0  0  0  0  0  0  0  0  0  0  0
   14.8620   19.5614    1.3186 C   0  0  0  0  0  0  0  0  0  0  0  0
   16.1319   20.2929    1.0452 C   0  0  0  0  0  0  0  0  0  0  0  0
   17.2121   22.5569    1.1103 C   0  0  0  0  0  0  0  0  0  0  0  0
   16.1511   21.6629    1.6963 C   0  0  0  0  0  0  0  0  0  0  0  0
 32 33  1  0  0  0
 33 31  1  0  0  0
 31 30  1  0  0  0
 30 28  1  0  0  0
 28  1  1  0  0  0
  1  2  2  0  0  0
  2  3  1  0  0  0
  3  4  2  0  0  0
  4  5  1  0  0  0
  5  6  2  0  0  0
  6  7  1  0  0  0
  7 10  1  0  0  0
 10 11  1  0  0  0
 11 12  1  0  0  0
 12 13  1  0  0  0
 13 14  1  0  0  0
 13 15  1  0  0  0
 15 16  1  0  0  0
  7  8  1  0  0  0
  8  9  2  0  0  0
  5 18  1  0  0  0
 18 19  2  0  0  0
 19 20  1  0  0  0
 20 21  2  0  0  0
 21 22  1  0  0  0
 22 23  2  0  0  0
 21 24  1  0  0  0
 24 25  1  0  0  0
 24 26  2  0  0  0
 24 27  2  0  0  0
  9  1  1  0  0  0
 23 18  1  0  0  0
  8  4  1  0  0  0
 16 10  1  0  0  0
 28 29  1  0  0  0
 14 17  1  0  0  0
M  END
> <minimizedAffinity>
-1.92312

> <CNNscore>
0.5718992352

> <CNNaffinity>
7.7095398903

> <CNN_VS>
4.4090800285

> <CNNaffinity_variance>
0.5595759153

$$$$
[H]O[C@]1([H])C([H])([H])C([H])([H])[C@@]([H])(n2c([H])c(-c3c([H])c([H])c(S(=O)(=O)C([H])([H])[H])c([H])c3[H])c3c([H])nc(N([H])C([H])([H])C([H])([H])C([H])([H])C([H])([H])[H])nc32)C([H])([H])C1([H])[H]


 33 36  0  0  0  0  0  0  0  0999 V2000
   16.4256   24.5392   -1.1388 C   0  0  0  0  0  0  0  0  0  0  0  0
   15.7419   23.6905   -0.3689 N   0  0  0  0  0  0  0  0  0  0  0  0
   14.4069   23.6173   -0.4167 C   0  0  0  0  0  0  0  0  0  0  0  0
   13.7059   24.4366   -1.2817 C   0  0  0  0  0  0  0  0  0  0  0  0
   12.3729   24.5896   -1.5515 C   0  0  0  0  0  0  0  0  0  0  0  0
   12.2890   25.5674   -2.5170 C   0  0  0  0  0  0  0  0  0  0  0  0
   13.5035   26.0157   -2.8472 N   0  0  0  0  0  0  0  0  0  0  0  0
   14.3871   25.3243   -2.0903 C   0  0  0  0  0  0  0  0  0  0  0  0
   15.7269   25.3338   -1.9796 N   0  0  0  0  0  0  0  0  0  0  0  0
   13.8966   27.0296   -3.8053 C   0  0  0  0  0  0  0  0  0  0  0  0
   15.3410   27.3810   -3.7164 C   0  0  0  0  0  0  0  0  0  0  0  0
   15.8657   27.7996   -5.0966 C   0  0  0  0  0  0  0  0  0  0  0  0
   15.9170   26.5159   -5.9168 C   0  0  0  0  0  0  0  0  0  0  0  0
   16.1475   26.7507   -7.2541 O   0  0  0  0  0  0  0  0  0  0  0  0
   14.6331   25.7258   -5.7431 C   0  0  0  0  0  0  0  0  0  0  0  0
   13.5582   26.6456   -5.2159 C   0  0  0  0  0  0  0  0  0  0  0  0
   16.5005   25.8936   -7.6413 H   0  0  0  0  0  0  0  0  0  0  0  0
   11.2667   23.8660   -0.9396 C   0  0  0  0  0  0  0  0  0  0  0  0
   10.5377   24.4192    0.0698 C   0  0  0  0  0  0  0  0  0  0  0  0
    9.4941   23.6906    0.6218 C   0  0  0  0  0  0  0  0  0  0  0  0
    9.2186   22.4288    0.1394 C   0  0  0  0  0  0  0  0  0  0  0  0
    9.9627   21.8832   -0.8799 C   0  0  0  0  0  0  0  0  0  0  0  0
   10.9964   22.6009   -1.4291 C   0  0  0  0  0  0  0  0  0  0  0  0
    7.9056   21.4755    0.8125 S   0  0  0  0  0  0  0  0  0  0  0  0
    8.0253   21.4448    2.5882 C   0  0  0  0  0  0  0  0  0  0  0  0
    7.9636   20.1020    0.2371 O   0  0  0  0  0  0  0  0  0  0  0  0
    6.6275   22.1267    0.4118 O   0  0  0  0  0  0  0  0  0  0  0  0
   17.8354   24.6578   -1.1288 N   0  0  0  0  0  0  0  0  0  0  0  0
   18.2954   25.1947   -1.9226 H   0  0  0  0  0  0  0  0  0  0  0  0
   18.6253   24.0740   -0.0825 C   0  0  0  0  0  0  0  0  0  0  0  0
   18.0190   24.2247    1.2711 C   0  0  0  0  0  0  0  0  0  0  0  0
   20.4531   24.5886    1.7599 C   0  0  0  0  0  0  0  0  0  0  0  0
   19.0627   24.5128    2.3335 C   0  0  0  0  0  0  0  0  0  0  0  0
 32 33  1  0  0  0
 33 31  1  0  0  0
 31 30  1  0  0  0
 30 28  1  0  0  0
 28  1  1  0  0  0
  1  2  2  0  0  0
  2  3  1  0  0  0
  3  4  2  0  0  0
  4  5  1  0  0  0
  5  6  2  0  0  0
  6  7  1  0  0  0
  7 10  1  0  0  0
 10 11  1  0  0  0
 11 12  1  0  0  0
 12 13  1  0  0  0
 13 14  1  0  0  0
 13 15  1  0  0  0
 15 16  1  0  0  0
  7  8  1  0  0  0
  8  9  2  0  0  0
  5 18  1  0  0  0
 18 19  2  0  0  0
 19 20  1  0  0  0
 20 21  2  0  0  0
 21 22  1  0  0  0
 22 23  2  0  0  0
 21 24  1  0  0  0
 24 25  1  0  0  0
 24 26  2  0  0  0
 24 27  2  0  0  0
  9  1  1  0  0  0
 23 18  1  0  0  0
  8  4  1  0  0  0
 16 10  1  0  0  0
 28 29  1  0  0  0
 14 17  1  0  0  0
M  END
> <minimizedAffinity>
0.53785

> <CNNscore>
0.5537945628

> <CNNaffinity>
7.7348952293

> <CNN_VS>
4.2835431099

> <CNNaffinity_variance>
0.5097349286

$$$$
[H]O[C@]1([H])C([H])([H])C([H])([H])[C@@]([H])(n2c([H])c(-c3c([H])c([H])c(S(=O)(=O)C([H])([H])[H])c([H])c3[H])c3c([H])nc(N([H])C([H])([H])C([H])([H])C([H])([H])C([H])([H])[H])nc32)C([H])([H])C1([H])[H]


 33 36  0  0  0  0  0  0  0  0999 V2000
   15.7229   24.8175   -0.1914 C   0  0  0  0  0  0  0  0  0  0  0  0
   15.1098   24.3551    0.8998 N   0  0  0  0  0  0  0  0  0  0  0  0
   13.7866   24.1612    0.9338 C   0  0  0  0  0  0  0  0  0  0  0  0
   13.0233   24.4435   -0.1837 C   0  0  0  0  0  0  0  0  0  0  0  0
   11.6839   24.3509   -0.4495 C   0  0  0  0  0  0  0  0  0  0  0  0
   11.5225   24.7783   -1.7481 C   0  0  0  0  0  0  0  0  0  0  0  0
   12.6959   25.1257   -2.2843 N   0  0  0  0  0  0  0  0  0  0  0  0
   13.6308   24.9230   -1.3268 C   0  0  0  0  0  0  0  0  0  0  0  0
   14.9639   25.0889   -1.2762 N   0  0  0  0  0  0  0  0  0  0  0  0
   13.0065   25.6269   -3.6082 C   0  0  0  0  0  0  0  0  0  0  0  0
   13.1411   27.1094   -3.6490 C   0  0  0  0  0  0  0  0  0  0  0  0
   14.1473   27.5159   -4.7342 C   0  0  0  0  0  0  0  0  0  0  0  0
   15.5123   27.1033   -4.1959 C   0  0  0  0  0  0  0  0  0  0  0  0
   16.5043   27.1871   -5.1476 O   0  0  0  0  0  0  0  0  0  0  0  0
   15.4544   25.6964   -3.6302 C   0  0  0  0  0  0  0  0  0  0  0  0
   14.2387   24.9939   -4.1851 C   0  0  0  0  0  0  0  0  0  0  0  0
   17.3765   27.2392   -4.6519 H   0  0  0  0  0  0  0  0  0  0  0  0
   10.6403   23.8944    0.4583 C   0  0  0  0  0  0  0  0  0  0  0  0
    9.9571   22.7399    0.2199 C   0  0  0  0  0  0  0  0  0  0  0  0
    8.9707   22.3469    1.1128 C   0  0  0  0  0  0  0  0  0  0  0  0
    8.7045   23.1291    2.2165 C   0  0  0  0  0  0  0  0  0  0  0  0
    9.4021   24.2916    2.4444 C   0  0  0  0  0  0  0  0  0  0  0  0
   10.3792   24.6844    1.5633 C   0  0  0  0  0  0  0  0  0  0  0  0
    7.4632   22.6648    3.3696 S   0  0  0  0  0  0  0  0  0  0  0  0
    6.5607   21.2580    2.7573 C   0  0  0  0  0  0  0  0  0  0  0  0
    6.5646   23.8301    3.6052 O   0  0  0  0  0  0  0  0  0  0  0  0
    8.1466   22.3013    4.6420 O   0  0  0  0  0  0  0  0  0  0  0  0
   17.1170   25.0408   -0.2821 N   0  0  0  0  0  0  0  0  0  0  0  0
   17.4494   26.0193   -0.5309 H   0  0  0  0  0  0  0  0  0  0  0  0
   18.0583   23.9834   -0.0465 C   0  0  0  0  0  0  0  0  0  0  0  0
   18.1233   23.5559    1.3802 C   0  0  0  0  0  0  0  0  0  0  0  0
   16.7477   21.4864    1.0309 C   0  0  0  0  0  0  0  0  0  0  0  0
   16.8913   22.7750    1.7971 C   0  0  0  0  0  0  0  0  0  0  0  0
 32 33  1  0  0  0
 33 31  1  0  0  0
 31 30  1  0  0  0
 30 28  1  0  0  0
 28  1  1  0  0  0
  1  2  2  0  0  0
  2  3  1  0  0  0
  3  4  2  0  0  0
  4  5  1  0  0  0
  5  6  2  0  0  0
  6  7  1  0  0  0
  7 10  1  0  0  0
 10 11  1  0  0  0
 11 12  1  0  0  0
 12 13  1  0  0  0
 13 14  1  0  0  0
 13 15  1  0  0  0
 15 16  1  0  0  0
  7  8  1  0  0  0
  8  9  2  0  0  0
  5 18  1  0  0  0
 18 19  2  0  0  0
 19 20  1  0  0  0
 20 21  2  0  0  0
 21 22  1  0  0  0
 22 23  2  0  0  0
 21 24  1  0  0  0
 24 25  1  0  0  0
 24 26  2  0  0  0
 24 27  2  0  0  0
  9  1  1  0  0  0
 23 18  1  0  0  0
  8  4  1  0  0  0
 16 10  1  0  0  0
 28 29  1  0  0  0
 14 17  1  0  0  0
M  END
> <minimizedAffinity>
-1.68041

> <CNNscore>
0.5402198434

> <CNNaffinity>
7.7719459534

> <CNN_VS>
4.1985592842

> <CNNaffinity_variance>
0.6544626355

$$$$
[H]O[C@@]1([H])C([H])=C(C(=O)N([H])[C@]2([H])[C@]([H])(O[H])[C@]([H])(O[H])[C@]([H])(O[H])[C@@]2([H])O[H])O[C@]([H])(O[C@@]([H])(n2c([H])c([H])c(=O)n([H])c2=O)[C@@]2([H])O[C@@]([H])(C(=O)N([H])[H])[C@]([H])(O[H])[C@]2([H])OC([H])([H])[H])[C@@]1([H])O[H]


 52 55  0  0  0  0  0  0  0  0999 V2000
   11.0175   22.7104   -0.7761 C   0  0  0  0  0  0  0  0  0  0  0  0
   10.0219   23.2991   -0.0106 O   0  0  0  0  0  0  0  0  0  0  0  0
    8.9238   22.6356    0.5317 C   0  0  0  0  0  0  0  0  0  0  0  0
    8.4006   21.6723   -0.1962 C   0  0  0  0  0  0  0  0  0  0  0  0
    9.0304   21.3884   -1.5198 C   0  0  0  0  0  0  0  0  0  0  0  0
    8.6593   20.1596   -2.0299 O   0  0  0  0  0  0  0  0  0  0  0  0
   10.5267   21.3634   -1.3003 C   0  0  0  0  0  0  0  0  0  0  0  0
   10.7707   20.3466   -0.3578 O   0  0  0  0  0  0  0  0  0  0  0  0
    8.7465   20.1759   -3.0202 H   0  0  0  0  0  0  0  0  0  0  0  0
   10.1663   19.5788   -0.5863 H   0  0  0  0  0  0  0  0  0  0  0  0
    8.3705   22.9689    1.8230 C   0  0  0  0  0  0  0  0  0  0  0  0
    8.0208   22.0486    2.6285 O   0  0  0  0  0  0  0  0  0  0  0  0
    8.2115   24.3205    2.2053 N   0  0  0  0  0  0  0  0  0  0  0  0
    8.4703   25.1109    1.6083 H   0  0  0  0  0  0  0  0  0  0  0  0
    7.6493   24.6162    3.5183 C   0  0  0  0  0  0  0  0  0  0  0  0
    6.9927   25.9663    3.4416 C   0  0  0  0  0  0  0  0  0  0  0  0
    7.7536   26.8958    2.7461 O   0  0  0  0  0  0  0  0  0  0  0  0
    6.8809   26.3418    4.9049 C   0  0  0  0  0  0  0  0  0  0  0  0
    6.6312   27.6887    5.0927 O   0  0  0  0  0  0  0  0  0  0  0  0
    8.2503   25.9474    5.4177 C   0  0  0  0  0  0  0  0  0  0  0  0
    9.1389   27.0430    5.3500 O   0  0  0  0  0  0  0  0  0  0  0  0
    8.7465   24.8435    4.5392 C   0  0  0  0  0  0  0  0  0  0  0  0
    8.9666   23.7199    5.3372 O   0  0  0  0  0  0  0  0  0  0  0  0
    8.6888   26.7046    2.9203 H   0  0  0  0  0  0  0  0  0  0  0  0
    7.1818   28.2034    4.4496 H   0  0  0  0  0  0  0  0  0  0  0  0
    9.9972   26.6860    5.7249 H   0  0  0  0  0  0  0  0  0  0  0  0
    9.0282   22.9471    4.7360 H   0  0  0  0  0  0  0  0  0  0  0  0
   11.4947   23.4881   -1.8170 O   0  0  0  0  0  0  0  0  0  0  0  0
   12.8746   23.4237   -1.9570 C   0  0  0  0  0  0  0  0  0  0  0  0
   13.3805   24.4643   -2.8198 N   0  0  0  0  0  0  0  0  0  0  0  0
   12.7435   25.6653   -2.8069 C   0  0  0  0  0  0  0  0  0  0  0  0
   13.1554   26.7141   -3.5915 C   0  0  0  0  0  0  0  0  0  0  0  0
   14.2441   26.5590   -4.4203 C   0  0  0  0  0  0  0  0  0  0  0  0
   14.6232   27.5191   -5.1402 O   0  0  0  0  0  0  0  0  0  0  0  0
   14.8448   25.3613   -4.4043 N   0  0  0  0  0  0  0  0  0  0  0  0
   14.4368   24.3404   -3.6345 C   0  0  0  0  0  0  0  0  0  0  0  0
   15.0439   23.2376   -3.6616 O   0  0  0  0  0  0  0  0  0  0  0  0
   15.6719   25.2457   -5.0347 H   0  0  0  0  0  0  0  0  0  0  0  0
   14.6410   24.4037   -0.4205 C   0  0  0  0  0  0  0  0  0  0  0  0
   15.6683   23.6834    0.4732 C   0  0  0  0  0  0  0  0  0  0  0  0
   15.9608   24.4188    1.6093 O   0  0  0  0  0  0  0  0  0  0  0  0
   14.9199   22.4082    0.7904 C   0  0  0  0  0  0  0  0  0  0  0  0
   14.2834   22.1748   -0.4545 O   0  0  0  0  0  0  0  0  0  0  0  0
   13.5794   23.3924   -0.6294 C   0  0  0  0  0  0  0  0  0  0  0  0
   16.9265   24.6396    1.5863 H   0  0  0  0  0  0  0  0  0  0  0  0
   15.8214   21.2936    1.1049 C   0  0  0  0  0  0  0  0  0  0  0  0
   15.4550   19.9760    0.7992 N   0  0  0  0  0  0  0  0  0  0  0  0
   16.9268   21.5411    1.6521 O   0  0  0  0  0  0  0  0  0  0  0  0
   15.4461   19.1962    1.4749 H   0  0  0  0  0  0  0  0  0  0  0  0
   15.1688   19.7652   -0.1842 H   0  0  0  0  0  0  0  0  0  0  0  0
   12.9286   25.5797    0.6365 C   0  0  0  0  0  0  0  0  0  0  0  0
   14.2490   25.5206    0.2909 O   0  0  0  0  0  0  0  0  0  0  0  0
 51 52  1  0  0  0
 52 39  1  0  0  0
 39 40  1  0  0  0
 40 41  1  0  0  0
 40 42  1  0  0  0
 42 43  1  0  0  0
 43 44  1  0  0  0
 44 29  1  0  0  0
 29 28  1  0  0  0
 28  1  1  0  0  0
  1  2  1  0  0  0
  2  3  1  0  0  0
  3  4  2  0  0  0
  4  5  1  0  0  0
  5  6  1  0  0  0
  5  7  1  0  0  0
  7  8  1  0  0  0
  3 11  1  0  0  0
 11 12  2  0  0  0
 11 13  1  0  0  0
 13 15  1  0  0  0
 15 16  1  0  0  0
 16 17  1  0  0  0
 16 18  1  0  0  0
 18 19  1  0  0  0
 18 20  1  0  0  0
 20 21  1  0  0  0
 20 22  1  0  0  0
 22 23  1  0  0  0
 29 30  1  0  0  0
 30 31  1  0  0  0
 31 32  2  0  0  0
 32 33  1  0  0  0
 33 34  2  0  0  0
 33 35  1  0  0  0
 35 36  1  0  0  0
 36 37  2  0  0  0
 42 46  1  0  0  0
 46 47  1  0  0  0
 46 48  2  0  0  0
 44 39  1  0  0  0
  7  1  1  0  0  0
 22 15  1  0  0  0
 36 30  1  0  0  0
 41 45  1  0  0  0
  6  9  1  0  0  0
  8 10  1  0  0  0
 13 14  1  0  0  0
 17 24  1  0  0  0
 19 25  1  0  0  0
 21 26  1  0  0  0
 23 27  1  0  0  0
 35 38  1  0  0  0
 47 49  1  0  0  0
 47 50  1  0  0  0
M  END
> <minimizedAffinity>
-5.47947

> <CNNscore>
0.5584182739

> <CNNaffinity>
6.2901682854

> <CNN_VS>
3.5125448704

> <CNNaffinity_variance>
0.3078895807

$$$$
[H]O[C@@]1([H])C([H])=C(C(=O)N([H])[C@]2([H])[C@]([H])(O[H])[C@]([H])(O[H])[C@]([H])(O[H])[C@@]2([H])O[H])O[C@]([H])(O[C@@]([H])(n2c([H])c([H])c(=O)n([H])c2=O)[C@@]2([H])O[C@@]([H])(C(=O)N([H])[H])[C@]([H])(O[H])[C@]2([H])OC([H])([H])[H])[C@@]1([H])O[H]


 52 55  0  0  0  0  0  0  0  0999 V2000
   13.2032   23.3437   -0.7700 C   0  0  0  0  0  0  0  0  0  0  0  0
   11.8628   22.9913   -0.7174 O   0  0  0  0  0  0  0  0  0  0  0  0
   11.3704   21.7533   -0.3111 C   0  0  0  0  0  0  0  0  0  0  0  0
   12.0847   20.6990   -0.6422 C   0  0  0  0  0  0  0  0  0  0  0  0
   13.3415   20.9321   -1.4138 C   0  0  0  0  0  0  0  0  0  0  0  0
   14.1851   19.8386   -1.3943 O   0  0  0  0  0  0  0  0  0  0  0  0
   14.0623   22.0822   -0.7462 C   0  0  0  0  0  0  0  0  0  0  0  0
   14.3104   21.6770    0.5789 O   0  0  0  0  0  0  0  0  0  0  0  0
   14.7706   19.8620   -2.1976 H   0  0  0  0  0  0  0  0  0  0  0  0
   14.5818   20.7114    0.5481 H   0  0  0  0  0  0  0  0  0  0  0  0
   10.1429   21.6088    0.4353 C   0  0  0  0  0  0  0  0  0  0  0  0
    9.3064   20.7018    0.1258 O   0  0  0  0  0  0  0  0  0  0  0  0
    9.8579   22.4732    1.5169 N   0  0  0  0  0  0  0  0  0  0  0  0
   10.4839   23.2242    1.8203 H   0  0  0  0  0  0  0  0  0  0  0  0
    8.6074   22.2946    2.2464 C   0  0  0  0  0  0  0  0  0  0  0  0
    7.9675   23.6466    2.3957 C   0  0  0  0  0  0  0  0  0  0  0  0
    8.8775   24.6378    2.7366 O   0  0  0  0  0  0  0  0  0  0  0  0
    6.9832   23.4027    3.5210 C   0  0  0  0  0  0  0  0  0  0  0  0
    6.5175   24.5754    4.0863 O   0  0  0  0  0  0  0  0  0  0  0  0
    7.8333   22.6098    4.4918 C   0  0  0  0  0  0  0  0  0  0  0  0
    8.4618   23.4715    5.4176 O   0  0  0  0  0  0  0  0  0  0  0  0
    8.8711   21.8967    3.6851 C   0  0  0  0  0  0  0  0  0  0  0  0
    8.7140   20.5254    3.8912 O   0  0  0  0  0  0  0  0  0  0  0  0
    9.5513   24.2385    3.3093 H   0  0  0  0  0  0  0  0  0  0  0  0
    7.2755   25.2083    4.1672 H   0  0  0  0  0  0  0  0  0  0  0  0
    8.9762   22.8542    6.0168 H   0  0  0  0  0  0  0  0  0  0  0  0
    9.2023   20.0683    3.1736 H   0  0  0  0  0  0  0  0  0  0  0  0
   13.5571   24.1481   -1.8396 O   0  0  0  0  0  0  0  0  0  0  0  0
   14.2656   25.2799   -1.4591 C   0  0  0  0  0  0  0  0  0  0  0  0
   15.4972   24.9465   -0.7846 N   0  0  0  0  0  0  0  0  0  0  0  0
   15.5401   25.0903    0.5667 C   0  0  0  0  0  0  0  0  0  0  0  0
   16.6673   24.7948    1.2928 C   0  0  0  0  0  0  0  0  0  0  0  0
   17.7944   24.3384    0.6466 C   0  0  0  0  0  0  0  0  0  0  0  0
   18.8285   24.0670    1.3105 O   0  0  0  0  0  0  0  0  0  0  0  0
   17.7124   24.2098   -0.6846 N   0  0  0  0  0  0  0  0  0  0  0  0
   16.6070   24.5005   -1.3882 C   0  0  0  0  0  0  0  0  0  0  0  0
   16.5899   24.3574   -2.6391 O   0  0  0  0  0  0  0  0  0  0  0  0
   18.5699   23.8628   -1.1735 H   0  0  0  0  0  0  0  0  0  0  0  0
   14.2401   25.6862   -3.9642 C   0  0  0  0  0  0  0  0  0  0  0  0
   15.2656   26.4239   -4.8457 C   0  0  0  0  0  0  0  0  0  0  0  0
   14.6601   27.0338   -5.9314 O   0  0  0  0  0  0  0  0  0  0  0  0
   15.8170   27.4262   -3.8568 C   0  0  0  0  0  0  0  0  0  0  0  0
   15.8388   26.6334   -2.6820 O   0  0  0  0  0  0  0  0  0  0  0  0
   14.4833   26.2263   -2.6068 C   0  0  0  0  0  0  0  0  0  0  0  0
   15.0362   26.6293   -6.7540 H   0  0  0  0  0  0  0  0  0  0  0  0
   17.1800   27.8533   -4.1939 C   0  0  0  0  0  0  0  0  0  0  0  0
   17.4354   28.5321   -5.3929 N   0  0  0  0  0  0  0  0  0  0  0  0
   18.1133   27.6004   -3.3891 O   0  0  0  0  0  0  0  0  0  0  0  0
   18.1395   28.2476   -6.0914 H   0  0  0  0  0  0  0  0  0  0  0  0
   16.8725   29.3894   -5.5973 H   0  0  0  0  0  0  0  0  0  0  0  0
   12.3462   27.0443   -3.9297 C   0  0  0  0  0  0  0  0  0  0  0  0
   13.0038   25.9909   -4.4990 O   0  0  0  0  0  0  0  0  0  0  0  0
 51 52  1  0  0  0
 52 39  1  0  0  0
 39 40  1  0  0  0
 40 41  1  0  0  0
 40 42  1  0  0  0
 42 43  1  0  0  0
 43 44  1  0  0  0
 44 29  1  0  0  0
 29 28  1  0  0  0
 28  1  1  0  0  0
  1  2  1  0  0  0
  2  3  1  0  0  0
  3  4  2  0  0  0
  4  5  1  0  0  0
  5  6  1  0  0  0
  5  7  1  0  0  0
  7  8  1  0  0  0
  3 11  1  0  0  0
 11 12  2  0  0  0
 11 13  1  0  0  0
 13 15  1  0  0  0
 15 16  1  0  0  0
 16 17  1  0  0  0
 16 18  1  0  0  0
 18 19  1  0  0  0
 18 20  1  0  0  0
 20 21  1  0  0  0
 20 22  1  0  0  0
 22 23  1  0  0  0
 29 30  1  0  0  0
 30 31  1  0  0  0
 31 32  2  0  0  0
 32 33  1  0  0  0
 33 34  2  0  0  0
 33 35  1  0  0  0
 35 36  1  0  0  0
 36 37  2  0  0  0
 42 46  1  0  0  0
 46 47  1  0  0  0
 46 48  2  0  0  0
 44 39  1  0  0  0
  7  1  1  0  0  0
 22 15  1  0  0  0
 36 30  1  0  0  0
 41 45  1  0  0  0
  6  9  1  0  0  0
  8 10  1  0  0  0
 13 14  1  0  0  0
 17 24  1  0  0  0
 19 25  1  0  0  0
 21 26  1  0  0  0
 23 27  1  0  0  0
 35 38  1  0  0  0
 47 49  1  0  0  0
 47 50  1  0  0  0
M  END
> <minimizedAffinity>
-1.44020

> <CNNscore>
0.4985071719

> <CNNaffinity>
6.4579086304

> <CNN_VS>
3.2193138599

> <CNNaffinity_variance>
0.6359764338

$$$$
[H]O[C@@]1([H])C([H])=C(C(=O)N([H])[C@]2([H])[C@]([H])(O[H])[C@]([H])(O[H])[C@]([H])(O[H])[C@@]2([H])O[H])O[C@]([H])(O[C@@]([H])(n2c([H])c([H])c(=O)n([H])c2=O)[C@@]2([H])O[C@@]([H])(C(=O)N([H])[H])[C@]([H])(O[H])[C@]2([H])OC([H])([H])[H])[C@@]1([H])O[H]


 52 55  0  0  0  0  0  0  0  0999 V2000
   11.5556   21.9928   -0.1849 C   0  0  0  0  0  0  0  0  0  0  0  0
   10.7151   22.8407    0.5210 O   0  0  0  0  0  0  0  0  0  0  0  0
    9.5993   22.4429    1.2538 C   0  0  0  0  0  0  0  0  0  0  0  0
    8.8968   21.4458    0.7602 C   0  0  0  0  0  0  0  0  0  0  0  0
    9.3611   20.8449   -0.5253 C   0  0  0  0  0  0  0  0  0  0  0  0
    8.7967   19.6073   -0.7654 O   0  0  0  0  0  0  0  0  0  0  0  0
   10.8571   20.6541   -0.4082 C   0  0  0  0  0  0  0  0  0  0  0  0
   11.0614   19.7994    0.6916 O   0  0  0  0  0  0  0  0  0  0  0  0
    8.7927   19.4333   -1.7443 H   0  0  0  0  0  0  0  0  0  0  0  0
   10.3489   19.0937    0.6554 H   0  0  0  0  0  0  0  0  0  0  0  0
    9.2135   23.0757    2.4929 C   0  0  0  0  0  0  0  0  0  0  0  0
    8.8625   22.3706    3.4917 O   0  0  0  0  0  0  0  0  0  0  0  0
    9.2217   24.4845    2.6089 N   0  0  0  0  0  0  0  0  0  0  0  0
    9.4916   25.1128    1.8471 H   0  0  0  0  0  0  0  0  0  0  0  0
    8.8257   25.0858    3.8776 C   0  0  0  0  0  0  0  0  0  0  0  0
    7.4378   24.6056    4.1982 C   0  0  0  0  0  0  0  0  0  0  0  0
    6.5980   24.6110    3.0930 O   0  0  0  0  0  0  0  0  0  0  0  0
    6.9870   25.6211    5.2278 C   0  0  0  0  0  0  0  0  0  0  0  0
    5.6185   25.6099    5.4249 O   0  0  0  0  0  0  0  0  0  0  0  0
    7.4525   26.9146    4.5920 C   0  0  0  0  0  0  0  0  0  0  0  0
    6.4266   27.4735    3.7984 O   0  0  0  0  0  0  0  0  0  0  0  0
    8.6286   26.5815    3.7305 C   0  0  0  0  0  0  0  0  0  0  0  0
    9.7263   27.3072    4.1957 O   0  0  0  0  0  0  0  0  0  0  0  0
    6.8463   25.3647    2.5347 H   0  0  0  0  0  0  0  0  0  0  0  0
    5.1747   25.5081    4.5450 H   0  0  0  0  0  0  0  0  0  0  0  0
    6.8253   28.3225    3.4449 H   0  0  0  0  0  0  0  0  0  0  0  0
   10.5288   26.8927    3.8130 H   0  0  0  0  0  0  0  0  0  0  0  0
   12.0255   22.4977   -1.3851 O   0  0  0  0  0  0  0  0  0  0  0  0
   13.0754   23.3923   -1.2260 C   0  0  0  0  0  0  0  0  0  0  0  0
   14.1109   22.8653   -0.3698 N   0  0  0  0  0  0  0  0  0  0  0  0
   14.3128   21.5208   -0.3714 C   0  0  0  0  0  0  0  0  0  0  0  0
   15.2767   20.9305    0.4081 C   0  0  0  0  0  0  0  0  0  0  0  0
   16.0693   21.7109    1.2199 C   0  0  0  0  0  0  0  0  0  0  0  0
   16.9534   21.1717    1.9350 O   0  0  0  0  0  0  0  0  0  0  0  0
   15.8399   23.0308    1.1931 N   0  0  0  0  0  0  0  0  0  0  0  0
   14.8958   23.6012    0.4284 C   0  0  0  0  0  0  0  0  0  0  0  0
   14.7284   24.8491    0.4447 O   0  0  0  0  0  0  0  0  0  0  0  0
   16.4434   23.6219    1.8105 H   0  0  0  0  0  0  0  0  0  0  0  0
   15.0894   23.8635   -2.6968 C   0  0  0  0  0  0  0  0  0  0  0  0
   15.3758   25.0750   -3.6040 C   0  0  0  0  0  0  0  0  0  0  0  0
   16.1358   24.7194   -4.7054 O   0  0  0  0  0  0  0  0  0  0  0  0
   13.9693   25.4814   -3.9828 C   0  0  0  0  0  0  0  0  0  0  0  0
   13.2994   25.2381   -2.7574 O   0  0  0  0  0  0  0  0  0  0  0  0
   13.6164   23.8733   -2.5437 C   0  0  0  0  0  0  0  0  0  0  0  0
   16.9881   25.2226   -4.6599 H   0  0  0  0  0  0  0  0  0  0  0  0
   13.8718   26.9042   -4.3290 C   0  0  0  0  0  0  0  0  0  0  0  0
   14.9741   27.5811   -4.8676 N   0  0  0  0  0  0  0  0  0  0  0  0
   12.7833   27.5043   -4.1345 O   0  0  0  0  0  0  0  0  0  0  0  0
   15.3704   28.4551   -4.4884 H   0  0  0  0  0  0  0  0  0  0  0  0
   15.4306   27.1727   -5.7153 H   0  0  0  0  0  0  0  0  0  0  0  0
   14.6787   21.8812   -3.8518 C   0  0  0  0  0  0  0  0  0  0  0  0
   15.5976   22.7689   -3.3681 O   0  0  0  0  0  0  0  0  0  0  0  0
 51 52  1  0  0  0
 52 39  1  0  0  0
 39 40  1  0  0  0
 40 41  1  0  0  0
 40 42  1  0  0  0
 42 43  1  0  0  0
 43 44  1  0  0  0
 44 29  1  0  0  0
 29 28  1  0  0  0
 28  1  1  0  0  0
  1  2  1  0  0  0
  2  3  1  0  0  0
  3  4  2  0  0  0
  4  5  1  0  0  0
  5  6  1  0  0  0
  5  7  1  0  0  0
  7  8  1  0  0  0
  3 11  1  0  0  0
 11 12  2  0  0  0
 11 13  1  0  0  0
 13 15  1  0  0  0
 15 16  1  0  0  0
 16 17  1  0  0  0
 16 18  1  0  0  0
 18 19  1  0  0  0
 18 20  1  0  0  0
 20 21  1  0  0  0
 20 22  1  0  0  0
 22 23  1  0  0  0
 29 30  1  0  0  0
 30 31  1  0  0  0
 31 32  2  0  0  0
 32 33  1  0  0  0
 33 34  2  0  0  0
 33 35  1  0  0  0
 35 36  1  0  0  0
 36 37  2  0  0  0
 42 46  1  0  0  0
 46 47  1  0  0  0
 46 48  2  0  0  0
 44 39  1  0  0  0
  7  1  1  0  0  0
 22 15  1  0  0  0
 36 30  1  0  0  0
 41 45  1  0  0  0
  6  9  1  0  0  0
  8 10  1  0  0  0
 13 14  1  0  0  0
 17 24  1  0  0  0
 19 25  1  0  0  0
 21 26  1  0  0  0
 23 27  1  0  0  0
 35 38  1  0  0  0
 47 49  1  0  0  0
 47 50  1  0  0  0
M  END
> <minimizedAffinity>
-6.42312

> <CNNscore>
0.4849928916

> <CNNaffinity>
6.3457398415

> <CNN_VS>
3.0776386261

> <CNNaffinity_variance>
0.0626008362

$$$$
[H]O[C@@]1([H])C([H])=C(C(=O)N([H])[C@]2([H])[C@]([H])(O[H])[C@]([H])(O[H])[C@]([H])(O[H])[C@@]2([H])O[H])O[C@]([H])(O[C@@]([H])(n2c([H])c([H])c(=O)n([H])c2=O)[C@@]2([H])O[C@@]([H])(C(=O)N([H])[H])[C@]([H])(O[H])[C@]2([H])OC([H])([H])[H])[C@@]1([H])O[H]


 52 55  0  0  0  0  0  0  0  0999 V2000
   11.5896   22.7317   -0.6682 C   0  0  0  0  0  0  0  0  0  0  0  0
   10.6478   23.3616    0.1318 O   0  0  0  0  0  0  0  0  0  0  0  0
    9.4432   22.8019    0.5514 C   0  0  0  0  0  0  0  0  0  0  0  0
    8.8292   22.0164   -0.3073 C   0  0  0  0  0  0  0  0  0  0  0  0
    9.4789   21.8044   -1.6347 C   0  0  0  0  0  0  0  0  0  0  0  0
    8.9681   20.7103   -2.3054 O   0  0  0  0  0  0  0  0  0  0  0  0
   10.9448   21.5403   -1.3714 C   0  0  0  0  0  0  0  0  0  0  0  0
   10.9994   20.3946   -0.5553 O   0  0  0  0  0  0  0  0  0  0  0  0
    9.1058   20.8313   -3.2827 H   0  0  0  0  0  0  0  0  0  0  0  0
   10.3071   19.7535   -0.8970 H   0  0  0  0  0  0  0  0  0  0  0  0
    8.8776   23.0554    1.8554 C   0  0  0  0  0  0  0  0  0  0  0  0
    8.8607   22.1386    2.7371 O   0  0  0  0  0  0  0  0  0  0  0  0
    8.3367   24.3240    2.1658 N   0  0  0  0  0  0  0  0  0  0  0  0
    8.3161   25.1064    1.5058 H   0  0  0  0  0  0  0  0  0  0  0  0
    7.7750   24.5407    3.4944 C   0  0  0  0  0  0  0  0  0  0  0  0
    7.0177   25.8389    3.4650 C   0  0  0  0  0  0  0  0  0  0  0  0
    7.6953   26.8417    2.7854 O   0  0  0  0  0  0  0  0  0  0  0  0
    6.9014   26.1651    4.9397 C   0  0  0  0  0  0  0  0  0  0  0  0
    6.5543   27.4837    5.1689 O   0  0  0  0  0  0  0  0  0  0  0  0
    8.3047   25.8615    5.4220 C   0  0  0  0  0  0  0  0  0  0  0  0
    9.1072   27.0226    5.3729 O   0  0  0  0  0  0  0  0  0  0  0  0
    8.8683   24.8225    4.5059 C   0  0  0  0  0  0  0  0  0  0  0  0
    9.1849   23.6975    5.2686 O   0  0  0  0  0  0  0  0  0  0  0  0
    8.6449   26.7171    2.9411 H   0  0  0  0  0  0  0  0  0  0  0  0
    7.0542   28.0557    4.5330 H   0  0  0  0  0  0  0  0  0  0  0  0
    9.9958   26.7214    5.7255 H   0  0  0  0  0  0  0  0  0  0  0  0
    9.2947   22.9482    4.6450 H   0  0  0  0  0  0  0  0  0  0  0  0
   12.2205   23.5513   -1.5882 O   0  0  0  0  0  0  0  0  0  0  0  0
   13.5269   23.8621   -1.2353 C   0  0  0  0  0  0  0  0  0  0  0  0
   14.1879   22.7589   -0.5802 N   0  0  0  0  0  0  0  0  0  0  0  0
   14.2006   21.5577   -1.2170 C   0  0  0  0  0  0  0  0  0  0  0  0
   14.8077   20.4535   -0.6720 C   0  0  0  0  0  0  0  0  0  0  0  0
   15.4258   20.5510    0.5547 C   0  0  0  0  0  0  0  0  0  0  0  0
   15.9829   19.5399    1.0558 O   0  0  0  0  0  0  0  0  0  0  0  0
   15.3921   21.7509    1.1500 N   0  0  0  0  0  0  0  0  0  0  0  0
   14.7968   22.8265    0.6112 C   0  0  0  0  0  0  0  0  0  0  0  0
   14.7997   23.9294    1.2186 O   0  0  0  0  0  0  0  0  0  0  0  0
   15.8625   21.8228    2.0819 H   0  0  0  0  0  0  0  0  0  0  0  0
   15.4489   25.2917   -2.0740 C   0  0  0  0  0  0  0  0  0  0  0  0
   15.4922   26.2737   -3.2600 C   0  0  0  0  0  0  0  0  0  0  0  0
   16.7531   26.3311   -3.8292 O   0  0  0  0  0  0  0  0  0  0  0  0
   14.4727   25.6449   -4.1831 C   0  0  0  0  0  0  0  0  0  0  0  0
   13.5150   25.2039   -3.2357 O   0  0  0  0  0  0  0  0  0  0  0  0
   14.3192   24.3908   -2.3986 C   0  0  0  0  0  0  0  0  0  0  0  0
   17.0861   27.2594   -3.7334 H   0  0  0  0  0  0  0  0  0  0  0  0
   13.8610   26.6228   -5.0905 C   0  0  0  0  0  0  0  0  0  0  0  0
   14.4043   26.8483   -6.3623 N   0  0  0  0  0  0  0  0  0  0  0  0
   12.8420   27.2535   -4.7076 O   0  0  0  0  0  0  0  0  0  0  0  0
   14.6747   27.7734   -6.7308 H   0  0  0  0  0  0  0  0  0  0  0  0
   14.5479   26.0205   -6.9851 H   0  0  0  0  0  0  0  0  0  0  0  0
   17.3805   24.7785   -0.8750 C   0  0  0  0  0  0  0  0  0  0  0  0
   16.6890   24.6846   -2.0495 O   0  0  0  0  0  0  0  0  0  0  0  0
 51 52  1  0  0  0
 52 39  1  0  0  0
 39 40  1  0  0  0
 40 41  1  0  0  0
 40 42  1  0  0  0
 42 43  1  0  0  0
 43 44  1  0  0  0
 44 29  1  0  0  0
 29 28  1  0  0  0
 28  1  1  0  0  0
  1  2  1  0  0  0
  2  3  1  0  0  0
  3  4  2  0  0  0
  4  5  1  0  0  0
  5  6  1  0  0  0
  5  7  1  0  0  0
  7  8  1  0  0  0
  3 11  1  0  0  0
 11 12  2  0  0  0
 11 13  1  0  0  0
 13 15  1  0  0  0
 15 16  1  0  0  0
 16 17  1  0  0  0
 16 18  1  0  0  0
 18 19  1  0  0  0
 18 20  1  0  0  0
 20 21  1  0  0  0
 20 22  1  0  0  0
 22 23  1  0  0  0
 29 30  1  0  0  0
 30 31  1  0  0  0
 31 32  2  0  0  0
 32 33  1  0  0  0
 33 34  2  0  0  0
 33 35  1  0  0  0
 35 36  1  0  0  0
 36 37  2  0  0  0
 42 46  1  0  0  0
 46 47  1  0  0  0
 46 48  2  0  0  0
 44 39  1  0  0  0
  7  1  1  0  0  0
 22 15  1  0  0  0
 36 30  1  0  0  0
 41 45  1  0  0  0
  6  9  1  0  0  0
  8 10  1  0  0  0
 13 14  1  0  0  0
 17 24  1  0  0  0
 19 25  1  0  0  0
 21 26  1  0  0  0
 23 27  1  0  0  0
 35 38  1  0  0  0
 47 49  1  0  0  0
 47 50  1  0  0  0
M  END
> <minimizedAffinity>
-6.10007

> <CNNscore>
0.4728102088

> <CNNaffinity>
6.4381942749

> <CNN_VS>
3.0440440178

> <CNNaffinity_variance>
0.3057282567

$$$$
[H]O[C@@]1([H])C([H])=C(C(=O)N([H])[C@]2([H])[C@]([H])(O[H])[C@]([H])(O[H])[C@]([H])(O[H])[C@@]2([H])O[H])O[C@]([H])(O[C@@]([H])(n2c([H])c([H])c(=O)n([H])c2=O)[C@@]2([H])O[C@@]([H])(C(=O)N([H])[H])[C@]([H])(O[H])[C@]2([H])OC([H])([H])[H])[C@@]1([H])O[H]


 52 55  0  0  0  0  0  0  0  0999 V2000
   13.9273   22.5819   -0.2940 C   0  0  0  0  0  0  0  0  0  0  0  0
   12.7389   21.9006   -0.5111 O   0  0  0  0  0  0  0  0  0  0  0  0
   12.4498   20.6180   -0.0513 C   0  0  0  0  0  0  0  0  0  0  0  0
   13.4471   19.7597   -0.0373 C   0  0  0  0  0  0  0  0  0  0  0  0
   14.7782   20.2415   -0.5116 C   0  0  0  0  0  0  0  0  0  0  0  0
   15.8109   19.4097   -0.1246 O   0  0  0  0  0  0  0  0  0  0  0  0
   15.0113   21.5930    0.1264 C   0  0  0  0  0  0  0  0  0  0  0  0
   14.9780   21.3838    1.5181 O   0  0  0  0  0  0  0  0  0  0  0  0
   16.5701   19.5132   -0.7581 H   0  0  0  0  0  0  0  0  0  0  0  0
   15.4597   20.5226    1.7004 H   0  0  0  0  0  0  0  0  0  0  0  0
   11.1326   20.2267    0.3923 C   0  0  0  0  0  0  0  0  0  0  0  0
   10.9481   19.8350    1.5884 O   0  0  0  0  0  0  0  0  0  0  0  0
   10.0351   20.2746   -0.4973 N   0  0  0  0  0  0  0  0  0  0  0  0
   10.1105   20.5782   -1.4721 H   0  0  0  0  0  0  0  0  0  0  0  0
    8.7203   19.8717   -0.0109 C   0  0  0  0  0  0  0  0  0  0  0  0
    7.8644   19.5631   -1.2075 C   0  0  0  0  0  0  0  0  0  0  0  0
    8.0131   20.4911   -2.2290 O   0  0  0  0  0  0  0  0  0  0  0  0
    6.4706   19.6236   -0.6174 C   0  0  0  0  0  0  0  0  0  0  0  0
    5.4860   19.7220   -1.5831 O   0  0  0  0  0  0  0  0  0  0  0  0
    6.5593   20.8794    0.2245 C   0  0  0  0  0  0  0  0  0  0  0  0
    6.1406   22.0047   -0.5191 O   0  0  0  0  0  0  0  0  0  0  0  0
    7.9927   21.0431    0.6185 C   0  0  0  0  0  0  0  0  0  0  0  0
    8.0645   21.0225    2.0121 O   0  0  0  0  0  0  0  0  0  0  0  0
    8.1665   21.3587   -1.8224 H   0  0  0  0  0  0  0  0  0  0  0  0
    5.7962   20.3474   -2.2861 H   0  0  0  0  0  0  0  0  0  0  0  0
    6.2184   22.7677    0.1262 H   0  0  0  0  0  0  0  0  0  0  0  0
    9.0024   20.8611    2.2499 H   0  0  0  0  0  0  0  0  0  0  0  0
   14.3642   23.3533   -1.3572 O   0  0  0  0  0  0  0  0  0  0  0  0
   13.3865   24.2081   -1.8482 C   0  0  0  0  0  0  0  0  0  0  0  0
   12.2833   24.3538   -0.9290 N   0  0  0  0  0  0  0  0  0  0  0  0
   11.0826   23.8279   -1.2899 C   0  0  0  0  0  0  0  0  0  0  0  0
    9.9783   23.9156   -0.4787 C   0  0  0  0  0  0  0  0  0  0  0  0
   10.0754   24.5519    0.7387 C   0  0  0  0  0  0  0  0  0  0  0  0
    9.0643   24.6333    1.4835 O   0  0  0  0  0  0  0  0  0  0  0  0
   11.2749   25.0564    1.0582 N   0  0  0  0  0  0  0  0  0  0  0  0
   12.3504   24.9669    0.2603 C   0  0  0  0  0  0  0  0  0  0  0  0
   13.4529   25.4597    0.6166 O   0  0  0  0  0  0  0  0  0  0  0  0
   11.3464   25.5393    1.9837 H   0  0  0  0  0  0  0  0  0  0  0  0
   13.6623   25.9637   -3.6601 C   0  0  0  0  0  0  0  0  0  0  0  0
   14.9191   26.7519   -4.0749 C   0  0  0  0  0  0  0  0  0  0  0  0
   14.5976   28.0126   -4.5486 O   0  0  0  0  0  0  0  0  0  0  0  0
   15.6647   26.8043   -2.7603 C   0  0  0  0  0  0  0  0  0  0  0  0
   15.3696   25.5140   -2.2531 O   0  0  0  0  0  0  0  0  0  0  0  0
   13.9527   25.5346   -2.2727 C   0  0  0  0  0  0  0  0  0  0  0  0
   14.8986   28.0674   -5.4910 H   0  0  0  0  0  0  0  0  0  0  0  0
   17.1137   26.9472   -2.9440 C   0  0  0  0  0  0  0  0  0  0  0  0
   18.0017   26.0919   -2.2779 N   0  0  0  0  0  0  0  0  0  0  0  0
   17.5440   27.8487   -3.7088 O   0  0  0  0  0  0  0  0  0  0  0  0
   18.7869   26.4046   -1.6859 H   0  0  0  0  0  0  0  0  0  0  0  0
   17.8603   25.0615   -2.3866 H   0  0  0  0  0  0  0  0  0  0  0  0
   12.4426   27.4093   -5.0220 C   0  0  0  0  0  0  0  0  0  0  0  0
   12.6102   26.8493   -3.7873 O   0  0  0  0  0  0  0  0  0  0  0  0
 51 52  1  0  0  0
 52 39  1  0  0  0
 39 40  1  0  0  0
 40 41  1  0  0  0
 40 42  1  0  0  0
 42 43  1  0  0  0
 43 44  1  0  0  0
 44 29  1  0  0  0
 29 28  1  0  0  0
 28  1  1  0  0  0
  1  2  1  0  0  0
  2  3  1  0  0  0
  3  4  2  0  0  0
  4  5  1  0  0  0
  5  6  1  0  0  0
  5  7  1  0  0  0
  7  8  1  0  0  0
  3 11  1  0  0  0
 11 12  2  0  0  0
 11 13  1  0  0  0
 13 15  1  0  0  0
 15 16  1  0  0  0
 16 17  1  0  0  0
 16 18  1  0  0  0
 18 19  1  0  0  0
 18 20  1  0  0  0
 20 21  1  0  0  0
 20 22  1  0  0  0
 22 23  1  0  0  0
 29 30  1  0  0  0
 30 31  1  0  0  0
 31 32  2  0  0  0
 32 33  1  0  0  0
 33 34  2  0  0  0
 33 35  1  0  0  0
 35 36  1  0  0  0
 36 37  2  0  0  0
 42 46  1  0  0  0
 46 47  1  0  0  0
 46 48  2  0  0  0
 44 39  1  0  0  0
  7  1  1  0  0  0
 22 15  1  0  0  0
 36 30  1  0  0  0
 41 45  1  0  0  0
  6  9  1  0  0  0
  8 10  1  0  0  0
 13 14  1  0  0  0
 17 24  1  0  0  0
 19 25  1  0  0  0
 21 26  1  0  0  0
 23 27  1  0  0  0
 35 38  1  0  0  0
 47 49  1  0  0  0
 47 50  1  0  0  0
M  END
> <minimizedAffinity>
-3.14808

> <CNNscore>
0.4619733393

> <CNNaffinity>
6.7412543297

> <CNN_VS>
3.1142797470

> <CNNaffinity_variance>
0.6184104085

$$$$
[H]O[C@@]1([H])C([H])=C(C(=O)N([H])[C@]2([H])[C@]([H])(O[H])[C@]([H])(O[H])[C@]([H])(O[H])[C@@]2([H])O[H])O[C@]([H])(O[C@@]([H])(n2c([H])c([H])c(=O)n([H])c2=O)[C@@]2([H])O[C@@]([H])(C(=O)N([H])[H])[C@]([H])(O[H])[C@]2([H])OC([H])([H])[H])[C@@]1([H])O[H]


 52 55  0  0  0  0  0  0  0  0999 V2000
   14.3691   22.2797   -1.6024 C   0  0  0  0  0  0  0  0  0  0  0  0
   13.1559   22.6333   -1.0308 O   0  0  0  0  0  0  0  0  0  0  0  0
   12.3094   21.7706   -0.3384 C   0  0  0  0  0  0  0  0  0  0  0  0
   12.2363   20.5350   -0.7847 C   0  0  0  0  0  0  0  0  0  0  0  0
   13.0608   20.1830   -1.9786 C   0  0  0  0  0  0  0  0  0  0  0  0
   13.1995   18.8186   -2.1426 O   0  0  0  0  0  0  0  0  0  0  0  0
   14.4392   20.7620   -1.7491 C   0  0  0  0  0  0  0  0  0  0  0  0
   14.9236   20.1720   -0.5663 O   0  0  0  0  0  0  0  0  0  0  0  0
   13.3789   18.6201   -3.1002 H   0  0  0  0  0  0  0  0  0  0  0  0
   14.6540   19.2056   -0.5847 H   0  0  0  0  0  0  0  0  0  0  0  0
   11.5421   22.1869    0.8117 C   0  0  0  0  0  0  0  0  0  0  0  0
   12.0824   22.8903    1.7236 O   0  0  0  0  0  0  0  0  0  0  0  0
   10.1834   21.8173    0.9365 N   0  0  0  0  0  0  0  0  0  0  0  0
    9.6852   21.2529    0.2427 H   0  0  0  0  0  0  0  0  0  0  0  0
    9.4422   22.2580    2.1130 C   0  0  0  0  0  0  0  0  0  0  0  0
   10.0407   21.5777    3.3124 C   0  0  0  0  0  0  0  0  0  0  0  0
   10.3228   20.2376    3.0857 O   0  0  0  0  0  0  0  0  0  0  0  0
    8.9398   21.7345    4.3410 C   0  0  0  0  0  0  0  0  0  0  0  0
    9.0970   20.8894    5.4240 O   0  0  0  0  0  0  0  0  0  0  0  0
    7.7164   21.3776    3.5227 C   0  0  0  0  0  0  0  0  0  0  0  0
    7.4309   19.9989    3.6344 O   0  0  0  0  0  0  0  0  0  0  0  0
    8.0282   21.7120    2.0988 C   0  0  0  0  0  0  0  0  0  0  0  0
    7.1005   22.6590    1.6626 O   0  0  0  0  0  0  0  0  0  0  0  0
    9.6432   19.8877    2.4881 H   0  0  0  0  0  0  0  0  0  0  0  0
    9.3962   20.0051    5.0922 H   0  0  0  0  0  0  0  0  0  0  0  0
    6.6055   19.8739    3.0797 H   0  0  0  0  0  0  0  0  0  0  0  0
    7.4634   23.0626    0.8454 H   0  0  0  0  0  0  0  0  0  0  0  0
   14.6500   22.8946   -2.8104 O   0  0  0  0  0  0  0  0  0  0  0  0
   15.4778   24.0014   -2.6788 C   0  0  0  0  0  0  0  0  0  0  0  0
   15.5804   24.7502   -3.9084 N   0  0  0  0  0  0  0  0  0  0  0  0
   15.3296   24.0954   -5.0733 C   0  0  0  0  0  0  0  0  0  0  0  0
   15.4001   24.7265   -6.2906 C   0  0  0  0  0  0  0  0  0  0  0  0
   15.7332   26.0614   -6.3482 C   0  0  0  0  0  0  0  0  0  0  0  0
   15.7982   26.6416   -7.4630 O   0  0  0  0  0  0  0  0  0  0  0  0
   15.9725   26.6713   -5.1794 N   0  0  0  0  0  0  0  0  0  0  0  0
   15.9016   26.0481   -3.9928 C   0  0  0  0  0  0  0  0  0  0  0  0
   16.1359   26.6757   -2.9266 O   0  0  0  0  0  0  0  0  0  0  0  0
   16.2252   27.6856   -5.2255 H   0  0  0  0  0  0  0  0  0  0  0  0
   15.5942   24.4608   -0.1855 C   0  0  0  0  0  0  0  0  0  0  0  0
   14.4741   24.8815    0.7847 C   0  0  0  0  0  0  0  0  0  0  0  0
   14.9596   25.6717    1.8129 O   0  0  0  0  0  0  0  0  0  0  0  0
   13.5658   25.6484   -0.1500 C   0  0  0  0  0  0  0  0  0  0  0  0
   13.6821   24.8553   -1.3192 O   0  0  0  0  0  0  0  0  0  0  0  0
   15.0857   24.8690   -1.5152 C   0  0  0  0  0  0  0  0  0  0  0  0
   14.7934   25.1946    2.6652 H   0  0  0  0  0  0  0  0  0  0  0  0
   12.1714   25.6583    0.3075 C   0  0  0  0  0  0  0  0  0  0  0  0
   11.8547   26.0625    1.6113 N   0  0  0  0  0  0  0  0  0  0  0  0
   11.2670   25.2987   -0.4897 O   0  0  0  0  0  0  0  0  0  0  0  0
   11.3006   25.5067    2.2812 H   0  0  0  0  0  0  0  0  0  0  0  0
   12.2046   26.9946    1.9314 H   0  0  0  0  0  0  0  0  0  0  0  0
   17.7490   24.3565    0.6965 C   0  0  0  0  0  0  0  0  0  0  0  0
   16.7236   25.1336    0.2375 O   0  0  0  0  0  0  0  0  0  0  0  0
 51 52  1  0  0  0
 52 39  1  0  0  0
 39 40  1  0  0  0
 40 41  1  0  0  0
 40 42  1  0  0  0
 42 43  1  0  0  0
 43 44  1  0  0  0
 44 29  1  0  0  0
 29 28  1  0  0  0
 28  1  1  0  0  0
  1  2  1  0  0  0
  2  3  1  0  0  0
  3  4  2  0  0  0
  4  5  1  0  0  0
  5  6  1  0  0  0
  5  7  1  0  0  0
  7  8  1  0  0  0
  3 11  1  0  0  0
 11 12  2  0  0  0
 11 13  1  0  0  0
 13 15  1  0  0  0
 15 16  1  0  0  0
 16 17  1  0  0  0
 16 18  1  0  0  0
 18 19  1  0  0  0
 18 20  1  0  0  0
 20 21  1  0  0  0
 20 22  1  0  0  0
 22 23  1  0  0  0
 29 30  1  0  0  0
 30 31  1  0  0  0
 31 32  2  0  0  0
 32 33  1  0  0  0
 33 34  2  0  0  0
 33 35  1  0  0  0
 35 36  1  0  0  0
 36 37  2  0  0  0
 42 46  1  0  0  0
 46 47  1  0  0  0
 46 48  2  0  0  0
 44 39  1  0  0  0
  7  1  1  0  0  0
 22 15  1  0  0  0
 36 30  1  0  0  0
 41 45  1  0  0  0
  6  9  1  0  0  0
  8 10  1  0  0  0
 13 14  1  0  0  0
 17 24  1  0  0  0
 19 25  1  0  0  0
 21 26  1  0  0  0
 23 27  1  0  0  0
 35 38  1  0  0  0
 47 49  1  0  0  0
 47 50  1  0  0  0
M  END
> <minimizedAffinity>
-1.47959

> <CNNscore>
0.4372136593

> <CNNaffinity>
6.1841025352

> <CNN_VS>
2.7037742138

> <CNNaffinity_variance>
0.7077301145

$$$$
[H]O[C@@]1([H])C([H])=C(C(=O)N([H])[C@]2([H])[C@]([H])(O[H])[C@]([H])(O[H])[C@]([H])(O[H])[C@@]2([H])O[H])O[C@]([H])(O[C@@]([H])(n2c([H])c([H])c(=O)n([H])c2=O)[C@@]2([H])O[C@@]([H])(C(=O)N([H])[H])[C@]([H])(O[H])[C@]2([H])OC([H])([H])[H])[C@@]1([H])O[H]


 52 55  0  0  0  0  0  0  0  0999 V2000
   13.8792   22.3460   -1.3831 C   0  0  0  0  0  0  0  0  0  0  0  0
   12.6276   22.5636   -0.8264 O   0  0  0  0  0  0  0  0  0  0  0  0
   11.8843   21.6203   -0.1209 C   0  0  0  0  0  0  0  0  0  0  0  0
   11.9630   20.3759   -0.5412 C   0  0  0  0  0  0  0  0  0  0  0  0
   12.8338   20.1007   -1.7224 C   0  0  0  0  0  0  0  0  0  0  0  0
   13.1358   18.7595   -1.8564 O   0  0  0  0  0  0  0  0  0  0  0  0
   14.1313   20.8448   -1.4970 C   0  0  0  0  0  0  0  0  0  0  0  0
   14.6725   20.3413   -0.2990 O   0  0  0  0  0  0  0  0  0  0  0  0
   13.3458   18.5644   -2.8085 H   0  0  0  0  0  0  0  0  0  0  0  0
   14.5203   19.3494   -0.2984 H   0  0  0  0  0  0  0  0  0  0  0  0
   11.0630   21.9653    1.0154 C   0  0  0  0  0  0  0  0  0  0  0  0
   11.5166   22.7270    1.9277 O   0  0  0  0  0  0  0  0  0  0  0  0
    9.7473   21.4604    1.1261 N   0  0  0  0  0  0  0  0  0  0  0  0
    9.3186   20.8428    0.4312 H   0  0  0  0  0  0  0  0  0  0  0  0
    8.9491   21.8325    2.2889 C   0  0  0  0  0  0  0  0  0  0  0  0
    8.0429   22.9600    1.8802 C   0  0  0  0  0  0  0  0  0  0  0  0
    8.6857   23.9112    1.1001 O   0  0  0  0  0  0  0  0  0  0  0  0
    7.6413   23.5386    3.2213 C   0  0  0  0  0  0  0  0  0  0  0  0
    7.0903   24.8022    3.1139 O   0  0  0  0  0  0  0  0  0  0  0  0
    8.9726   23.5657    3.9430 C   0  0  0  0  0  0  0  0  0  0  0  0
    9.6120   24.8111    3.7559 O   0  0  0  0  0  0  0  0  0  0  0  0
    9.8125   22.4768    3.3554 C   0  0  0  0  0  0  0  0  0  0  0  0
   10.1436   21.5854    4.3768 O   0  0  0  0  0  0  0  0  0  0  0  0
    9.6043   23.9751    1.4061 H   0  0  0  0  0  0  0  0  0  0  0  0
    7.6090   25.3158    2.4441 H   0  0  0  0  0  0  0  0  0  0  0  0
   10.4615   24.7318    4.2819 H   0  0  0  0  0  0  0  0  0  0  0  0
   10.4532   20.7588    3.9487 H   0  0  0  0  0  0  0  0  0  0  0  0
   14.0950   22.9652   -2.6021 O   0  0  0  0  0  0  0  0  0  0  0  0
   15.0827   23.9396   -2.5509 C   0  0  0  0  0  0  0  0  0  0  0  0
   15.2013   24.6566   -3.7979 N   0  0  0  0  0  0  0  0  0  0  0  0
   15.0825   26.0107   -3.7655 C   0  0  0  0  0  0  0  0  0  0  0  0
   15.1840   26.7757   -4.9011 C   0  0  0  0  0  0  0  0  0  0  0  0
   15.4127   26.1672   -6.1150 C   0  0  0  0  0  0  0  0  0  0  0  0
   15.5061   26.8668   -7.1569 O   0  0  0  0  0  0  0  0  0  0  0  0
   15.5242   24.8319   -6.1055 N   0  0  0  0  0  0  0  0  0  0  0  0
   15.4240   24.0902   -4.9913 C   0  0  0  0  0  0  0  0  0  0  0  0
   15.5397   22.8375   -5.0455 O   0  0  0  0  0  0  0  0  0  0  0  0
   15.6982   24.3716   -7.0289 H   0  0  0  0  0  0  0  0  0  0  0  0
   15.5528   24.4495   -0.1096 C   0  0  0  0  0  0  0  0  0  0  0  0
   14.6012   24.9801    0.9794 C   0  0  0  0  0  0  0  0  0  0  0  0
   15.2724   25.7549    1.9103 O   0  0  0  0  0  0  0  0  0  0  0  0
   13.6396   25.7923    0.1413 C   0  0  0  0  0  0  0  0  0  0  0  0
   13.5453   24.9641   -1.0053 O   0  0  0  0  0  0  0  0  0  0  0  0
   14.9091   24.8634   -1.3775 C   0  0  0  0  0  0  0  0  0  0  0  0
   15.1823   25.3133    2.7927 H   0  0  0  0  0  0  0  0  0  0  0  0
   12.3204   25.9222    0.7709 C   0  0  0  0  0  0  0  0  0  0  0  0
   11.2528   25.1150    0.3557 N   0  0  0  0  0  0  0  0  0  0  0  0
   12.1649   26.7688    1.6883 O   0  0  0  0  0  0  0  0  0  0  0  0
   10.3306   25.4678    0.0559 H   0  0  0  0  0  0  0  0  0  0  0  0
   11.3988   24.0795    0.3477 H   0  0  0  0  0  0  0  0  0  0  0  0
   17.7446   24.2255    0.6506 C   0  0  0  0  0  0  0  0  0  0  0  0
   16.7740   25.0424    0.1439 O   0  0  0  0  0  0  0  0  0  0  0  0
 51 52  1  0  0  0
 52 39  1  0  0  0
 39 40  1  0  0  0
 40 41  1  0  0  0
 40 42  1  0  0  0
 42 43  1  0  0  0
 43 44  1  0  0  0
 44 29  1  0  0  0
 29 28  1  0  0  0
 28  1  1  0  0  0
  1  2  1  0  0  0
  2  3  1  0  0  0
  3  4  2  0  0  0
  4  5  1  0  0  0
  5  6  1  0  0  0
  5  7  1  0  0  0
  7  8  1  0  0  0
  3 11  1  0  0  0
 11 12  2  0  0  0
 11 13  1  0  0  0
 13 15  1  0  0  0
 15 16  1  0  0  0
 16 17  1  0  0  0
 16 18  1  0  0  0
 18 19  1  0  0  0
 18 20  1  0  0  0
 20 21  1  0  0  0
 20 22  1  0  0  0
 22 23  1  0  0  0
 29 30  1  0  0  0
 30 31  1  0  0  0
 31 32  2  0  0  0
 32 33  1  0  0  0
 33 34  2  0  0  0
 33 35  1  0  0  0
 35 36  1  0  0  0
 36 37  2  0  0  0
 42 46  1  0  0  0
 46 47  1  0  0  0
 46 48  2  0  0  0
 44 39  1  0  0  0
  7  1  1  0  0  0
 22 15  1  0  0  0
 36 30  1  0  0  0
 41 45  1  0  0  0
  6  9  1  0  0  0
  8 10  1  0  0  0
 13 14  1  0  0  0
 17 24  1  0  0  0
 19 25  1  0  0  0
 21 26  1  0  0  0
 23 27  1  0  0  0
 35 38  1  0  0  0
 47 49  1  0  0  0
 47 50  1  0  0  0
M  END
> <minimizedAffinity>
-1.48291

> <CNNscore>
0.4268595874

> <CNNaffinity>
5.9636907578

> <CNN_VS>
2.5456585884

> <CNNaffinity_variance>
0.6756728888

$$$$
[H]O[C@@]1([H])C([H])=C(C(=O)N([H])[C@]2([H])[C@]([H])(O[H])[C@]([H])(O[H])[C@]([H])(O[H])[C@@]2([H])O[H])O[C@]([H])(O[C@@]([H])(n2c([H])c([H])c(=O)n([H])c2=O)[C@@]2([H])O[C@@]([H])(C(=O)N([H])[H])[C@]([H])(O[H])[C@]2([H])OC([H])([H])[H])[C@@]1([H])O[H]


 52 55  0  0  0  0  0  0  0  0999 V2000
   12.6484   21.9937    0.7765 C   0  0  0  0  0  0  0  0  0  0  0  0
   11.5517   22.7949    1.0575 O   0  0  0  0  0  0  0  0  0  0  0  0
   10.3330   22.3454    1.5603 C   0  0  0  0  0  0  0  0  0  0  0  0
    9.9168   21.1729    1.1320 C   0  0  0  0  0  0  0  0  0  0  0  0
   10.7846   20.4468    0.1580 C   0  0  0  0  0  0  0  0  0  0  0  0
   10.4591   19.1084    0.0543 O   0  0  0  0  0  0  0  0  0  0  0  0
   12.2023   20.5372    0.6773 C   0  0  0  0  0  0  0  0  0  0  0  0
   12.1965   19.9334    1.9490 O   0  0  0  0  0  0  0  0  0  0  0  0
   10.7450   18.7695   -0.8356 H   0  0  0  0  0  0  0  0  0  0  0  0
   11.6105   19.1210    1.8890 H   0  0  0  0  0  0  0  0  0  0  0  0
    9.5490   23.1079    2.5031 C   0  0  0  0  0  0  0  0  0  0  0  0
   10.0724   23.5230    3.5857 O   0  0  0  0  0  0  0  0  0  0  0  0
    8.1927   23.4008    2.2333 N   0  0  0  0  0  0  0  0  0  0  0  0
    7.7073   23.0985    1.3841 H   0  0  0  0  0  0  0  0  0  0  0  0
    7.4347   24.1742    3.2105 C   0  0  0  0  0  0  0  0  0  0  0  0
    7.5634   25.6264    2.8444 C   0  0  0  0  0  0  0  0  0  0  0  0
    8.8559   25.9765    2.4788 O   0  0  0  0  0  0  0  0  0  0  0  0
    7.1600   26.3099    4.1346 C   0  0  0  0  0  0  0  0  0  0  0  0
    7.5304   27.6415    4.1716 O   0  0  0  0  0  0  0  0  0  0  0  0
    7.9181   25.4872    5.1555 C   0  0  0  0  0  0  0  0  0  0  0  0
    9.1831   26.0603    5.4125 O   0  0  0  0  0  0  0  0  0  0  0  0
    8.0948   24.1208    4.5740 C   0  0  0  0  0  0  0  0  0  0  0  0
    7.4759   23.2040    5.4250 O   0  0  0  0  0  0  0  0  0  0  0  0
    9.4695   25.4468    3.0121 H   0  0  0  0  0  0  0  0  0  0  0  0
    8.4378   27.7266    3.7830 H   0  0  0  0  0  0  0  0  0  0  0  0
    9.5885   25.4591    6.1045 H   0  0  0  0  0  0  0  0  0  0  0  0
    7.3620   22.3718    4.9182 H   0  0  0  0  0  0  0  0  0  0  0  0
   13.3667   22.3559   -0.3500 O   0  0  0  0  0  0  0  0  0  0  0  0
   13.0658   23.6344   -0.8002 C   0  0  0  0  0  0  0  0  0  0  0  0
   13.5993   24.6546    0.0702 N   0  0  0  0  0  0  0  0  0  0  0  0
   14.9250   24.6053    0.3680 C   0  0  0  0  0  0  0  0  0  0  0  0
   15.5206   25.5345    1.1847 C   0  0  0  0  0  0  0  0  0  0  0  0
   14.7654   26.5516    1.7246 C   0  0  0  0  0  0  0  0  0  0  0  0
   15.3096   27.4042    2.4733 O   0  0  0  0  0  0  0  0  0  0  0  0
   13.4636   26.5660    1.4073 N   0  0  0  0  0  0  0  0  0  0  0  0
   12.8880   25.6543    0.6080 C   0  0  0  0  0  0  0  0  0  0  0  0
   11.6585   25.7214    0.3444 O   0  0  0  0  0  0  0  0  0  0  0  0
   12.8917   27.3397    1.8185 H   0  0  0  0  0  0  0  0  0  0  0  0
   14.7651   23.2564   -2.6470 C   0  0  0  0  0  0  0  0  0  0  0  0
   15.2970   24.2433   -3.7034 C   0  0  0  0  0  0  0  0  0  0  0  0
   15.6262   23.5987   -4.8839 O   0  0  0  0  0  0  0  0  0  0  0  0
   14.1026   25.1572   -3.8611 C   0  0  0  0  0  0  0  0  0  0  0  0
   13.6541   25.2175   -2.5177 O   0  0  0  0  0  0  0  0  0  0  0  0
   13.4689   23.8414   -2.2338 C   0  0  0  0  0  0  0  0  0  0  0  0
   16.5955   23.7316   -5.0408 H   0  0  0  0  0  0  0  0  0  0  0  0
   14.4811   26.4989   -4.3197 C   0  0  0  0  0  0  0  0  0  0  0  0
   15.5883   27.1535   -3.7636 N   0  0  0  0  0  0  0  0  0  0  0  0
   13.7958   27.0500   -5.2194 O   0  0  0  0  0  0  0  0  0  0  0  0
   15.5671   28.0999   -3.3532 H   0  0  0  0  0  0  0  0  0  0  0  0
   16.5038   26.6479   -3.7627 H   0  0  0  0  0  0  0  0  0  0  0  0
   14.7303   20.9312   -2.4902 C   0  0  0  0  0  0  0  0  0  0  0  0
   14.6752   22.0375   -3.2899 O   0  0  0  0  0  0  0  0  0  0  0  0
 51 52  1  0  0  0
 52 39  1  0  0  0
 39 40  1  0  0  0
 40 41  1  0  0  0
 40 42  1  0  0  0
 42 43  1  0  0  0
 43 44  1  0  0  0
 44 29  1  0  0  0
 29 28  1  0  0  0
 28  1  1  0  0  0
  1  2  1  0  0  0
  2  3  1  0  0  0
  3  4  2  0  0  0
  4  5  1  0  0  0
  5  6  1  0  0  0
  5  7  1  0  0  0
  7  8  1  0  0  0
  3 11  1  0  0  0
 11 12  2  0  0  0
 11 13  1  0  0  0
 13 15  1  0  0  0
 15 16  1  0  0  0
 16 17  1  0  0  0
 16 18  1  0  0  0
 18 19  1  0  0  0
 18 20  1  0  0  0
 20 21  1  0  0  0
 20 22  1  0  0  0
 22 23  1  0  0  0
 29 30  1  0  0  0
 30 31  1  0  0  0
 31 32  2  0  0  0
 32 33  1  0  0  0
 33 34  2  0  0  0
 33 35  1  0  0  0
 35 36  1  0  0  0
 36 37  2  0  0  0
 42 46  1  0  0  0
 46 47  1  0  0  0
 46 48  2  0  0  0
 44 39  1  0  0  0
  7  1  1  0  0  0
 22 15  1  0  0  0
 36 30  1  0  0  0
 41 45  1  0  0  0
  6  9  1  0  0  0
  8 10  1  0  0  0
 13 14  1  0  0  0
 17 24  1  0  0  0
 19 25  1  0  0  0
 21 26  1  0  0  0
 23 27  1  0  0  0
 35 38  1  0  0  0
 47 49  1  0  0  0
 47 50  1  0  0  0
M  END
> <minimizedAffinity>
-2.94973

> <CNNscore>
0.4253528416

> <CNNaffinity>
6.1214447021

> <CNN_VS>
2.6037738323

> <CNNaffinity_variance>
0.6344959140

$$$$
[H]O[C@@]1([H])C([H])=C(C(=O)N([H])[C@]2([H])[C@]([H])(O[H])[C@]([H])(O[H])[C@]([H])(O[H])[C@@]2([H])O[H])O[C@]([H])(O[C@@]([H])(n2c([H])c([H])c(=O)n([H])c2=O)[C@@]2([H])O[C@@]([H])(C(=O)N([H])[H])[C@]([H])(O[H])[C@]2([H])OC([H])([H])[H])[C@@]1([H])O[H]


 52 55  0  0  0  0  0  0  0  0999 V2000
   12.8241   21.6508   -0.2531 C   0  0  0  0  0  0  0  0  0  0  0  0
   12.0296   22.3532    0.6408 O   0  0  0  0  0  0  0  0  0  0  0  0
   10.6559   22.1874    0.8007 C   0  0  0  0  0  0  0  0  0  0  0  0
    9.9638   21.9325   -0.2890 C   0  0  0  0  0  0  0  0  0  0  0  0
   10.7130   21.8468   -1.5776 C   0  0  0  0  0  0  0  0  0  0  0  0
    9.9828   21.2298   -2.5745 O   0  0  0  0  0  0  0  0  0  0  0  0
   11.9422   21.0044   -1.3182 C   0  0  0  0  0  0  0  0  0  0  0  0
   11.4763   19.7500   -0.8809 O   0  0  0  0  0  0  0  0  0  0  0  0
   10.3108   21.5394   -3.4606 H   0  0  0  0  0  0  0  0  0  0  0  0
   10.6754   19.5196   -1.4398 H   0  0  0  0  0  0  0  0  0  0  0  0
   10.0024   22.2853    2.0844 C   0  0  0  0  0  0  0  0  0  0  0  0
   10.3734   21.5470    3.0516 O   0  0  0  0  0  0  0  0  0  0  0  0
    8.9441   23.2018    2.2798 N   0  0  0  0  0  0  0  0  0  0  0  0
    8.5937   23.8252    1.5472 H   0  0  0  0  0  0  0  0  0  0  0  0
    8.3099   23.2711    3.5916 C   0  0  0  0  0  0  0  0  0  0  0  0
    7.1148   24.1755    3.4750 C   0  0  0  0  0  0  0  0  0  0  0  0
    7.3740   25.3158    2.7272 O   0  0  0  0  0  0  0  0  0  0  0  0
    6.8466   24.5256    4.9241 C   0  0  0  0  0  0  0  0  0  0  0  0
    6.0163   25.6224    5.0634 O   0  0  0  0  0  0  0  0  0  0  0  0
    8.2471   24.8141    5.4235 C   0  0  0  0  0  0  0  0  0  0  0  0
    8.5457   26.1884    5.2937 O   0  0  0  0  0  0  0  0  0  0  0  0
    9.1873   24.0141    4.5794 C   0  0  0  0  0  0  0  0  0  0  0  0
    9.8912   23.1474    5.4167 O   0  0  0  0  0  0  0  0  0  0  0  0
    8.2950   25.5746    2.8893 H   0  0  0  0  0  0  0  0  0  0  0  0
    6.2750   26.3005    4.3889 H   0  0  0  0  0  0  0  0  0  0  0  0
    9.4731   26.2737    5.6644 H   0  0  0  0  0  0  0  0  0  0  0  0
   10.2943   22.4591    4.8455 H   0  0  0  0  0  0  0  0  0  0  0  0
   13.8341   22.3887   -0.8459 O   0  0  0  0  0  0  0  0  0  0  0  0
   14.0765   23.5953   -0.2033 C   0  0  0  0  0  0  0  0  0  0  0  0
   15.3956   23.6426    0.3804 N   0  0  0  0  0  0  0  0  0  0  0  0
   16.1302   24.7721    0.1985 C   0  0  0  0  0  0  0  0  0  0  0  0
   17.3933   24.9083    0.7191 C   0  0  0  0  0  0  0  0  0  0  0  0
   17.9446   23.8790    1.4490 C   0  0  0  0  0  0  0  0  0  0  0  0
   19.1022   24.0020    1.9270 O   0  0  0  0  0  0  0  0  0  0  0  0
   17.1896   22.7833    1.6064 N   0  0  0  0  0  0  0  0  0  0  0  0
   15.9552   22.6570    1.0947 C   0  0  0  0  0  0  0  0  0  0  0  0
   15.2925   21.6021    1.2781 O   0  0  0  0  0  0  0  0  0  0  0  0
   17.6103   22.0024    2.1615 H   0  0  0  0  0  0  0  0  0  0  0  0
   12.6682   24.6488   -2.0331 C   0  0  0  0  0  0  0  0  0  0  0  0
   13.1130   25.4611   -3.2640 C   0  0  0  0  0  0  0  0  0  0  0  0
   12.1658   26.4058   -3.6214 O   0  0  0  0  0  0  0  0  0  0  0  0
   14.3844   26.0910   -2.7410 C   0  0  0  0  0  0  0  0  0  0  0  0
   14.8942   25.0195   -1.9654 O   0  0  0  0  0  0  0  0  0  0  0  0
   13.8046   24.7770   -1.0921 C   0  0  0  0  0  0  0  0  0  0  0  0
   11.8537   26.1898   -4.5367 H   0  0  0  0  0  0  0  0  0  0  0  0
   15.3285   26.4209   -3.8150 C   0  0  0  0  0  0  0  0  0  0  0  0
   14.9074   26.4345   -5.1514 N   0  0  0  0  0  0  0  0  0  0  0  0
   16.5202   26.6911   -3.5155 O   0  0  0  0  0  0  0  0  0  0  0  0
   15.3588   25.9085   -5.9157 H   0  0  0  0  0  0  0  0  0  0  0  0
   14.0749   27.0190   -5.3944 H   0  0  0  0  0  0  0  0  0  0  0  0
   11.3141   25.3117   -0.2557 C   0  0  0  0  0  0  0  0  0  0  0  0
   11.4916   25.2336   -1.6079 O   0  0  0  0  0  0  0  0  0  0  0  0
 51 52  1  0  0  0
 52 39  1  0  0  0
 39 40  1  0  0  0
 40 41  1  0  0  0
 40 42  1  0  0  0
 42 43  1  0  0  0
 43 44  1  0  0  0
 44 29  1  0  0  0
 29 28  1  0  0  0
 28  1  1  0  0  0
  1  2  1  0  0  0
  2  3  1  0  0  0
  3  4  2  0  0  0
  4  5  1  0  0  0
  5  6  1  0  0  0
  5  7  1  0  0  0
  7  8  1  0  0  0
  3 11  1  0  0  0
 11 12  2  0  0  0
 11 13  1  0  0  0
 13 15  1  0  0  0
 15 16  1  0  0  0
 16 17  1  0  0  0
 16 18  1  0  0  0
 18 19  1  0  0  0
 18 20  1  0  0  0
 20 21  1  0  0  0
 20 22  1  0  0  0
 22 23  1  0  0  0
 29 30  1  0  0  0
 30 31  1  0  0  0
 31 32  2  0  0  0
 32 33  1  0  0  0
 33 34  2  0  0  0
 33 35  1  0  0  0
 35 36  1  0  0  0
 36 37  2  0  0  0
 42 46  1  0  0  0
 46 47  1  0  0  0
 46 48  2  0  0  0
 44 39  1  0  0  0
  7  1  1  0  0  0
 22 15  1  0  0  0
 36 30  1  0  0  0
 41 45  1  0  0  0
  6  9  1  0  0  0
  8 10  1  0  0  0
 13 14  1  0  0  0
 17 24  1  0  0  0
 19 25  1  0  0  0
 21 26  1  0  0  0
 23 27  1  0  0  0
 35 38  1  0  0  0
 47 49  1  0  0  0
 47 50  1  0  0  0
M  END
> <minimizedAffinity>
-2.54019

> <CNNscore>
0.4249618053

> <CNNaffinity>
6.0612316132

> <CNN_VS>
2.5757918358

> <CNNaffinity_variance>
0.5107560158

$$$$
[H]C1=C([H])C([H])(F)C([H])([H])C([H])=C1N([H])C(=O)C1(C(=O)N([H])c2nc(F)c(Oc3c([H])c([H])nc4c([H])c(OC([H])([H])C([H])([H])C([H])([H])N5C([H])([H])C([H])([H])OC([H])([H])C5([H])[H])c(OC([H])([H])[H])c([H])c34)c([H])c2[H])C([H])([H])C1([H])[H]


 48 53  0  0  0  0  0  0  0  0999 V2000
   10.4309   20.9374   -0.0485 C   0  0  0  0  0  0  0  0  0  0  0  0
    9.6586   19.8275    0.2113 C   0  0  0  0  0  0  0  0  0  0  0  0
    8.6288   19.5163   -0.6466 C   0  0  0  0  0  0  0  0  0  0  0  0
    8.3001   20.2320   -1.7622 C   0  0  0  0  0  0  0  0  0  0  0  0
    9.1245   21.3331   -1.9593 N   0  0  0  0  0  0  0  0  0  0  0  0
   10.1245   21.6705   -1.1595 C   0  0  0  0  0  0  0  0  0  0  0  0
   10.8895   22.7950   -1.4338 F   0  0  0  0  0  0  0  0  0  0  0  0
    7.2203   20.0291   -2.6173 N   0  0  0  0  0  0  0  0  0  0  0  0
    5.8727   20.0418   -2.5638 C   0  0  0  0  0  0  0  0  0  0  0  0
    5.3219   19.9061   -3.8220 O   0  0  0  0  0  0  0  0  0  0  0  0
    7.6024   19.8880   -3.6739 H   0  0  0  0  0  0  0  0  0  0  0  0
    4.7611   20.1672   -1.6264 C   0  0  0  0  0  0  0  0  0  0  0  0
    3.4068   20.5976   -2.1988 C   0  0  0  0  0  0  0  0  0  0  0  0
    4.2901   21.6607   -1.6322 C   0  0  0  0  0  0  0  0  0  0  0  0
    4.6334   19.5523   -0.3061 C   0  0  0  0  0  0  0  0  0  0  0  0
    3.5502   18.8556   -0.1124 O   0  0  0  0  0  0  0  0  0  0  0  0
    5.4950   19.5863    0.7859 N   0  0  0  0  0  0  0  0  0  0  0  0
    6.4073   20.0764    0.8128 H   0  0  0  0  0  0  0  0  0  0  0  0
    5.1172   18.8862    2.0096 C   0  0  0  0  0  0  0  0  0  0  0  0
    5.4160   17.6363    2.2405 C   0  0  0  0  0  0  0  0  0  0  0  0
    5.0561   16.8969    3.4553 C   0  0  0  0  0  0  0  0  0  0  0  0
    4.2602   17.6272    4.4664 C   0  0  0  0  0  0  0  0  0  0  0  0
    2.9987   17.0016    4.5335 F   0  0  0  0  0  0  0  0  0  0  0  0
    3.9629   19.0451    4.1417 C   0  0  0  0  0  0  0  0  0  0  0  0
    4.3513   19.6068    3.0300 C   0  0  0  0  0  0  0  0  0  0  0  0
   11.4800   21.2674    0.8162 O   0  0  0  0  0  0  0  0  0  0  0  0
    9.3741   23.3189    3.7064 C   0  0  0  0  0  0  0  0  0  0  0  0
   10.0697   22.6267    2.7588 C   0  0  0  0  0  0  0  0  0  0  0  0
   10.7443   21.4583    3.1267 C   0  0  0  0  0  0  0  0  0  0  0  0
   11.4240   20.7854    2.1520 C   0  0  0  0  0  0  0  0  0  0  0  0
   12.0780   19.6050    2.5107 C   0  0  0  0  0  0  0  0  0  0  0  0
   11.9929   19.2119    3.8282 C   0  0  0  0  0  0  0  0  0  0  0  0
   11.3239   19.9004    4.7569 N   0  0  0  0  0  0  0  0  0  0  0  0
   10.6711   21.0574    4.4359 C   0  0  0  0  0  0  0  0  0  0  0  0
    9.9718   21.7591    5.3826 C   0  0  0  0  0  0  0  0  0  0  0  0
    9.2780   22.9504    5.0467 C   0  0  0  0  0  0  0  0  0  0  0  0
    9.4554   25.5927    2.9366 C   0  0  0  0  0  0  0  0  0  0  0  0
    8.6898   24.4843    3.3667 O   0  0  0  0  0  0  0  0  0  0  0  0
    8.6441   23.6158    5.9003 O   0  0  0  0  0  0  0  0  0  0  0  0
    8.0471   24.2701    6.8830 C   0  0  0  0  0  0  0  0  0  0  0  0
    6.5214   24.4311    6.6532 C   0  0  0  0  0  0  0  0  0  0  0  0
    6.0667   23.4374    5.5994 C   0  0  0  0  0  0  0  0  0  0  0  0
    5.3626   22.3547    6.1829 N   0  0  0  0  0  0  0  0  0  0  0  0
    6.1106   21.1887    6.4259 C   0  0  0  0  0  0  0  0  0  0  0  0
    5.4622   20.3456    7.4875 C   0  0  0  0  0  0  0  0  0  0  0  0
    4.1155   20.2387    7.1606 O   0  0  0  0  0  0  0  0  0  0  0  0
    3.4356   21.4277    7.3892 C   0  0  0  0  0  0  0  0  0  0  0  0
    4.2136   22.6320    6.9398 C   0  0  0  0  0  0  0  0  0  0  0  0
 37 38  1  0  0  0
 38 27  1  0  0  0
 27 28  2  0  0  0
 28 29  1  0  0  0
 29 30  2  0  0  0
 30 26  1  0  0  0
 26  1  1  0  0  0
  1  2  2  0  0  0
  2  3  1  0  0  0
  3  4  2  0  0  0
  4  8  1  0  0  0
  8  9  1  0  0  0
  9 10  2  0  0  0
  9 12  1  0  0  0
 12 13  1  0  0  0
 13 14  1  0  0  0
 12 15  1  0  0  0
 15 16  2  0  0  0
 15 17  1  0  0  0
 17 19  1  0  0  0
 19 20  2  0  0  0
 20 21  1  0  0  0
 21 22  1  0  0  0
 22 23  1  0  0  0
 22 24  1  0  0  0
 24 25  2  0  0  0
  4  5  1  0  0  0
  5  6  2  0  0  0
  6  7  1  0  0  0
 30 31  1  0  0  0
 31 32  2  0  0  0
 32 33  1  0  0  0
 33 34  2  0  0  0
 34 35  1  0  0  0
 35 36  2  0  0  0
 36 39  1  0  0  0
 39 40  1  0  0  0
 40 41  1  0  0  0
 41 42  1  0  0  0
 42 43  1  0  0  0
 43 44  1  0  0  0
 44 45  1  0  0  0
 45 46  1  0  0  0
 46 47  1  0  0  0
 47 48  1  0  0  0
 36 27  1  0  0  0
 48 43  1  0  0  0
 34 29  1  0  0  0
  6  1  1  0  0  0
 14 12  1  0  0  0
 25 19  1  0  0  0
  8 11  1  0  0  0
 17 18  1  0  0  0
M  END
> <minimizedAffinity>
-5.62904

> <CNNscore>
0.1860003322

> <CNNaffinity>
6.5905394554

> <CNN_VS>
1.2258424759

> <CNNaffinity_variance>
0.7811328173

$$$$
[H]C1=C([H])C([H])(F)C([H])([H])C([H])=C1N([H])C(=O)C1(C(=O)N([H])c2nc(F)c(Oc3c([H])c([H])nc4c([H])c(OC([H])([H])C([H])([H])C([H])([H])N5C([H])([H])C([H])([H])OC([H])([H])C5([H])[H])c(OC([H])([H])[H])c([H])c34)c([H])c2[H])C([H])([H])C1([H])[H]


 48 53  0  0  0  0  0  0  0  0999 V2000
   10.4494   20.7839    0.2323 C   0  0  0  0  0  0  0  0  0  0  0  0
    9.9778   19.5030    0.0513 C   0  0  0  0  0  0  0  0  0  0  0  0
    8.9707   19.2862   -0.8610 C   0  0  0  0  0  0  0  0  0  0  0  0
    8.3856   20.2574   -1.6219 C   0  0  0  0  0  0  0  0  0  0  0  0
    8.9156   21.5201   -1.3863 N   0  0  0  0  0  0  0  0  0  0  0  0
    9.8824   21.7745   -0.5178 C   0  0  0  0  0  0  0  0  0  0  0  0
   10.3423   23.0720   -0.3448 F   0  0  0  0  0  0  0  0  0  0  0  0
    7.3057   20.1243   -2.4906 N   0  0  0  0  0  0  0  0  0  0  0  0
    5.9601   20.0597   -2.4273 C   0  0  0  0  0  0  0  0  0  0  0  0
    5.3997   20.0783   -3.6885 O   0  0  0  0  0  0  0  0  0  0  0  0
    7.6800   20.1567   -3.5589 H   0  0  0  0  0  0  0  0  0  0  0  0
    4.8565   19.9914   -1.4747 C   0  0  0  0  0  0  0  0  0  0  0  0
    3.4373   19.9382   -2.0491 C   0  0  0  0  0  0  0  0  0  0  0  0
    3.9784   21.2749   -1.6593 C   0  0  0  0  0  0  0  0  0  0  0  0
    4.9063   19.5512   -0.0814 C   0  0  0  0  0  0  0  0  0  0  0  0
    5.8197   20.1165    0.6549 O   0  0  0  0  0  0  0  0  0  0  0  0
    4.1222   18.6206    0.5934 N   0  0  0  0  0  0  0  0  0  0  0  0
    3.3403   18.0834    0.1771 H   0  0  0  0  0  0  0  0  0  0  0  0
    4.3931   18.3536    2.0025 C   0  0  0  0  0  0  0  0  0  0  0  0
    5.1742   17.3904    2.4112 C   0  0  0  0  0  0  0  0  0  0  0  0
    5.4726   17.0893    3.8155 C   0  0  0  0  0  0  0  0  0  0  0  0
    4.7971   17.9251    4.8324 C   0  0  0  0  0  0  0  0  0  0  0  0
    3.9222   17.0829    5.5483 F   0  0  0  0  0  0  0  0  0  0  0  0
    3.9297   19.0046    4.2971 C   0  0  0  0  0  0  0  0  0  0  0  0
    3.7504   19.1914    3.0183 C   0  0  0  0  0  0  0  0  0  0  0  0
   11.4715   21.0199    1.1580 O   0  0  0  0  0  0  0  0  0  0  0  0
    8.3459   21.7779    3.7372 C   0  0  0  0  0  0  0  0  0  0  0  0
    9.3826   21.5130    2.8911 C   0  0  0  0  0  0  0  0  0  0  0  0
   10.3780   20.6169    3.2929 C   0  0  0  0  0  0  0  0  0  0  0  0
   11.3972   20.3680    2.4187 C   0  0  0  0  0  0  0  0  0  0  0  0
   12.3795   19.4547    2.8067 C   0  0  0  0  0  0  0  0  0  0  0  0
   12.2483   18.8775    4.0506 C   0  0  0  0  0  0  0  0  0  0  0  0
   11.2402   19.1509    4.8830 N   0  0  0  0  0  0  0  0  0  0  0  0
   10.2619   20.0377    4.5304 C   0  0  0  0  0  0  0  0  0  0  0  0
    9.2183   20.3103    5.3756 C   0  0  0  0  0  0  0  0  0  0  0  0
    8.1920   21.2165    5.0031 C   0  0  0  0  0  0  0  0  0  0  0  0
    7.7014   23.7634    2.5489 C   0  0  0  0  0  0  0  0  0  0  0  0
    7.3384   22.6640    3.3609 O   0  0  0  0  0  0  0  0  0  0  0  0
    7.2359   21.4913    5.7670 O   0  0  0  0  0  0  0  0  0  0  0  0
    6.2417   21.6731    6.6208 C   0  0  0  0  0  0  0  0  0  0  0  0
    5.0909   22.5256    6.0248 C   0  0  0  0  0  0  0  0  0  0  0  0
    4.8701   23.7479    6.8976 C   0  0  0  0  0  0  0  0  0  0  0  0
    5.7894   24.7790    6.5813 N   0  0  0  0  0  0  0  0  0  0  0  0
    6.8497   24.9626    7.4869 C   0  0  0  0  0  0  0  0  0  0  0  0
    8.0072   25.6567    6.8259 C   0  0  0  0  0  0  0  0  0  0  0  0
    7.4927   26.7529    6.1437 O   0  0  0  0  0  0  0  0  0  0  0  0
    6.7972   26.3688    5.0049 C   0  0  0  0  0  0  0  0  0  0  0  0
    5.9264   25.1670    5.2394 C   0  0  0  0  0  0  0  0  0  0  0  0
 37 38  1  0  0  0
 38 27  1  0  0  0
 27 28  2  0  0  0
 28 29  1  0  0  0
 29 30  2  0  0  0
 30 26  1  0  0  0
 26  1  1  0  0  0
  1  2  2  0  0  0
  2  3  1  0  0  0
  3  4  2  0  0  0
  4  8  1  0  0  0
  8  9  1  0  0  0
  9 10  2  0  0  0
  9 12  1  0  0  0
 12 13  1  0  0  0
 13 14  1  0  0  0
 12 15  1  0  0  0
 15 16  2  0  0  0
 15 17  1  0  0  0
 17 19  1  0  0  0
 19 20  2  0  0  0
 20 21  1  0  0  0
 21 22  1  0  0  0
 22 23  1  0  0  0
 22 24  1  0  0  0
 24 25  2  0  0  0
  4  5  1  0  0  0
  5  6  2  0  0  0
  6  7  1  0  0  0
 30 31  1  0  0  0
 31 32  2  0  0  0
 32 33  1  0  0  0
 33 34  2  0  0  0
 34 35  1  0  0  0
 35 36  2  0  0  0
 36 39  1  0  0  0
 39 40  1  0  0  0
 40 41  1  0  0  0
 41 42  1  0  0  0
 42 43  1  0  0  0
 43 44  1  0  0  0
 44 45  1  0  0  0
 45 46  1  0  0  0
 46 47  1  0  0  0
 47 48  1  0  0  0
 36 27  1  0  0  0
 48 43  1  0  0  0
 34 29  1  0  0  0
  6  1  1  0  0  0
 14 12  1  0  0  0
 25 19  1  0  0  0
  8 11  1  0  0  0
 17 18  1  0  0  0
M  END
> <minimizedAffinity>
-4.79290

> <CNNscore>
0.1459534615

> <CNNaffinity>
6.2326521873

> <CNN_VS>
0.9096771479

> <CNNaffinity_variance>
0.7338007092

$$$$
[H]C1=C([H])C([H])(F)C([H])([H])C([H])=C1N([H])C(=O)C1(C(=O)N([H])c2nc(F)c(Oc3c([H])c([H])nc4c([H])c(OC([H])([H])C([H])([H])C([H])([H])N5C([H])([H])C([H])([H])OC([H])([H])C5([H])[H])c(OC([H])([H])[H])c([H])c34)c([H])c2[H])C([H])([H])C1([H])[H]


 48 53  0  0  0  0  0  0  0  0999 V2000
    8.6132   23.1184    1.6030 C   0  0  0  0  0  0  0  0  0  0  0  0
    7.5297   22.3874    2.0361 C   0  0  0  0  0  0  0  0  0  0  0  0
    7.0234   22.6269    3.2930 C   0  0  0  0  0  0  0  0  0  0  0  0
    7.5158   23.5518    4.1686 C   0  0  0  0  0  0  0  0  0  0  0  0
    8.6041   24.2505    3.6604 N   0  0  0  0  0  0  0  0  0  0  0  0
    9.1246   24.0518    2.4589 C   0  0  0  0  0  0  0  0  0  0  0  0
   10.2195   24.7941    2.0406 F   0  0  0  0  0  0  0  0  0  0  0  0
    7.1141   23.7804    5.4820 N   0  0  0  0  0  0  0  0  0  0  0  0
    6.2442   24.5647    6.1505 C   0  0  0  0  0  0  0  0  0  0  0  0
    6.1858   24.2200    7.4858 O   0  0  0  0  0  0  0  0  0  0  0  0
    7.6199   23.0300    6.1628 H   0  0  0  0  0  0  0  0  0  0  0  0
    5.3066   25.6663    5.9564 C   0  0  0  0  0  0  0  0  0  0  0  0
    4.5041   26.1269    7.1773 C   0  0  0  0  0  0  0  0  0  0  0  0
    3.8658   25.1341    6.2616 C   0  0  0  0  0  0  0  0  0  0  0  0
    5.3125   26.6655    4.8891 C   0  0  0  0  0  0  0  0  0  0  0  0
    5.7858   26.2631    3.7444 O   0  0  0  0  0  0  0  0  0  0  0  0
    4.8831   27.9890    4.8976 N   0  0  0  0  0  0  0  0  0  0  0  0
    4.4661   28.4771    5.7107 H   0  0  0  0  0  0  0  0  0  0  0  0
    5.0142   28.7850    3.6814 C   0  0  0  0  0  0  0  0  0  0  0  0
    4.0371   28.9631    2.8336 C   0  0  0  0  0  0  0  0  0  0  0  0
    4.1271   29.7547    1.6020 C   0  0  0  0  0  0  0  0  0  0  0  0
    5.4432   30.3561    1.2933 C   0  0  0  0  0  0  0  0  0  0  0  0
    5.9183   29.7366    0.1195 F   0  0  0  0  0  0  0  0  0  0  0  0
    6.5055   30.1192    2.3030 C   0  0  0  0  0  0  0  0  0  0  0  0
    6.3055   29.4074    3.3781 C   0  0  0  0  0  0  0  0  0  0  0  0
    9.1401   22.8843    0.3283 O   0  0  0  0  0  0  0  0  0  0  0  0
    6.2156   20.2154   -0.8211 C   0  0  0  0  0  0  0  0  0  0  0  0
    7.1943   21.0896   -0.4485 C   0  0  0  0  0  0  0  0  0  0  0  0
    8.5191   20.6457   -0.3923 C   0  0  0  0  0  0  0  0  0  0  0  0
    9.4749   21.5486   -0.0233 C   0  0  0  0  0  0  0  0  0  0  0  0
   10.8018   21.1153    0.0097 C   0  0  0  0  0  0  0  0  0  0  0  0
   11.0452   19.8019   -0.3271 C   0  0  0  0  0  0  0  0  0  0  0  0
   10.0827   18.9442   -0.6764 N   0  0  0  0  0  0  0  0  0  0  0  0
    8.7752   19.3394   -0.7212 C   0  0  0  0  0  0  0  0  0  0  0  0
    7.7864   18.4666   -1.0929 C   0  0  0  0  0  0  0  0  0  0  0  0
    6.4308   18.8806   -1.1581 C   0  0  0  0  0  0  0  0  0  0  0  0
    4.3073   21.1677    0.2838 C   0  0  0  0  0  0  0  0  0  0  0  0
    4.8876   20.6320   -0.8892 O   0  0  0  0  0  0  0  0  0  0  0  0
    5.5086   18.0945   -1.4816 O   0  0  0  0  0  0  0  0  0  0  0  0
    4.5059   17.3437   -1.9075 C   0  0  0  0  0  0  0  0  0  0  0  0
    3.4806   17.0253   -0.7878 C   0  0  0  0  0  0  0  0  0  0  0  0
    4.2163   16.4865    0.4258 C   0  0  0  0  0  0  0  0  0  0  0  0
    3.8910   17.2215    1.5930 N   0  0  0  0  0  0  0  0  0  0  0  0
    2.9983   16.6022    2.4861 C   0  0  0  0  0  0  0  0  0  0  0  0
    3.1379   17.1741    3.8688 C   0  0  0  0  0  0  0  0  0  0  0  0
    3.1293   18.5582    3.7428 O   0  0  0  0  0  0  0  0  0  0  0  0
    4.3150   19.0316    3.1968 C   0  0  0  0  0  0  0  0  0  0  0  0
    4.8003   18.1868    2.0529 C   0  0  0  0  0  0  0  0  0  0  0  0
 37 38  1  0  0  0
 38 27  1  0  0  0
 27 28  2  0  0  0
 28 29  1  0  0  0
 29 30  2  0  0  0
 30 26  1  0  0  0
 26  1  1  0  0  0
  1  2  2  0  0  0
  2  3  1  0  0  0
  3  4  2  0  0  0
  4  8  1  0  0  0
  8  9  1  0  0  0
  9 10  2  0  0  0
  9 12  1  0  0  0
 12 13  1  0  0  0
 13 14  1  0  0  0
 12 15  1  0  0  0
 15 16  2  0  0  0
 15 17  1  0  0  0
 17 19  1  0  0  0
 19 20  2  0  0  0
 20 21  1  0  0  0
 21 22  1  0  0  0
 22 23  1  0  0  0
 22 24  1  0  0  0
 24 25  2  0  0  0
  4  5  1  0  0  0
  5  6  2  0  0  0
  6  7  1  0  0  0
 30 31  1  0  0  0
 31 32  2  0  0  0
 32 33  1  0  0  0
 33 34  2  0  0  0
 34 35  1  0  0  0
 35 36  2  0  0  0
 36 39  1  0  0  0
 39 40  1  0  0  0
 40 41  1  0  0  0
 41 42  1  0  0  0
 42 43  1  0  0  0
 43 44  1  0  0  0
 44 45  1  0  0  0
 45 46  1  0  0  0
 46 47  1  0  0  0
 47 48  1  0  0  0
 36 27  1  0  0  0
 48 43  1  0  0  0
 34 29  1  0  0  0
  6  1  1  0  0  0
 14 12  1  0  0  0
 25 19  1  0  0  0
  8 11  1  0  0  0
 17 18  1  0  0  0
M  END
> <minimizedAffinity>
-5.72512

> <CNNscore>
0.1427320689

> <CNNaffinity>
5.9491357803

> <CNN_VS>
0.8491324782

> <CNNaffinity_variance>
0.4122041762

$$$$
[H]C1=C([H])C([H])(F)C([H])([H])C([H])=C1N([H])C(=O)C1(C(=O)N([H])c2nc(F)c(Oc3c([H])c([H])nc4c([H])c(OC([H])([H])C([H])([H])C([H])([H])N5C([H])([H])C([H])([H])OC([H])([H])C5([H])[H])c(OC([H])([H])[H])c([H])c34)c([H])c2[H])C([H])([H])C1([H])[H]


 48 53  0  0  0  0  0  0  0  0999 V2000
    8.6587   22.7318    2.2799 C   0  0  0  0  0  0  0  0  0  0  0  0
    7.5231   21.9613    2.3924 C   0  0  0  0  0  0  0  0  0  0  0  0
    6.7290   22.1033    3.5072 C   0  0  0  0  0  0  0  0  0  0  0  0
    6.9770   22.9658    4.5364 C   0  0  0  0  0  0  0  0  0  0  0  0
    8.1357   23.7097    4.3499 N   0  0  0  0  0  0  0  0  0  0  0  0
    8.9295   23.6044    3.2951 C   0  0  0  0  0  0  0  0  0  0  0  0
   10.0724   24.3853    3.2003 F   0  0  0  0  0  0  0  0  0  0  0  0
    6.2714   23.0937    5.7298 N   0  0  0  0  0  0  0  0  0  0  0  0
    5.3348   23.9009    6.2683 C   0  0  0  0  0  0  0  0  0  0  0  0
    4.9002   23.4181    7.4862 O   0  0  0  0  0  0  0  0  0  0  0  0
    6.5111   22.2137    6.4011 H   0  0  0  0  0  0  0  0  0  0  0  0
    4.5865   25.1265    6.0075 C   0  0  0  0  0  0  0  0  0  0  0  0
    3.6782   25.6448    7.1270 C   0  0  0  0  0  0  0  0  0  0  0  0
    3.0598   24.7842    6.0742 C   0  0  0  0  0  0  0  0  0  0  0  0
    4.8794   26.1560    5.0115 C   0  0  0  0  0  0  0  0  0  0  0  0
    5.5282   25.7507    3.9575 O   0  0  0  0  0  0  0  0  0  0  0  0
    4.5673   27.5120    5.0052 N   0  0  0  0  0  0  0  0  0  0  0  0
    4.0443   28.0087    5.7489 H   0  0  0  0  0  0  0  0  0  0  0  0
    4.9944   28.3329    3.8765 C   0  0  0  0  0  0  0  0  0  0  0  0
    6.1122   29.0077    3.8647 C   0  0  0  0  0  0  0  0  0  0  0  0
    6.5777   29.8428    2.7522 C   0  0  0  0  0  0  0  0  0  0  0  0
    5.6811   29.9483    1.5800 C   0  0  0  0  0  0  0  0  0  0  0  0
    5.2478   31.2878    1.5072 F   0  0  0  0  0  0  0  0  0  0  0  0
    4.4317   29.1500    1.6586 C   0  0  0  0  0  0  0  0  0  0  0  0
    4.1270   28.4242    2.6991 C   0  0  0  0  0  0  0  0  0  0  0  0
    9.4769   22.5968    1.1531 O   0  0  0  0  0  0  0  0  0  0  0  0
   12.8648   24.4371   -0.3070 C   0  0  0  0  0  0  0  0  0  0  0  0
   11.7528   23.8200    0.1865 C   0  0  0  0  0  0  0  0  0  0  0  0
   11.8880   22.5870    0.8322 C   0  0  0  0  0  0  0  0  0  0  0  0
   10.7559   22.0005    1.3216 C   0  0  0  0  0  0  0  0  0  0  0  0
   10.8905   20.7813    1.9888 C   0  0  0  0  0  0  0  0  0  0  0  0
   12.1601   20.2577    2.0964 C   0  0  0  0  0  0  0  0  0  0  0  0
   13.2448   20.8570    1.5982 N   0  0  0  0  0  0  0  0  0  0  0  0
   13.1458   22.0523    0.9430 C   0  0  0  0  0  0  0  0  0  0  0  0
   14.2579   22.6775    0.4430 C   0  0  0  0  0  0  0  0  0  0  0  0
   14.1588   23.9275   -0.2209 C   0  0  0  0  0  0  0  0  0  0  0  0
   12.2576   25.6753   -2.2737 C   0  0  0  0  0  0  0  0  0  0  0  0
   12.7596   25.6680   -0.9517 O   0  0  0  0  0  0  0  0  0  0  0  0
   15.1617   24.5098   -0.6988 O   0  0  0  0  0  0  0  0  0  0  0  0
   16.1921   25.2167   -1.1333 C   0  0  0  0  0  0  0  0  0  0  0  0
   16.5310   24.9273   -2.6192 C   0  0  0  0  0  0  0  0  0  0  0  0
   15.2426   24.8267   -3.4157 C   0  0  0  0  0  0  0  0  0  0  0  0
   15.2560   25.7035   -4.5289 N   0  0  0  0  0  0  0  0  0  0  0  0
   15.4817   27.0623   -4.2443 C   0  0  0  0  0  0  0  0  0  0  0  0
   16.0013   27.7860   -5.4545 C   0  0  0  0  0  0  0  0  0  0  0  0
   15.1837   27.4375   -6.5231 O   0  0  0  0  0  0  0  0  0  0  0  0
   15.4128   26.1334   -6.9412 C   0  0  0  0  0  0  0  0  0  0  0  0
   15.5755   25.1799   -5.7914 C   0  0  0  0  0  0  0  0  0  0  0  0
 37 38  1  0  0  0
 38 27  1  0  0  0
 27 28  2  0  0  0
 28 29  1  0  0  0
 29 30  2  0  0  0
 30 26  1  0  0  0
 26  1  1  0  0  0
  1  2  2  0  0  0
  2  3  1  0  0  0
  3  4  2  0  0  0
  4  8  1  0  0  0
  8  9  1  0  0  0
  9 10  2  0  0  0
  9 12  1  0  0  0
 12 13  1  0  0  0
 13 14  1  0  0  0
 12 15  1  0  0  0
 15 16  2  0  0  0
 15 17  1  0  0  0
 17 19  1  0  0  0
 19 20  2  0  0  0
 20 21  1  0  0  0
 21 22  1  0  0  0
 22 23  1  0  0  0
 22 24  1  0  0  0
 24 25  2  0  0  0
  4  5  1  0  0  0
  5  6  2  0  0  0
  6  7  1  0  0  0
 30 31  1  0  0  0
 31 32  2  0  0  0
 32 33  1  0  0  0
 33 34  2  0  0  0
 34 35  1  0  0  0
 35 36  2  0  0  0
 36 39  1  0  0  0
 39 40  1  0  0  0
 40 41  1  0  0  0
 41 42  1  0  0  0
 42 43  1  0  0  0
 43 44  1  0  0  0
 44 45  1  0  0  0
 45 46  1  0  0  0
 46 47  1  0  0  0
 47 48  1  0  0  0
 36 27  1  0  0  0
 48 43  1  0  0  0
 34 29  1  0  0  0
  6  1  1  0  0  0
 14 12  1  0  0  0
 25 19  1  0  0  0
  8 11  1  0  0  0
 17 18  1  0  0  0
M  END
> <minimizedAffinity>
-8.65343

> <CNNscore>
0.0964615494

> <CNNaffinity>
7.0276403427

> <CNN_VS>
0.6778970957

> <CNNaffinity_variance>
0.1323459297

$$$$
[H]C1=C([H])C([H])(F)C([H])([H])C([H])=C1N([H])C(=O)C1(C(=O)N([H])c2nc(F)c(Oc3c([H])c([H])nc4c([H])c(OC([H])([H])C([H])([H])C([H])([H])N5C([H])([H])C([H])([H])OC([H])([H])C5([H])[H])c(OC([H])([H])[H])c([H])c34)c([H])c2[H])C([H])([H])C1([H])[H]


 48 53  0  0  0  0  0  0  0  0999 V2000
   10.0812   19.8820   -0.9145 C   0  0  0  0  0  0  0  0  0  0  0  0
    9.2785   18.8419   -0.5027 C   0  0  0  0  0  0  0  0  0  0  0  0
    8.0566   18.6623   -1.1095 C   0  0  0  0  0  0  0  0  0  0  0  0
    7.5606   19.4469   -2.1111 C   0  0  0  0  0  0  0  0  0  0  0  0
    8.4271   20.4709   -2.4738 N   0  0  0  0  0  0  0  0  0  0  0  0
    9.6097   20.6816   -1.9164 C   0  0  0  0  0  0  0  0  0  0  0  0
   10.4036   21.7374   -2.3404 F   0  0  0  0  0  0  0  0  0  0  0  0
    6.3019   19.3797   -2.7023 N   0  0  0  0  0  0  0  0  0  0  0  0
    5.0241   19.6833   -2.3957 C   0  0  0  0  0  0  0  0  0  0  0  0
    4.1969   19.5228   -3.4889 O   0  0  0  0  0  0  0  0  0  0  0  0
    6.4120   19.0399   -3.7769 H   0  0  0  0  0  0  0  0  0  0  0  0
    4.1858   20.1484   -1.2953 C   0  0  0  0  0  0  0  0  0  0  0  0
    2.9983   21.0485   -1.6509 C   0  0  0  0  0  0  0  0  0  0  0  0
    4.2747   21.7112   -1.2471 C   0  0  0  0  0  0  0  0  0  0  0  0
    4.0550   19.5607    0.0370 C   0  0  0  0  0  0  0  0  0  0  0  0
    3.0145   18.7980    0.2157 O   0  0  0  0  0  0  0  0  0  0  0  0
    4.8753   19.6808    1.1545 N   0  0  0  0  0  0  0  0  0  0  0  0
    5.7517   20.2317    1.1965 H   0  0  0  0  0  0  0  0  0  0  0  0
    4.5039   18.9888    2.3847 C   0  0  0  0  0  0  0  0  0  0  0  0
    3.9540   19.5892    3.4056 C   0  0  0  0  0  0  0  0  0  0  0  0
    3.5658   18.9315    4.6579 C   0  0  0  0  0  0  0  0  0  0  0  0
    3.8640   17.4866    4.7699 C   0  0  0  0  0  0  0  0  0  0  0  0
    4.8279   17.3388    5.7879 F   0  0  0  0  0  0  0  0  0  0  0  0
    4.4824   16.8681    3.5702 C   0  0  0  0  0  0  0  0  0  0  0  0
    4.7703   17.5524    2.4973 C   0  0  0  0  0  0  0  0  0  0  0  0
   11.3252   20.0782   -0.3052 O   0  0  0  0  0  0  0  0  0  0  0  0
   14.2817   22.8218   -1.1591 C   0  0  0  0  0  0  0  0  0  0  0  0
   13.2954   21.9253   -0.8684 C   0  0  0  0  0  0  0  0  0  0  0  0
   12.4824   22.1450    0.2479 C   0  0  0  0  0  0  0  0  0  0  0  0
   11.4996   21.2324    0.5055 C   0  0  0  0  0  0  0  0  0  0  0  0
   10.6699   21.4619    1.6049 C   0  0  0  0  0  0  0  0  0  0  0  0
   10.9124   22.5928    2.3531 C   0  0  0  0  0  0  0  0  0  0  0  0
   11.8890   23.4605    2.0749 N   0  0  0  0  0  0  0  0  0  0  0  0
   12.7151   23.2650    1.0039 C   0  0  0  0  0  0  0  0  0  0  0  0
   13.7091   24.1602    0.7066 C   0  0  0  0  0  0  0  0  0  0  0  0
   14.5554   23.9683   -0.4160 C   0  0  0  0  0  0  0  0  0  0  0  0
   14.7800   21.5724   -3.1490 C   0  0  0  0  0  0  0  0  0  0  0  0
   15.1041   22.6294   -2.2674 O   0  0  0  0  0  0  0  0  0  0  0  0
   15.4804   24.7672   -0.6978 O   0  0  0  0  0  0  0  0  0  0  0  0
   16.4133   25.6810   -0.9095 C   0  0  0  0  0  0  0  0  0  0  0  0
   17.0975   25.5268   -2.2931 C   0  0  0  0  0  0  0  0  0  0  0  0
   17.0160   26.8453   -3.0412 C   0  0  0  0  0  0  0  0  0  0  0  0
   15.8787   26.8883   -3.8856 N   0  0  0  0  0  0  0  0  0  0  0  0
   16.0980   27.3474   -5.1969 C   0  0  0  0  0  0  0  0  0  0  0  0
   15.0192   26.8624   -6.1238 C   0  0  0  0  0  0  0  0  0  0  0  0
   13.8013   27.1173   -5.5044 O   0  0  0  0  0  0  0  0  0  0  0  0
   13.5738   26.2516   -4.4428 C   0  0  0  0  0  0  0  0  0  0  0  0
   14.8008   26.0349   -3.6030 C   0  0  0  0  0  0  0  0  0  0  0  0
 37 38  1  0  0  0
 38 27  1  0  0  0
 27 28  2  0  0  0
 28 29  1  0  0  0
 29 30  2  0  0  0
 30 26  1  0  0  0
 26  1  1  0  0  0
  1  2  2  0  0  0
  2  3  1  0  0  0
  3  4  2  0  0  0
  4  8  1  0  0  0
  8  9  1  0  0  0
  9 10  2  0  0  0
  9 12  1  0  0  0
 12 13  1  0  0  0
 13 14  1  0  0  0
 12 15  1  0  0  0
 15 16  2  0  0  0
 15 17  1  0  0  0
 17 19  1  0  0  0
 19 20  2  0  0  0
 20 21  1  0  0  0
 21 22  1  0  0  0
 22 23  1  0  0  0
 22 24  1  0  0  0
 24 25  2  0  0  0
  4  5  1  0  0  0
  5  6  2  0  0  0
  6  7  1  0  0  0
 30 31  1  0  0  0
 31 32  2  0  0  0
 32 33  1  0  0  0
 33 34  2  0  0  0
 34 35  1  0  0  0
 35 36  2  0  0  0
 36 39  1  0  0  0
 39 40  1  0  0  0
 40 41  1  0  0  0
 41 42  1  0  0  0
 42 43  1  0  0  0
 43 44  1  0  0  0
 44 45  1  0  0  0
 45 46  1  0  0  0
 46 47  1  0  0  0
 47 48  1  0  0  0
 36 27  1  0  0  0
 48 43  1  0  0  0
 34 29  1  0  0  0
  6  1  1  0  0  0
 14 12  1  0  0  0
 25 19  1  0  0  0
  8 11  1  0  0  0
 17 18  1  0  0  0
M  END
> <minimizedAffinity>
-5.30142

> <CNNscore>
0.0844240263

> <CNNaffinity>
7.1665487289

> <CNN_VS>
0.6050289273

> <CNNaffinity_variance>
0.0704468489

$$$$
[H]C1=C([H])C([H])(F)C([H])([H])C([H])=C1N([H])C(=O)C1(C(=O)N([H])c2nc(F)c(Oc3c([H])c([H])nc4c([H])c(OC([H])([H])C([H])([H])C([H])([H])N5C([H])([H])C([H])([H])OC([H])([H])C5([H])[H])c(OC([H])([H])[H])c([H])c34)c([H])c2[H])C([H])([H])C1([H])[H]


 48 53  0  0  0  0  0  0  0  0999 V2000
    8.7125   21.3349    0.0032 C   0  0  0  0  0  0  0  0  0  0  0  0
    8.9957   20.6980   -1.1842 C   0  0  0  0  0  0  0  0  0  0  0  0
    8.0760   19.8157   -1.7032 C   0  0  0  0  0  0  0  0  0  0  0  0
    6.8761   19.5115   -1.1268 C   0  0  0  0  0  0  0  0  0  0  0  0
    6.6607   20.1944    0.0640 N   0  0  0  0  0  0  0  0  0  0  0  0
    7.5177   21.0498    0.6003 C   0  0  0  0  0  0  0  0  0  0  0  0
    7.2182   21.6790    1.8000 F   0  0  0  0  0  0  0  0  0  0  0  0
    5.9451   18.5649   -1.5460 N   0  0  0  0  0  0  0  0  0  0  0  0
    4.9708   17.8004   -1.0119 C   0  0  0  0  0  0  0  0  0  0  0  0
    4.2592   17.1409   -1.9936 O   0  0  0  0  0  0  0  0  0  0  0  0
    5.9804   18.4812   -2.6748 H   0  0  0  0  0  0  0  0  0  0  0  0
    4.3756   17.4251    0.2668 C   0  0  0  0  0  0  0  0  0  0  0  0
    3.0398   16.6763    0.2250 C   0  0  0  0  0  0  0  0  0  0  0  0
    2.9985   18.1600    0.3932 C   0  0  0  0  0  0  0  0  0  0  0  0
    5.0482   17.2851    1.5573 C   0  0  0  0  0  0  0  0  0  0  0  0
    6.3295   17.0581    1.5022 O   0  0  0  0  0  0  0  0  0  0  0  0
    4.5357   17.3629    2.8486 N   0  0  0  0  0  0  0  0  0  0  0  0
    3.5456   17.5507    3.0886 H   0  0  0  0  0  0  0  0  0  0  0  0
    5.4353   17.1703    3.9816 C   0  0  0  0  0  0  0  0  0  0  0  0
    5.8816   18.1531    4.7164 C   0  0  0  0  0  0  0  0  0  0  0  0
    6.7853   18.0025    5.8620 C   0  0  0  0  0  0  0  0  0  0  0  0
    7.2468   16.6306    6.1684 C   0  0  0  0  0  0  0  0  0  0  0  0
    8.6373   16.5987    5.9386 F   0  0  0  0  0  0  0  0  0  0  0  0
    6.6947   15.5623    5.2977 C   0  0  0  0  0  0  0  0  0  0  0  0
    5.8786   15.8131    4.3111 C   0  0  0  0  0  0  0  0  0  0  0  0
    9.6390   22.2329    0.5441 O   0  0  0  0  0  0  0  0  0  0  0  0
   13.0594   24.3028   -0.4625 C   0  0  0  0  0  0  0  0  0  0  0  0
   11.9356   23.6106   -0.1176 C   0  0  0  0  0  0  0  0  0  0  0  0
   12.0655   22.3996    0.5695 C   0  0  0  0  0  0  0  0  0  0  0  0
   10.9203   21.7364    0.9066 C   0  0  0  0  0  0  0  0  0  0  0  0
   11.0455   20.5394    1.6147 C   0  0  0  0  0  0  0  0  0  0  0  0
   12.3211   20.1138    1.9139 C   0  0  0  0  0  0  0  0  0  0  0  0
   13.4199   20.7862    1.5610 N   0  0  0  0  0  0  0  0  0  0  0  0
   13.3297   21.9622    0.8705 C   0  0  0  0  0  0  0  0  0  0  0  0
   14.4539   22.6623    0.5191 C   0  0  0  0  0  0  0  0  0  0  0  0
   14.3610   23.8928   -0.1813 C   0  0  0  0  0  0  0  0  0  0  0  0
   12.1751   25.5413   -2.3209 C   0  0  0  0  0  0  0  0  0  0  0  0
   12.9591   25.5140   -1.1443 O   0  0  0  0  0  0  0  0  0  0  0  0
   15.3774   24.5423   -0.5254 O   0  0  0  0  0  0  0  0  0  0  0  0
   16.5103   25.1645   -0.8075 C   0  0  0  0  0  0  0  0  0  0  0  0
   16.6630   25.4705   -2.3206 C   0  0  0  0  0  0  0  0  0  0  0  0
   15.3851   25.0801   -3.0413 C   0  0  0  0  0  0  0  0  0  0  0  0
   15.2754   25.7425   -4.2894 N   0  0  0  0  0  0  0  0  0  0  0  0
   15.3089   27.1480   -4.2496 C   0  0  0  0  0  0  0  0  0  0  0  0
   15.7218   27.7137   -5.5792 C   0  0  0  0  0  0  0  0  0  0  0  0
   14.9605   27.0748   -6.5509 O   0  0  0  0  0  0  0  0  0  0  0  0
   15.3695   25.7618   -6.7427 C   0  0  0  0  0  0  0  0  0  0  0  0
   15.6644   25.0554   -5.4498 C   0  0  0  0  0  0  0  0  0  0  0  0
 37 38  1  0  0  0
 38 27  1  0  0  0
 27 28  2  0  0  0
 28 29  1  0  0  0
 29 30  2  0  0  0
 30 26  1  0  0  0
 26  1  1  0  0  0
  1  2  2  0  0  0
  2  3  1  0  0  0
  3  4  2  0  0  0
  4  8  1  0  0  0
  8  9  1  0  0  0
  9 10  2  0  0  0
  9 12  1  0  0  0
 12 13  1  0  0  0
 13 14  1  0  0  0
 12 15  1  0  0  0
 15 16  2  0  0  0
 15 17  1  0  0  0
 17 19  1  0  0  0
 19 20  2  0  0  0
 20 21  1  0  0  0
 21 22  1  0  0  0
 22 23  1  0  0  0
 22 24  1  0  0  0
 24 25  2  0  0  0
  4  5  1  0  0  0
  5  6  2  0  0  0
  6  7  1  0  0  0
 30 31  1  0  0  0
 31 32  2  0  0  0
 32 33  1  0  0  0
 33 34  2  0  0  0
 34 35  1  0  0  0
 35 36  2  0  0  0
 36 39  1  0  0  0
 39 40  1  0  0  0
 40 41  1  0  0  0
 41 42  1  0  0  0
 42 43  1  0  0  0
 43 44  1  0  0  0
 44 45  1  0  0  0
 45 46  1  0  0  0
 46 47  1  0  0  0
 47 48  1  0  0  0
 36 27  1  0  0  0
 48 43  1  0  0  0
 34 29  1  0  0  0
  6  1  1  0  0  0
 14 12  1  0  0  0
 25 19  1  0  0  0
  8 11  1  0  0  0
 17 18  1  0  0  0
M  END
> <minimizedAffinity>
-8.00695

> <CNNscore>
0.0840365142

> <CNNaffinity>
7.1184568405

> <CNN_VS>
0.5982102752

> <CNNaffinity_variance>
0.2262076437

$$$$
[H]C1=C([H])C([H])(F)C([H])([H])C([H])=C1N([H])C(=O)C1(C(=O)N([H])c2nc(F)c(Oc3c([H])c([H])nc4c([H])c(OC([H])([H])C([H])([H])C([H])([H])N5C([H])([H])C([H])([H])OC([H])([H])C5([H])[H])c(OC([H])([H])[H])c([H])c34)c([H])c2[H])C([H])([H])C1([H])[H]


 48 53  0  0  0  0  0  0  0  0999 V2000
    7.8816   20.6415   -0.1479 C   0  0  0  0  0  0  0  0  0  0  0  0
    9.0057   20.1290   -0.7560 C   0  0  0  0  0  0  0  0  0  0  0  0
   10.2400   20.6203   -0.3976 C   0  0  0  0  0  0  0  0  0  0  0  0
   10.4502   21.5964    0.5340 C   0  0  0  0  0  0  0  0  0  0  0  0
    9.2715   22.0604    1.1049 N   0  0  0  0  0  0  0  0  0  0  0  0
    8.0637   21.6182    0.7892 C   0  0  0  0  0  0  0  0  0  0  0  0
    6.9415   22.1493    1.4085 F   0  0  0  0  0  0  0  0  0  0  0  0
   11.6562   22.2023    0.8760 N   0  0  0  0  0  0  0  0  0  0  0  0
   12.8433   22.4854    0.3020 C   0  0  0  0  0  0  0  0  0  0  0  0
   13.6245   23.2660    1.1300 O   0  0  0  0  0  0  0  0  0  0  0  0
   11.5698   22.6453    1.9146 H   0  0  0  0  0  0  0  0  0  0  0  0
   13.6092   22.2679   -0.9212 C   0  0  0  0  0  0  0  0  0  0  0  0
   13.5125   20.8844   -1.5719 C   0  0  0  0  0  0  0  0  0  0  0  0
   14.6544   21.1355   -0.6421 C   0  0  0  0  0  0  0  0  0  0  0  0
   14.1223   23.2788   -1.8444 C   0  0  0  0  0  0  0  0  0  0  0  0
   14.5932   22.8248   -2.9706 O   0  0  0  0  0  0  0  0  0  0  0  0
   14.1830   24.6629   -1.7150 N   0  0  0  0  0  0  0  0  0  0  0  0
   13.8441   25.2025   -0.8983 H   0  0  0  0  0  0  0  0  0  0  0  0
   14.7640   25.4516   -2.7970 C   0  0  0  0  0  0  0  0  0  0  0  0
   16.0103   25.8410   -2.8094 C   0  0  0  0  0  0  0  0  0  0  0  0
   16.6325   26.6330   -3.8759 C   0  0  0  0  0  0  0  0  0  0  0  0
   15.7562   27.0464   -4.9941 C   0  0  0  0  0  0  0  0  0  0  0  0
   15.6550   28.4516   -4.9453 F   0  0  0  0  0  0  0  0  0  0  0  0
   14.3545   26.5630   -4.9184 C   0  0  0  0  0  0  0  0  0  0  0  0
   13.9127   25.8448   -3.9227 C   0  0  0  0  0  0  0  0  0  0  0  0
    6.6197   20.1533   -0.5038 O   0  0  0  0  0  0  0  0  0  0  0  0
    4.7093   19.2325    3.0317 C   0  0  0  0  0  0  0  0  0  0  0  0
    5.3363   19.5234    1.8555 C   0  0  0  0  0  0  0  0  0  0  0  0
    5.6875   18.4792    0.9944 C   0  0  0  0  0  0  0  0  0  0  0  0
    6.3065   18.8058   -0.1783 C   0  0  0  0  0  0  0  0  0  0  0  0
    6.6361   17.7676   -1.0518 C   0  0  0  0  0  0  0  0  0  0  0  0
    6.3166   16.4866   -0.6584 C   0  0  0  0  0  0  0  0  0  0  0  0
    5.7168   16.2040    0.5010 N   0  0  0  0  0  0  0  0  0  0  0  0
    5.3788   17.1986    1.3753 C   0  0  0  0  0  0  0  0  0  0  0  0
    4.7504   16.9142    2.5593 C   0  0  0  0  0  0  0  0  0  0  0  0
    4.3821   17.9475    3.4593 C   0  0  0  0  0  0  0  0  0  0  0  0
    5.3782   21.0509    4.4515 C   0  0  0  0  0  0  0  0  0  0  0  0
    4.3448   20.2538    3.9068 O   0  0  0  0  0  0  0  0  0  0  0  0
    3.8196   17.7083    4.5545 O   0  0  0  0  0  0  0  0  0  0  0  0
    3.3324   17.4206    5.7505 C   0  0  0  0  0  0  0  0  0  0  0  0
    4.3588   17.6641    6.8879 C   0  0  0  0  0  0  0  0  0  0  0  0
    5.5876   16.8064    6.6449 C   0  0  0  0  0  0  0  0  0  0  0  0
    6.7793   17.5367    6.8788 N   0  0  0  0  0  0  0  0  0  0  0  0
    7.9652   16.9599    6.3897 C   0  0  0  0  0  0  0  0  0  0  0  0
    9.0324   18.0014    6.2032 C   0  0  0  0  0  0  0  0  0  0  0  0
    9.0706   18.7621    7.3658 O   0  0  0  0  0  0  0  0  0  0  0  0
    7.9696   19.6022    7.4663 C   0  0  0  0  0  0  0  0  0  0  0  0
    6.6895   18.9248    7.0662 C   0  0  0  0  0  0  0  0  0  0  0  0
 37 38  1  0  0  0
 38 27  1  0  0  0
 27 28  2  0  0  0
 28 29  1  0  0  0
 29 30  2  0  0  0
 30 26  1  0  0  0
 26  1  1  0  0  0
  1  2  2  0  0  0
  2  3  1  0  0  0
  3  4  2  0  0  0
  4  8  1  0  0  0
  8  9  1  0  0  0
  9 10  2  0  0  0
  9 12  1  0  0  0
 12 13  1  0  0  0
 13 14  1  0  0  0
 12 15  1  0  0  0
 15 16  2  0  0  0
 15 17  1  0  0  0
 17 19  1  0  0  0
 19 20  2  0  0  0
 20 21  1  0  0  0
 21 22  1  0  0  0
 22 23  1  0  0  0
 22 24  1  0  0  0
 24 25  2  0  0  0
  4  5  1  0  0  0
  5  6  2  0  0  0
  6  7  1  0  0  0
 30 31  1  0  0  0
 31 32  2  0  0  0
 32 33  1  0  0  0
 33 34  2  0  0  0
 34 35  1  0  0  0
 35 36  2  0  0  0
 36 39  1  0  0  0
 39 40  1  0  0  0
 40 41  1  0  0  0
 41 42  1  0  0  0
 42 43  1  0  0  0
 43 44  1  0  0  0
 44 45  1  0  0  0
 45 46  1  0  0  0
 46 47  1  0  0  0
 47 48  1  0  0  0
 36 27  1  0  0  0
 48 43  1  0  0  0
 34 29  1  0  0  0
  6  1  1  0  0  0
 14 12  1  0  0  0
 25 19  1  0  0  0
  8 11  1  0  0  0
 17 18  1  0  0  0
M  END
> <minimizedAffinity>
-8.87658

> <CNNscore>
0.0779148117

> <CNNaffinity>
6.8843469620

> <CNN_VS>
0.5363925695

> <CNNaffinity_variance>
0.3187593520

$$$$
[H]C1=C([H])C([H])(F)C([H])([H])C([H])=C1N([H])C(=O)C1(C(=O)N([H])c2nc(F)c(Oc3c([H])c([H])nc4c([H])c(OC([H])([H])C([H])([H])C([H])([H])N5C([H])([H])C([H])([H])OC([H])([H])C5([H])[H])c(OC([H])([H])[H])c([H])c34)c([H])c2[H])C([H])([H])C1([H])[H]


 48 53  0  0  0  0  0  0  0  0999 V2000
    9.6753   23.8807    2.9322 C   0  0  0  0  0  0  0  0  0  0  0  0
    9.2844   23.8337    4.2516 C   0  0  0  0  0  0  0  0  0  0  0  0
    8.1269   24.4762    4.6271 C   0  0  0  0  0  0  0  0  0  0  0  0
    7.3121   25.1727    3.7811 C   0  0  0  0  0  0  0  0  0  0  0  0
    7.7696   25.1723    2.4691 N   0  0  0  0  0  0  0  0  0  0  0  0
    8.8771   24.5697    2.0641 C   0  0  0  0  0  0  0  0  0  0  0  0
    9.2586   24.6312    0.7316 F   0  0  0  0  0  0  0  0  0  0  0  0
    6.1837   25.9200    4.1077 N   0  0  0  0  0  0  0  0  0  0  0  0
    5.2001   25.9140    5.0305 C   0  0  0  0  0  0  0  0  0  0  0  0
    4.4150   27.0448    4.9305 O   0  0  0  0  0  0  0  0  0  0  0  0
    6.1367   26.8350    3.4423 H   0  0  0  0  0  0  0  0  0  0  0  0
    4.6664   25.1246    6.1360 C   0  0  0  0  0  0  0  0  0  0  0  0
    3.6800   25.8186    7.0805 C   0  0  0  0  0  0  0  0  0  0  0  0
    5.1207   25.7984    7.4746 C   0  0  0  0  0  0  0  0  0  0  0  0
    4.6037   23.6678    6.2436 C   0  0  0  0  0  0  0  0  0  0  0  0
    3.4972   23.1871    6.7342 O   0  0  0  0  0  0  0  0  0  0  0  0
    5.5431   22.7019    5.8963 N   0  0  0  0  0  0  0  0  0  0  0  0
    6.4720   22.8937    5.4798 H   0  0  0  0  0  0  0  0  0  0  0  0
    5.2298   21.2944    6.1220 C   0  0  0  0  0  0  0  0  0  0  0  0
    5.8742   20.5456    6.9759 C   0  0  0  0  0  0  0  0  0  0  0  0
    5.5910   19.1294    7.2326 C   0  0  0  0  0  0  0  0  0  0  0  0
    4.5174   18.5095    6.4251 C   0  0  0  0  0  0  0  0  0  0  0  0
    5.1232   17.5352    5.6060 F   0  0  0  0  0  0  0  0  0  0  0  0
    3.8232   19.4201    5.4800 C   0  0  0  0  0  0  0  0  0  0  0  0
    4.1510   20.6759    5.3470 C   0  0  0  0  0  0  0  0  0  0  0  0
   10.8510   23.2340    2.5361 O   0  0  0  0  0  0  0  0  0  0  0  0
    8.2425   20.7012    0.5925 C   0  0  0  0  0  0  0  0  0  0  0  0
    9.1096   21.5458    1.2215 C   0  0  0  0  0  0  0  0  0  0  0  0
   10.1759   22.0897    0.4987 C   0  0  0  0  0  0  0  0  0  0  0  0
   11.0204   22.9377    1.1565 C   0  0  0  0  0  0  0  0  0  0  0  0
   12.0716   23.5021    0.4313 C   0  0  0  0  0  0  0  0  0  0  0  0
   12.1809   23.1529   -0.8968 C   0  0  0  0  0  0  0  0  0  0  0  0
   11.3393   22.3133   -1.5057 N   0  0  0  0  0  0  0  0  0  0  0  0
   10.2989   21.7475   -0.8234 C   0  0  0  0  0  0  0  0  0  0  0  0
    9.4248   20.8969   -1.4479 C   0  0  0  0  0  0  0  0  0  0  0  0
    8.3333   20.3235   -0.7456 C   0  0  0  0  0  0  0  0  0  0  0  0
    6.1164   21.0130    1.6660 C   0  0  0  0  0  0  0  0  0  0  0  0
    7.1691   20.1478    1.2878 O   0  0  0  0  0  0  0  0  0  0  0  0
    7.5301   19.5314   -1.2939 O   0  0  0  0  0  0  0  0  0  0  0  0
    6.5952   18.7672   -1.8345 C   0  0  0  0  0  0  0  0  0  0  0  0
    6.2263   17.5531   -0.9422 C   0  0  0  0  0  0  0  0  0  0  0  0
    4.7228   17.3458   -0.9763 C   0  0  0  0  0  0  0  0  0  0  0  0
    4.1879   17.2420    0.3319 N   0  0  0  0  0  0  0  0  0  0  0  0
    4.0251   18.4508    1.0322 C   0  0  0  0  0  0  0  0  0  0  0  0
    3.0005   18.3071    2.1220 C   0  0  0  0  0  0  0  0  0  0  0  0
    3.3073   17.1466    2.8227 O   0  0  0  0  0  0  0  0  0  0  0  0
    2.9992   16.0078    2.0903 C   0  0  0  0  0  0  0  0  0  0  0  0
    3.3949   16.1272    0.6458 C   0  0  0  0  0  0  0  0  0  0  0  0
 37 38  1  0  0  0
 38 27  1  0  0  0
 27 28  2  0  0  0
 28 29  1  0  0  0
 29 30  2  0  0  0
 30 26  1  0  0  0
 26  1  1  0  0  0
  1  2  2  0  0  0
  2  3  1  0  0  0
  3  4  2  0  0  0
  4  8  1  0  0  0
  8  9  1  0  0  0
  9 10  2  0  0  0
  9 12  1  0  0  0
 12 13  1  0  0  0
 13 14  1  0  0  0
 12 15  1  0  0  0
 15 16  2  0  0  0
 15 17  1  0  0  0
 17 19  1  0  0  0
 19 20  2  0  0  0
 20 21  1  0  0  0
 21 22  1  0  0  0
 22 23  1  0  0  0
 22 24  1  0  0  0
 24 25  2  0  0  0
  4  5  1  0  0  0
  5  6  2  0  0  0
  6  7  1  0  0  0
 30 31  1  0  0  0
 31 32  2  0  0  0
 32 33  1  0  0  0
 33 34  2  0  0  0
 34 35  1  0  0  0
 35 36  2  0  0  0
 36 39  1  0  0  0
 39 40  1  0  0  0
 40 41  1  0  0  0
 41 42  1  0  0  0
 42 43  1  0  0  0
 43 44  1  0  0  0
 44 45  1  0  0  0
 45 46  1  0  0  0
 46 47  1  0  0  0
 47 48  1  0  0  0
 36 27  1  0  0  0
 48 43  1  0  0  0
 34 29  1  0  0  0
  6  1  1  0  0  0
 14 12  1  0  0  0
 25 19  1  0  0  0
  8 11  1  0  0  0
 17 18  1  0  0  0
M  END
> <minimizedAffinity>
-6.12938

> <CNNscore>
0.0542971268

> <CNNaffinity>
6.0584115982

> <CNN_VS>
0.3289543390

> <CNNaffinity_variance>
0.8585193753

$$$$
[H]C1=C([H])C([H])(F)C([H])([H])C([H])=C1N([H])C(=O)C1(C(=O)N([H])c2nc(F)c(Oc3c([H])c([H])nc4c([H])c(OC([H])([H])C([H])([H])C([H])([H])N5C([H])([H])C([H])([H])OC([H])([H])C5([H])[H])c(OC([H])([H])[H])c([H])c34)c([H])c2[H])C([H])([H])C1([H])[H]


 48 53  0  0  0  0  0  0  0  0999 V2000
    9.3007   23.0254    1.1537 C   0  0  0  0  0  0  0  0  0  0  0  0
   10.0172   22.6637    2.2725 C   0  0  0  0  0  0  0  0  0  0  0  0
    9.7854   23.3269    3.4557 C   0  0  0  0  0  0  0  0  0  0  0  0
    8.8819   24.3377    3.6189 C   0  0  0  0  0  0  0  0  0  0  0  0
    8.1968   24.6433    2.4492 N   0  0  0  0  0  0  0  0  0  0  0  0
    8.3887   24.0330    1.2897 C   0  0  0  0  0  0  0  0  0  0  0  0
    7.6613   24.4135    0.1713 F   0  0  0  0  0  0  0  0  0  0  0  0
    8.6638   25.1103    4.7564 N   0  0  0  0  0  0  0  0  0  0  0  0
    7.7456   25.9786    5.2274 C   0  0  0  0  0  0  0  0  0  0  0  0
    8.0077   26.3198    6.5389 O   0  0  0  0  0  0  0  0  0  0  0  0
    9.4570   24.8702    5.5282 H   0  0  0  0  0  0  0  0  0  0  0  0
    6.5329   26.6918    4.8388 C   0  0  0  0  0  0  0  0  0  0  0  0
    5.4450   26.8569    5.9046 C   0  0  0  0  0  0  0  0  0  0  0  0
    5.3272   25.7006    4.9663 C   0  0  0  0  0  0  0  0  0  0  0  0
    6.3650   27.6268    3.7274 C   0  0  0  0  0  0  0  0  0  0  0  0
    7.4447   28.2474    3.3463 O   0  0  0  0  0  0  0  0  0  0  0  0
    5.2267   27.9587    2.9992 N   0  0  0  0  0  0  0  0  0  0  0  0
    4.2833   27.5576    3.1484 H   0  0  0  0  0  0  0  0  0  0  0  0
    5.3316   28.9475    1.9308 C   0  0  0  0  0  0  0  0  0  0  0  0
    4.9119   30.1782    2.0508 C   0  0  0  0  0  0  0  0  0  0  0  0
    4.9988   31.2014    1.0033 C   0  0  0  0  0  0  0  0  0  0  0  0
    5.5716   30.7779   -0.2935 C   0  0  0  0  0  0  0  0  0  0  0  0
    4.5400   30.8611   -1.2506 F   0  0  0  0  0  0  0  0  0  0  0  0
    6.0341   29.3685   -0.3568 C   0  0  0  0  0  0  0  0  0  0  0  0
    5.9211   28.5470    0.6506 C   0  0  0  0  0  0  0  0  0  0  0  0
    9.5271   22.3614   -0.0567 O   0  0  0  0  0  0  0  0  0  0  0  0
   13.2170   24.1924   -0.2276 C   0  0  0  0  0  0  0  0  0  0  0  0
   12.0031   23.5729   -0.1662 C   0  0  0  0  0  0  0  0  0  0  0  0
   11.9441   22.1790   -0.2593 C   0  0  0  0  0  0  0  0  0  0  0  0
   10.7140   21.5904   -0.1860 C   0  0  0  0  0  0  0  0  0  0  0  0
   10.6537   20.1970   -0.2536 C   0  0  0  0  0  0  0  0  0  0  0  0
   11.8450   19.5202   -0.3969 C   0  0  0  0  0  0  0  0  0  0  0  0
   13.0305   20.1307   -0.4725 N   0  0  0  0  0  0  0  0  0  0  0  0
   13.1222   21.4928   -0.4061 C   0  0  0  0  0  0  0  0  0  0  0  0
   14.3377   22.1222   -0.4688 C   0  0  0  0  0  0  0  0  0  0  0  0
   14.4360   23.5350   -0.3811 C   0  0  0  0  0  0  0  0  0  0  0  0
   12.9545   26.1776    1.0988 C   0  0  0  0  0  0  0  0  0  0  0  0
   13.3053   25.5799   -0.1338 O   0  0  0  0  0  0  0  0  0  0  0  0
   15.5367   24.1323   -0.4509 O   0  0  0  0  0  0  0  0  0  0  0  0
   16.6385   24.8629   -0.5008 C   0  0  0  0  0  0  0  0  0  0  0  0
   16.7466   25.6924   -1.8071 C   0  0  0  0  0  0  0  0  0  0  0  0
   16.1455   24.9000   -2.9540 C   0  0  0  0  0  0  0  0  0  0  0  0
   15.2856   25.7057   -3.7411 N   0  0  0  0  0  0  0  0  0  0  0  0
   15.7268   25.9915   -5.0457 C   0  0  0  0  0  0  0  0  0  0  0  0
   14.5726   26.3589   -5.9352 C   0  0  0  0  0  0  0  0  0  0  0  0
   13.8095   27.2972   -5.2502 O   0  0  0  0  0  0  0  0  0  0  0  0
   13.0980   26.7183   -4.2078 C   0  0  0  0  0  0  0  0  0  0  0  0
   13.9158   25.7223   -3.4352 C   0  0  0  0  0  0  0  0  0  0  0  0
 37 38  1  0  0  0
 38 27  1  0  0  0
 27 28  2  0  0  0
 28 29  1  0  0  0
 29 30  2  0  0  0
 30 26  1  0  0  0
 26  1  1  0  0  0
  1  2  2  0  0  0
  2  3  1  0  0  0
  3  4  2  0  0  0
  4  8  1  0  0  0
  8  9  1  0  0  0
  9 10  2  0  0  0
  9 12  1  0  0  0
 12 13  1  0  0  0
 13 14  1  0  0  0
 12 15  1  0  0  0
 15 16  2  0  0  0
 15 17  1  0  0  0
 17 19  1  0  0  0
 19 20  2  0  0  0
 20 21  1  0  0  0
 21 22  1  0  0  0
 22 23  1  0  0  0
 22 24  1  0  0  0
 24 25  2  0  0  0
  4  5  1  0  0  0
  5  6  2  0  0  0
  6  7  1  0  0  0
 30 31  1  0  0  0
 31 32  2  0  0  0
 32 33  1  0  0  0
 33 34  2  0  0  0
 34 35  1  0  0  0
 35 36  2  0  0  0
 36 39  1  0  0  0
 39 40  1  0  0  0
 40 41  1  0  0  0
 41 42  1  0  0  0
 42 43  1  0  0  0
 43 44  1  0  0  0
 44 45  1  0  0  0
 45 46  1  0  0  0
 46 47  1  0  0  0
 47 48  1  0  0  0
 36 27  1  0  0  0
 48 43  1  0  0  0
 34 29  1  0  0  0
  6  1  1  0  0  0
 14 12  1  0  0  0
 25 19  1  0  0  0
  8 11  1  0  0  0
 17 18  1  0  0  0
M  END
> <minimizedAffinity>
-6.10680

> <CNNscore>
0.0535870194

> <CNNaffinity>
7.0794157982

> <CNN_VS>
0.3793647885

> <CNNaffinity_variance>
0.3507040441

$$$$
[H]c1c([H])c([H])c(SC([H])([H])[C@]([H])(N([H])c2c([H])c([H])c(S(=O)(=O)N([H])C(=O)c3c([H])c([H])c(N4C([H])([H])C([H])([H])N(C([H])([H])C5=C(c6c([H])c([H])c(Cl)c([H])c6[H])C([H])([H])C(C([H])([H])[H])(C([H])([H])[H])C([H])([H])C5([H])[H])C([H])([H])C4([H])[H])c([H])c3[H])c([H])c2[N+](=O)[O-])C([H])([H])C([H])([H])N(C([H])([H])[H])C([H])([H])[H])c([H])c1[H]


 60 65  0  0  0  0  0  0  0  0999 V2000
   13.2059   20.7801    1.5444 N   0  0  0  0  0  0  0  0  0  0  0  0
   11.8218   20.7255    1.7628 C   0  0  0  0  0  0  0  0  0  0  0  0
   11.0551   20.4060    0.8257 O   0  0  0  0  0  0  0  0  0  0  0  0
   13.8032   21.0654    2.3715 H   0  0  0  0  0  0  0  0  0  0  0  0
   11.1898   21.0177    3.0466 C   0  0  0  0  0  0  0  0  0  0  0  0
   10.2981   22.0689    3.1847 C   0  0  0  0  0  0  0  0  0  0  0  0
    9.6685   22.3566    4.3753 C   0  0  0  0  0  0  0  0  0  0  0  0
    9.8932   21.6051    5.5075 C   0  0  0  0  0  0  0  0  0  0  0  0
   10.7987   20.5460    5.3564 C   0  0  0  0  0  0  0  0  0  0  0  0
   11.4277   20.2581    4.1693 C   0  0  0  0  0  0  0  0  0  0  0  0
    9.2355   21.8149    6.7220 N   0  0  0  0  0  0  0  0  0  0  0  0
    8.2472   22.8910    6.8270 C   0  0  0  0  0  0  0  0  0  0  0  0
    6.9121   22.0715    6.8840 C   0  0  0  0  0  0  0  0  0  0  0  0
    6.9598   21.2599    8.0168 N   0  0  0  0  0  0  0  0  0  0  0  0
    8.1458   21.1737    8.7927 C   0  0  0  0  0  0  0  0  0  0  0  0
    9.4068   21.0471    7.9398 C   0  0  0  0  0  0  0  0  0  0  0  0
    6.4084   19.9414    7.8210 C   0  0  0  0  0  0  0  0  0  0  0  0
    5.0263   19.7345    8.2549 C   0  0  0  0  0  0  0  0  0  0  0  0
    4.1186   19.1788    7.4609 C   0  0  0  0  0  0  0  0  0  0  0  0
    2.7197   19.0291    8.0656 C   0  0  0  0  0  0  0  0  0  0  0  0
    2.2852   20.3970    8.4906 C   0  0  0  0  0  0  0  0  0  0  0  0
    2.0978   21.3100    7.2698 C   0  0  0  0  0  0  0  0  0  0  0  0
    0.9647   20.3483    9.2150 C   0  0  0  0  0  0  0  0  0  0  0  0
    3.3120   21.0814    9.3538 C   0  0  0  0  0  0  0  0  0  0  0  0
    4.5132   20.1387    9.5849 C   0  0  0  0  0  0  0  0  0  0  0  0
    4.3662   18.7958    6.1225 C   0  0  0  0  0  0  0  0  0  0  0  0
    4.3727   19.7641    5.1172 C   0  0  0  0  0  0  0  0  0  0  0  0
    4.6617   19.4653    3.8105 C   0  0  0  0  0  0  0  0  0  0  0  0
    4.9653   18.1527    3.4411 C   0  0  0  0  0  0  0  0  0  0  0  0
    5.3382   17.7267    1.7844 Cl  0  0  0  0  0  0  0  0  0  0  0  0
    4.9621   17.1850    4.4302 C   0  0  0  0  0  0  0  0  0  0  0  0
    4.6678   17.5174    5.7324 C   0  0  0  0  0  0  0  0  0  0  0  0
   14.0427   20.4459    0.1031 S   0  0  0  0  0  0  0  0  0  0  0  0
   13.1620   19.5893   -0.7745 O   0  0  0  0  0  0  0  0  0  0  0  0
   15.2948   19.6517    0.3576 O   0  0  0  0  0  0  0  0  0  0  0  0
   15.1235   24.2026   -2.3050 C   0  0  0  0  0  0  0  0  0  0  0  0
   14.5138   23.0957   -2.8984 C   0  0  0  0  0  0  0  0  0  0  0  0
   14.1811   21.9617   -2.1676 C   0  0  0  0  0  0  0  0  0  0  0  0
   14.4373   21.8784   -0.8205 C   0  0  0  0  0  0  0  0  0  0  0  0
   15.0348   22.9685   -0.2455 C   0  0  0  0  0  0  0  0  0  0  0  0
   15.3809   24.1261   -0.9699 C   0  0  0  0  0  0  0  0  0  0  0  0
   15.9748   25.1678   -0.2312 N   0  0  0  0  0  0  0  0  0  0  0  0
   15.5701   25.5228    1.0113 O   0  0  0  0  0  0  0  0  0  0  0  0
   16.9418   25.8336   -0.7061 O   0  0  0  0  0  0  0  0  0  0  0  0
   15.4576   25.3276   -3.1360 N   0  0  0  0  0  0  0  0  0  0  0  0
   16.2240   25.9778   -2.9155 H   0  0  0  0  0  0  0  0  0  0  0  0
   14.7272   25.6440   -4.3617 C   0  0  0  0  0  0  0  0  0  0  0  0
   13.3083   26.0754   -4.0142 C   0  0  0  0  0  0  0  0  0  0  0  0
   13.2480   26.5594   -2.2622 S   0  0  0  0  0  0  0  0  0  0  0  0
   12.2386   25.4406   -1.3264 C   0  0  0  0  0  0  0  0  0  0  0  0
   11.3997   24.5336   -1.9535 C   0  0  0  0  0  0  0  0  0  0  0  0
   10.6010   23.6578   -1.2296 C   0  0  0  0  0  0  0  0  0  0  0  0
   10.6909   23.7422    0.1565 C   0  0  0  0  0  0  0  0  0  0  0  0
   11.5210   24.6378    0.7891 C   0  0  0  0  0  0  0  0  0  0  0  0
   12.3076   25.5011    0.0584 C   0  0  0  0  0  0  0  0  0  0  0  0
   15.4673   26.7881   -5.0345 C   0  0  0  0  0  0  0  0  0  0  0  0
   16.9123   26.8332   -4.6440 C   0  0  0  0  0  0  0  0  0  0  0  0
   18.7892   28.2512   -4.0517 C   0  0  0  0  0  0  0  0  0  0  0  0
   17.3544   28.0982   -4.1664 N   0  0  0  0  0  0  0  0  0  0  0  0
   16.7942   28.3144   -2.8382 C   0  0  0  0  0  0  0  0  0  0  0  0
 58 59  1  0  0  0
 59 60  1  0  0  0
 59 57  1  0  0  0
 57 56  1  0  0  0
 56 47  1  0  0  0
 47 48  1  0  0  0
 48 49  1  0  0  0
 49 50  1  0  0  0
 50 51  2  0  0  0
 51 52  1  0  0  0
 52 53  2  0  0  0
 53 54  1  0  0  0
 54 55  2  0  0  0
 47 45  1  0  0  0
 45 36  1  0  0  0
 36 37  2  0  0  0
 37 38  1  0  0  0
 38 39  2  0  0  0
 39 40  1  0  0  0
 40 41  2  0  0  0
 41 42  1  0  0  0
 42 43  1  0  0  0
 42 44  2  0  0  0
 39 33  1  0  0  0
 33 34  2  0  0  0
 33 35  2  0  0  0
 33  1  1  0  0  0
  1  2  1  0  0  0
  2  3  2  0  0  0
  2  5  1  0  0  0
  5  6  2  0  0  0
  6  7  1  0  0  0
  7  8  2  0  0  0
  8  9  1  0  0  0
  9 10  2  0  0  0
  8 11  1  0  0  0
 11 12  1  0  0  0
 12 13  1  0  0  0
 13 14  1  0  0  0
 14 17  1  0  0  0
 17 18  1  0  0  0
 18 19  2  0  0  0
 19 20  1  0  0  0
 20 21  1  0  0  0
 21 22  1  0  0  0
 21 23  1  0  0  0
 21 24  1  0  0  0
 24 25  1  0  0  0
 19 26  1  0  0  0
 26 27  2  0  0  0
 27 28  1  0  0  0
 28 29  2  0  0  0
 29 30  1  0  0  0
 29 31  1  0  0  0
 31 32  2  0  0  0
 14 15  1  0  0  0
 15 16  1  0  0  0
 55 50  1  0  0  0
 41 36  1  0  0  0
 10  5  1  0  0  0
 16 11  1  0  0  0
 25 18  1  0  0  0
 32 26  1  0  0  0
 45 46  1  0  0  0
  1  4  1  0  0  0
M  CHG 1  42   1
M  CHG 1  43  -1
M  END
> <minimizedAffinity>
-4.89173

> <CNNscore>
0.3011830747

> <CNNaffinity>
8.0636911392

> <CNN_VS>
2.4286472797

> <CNNaffinity_variance>
0.3813529015

$$$$
[H]c1c([H])c([H])c(SC([H])([H])[C@]([H])(N([H])c2c([H])c([H])c(S(=O)(=O)N([H])C(=O)c3c([H])c([H])c(N4C([H])([H])C([H])([H])N(C([H])([H])C5=C(c6c([H])c([H])c(Cl)c([H])c6[H])C([H])([H])C(C([H])([H])[H])(C([H])([H])[H])C([H])([H])C5([H])[H])C([H])([H])C4([H])[H])c([H])c3[H])c([H])c2[N+](=O)[O-])C([H])([H])C([H])([H])N(C([H])([H])[H])C([H])([H])[H])c([H])c1[H]


 60 65  0  0  0  0  0  0  0  0999 V2000
   12.1664   21.2181    2.6329 N   0  0  0  0  0  0  0  0  0  0  0  0
   10.7944   21.3454    2.8931 C   0  0  0  0  0  0  0  0  0  0  0  0
    9.9604   20.9021    2.0708 O   0  0  0  0  0  0  0  0  0  0  0  0
   12.8239   21.6202    3.3600 H   0  0  0  0  0  0  0  0  0  0  0  0
   10.2501   21.9718    4.0949 C   0  0  0  0  0  0  0  0  0  0  0  0
   10.5093   21.4548    5.3537 C   0  0  0  0  0  0  0  0  0  0  0  0
   10.0299   22.0346    6.5074 C   0  0  0  0  0  0  0  0  0  0  0  0
    9.2577   23.1745    6.4720 C   0  0  0  0  0  0  0  0  0  0  0  0
    9.0001   23.6870    5.1931 C   0  0  0  0  0  0  0  0  0  0  0  0
    9.4775   23.1094    4.0414 C   0  0  0  0  0  0  0  0  0  0  0  0
    8.7985   23.8372    7.6129 N   0  0  0  0  0  0  0  0  0  0  0  0
    8.3267   25.2193    7.4996 C   0  0  0  0  0  0  0  0  0  0  0  0
    6.7803   25.0262    7.6690 C   0  0  0  0  0  0  0  0  0  0  0  0
    6.5567   24.4733    8.9294 N   0  0  0  0  0  0  0  0  0  0  0  0
    7.6471   24.0555    9.7372 C   0  0  0  0  0  0  0  0  0  0  0  0
    8.7098   23.2890    8.9521 C   0  0  0  0  0  0  0  0  0  0  0  0
    5.5172   23.4736    8.9586 C   0  0  0  0  0  0  0  0  0  0  0  0
    4.1427   23.9478    8.7938 C   0  0  0  0  0  0  0  0  0  0  0  0
    3.3006   23.3729    7.9432 C   0  0  0  0  0  0  0  0  0  0  0  0
    1.8980   23.9851    7.8920 C   0  0  0  0  0  0  0  0  0  0  0  0
    2.0723   25.4355    7.5657 C   0  0  0  0  0  0  0  0  0  0  0  0
    2.6363   25.6083    6.1475 C   0  0  0  0  0  0  0  0  0  0  0  0
    0.7551   26.1660    7.6112 C   0  0  0  0  0  0  0  0  0  0  0  0
    3.0596   26.1130    8.4790 C   0  0  0  0  0  0  0  0  0  0  0  0
    3.5791   25.1053    9.5275 C   0  0  0  0  0  0  0  0  0  0  0  0
    3.6509   22.3091    7.0801 C   0  0  0  0  0  0  0  0  0  0  0  0
    4.6843   22.4802    6.1574 C   0  0  0  0  0  0  0  0  0  0  0  0
    5.1084   21.4701    5.3329 C   0  0  0  0  0  0  0  0  0  0  0  0
    4.5040   20.2122    5.3955 C   0  0  0  0  0  0  0  0  0  0  0  0
    5.0127   18.8952    4.3603 Cl  0  0  0  0  0  0  0  0  0  0  0  0
    3.4788   20.0317    6.3072 C   0  0  0  0  0  0  0  0  0  0  0  0
    3.0765   21.0658    7.1206 C   0  0  0  0  0  0  0  0  0  0  0  0
   12.9037   20.4966    1.2819 S   0  0  0  0  0  0  0  0  0  0  0  0
   11.8664   19.6799    0.5494 O   0  0  0  0  0  0  0  0  0  0  0  0
   13.9931   19.5412    1.6861 O   0  0  0  0  0  0  0  0  0  0  0  0
   14.6142   23.5276   -1.7127 C   0  0  0  0  0  0  0  0  0  0  0  0
   13.7993   22.4690   -2.1182 C   0  0  0  0  0  0  0  0  0  0  0  0
   13.2766   21.5560   -1.2104 C   0  0  0  0  0  0  0  0  0  0  0  0
   13.5387   21.6548    0.1345 C   0  0  0  0  0  0  0  0  0  0  0  0
   14.3381   22.6962    0.5245 C   0  0  0  0  0  0  0  0  0  0  0  0
   14.8784   23.6307   -0.3808 C   0  0  0  0  0  0  0  0  0  0  0  0
   15.6686   24.6535    0.1787 N   0  0  0  0  0  0  0  0  0  0  0  0
   15.3159   25.3420    1.2902 O   0  0  0  0  0  0  0  0  0  0  0  0
   16.7750   24.9810   -0.3433 O   0  0  0  0  0  0  0  0  0  0  0  0
   15.1346   24.4147   -2.7176 N   0  0  0  0  0  0  0  0  0  0  0  0
   16.0148   24.9351   -2.6028 H   0  0  0  0  0  0  0  0  0  0  0  0
   14.4481   24.6560   -3.9851 C   0  0  0  0  0  0  0  0  0  0  0  0
   13.4144   25.7599   -3.8044 C   0  0  0  0  0  0  0  0  0  0  0  0
   13.3722   26.2522   -2.0542 S   0  0  0  0  0  0  0  0  0  0  0  0
   12.1652   25.3119   -1.1567 C   0  0  0  0  0  0  0  0  0  0  0  0
   11.2505   24.5042   -1.8129 C   0  0  0  0  0  0  0  0  0  0  0  0
   10.2978   23.7691   -1.1195 C   0  0  0  0  0  0  0  0  0  0  0  0
   10.3140   23.8888    0.2669 C   0  0  0  0  0  0  0  0  0  0  0  0
   11.2182   24.6866    0.9282 C   0  0  0  0  0  0  0  0  0  0  0  0
   12.1577   25.4107    0.2276 C   0  0  0  0  0  0  0  0  0  0  0  0
   15.5060   25.0941   -4.9844 C   0  0  0  0  0  0  0  0  0  0  0  0
   16.2136   26.3396   -4.5480 C   0  0  0  0  0  0  0  0  0  0  0  0
   15.7430   28.5850   -5.3362 C   0  0  0  0  0  0  0  0  0  0  0  0
   16.3855   27.3100   -5.5741 N   0  0  0  0  0  0  0  0  0  0  0  0
   15.8327   26.7776   -6.8133 C   0  0  0  0  0  0  0  0  0  0  0  0
 58 59  1  0  0  0
 59 60  1  0  0  0
 59 57  1  0  0  0
 57 56  1  0  0  0
 56 47  1  0  0  0
 47 48  1  0  0  0
 48 49  1  0  0  0
 49 50  1  0  0  0
 50 51  2  0  0  0
 51 52  1  0  0  0
 52 53  2  0  0  0
 53 54  1  0  0  0
 54 55  2  0  0  0
 47 45  1  0  0  0
 45 36  1  0  0  0
 36 37  2  0  0  0
 37 38  1  0  0  0
 38 39  2  0  0  0
 39 40  1  0  0  0
 40 41  2  0  0  0
 41 42  1  0  0  0
 42 43  1  0  0  0
 42 44  2  0  0  0
 39 33  1  0  0  0
 33 34  2  0  0  0
 33 35  2  0  0  0
 33  1  1  0  0  0
  1  2  1  0  0  0
  2  3  2  0  0  0
  2  5  1  0  0  0
  5  6  2  0  0  0
  6  7  1  0  0  0
  7  8  2  0  0  0
  8  9  1  0  0  0
  9 10  2  0  0  0
  8 11  1  0  0  0
 11 12  1  0  0  0
 12 13  1  0  0  0
 13 14  1  0  0  0
 14 17  1  0  0  0
 17 18  1  0  0  0
 18 19  2  0  0  0
 19 20  1  0  0  0
 20 21  1  0  0  0
 21 22  1  0  0  0
 21 23  1  0  0  0
 21 24  1  0  0  0
 24 25  1  0  0  0
 19 26  1  0  0  0
 26 27  2  0  0  0
 27 28  1  0  0  0
 28 29  2  0  0  0
 29 30  1  0  0  0
 29 31  1  0  0  0
 31 32  2  0  0  0
 14 15  1  0  0  0
 15 16  1  0  0  0
 55 50  1  0  0  0
 41 36  1  0  0  0
 10  5  1  0  0  0
 16 11  1  0  0  0
 25 18  1  0  0  0
 32 26  1  0  0  0
 45 46  1  0  0  0
  1  4  1  0  0  0
M  CHG 1  42   1
M  CHG 1  43  -1
M  END
> <minimizedAffinity>
-5.45202

> <CNNscore>
0.2836185992

> <CNNaffinity>
8.2295036316

> <CNN_VS>
2.3340404034

> <CNNaffinity_variance>
0.0163227953

$$$$
[H]c1c([H])c([H])c(SC([H])([H])[C@]([H])(N([H])c2c([H])c([H])c(S(=O)(=O)N([H])C(=O)c3c([H])c([H])c(N4C([H])([H])C([H])([H])N(C([H])([H])C5=C(c6c([H])c([H])c(Cl)c([H])c6[H])C([H])([H])C(C([H])([H])[H])(C([H])([H])[H])C([H])([H])C5([H])[H])C([H])([H])C4([H])[H])c([H])c3[H])c([H])c2[N+](=O)[O-])C([H])([H])C([H])([H])N(C([H])([H])[H])C([H])([H])[H])c([H])c1[H]


 60 65  0  0  0  0  0  0  0  0999 V2000
   12.8731   20.7146    1.9125 N   0  0  0  0  0  0  0  0  0  0  0  0
   11.5145   20.5006    2.1863 C   0  0  0  0  0  0  0  0  0  0  0  0
   10.7695   20.0171    1.3036 O   0  0  0  0  0  0  0  0  0  0  0  0
   13.4516   21.1346    2.6944 H   0  0  0  0  0  0  0  0  0  0  0  0
   10.8866   20.8048    3.4693 C   0  0  0  0  0  0  0  0  0  0  0  0
   10.7293   19.8293    4.4404 C   0  0  0  0  0  0  0  0  0  0  0  0
   10.1621   20.0889    5.6682 C   0  0  0  0  0  0  0  0  0  0  0  0
    9.7155   21.3483    6.0021 C   0  0  0  0  0  0  0  0  0  0  0  0
    9.8777   22.3263    5.0113 C   0  0  0  0  0  0  0  0  0  0  0  0
   10.4431   22.0685    3.7858 C   0  0  0  0  0  0  0  0  0  0  0  0
    9.1902   21.6795    7.2535 N   0  0  0  0  0  0  0  0  0  0  0  0
    9.7665   22.8001    8.0005 C   0  0  0  0  0  0  0  0  0  0  0  0
    8.6321   23.8728    7.8601 C   0  0  0  0  0  0  0  0  0  0  0  0
    7.4813   23.3544    8.4526 N   0  0  0  0  0  0  0  0  0  0  0  0
    7.4484   22.0106    8.9097 C   0  0  0  0  0  0  0  0  0  0  0  0
    8.0795   21.0307    7.9222 C   0  0  0  0  0  0  0  0  0  0  0  0
    6.2640   23.6570    7.7402 C   0  0  0  0  0  0  0  0  0  0  0  0
    6.3544   24.6592    6.6778 C   0  0  0  0  0  0  0  0  0  0  0  0
    6.2669   24.3294    5.3945 C   0  0  0  0  0  0  0  0  0  0  0  0
    6.3766   25.4949    4.4074 C   0  0  0  0  0  0  0  0  0  0  0  0
    7.6775   26.1788    4.6908 C   0  0  0  0  0  0  0  0  0  0  0  0
    8.8592   25.2570    4.3545 C   0  0  0  0  0  0  0  0  0  0  0  0
    7.8327   27.4223    3.8538 C   0  0  0  0  0  0  0  0  0  0  0  0
    7.8366   26.5253    6.1477 C   0  0  0  0  0  0  0  0  0  0  0  0
    6.5717   26.1036    6.9268 C   0  0  0  0  0  0  0  0  0  0  0  0
    6.1447   23.0011    4.9254 C   0  0  0  0  0  0  0  0  0  0  0  0
    6.7819   22.6257    3.7415 C   0  0  0  0  0  0  0  0  0  0  0  0
    6.7485   21.3407    3.2643 C   0  0  0  0  0  0  0  0  0  0  0  0
    6.0601   20.3486    3.9666 C   0  0  0  0  0  0  0  0  0  0  0  0
    5.9902   18.6961    3.3926 Cl  0  0  0  0  0  0  0  0  0  0  0  0
    5.4253   20.7101    5.1419 C   0  0  0  0  0  0  0  0  0  0  0  0
    5.4777   22.0084    5.5939 C   0  0  0  0  0  0  0  0  0  0  0  0
   13.7050   20.3831    0.4678 S   0  0  0  0  0  0  0  0  0  0  0  0
   12.7567   19.6935   -0.4835 O   0  0  0  0  0  0  0  0  0  0  0  0
   14.8519   19.4355    0.6905 O   0  0  0  0  0  0  0  0  0  0  0  0
   15.2680   24.1427   -1.6544 C   0  0  0  0  0  0  0  0  0  0  0  0
   14.5473   23.1580   -2.3329 C   0  0  0  0  0  0  0  0  0  0  0  0
   14.0690   22.0237   -1.6884 C   0  0  0  0  0  0  0  0  0  0  0  0
   14.2837   21.8192   -0.3470 C   0  0  0  0  0  0  0  0  0  0  0  0
   14.9907   22.7898    0.3116 C   0  0  0  0  0  0  0  0  0  0  0  0
   15.4849   23.9455   -0.3245 C   0  0  0  0  0  0  0  0  0  0  0  0
   16.1791   24.8574    0.4941 N   0  0  0  0  0  0  0  0  0  0  0  0
   17.4289   24.6323    0.9643 O   0  0  0  0  0  0  0  0  0  0  0  0
   15.6542   25.9592    0.8324 O   0  0  0  0  0  0  0  0  0  0  0  0
   15.7489   25.2747   -2.3993 N   0  0  0  0  0  0  0  0  0  0  0  0
   16.4517   25.9294   -2.0303 H   0  0  0  0  0  0  0  0  0  0  0  0
   15.2701   25.5925   -3.7431 C   0  0  0  0  0  0  0  0  0  0  0  0
   13.7516   25.4802   -3.7844 C   0  0  0  0  0  0  0  0  0  0  0  0
   13.0494   26.4192   -2.3942 S   0  0  0  0  0  0  0  0  0  0  0  0
   12.1268   25.3599   -1.3111 C   0  0  0  0  0  0  0  0  0  0  0  0
   12.2896   25.4204    0.0635 C   0  0  0  0  0  0  0  0  0  0  0  0
   11.5764   24.5911    0.9194 C   0  0  0  0  0  0  0  0  0  0  0  0
   10.6919   23.6992    0.3204 C   0  0  0  0  0  0  0  0  0  0  0  0
   10.5218   23.6317   -1.0427 C   0  0  0  0  0  0  0  0  0  0  0  0
   11.2362   24.4603   -1.8800 C   0  0  0  0  0  0  0  0  0  0  0  0
   15.6928   27.0224   -4.0363 C   0  0  0  0  0  0  0  0  0  0  0  0
   16.0733   27.2157   -5.4717 C   0  0  0  0  0  0  0  0  0  0  0  0
   16.2007   26.0541   -7.5974 C   0  0  0  0  0  0  0  0  0  0  0  0
   15.4705   26.2925   -6.3707 N   0  0  0  0  0  0  0  0  0  0  0  0
   14.1574   26.8014   -6.7471 C   0  0  0  0  0  0  0  0  0  0  0  0
 58 59  1  0  0  0
 59 60  1  0  0  0
 59 57  1  0  0  0
 57 56  1  0  0  0
 56 47  1  0  0  0
 47 48  1  0  0  0
 48 49  1  0  0  0
 49 50  1  0  0  0
 50 51  2  0  0  0
 51 52  1  0  0  0
 52 53  2  0  0  0
 53 54  1  0  0  0
 54 55  2  0  0  0
 47 45  1  0  0  0
 45 36  1  0  0  0
 36 37  2  0  0  0
 37 38  1  0  0  0
 38 39  2  0  0  0
 39 40  1  0  0  0
 40 41  2  0  0  0
 41 42  1  0  0  0
 42 43  1  0  0  0
 42 44  2  0  0  0
 39 33  1  0  0  0
 33 34  2  0  0  0
 33 35  2  0  0  0
 33  1  1  0  0  0
  1  2  1  0  0  0
  2  3  2  0  0  0
  2  5  1  0  0  0
  5  6  2  0  0  0
  6  7  1  0  0  0
  7  8  2  0  0  0
  8  9  1  0  0  0
  9 10  2  0  0  0
  8 11  1  0  0  0
 11 12  1  0  0  0
 12 13  1  0  0  0
 13 14  1  0  0  0
 14 17  1  0  0  0
 17 18  1  0  0  0
 18 19  2  0  0  0
 19 20  1  0  0  0
 20 21  1  0  0  0
 21 22  1  0  0  0
 21 23  1  0  0  0
 21 24  1  0  0  0
 24 25  1  0  0  0
 19 26  1  0  0  0
 26 27  2  0  0  0
 27 28  1  0  0  0
 28 29  2  0  0  0
 29 30  1  0  0  0
 29 31  1  0  0  0
 31 32  2  0  0  0
 14 15  1  0  0  0
 15 16  1  0  0  0
 55 50  1  0  0  0
 41 36  1  0  0  0
 10  5  1  0  0  0
 16 11  1  0  0  0
 25 18  1  0  0  0
 32 26  1  0  0  0
 45 46  1  0  0  0
  1  4  1  0  0  0
M  CHG 1  42   1
M  CHG 1  43  -1
M  END
> <minimizedAffinity>
-6.05255

> <CNNscore>
0.2494087070

> <CNNaffinity>
8.5743541718

> <CNN_VS>
2.1385185719

> <CNNaffinity_variance>
0.4786363244

$$$$
[H]c1c([H])c([H])c(SC([H])([H])[C@]([H])(N([H])c2c([H])c([H])c(S(=O)(=O)N([H])C(=O)c3c([H])c([H])c(N4C([H])([H])C([H])([H])N(C([H])([H])C5=C(c6c([H])c([H])c(Cl)c([H])c6[H])C([H])([H])C(C([H])([H])[H])(C([H])([H])[H])C([H])([H])C5([H])[H])C([H])([H])C4([H])[H])c([H])c3[H])c([H])c2[N+](=O)[O-])C([H])([H])C([H])([H])N(C([H])([H])[H])C([H])([H])[H])c([H])c1[H]


 60 65  0  0  0  0  0  0  0  0999 V2000
   12.3842   20.7822    1.9803 N   0  0  0  0  0  0  0  0  0  0  0  0
   11.8611   19.8986    2.9353 C   0  0  0  0  0  0  0  0  0  0  0  0
   11.8653   18.6663    2.7124 O   0  0  0  0  0  0  0  0  0  0  0  0
   12.3450   21.8134    2.2201 H   0  0  0  0  0  0  0  0  0  0  0  0
   11.2994   20.3243    4.2144 C   0  0  0  0  0  0  0  0  0  0  0  0
   11.5086   21.6051    4.6992 C   0  0  0  0  0  0  0  0  0  0  0  0
   10.9743   22.0444    5.8902 C   0  0  0  0  0  0  0  0  0  0  0  0
   10.1928   21.2243    6.6735 C   0  0  0  0  0  0  0  0  0  0  0  0
    9.9901   19.9304    6.1743 C   0  0  0  0  0  0  0  0  0  0  0  0
   10.5227   19.4909    4.9864 C   0  0  0  0  0  0  0  0  0  0  0  0
    9.5766   21.6379    7.8571 N   0  0  0  0  0  0  0  0  0  0  0  0
    9.6963   23.0356    8.2787 C   0  0  0  0  0  0  0  0  0  0  0  0
    8.2474   23.5625    7.9954 C   0  0  0  0  0  0  0  0  0  0  0  0
    7.3655   22.8262    8.7856 N   0  0  0  0  0  0  0  0  0  0  0  0
    7.8275   21.7135    9.5368 C   0  0  0  0  0  0  0  0  0  0  0  0
    8.7796   20.8169    8.7474 C   0  0  0  0  0  0  0  0  0  0  0  0
    6.1256   22.4905    8.1293 C   0  0  0  0  0  0  0  0  0  0  0  0
    6.1097   21.2561    7.3435 C   0  0  0  0  0  0  0  0  0  0  0  0
    6.4233   21.2431    6.0533 C   0  0  0  0  0  0  0  0  0  0  0  0
    6.3621   19.8711    5.3759 C   0  0  0  0  0  0  0  0  0  0  0  0
    4.9765   19.3464    5.5894 C   0  0  0  0  0  0  0  0  0  0  0  0
    3.9490   20.2085    4.8410 C   0  0  0  0  0  0  0  0  0  0  0  0
    4.8404   17.9397    5.0664 C   0  0  0  0  0  0  0  0  0  0  0  0
    4.5643   19.3912    7.0371 C   0  0  0  0  0  0  0  0  0  0  0  0
    5.7270   19.9353    7.8955 C   0  0  0  0  0  0  0  0  0  0  0  0
    6.7358   22.4001    5.3031 C   0  0  0  0  0  0  0  0  0  0  0  0
    7.7783   22.3609    4.3756 C   0  0  0  0  0  0  0  0  0  0  0  0
    8.0934   23.4310    3.5782 C   0  0  0  0  0  0  0  0  0  0  0  0
    7.3622   24.6174    3.6740 C   0  0  0  0  0  0  0  0  0  0  0  0
    7.7315   26.0082    2.6768 Cl  0  0  0  0  0  0  0  0  0  0  0  0
    6.3262   24.6667    4.5901 C   0  0  0  0  0  0  0  0  0  0  0  0
    6.0353   23.5754    5.3757 C   0  0  0  0  0  0  0  0  0  0  0  0
   13.0726   20.3946    0.4753 S   0  0  0  0  0  0  0  0  0  0  0  0
   11.9720   19.9360   -0.4510 O   0  0  0  0  0  0  0  0  0  0  0  0
   14.0436   19.2508    0.5851 O   0  0  0  0  0  0  0  0  0  0  0  0
   15.1676   23.9471   -1.5425 C   0  0  0  0  0  0  0  0  0  0  0  0
   14.4858   22.9768   -2.2794 C   0  0  0  0  0  0  0  0  0  0  0  0
   13.8464   21.9056   -1.6674 C   0  0  0  0  0  0  0  0  0  0  0  0
   13.8554   21.7525   -0.3022 C   0  0  0  0  0  0  0  0  0  0  0  0
   14.5255   22.7086    0.4136 C   0  0  0  0  0  0  0  0  0  0  0  0
   15.1807   23.8007   -0.1887 C   0  0  0  0  0  0  0  0  0  0  0  0
   15.8118   24.7068    0.6857 N   0  0  0  0  0  0  0  0  0  0  0  0
   15.1422   25.6520    1.3872 O   0  0  0  0  0  0  0  0  0  0  0  0
   17.0653   24.6747    0.8631 O   0  0  0  0  0  0  0  0  0  0  0  0
   15.8234   25.0112   -2.2533 N   0  0  0  0  0  0  0  0  0  0  0  0
   16.7983   25.2867   -2.0730 H   0  0  0  0  0  0  0  0  0  0  0  0
   15.1527   25.7958   -3.2880 C   0  0  0  0  0  0  0  0  0  0  0  0
   14.0562   26.6435   -2.6563 C   0  0  0  0  0  0  0  0  0  0  0  0
   12.4442   25.8676   -2.9836 S   0  0  0  0  0  0  0  0  0  0  0  0
   11.8033   25.0898   -1.5239 C   0  0  0  0  0  0  0  0  0  0  0  0
   10.8970   24.0450   -1.6053 C   0  0  0  0  0  0  0  0  0  0  0  0
   10.3849   23.4336   -0.4683 C   0  0  0  0  0  0  0  0  0  0  0  0
   10.8323   23.9278    0.7533 C   0  0  0  0  0  0  0  0  0  0  0  0
   11.7324   24.9634    0.8454 C   0  0  0  0  0  0  0  0  0  0  0  0
   12.2321   25.5609   -0.2909 C   0  0  0  0  0  0  0  0  0  0  0  0
   16.2065   26.6937   -3.9147 C   0  0  0  0  0  0  0  0  0  0  0  0
   15.6016   27.8724   -4.6127 C   0  0  0  0  0  0  0  0  0  0  0  0
   14.1881   26.6536   -6.1622 C   0  0  0  0  0  0  0  0  0  0  0  0
   15.2366   27.6320   -5.9666 N   0  0  0  0  0  0  0  0  0  0  0  0
   16.4100   27.1502   -6.6848 C   0  0  0  0  0  0  0  0  0  0  0  0
 58 59  1  0  0  0
 59 60  1  0  0  0
 59 57  1  0  0  0
 57 56  1  0  0  0
 56 47  1  0  0  0
 47 48  1  0  0  0
 48 49  1  0  0  0
 49 50  1  0  0  0
 50 51  2  0  0  0
 51 52  1  0  0  0
 52 53  2  0  0  0
 53 54  1  0  0  0
 54 55  2  0  0  0
 47 45  1  0  0  0
 45 36  1  0  0  0
 36 37  2  0  0  0
 37 38  1  0  0  0
 38 39  2  0  0  0
 39 40  1  0  0  0
 40 41  2  0  0  0
 41 42  1  0  0  0
 42 43  1  0  0  0
 42 44  2  0  0  0
 39 33  1  0  0  0
 33 34  2  0  0  0
 33 35  2  0  0  0
 33  1  1  0  0  0
  1  2  1  0  0  0
  2  3  2  0  0  0
  2  5  1  0  0  0
  5  6  2  0  0  0
  6  7  1  0  0  0
  7  8  2  0  0  0
  8  9  1  0  0  0
  9 10  2  0  0  0
  8 11  1  0  0  0
 11 12  1  0  0  0
 12 13  1  0  0  0
 13 14  1  0  0  0
 14 17  1  0  0  0
 17 18  1  0  0  0
 18 19  2  0  0  0
 19 20  1  0  0  0
 20 21  1  0  0  0
 21 22  1  0  0  0
 21 23  1  0  0  0
 21 24  1  0  0  0
 24 25  1  0  0  0
 19 26  1  0  0  0
 26 27  2  0  0  0
 27 28  1  0  0  0
 28 29  2  0  0  0
 29 30  1  0  0  0
 29 31  1  0  0  0
 31 32  2  0  0  0
 14 15  1  0  0  0
 15 16  1  0  0  0
 55 50  1  0  0  0
 41 36  1  0  0  0
 10  5  1  0  0  0
 16 11  1  0  0  0
 25 18  1  0  0  0
 32 26  1  0  0  0
 45 46  1  0  0  0
  1  4  1  0  0  0
M  CHG 1  42   1
M  CHG 1  43  -1
M  END
> <minimizedAffinity>
-4.20595

> <CNNscore>
0.2412455082

> <CNNaffinity>
8.3602018356

> <CNN_VS>
2.0168612003

> <CNNaffinity_variance>
0.3277823627

$$$$
[H]c1c([H])c([H])c(SC([H])([H])[C@]([H])(N([H])c2c([H])c([H])c(S(=O)(=O)N([H])C(=O)c3c([H])c([H])c(N4C([H])([H])C([H])([H])N(C([H])([H])C5=C(c6c([H])c([H])c(Cl)c([H])c6[H])C([H])([H])C(C([H])([H])[H])(C([H])([H])[H])C([H])([H])C5([H])[H])C([H])([H])C4([H])[H])c([H])c3[H])c([H])c2[N+](=O)[O-])C([H])([H])C([H])([H])N(C([H])([H])[H])C([H])([H])[H])c([H])c1[H]


 60 65  0  0  0  0  0  0  0  0999 V2000
   12.7131   21.0887    2.0749 N   0  0  0  0  0  0  0  0  0  0  0  0
   11.3536   21.0095    2.4093 C   0  0  0  0  0  0  0  0  0  0  0  0
   10.5459   20.4780    1.6135 O   0  0  0  0  0  0  0  0  0  0  0  0
   13.3467   21.5573    2.7829 H   0  0  0  0  0  0  0  0  0  0  0  0
   10.7943   21.5126    3.6612 C   0  0  0  0  0  0  0  0  0  0  0  0
    9.9187   22.5861    3.6757 C   0  0  0  0  0  0  0  0  0  0  0  0
    9.3567   23.0698    4.8363 C   0  0  0  0  0  0  0  0  0  0  0  0
    9.6374   22.5053    6.0608 C   0  0  0  0  0  0  0  0  0  0  0  0
   10.5261   21.4218    6.0340 C   0  0  0  0  0  0  0  0  0  0  0  0
   11.0877   20.9384    4.8769 C   0  0  0  0  0  0  0  0  0  0  0  0
    9.0481   22.9163    7.2588 N   0  0  0  0  0  0  0  0  0  0  0  0
    7.9473   23.8821    7.2235 C   0  0  0  0  0  0  0  0  0  0  0  0
    6.7285   22.9654    7.5857 C   0  0  0  0  0  0  0  0  0  0  0  0
    6.9550   22.4402    8.8574 N   0  0  0  0  0  0  0  0  0  0  0  0
    8.1953   22.6528    9.5149 C   0  0  0  0  0  0  0  0  0  0  0  0
    9.3978   22.4655    8.5916 C   0  0  0  0  0  0  0  0  0  0  0  0
    6.5541   21.0626    9.0063 C   0  0  0  0  0  0  0  0  0  0  0  0
    5.1395   20.7607    8.7847 C   0  0  0  0  0  0  0  0  0  0  0  0
    4.6718   19.5190    8.8364 C   0  0  0  0  0  0  0  0  0  0  0  0
    3.1683   19.3721    8.5862 C   0  0  0  0  0  0  0  0  0  0  0  0
    2.8916   19.9869    7.2498 C   0  0  0  0  0  0  0  0  0  0  0  0
    3.5644   19.1779    6.1310 C   0  0  0  0  0  0  0  0  0  0  0  0
    1.4138   20.0074    6.9553 C   0  0  0  0  0  0  0  0  0  0  0  0
    3.4510   21.3803    7.1340 C   0  0  0  0  0  0  0  0  0  0  0  0
    4.1203   21.7876    8.4647 C   0  0  0  0  0  0  0  0  0  0  0  0
    5.4798   18.3770    9.0419 C   0  0  0  0  0  0  0  0  0  0  0  0
    4.9580   17.1074    8.7882 C   0  0  0  0  0  0  0  0  0  0  0  0
    5.7075   15.9660    8.9137 C   0  0  0  0  0  0  0  0  0  0  0  0
    7.0455   16.0445    9.3075 C   0  0  0  0  0  0  0  0  0  0  0  0
    8.0380   14.6129    9.4821 Cl  0  0  0  0  0  0  0  0  0  0  0  0
    7.5728   17.2985    9.5610 C   0  0  0  0  0  0  0  0  0  0  0  0
    6.7942   18.4246    9.4259 C   0  0  0  0  0  0  0  0  0  0  0  0
   13.4681   20.5241    0.6605 S   0  0  0  0  0  0  0  0  0  0  0  0
   12.4656   19.7156   -0.1275 O   0  0  0  0  0  0  0  0  0  0  0  0
   14.6133   19.5995    0.9718 O   0  0  0  0  0  0  0  0  0  0  0  0
   14.9686   23.8830   -2.0866 C   0  0  0  0  0  0  0  0  0  0  0  0
   14.1815   22.8341   -2.5656 C   0  0  0  0  0  0  0  0  0  0  0  0
   13.7223   21.8215   -1.7322 C   0  0  0  0  0  0  0  0  0  0  0  0
   14.0227   21.8071   -0.3918 C   0  0  0  0  0  0  0  0  0  0  0  0
   14.7944   22.8397    0.0706 C   0  0  0  0  0  0  0  0  0  0  0  0
   15.2705   23.8742   -0.7587 C   0  0  0  0  0  0  0  0  0  0  0  0
   16.0390   24.8725   -0.1290 N   0  0  0  0  0  0  0  0  0  0  0  0
   15.6137   25.5664    0.9533 O   0  0  0  0  0  0  0  0  0  0  0  0
   17.1938   25.1708   -0.5549 O   0  0  0  0  0  0  0  0  0  0  0  0
   15.4234   24.8788   -3.0189 N   0  0  0  0  0  0  0  0  0  0  0  0
   16.2684   25.4452   -2.8645 H   0  0  0  0  0  0  0  0  0  0  0  0
   14.7146   25.1733   -4.2627 C   0  0  0  0  0  0  0  0  0  0  0  0
   13.4427   25.9524   -3.9538 C   0  0  0  0  0  0  0  0  0  0  0  0
   13.4293   26.3903   -2.1888 S   0  0  0  0  0  0  0  0  0  0  0  0
   12.2658   25.3944   -1.2939 C   0  0  0  0  0  0  0  0  0  0  0  0
   11.3246   24.6210   -1.9540 C   0  0  0  0  0  0  0  0  0  0  0  0
   10.4054   23.8428   -1.2623 C   0  0  0  0  0  0  0  0  0  0  0  0
   10.4833   23.8832    0.1266 C   0  0  0  0  0  0  0  0  0  0  0  0
   11.4142   24.6463    0.7917 C   0  0  0  0  0  0  0  0  0  0  0  0
   12.3198   25.4138    0.0927 C   0  0  0  0  0  0  0  0  0  0  0  0
   15.6474   26.0190   -5.1135 C   0  0  0  0  0  0  0  0  0  0  0  0
   15.9951   27.3165   -4.4515 C   0  0  0  0  0  0  0  0  0  0  0  0
   16.9773   27.7234   -2.2711 C   0  0  0  0  0  0  0  0  0  0  0  0
   17.1576   27.2674   -3.6330 N   0  0  0  0  0  0  0  0  0  0  0  0
   18.1838   28.1107   -4.2336 C   0  0  0  0  0  0  0  0  0  0  0  0
 58 59  1  0  0  0
 59 60  1  0  0  0
 59 57  1  0  0  0
 57 56  1  0  0  0
 56 47  1  0  0  0
 47 48  1  0  0  0
 48 49  1  0  0  0
 49 50  1  0  0  0
 50 51  2  0  0  0
 51 52  1  0  0  0
 52 53  2  0  0  0
 53 54  1  0  0  0
 54 55  2  0  0  0
 47 45  1  0  0  0
 45 36  1  0  0  0
 36 37  2  0  0  0
 37 38  1  0  0  0
 38 39  2  0  0  0
 39 40  1  0  0  0
 40 41  2  0  0  0
 41 42  1  0  0  0
 42 43  1  0  0  0
 42 44  2  0  0  0
 39 33  1  0  0  0
 33 34  2  0  0  0
 33 35  2  0  0  0
 33  1  1  0  0  0
  1  2  1  0  0  0
  2  3  2  0  0  0
  2  5  1  0  0  0
  5  6  2  0  0  0
  6  7  1  0  0  0
  7  8  2  0  0  0
  8  9  1  0  0  0
  9 10  2  0  0  0
  8 11  1  0  0  0
 11 12  1  0  0  0
 12 13  1  0  0  0
 13 14  1  0  0  0
 14 17  1  0  0  0
 17 18  1  0  0  0
 18 19  2  0  0  0
 19 20  1  0  0  0
 20 21  1  0  0  0
 21 22  1  0  0  0
 21 23  1  0  0  0
 21 24  1  0  0  0
 24 25  1  0  0  0
 19 26  1  0  0  0
 26 27  2  0  0  0
 27 28  1  0  0  0
 28 29  2  0  0  0
 29 30  1  0  0  0
 29 31  1  0  0  0
 31 32  2  0  0  0
 14 15  1  0  0  0
 15 16  1  0  0  0
 55 50  1  0  0  0
 41 36  1  0  0  0
 10  5  1  0  0  0
 16 11  1  0  0  0
 25 18  1  0  0  0
 32 26  1  0  0  0
 45 46  1  0  0  0
  1  4  1  0  0  0
M  CHG 1  42   1
M  CHG 1  43  -1
M  END
> <minimizedAffinity>
-5.86254

> <CNNscore>
0.2303962111

> <CNNaffinity>
8.0831937790

> <CNN_VS>
1.8623372316

> <CNNaffinity_variance>
0.3422037363

$$$$
[H]c1c([H])c([H])c(SC([H])([H])[C@]([H])(N([H])c2c([H])c([H])c(S(=O)(=O)N([H])C(=O)c3c([H])c([H])c(N4C([H])([H])C([H])([H])N(C([H])([H])C5=C(c6c([H])c([H])c(Cl)c([H])c6[H])C([H])([H])C(C([H])([H])[H])(C([H])([H])[H])C([H])([H])C5([H])[H])C([H])([H])C4([H])[H])c([H])c3[H])c([H])c2[N+](=O)[O-])C([H])([H])C([H])([H])N(C([H])([H])[H])C([H])([H])[H])c([H])c1[H]


 60 65  0  0  0  0  0  0  0  0999 V2000
   12.2899   21.2719    1.7101 N   0  0  0  0  0  0  0  0  0  0  0  0
   11.7624   20.5389    2.7829 C   0  0  0  0  0  0  0  0  0  0  0  0
   11.8817   19.2926    2.8046 O   0  0  0  0  0  0  0  0  0  0  0  0
   12.1502   22.3216    1.7418 H   0  0  0  0  0  0  0  0  0  0  0  0
   11.0671   21.1435    3.9160 C   0  0  0  0  0  0  0  0  0  0  0  0
   11.3122   20.7260    5.2140 C   0  0  0  0  0  0  0  0  0  0  0  0
   10.6903   21.2908    6.3053 C   0  0  0  0  0  0  0  0  0  0  0  0
    9.7799   22.3146    6.1641 C   0  0  0  0  0  0  0  0  0  0  0  0
    9.5382   22.7269    4.8465 C   0  0  0  0  0  0  0  0  0  0  0  0
   10.1578   22.1642    3.7569 C   0  0  0  0  0  0  0  0  0  0  0  0
    9.1679   22.9635    7.2393 N   0  0  0  0  0  0  0  0  0  0  0  0
    7.8885   23.6461    7.0322 C   0  0  0  0  0  0  0  0  0  0  0  0
    6.9053   22.6790    7.7774 C   0  0  0  0  0  0  0  0  0  0  0  0
    7.2897   22.6317    9.1168 N   0  0  0  0  0  0  0  0  0  0  0  0
    8.4841   23.2674    9.5471 C   0  0  0  0  0  0  0  0  0  0  0  0
    9.6597   23.0274    8.6016 C   0  0  0  0  0  0  0  0  0  0  0  0
    7.1933   21.3211    9.7118 C   0  0  0  0  0  0  0  0  0  0  0  0
    7.4850   20.1804    8.8430 C   0  0  0  0  0  0  0  0  0  0  0  0
    6.5201   19.4288    8.3261 C   0  0  0  0  0  0  0  0  0  0  0  0
    6.9909   18.2762    7.4345 C   0  0  0  0  0  0  0  0  0  0  0  0
    7.9240   17.4463    8.2599 C   0  0  0  0  0  0  0  0  0  0  0  0
    7.1716   16.7745    9.4182 C   0  0  0  0  0  0  0  0  0  0  0  0
    8.5463   16.3469    7.4383 C   0  0  0  0  0  0  0  0  0  0  0  0
    9.0060   18.2716    8.9048 C   0  0  0  0  0  0  0  0  0  0  0  0
    8.8568   19.7501    8.4844 C   0  0  0  0  0  0  0  0  0  0  0  0
    5.1449   19.6052    8.6038 C   0  0  0  0  0  0  0  0  0  0  0  0
    4.4702   18.6601    9.3785 C   0  0  0  0  0  0  0  0  0  0  0  0
    3.1524   18.8029    9.7296 C   0  0  0  0  0  0  0  0  0  0  0  0
    2.4323   19.9248    9.3123 C   0  0  0  0  0  0  0  0  0  0  0  0
    0.7481   20.1462    9.7361 Cl  0  0  0  0  0  0  0  0  0  0  0  0
    3.0919   20.8682    8.5443 C   0  0  0  0  0  0  0  0  0  0  0  0
    4.4149   20.6954    8.2089 C   0  0  0  0  0  0  0  0  0  0  0  0
   13.1264   20.6738    0.3566 S   0  0  0  0  0  0  0  0  0  0  0  0
   12.1343   19.9989   -0.5598 O   0  0  0  0  0  0  0  0  0  0  0  0
   14.1335   19.6253    0.7432 O   0  0  0  0  0  0  0  0  0  0  0  0
   15.2357   23.9392   -2.0864 C   0  0  0  0  0  0  0  0  0  0  0  0
   14.4483   22.9576   -2.6912 C   0  0  0  0  0  0  0  0  0  0  0  0
   13.8050   21.9737   -1.9505 C   0  0  0  0  0  0  0  0  0  0  0  0
   13.9142   21.9225   -0.5820 C   0  0  0  0  0  0  0  0  0  0  0  0
   14.6876   22.8891    0.0039 C   0  0  0  0  0  0  0  0  0  0  0  0
   15.3486   23.8936   -0.7301 C   0  0  0  0  0  0  0  0  0  0  0  0
   16.0931   24.8244    0.0203 N   0  0  0  0  0  0  0  0  0  0  0  0
   15.5439   25.6342    0.9564 O   0  0  0  0  0  0  0  0  0  0  0  0
   17.3425   24.9460   -0.1478 O   0  0  0  0  0  0  0  0  0  0  0  0
   15.8874   24.9076   -2.9261 N   0  0  0  0  0  0  0  0  0  0  0  0
   16.8931   25.1157   -2.8636 H   0  0  0  0  0  0  0  0  0  0  0  0
   15.1689   25.6836   -3.9350 C   0  0  0  0  0  0  0  0  0  0  0  0
   14.2350   26.6726   -3.2497 C   0  0  0  0  0  0  0  0  0  0  0  0
   12.5284   26.0550   -3.3661 S   0  0  0  0  0  0  0  0  0  0  0  0
   11.9912   25.3714   -1.8199 C   0  0  0  0  0  0  0  0  0  0  0  0
   12.5248   25.8068   -0.6177 C   0  0  0  0  0  0  0  0  0  0  0  0
   12.1153   25.2735    0.5976 C   0  0  0  0  0  0  0  0  0  0  0  0
   11.1416   24.2808    0.5397 C   0  0  0  0  0  0  0  0  0  0  0  0
   10.6045   23.8423   -0.6479 C   0  0  0  0  0  0  0  0  0  0  0  0
   11.0204   24.3800   -1.8462 C   0  0  0  0  0  0  0  0  0  0  0  0
   16.2147   26.4327   -4.7440 C   0  0  0  0  0  0  0  0  0  0  0  0
   16.2281   27.8972   -4.4316 C   0  0  0  0  0  0  0  0  0  0  0  0
   18.6232   28.2490   -4.2765 C   0  0  0  0  0  0  0  0  0  0  0  0
   17.3280   28.3196   -3.6343 N   0  0  0  0  0  0  0  0  0  0  0  0
   17.3926   27.4748   -2.4481 C   0  0  0  0  0  0  0  0  0  0  0  0
 58 59  1  0  0  0
 59 60  1  0  0  0
 59 57  1  0  0  0
 57 56  1  0  0  0
 56 47  1  0  0  0
 47 48  1  0  0  0
 48 49  1  0  0  0
 49 50  1  0  0  0
 50 51  2  0  0  0
 51 52  1  0  0  0
 52 53  2  0  0  0
 53 54  1  0  0  0
 54 55  2  0  0  0
 47 45  1  0  0  0
 45 36  1  0  0  0
 36 37  2  0  0  0
 37 38  1  0  0  0
 38 39  2  0  0  0
 39 40  1  0  0  0
 40 41  2  0  0  0
 41 42  1  0  0  0
 42 43  1  0  0  0
 42 44  2  0  0  0
 39 33  1  0  0  0
 33 34  2  0  0  0
 33 35  2  0  0  0
 33  1  1  0  0  0
  1  2  1  0  0  0
  2  3  2  0  0  0
  2  5  1  0  0  0
  5  6  2  0  0  0
  6  7  1  0  0  0
  7  8  2  0  0  0
  8  9  1  0  0  0
  9 10  2  0  0  0
  8 11  1  0  0  0
 11 12  1  0  0  0
 12 13  1  0  0  0
 13 14  1  0  0  0
 14 17  1  0  0  0
 17 18  1  0  0  0
 18 19  2  0  0  0
 19 20  1  0  0  0
 20 21  1  0  0  0
 21 22  1  0  0  0
 21 23  1  0  0  0
 21 24  1  0  0  0
 24 25  1  0  0  0
 19 26  1  0  0  0
 26 27  2  0  0  0
 27 28  1  0  0  0
 28 29  2  0  0  0
 29 30  1  0  0  0
 29 31  1  0  0  0
 31 32  2  0  0  0
 14 15  1  0  0  0
 15 16  1  0  0  0
 55 50  1  0  0  0
 41 36  1  0  0  0
 10  5  1  0  0  0
 16 11  1  0  0  0
 25 18  1  0  0  0
 32 26  1  0  0  0
 45 46  1  0  0  0
  1  4  1  0  0  0
M  CHG 1  42   1
M  CHG 1  43  -1
M  END
> <minimizedAffinity>
-5.57756

> <CNNscore>
0.2190719992

> <CNNaffinity>
7.9320516586

> <CNN_VS>
1.7376904488

> <CNNaffinity_variance>
0.2217282057

$$$$
[H]c1c([H])c([H])c(SC([H])([H])[C@]([H])(N([H])c2c([H])c([H])c(S(=O)(=O)N([H])C(=O)c3c([H])c([H])c(N4C([H])([H])C([H])([H])N(C([H])([H])C5=C(c6c([H])c([H])c(Cl)c([H])c6[H])C([H])([H])C(C([H])([H])[H])(C([H])([H])[H])C([H])([H])C5([H])[H])C([H])([H])C4([H])[H])c([H])c3[H])c([H])c2[N+](=O)[O-])C([H])([H])C([H])([H])N(C([H])([H])[H])C([H])([H])[H])c([H])c1[H]


 60 65  0  0  0  0  0  0  0  0999 V2000
   11.1023   21.1416    3.2360 N   0  0  0  0  0  0  0  0  0  0  0  0
   10.3491   20.7600    4.3556 C   0  0  0  0  0  0  0  0  0  0  0  0
   10.0356   19.5582    4.5157 O   0  0  0  0  0  0  0  0  0  0  0  0
   11.3292   22.1728    3.1491 H   0  0  0  0  0  0  0  0  0  0  0  0
    9.8944   21.6913    5.3846 C   0  0  0  0  0  0  0  0  0  0  0  0
    9.0175   22.7207    5.0838 C   0  0  0  0  0  0  0  0  0  0  0  0
    8.5525   23.6015    6.0351 C   0  0  0  0  0  0  0  0  0  0  0  0
    8.9381   23.5051    7.3538 C   0  0  0  0  0  0  0  0  0  0  0  0
    9.8270   22.4616    7.6457 C   0  0  0  0  0  0  0  0  0  0  0  0
   10.2919   21.5824    6.6976 C   0  0  0  0  0  0  0  0  0  0  0  0
    8.4495   24.3320    8.3682 N   0  0  0  0  0  0  0  0  0  0  0  0
    9.1068   25.6151    8.6279 C   0  0  0  0  0  0  0  0  0  0  0  0
    8.0446   26.6195    8.0619 C   0  0  0  0  0  0  0  0  0  0  0  0
    6.8684   26.4497    8.7913 N   0  0  0  0  0  0  0  0  0  0  0  0
    6.7514   25.3962    9.7359 C   0  0  0  0  0  0  0  0  0  0  0  0
    7.3055   24.0696    9.2193 C   0  0  0  0  0  0  0  0  0  0  0  0
    5.6662   26.5290    7.9981 C   0  0  0  0  0  0  0  0  0  0  0  0
    4.4575   26.9949    8.6788 C   0  0  0  0  0  0  0  0  0  0  0  0
    3.4128   26.1989    8.8743 C   0  0  0  0  0  0  0  0  0  0  0  0
    2.2283   26.8368    9.6058 C   0  0  0  0  0  0  0  0  0  0  0  0
    1.8332   28.0447    8.8150 C   0  0  0  0  0  0  0  0  0  0  0  0
    1.2820   27.6365    7.4407 C   0  0  0  0  0  0  0  0  0  0  0  0
    0.7487   28.8227    9.5146 C   0  0  0  0  0  0  0  0  0  0  0  0
    3.0026   28.9496    8.5293 C   0  0  0  0  0  0  0  0  0  0  0  0
    4.2791   28.3768    9.1829 C   0  0  0  0  0  0  0  0  0  0  0  0
    3.3317   24.8689    8.4012 C   0  0  0  0  0  0  0  0  0  0  0  0
    3.2543   24.6279    7.0285 C   0  0  0  0  0  0  0  0  0  0  0  0
    3.2304   23.3609    6.5047 C   0  0  0  0  0  0  0  0  0  0  0  0
    3.2849   22.2505    7.3505 C   0  0  0  0  0  0  0  0  0  0  0  0
    3.2551   20.6157    6.7247 Cl  0  0  0  0  0  0  0  0  0  0  0  0
    3.3624   22.4783    8.7132 C   0  0  0  0  0  0  0  0  0  0  0  0
    3.3844   23.7621    9.2072 C   0  0  0  0  0  0  0  0  0  0  0  0
   11.6934   20.1430    1.9940 S   0  0  0  0  0  0  0  0  0  0  0  0
   10.5175   19.5565    1.2504 O   0  0  0  0  0  0  0  0  0  0  0  0
   12.4774   18.9807    2.5394 O   0  0  0  0  0  0  0  0  0  0  0  0
   14.2743   22.3660   -1.0847 C   0  0  0  0  0  0  0  0  0  0  0  0
   13.1362   21.6480   -1.4566 C   0  0  0  0  0  0  0  0  0  0  0  0
   12.3519   20.9810   -0.5234 C   0  0  0  0  0  0  0  0  0  0  0  0
   12.6620   20.9988    0.8148 C   0  0  0  0  0  0  0  0  0  0  0  0
   13.7793   21.7058    1.1718 C   0  0  0  0  0  0  0  0  0  0  0  0
   14.5876   22.3870    0.2404 C   0  0  0  0  0  0  0  0  0  0  0  0
   15.6936   23.0817    0.7674 N   0  0  0  0  0  0  0  0  0  0  0  0
   16.0132   24.3490    0.4132 O   0  0  0  0  0  0  0  0  0  0  0  0
   16.4562   22.5401    1.6213 O   0  0  0  0  0  0  0  0  0  0  0  0
   15.0454   23.0084   -2.1144 N   0  0  0  0  0  0  0  0  0  0  0  0
   16.0374   22.7956   -2.2855 H   0  0  0  0  0  0  0  0  0  0  0  0
   14.4817   24.0257   -2.9996 C   0  0  0  0  0  0  0  0  0  0  0  0
   14.1155   25.2623   -2.1892 C   0  0  0  0  0  0  0  0  0  0  0  0
   12.3232   25.5440   -2.3143 S   0  0  0  0  0  0  0  0  0  0  0  0
   11.4666   24.8172   -0.9416 C   0  0  0  0  0  0  0  0  0  0  0  0
   10.3397   24.0338   -1.1312 C   0  0  0  0  0  0  0  0  0  0  0  0
    9.6585   23.4655   -0.0625 C   0  0  0  0  0  0  0  0  0  0  0  0
   10.1703   23.7262    1.2051 C   0  0  0  0  0  0  0  0  0  0  0  0
   11.2887   24.5014    1.4043 C   0  0  0  0  0  0  0  0  0  0  0  0
   11.9545   25.0592    0.3349 C   0  0  0  0  0  0  0  0  0  0  0  0
   15.5567   24.3714   -4.0167 C   0  0  0  0  0  0  0  0  0  0  0  0
   15.0673   25.3400   -5.0486 C   0  0  0  0  0  0  0  0  0  0  0  0
   16.0482   27.5209   -4.6416 C   0  0  0  0  0  0  0  0  0  0  0  0
   16.0250   26.3154   -5.4424 N   0  0  0  0  0  0  0  0  0  0  0  0
   15.7392   26.7189   -6.8137 C   0  0  0  0  0  0  0  0  0  0  0  0
 58 59  1  0  0  0
 59 60  1  0  0  0
 59 57  1  0  0  0
 57 56  1  0  0  0
 56 47  1  0  0  0
 47 48  1  0  0  0
 48 49  1  0  0  0
 49 50  1  0  0  0
 50 51  2  0  0  0
 51 52  1  0  0  0
 52 53  2  0  0  0
 53 54  1  0  0  0
 54 55  2  0  0  0
 47 45  1  0  0  0
 45 36  1  0  0  0
 36 37  2  0  0  0
 37 38  1  0  0  0
 38 39  2  0  0  0
 39 40  1  0  0  0
 40 41  2  0  0  0
 41 42  1  0  0  0
 42 43  1  0  0  0
 42 44  2  0  0  0
 39 33  1  0  0  0
 33 34  2  0  0  0
 33 35  2  0  0  0
 33  1  1  0  0  0
  1  2  1  0  0  0
  2  3  2  0  0  0
  2  5  1  0  0  0
  5  6  2  0  0  0
  6  7  1  0  0  0
  7  8  2  0  0  0
  8  9  1  0  0  0
  9 10  2  0  0  0
  8 11  1  0  0  0
 11 12  1  0  0  0
 12 13  1  0  0  0
 13 14  1  0  0  0
 14 17  1  0  0  0
 17 18  1  0  0  0
 18 19  2  0  0  0
 19 20  1  0  0  0
 20 21  1  0  0  0
 21 22  1  0  0  0
 21 23  1  0  0  0
 21 24  1  0  0  0
 24 25  1  0  0  0
 19 26  1  0  0  0
 26 27  2  0  0  0
 27 28  1  0  0  0
 28 29  2  0  0  0
 29 30  1  0  0  0
 29 31  1  0  0  0
 31 32  2  0  0  0
 14 15  1  0  0  0
 15 16  1  0  0  0
 55 50  1  0  0  0
 41 36  1  0  0  0
 10  5  1  0  0  0
 16 11  1  0  0  0
 25 18  1  0  0  0
 32 26  1  0  0  0
 45 46  1  0  0  0
  1  4  1  0  0  0
M  CHG 1  42   1
M  CHG 1  43  -1
M  END
> <minimizedAffinity>
-6.52593

> <CNNscore>
0.1653975546

> <CNNaffinity>
7.9173536301

> <CNN_VS>
1.3095109463

> <CNNaffinity_variance>
0.0952353105

$$$$
[H]c1c([H])c([H])c(SC([H])([H])[C@]([H])(N([H])c2c([H])c([H])c(S(=O)(=O)N([H])C(=O)c3c([H])c([H])c(N4C([H])([H])C([H])([H])N(C([H])([H])C5=C(c6c([H])c([H])c(Cl)c([H])c6[H])C([H])([H])C(C([H])([H])[H])(C([H])([H])[H])C([H])([H])C5([H])[H])C([H])([H])C4([H])[H])c([H])c3[H])c([H])c2[N+](=O)[O-])C([H])([H])C([H])([H])N(C([H])([H])[H])C([H])([H])[H])c([H])c1[H]


 60 65  0  0  0  0  0  0  0  0999 V2000
    6.4001   19.9895    1.2527 N   0  0  0  0  0  0  0  0  0  0  0  0
    7.2452   21.0321    1.6592 C   0  0  0  0  0  0  0  0  0  0  0  0
    6.7769   21.9994    2.3018 O   0  0  0  0  0  0  0  0  0  0  0  0
    6.8509   19.2031    0.7044 H   0  0  0  0  0  0  0  0  0  0  0  0
    8.6790   21.0697    1.3841 C   0  0  0  0  0  0  0  0  0  0  0  0
    9.1840   20.6817    0.1537 C   0  0  0  0  0  0  0  0  0  0  0  0
   10.5278   20.7267   -0.1447 C   0  0  0  0  0  0  0  0  0  0  0  0
   11.4542   21.1661    0.7748 C   0  0  0  0  0  0  0  0  0  0  0  0
   10.9321   21.5537    2.0164 C   0  0  0  0  0  0  0  0  0  0  0  0
    9.5918   21.5090    2.3156 C   0  0  0  0  0  0  0  0  0  0  0  0
   12.8190   21.2902    0.5036 N   0  0  0  0  0  0  0  0  0  0  0  0
   13.5890   20.1000    0.1347 C   0  0  0  0  0  0  0  0  0  0  0  0
   13.8303   20.3569   -1.3927 C   0  0  0  0  0  0  0  0  0  0  0  0
   14.5589   21.5395   -1.5147 N   0  0  0  0  0  0  0  0  0  0  0  0
   14.8172   22.3480   -0.3765 C   0  0  0  0  0  0  0  0  0  0  0  0
   13.5950   22.5147    0.5246 C   0  0  0  0  0  0  0  0  0  0  0  0
   14.1524   22.3710   -2.6212 C   0  0  0  0  0  0  0  0  0  0  0  0
   14.7876   23.6851   -2.7256 C   0  0  0  0  0  0  0  0  0  0  0  0
   14.2816   24.7571   -2.1274 C   0  0  0  0  0  0  0  0  0  0  0  0
   15.0674   26.0556   -2.3309 C   0  0  0  0  0  0  0  0  0  0  0  0
   15.1677   26.2716   -3.8087 C   0  0  0  0  0  0  0  0  0  0  0  0
   13.7817   26.5439   -4.4122 C   0  0  0  0  0  0  0  0  0  0  0  0
   16.0322   27.4641   -4.1273 C   0  0  0  0  0  0  0  0  0  0  0  0
   15.6919   25.0582   -4.5303 C   0  0  0  0  0  0  0  0  0  0  0  0
   16.0166   23.9437   -3.5119 C   0  0  0  0  0  0  0  0  0  0  0  0
   13.0708   24.7584   -1.3972 C   0  0  0  0  0  0  0  0  0  0  0  0
   11.9283   24.1809   -1.9536 C   0  0  0  0  0  0  0  0  0  0  0  0
   10.7400   24.1002   -1.2742 C   0  0  0  0  0  0  0  0  0  0  0  0
   10.6380   24.6051    0.0243 C   0  0  0  0  0  0  0  0  0  0  0  0
    9.1402   24.5247    0.9271 Cl  0  0  0  0  0  0  0  0  0  0  0  0
   11.7650   25.1794    0.5855 C   0  0  0  0  0  0  0  0  0  0  0  0
   12.9426   25.2450   -0.1227 C   0  0  0  0  0  0  0  0  0  0  0  0
    4.7302   19.8388    1.5322 S   0  0  0  0  0  0  0  0  0  0  0  0
    4.1952   18.7343    0.6528 O   0  0  0  0  0  0  0  0  0  0  0  0
    3.9864   21.0890    1.1490 O   0  0  0  0  0  0  0  0  0  0  0  0
    3.7004   18.6614    5.8489 C   0  0  0  0  0  0  0  0  0  0  0  0
    4.7626   19.5170    5.5507 C   0  0  0  0  0  0  0  0  0  0  0  0
    5.0694   19.8781    4.2445 C   0  0  0  0  0  0  0  0  0  0  0  0
    4.3370   19.4078    3.1817 C   0  0  0  0  0  0  0  0  0  0  0  0
    3.2964   18.5697    3.4823 C   0  0  0  0  0  0  0  0  0  0  0  0
    2.9707   18.1911    4.7996 C   0  0  0  0  0  0  0  0  0  0  0  0
    1.8618   17.3351    4.9447 N   0  0  0  0  0  0  0  0  0  0  0  0
    1.9011   16.1805    5.6513 O   0  0  0  0  0  0  0  0  0  0  0  0
    0.7481   17.6158    4.4110 O   0  0  0  0  0  0  0  0  0  0  0  0
    3.4637   18.3176    7.2249 N   0  0  0  0  0  0  0  0  0  0  0  0
    4.0846   17.6964    7.7610 H   0  0  0  0  0  0  0  0  0  0  0  0
    2.3129   18.8185    7.9737 C   0  0  0  0  0  0  0  0  0  0  0  0
    1.9893   17.8619    9.1139 C   0  0  0  0  0  0  0  0  0  0  0  0
    3.3951   16.7345    9.3593 S   0  0  0  0  0  0  0  0  0  0  0  0
    2.8932   15.0424    9.1831 C   0  0  0  0  0  0  0  0  0  0  0  0
    1.5727   14.7070    8.9313 C   0  0  0  0  0  0  0  0  0  0  0  0
    1.1688   13.3849    8.7979 C   0  0  0  0  0  0  0  0  0  0  0  0
    2.1621   12.4193    8.9307 C   0  0  0  0  0  0  0  0  0  0  0  0
    3.4758   12.7412    9.1795 C   0  0  0  0  0  0  0  0  0  0  0  0
    3.8624   14.0571    9.3098 C   0  0  0  0  0  0  0  0  0  0  0  0
    2.7055   20.1766    8.5314 C   0  0  0  0  0  0  0  0  0  0  0  0
    2.0633   21.3023    7.7811 C   0  0  0  0  0  0  0  0  0  0  0  0
    3.2100   23.1032    6.6295 C   0  0  0  0  0  0  0  0  0  0  0  0
    2.7486   22.5448    7.8827 N   0  0  0  0  0  0  0  0  0  0  0  0
    3.9230   22.3594    8.7260 C   0  0  0  0  0  0  0  0  0  0  0  0
 58 59  1  0  0  0
 59 60  1  0  0  0
 59 57  1  0  0  0
 57 56  1  0  0  0
 56 47  1  0  0  0
 47 48  1  0  0  0
 48 49  1  0  0  0
 49 50  1  0  0  0
 50 51  2  0  0  0
 51 52  1  0  0  0
 52 53  2  0  0  0
 53 54  1  0  0  0
 54 55  2  0  0  0
 47 45  1  0  0  0
 45 36  1  0  0  0
 36 37  2  0  0  0
 37 38  1  0  0  0
 38 39  2  0  0  0
 39 40  1  0  0  0
 40 41  2  0  0  0
 41 42  1  0  0  0
 42 43  1  0  0  0
 42 44  2  0  0  0
 39 33  1  0  0  0
 33 34  2  0  0  0
 33 35  2  0  0  0
 33  1  1  0  0  0
  1  2  1  0  0  0
  2  3  2  0  0  0
  2  5  1  0  0  0
  5  6  2  0  0  0
  6  7  1  0  0  0
  7  8  2  0  0  0
  8  9  1  0  0  0
  9 10  2  0  0  0
  8 11  1  0  0  0
 11 12  1  0  0  0
 12 13  1  0  0  0
 13 14  1  0  0  0
 14 17  1  0  0  0
 17 18  1  0  0  0
 18 19  2  0  0  0
 19 20  1  0  0  0
 20 21  1  0  0  0
 21 22  1  0  0  0
 21 23  1  0  0  0
 21 24  1  0  0  0
 24 25  1  0  0  0
 19 26  1  0  0  0
 26 27  2  0  0  0
 27 28  1  0  0  0
 28 29  2  0  0  0
 29 30  1  0  0  0
 29 31  1  0  0  0
 31 32  2  0  0  0
 14 15  1  0  0  0
 15 16  1  0  0  0
 55 50  1  0  0  0
 41 36  1  0  0  0
 10  5  1  0  0  0
 16 11  1  0  0  0
 25 18  1  0  0  0
 32 26  1  0  0  0
 45 46  1  0  0  0
  1  4  1  0  0  0
M  CHG 1  42   1
M  CHG 1  43  -1
M  END
> <minimizedAffinity>
-6.35035

> <CNNscore>
0.1551683247

> <CNNaffinity>
7.6097984314

> <CNN_VS>
1.1807997227

> <CNNaffinity_variance>
0.7563011050

$$$$
[H]c1c([H])c([H])c(SC([H])([H])[C@]([H])(N([H])c2c([H])c([H])c(S(=O)(=O)N([H])C(=O)c3c([H])c([H])c(N4C([H])([H])C([H])([H])N(C([H])([H])C5=C(c6c([H])c([H])c(Cl)c([H])c6[H])C([H])([H])C(C([H])([H])[H])(C([H])([H])[H])C([H])([H])C5([H])[H])C([H])([H])C4([H])[H])c([H])c3[H])c([H])c2[N+](=O)[O-])C([H])([H])C([H])([H])N(C([H])([H])[H])C([H])([H])[H])c([H])c1[H]


 60 65  0  0  0  0  0  0  0  0999 V2000
   11.8773   21.2255    2.4613 N   0  0  0  0  0  0  0  0  0  0  0  0
   11.1837   20.5779    3.4937 C   0  0  0  0  0  0  0  0  0  0  0  0
   11.1240   19.3272    3.5155 O   0  0  0  0  0  0  0  0  0  0  0  0
   11.8857   22.2845    2.4903 H   0  0  0  0  0  0  0  0  0  0  0  0
   10.5095   21.2783    4.5835 C   0  0  0  0  0  0  0  0  0  0  0  0
    9.4829   22.1744    4.3341 C   0  0  0  0  0  0  0  0  0  0  0  0
    8.8122   22.8337    5.3402 C   0  0  0  0  0  0  0  0  0  0  0  0
    9.1290   22.6349    6.6658 C   0  0  0  0  0  0  0  0  0  0  0  0
   10.1705   21.7282    6.9058 C   0  0  0  0  0  0  0  0  0  0  0  0
   10.8406   21.0701    5.9030 C   0  0  0  0  0  0  0  0  0  0  0  0
    8.4409   23.2295    7.7262 N   0  0  0  0  0  0  0  0  0  0  0  0
    9.1633   24.1102    8.6472 C   0  0  0  0  0  0  0  0  0  0  0  0
    8.6020   25.5126    8.2280 C   0  0  0  0  0  0  0  0  0  0  0  0
    7.2251   25.5021    8.4478 N   0  0  0  0  0  0  0  0  0  0  0  0
    6.5646   24.3038    8.8270 C   0  0  0  0  0  0  0  0  0  0  0  0
    7.0294   23.0891    8.0257 C   0  0  0  0  0  0  0  0  0  0  0  0
    6.4603   26.1789    7.4291 C   0  0  0  0  0  0  0  0  0  0  0  0
    5.2303   26.8433    7.8614 C   0  0  0  0  0  0  0  0  0  0  0  0
    4.4746   27.5362    7.0175 C   0  0  0  0  0  0  0  0  0  0  0  0
    3.2186   28.1666    7.6257 C   0  0  0  0  0  0  0  0  0  0  0  0
    3.6756   29.0307    8.7593 C   0  0  0  0  0  0  0  0  0  0  0  0
    4.5053   30.2139    8.2388 C   0  0  0  0  0  0  0  0  0  0  0  0
    2.5039   29.6073    9.5112 C   0  0  0  0  0  0  0  0  0  0  0  0
    4.5772   28.2932    9.7138 C   0  0  0  0  0  0  0  0  0  0  0  0
    4.7341   26.8263    9.2575 C   0  0  0  0  0  0  0  0  0  0  0  0
    4.8017   27.7556    5.6595 C   0  0  0  0  0  0  0  0  0  0  0  0
    3.8446   27.5179    4.6717 C   0  0  0  0  0  0  0  0  0  0  0  0
    4.0814   27.7649    3.3439 C   0  0  0  0  0  0  0  0  0  0  0  0
    5.3161   28.2738    2.9339 C   0  0  0  0  0  0  0  0  0  0  0  0
    5.6617   28.6019    1.2492 Cl  0  0  0  0  0  0  0  0  0  0  0  0
    6.2720   28.5135    3.9053 C   0  0  0  0  0  0  0  0  0  0  0  0
    6.0030   28.2549    5.2295 C   0  0  0  0  0  0  0  0  0  0  0  0
   12.7061   20.5109    1.1607 S   0  0  0  0  0  0  0  0  0  0  0  0
   11.6992   19.8199    0.2728 O   0  0  0  0  0  0  0  0  0  0  0  0
   13.6647   19.4495    1.6270 O   0  0  0  0  0  0  0  0  0  0  0  0
   14.9780   23.5292   -1.4488 C   0  0  0  0  0  0  0  0  0  0  0  0
   14.1347   22.5634   -2.0015 C   0  0  0  0  0  0  0  0  0  0  0  0
   13.4424   21.6546   -1.2106 C   0  0  0  0  0  0  0  0  0  0  0  0
   13.5561   21.6659    0.1584 C   0  0  0  0  0  0  0  0  0  0  0  0
   14.3844   22.6166    0.6930 C   0  0  0  0  0  0  0  0  0  0  0  0
   15.0956   23.5453   -0.0922 C   0  0  0  0  0  0  0  0  0  0  0  0
   15.8940   24.4700    0.6085 N   0  0  0  0  0  0  0  0  0  0  0  0
   15.4022   25.5965    1.1767 O   0  0  0  0  0  0  0  0  0  0  0  0
   17.1389   24.2827    0.7461 O   0  0  0  0  0  0  0  0  0  0  0  0
   15.6771   24.4172   -2.3378 N   0  0  0  0  0  0  0  0  0  0  0  0
   16.6988   24.5373   -2.3191 H   0  0  0  0  0  0  0  0  0  0  0  0
   14.9889   25.2302   -3.3385 C   0  0  0  0  0  0  0  0  0  0  0  0
   14.1188   26.2689   -2.6427 C   0  0  0  0  0  0  0  0  0  0  0  0
   12.3693   25.8350   -2.8846 S   0  0  0  0  0  0  0  0  0  0  0  0
   11.6985   25.0614   -1.4362 C   0  0  0  0  0  0  0  0  0  0  0  0
   10.7409   24.0647   -1.5321 C   0  0  0  0  0  0  0  0  0  0  0  0
   10.2051   23.4573   -0.4038 C   0  0  0  0  0  0  0  0  0  0  0  0
   10.6832   23.9045    0.8242 C   0  0  0  0  0  0  0  0  0  0  0  0
   11.6342   24.8922    0.9306 C   0  0  0  0  0  0  0  0  0  0  0  0
   12.1569   25.4863   -0.1971 C   0  0  0  0  0  0  0  0  0  0  0  0
   16.0634   25.9209   -4.1619 C   0  0  0  0  0  0  0  0  0  0  0  0
   15.7718   27.3758   -4.3642 C   0  0  0  0  0  0  0  0  0  0  0  0
   14.8695   26.5640   -6.4645 C   0  0  0  0  0  0  0  0  0  0  0  0
   15.2372   27.6974   -5.6428 N   0  0  0  0  0  0  0  0  0  0  0  0
   16.2351   28.4575   -6.3851 C   0  0  0  0  0  0  0  0  0  0  0  0
 58 59  1  0  0  0
 59 60  1  0  0  0
 59 57  1  0  0  0
 57 56  1  0  0  0
 56 47  1  0  0  0
 47 48  1  0  0  0
 48 49  1  0  0  0
 49 50  1  0  0  0
 50 51  2  0  0  0
 51 52  1  0  0  0
 52 53  2  0  0  0
 53 54  1  0  0  0
 54 55  2  0  0  0
 47 45  1  0  0  0
 45 36  1  0  0  0
 36 37  2  0  0  0
 37 38  1  0  0  0
 38 39  2  0  0  0
 39 40  1  0  0  0
 40 41  2  0  0  0
 41 42  1  0  0  0
 42 43  1  0  0  0
 42 44  2  0  0  0
 39 33  1  0  0  0
 33 34  2  0  0  0
 33 35  2  0  0  0
 33  1  1  0  0  0
  1  2  1  0  0  0
  2  3  2  0  0  0
  2  5  1  0  0  0
  5  6  2  0  0  0
  6  7  1  0  0  0
  7  8  2  0  0  0
  8  9  1  0  0  0
  9 10  2  0  0  0
  8 11  1  0  0  0
 11 12  1  0  0  0
 12 13  1  0  0  0
 13 14  1  0  0  0
 14 17  1  0  0  0
 17 18  1  0  0  0
 18 19  2  0  0  0
 19 20  1  0  0  0
 20 21  1  0  0  0
 21 22  1  0  0  0
 21 23  1  0  0  0
 21 24  1  0  0  0
 24 25  1  0  0  0
 19 26  1  0  0  0
 26 27  2  0  0  0
 27 28  1  0  0  0
 28 29  2  0  0  0
 29 30  1  0  0  0
 29 31  1  0  0  0
 31 32  2  0  0  0
 14 15  1  0  0  0
 15 16  1  0  0  0
 55 50  1  0  0  0
 41 36  1  0  0  0
 10  5  1  0  0  0
 16 11  1  0  0  0
 25 18  1  0  0  0
 32 26  1  0  0  0
 45 46  1  0  0  0
  1  4  1  0  0  0
M  CHG 1  42   1
M  CHG 1  43  -1
M  END
> <minimizedAffinity>
-5.57349

> <CNNscore>
0.1544528008

> <CNNaffinity>
7.8521852493

> <CNN_VS>
1.2127920389

> <CNNaffinity_variance>
0.4743401408

$$$$
[H]OC(=O)[C@@]([H])(N([H])C(=O)C1([H])C([H])([H])C([H])([H])N(C(=O)c2c([H])c(OC([H])([H])[H])c(OC([H])([H])[H])c(OC([H])([H])[H])c2[H])C([H])([H])C1([H])[H])C([H])([H])c1c([H])c([H])c(O[H])c([H])c1[H]


 38 40  0  0  0  0  0  0  0  0999 V2000
   14.5347   22.7242   -0.2734 C   0  0  0  0  0  0  0  0  0  0  0  0
   15.3174   22.9928    0.7594 O   0  0  0  0  0  0  0  0  0  0  0  0
   13.5299   21.8061    0.0095 N   0  0  0  0  0  0  0  0  0  0  0  0
   13.4570   21.2806    1.4060 C   0  0  0  0  0  0  0  0  0  0  0  0
   12.0261   21.4833    1.8728 C   0  0  0  0  0  0  0  0  0  0  0  0
   11.1106   20.5543    1.0667 C   0  0  0  0  0  0  0  0  0  0  0  0
   11.8102   20.1101   -0.1809 C   0  0  0  0  0  0  0  0  0  0  0  0
   12.5610   21.2745   -0.8675 C   0  0  0  0  0  0  0  0  0  0  0  0
   15.4039   25.3001   -2.8366 C   0  0  0  0  0  0  0  0  0  0  0  0
   15.1347   24.7413   -1.5883 C   0  0  0  0  0  0  0  0  0  0  0  0
   14.8512   23.4101   -1.4815 C   0  0  0  0  0  0  0  0  0  0  0  0
   14.8483   22.6607   -2.6666 C   0  0  0  0  0  0  0  0  0  0  0  0
   15.1176   23.2379   -3.8841 C   0  0  0  0  0  0  0  0  0  0  0  0
   15.4023   24.5762   -3.9952 C   0  0  0  0  0  0  0  0  0  0  0  0
   16.9918   27.1725   -2.8142 C   0  0  0  0  0  0  0  0  0  0  0  0
   15.6906   26.6712   -2.9103 O   0  0  0  0  0  0  0  0  0  0  0  0
   15.1018   22.4409   -5.0437 O   0  0  0  0  0  0  0  0  0  0  0  0
   14.9245   21.0587   -4.9432 C   0  0  0  0  0  0  0  0  0  0  0  0
   15.6773   25.1661   -5.2409 O   0  0  0  0  0  0  0  0  0  0  0  0
   14.8555   26.1940   -5.7624 C   0  0  0  0  0  0  0  0  0  0  0  0
    9.8461   21.2813    0.7844 C   0  0  0  0  0  0  0  0  0  0  0  0
    9.6962   21.8930   -0.3108 O   0  0  0  0  0  0  0  0  0  0  0  0
    8.7747   21.3193    1.7119 N   0  0  0  0  0  0  0  0  0  0  0  0
    8.8959   20.8054    2.6366 H   0  0  0  0  0  0  0  0  0  0  0  0
    7.5657   22.0309    1.4075 C   0  0  0  0  0  0  0  0  0  0  0  0
    6.6864   21.3008    0.4865 C   0  0  0  0  0  0  0  0  0  0  0  0
    6.8093   21.3795   -0.8886 O   0  0  0  0  0  0  0  0  0  0  0  0
    5.7811   20.5714    0.9626 O   0  0  0  0  0  0  0  0  0  0  0  0
    7.3038   22.0879   -1.3800 H   0  0  0  0  0  0  0  0  0  0  0  0
    7.8466   23.4610    0.9721 C   0  0  0  0  0  0  0  0  0  0  0  0
    8.1822   24.3576    2.0878 C   0  0  0  0  0  0  0  0  0  0  0  0
    9.4635   24.8888    2.1021 C   0  0  0  0  0  0  0  0  0  0  0  0
    9.8159   25.7204    3.1171 C   0  0  0  0  0  0  0  0  0  0  0  0
    8.9065   26.0221    4.1084 C   0  0  0  0  0  0  0  0  0  0  0  0
    9.2837   26.8805    5.1479 O   0  0  0  0  0  0  0  0  0  0  0  0
    7.6353   25.4912    4.0886 C   0  0  0  0  0  0  0  0  0  0  0  0
    7.2636   24.6348    3.0485 C   0  0  0  0  0  0  0  0  0  0  0  0
    9.6964   26.4209    5.9625 H   0  0  0  0  0  0  0  0  0  0  0  0
 15 16  1  0  0  0
 16  9  1  0  0  0
  9 10  2  0  0  0
 10 11  1  0  0  0
 11 12  2  0  0  0
 12 13  1  0  0  0
 13 17  1  0  0  0
 17 18  1  0  0  0
 13 14  2  0  0  0
 14 19  1  0  0  0
 19 20  1  0  0  0
 11  1  1  0  0  0
  1  2  2  0  0  0
  1  3  1  0  0  0
  3  4  1  0  0  0
  4  5  1  0  0  0
  5  6  1  0  0  0
  6  7  1  0  0  0
  7  8  1  0  0  0
  6 21  1  0  0  0
 21 22  2  0  0  0
 21 23  1  0  0  0
 23 25  1  0  0  0
 25 30  1  0  0  0
 30 31  1  0  0  0
 31 32  2  0  0  0
 32 33  1  0  0  0
 33 34  2  0  0  0
 34 35  1  0  0  0
 34 36  1  0  0  0
 36 37  2  0  0  0
 25 26  1  0  0  0
 26 27  1  0  0  0
 26 28  2  0  0  0
 14  9  1  0  0  0
  8  3  1  0  0  0
 37 31  1  0  0  0
 23 24  1  0  0  0
 35 38  1  0  0  0
 27 29  1  0  0  0
M  END
> <minimizedAffinity>
-5.67980

> <CNNscore>
0.4376742244

> <CNNaffinity>
6.8966598511

> <CNN_VS>
3.0184903145

> <CNNaffinity_variance>
0.5678734779

$$$$
[H]OC(=O)[C@@]([H])(N([H])C(=O)C1([H])C([H])([H])C([H])([H])N(C(=O)c2c([H])c(OC([H])([H])[H])c(OC([H])([H])[H])c(OC([H])([H])[H])c2[H])C([H])([H])C1([H])[H])C([H])([H])c1c([H])c([H])c(O[H])c([H])c1[H]


 38 40  0  0  0  0  0  0  0  0999 V2000
   14.5983   23.3594   -0.3936 C   0  0  0  0  0  0  0  0  0  0  0  0
   15.4927   23.4306    0.5792 O   0  0  0  0  0  0  0  0  0  0  0  0
   13.6897   22.3180   -0.2436 N   0  0  0  0  0  0  0  0  0  0  0  0
   13.8269   21.4604    0.9718 C   0  0  0  0  0  0  0  0  0  0  0  0
   12.4598   21.4196    1.6319 C   0  0  0  0  0  0  0  0  0  0  0  0
   11.4990   20.6436    0.7231 C   0  0  0  0  0  0  0  0  0  0  0  0
   12.0539   20.5816   -0.6666 C   0  0  0  0  0  0  0  0  0  0  0  0
   12.6454   21.9386   -1.1131 C   0  0  0  0  0  0  0  0  0  0  0  0
   13.9660   25.7177   -3.2219 C   0  0  0  0  0  0  0  0  0  0  0  0
   13.7137   24.7596   -2.2414 C   0  0  0  0  0  0  0  0  0  0  0  0
   14.7181   24.3462   -1.4144 C   0  0  0  0  0  0  0  0  0  0  0  0
   15.9806   24.9264   -1.6034 C   0  0  0  0  0  0  0  0  0  0  0  0
   16.2009   25.8694   -2.5782 C   0  0  0  0  0  0  0  0  0  0  0  0
   15.1933   26.2867   -3.4120 C   0  0  0  0  0  0  0  0  0  0  0  0
   12.4131   27.4250   -4.0593 C   0  0  0  0  0  0  0  0  0  0  0  0
   12.9113   26.1191   -4.0550 O   0  0  0  0  0  0  0  0  0  0  0  0
   17.4870   26.4206   -2.7263 O   0  0  0  0  0  0  0  0  0  0  0  0
   17.6440   27.7963   -2.9129 C   0  0  0  0  0  0  0  0  0  0  0  0
   15.4194   27.2510   -4.4092 O   0  0  0  0  0  0  0  0  0  0  0  0
   15.6966   26.8730   -5.7449 C   0  0  0  0  0  0  0  0  0  0  0  0
   10.1712   21.3077    0.7789 C   0  0  0  0  0  0  0  0  0  0  0  0
    9.5911   21.6580   -0.2873 O   0  0  0  0  0  0  0  0  0  0  0  0
    9.5107   21.5716    2.0051 N   0  0  0  0  0  0  0  0  0  0  0  0
    9.9952   21.2784    2.9069 H   0  0  0  0  0  0  0  0  0  0  0  0
    8.2274   22.2147    2.0237 C   0  0  0  0  0  0  0  0  0  0  0  0
    7.2574   21.5866    1.1188 C   0  0  0  0  0  0  0  0  0  0  0  0
    6.7572   22.2221   -0.0029 O   0  0  0  0  0  0  0  0  0  0  0  0
    6.8608   20.4211    1.3693 O   0  0  0  0  0  0  0  0  0  0  0  0
    6.7962   23.2008   -0.1720 H   0  0  0  0  0  0  0  0  0  0  0  0
    8.3472   23.7193    1.8346 C   0  0  0  0  0  0  0  0  0  0  0  0
    7.7115   24.4968    2.9082 C   0  0  0  0  0  0  0  0  0  0  0  0
    7.7211   25.8773    2.7730 C   0  0  0  0  0  0  0  0  0  0  0  0
    7.1464   26.6339    3.7443 C   0  0  0  0  0  0  0  0  0  0  0  0
    6.5679   26.0274    4.8388 C   0  0  0  0  0  0  0  0  0  0  0  0
    5.9794   26.8198    5.8315 O   0  0  0  0  0  0  0  0  0  0  0  0
    6.5616   24.6556    4.9673 C   0  0  0  0  0  0  0  0  0  0  0  0
    7.1503   23.8690    3.9733 C   0  0  0  0  0  0  0  0  0  0  0  0
    6.6055   27.1041    6.5881 H   0  0  0  0  0  0  0  0  0  0  0  0
 15 16  1  0  0  0
 16  9  1  0  0  0
  9 10  2  0  0  0
 10 11  1  0  0  0
 11 12  2  0  0  0
 12 13  1  0  0  0
 13 17  1  0  0  0
 17 18  1  0  0  0
 13 14  2  0  0  0
 14 19  1  0  0  0
 19 20  1  0  0  0
 11  1  1  0  0  0
  1  2  2  0  0  0
  1  3  1  0  0  0
  3  4  1  0  0  0
  4  5  1  0  0  0
  5  6  1  0  0  0
  6  7  1  0  0  0
  7  8  1  0  0  0
  6 21  1  0  0  0
 21 22  2  0  0  0
 21 23  1  0  0  0
 23 25  1  0  0  0
 25 30  1  0  0  0
 30 31  1  0  0  0
 31 32  2  0  0  0
 32 33  1  0  0  0
 33 34  2  0  0  0
 34 35  1  0  0  0
 34 36  1  0  0  0
 36 37  2  0  0  0
 25 26  1  0  0  0
 26 27  1  0  0  0
 26 28  2  0  0  0
 14  9  1  0  0  0
  8  3  1  0  0  0
 37 31  1  0  0  0
 23 24  1  0  0  0
 35 38  1  0  0  0
 27 29  1  0  0  0
M  END
> <minimizedAffinity>
-7.64262

> <CNNscore>
0.4316595197

> <CNNaffinity>
6.9112014771

> <CNN_VS>
2.9832859039

> <CNNaffinity_variance>
0.4053288102

$$$$
[H]OC(=O)[C@@]([H])(N([H])C(=O)C1([H])C([H])([H])C([H])([H])N(C(=O)c2c([H])c(OC([H])([H])[H])c(OC([H])([H])[H])c(OC([H])([H])[H])c2[H])C([H])([H])C1([H])[H])C([H])([H])c1c([H])c([H])c(O[H])c([H])c1[H]


 38 40  0  0  0  0  0  0  0  0999 V2000
   15.4049   23.6777   -0.7016 C   0  0  0  0  0  0  0  0  0  0  0  0
   16.3107   23.6643    0.2631 O   0  0  0  0  0  0  0  0  0  0  0  0
   14.4792   22.6443   -0.6147 N   0  0  0  0  0  0  0  0  0  0  0  0
   14.6138   21.7004    0.5353 C   0  0  0  0  0  0  0  0  0  0  0  0
   13.2532   21.6366    1.2072 C   0  0  0  0  0  0  0  0  0  0  0  0
   12.2689   20.9438    0.2574 C   0  0  0  0  0  0  0  0  0  0  0  0
   12.8077   20.9708   -1.1399 C   0  0  0  0  0  0  0  0  0  0  0  0
   13.4190   22.3456   -1.4963 C   0  0  0  0  0  0  0  0  0  0  0  0
   16.5909   26.5884   -2.7220 C   0  0  0  0  0  0  0  0  0  0  0  0
   16.5992   25.5756   -1.7644 C   0  0  0  0  0  0  0  0  0  0  0  0
   15.5316   24.7322   -1.6515 C   0  0  0  0  0  0  0  0  0  0  0  0
   14.4590   24.9383   -2.5308 C   0  0  0  0  0  0  0  0  0  0  0  0
   14.4778   25.9450   -3.4658 C   0  0  0  0  0  0  0  0  0  0  0  0
   15.5493   26.7954   -3.5815 C   0  0  0  0  0  0  0  0  0  0  0  0
   18.1799   27.9272   -4.0298 C   0  0  0  0  0  0  0  0  0  0  0  0
   17.7038   27.4376   -2.8102 O   0  0  0  0  0  0  0  0  0  0  0  0
   13.3753   26.1092   -4.3246 O   0  0  0  0  0  0  0  0  0  0  0  0
   12.4192   27.0928   -4.0594 C   0  0  0  0  0  0  0  0  0  0  0  0
   15.5678   27.8252   -4.5378 O   0  0  0  0  0  0  0  0  0  0  0  0
   15.7027   27.5413   -5.9180 C   0  0  0  0  0  0  0  0  0  0  0  0
   10.9540   21.6252    0.3757 C   0  0  0  0  0  0  0  0  0  0  0  0
   10.4079   22.1330   -0.6440 O   0  0  0  0  0  0  0  0  0  0  0  0
   10.2688   21.7328    1.6120 N   0  0  0  0  0  0  0  0  0  0  0  0
   10.7247   21.3065    2.4748 H   0  0  0  0  0  0  0  0  0  0  0  0
    8.9990   22.3976    1.6916 C   0  0  0  0  0  0  0  0  0  0  0  0
    7.9974   21.8329    0.7793 C   0  0  0  0  0  0  0  0  0  0  0  0
    7.9817   20.4989    0.4154 O   0  0  0  0  0  0  0  0  0  0  0  0
    7.1137   22.5898    0.3054 O   0  0  0  0  0  0  0  0  0  0  0  0
    8.7432   19.8684    0.5171 H   0  0  0  0  0  0  0  0  0  0  0  0
    9.1436   23.9072    1.5742 C   0  0  0  0  0  0  0  0  0  0  0  0
    8.6583   24.6356    2.7554 C   0  0  0  0  0  0  0  0  0  0  0  0
    9.2114   24.2865    3.9786 C   0  0  0  0  0  0  0  0  0  0  0  0
    8.7891   24.9335    5.0963 C   0  0  0  0  0  0  0  0  0  0  0  0
    7.8276   25.9169    5.0017 C   0  0  0  0  0  0  0  0  0  0  0  0
    7.4023   26.5750    6.1618 O   0  0  0  0  0  0  0  0  0  0  0  0
    7.2820   26.2591    3.7836 C   0  0  0  0  0  0  0  0  0  0  0  0
    7.7101   25.5992    2.6284 C   0  0  0  0  0  0  0  0  0  0  0  0
    6.6083   26.1432    6.6397 H   0  0  0  0  0  0  0  0  0  0  0  0
 15 16  1  0  0  0
 16  9  1  0  0  0
  9 10  2  0  0  0
 10 11  1  0  0  0
 11 12  2  0  0  0
 12 13  1  0  0  0
 13 17  1  0  0  0
 17 18  1  0  0  0
 13 14  2  0  0  0
 14 19  1  0  0  0
 19 20  1  0  0  0
 11  1  1  0  0  0
  1  2  2  0  0  0
  1  3  1  0  0  0
  3  4  1  0  0  0
  4  5  1  0  0  0
  5  6  1  0  0  0
  6  7  1  0  0  0
  7  8  1  0  0  0
  6 21  1  0  0  0
 21 22  2  0  0  0
 21 23  1  0  0  0
 23 25  1  0  0  0
 25 30  1  0  0  0
 30 31  1  0  0  0
 31 32  2  0  0  0
 32 33  1  0  0  0
 33 34  2  0  0  0
 34 35  1  0  0  0
 34 36  1  0  0  0
 36 37  2  0  0  0
 25 26  1  0  0  0
 26 27  1  0  0  0
 26 28  2  0  0  0
 14  9  1  0  0  0
  8  3  1  0  0  0
 37 31  1  0  0  0
 23 24  1  0  0  0
 35 38  1  0  0  0
 27 29  1  0  0  0
M  END
> <minimizedAffinity>
-7.18725

> <CNNscore>
0.4269898832

> <CNNaffinity>
7.0072317123

> <CNN_VS>
2.9920170307

> <CNNaffinity_variance>
0.2057161778

$$$$
[H]OC(=O)[C@@]([H])(N([H])C(=O)C1([H])C([H])([H])C([H])([H])N(C(=O)c2c([H])c(OC([H])([H])[H])c(OC([H])([H])[H])c(OC([H])([H])[H])c2[H])C([H])([H])C1([H])[H])C([H])([H])c1c([H])c([H])c(O[H])c([H])c1[H]


 38 40  0  0  0  0  0  0  0  0999 V2000
   14.8963   24.0293   -0.8403 C   0  0  0  0  0  0  0  0  0  0  0  0
   15.5864   24.3176    0.2515 O   0  0  0  0  0  0  0  0  0  0  0  0
   14.1708   22.8471   -0.7482 N   0  0  0  0  0  0  0  0  0  0  0  0
   14.2470   22.0965    0.5411 C   0  0  0  0  0  0  0  0  0  0  0  0
   12.8161   21.8384    0.9795 C   0  0  0  0  0  0  0  0  0  0  0  0
   12.1733   20.8498   -0.0007 C   0  0  0  0  0  0  0  0  0  0  0  0
   12.9581   20.8170   -1.2760 C   0  0  0  0  0  0  0  0  0  0  0  0
   13.3713   22.2342   -1.7360 C   0  0  0  0  0  0  0  0  0  0  0  0
   14.2519   26.2618   -3.7663 C   0  0  0  0  0  0  0  0  0  0  0  0
   14.0016   25.3554   -2.7374 C   0  0  0  0  0  0  0  0  0  0  0  0
   15.0137   24.9647   -1.9087 C   0  0  0  0  0  0  0  0  0  0  0  0
   16.2818   25.5142   -2.1462 C   0  0  0  0  0  0  0  0  0  0  0  0
   16.4998   26.4064   -3.1682 C   0  0  0  0  0  0  0  0  0  0  0  0
   15.4845   26.8007   -4.0038 C   0  0  0  0  0  0  0  0  0  0  0  0
   12.2489   27.6052   -4.2258 C   0  0  0  0  0  0  0  0  0  0  0  0
   13.1892   26.6410   -4.5997 O   0  0  0  0  0  0  0  0  0  0  0  0
   17.7918   26.9285   -3.3638 O   0  0  0  0  0  0  0  0  0  0  0  0
   17.9712   28.2980   -3.5739 C   0  0  0  0  0  0  0  0  0  0  0  0
   15.7084   27.7130   -5.0493 O   0  0  0  0  0  0  0  0  0  0  0  0
   15.8331   27.2754   -6.3897 C   0  0  0  0  0  0  0  0  0  0  0  0
   10.7603   21.2580   -0.2100 C   0  0  0  0  0  0  0  0  0  0  0  0
   10.3260   21.4671   -1.3777 O   0  0  0  0  0  0  0  0  0  0  0  0
    9.8563   21.4269    0.8689 N   0  0  0  0  0  0  0  0  0  0  0  0
   10.2172   21.2520    1.8553 H   0  0  0  0  0  0  0  0  0  0  0  0
    8.4967   21.8219    0.6318 C   0  0  0  0  0  0  0  0  0  0  0  0
    8.0665   22.9379    1.4825 C   0  0  0  0  0  0  0  0  0  0  0  0
    8.6782   24.1779    1.4592 O   0  0  0  0  0  0  0  0  0  0  0  0
    7.1013   22.7648    2.2679 O   0  0  0  0  0  0  0  0  0  0  0  0
    9.5773   24.3661    1.0799 H   0  0  0  0  0  0  0  0  0  0  0  0
    7.5490   20.6325    0.6664 C   0  0  0  0  0  0  0  0  0  0  0  0
    6.6641   20.5546   -0.5050 C   0  0  0  0  0  0  0  0  0  0  0  0
    7.1363   19.8490   -1.6019 C   0  0  0  0  0  0  0  0  0  0  0  0
    6.3510   19.7545   -2.7066 C   0  0  0  0  0  0  0  0  0  0  0  0
    5.1097   20.3540   -2.7234 C   0  0  0  0  0  0  0  0  0  0  0  0
    4.3116   20.2481   -3.8686 O   0  0  0  0  0  0  0  0  0  0  0  0
    4.6464   21.0536   -1.6305 C   0  0  0  0  0  0  0  0  0  0  0  0
    5.4470   21.1562   -0.4896 C   0  0  0  0  0  0  0  0  0  0  0  0
    4.4428   20.9902   -4.5595 H   0  0  0  0  0  0  0  0  0  0  0  0
 15 16  1  0  0  0
 16  9  1  0  0  0
  9 10  2  0  0  0
 10 11  1  0  0  0
 11 12  2  0  0  0
 12 13  1  0  0  0
 13 17  1  0  0  0
 17 18  1  0  0  0
 13 14  2  0  0  0
 14 19  1  0  0  0
 19 20  1  0  0  0
 11  1  1  0  0  0
  1  2  2  0  0  0
  1  3  1  0  0  0
  3  4  1  0  0  0
  4  5  1  0  0  0
  5  6  1  0  0  0
  6  7  1  0  0  0
  7  8  1  0  0  0
  6 21  1  0  0  0
 21 22  2  0  0  0
 21 23  1  0  0  0
 23 25  1  0  0  0
 25 30  1  0  0  0
 30 31  1  0  0  0
 31 32  2  0  0  0
 32 33  1  0  0  0
 33 34  2  0  0  0
 34 35  1  0  0  0
 34 36  1  0  0  0
 36 37  2  0  0  0
 25 26  1  0  0  0
 26 27  1  0  0  0
 26 28  2  0  0  0
 14  9  1  0  0  0
  8  3  1  0  0  0
 37 31  1  0  0  0
 23 24  1  0  0  0
 35 38  1  0  0  0
 27 29  1  0  0  0
M  END
> <minimizedAffinity>
-7.90916

> <CNNscore>
0.3986738026

> <CNNaffinity>
6.9831399918

> <CNN_VS>
2.7839949131

> <CNNaffinity_variance>
0.1328126490

$$$$
[H]OC(=O)[C@@]([H])(N([H])C(=O)C1([H])C([H])([H])C([H])([H])N(C(=O)c2c([H])c(OC([H])([H])[H])c(OC([H])([H])[H])c(OC([H])([H])[H])c2[H])C([H])([H])C1([H])[H])C([H])([H])c1c([H])c([H])c(O[H])c([H])c1[H]


 38 40  0  0  0  0  0  0  0  0999 V2000
   15.1478   23.7339   -0.5946 C   0  0  0  0  0  0  0  0  0  0  0  0
   15.8089   23.9402    0.5331 O   0  0  0  0  0  0  0  0  0  0  0  0
   14.3429   22.6007   -0.5723 N   0  0  0  0  0  0  0  0  0  0  0  0
   14.3156   21.8060    0.6923 C   0  0  0  0  0  0  0  0  0  0  0  0
   12.8536   21.6306    1.0643 C   0  0  0  0  0  0  0  0  0  0  0  0
   12.1889   20.7191    0.0257 C   0  0  0  0  0  0  0  0  0  0  0  0
   13.0226   20.6744   -1.2177 C   0  0  0  0  0  0  0  0  0  0  0  0
   13.5470   22.0746   -1.6117 C   0  0  0  0  0  0  0  0  0  0  0  0
   16.6195   26.3083   -2.8677 C   0  0  0  0  0  0  0  0  0  0  0  0
   16.5358   25.3725   -1.8380 C   0  0  0  0  0  0  0  0  0  0  0  0
   15.3712   24.6929   -1.6244 C   0  0  0  0  0  0  0  0  0  0  0  0
   14.2968   24.9828   -2.4777 C   0  0  0  0  0  0  0  0  0  0  0  0
   14.4077   25.9104   -3.4852 C   0  0  0  0  0  0  0  0  0  0  0  0
   15.5770   26.5961   -3.7023 C   0  0  0  0  0  0  0  0  0  0  0  0
   17.8966   28.2531   -3.6516 C   0  0  0  0  0  0  0  0  0  0  0  0
   17.8310   26.9891   -3.0587 O   0  0  0  0  0  0  0  0  0  0  0  0
   13.2991   26.1643   -4.3139 O   0  0  0  0  0  0  0  0  0  0  0  0
   12.4380   27.2268   -4.0286 C   0  0  0  0  0  0  0  0  0  0  0  0
   15.6896   27.5452   -4.7328 O   0  0  0  0  0  0  0  0  0  0  0  0
   15.7320   27.1502   -6.0915 C   0  0  0  0  0  0  0  0  0  0  0  0
   10.8158   21.2277   -0.2252 C   0  0  0  0  0  0  0  0  0  0  0  0
   10.4356   21.4744   -1.4045 O   0  0  0  0  0  0  0  0  0  0  0  0
    9.8912   21.4533    0.8255 N   0  0  0  0  0  0  0  0  0  0  0  0
   10.2065   21.2469    1.8214 H   0  0  0  0  0  0  0  0  0  0  0  0
    8.5713   21.9450    0.5483 C   0  0  0  0  0  0  0  0  0  0  0  0
    8.2397   23.1576    1.3059 C   0  0  0  0  0  0  0  0  0  0  0  0
    7.1682   23.2282    2.1772 O   0  0  0  0  0  0  0  0  0  0  0  0
    8.9570   24.1787    1.1603 O   0  0  0  0  0  0  0  0  0  0  0  0
    6.4020   22.5953    2.1954 H   0  0  0  0  0  0  0  0  0  0  0  0
    7.5235   20.8489    0.6690 C   0  0  0  0  0  0  0  0  0  0  0  0
    6.7500   20.6399   -0.5635 C   0  0  0  0  0  0  0  0  0  0  0  0
    5.5150   21.2664   -0.6428 C   0  0  0  0  0  0  0  0  0  0  0  0
    4.7663   21.0975   -1.7640 C   0  0  0  0  0  0  0  0  0  0  0  0
    5.2378   20.3148   -2.7964 C   0  0  0  0  0  0  0  0  0  0  0  0
    4.4555   20.1500   -3.9454 O   0  0  0  0  0  0  0  0  0  0  0  0
    6.4654   19.6951   -2.7114 C   0  0  0  0  0  0  0  0  0  0  0  0
    7.2427   19.8630   -1.5621 C   0  0  0  0  0  0  0  0  0  0  0  0
    3.8115   19.3563   -3.9221 H   0  0  0  0  0  0  0  0  0  0  0  0
 15 16  1  0  0  0
 16  9  1  0  0  0
  9 10  2  0  0  0
 10 11  1  0  0  0
 11 12  2  0  0  0
 12 13  1  0  0  0
 13 17  1  0  0  0
 17 18  1  0  0  0
 13 14  2  0  0  0
 14 19  1  0  0  0
 19 20  1  0  0  0
 11  1  1  0  0  0
  1  2  2  0  0  0
  1  3  1  0  0  0
  3  4  1  0  0  0
  4  5  1  0  0  0
  5  6  1  0  0  0
  6  7  1  0  0  0
  7  8  1  0  0  0
  6 21  1  0  0  0
 21 22  2  0  0  0
 21 23  1  0  0  0
 23 25  1  0  0  0
 25 30  1  0  0  0
 30 31  1  0  0  0
 31 32  2  0  0  0
 32 33  1  0  0  0
 33 34  2  0  0  0
 34 35  1  0  0  0
 34 36  1  0  0  0
 36 37  2  0  0  0
 25 26  1  0  0  0
 26 27  1  0  0  0
 26 28  2  0  0  0
 14  9  1  0  0  0
  8  3  1  0  0  0
 37 31  1  0  0  0
 23 24  1  0  0  0
 35 38  1  0  0  0
 27 29  1  0  0  0
M  END
> <minimizedAffinity>
-8.59317

> <CNNscore>
0.3883759975

> <CNNaffinity>
7.0585503578

> <CNN_VS>
2.7413716316

> <CNNaffinity_variance>
0.1447091997

$$$$
[H]OC(=O)[C@@]([H])(N([H])C(=O)C1([H])C([H])([H])C([H])([H])N(C(=O)c2c([H])c(OC([H])([H])[H])c(OC([H])([H])[H])c(OC([H])([H])[H])c2[H])C([H])([H])C1([H])[H])C([H])([H])c1c([H])c([H])c(O[H])c([H])c1[H]


 38 40  0  0  0  0  0  0  0  0999 V2000
   13.2556   22.0321   -1.6278 C   0  0  0  0  0  0  0  0  0  0  0  0
   13.6024   20.8333   -2.0682 O   0  0  0  0  0  0  0  0  0  0  0  0
   11.9945   22.0710   -1.0442 N   0  0  0  0  0  0  0  0  0  0  0  0
   11.2337   20.7873   -0.9736 C   0  0  0  0  0  0  0  0  0  0  0  0
   10.8003   20.6175    0.4720 C   0  0  0  0  0  0  0  0  0  0  0  0
    9.7616   21.6960    0.8028 C   0  0  0  0  0  0  0  0  0  0  0  0
    9.8460   22.8060   -0.1992 C   0  0  0  0  0  0  0  0  0  0  0  0
   11.3106   23.1867   -0.5170 C   0  0  0  0  0  0  0  0  0  0  0  0
   15.5434   24.5980   -3.0917 C   0  0  0  0  0  0  0  0  0  0  0  0
   14.5635   23.6087   -3.0284 C   0  0  0  0  0  0  0  0  0  0  0  0
   14.2186   23.0636   -1.8252 C   0  0  0  0  0  0  0  0  0  0  0  0
   14.8878   23.5446   -0.6907 C   0  0  0  0  0  0  0  0  0  0  0  0
   15.8499   24.5212   -0.7826 C   0  0  0  0  0  0  0  0  0  0  0  0
   16.1997   25.0710   -1.9909 C   0  0  0  0  0  0  0  0  0  0  0  0
   14.9219   25.7160   -5.1873 C   0  0  0  0  0  0  0  0  0  0  0  0
   15.8740   25.1358   -4.3444 O   0  0  0  0  0  0  0  0  0  0  0  0
   16.4918   24.9691    0.3869 O   0  0  0  0  0  0  0  0  0  0  0  0
   17.4974   24.1980    0.9750 C   0  0  0  0  0  0  0  0  0  0  0  0
   17.1843   26.0696   -2.0842 O   0  0  0  0  0  0  0  0  0  0  0  0
   16.9477   27.2675   -2.8004 C   0  0  0  0  0  0  0  0  0  0  0  0
   10.0043   22.1615    2.1926 C   0  0  0  0  0  0  0  0  0  0  0  0
   11.1667   22.4972    2.5560 O   0  0  0  0  0  0  0  0  0  0  0  0
    8.9638   22.2478    3.1516 N   0  0  0  0  0  0  0  0  0  0  0  0
    7.9821   21.9660    2.8506 H   0  0  0  0  0  0  0  0  0  0  0  0
    9.2324   22.7024    4.4865 C   0  0  0  0  0  0  0  0  0  0  0  0
    9.7622   21.6460    5.3569 C   0  0  0  0  0  0  0  0  0  0  0  0
   11.1127   21.3674    5.4616 O   0  0  0  0  0  0  0  0  0  0  0  0
    8.9586   20.9620    6.0386 O   0  0  0  0  0  0  0  0  0  0  0  0
   11.8090   21.6555    4.8134 H   0  0  0  0  0  0  0  0  0  0  0  0
    8.0423   23.4390    5.0823 C   0  0  0  0  0  0  0  0  0  0  0  0
    7.9130   24.8241    4.6066 C   0  0  0  0  0  0  0  0  0  0  0  0
    6.6321   25.2711    4.3179 C   0  0  0  0  0  0  0  0  0  0  0  0
    6.4681   26.5445    3.8730 C   0  0  0  0  0  0  0  0  0  0  0  0
    7.5638   27.3663    3.7160 C   0  0  0  0  0  0  0  0  0  0  0  0
    7.3795   28.6758    3.2569 O   0  0  0  0  0  0  0  0  0  0  0  0
    8.8337   26.9162    4.0045 C   0  0  0  0  0  0  0  0  0  0  0  0
    9.0123   25.6080    4.4627 C   0  0  0  0  0  0  0  0  0  0  0  0
    7.4167   28.7893    2.2416 H   0  0  0  0  0  0  0  0  0  0  0  0
 15 16  1  0  0  0
 16  9  1  0  0  0
  9 10  2  0  0  0
 10 11  1  0  0  0
 11 12  2  0  0  0
 12 13  1  0  0  0
 13 17  1  0  0  0
 17 18  1  0  0  0
 13 14  2  0  0  0
 14 19  1  0  0  0
 19 20  1  0  0  0
 11  1  1  0  0  0
  1  2  2  0  0  0
  1  3  1  0  0  0
  3  4  1  0  0  0
  4  5  1  0  0  0
  5  6  1  0  0  0
  6  7  1  0  0  0
  7  8  1  0  0  0
  6 21  1  0  0  0
 21 22  2  0  0  0
 21 23  1  0  0  0
 23 25  1  0  0  0
 25 30  1  0  0  0
 30 31  1  0  0  0
 31 32  2  0  0  0
 32 33  1  0  0  0
 33 34  2  0  0  0
 34 35  1  0  0  0
 34 36  1  0  0  0
 36 37  2  0  0  0
 25 26  1  0  0  0
 26 27  1  0  0  0
 26 28  2  0  0  0
 14  9  1  0  0  0
  8  3  1  0  0  0
 37 31  1  0  0  0
 23 24  1  0  0  0
 35 38  1  0  0  0
 27 29  1  0  0  0
M  END
> <minimizedAffinity>
-7.87720

> <CNNscore>
0.3738864660

> <CNNaffinity>
6.9081716537

> <CNN_VS>
2.5828719139

> <CNNaffinity_variance>
0.3102213144

$$$$
[H]OC(=O)[C@@]([H])(N([H])C(=O)C1([H])C([H])([H])C([H])([H])N(C(=O)c2c([H])c(OC([H])([H])[H])c(OC([H])([H])[H])c(OC([H])([H])[H])c2[H])C([H])([H])C1([H])[H])C([H])([H])c1c([H])c([H])c(O[H])c([H])c1[H]


 38 40  0  0  0  0  0  0  0  0999 V2000
   12.9546   22.3142   -1.4940 C   0  0  0  0  0  0  0  0  0  0  0  0
   13.1207   21.1395   -2.0803 O   0  0  0  0  0  0  0  0  0  0  0  0
   11.7159   22.4636   -0.8808 N   0  0  0  0  0  0  0  0  0  0  0  0
   10.7770   21.3036   -0.9442 C   0  0  0  0  0  0  0  0  0  0  0  0
   10.3318   21.0258    0.4810 C   0  0  0  0  0  0  0  0  0  0  0  0
    9.4630   22.1948    0.9604 C   0  0  0  0  0  0  0  0  0  0  0  0
    9.7022   23.3932    0.0943 C   0  0  0  0  0  0  0  0  0  0  0  0
   11.2046   23.5948   -0.2102 C   0  0  0  0  0  0  0  0  0  0  0  0
   15.8533   24.5575   -0.7689 C   0  0  0  0  0  0  0  0  0  0  0  0
   14.8148   23.6549   -0.5455 C   0  0  0  0  0  0  0  0  0  0  0  0
   14.0562   23.2127   -1.5908 C   0  0  0  0  0  0  0  0  0  0  0  0
   14.3749   23.7049   -2.8645 C   0  0  0  0  0  0  0  0  0  0  0  0
   15.4047   24.5943   -3.0557 C   0  0  0  0  0  0  0  0  0  0  0  0
   16.1691   25.0415   -2.0067 C   0  0  0  0  0  0  0  0  0  0  0  0
   17.5873   24.1917    0.9302 C   0  0  0  0  0  0  0  0  0  0  0  0
   16.6124   24.9918    0.3279 O   0  0  0  0  0  0  0  0  0  0  0  0
   15.6834   25.0577   -4.3547 O   0  0  0  0  0  0  0  0  0  0  0  0
   14.7680   25.8779   -5.0190 C   0  0  0  0  0  0  0  0  0  0  0  0
   17.2220   25.9516   -2.2029 O   0  0  0  0  0  0  0  0  0  0  0  0
   16.9830   27.2498   -2.7142 C   0  0  0  0  0  0  0  0  0  0  0  0
    9.7789   22.4507    2.3894 C   0  0  0  0  0  0  0  0  0  0  0  0
   10.9808   22.4961    2.7758 O   0  0  0  0  0  0  0  0  0  0  0  0
    8.7666   22.6513    3.3613 N   0  0  0  0  0  0  0  0  0  0  0  0
    7.7518   22.6140    3.0410 H   0  0  0  0  0  0  0  0  0  0  0  0
    9.1063   22.8970    4.7343 C   0  0  0  0  0  0  0  0  0  0  0  0
    9.4770   21.6768    5.4610 C   0  0  0  0  0  0  0  0  0  0  0  0
   10.7846   21.2424    5.5796 O   0  0  0  0  0  0  0  0  0  0  0  0
    8.5714   20.9935    6.0006 O   0  0  0  0  0  0  0  0  0  0  0  0
   11.5419   21.5430    5.0105 H   0  0  0  0  0  0  0  0  0  0  0  0
    8.0420   23.7235    5.4400 C   0  0  0  0  0  0  0  0  0  0  0  0
    7.8013   25.0296    4.8096 C   0  0  0  0  0  0  0  0  0  0  0  0
    8.8803   25.8980    4.7340 C   0  0  0  0  0  0  0  0  0  0  0  0
    8.7005   27.1167    4.1609 C   0  0  0  0  0  0  0  0  0  0  0  0
    7.4628   27.4708    3.6678 C   0  0  0  0  0  0  0  0  0  0  0  0
    7.2925   28.7298    3.0800 O   0  0  0  0  0  0  0  0  0  0  0  0
    6.3949   26.6037    3.7460 C   0  0  0  0  0  0  0  0  0  0  0  0
    6.5702   25.3478    4.3337 C   0  0  0  0  0  0  0  0  0  0  0  0
    7.0127   29.4746    3.7220 H   0  0  0  0  0  0  0  0  0  0  0  0
 15 16  1  0  0  0
 16  9  1  0  0  0
  9 10  2  0  0  0
 10 11  1  0  0  0
 11 12  2  0  0  0
 12 13  1  0  0  0
 13 17  1  0  0  0
 17 18  1  0  0  0
 13 14  2  0  0  0
 14 19  1  0  0  0
 19 20  1  0  0  0
 11  1  1  0  0  0
  1  2  2  0  0  0
  1  3  1  0  0  0
  3  4  1  0  0  0
  4  5  1  0  0  0
  5  6  1  0  0  0
  6  7  1  0  0  0
  7  8  1  0  0  0
  6 21  1  0  0  0
 21 22  2  0  0  0
 21 23  1  0  0  0
 23 25  1  0  0  0
 25 30  1  0  0  0
 30 31  1  0  0  0
 31 32  2  0  0  0
 32 33  1  0  0  0
 33 34  2  0  0  0
 34 35  1  0  0  0
 34 36  1  0  0  0
 36 37  2  0  0  0
 25 26  1  0  0  0
 26 27  1  0  0  0
 26 28  2  0  0  0
 14  9  1  0  0  0
  8  3  1  0  0  0
 37 31  1  0  0  0
 23 24  1  0  0  0
 35 38  1  0  0  0
 27 29  1  0  0  0
M  END
> <minimizedAffinity>
-7.79952

> <CNNscore>
0.3555712700

> <CNNaffinity>
6.8909440041

> <CNN_VS>
2.4502217770

> <CNNaffinity_variance>
0.3259484172

$$$$
[H]OC(=O)[C@@]([H])(N([H])C(=O)C1([H])C([H])([H])C([H])([H])N(C(=O)c2c([H])c(OC([H])([H])[H])c(OC([H])([H])[H])c(OC([H])([H])[H])c2[H])C([H])([H])C1([H])[H])C([H])([H])c1c([H])c([H])c(O[H])c([H])c1[H]


 38 40  0  0  0  0  0  0  0  0999 V2000
    8.5829   22.5923    1.1592 C   0  0  0  0  0  0  0  0  0  0  0  0
    7.4574   22.5729    0.4633 O   0  0  0  0  0  0  0  0  0  0  0  0
    9.5759   21.7690    0.6407 N   0  0  0  0  0  0  0  0  0  0  0  0
    9.2558   21.0145   -0.6082 C   0  0  0  0  0  0  0  0  0  0  0  0
   10.3767   21.3046   -1.5910 C   0  0  0  0  0  0  0  0  0  0  0  0
   11.6650   20.6550   -1.0717 C   0  0  0  0  0  0  0  0  0  0  0  0
   11.5304   20.3592    0.3903 C   0  0  0  0  0  0  0  0  0  0  0  0
   10.8664   21.5265    1.1567 C   0  0  0  0  0  0  0  0  0  0  0  0
    8.8527   23.9808    4.6175 C   0  0  0  0  0  0  0  0  0  0  0  0
    8.9163   23.0596    3.5733 C   0  0  0  0  0  0  0  0  0  0  0  0
    8.5849   23.4396    2.3047 C   0  0  0  0  0  0  0  0  0  0  0  0
    8.1897   24.7722    2.1198 C   0  0  0  0  0  0  0  0  0  0  0  0
    8.1364   25.6593    3.1678 C   0  0  0  0  0  0  0  0  0  0  0  0
    8.4683   25.2803    4.4448 C   0  0  0  0  0  0  0  0  0  0  0  0
    9.6687   22.2670    6.1747 C   0  0  0  0  0  0  0  0  0  0  0  0
    9.1995   23.5565    5.9087 O   0  0  0  0  0  0  0  0  0  0  0  0
    7.7331   26.9860    2.9284 O   0  0  0  0  0  0  0  0  0  0  0  0
    6.3861   27.3406    3.0364 C   0  0  0  0  0  0  0  0  0  0  0  0
    8.4131   26.1880    5.5164 O   0  0  0  0  0  0  0  0  0  0  0  0
    7.1923   26.4717    6.1745 C   0  0  0  0  0  0  0  0  0  0  0  0
   12.7968   21.5707   -1.3674 C   0  0  0  0  0  0  0  0  0  0  0  0
   13.8251   21.1385   -1.9605 O   0  0  0  0  0  0  0  0  0  0  0  0
   12.7729   22.9410   -1.0049 N   0  0  0  0  0  0  0  0  0  0  0  0
   11.9085   23.3106   -0.5047 H   0  0  0  0  0  0  0  0  0  0  0  0
   13.8836   23.7991   -1.3060 C   0  0  0  0  0  0  0  0  0  0  0  0
   14.7786   24.0028   -0.1607 C   0  0  0  0  0  0  0  0  0  0  0  0
   15.8967   24.8147   -0.2175 O   0  0  0  0  0  0  0  0  0  0  0  0
   14.5228   23.4166    0.9206 O   0  0  0  0  0  0  0  0  0  0  0  0
   16.3361   25.1269   -1.0525 H   0  0  0  0  0  0  0  0  0  0  0  0
   13.4339   25.0955   -1.9624 C   0  0  0  0  0  0  0  0  0  0  0  0
   14.0620   25.3389   -3.2691 C   0  0  0  0  0  0  0  0  0  0  0  0
   13.6181   26.4425   -3.9826 C   0  0  0  0  0  0  0  0  0  0  0  0
   14.1706   26.7025   -5.1964 C   0  0  0  0  0  0  0  0  0  0  0  0
   15.1535   25.8760   -5.6977 C   0  0  0  0  0  0  0  0  0  0  0  0
   15.7135   26.1564   -6.9497 O   0  0  0  0  0  0  0  0  0  0  0  0
   15.5901   24.7812   -4.9841 C   0  0  0  0  0  0  0  0  0  0  0  0
   15.0278   24.5057   -3.7346 C   0  0  0  0  0  0  0  0  0  0  0  0
   15.2405   25.7207   -7.7444 H   0  0  0  0  0  0  0  0  0  0  0  0
 15 16  1  0  0  0
 16  9  1  0  0  0
  9 10  2  0  0  0
 10 11  1  0  0  0
 11 12  2  0  0  0
 12 13  1  0  0  0
 13 17  1  0  0  0
 17 18  1  0  0  0
 13 14  2  0  0  0
 14 19  1  0  0  0
 19 20  1  0  0  0
 11  1  1  0  0  0
  1  2  2  0  0  0
  1  3  1  0  0  0
  3  4  1  0  0  0
  4  5  1  0  0  0
  5  6  1  0  0  0
  6  7  1  0  0  0
  7  8  1  0  0  0
  6 21  1  0  0  0
 21 22  2  0  0  0
 21 23  1  0  0  0
 23 25  1  0  0  0
 25 30  1  0  0  0
 30 31  1  0  0  0
 31 32  2  0  0  0
 32 33  1  0  0  0
 33 34  2  0  0  0
 34 35  1  0  0  0
 34 36  1  0  0  0
 36 37  2  0  0  0
 25 26  1  0  0  0
 26 27  1  0  0  0
 26 28  2  0  0  0
 14  9  1  0  0  0
  8  3  1  0  0  0
 37 31  1  0  0  0
 23 24  1  0  0  0
 35 38  1  0  0  0
 27 29  1  0  0  0
M  END
> <minimizedAffinity>
-9.38276

> <CNNscore>
0.3002932668

> <CNNaffinity>
6.7659225464

> <CNN_VS>
2.0317609310

> <CNNaffinity_variance>
0.2836676836

$$$$
[H]OC(=O)[C@@]([H])(N([H])C(=O)C1([H])C([H])([H])C([H])([H])N(C(=O)c2c([H])c(OC([H])([H])[H])c(OC([H])([H])[H])c(OC([H])([H])[H])c2[H])C([H])([H])C1([H])[H])C([H])([H])c1c([H])c([H])c(O[H])c([H])c1[H]


 38 40  0  0  0  0  0  0  0  0999 V2000
   15.0135   23.9577   -0.8240 C   0  0  0  0  0  0  0  0  0  0  0  0
   15.6886   24.2747    0.2692 O   0  0  0  0  0  0  0  0  0  0  0  0
   14.3515   22.7383   -0.7392 N   0  0  0  0  0  0  0  0  0  0  0  0
   14.4687   21.9843    0.5451 C   0  0  0  0  0  0  0  0  0  0  0  0
   13.0538   21.6481    0.9827 C   0  0  0  0  0  0  0  0  0  0  0  0
   12.4630   20.6335   -0.0035 C   0  0  0  0  0  0  0  0  0  0  0  0
   13.2471   20.6506   -1.2795 C   0  0  0  0  0  0  0  0  0  0  0  0
   13.5845   22.0906   -1.7305 C   0  0  0  0  0  0  0  0  0  0  0  0
   14.2419   26.1915   -3.7180 C   0  0  0  0  0  0  0  0  0  0  0  0
   14.0407   25.2690   -2.6925 C   0  0  0  0  0  0  0  0  0  0  0  0
   15.0804   24.9050   -1.8861 C   0  0  0  0  0  0  0  0  0  0  0  0
   16.3251   25.4976   -2.1424 C   0  0  0  0  0  0  0  0  0  0  0  0
   16.4948   26.4046   -3.1605 C   0  0  0  0  0  0  0  0  0  0  0  0
   15.4516   26.7723   -3.9737 C   0  0  0  0  0  0  0  0  0  0  0  0
   12.2726   27.5772   -4.1970 C   0  0  0  0  0  0  0  0  0  0  0  0
   13.1519   26.5425   -4.5282 O   0  0  0  0  0  0  0  0  0  0  0  0
   17.7652   26.9703   -3.3755 O   0  0  0  0  0  0  0  0  0  0  0  0
   17.8913   28.3396   -3.6223 C   0  0  0  0  0  0  0  0  0  0  0  0
   15.6260   27.6998   -5.0152 O   0  0  0  0  0  0  0  0  0  0  0  0
   15.7774   27.2751   -6.3570 C   0  0  0  0  0  0  0  0  0  0  0  0
   11.0302   20.9680   -0.2091 C   0  0  0  0  0  0  0  0  0  0  0  0
   10.6478   21.4812   -1.2983 O   0  0  0  0  0  0  0  0  0  0  0  0
   10.0498   20.7305    0.7869 N   0  0  0  0  0  0  0  0  0  0  0  0
   10.3667   20.2980    1.7070 H   0  0  0  0  0  0  0  0  0  0  0  0
    8.6731   21.0651    0.5558 C   0  0  0  0  0  0  0  0  0  0  0  0
    8.0231   20.1802   -0.4182 C   0  0  0  0  0  0  0  0  0  0  0  0
    8.3132   18.8317   -0.5171 O   0  0  0  0  0  0  0  0  0  0  0  0
    7.1651   20.6633   -1.1985 O   0  0  0  0  0  0  0  0  0  0  0  0
    9.1218   18.3908   -0.1433 H   0  0  0  0  0  0  0  0  0  0  0  0
    8.4958   22.5435    0.2448 C   0  0  0  0  0  0  0  0  0  0  0  0
    8.7105   23.4164    1.4081 C   0  0  0  0  0  0  0  0  0  0  0  0
    7.7779   23.3379    2.4318 C   0  0  0  0  0  0  0  0  0  0  0  0
    7.9374   24.1295    3.5245 C   0  0  0  0  0  0  0  0  0  0  0  0
    9.0113   24.9906    3.6011 C   0  0  0  0  0  0  0  0  0  0  0  0
    9.1627   25.8002    4.7331 O   0  0  0  0  0  0  0  0  0  0  0  0
    9.9342   25.0640    2.5807 C   0  0  0  0  0  0  0  0  0  0  0  0
    9.7785   24.2536    1.4528 C   0  0  0  0  0  0  0  0  0  0  0  0
    8.7073   26.7138    4.6776 H   0  0  0  0  0  0  0  0  0  0  0  0
 15 16  1  0  0  0
 16  9  1  0  0  0
  9 10  2  0  0  0
 10 11  1  0  0  0
 11 12  2  0  0  0
 12 13  1  0  0  0
 13 17  1  0  0  0
 17 18  1  0  0  0
 13 14  2  0  0  0
 14 19  1  0  0  0
 19 20  1  0  0  0
 11  1  1  0  0  0
  1  2  2  0  0  0
  1  3  1  0  0  0
  3  4  1  0  0  0
  4  5  1  0  0  0
  5  6  1  0  0  0
  6  7  1  0  0  0
  7  8  1  0  0  0
  6 21  1  0  0  0
 21 22  2  0  0  0
 21 23  1  0  0  0
 23 25  1  0  0  0
 25 30  1  0  0  0
 30 31  1  0  0  0
 31 32  2  0  0  0
 32 33  1  0  0  0
 33 34  2  0  0  0
 34 35  1  0  0  0
 34 36  1  0  0  0
 36 37  2  0  0  0
 25 26  1  0  0  0
 26 27  1  0  0  0
 26 28  2  0  0  0
 14  9  1  0  0  0
  8  3  1  0  0  0
 37 31  1  0  0  0
 23 24  1  0  0  0
 35 38  1  0  0  0
 27 29  1  0  0  0
M  END
> <minimizedAffinity>
-7.49439

> <CNNscore>
0.2600066066

> <CNNaffinity>
7.0252447128

> <CNN_VS>
1.8266100883

> <CNNaffinity_variance>
0.1901487410

$$$$
[H]OC(=O)c1c([H])c(S(=O)(=O)c2c([H])c([H])c([H])c([H])c2[H])c([H])c2c([H])c(O[H])c(O[H])c([H])c12


 27 29  0  0  0  0  0  0  0  0999 V2000
   14.3068   24.0581   -0.4925 C   0  0  0  0  0  0  0  0  0  0  0  0
   14.6805   24.6202   -1.7279 C   0  0  0  0  0  0  0  0  0  0  0  0
   13.7550   25.0646   -2.6344 C   0  0  0  0  0  0  0  0  0  0  0  0
   12.4214   24.9683   -2.3505 C   0  0  0  0  0  0  0  0  0  0  0  0
   11.9875   24.4228   -1.1499 C   0  0  0  0  0  0  0  0  0  0  0  0
   10.6390   24.3190   -0.8750 C   0  0  0  0  0  0  0  0  0  0  0  0
   10.2142   23.7585    0.3283 C   0  0  0  0  0  0  0  0  0  0  0  0
    8.8654   23.6468    0.6205 O   0  0  0  0  0  0  0  0  0  0  0  0
   11.1708   23.3226    1.2106 C   0  0  0  0  0  0  0  0  0  0  0  0
   10.8312   22.7500    2.4343 O   0  0  0  0  0  0  0  0  0  0  0  0
   12.5487   23.4209    0.9468 C   0  0  0  0  0  0  0  0  0  0  0  0
   12.9599   23.9767   -0.2431 C   0  0  0  0  0  0  0  0  0  0  0  0
    8.5230   23.2528    1.4681 H   0  0  0  0  0  0  0  0  0  0  0  0
    9.8933   22.6147    2.7585 H   0  0  0  0  0  0  0  0  0  0  0  0
   15.4034   22.3779    0.9700 O   0  0  0  0  0  0  0  0  0  0  0  0
   15.3801   23.6706    0.3833 C   0  0  0  0  0  0  0  0  0  0  0  0
   16.3314   24.3803    0.6960 O   0  0  0  0  0  0  0  0  0  0  0  0
   16.0112   21.6953    0.5015 H   0  0  0  0  0  0  0  0  0  0  0  0
   14.3205   25.7411   -4.1271 S   0  0  0  0  0  0  0  0  0  0  0  0
   13.2216   26.6247   -4.6754 O   0  0  0  0  0  0  0  0  0  0  0  0
   14.5845   24.6350   -5.1085 O   0  0  0  0  0  0  0  0  0  0  0  0
   15.7613   26.7108   -3.9082 C   0  0  0  0  0  0  0  0  0  0  0  0
   16.6003   26.5224   -2.8345 C   0  0  0  0  0  0  0  0  0  0  0  0
   17.7406   27.2949   -2.6676 C   0  0  0  0  0  0  0  0  0  0  0  0
   18.0777   28.2814   -3.5709 C   0  0  0  0  0  0  0  0  0  0  0  0
   17.2406   28.4754   -4.6498 C   0  0  0  0  0  0  0  0  0  0  0  0
   16.0953   27.6980   -4.8155 C   0  0  0  0  0  0  0  0  0  0  0  0
 15 16  1  0  0  0
 16 17  2  0  0  0
 16  1  1  0  0  0
  1  2  2  0  0  0
  2  3  1  0  0  0
  3  4  2  0  0  0
  4  5  1  0  0  0
  5  6  2  0  0  0
  6  7  1  0  0  0
  7  8  1  0  0  0
  7  9  2  0  0  0
  9 10  1  0  0  0
  9 11  1  0  0  0
 11 12  2  0  0  0
  3 19  1  0  0  0
 19 20  2  0  0  0
 19 21  2  0  0  0
 19 22  1  0  0  0
 22 23  2  0  0  0
 23 24  1  0  0  0
 24 25  2  0  0  0
 25 26  1  0  0  0
 26 27  2  0  0  0
 12  1  1  0  0  0
 27 22  1  0  0  0
 12  5  1  0  0  0
 15 18  1  0  0  0
  8 13  1  0  0  0
 10 14  1  0  0  0
M  END
> <minimizedAffinity>
-7.37977

> <CNNscore>
0.5937387347

> <CNNaffinity>
6.2984628677

> <CNN_VS>
3.7396414280

> <CNNaffinity_variance>
0.1096703261

$$$$
[H]OC(=O)c1c([H])c(S(=O)(=O)c2c([H])c([H])c([H])c([H])c2[H])c([H])c2c([H])c(O[H])c(O[H])c([H])c12


 27 29  0  0  0  0  0  0  0  0999 V2000
   13.1093   26.4261   -3.3786 C   0  0  0  0  0  0  0  0  0  0  0  0
   12.7161   25.9134   -2.1279 C   0  0  0  0  0  0  0  0  0  0  0  0
   13.2449   24.7582   -1.6166 C   0  0  0  0  0  0  0  0  0  0  0  0
   14.1852   24.0656   -2.3269 C   0  0  0  0  0  0  0  0  0  0  0  0
   14.6149   24.5178   -3.5672 C   0  0  0  0  0  0  0  0  0  0  0  0
   15.5567   23.8073   -4.2834 C   0  0  0  0  0  0  0  0  0  0  0  0
   15.9720   24.2637   -5.5331 C   0  0  0  0  0  0  0  0  0  0  0  0
   16.9161   23.5637   -6.2650 O   0  0  0  0  0  0  0  0  0  0  0  0
   15.4181   25.4240   -6.0132 C   0  0  0  0  0  0  0  0  0  0  0  0
   15.7774   25.9483   -7.2529 O   0  0  0  0  0  0  0  0  0  0  0  0
   14.4577   26.1605   -5.2969 C   0  0  0  0  0  0  0  0  0  0  0  0
   14.0540   25.7035   -4.0631 C   0  0  0  0  0  0  0  0  0  0  0  0
   17.2379   23.8571   -7.1602 H   0  0  0  0  0  0  0  0  0  0  0  0
   16.4465   25.5351   -7.8731 H   0  0  0  0  0  0  0  0  0  0  0  0
   11.4029   27.6836   -4.6716 O   0  0  0  0  0  0  0  0  0  0  0  0
   12.5057   27.6695   -3.7774 C   0  0  0  0  0  0  0  0  0  0  0  0
   12.8644   28.7830   -3.4062 O   0  0  0  0  0  0  0  0  0  0  0  0
   10.4817   27.7856   -4.2291 H   0  0  0  0  0  0  0  0  0  0  0  0
   12.6922   24.2128   -0.0665 S   0  0  0  0  0  0  0  0  0  0  0  0
   11.7698   25.2747    0.4910 O   0  0  0  0  0  0  0  0  0  0  0  0
   13.8667   24.0610    0.8575 O   0  0  0  0  0  0  0  0  0  0  0  0
   11.8093   22.7051   -0.1738 C   0  0  0  0  0  0  0  0  0  0  0  0
   10.9385   22.4522   -1.2081 C   0  0  0  0  0  0  0  0  0  0  0  0
   10.2421   21.2547   -1.2864 C   0  0  0  0  0  0  0  0  0  0  0  0
   10.3955   20.2714   -0.3311 C   0  0  0  0  0  0  0  0  0  0  0  0
   11.2673   20.5188    0.7086 C   0  0  0  0  0  0  0  0  0  0  0  0
   11.9659   21.7228    0.7854 C   0  0  0  0  0  0  0  0  0  0  0  0
 15 16  1  0  0  0
 16 17  2  0  0  0
 16  1  1  0  0  0
  1  2  2  0  0  0
  2  3  1  0  0  0
  3  4  2  0  0  0
  4  5  1  0  0  0
  5  6  2  0  0  0
  6  7  1  0  0  0
  7  8  1  0  0  0
  7  9  2  0  0  0
  9 10  1  0  0  0
  9 11  1  0  0  0
 11 12  2  0  0  0
  3 19  1  0  0  0
 19 20  2  0  0  0
 19 21  2  0  0  0
 19 22  1  0  0  0
 22 23  2  0  0  0
 23 24  1  0  0  0
 24 25  2  0  0  0
 25 26  1  0  0  0
 26 27  2  0  0  0
 12  1  1  0  0  0
 27 22  1  0  0  0
 12  5  1  0  0  0
 15 18  1  0  0  0
  8 13  1  0  0  0
 10 14  1  0  0  0
M  END
> <minimizedAffinity>
-2.19982

> <CNNscore>
0.5747165680

> <CNNaffinity>
6.4071946144

> <CNN_VS>
3.6823208332

> <CNNaffinity_variance>
0.6177843809

$$$$
[H]OC(=O)c1c([H])c(S(=O)(=O)c2c([H])c([H])c([H])c([H])c2[H])c([H])c2c([H])c(O[H])c(O[H])c([H])c12


 27 29  0  0  0  0  0  0  0  0999 V2000
   12.3737   23.8375   -1.4431 C   0  0  0  0  0  0  0  0  0  0  0  0
   12.7756   24.8775   -2.3026 C   0  0  0  0  0  0  0  0  0  0  0  0
   14.0785   25.2920   -2.3831 C   0  0  0  0  0  0  0  0  0  0  0  0
   15.0344   24.6906   -1.6131 C   0  0  0  0  0  0  0  0  0  0  0  0
   14.7027   23.6596   -0.7444 C   0  0  0  0  0  0  0  0  0  0  0  0
   15.6716   23.0646    0.0379 C   0  0  0  0  0  0  0  0  0  0  0  0
   15.3256   22.0386    0.9155 C   0  0  0  0  0  0  0  0  0  0  0  0
   16.2847   21.4303    1.7075 O   0  0  0  0  0  0  0  0  0  0  0  0
   14.0099   21.6520    0.9698 C   0  0  0  0  0  0  0  0  0  0  0  0
   13.5802   20.6355    1.8201 O   0  0  0  0  0  0  0  0  0  0  0  0
   13.0100   22.2471    0.1799 C   0  0  0  0  0  0  0  0  0  0  0  0
   13.3603   23.2587   -0.6850 C   0  0  0  0  0  0  0  0  0  0  0  0
   16.0772   20.6952    2.3458 H   0  0  0  0  0  0  0  0  0  0  0  0
   14.1765   20.1219    2.4395 H   0  0  0  0  0  0  0  0  0  0  0  0
   10.5696   22.2719   -2.1204 O   0  0  0  0  0  0  0  0  0  0  0  0
   10.9826   23.4740   -1.4877 C   0  0  0  0  0  0  0  0  0  0  0  0
   10.0623   24.1313   -1.0107 O   0  0  0  0  0  0  0  0  0  0  0  0
   10.3915   21.4829   -1.4875 H   0  0  0  0  0  0  0  0  0  0  0  0
   14.4684   26.5817   -3.4742 S   0  0  0  0  0  0  0  0  0  0  0  0
   15.6104   27.3665   -2.8667 O   0  0  0  0  0  0  0  0  0  0  0  0
   13.2812   27.4907   -3.6176 O   0  0  0  0  0  0  0  0  0  0  0  0
   14.9687   25.9897   -5.0436 C   0  0  0  0  0  0  0  0  0  0  0  0
   15.0279   26.8175   -6.1406 C   0  0  0  0  0  0  0  0  0  0  0  0
   15.4255   26.3411   -7.3815 C   0  0  0  0  0  0  0  0  0  0  0  0
   15.7768   25.0197   -7.5640 C   0  0  0  0  0  0  0  0  0  0  0  0
   15.7196   24.1843   -6.4680 C   0  0  0  0  0  0  0  0  0  0  0  0
   15.3198   24.6652   -5.2221 C   0  0  0  0  0  0  0  0  0  0  0  0
 15 16  1  0  0  0
 16 17  2  0  0  0
 16  1  1  0  0  0
  1  2  2  0  0  0
  2  3  1  0  0  0
  3  4  2  0  0  0
  4  5  1  0  0  0
  5  6  2  0  0  0
  6  7  1  0  0  0
  7  8  1  0  0  0
  7  9  2  0  0  0
  9 10  1  0  0  0
  9 11  1  0  0  0
 11 12  2  0  0  0
  3 19  1  0  0  0
 19 20  2  0  0  0
 19 21  2  0  0  0
 19 22  1  0  0  0
 22 23  2  0  0  0
 23 24  1  0  0  0
 24 25  2  0  0  0
 25 26  1  0  0  0
 26 27  2  0  0  0
 12  1  1  0  0  0
 27 22  1  0  0  0
 12  5  1  0  0  0
 15 18  1  0  0  0
  8 13  1  0  0  0
 10 14  1  0  0  0
M  END
> <minimizedAffinity>
-5.20097

> <CNNscore>
0.5522509217

> <CNNaffinity>
6.3052730560

> <CNN_VS>
3.4820928574

> <CNNaffinity_variance>
0.2954508066

$$$$
[H]OC(=O)c1c([H])c(S(=O)(=O)c2c([H])c([H])c([H])c([H])c2[H])c([H])c2c([H])c(O[H])c(O[H])c([H])c12


 27 29  0  0  0  0  0  0  0  0999 V2000
   12.3122   24.0477   -0.8600 C   0  0  0  0  0  0  0  0  0  0  0  0
   12.7069   24.7921   -1.9877 C   0  0  0  0  0  0  0  0  0  0  0  0
   13.8563   24.5126   -2.6780 C   0  0  0  0  0  0  0  0  0  0  0  0
   14.6600   23.4827   -2.2757 C   0  0  0  0  0  0  0  0  0  0  0  0
   14.3274   22.7110   -1.1706 C   0  0  0  0  0  0  0  0  0  0  0  0
   15.1495   21.6796   -0.7640 C   0  0  0  0  0  0  0  0  0  0  0  0
   14.8122   20.9190    0.3541 C   0  0  0  0  0  0  0  0  0  0  0  0
   15.6253   19.8805    0.7758 O   0  0  0  0  0  0  0  0  0  0  0  0
   13.6539   21.2304    1.0210 C   0  0  0  0  0  0  0  0  0  0  0  0
   13.2447   20.5204    2.1477 O   0  0  0  0  0  0  0  0  0  0  0  0
   12.8047   22.2774    0.6206 C   0  0  0  0  0  0  0  0  0  0  0  0
   13.1443   23.0228   -0.4853 C   0  0  0  0  0  0  0  0  0  0  0  0
   15.4187   19.3151    1.5686 H   0  0  0  0  0  0  0  0  0  0  0  0
   13.7455   19.7513    2.5486 H   0  0  0  0  0  0  0  0  0  0  0  0
    9.8302   23.9970   -0.8188 O   0  0  0  0  0  0  0  0  0  0  0  0
   11.0620   24.4209   -0.2541 C   0  0  0  0  0  0  0  0  0  0  0  0
   10.9407   25.1073    0.7561 O   0  0  0  0  0  0  0  0  0  0  0  0
    9.3999   23.1806   -0.3680 H   0  0  0  0  0  0  0  0  0  0  0  0
   14.2513   25.4904   -4.0539 S   0  0  0  0  0  0  0  0  0  0  0  0
   13.0707   26.3965   -4.3266 O   0  0  0  0  0  0  0  0  0  0  0  0
   14.4670   24.6068   -5.2493 O   0  0  0  0  0  0  0  0  0  0  0  0
   15.6655   26.4832   -3.7738 C   0  0  0  0  0  0  0  0  0  0  0  0
   16.0151   27.4982   -4.6339 C   0  0  0  0  0  0  0  0  0  0  0  0
   17.1376   28.2810   -4.4053 C   0  0  0  0  0  0  0  0  0  0  0  0
   17.9465   28.0726   -3.3074 C   0  0  0  0  0  0  0  0  0  0  0  0
   17.6013   27.0564   -2.4411 C   0  0  0  0  0  0  0  0  0  0  0  0
   16.4731   26.2711   -2.6728 C   0  0  0  0  0  0  0  0  0  0  0  0
 15 16  1  0  0  0
 16 17  2  0  0  0
 16  1  1  0  0  0
  1  2  2  0  0  0
  2  3  1  0  0  0
  3  4  2  0  0  0
  4  5  1  0  0  0
  5  6  2  0  0  0
  6  7  1  0  0  0
  7  8  1  0  0  0
  7  9  2  0  0  0
  9 10  1  0  0  0
  9 11  1  0  0  0
 11 12  2  0  0  0
  3 19  1  0  0  0
 19 20  2  0  0  0
 19 21  2  0  0  0
 19 22  1  0  0  0
 22 23  2  0  0  0
 23 24  1  0  0  0
 24 25  2  0  0  0
 25 26  1  0  0  0
 26 27  2  0  0  0
 12  1  1  0  0  0
 27 22  1  0  0  0
 12  5  1  0  0  0
 15 18  1  0  0  0
  8 13  1  0  0  0
 10 14  1  0  0  0
M  END
> <minimizedAffinity>
-6.47286

> <CNNscore>
0.5229766369

> <CNNaffinity>
6.3037328720

> <CNN_VS>
3.2967050076

> <CNNaffinity_variance>
0.2941868305

$$$$
[H]OC(=O)c1c([H])c(S(=O)(=O)c2c([H])c([H])c([H])c([H])c2[H])c([H])c2c([H])c(O[H])c(O[H])c([H])c12


 27 29  0  0  0  0  0  0  0  0999 V2000
   13.7052   23.2002   -2.0893 C   0  0  0  0  0  0  0  0  0  0  0  0
   13.9807   24.2687   -2.9635 C   0  0  0  0  0  0  0  0  0  0  0  0
   13.3995   25.4996   -2.8133 C   0  0  0  0  0  0  0  0  0  0  0  0
   12.5212   25.7188   -1.7891 C   0  0  0  0  0  0  0  0  0  0  0  0
   12.2065   24.7060   -0.8932 C   0  0  0  0  0  0  0  0  0  0  0  0
   11.3104   24.9318    0.1319 C   0  0  0  0  0  0  0  0  0  0  0  0
   10.9924   23.9044    1.0184 C   0  0  0  0  0  0  0  0  0  0  0  0
   10.0958   24.1134    2.0526 O   0  0  0  0  0  0  0  0  0  0  0  0
   11.5933   22.6843    0.8347 C   0  0  0  0  0  0  0  0  0  0  0  0
   11.3302   21.6049    1.6753 O   0  0  0  0  0  0  0  0  0  0  0  0
   12.5086   22.4369   -0.2040 C   0  0  0  0  0  0  0  0  0  0  0  0
   12.8181   23.4571   -1.0743 C   0  0  0  0  0  0  0  0  0  0  0  0
    9.8434   23.4056    2.7055 H   0  0  0  0  0  0  0  0  0  0  0  0
   10.7026   21.6310    2.4553 H   0  0  0  0  0  0  0  0  0  0  0  0
   13.8142   20.7200   -2.0497 O   0  0  0  0  0  0  0  0  0  0  0  0
   14.4156   21.9739   -2.3360 C   0  0  0  0  0  0  0  0  0  0  0  0
   15.5520   21.8924   -2.7927 O   0  0  0  0  0  0  0  0  0  0  0  0
   13.4080   20.2344   -2.8585 H   0  0  0  0  0  0  0  0  0  0  0  0
   13.8070   26.7484   -3.9448 S   0  0  0  0  0  0  0  0  0  0  0  0
   12.9660   27.9612   -3.6115 O   0  0  0  0  0  0  0  0  0  0  0  0
   13.4668   26.2930   -5.3352 O   0  0  0  0  0  0  0  0  0  0  0  0
   15.4966   27.1966   -3.8526 C   0  0  0  0  0  0  0  0  0  0  0  0
   16.0894   27.9743   -4.8200 C   0  0  0  0  0  0  0  0  0  0  0  0
   17.4293   28.3255   -4.7402 C   0  0  0  0  0  0  0  0  0  0  0  0
   18.2190   27.9093   -3.6885 C   0  0  0  0  0  0  0  0  0  0  0  0
   17.6305   27.1293   -2.7151 C   0  0  0  0  0  0  0  0  0  0  0  0
   16.2841   26.7774   -2.7974 C   0  0  0  0  0  0  0  0  0  0  0  0
 15 16  1  0  0  0
 16 17  2  0  0  0
 16  1  1  0  0  0
  1  2  2  0  0  0
  2  3  1  0  0  0
  3  4  2  0  0  0
  4  5  1  0  0  0
  5  6  2  0  0  0
  6  7  1  0  0  0
  7  8  1  0  0  0
  7  9  2  0  0  0
  9 10  1  0  0  0
  9 11  1  0  0  0
 11 12  2  0  0  0
  3 19  1  0  0  0
 19 20  2  0  0  0
 19 21  2  0  0  0
 19 22  1  0  0  0
 22 23  2  0  0  0
 23 24  1  0  0  0
 24 25  2  0  0  0
 25 26  1  0  0  0
 26 27  2  0  0  0
 12  1  1  0  0  0
 27 22  1  0  0  0
 12  5  1  0  0  0
 15 18  1  0  0  0
  8 13  1  0  0  0
 10 14  1  0  0  0
M  END
> <minimizedAffinity>
-5.90894

> <CNNscore>
0.4839981496

> <CNNaffinity>
5.9835023880

> <CNN_VS>
2.8960042000

> <CNNaffinity_variance>
0.2060270309

$$$$
[H]OC(=O)c1c([H])c(S(=O)(=O)c2c([H])c([H])c([H])c([H])c2[H])c([H])c2c([H])c(O[H])c(O[H])c([H])c12


 27 29  0  0  0  0  0  0  0  0999 V2000
   13.5993   25.6091   -3.0276 C   0  0  0  0  0  0  0  0  0  0  0  0
   13.5996   24.5041   -2.1553 C   0  0  0  0  0  0  0  0  0  0  0  0
   14.2945   23.3574   -2.4342 C   0  0  0  0  0  0  0  0  0  0  0  0
   15.0169   23.2619   -3.5907 C   0  0  0  0  0  0  0  0  0  0  0  0
   15.0568   24.3160   -4.4933 C   0  0  0  0  0  0  0  0  0  0  0  0
   15.7796   24.2080   -5.6641 C   0  0  0  0  0  0  0  0  0  0  0  0
   15.8028   25.2678   -6.5690 C   0  0  0  0  0  0  0  0  0  0  0  0
   16.5230   25.1767   -7.7481 O   0  0  0  0  0  0  0  0  0  0  0  0
   15.0926   26.3996   -6.2558 C   0  0  0  0  0  0  0  0  0  0  0  0
   15.0627   27.5034   -7.1053 O   0  0  0  0  0  0  0  0  0  0  0  0
   14.3511   26.5267   -5.0676 C   0  0  0  0  0  0  0  0  0  0  0  0
   14.3344   25.4761   -4.1788 C   0  0  0  0  0  0  0  0  0  0  0  0
   16.5641   25.9112   -8.4188 H   0  0  0  0  0  0  0  0  0  0  0  0
   15.5409   27.5585   -7.9835 H   0  0  0  0  0  0  0  0  0  0  0  0
   12.5815   27.8247   -3.4960 O   0  0  0  0  0  0  0  0  0  0  0  0
   12.8618   26.7652   -2.5934 C   0  0  0  0  0  0  0  0  0  0  0  0
   12.4253   26.9433   -1.4601 O   0  0  0  0  0  0  0  0  0  0  0  0
   11.6390   27.8147   -3.9039 H   0  0  0  0  0  0  0  0  0  0  0  0
   14.2289   22.0543   -1.2927 S   0  0  0  0  0  0  0  0  0  0  0  0
   14.9693   22.4963   -0.0494 O   0  0  0  0  0  0  0  0  0  0  0  0
   14.9241   20.8525   -1.8661 O   0  0  0  0  0  0  0  0  0  0  0  0
   12.5851   21.6470   -0.8499 C   0  0  0  0  0  0  0  0  0  0  0  0
   11.5855   22.5919   -0.8437 C   0  0  0  0  0  0  0  0  0  0  0  0
   10.2848   22.2616   -0.4916 C   0  0  0  0  0  0  0  0  0  0  0  0
    9.9430   20.9738   -0.1342 C   0  0  0  0  0  0  0  0  0  0  0  0
   10.9407   20.0216   -0.1385 C   0  0  0  0  0  0  0  0  0  0  0  0
   12.2470   20.3557   -0.4926 C   0  0  0  0  0  0  0  0  0  0  0  0
 15 16  1  0  0  0
 16 17  2  0  0  0
 16  1  1  0  0  0
  1  2  2  0  0  0
  2  3  1  0  0  0
  3  4  2  0  0  0
  4  5  1  0  0  0
  5  6  2  0  0  0
  6  7  1  0  0  0
  7  8  1  0  0  0
  7  9  2  0  0  0
  9 10  1  0  0  0
  9 11  1  0  0  0
 11 12  2  0  0  0
  3 19  1  0  0  0
 19 20  2  0  0  0
 19 21  2  0  0  0
 19 22  1  0  0  0
 22 23  2  0  0  0
 23 24  1  0  0  0
 24 25  2  0  0  0
 25 26  1  0  0  0
 26 27  2  0  0  0
 12  1  1  0  0  0
 27 22  1  0  0  0
 12  5  1  0  0  0
 15 18  1  0  0  0
  8 13  1  0  0  0
 10 14  1  0  0  0
M  END
> <minimizedAffinity>
-3.11827

> <CNNscore>
0.4793257117

> <CNNaffinity>
6.0805072784

> <CNN_VS>
2.9145433903

> <CNNaffinity_variance>
0.4680842459

$$$$
[H]OC(=O)c1c([H])c(S(=O)(=O)c2c([H])c([H])c([H])c([H])c2[H])c([H])c2c([H])c(O[H])c(O[H])c([H])c12


 27 29  0  0  0  0  0  0  0  0999 V2000
   14.3673   22.0951   -2.1603 C   0  0  0  0  0  0  0  0  0  0  0  0
   15.1840   23.1862   -2.5128 C   0  0  0  0  0  0  0  0  0  0  0  0
   15.2496   24.3219   -1.7502 C   0  0  0  0  0  0  0  0  0  0  0  0
   14.5066   24.4196   -0.6071 C   0  0  0  0  0  0  0  0  0  0  0  0
   13.6805   23.3789   -0.2048 C   0  0  0  0  0  0  0  0  0  0  0  0
   12.9249   23.4893    0.9449 C   0  0  0  0  0  0  0  0  0  0  0  0
   12.0896   22.4433    1.3330 C   0  0  0  0  0  0  0  0  0  0  0  0
   11.3250   22.5370    2.4836 O   0  0  0  0  0  0  0  0  0  0  0  0
   12.0490   21.3223    0.5423 C   0  0  0  0  0  0  0  0  0  0  0  0
   11.2406   20.2327    0.8583 O   0  0  0  0  0  0  0  0  0  0  0  0
   12.8121   21.1929   -0.6319 C   0  0  0  0  0  0  0  0  0  0  0  0
   13.6354   22.2299   -1.0075 C   0  0  0  0  0  0  0  0  0  0  0  0
   10.7171   21.8123    2.7936 H   0  0  0  0  0  0  0  0  0  0  0  0
   10.6438   20.1808    1.6609 H   0  0  0  0  0  0  0  0  0  0  0  0
   15.3459   20.9036   -4.1065 O   0  0  0  0  0  0  0  0  0  0  0  0
   14.4245   20.9485   -3.0271 C   0  0  0  0  0  0  0  0  0  0  0  0
   13.7199   19.9484   -2.9275 O   0  0  0  0  0  0  0  0  0  0  0  0
   16.2045   20.3692   -3.9272 H   0  0  0  0  0  0  0  0  0  0  0  0
   16.2874   25.6084   -2.2731 S   0  0  0  0  0  0  0  0  0  0  0  0
   17.6867   25.0467   -2.3978 O   0  0  0  0  0  0  0  0  0  0  0  0
   16.2950   26.6963   -1.2373 O   0  0  0  0  0  0  0  0  0  0  0  0
   15.8042   26.2563   -3.8258 C   0  0  0  0  0  0  0  0  0  0  0  0
   15.8595   25.4976   -4.9718 C   0  0  0  0  0  0  0  0  0  0  0  0
   15.4748   26.0180   -6.1991 C   0  0  0  0  0  0  0  0  0  0  0  0
   15.0220   27.3156   -6.3183 C   0  0  0  0  0  0  0  0  0  0  0  0
   14.9641   28.0817   -5.1728 C   0  0  0  0  0  0  0  0  0  0  0  0
   15.3512   27.5567   -3.9407 C   0  0  0  0  0  0  0  0  0  0  0  0
 15 16  1  0  0  0
 16 17  2  0  0  0
 16  1  1  0  0  0
  1  2  2  0  0  0
  2  3  1  0  0  0
  3  4  2  0  0  0
  4  5  1  0  0  0
  5  6  2  0  0  0
  6  7  1  0  0  0
  7  8  1  0  0  0
  7  9  2  0  0  0
  9 10  1  0  0  0
  9 11  1  0  0  0
 11 12  2  0  0  0
  3 19  1  0  0  0
 19 20  2  0  0  0
 19 21  2  0  0  0
 19 22  1  0  0  0
 22 23  2  0  0  0
 23 24  1  0  0  0
 24 25  2  0  0  0
 25 26  1  0  0  0
 26 27  2  0  0  0
 12  1  1  0  0  0
 27 22  1  0  0  0
 12  5  1  0  0  0
 15 18  1  0  0  0
  8 13  1  0  0  0
 10 14  1  0  0  0
M  END
> <minimizedAffinity>
-0.12505

> <CNNscore>
0.4776982963

> <CNNaffinity>
6.2176623344

> <CNN_VS>
2.9701666832

> <CNNaffinity_variance>
0.4169341028

$$$$
[H]OC(=O)c1c([H])c(S(=O)(=O)c2c([H])c([H])c([H])c([H])c2[H])c([H])c2c([H])c(O[H])c(O[H])c([H])c12


 27 29  0  0  0  0  0  0  0  0999 V2000
   13.7245   25.8607   -2.9025 C   0  0  0  0  0  0  0  0  0  0  0  0
   13.6286   24.8362   -1.9418 C   0  0  0  0  0  0  0  0  0  0  0  0
   14.7226   24.3739   -1.2598 C   0  0  0  0  0  0  0  0  0  0  0  0
   15.9557   24.9103   -1.5047 C   0  0  0  0  0  0  0  0  0  0  0  0
   16.1177   25.9227   -2.4408 C   0  0  0  0  0  0  0  0  0  0  0  0
   17.3677   26.4517   -2.6905 C   0  0  0  0  0  0  0  0  0  0  0  0
   17.5208   27.4593   -3.6412 C   0  0  0  0  0  0  0  0  0  0  0  0
   18.7674   28.0017   -3.9040 O   0  0  0  0  0  0  0  0  0  0  0  0
   16.4019   27.8952   -4.3056 C   0  0  0  0  0  0  0  0  0  0  0  0
   16.4678   28.8976   -5.2708 O   0  0  0  0  0  0  0  0  0  0  0  0
   15.1209   27.3676   -4.0636 C   0  0  0  0  0  0  0  0  0  0  0  0
   14.9781   26.3737   -3.1224 C   0  0  0  0  0  0  0  0  0  0  0  0
   18.9172   28.7217   -4.5748 H   0  0  0  0  0  0  0  0  0  0  0  0
   17.3086   29.3657   -5.5485 H   0  0  0  0  0  0  0  0  0  0  0  0
   12.4948   27.2324   -4.5671 O   0  0  0  0  0  0  0  0  0  0  0  0
   12.4919   26.2799   -3.5142 C   0  0  0  0  0  0  0  0  0  0  0  0
   11.3740   25.8795   -3.2034 O   0  0  0  0  0  0  0  0  0  0  0  0
   12.4197   26.8394   -5.5131 H   0  0  0  0  0  0  0  0  0  0  0  0
   14.4959   23.1086   -0.0965 S   0  0  0  0  0  0  0  0  0  0  0  0
   15.5430   23.2841    0.9815 O   0  0  0  0  0  0  0  0  0  0  0  0
   14.7050   21.7772   -0.7596 O   0  0  0  0  0  0  0  0  0  0  0  0
   12.9121   23.1712    0.6464 C   0  0  0  0  0  0  0  0  0  0  0  0
   12.3689   22.0766    1.2780 C   0  0  0  0  0  0  0  0  0  0  0  0
   11.1129   22.1337    1.8646 C   0  0  0  0  0  0  0  0  0  0  0  0
   10.3601   23.2893    1.8377 C   0  0  0  0  0  0  0  0  0  0  0  0
   10.8991   24.3905    1.2059 C   0  0  0  0  0  0  0  0  0  0  0  0
   12.1614   24.3309    0.6171 C   0  0  0  0  0  0  0  0  0  0  0  0
 15 16  1  0  0  0
 16 17  2  0  0  0
 16  1  1  0  0  0
  1  2  2  0  0  0
  2  3  1  0  0  0
  3  4  2  0  0  0
  4  5  1  0  0  0
  5  6  2  0  0  0
  6  7  1  0  0  0
  7  8  1  0  0  0
  7  9  2  0  0  0
  9 10  1  0  0  0
  9 11  1  0  0  0
 11 12  2  0  0  0
  3 19  1  0  0  0
 19 20  2  0  0  0
 19 21  2  0  0  0
 19 22  1  0  0  0
 22 23  2  0  0  0
 23 24  1  0  0  0
 24 25  2  0  0  0
 25 26  1  0  0  0
 26 27  2  0  0  0
 12  1  1  0  0  0
 27 22  1  0  0  0
 12  5  1  0  0  0
 15 18  1  0  0  0
  8 13  1  0  0  0
 10 14  1  0  0  0
M  END
> <minimizedAffinity>
-6.07403

> <CNNscore>
0.4685159326

> <CNNaffinity>
6.2020859718

> <CNN_VS>
2.9057760239

> <CNNaffinity_variance>
0.1799340695

$$$$
[H]OC(=O)c1c([H])c(S(=O)(=O)c2c([H])c([H])c([H])c([H])c2[H])c([H])c2c([H])c(O[H])c(O[H])c([H])c12


 27 29  0  0  0  0  0  0  0  0999 V2000
   14.5103   23.4158   -2.9570 C   0  0  0  0  0  0  0  0  0  0  0  0
   13.9698   23.5763   -1.6671 C   0  0  0  0  0  0  0  0  0  0  0  0
   13.6226   24.8050   -1.1716 C   0  0  0  0  0  0  0  0  0  0  0  0
   13.7986   25.9236   -1.9372 C   0  0  0  0  0  0  0  0  0  0  0  0
   14.3279   25.8331   -3.2175 C   0  0  0  0  0  0  0  0  0  0  0  0
   14.5127   26.9683   -3.9804 C   0  0  0  0  0  0  0  0  0  0  0  0
   15.0562   26.8672   -5.2598 C   0  0  0  0  0  0  0  0  0  0  0  0
   15.2482   27.9956   -6.0389 O   0  0  0  0  0  0  0  0  0  0  0  0
   15.3936   25.6194   -5.7210 C   0  0  0  0  0  0  0  0  0  0  0  0
   15.9426   25.4310   -6.9875 O   0  0  0  0  0  0  0  0  0  0  0  0
   15.2119   24.4525   -4.9574 C   0  0  0  0  0  0  0  0  0  0  0  0
   14.6735   24.5608   -3.6955 C   0  0  0  0  0  0  0  0  0  0  0  0
   15.6332   27.9644   -6.9564 H   0  0  0  0  0  0  0  0  0  0  0  0
   16.1292   26.1659   -7.6418 H   0  0  0  0  0  0  0  0  0  0  0  0
   14.6875   20.9929   -2.4446 O   0  0  0  0  0  0  0  0  0  0  0  0
   14.7917   22.0663   -3.3680 C   0  0  0  0  0  0  0  0  0  0  0  0
   15.1333   21.7255   -4.4966 O   0  0  0  0  0  0  0  0  0  0  0  0
   13.8160   20.4522   -2.4983 H   0  0  0  0  0  0  0  0  0  0  0  0
   12.9646   24.8933    0.4299 S   0  0  0  0  0  0  0  0  0  0  0  0
   13.0021   26.3429    0.8616 O   0  0  0  0  0  0  0  0  0  0  0  0
   13.8202   24.0890    1.3665 O   0  0  0  0  0  0  0  0  0  0  0  0
   11.3074   24.3331    0.4942 C   0  0  0  0  0  0  0  0  0  0  0  0
   10.7060   23.7366   -0.5896 C   0  0  0  0  0  0  0  0  0  0  0  0
    9.3920   23.2951   -0.5312 C   0  0  0  0  0  0  0  0  0  0  0  0
    8.6376   23.4367    0.6149 C   0  0  0  0  0  0  0  0  0  0  0  0
    9.2348   24.0340    1.7053 C   0  0  0  0  0  0  0  0  0  0  0  0
   10.5552   24.4770    1.6443 C   0  0  0  0  0  0  0  0  0  0  0  0
 15 16  1  0  0  0
 16 17  2  0  0  0
 16  1  1  0  0  0
  1  2  2  0  0  0
  2  3  1  0  0  0
  3  4  2  0  0  0
  4  5  1  0  0  0
  5  6  2  0  0  0
  6  7  1  0  0  0
  7  8  1  0  0  0
  7  9  2  0  0  0
  9 10  1  0  0  0
  9 11  1  0  0  0
 11 12  2  0  0  0
  3 19  1  0  0  0
 19 20  2  0  0  0
 19 21  2  0  0  0
 19 22  1  0  0  0
 22 23  2  0  0  0
 23 24  1  0  0  0
 24 25  2  0  0  0
 25 26  1  0  0  0
 26 27  2  0  0  0
 12  1  1  0  0  0
 27 22  1  0  0  0
 12  5  1  0  0  0
 15 18  1  0  0  0
  8 13  1  0  0  0
 10 14  1  0  0  0
M  END
> <minimizedAffinity>
-6.42603

> <CNNscore>
0.4600485563

> <CNNaffinity>
6.1217551231

> <CNN_VS>
2.8163046837

> <CNNaffinity_variance>
0.0609866008

$$$$
[H]OC(=O)C([H])([H])C([H])([H])[C@@]([H])(C(=O)N([H])[C@]([H])(C(=O)N([H])[C@]([H])(C(=O)N([H])[C@]([H])(C(=O)N([H])[C@]([H])(C(=O)N([H])[C@]([H])(C(=O)N([H])[H])C([H])([H])c1c([H])c([H])c([H])c([H])c1[H])C([H])([H])C([H])([H])C(=O)N([H])[H])C([H])([H])C([H])([H])C(=O)N([H])[H])C([H])([H])C([H])(C([H])([H])[H])C([H])([H])[H])C([H])([H])C([H])([H])C(=O)N([H])[H])N([H])[H]


 72 72  0  0  0  0  0  0  0  0999 V2000
    5.0711   21.1304   -0.7679 C   0  0  0  0  0  0  0  0  0  0  0  0
    4.3533   20.6134    0.3615 C   0  0  0  0  0  0  0  0  0  0  0  0
    3.3377   21.2683    0.7945 O   0  0  0  0  0  0  0  0  0  0  0  0
    4.6431   19.4204    1.0718 N   0  0  0  0  0  0  0  0  0  0  0  0
    5.4369   18.8496    0.7657 H   0  0  0  0  0  0  0  0  0  0  0  0
    3.8739   18.9472    2.2259 C   0  0  0  0  0  0  0  0  0  0  0  0
    4.8331   18.7695    3.3296 C   0  0  0  0  0  0  0  0  0  0  0  0
    6.0598   18.6704    2.9370 O   0  0  0  0  0  0  0  0  0  0  0  0
    4.5906   18.6990    4.6951 N   0  0  0  0  0  0  0  0  0  0  0  0
    3.6478   18.7887    5.0873 H   0  0  0  0  0  0  0  0  0  0  0  0
    5.7242   18.5042    5.6138 C   0  0  0  0  0  0  0  0  0  0  0  0
    5.6603   17.2467    6.3431 C   0  0  0  0  0  0  0  0  0  0  0  0
    5.4768   15.9471    5.8480 N   0  0  0  0  0  0  0  0  0  0  0  0
    5.7909   17.2850    7.6464 O   0  0  0  0  0  0  0  0  0  0  0  0
    6.1770   15.1757    5.9574 H   0  0  0  0  0  0  0  0  0  0  0  0
    4.5951   15.6877    5.3262 H   0  0  0  0  0  0  0  0  0  0  0  0
    5.9439   19.7683    6.3673 C   0  0  0  0  0  0  0  0  0  0  0  0
    7.2586   20.4051    6.2445 C   0  0  0  0  0  0  0  0  0  0  0  0
    7.3263   21.6807    5.7198 C   0  0  0  0  0  0  0  0  0  0  0  0
    8.5325   22.3278    5.6214 C   0  0  0  0  0  0  0  0  0  0  0  0
    9.7057   21.7026    6.0512 C   0  0  0  0  0  0  0  0  0  0  0  0
    9.6395   20.4180    6.5797 C   0  0  0  0  0  0  0  0  0  0  0  0
    8.4151   19.8064    6.6608 C   0  0  0  0  0  0  0  0  0  0  0  0
    3.2175   17.6223    1.8394 C   0  0  0  0  0  0  0  0  0  0  0  0
    3.9602   16.8787    0.7865 C   0  0  0  0  0  0  0  0  0  0  0  0
    4.7302   15.7136    1.2531 C   0  0  0  0  0  0  0  0  0  0  0  0
    4.0580   14.5454    1.7258 N   0  0  0  0  0  0  0  0  0  0  0  0
    5.9746   15.7151    1.2514 O   0  0  0  0  0  0  0  0  0  0  0  0
    3.1090   14.3579    1.3325 H   0  0  0  0  0  0  0  0  0  0  0  0
    4.4398   13.8769    2.4195 H   0  0  0  0  0  0  0  0  0  0  0  0
    7.4128   21.3256    0.1852 C   0  0  0  0  0  0  0  0  0  0  0  0
    7.4988   20.0564    0.3654 O   0  0  0  0  0  0  0  0  0  0  0  0
    6.2298   21.8872   -0.3689 N   0  0  0  0  0  0  0  0  0  0  0  0
    6.1979   22.9181   -0.4895 H   0  0  0  0  0  0  0  0  0  0  0  0
    8.5892   22.1126    0.5813 C   0  0  0  0  0  0  0  0  0  0  0  0
    9.6804   22.0065   -0.3214 N   0  0  0  0  0  0  0  0  0  0  0  0
   11.0445   21.8018   -0.0757 C   0  0  0  0  0  0  0  0  0  0  0  0
   11.4973   21.6909    1.0731 O   0  0  0  0  0  0  0  0  0  0  0  0
    9.3998   22.1002   -1.3699 H   0  0  0  0  0  0  0  0  0  0  0  0
   11.9998   21.7151   -1.2120 C   0  0  0  0  0  0  0  0  0  0  0  0
   12.8135   22.8965   -1.3078 N   0  0  0  0  0  0  0  0  0  0  0  0
   12.2257   24.1732   -1.4650 C   0  0  0  0  0  0  0  0  0  0  0  0
   10.9720   24.3069   -1.5212 O   0  0  0  0  0  0  0  0  0  0  0  0
   13.8447   22.8126   -1.2608 H   0  0  0  0  0  0  0  0  0  0  0  0
   13.0499   25.3842   -1.5689 C   0  0  0  0  0  0  0  0  0  0  0  0
   14.3795   25.1204   -1.0960 N   0  0  0  0  0  0  0  0  0  0  0  0
   14.8121   24.3434   -1.6104 H   0  0  0  0  0  0  0  0  0  0  0  0
   14.3611   24.8893   -0.0741 H   0  0  0  0  0  0  0  0  0  0  0  0
   13.0892   25.8684   -3.0121 C   0  0  0  0  0  0  0  0  0  0  0  0
   14.2813   25.2859   -3.7499 C   0  0  0  0  0  0  0  0  0  0  0  0
   14.6219   26.1552   -4.8854 C   0  0  0  0  0  0  0  0  0  0  0  0
   15.3334   25.6681   -5.9839 O   0  0  0  0  0  0  0  0  0  0  0  0
   14.2761   27.3690   -4.8882 O   0  0  0  0  0  0  0  0  0  0  0  0
   14.8593   25.3864   -6.8279 H   0  0  0  0  0  0  0  0  0  0  0  0
   12.8218   20.4389   -1.1851 C   0  0  0  0  0  0  0  0  0  0  0  0
   14.2659   20.8375   -0.9877 C   0  0  0  0  0  0  0  0  0  0  0  0
   14.5982   21.2664    0.3754 C   0  0  0  0  0  0  0  0  0  0  0  0
   14.3413   20.4345    1.4736 N   0  0  0  0  0  0  0  0  0  0  0  0
   15.1206   22.3929    0.5698 O   0  0  0  0  0  0  0  0  0  0  0  0
   13.3493   20.3790    1.8052 H   0  0  0  0  0  0  0  0  0  0  0  0
   15.0249   19.8647    2.0008 H   0  0  0  0  0  0  0  0  0  0  0  0
    8.1928   23.4791    1.0342 C   0  0  0  0  0  0  0  0  0  0  0  0
    7.8306   24.9539    2.9607 C   0  0  0  0  0  0  0  0  0  0  0  0
    8.8056   23.9527    2.3143 C   0  0  0  0  0  0  0  0  0  0  0  0
   10.0953   24.7235    2.0350 C   0  0  0  0  0  0  0  0  0  0  0  0
    5.3475   20.2536   -1.9441 C   0  0  0  0  0  0  0  0  0  0  0  0
    4.5223   20.4478   -3.1550 C   0  0  0  0  0  0  0  0  0  0  0  0
    3.4072   21.3623   -3.1748 C   0  0  0  0  0  0  0  0  0  0  0  0
    2.0910   20.7706   -2.9552 N   0  0  0  0  0  0  0  0  0  0  0  0
    3.3934   22.6030   -3.3542 O   0  0  0  0  0  0  0  0  0  0  0  0
    1.4633   20.5353   -3.7281 H   0  0  0  0  0  0  0  0  0  0  0  0
    1.8218   20.5985   -1.9750 H   0  0  0  0  0  0  0  0  0  0  0  0
 63 64  1  0  0  0
 64 65  1  0  0  0
 64 62  1  0  0  0
 62 35  1  0  0  0
 35 36  1  0  0  0
 36 37  1  0  0  0
 37 38  2  0  0  0
 37 40  1  0  0  0
 40 55  1  0  0  0
 55 56  1  0  0  0
 56 57  1  0  0  0
 57 58  1  0  0  0
 57 59  2  0  0  0
 40 41  1  0  0  0
 41 42  1  0  0  0
 42 43  2  0  0  0
 42 45  1  0  0  0
 45 46  1  0  0  0
 45 49  1  0  0  0
 49 50  1  0  0  0
 50 51  1  0  0  0
 51 52  1  0  0  0
 51 53  2  0  0  0
 35 31  1  0  0  0
 31 32  2  0  0  0
 31 33  1  0  0  0
 33  1  1  0  0  0
  1 66  1  0  0  0
 66 67  1  0  0  0
 67 68  1  0  0  0
 68 69  1  0  0  0
 68 70  2  0  0  0
  1  2  1  0  0  0
  2  3  2  0  0  0
  2  4  1  0  0  0
  4  6  1  0  0  0
  6 24  1  0  0  0
 24 25  1  0  0  0
 25 26  1  0  0  0
 26 27  1  0  0  0
 26 28  2  0  0  0
  6  7  1  0  0  0
  7  8  2  0  0  0
  7  9  1  0  0  0
  9 11  1  0  0  0
 11 17  1  0  0  0
 17 18  1  0  0  0
 18 19  2  0  0  0
 19 20  1  0  0  0
 20 21  2  0  0  0
 21 22  1  0  0  0
 22 23  2  0  0  0
 11 12  1  0  0  0
 12 13  1  0  0  0
 12 14  2  0  0  0
 23 18  1  0  0  0
 36 39  1  0  0  0
 58 60  1  0  0  0
 58 61  1  0  0  0
 41 44  1  0  0  0
 46 47  1  0  0  0
 46 48  1  0  0  0
 52 54  1  0  0  0
 33 34  1  0  0  0
 69 71  1  0  0  0
 69 72  1  0  0  0
  4  5  1  0  0  0
 27 29  1  0  0  0
 27 30  1  0  0  0
  9 10  1  0  0  0
 13 15  1  0  0  0
 13 16  1  0  0  0
M  END
> <minimizedAffinity>
-7.95981

> <CNNscore>
0.3355072439

> <CNNaffinity>
7.7088346481

> <CNN_VS>
2.5863697529

> <CNNaffinity_variance>
0.6905035377

$$$$
[H]OC(=O)C([H])([H])C([H])([H])[C@@]([H])(C(=O)N([H])[C@]([H])(C(=O)N([H])[C@]([H])(C(=O)N([H])[C@]([H])(C(=O)N([H])[C@]([H])(C(=O)N([H])[C@]([H])(C(=O)N([H])[H])C([H])([H])c1c([H])c([H])c([H])c([H])c1[H])C([H])([H])C([H])([H])C(=O)N([H])[H])C([H])([H])C([H])([H])C(=O)N([H])[H])C([H])([H])C([H])(C([H])([H])[H])C([H])([H])[H])C([H])([H])C([H])([H])C(=O)N([H])[H])N([H])[H]


 72 72  0  0  0  0  0  0  0  0999 V2000
    9.7771   21.0340   -0.9185 C   0  0  0  0  0  0  0  0  0  0  0  0
    8.4299   20.5568   -0.7945 C   0  0  0  0  0  0  0  0  0  0  0  0
    8.1852   19.3298   -1.0817 O   0  0  0  0  0  0  0  0  0  0  0  0
    7.3039   21.3082   -0.3710 N   0  0  0  0  0  0  0  0  0  0  0  0
    7.4393   22.2918   -0.1182 H   0  0  0  0  0  0  0  0  0  0  0  0
    5.9470   20.7639   -0.2709 C   0  0  0  0  0  0  0  0  0  0  0  0
    5.9427   19.8478    0.8826 C   0  0  0  0  0  0  0  0  0  0  0  0
    6.7306   20.2162    1.8378 O   0  0  0  0  0  0  0  0  0  0  0  0
    5.2194   18.6765    1.0655 N   0  0  0  0  0  0  0  0  0  0  0  0
    4.5588   18.3277    0.3635 H   0  0  0  0  0  0  0  0  0  0  0  0
    5.3932   17.9160    2.3139 C   0  0  0  0  0  0  0  0  0  0  0  0
    5.4757   16.4789    2.1018 C   0  0  0  0  0  0  0  0  0  0  0  0
    5.7007   15.7736    0.9102 N   0  0  0  0  0  0  0  0  0  0  0  0
    5.3287   15.6950    3.1415 O   0  0  0  0  0  0  0  0  0  0  0  0
    6.5233   15.1452    0.7495 H   0  0  0  0  0  0  0  0  0  0  0  0
    5.0264   15.8529    0.1004 H   0  0  0  0  0  0  0  0  0  0  0  0
    4.4395   18.4454    3.3259 C   0  0  0  0  0  0  0  0  0  0  0  0
    4.9636   18.7153    4.6681 C   0  0  0  0  0  0  0  0  0  0  0  0
    4.0657   18.9077    5.6995 C   0  0  0  0  0  0  0  0  0  0  0  0
    4.5135   19.1263    6.9781 C   0  0  0  0  0  0  0  0  0  0  0  0
    5.8836   19.1565    7.2503 C   0  0  0  0  0  0  0  0  0  0  0  0
    6.7892   18.9630    6.2129 C   0  0  0  0  0  0  0  0  0  0  0  0
    6.3010   18.7475    4.9500 C   0  0  0  0  0  0  0  0  0  0  0  0
    5.6428   20.0225   -1.5722 C   0  0  0  0  0  0  0  0  0  0  0  0
    4.6648   20.7299   -2.4419 C   0  0  0  0  0  0  0  0  0  0  0  0
    3.4302   19.9877   -2.7461 C   0  0  0  0  0  0  0  0  0  0  0  0
    2.1646   20.6493   -2.7214 N   0  0  0  0  0  0  0  0  0  0  0  0
    3.4540   18.7757   -3.0274 O   0  0  0  0  0  0  0  0  0  0  0  0
    2.1650   21.6721   -2.9316 H   0  0  0  0  0  0  0  0  0  0  0  0
    1.2569   20.1934   -2.5159 H   0  0  0  0  0  0  0  0  0  0  0  0
   10.2849   22.9359    0.6798 C   0  0  0  0  0  0  0  0  0  0  0  0
   10.5758   22.1239    1.6321 O   0  0  0  0  0  0  0  0  0  0  0  0
    9.8857   22.4317   -0.5884 N   0  0  0  0  0  0  0  0  0  0  0  0
    9.6507   23.1220   -1.3278 H   0  0  0  0  0  0  0  0  0  0  0  0
   10.3966   24.3665    0.9978 C   0  0  0  0  0  0  0  0  0  0  0  0
    9.7423   24.7389    2.2021 N   0  0  0  0  0  0  0  0  0  0  0  0
    8.4545   24.4387    2.6652 C   0  0  0  0  0  0  0  0  0  0  0  0
    7.6595   23.7553    2.0035 O   0  0  0  0  0  0  0  0  0  0  0  0
   10.3487   25.3562    2.8640 H   0  0  0  0  0  0  0  0  0  0  0  0
    8.0027   24.9472    3.9874 C   0  0  0  0  0  0  0  0  0  0  0  0
    8.8512   24.4800    5.0499 N   0  0  0  0  0  0  0  0  0  0  0  0
    8.4954   23.3483    5.8199 C   0  0  0  0  0  0  0  0  0  0  0  0
    7.4259   22.7186    5.5906 O   0  0  0  0  0  0  0  0  0  0  0  0
    9.7357   24.9781    5.2548 H   0  0  0  0  0  0  0  0  0  0  0  0
    9.3539   22.8677    6.9101 C   0  0  0  0  0  0  0  0  0  0  0  0
    8.7789   23.2091    8.1805 N   0  0  0  0  0  0  0  0  0  0  0  0
    7.8285   22.8302    8.2747 H   0  0  0  0  0  0  0  0  0  0  0  0
    8.7479   24.2502    8.2959 H   0  0  0  0  0  0  0  0  0  0  0  0
    9.5410   21.3603    6.8033 C   0  0  0  0  0  0  0  0  0  0  0  0
   10.6928   21.0186    5.8754 C   0  0  0  0  0  0  0  0  0  0  0  0
   10.3000   19.9014    5.0044 C   0  0  0  0  0  0  0  0  0  0  0  0
   10.7906   18.6108    5.2142 O   0  0  0  0  0  0  0  0  0  0  0  0
    9.5064   20.0895    4.0413 O   0  0  0  0  0  0  0  0  0  0  0  0
   10.2469   17.9215    5.7099 H   0  0  0  0  0  0  0  0  0  0  0  0
    7.8243   26.4550    4.0011 C   0  0  0  0  0  0  0  0  0  0  0  0
    6.7975   26.7772    5.0619 C   0  0  0  0  0  0  0  0  0  0  0  0
    5.5313   27.3060    4.5429 C   0  0  0  0  0  0  0  0  0  0  0  0
    4.7639   28.2036    5.2976 N   0  0  0  0  0  0  0  0  0  0  0  0
    5.1221   26.9551    3.4075 O   0  0  0  0  0  0  0  0  0  0  0  0
    4.1969   27.8013    6.0810 H   0  0  0  0  0  0  0  0  0  0  0  0
    4.6905   29.2273    5.1682 H   0  0  0  0  0  0  0  0  0  0  0  0
   11.7910   24.8561    0.7849 C   0  0  0  0  0  0  0  0  0  0  0  0
   14.0072   24.3425   -0.1329 C   0  0  0  0  0  0  0  0  0  0  0  0
   12.4957   24.3323   -0.4265 C   0  0  0  0  0  0  0  0  0  0  0  0
   12.2795   25.2678   -1.6154 C   0  0  0  0  0  0  0  0  0  0  0  0
   10.9085   20.2336   -0.3637 C   0  0  0  0  0  0  0  0  0  0  0  0
   12.2497   20.4415   -0.9495 C   0  0  0  0  0  0  0  0  0  0  0  0
   13.4058   20.6983   -0.1264 C   0  0  0  0  0  0  0  0  0  0  0  0
   13.1431   20.9311    1.2905 N   0  0  0  0  0  0  0  0  0  0  0  0
   14.6173   20.7535   -0.4439 O   0  0  0  0  0  0  0  0  0  0  0  0
   13.0846   21.8727    1.6865 H   0  0  0  0  0  0  0  0  0  0  0  0
   13.0171   20.0938    1.8786 H   0  0  0  0  0  0  0  0  0  0  0  0
 63 64  1  0  0  0
 64 65  1  0  0  0
 64 62  1  0  0  0
 62 35  1  0  0  0
 35 36  1  0  0  0
 36 37  1  0  0  0
 37 38  2  0  0  0
 37 40  1  0  0  0
 40 55  1  0  0  0
 55 56  1  0  0  0
 56 57  1  0  0  0
 57 58  1  0  0  0
 57 59  2  0  0  0
 40 41  1  0  0  0
 41 42  1  0  0  0
 42 43  2  0  0  0
 42 45  1  0  0  0
 45 46  1  0  0  0
 45 49  1  0  0  0
 49 50  1  0  0  0
 50 51  1  0  0  0
 51 52  1  0  0  0
 51 53  2  0  0  0
 35 31  1  0  0  0
 31 32  2  0  0  0
 31 33  1  0  0  0
 33  1  1  0  0  0
  1 66  1  0  0  0
 66 67  1  0  0  0
 67 68  1  0  0  0
 68 69  1  0  0  0
 68 70  2  0  0  0
  1  2  1  0  0  0
  2  3  2  0  0  0
  2  4  1  0  0  0
  4  6  1  0  0  0
  6 24  1  0  0  0
 24 25  1  0  0  0
 25 26  1  0  0  0
 26 27  1  0  0  0
 26 28  2  0  0  0
  6  7  1  0  0  0
  7  8  2  0  0  0
  7  9  1  0  0  0
  9 11  1  0  0  0
 11 17  1  0  0  0
 17 18  1  0  0  0
 18 19  2  0  0  0
 19 20  1  0  0  0
 20 21  2  0  0  0
 21 22  1  0  0  0
 22 23  2  0  0  0
 11 12  1  0  0  0
 12 13  1  0  0  0
 12 14  2  0  0  0
 23 18  1  0  0  0
 36 39  1  0  0  0
 58 60  1  0  0  0
 58 61  1  0  0  0
 41 44  1  0  0  0
 46 47  1  0  0  0
 46 48  1  0  0  0
 52 54  1  0  0  0
 33 34  1  0  0  0
 69 71  1  0  0  0
 69 72  1  0  0  0
  4  5  1  0  0  0
 27 29  1  0  0  0
 27 30  1  0  0  0
  9 10  1  0  0  0
 13 15  1  0  0  0
 13 16  1  0  0  0
M  END
> <minimizedAffinity>
-7.35145

> <CNNscore>
0.1932722777

> <CNNaffinity>
7.0065889359

> <CNN_VS>
1.3541793823

> <CNNaffinity_variance>
1.6794370413

$$$$
[H]OC(=O)C([H])([H])C([H])([H])[C@@]([H])(C(=O)N([H])[C@]([H])(C(=O)N([H])[C@]([H])(C(=O)N([H])[C@]([H])(C(=O)N([H])[C@]([H])(C(=O)N([H])[C@]([H])(C(=O)N([H])[H])C([H])([H])c1c([H])c([H])c([H])c([H])c1[H])C([H])([H])C([H])([H])C(=O)N([H])[H])C([H])([H])C([H])([H])C(=O)N([H])[H])C([H])([H])C([H])(C([H])([H])[H])C([H])([H])[H])C([H])([H])C([H])([H])C(=O)N([H])[H])N([H])[H]


 72 72  0  0  0  0  0  0  0  0999 V2000
   11.0945   24.4035   -0.0736 C   0  0  0  0  0  0  0  0  0  0  0  0
   11.0167   23.0598   -0.5700 C   0  0  0  0  0  0  0  0  0  0  0  0
   11.7742   22.7236   -1.5503 O   0  0  0  0  0  0  0  0  0  0  0  0
   10.1768   22.0267   -0.0813 N   0  0  0  0  0  0  0  0  0  0  0  0
    9.5566   22.2328    0.7078 H   0  0  0  0  0  0  0  0  0  0  0  0
   10.1381   20.6712   -0.6369 C   0  0  0  0  0  0  0  0  0  0  0  0
    8.7181   20.2884   -0.7199 C   0  0  0  0  0  0  0  0  0  0  0  0
    7.9091   21.2162   -0.3279 O   0  0  0  0  0  0  0  0  0  0  0  0
    8.1591   19.0937   -1.1543 N   0  0  0  0  0  0  0  0  0  0  0  0
    8.7320   18.3167   -1.4992 H   0  0  0  0  0  0  0  0  0  0  0  0
    6.6953   18.9399   -1.1346 C   0  0  0  0  0  0  0  0  0  0  0  0
    6.2473   17.8318   -0.3047 C   0  0  0  0  0  0  0  0  0  0  0  0
    5.8385   16.5471   -0.6924 N   0  0  0  0  0  0  0  0  0  0  0  0
    6.2074   18.0128    0.9925 O   0  0  0  0  0  0  0  0  0  0  0  0
    6.3219   15.6659   -0.3969 H   0  0  0  0  0  0  0  0  0  0  0  0
    4.9989   16.4143   -1.3204 H   0  0  0  0  0  0  0  0  0  0  0  0
    6.1900   19.0505   -2.5297 C   0  0  0  0  0  0  0  0  0  0  0  0
    4.9357   19.7809   -2.7352 C   0  0  0  0  0  0  0  0  0  0  0  0
    3.8446   19.0911   -3.2260 C   0  0  0  0  0  0  0  0  0  0  0  0
    2.6411   19.7275   -3.3986 C   0  0  0  0  0  0  0  0  0  0  0  0
    2.5067   21.0811   -3.0793 C   0  0  0  0  0  0  0  0  0  0  0  0
    3.6043   21.7773   -2.5850 C   0  0  0  0  0  0  0  0  0  0  0  0
    4.7886   21.1048   -2.4273 C   0  0  0  0  0  0  0  0  0  0  0  0
   10.9078   19.7539    0.3126 C   0  0  0  0  0  0  0  0  0  0  0  0
   11.0796   20.3233    1.6762 C   0  0  0  0  0  0  0  0  0  0  0  0
   12.3723   20.9793    1.9339 C   0  0  0  0  0  0  0  0  0  0  0  0
   13.5946   20.2616    1.7580 N   0  0  0  0  0  0  0  0  0  0  0  0
   12.4356   22.1636    2.3107 O   0  0  0  0  0  0  0  0  0  0  0  0
   13.5886   19.4884    1.0562 H   0  0  0  0  0  0  0  0  0  0  0  0
   14.4768   20.4518    2.2673 H   0  0  0  0  0  0  0  0  0  0  0  0
    9.5413   24.3554    1.9302 C   0  0  0  0  0  0  0  0  0  0  0  0
    8.5075   24.1812    1.1873 O   0  0  0  0  0  0  0  0  0  0  0  0
   10.8300   24.4710    1.3406 N   0  0  0  0  0  0  0  0  0  0  0  0
   11.6377   24.6201    1.9762 H   0  0  0  0  0  0  0  0  0  0  0  0
    9.2900   24.4203    3.3769 C   0  0  0  0  0  0  0  0  0  0  0  0
    8.2511   25.3185    3.7387 N   0  0  0  0  0  0  0  0  0  0  0  0
    8.2884   26.6976    3.9831 C   0  0  0  0  0  0  0  0  0  0  0  0
    9.3402   27.3503    3.9148 O   0  0  0  0  0  0  0  0  0  0  0  0
    7.2732   24.8489    3.8387 H   0  0  0  0  0  0  0  0  0  0  0  0
    7.0407   27.4231    4.3409 C   0  0  0  0  0  0  0  0  0  0  0  0
    6.2109   27.6450    3.1880 N   0  0  0  0  0  0  0  0  0  0  0  0
    6.1001   28.9305    2.6087 C   0  0  0  0  0  0  0  0  0  0  0  0
    6.7302   29.9136    3.0876 O   0  0  0  0  0  0  0  0  0  0  0  0
    5.6868   26.8531    2.7749 H   0  0  0  0  0  0  0  0  0  0  0  0
    5.2507   29.1666    1.4342 C   0  0  0  0  0  0  0  0  0  0  0  0
    4.7180   30.4993    1.4683 N   0  0  0  0  0  0  0  0  0  0  0  0
    5.4674   31.2003    1.5194 H   0  0  0  0  0  0  0  0  0  0  0  0
    4.0819   30.6141    2.2930 H   0  0  0  0  0  0  0  0  0  0  0  0
    6.0514   28.9505    0.1572 C   0  0  0  0  0  0  0  0  0  0  0  0
    5.6264   29.9274   -0.9243 C   0  0  0  0  0  0  0  0  0  0  0  0
    6.4189   29.6833   -2.1381 C   0  0  0  0  0  0  0  0  0  0  0  0
    7.5849   30.4057   -2.4006 O   0  0  0  0  0  0  0  0  0  0  0  0
    6.0565   28.8099   -2.9739 O   0  0  0  0  0  0  0  0  0  0  0  0
    8.4931   30.0242   -2.1858 H   0  0  0  0  0  0  0  0  0  0  0  0
    6.2905   26.7623    5.4835 C   0  0  0  0  0  0  0  0  0  0  0  0
    5.0396   26.1444    4.9031 C   0  0  0  0  0  0  0  0  0  0  0  0
    3.7908   26.7913    5.3207 C   0  0  0  0  0  0  0  0  0  0  0  0
    3.6299   27.2663    6.6294 N   0  0  0  0  0  0  0  0  0  0  0  0
    2.8480   26.9257    4.5005 O   0  0  0  0  0  0  0  0  0  0  0  0
    3.4305   26.5545    7.3714 H   0  0  0  0  0  0  0  0  0  0  0  0
    3.6842   28.2481    6.9502 H   0  0  0  0  0  0  0  0  0  0  0  0
    9.2683   23.0543    3.9794 C   0  0  0  0  0  0  0  0  0  0  0  0
   10.0847   21.7584    5.8956 C   0  0  0  0  0  0  0  0  0  0  0  0
    9.2671   22.9932    5.4743 C   0  0  0  0  0  0  0  0  0  0  0  0
    7.8486   22.7723    5.9979 C   0  0  0  0  0  0  0  0  0  0  0  0
   12.2281   25.2864   -0.4783 C   0  0  0  0  0  0  0  0  0  0  0  0
   13.4620   25.2367    0.3342 C   0  0  0  0  0  0  0  0  0  0  0  0
   14.6148   24.4765   -0.0823 C   0  0  0  0  0  0  0  0  0  0  0  0
   14.4930   23.0252    0.0151 N   0  0  0  0  0  0  0  0  0  0  0  0
   15.7198   24.8749   -0.5204 O   0  0  0  0  0  0  0  0  0  0  0  0
   14.8666   22.4989    0.8089 H   0  0  0  0  0  0  0  0  0  0  0  0
   14.0072   22.5513   -0.7610 H   0  0  0  0  0  0  0  0  0  0  0  0
 63 64  1  0  0  0
 64 65  1  0  0  0
 64 62  1  0  0  0
 62 35  1  0  0  0
 35 36  1  0  0  0
 36 37  1  0  0  0
 37 38  2  0  0  0
 37 40  1  0  0  0
 40 55  1  0  0  0
 55 56  1  0  0  0
 56 57  1  0  0  0
 57 58  1  0  0  0
 57 59  2  0  0  0
 40 41  1  0  0  0
 41 42  1  0  0  0
 42 43  2  0  0  0
 42 45  1  0  0  0
 45 46  1  0  0  0
 45 49  1  0  0  0
 49 50  1  0  0  0
 50 51  1  0  0  0
 51 52  1  0  0  0
 51 53  2  0  0  0
 35 31  1  0  0  0
 31 32  2  0  0  0
 31 33  1  0  0  0
 33  1  1  0  0  0
  1 66  1  0  0  0
 66 67  1  0  0  0
 67 68  1  0  0  0
 68 69  1  0  0  0
 68 70  2  0  0  0
  1  2  1  0  0  0
  2  3  2  0  0  0
  2  4  1  0  0  0
  4  6  1  0  0  0
  6 24  1  0  0  0
 24 25  1  0  0  0
 25 26  1  0  0  0
 26 27  1  0  0  0
 26 28  2  0  0  0
  6  7  1  0  0  0
  7  8  2  0  0  0
  7  9  1  0  0  0
  9 11  1  0  0  0
 11 17  1  0  0  0
 17 18  1  0  0  0
 18 19  2  0  0  0
 19 20  1  0  0  0
 20 21  2  0  0  0
 21 22  1  0  0  0
 22 23  2  0  0  0
 11 12  1  0  0  0
 12 13  1  0  0  0
 12 14  2  0  0  0
 23 18  1  0  0  0
 36 39  1  0  0  0
 58 60  1  0  0  0
 58 61  1  0  0  0
 41 44  1  0  0  0
 46 47  1  0  0  0
 46 48  1  0  0  0
 52 54  1  0  0  0
 33 34  1  0  0  0
 69 71  1  0  0  0
 69 72  1  0  0  0
  4  5  1  0  0  0
 27 29  1  0  0  0
 27 30  1  0  0  0
  9 10  1  0  0  0
 13 15  1  0  0  0
 13 16  1  0  0  0
M  END
> <minimizedAffinity>
-8.08150

> <CNNscore>
0.1464322060

> <CNNaffinity>
7.0523858070

> <CNN_VS>
1.0326963663

> <CNNaffinity_variance>
1.0469360352

$$$$
[H]OC(=O)C([H])([H])C([H])([H])[C@@]([H])(C(=O)N([H])[C@]([H])(C(=O)N([H])[C@]([H])(C(=O)N([H])[C@]([H])(C(=O)N([H])[C@]([H])(C(=O)N([H])[C@]([H])(C(=O)N([H])[H])C([H])([H])c1c([H])c([H])c([H])c([H])c1[H])C([H])([H])C([H])([H])C(=O)N([H])[H])C([H])([H])C([H])([H])C(=O)N([H])[H])C([H])([H])C([H])(C([H])([H])[H])C([H])([H])[H])C([H])([H])C([H])([H])C(=O)N([H])[H])N([H])[H]


 72 72  0  0  0  0  0  0  0  0999 V2000
   10.5909   21.2031    4.0297 C   0  0  0  0  0  0  0  0  0  0  0  0
   11.0948   20.8954    2.7223 C   0  0  0  0  0  0  0  0  0  0  0  0
   11.9617   19.9560    2.6047 O   0  0  0  0  0  0  0  0  0  0  0  0
   10.7277   21.5264    1.5061 N   0  0  0  0  0  0  0  0  0  0  0  0
   10.0315   22.2774    1.5356 H   0  0  0  0  0  0  0  0  0  0  0  0
   11.2848   21.1705    0.1983 C   0  0  0  0  0  0  0  0  0  0  0  0
   12.2662   22.2150   -0.1419 C   0  0  0  0  0  0  0  0  0  0  0  0
   11.9668   23.3791    0.3316 O   0  0  0  0  0  0  0  0  0  0  0  0
   13.4357   22.1071   -0.8829 N   0  0  0  0  0  0  0  0  0  0  0  0
   13.7527   21.2148   -1.2755 H   0  0  0  0  0  0  0  0  0  0  0  0
   14.2578   23.3086   -1.1009 C   0  0  0  0  0  0  0  0  0  0  0  0
   15.0447   23.6828    0.0644 C   0  0  0  0  0  0  0  0  0  0  0  0
   15.5067   24.9506    0.4480 N   0  0  0  0  0  0  0  0  0  0  0  0
   15.3902   22.7363    0.9021 O   0  0  0  0  0  0  0  0  0  0  0  0
   15.2353   25.4260    1.3411 H   0  0  0  0  0  0  0  0  0  0  0  0
   16.1681   25.4944   -0.1715 H   0  0  0  0  0  0  0  0  0  0  0  0
   13.4192   24.3395   -1.7702 C   0  0  0  0  0  0  0  0  0  0  0  0
   13.9405   24.9330   -3.0052 C   0  0  0  0  0  0  0  0  0  0  0  0
   13.4340   26.1503   -3.4159 C   0  0  0  0  0  0  0  0  0  0  0  0
   13.9198   26.7588   -4.5459 C   0  0  0  0  0  0  0  0  0  0  0  0
   14.9328   26.1529   -5.2934 C   0  0  0  0  0  0  0  0  0  0  0  0
   15.4440   24.9271   -4.8814 C   0  0  0  0  0  0  0  0  0  0  0  0
   14.9315   24.3525   -3.7469 C   0  0  0  0  0  0  0  0  0  0  0  0
   10.1345   21.1380   -0.8074 C   0  0  0  0  0  0  0  0  0  0  0  0
    8.9470   20.3832   -0.3243 C   0  0  0  0  0  0  0  0  0  0  0  0
    7.9876   19.9733   -1.3632 C   0  0  0  0  0  0  0  0  0  0  0  0
    8.1680   20.3884   -2.7178 N   0  0  0  0  0  0  0  0  0  0  0  0
    7.0017   19.2637   -1.0927 O   0  0  0  0  0  0  0  0  0  0  0  0
    9.1486   20.5721   -3.0262 H   0  0  0  0  0  0  0  0  0  0  0  0
    7.4067   20.5158   -3.4093 H   0  0  0  0  0  0  0  0  0  0  0  0
    8.5205   22.5933    4.4886 C   0  0  0  0  0  0  0  0  0  0  0  0
    9.2165   23.5625    4.9654 O   0  0  0  0  0  0  0  0  0  0  0  0
    9.1665   21.4160    4.0213 N   0  0  0  0  0  0  0  0  0  0  0  0
    8.5665   20.6529    3.6521 H   0  0  0  0  0  0  0  0  0  0  0  0
    7.0651   22.7966    4.4667 C   0  0  0  0  0  0  0  0  0  0  0  0
    6.3165   21.5969    4.5981 N   0  0  0  0  0  0  0  0  0  0  0  0
    6.1681   20.5189    3.7155 C   0  0  0  0  0  0  0  0  0  0  0  0
    6.7202   20.4957    2.6057 O   0  0  0  0  0  0  0  0  0  0  0  0
    5.7758   21.5119    5.5401 H   0  0  0  0  0  0  0  0  0  0  0  0
    5.3239   19.3559    4.0977 C   0  0  0  0  0  0  0  0  0  0  0  0
    5.5367   18.9781    5.4685 N   0  0  0  0  0  0  0  0  0  0  0  0
    4.7816   19.5658    6.5100 C   0  0  0  0  0  0  0  0  0  0  0  0
    3.8997   20.4337    6.2609 O   0  0  0  0  0  0  0  0  0  0  0  0
    6.2524   18.2655    5.6976 H   0  0  0  0  0  0  0  0  0  0  0  0
    4.9962   19.1893    7.9131 C   0  0  0  0  0  0  0  0  0  0  0  0
    3.7362   18.9716    8.5658 N   0  0  0  0  0  0  0  0  0  0  0  0
    3.1823   18.2555    8.0799 H   0  0  0  0  0  0  0  0  0  0  0  0
    3.1887   19.8642    8.6031 H   0  0  0  0  0  0  0  0  0  0  0  0
    5.8559   17.9350    7.9929 C   0  0  0  0  0  0  0  0  0  0  0  0
    5.0679   16.7699    8.5642 C   0  0  0  0  0  0  0  0  0  0  0  0
    4.8907   15.7466    7.5238 C   0  0  0  0  0  0  0  0  0  0  0  0
    5.1794   16.0164    6.1843 O   0  0  0  0  0  0  0  0  0  0  0  0
    4.4693   14.5954    7.8238 O   0  0  0  0  0  0  0  0  0  0  0  0
    6.0586   15.7404    5.7755 H   0  0  0  0  0  0  0  0  0  0  0  0
    3.8568   19.5691    3.7704 C   0  0  0  0  0  0  0  0  0  0  0  0
    3.4596   18.5077    2.7709 C   0  0  0  0  0  0  0  0  0  0  0  0
    3.7009   18.8699    1.3699 C   0  0  0  0  0  0  0  0  0  0  0  0
    4.9195   18.5655    0.7482 N   0  0  0  0  0  0  0  0  0  0  0  0
    2.8085   19.4608    0.7110 O   0  0  0  0  0  0  0  0  0  0  0  0
    5.7359   19.1803    0.9774 H   0  0  0  0  0  0  0  0  0  0  0  0
    5.1075   17.7974    0.0814 H   0  0  0  0  0  0  0  0  0  0  0  0
    6.6726   23.9571    5.3203 C   0  0  0  0  0  0  0  0  0  0  0  0
    6.9208   25.9012    3.8450 C   0  0  0  0  0  0  0  0  0  0  0  0
    5.9121   25.0499    4.6378 C   0  0  0  0  0  0  0  0  0  0  0  0
    5.2759   25.9813    5.6689 C   0  0  0  0  0  0  0  0  0  0  0  0
   11.0350   20.4041    5.2099 C   0  0  0  0  0  0  0  0  0  0  0  0
   10.1865   19.2689    5.6301 C   0  0  0  0  0  0  0  0  0  0  0  0
    9.1865   19.4093    6.6599 C   0  0  0  0  0  0  0  0  0  0  0  0
    9.3795   18.5927    7.8543 N   0  0  0  0  0  0  0  0  0  0  0  0
    8.1636   20.1336    6.6879 O   0  0  0  0  0  0  0  0  0  0  0  0
    8.8942   17.7023    7.9901 H   0  0  0  0  0  0  0  0  0  0  0  0
   10.0351   18.9588    8.5607 H   0  0  0  0  0  0  0  0  0  0  0  0
 63 64  1  0  0  0
 64 65  1  0  0  0
 64 62  1  0  0  0
 62 35  1  0  0  0
 35 36  1  0  0  0
 36 37  1  0  0  0
 37 38  2  0  0  0
 37 40  1  0  0  0
 40 55  1  0  0  0
 55 56  1  0  0  0
 56 57  1  0  0  0
 57 58  1  0  0  0
 57 59  2  0  0  0
 40 41  1  0  0  0
 41 42  1  0  0  0
 42 43  2  0  0  0
 42 45  1  0  0  0
 45 46  1  0  0  0
 45 49  1  0  0  0
 49 50  1  0  0  0
 50 51  1  0  0  0
 51 52  1  0  0  0
 51 53  2  0  0  0
 35 31  1  0  0  0
 31 32  2  0  0  0
 31 33  1  0  0  0
 33  1  1  0  0  0
  1 66  1  0  0  0
 66 67  1  0  0  0
 67 68  1  0  0  0
 68 69  1  0  0  0
 68 70  2  0  0  0
  1  2  1  0  0  0
  2  3  2  0  0  0
  2  4  1  0  0  0
  4  6  1  0  0  0
  6 24  1  0  0  0
 24 25  1  0  0  0
 25 26  1  0  0  0
 26 27  1  0  0  0
 26 28  2  0  0  0
  6  7  1  0  0  0
  7  8  2  0  0  0
  7  9  1  0  0  0
  9 11  1  0  0  0
 11 17  1  0  0  0
 17 18  1  0  0  0
 18 19  2  0  0  0
 19 20  1  0  0  0
 20 21  2  0  0  0
 21 22  1  0  0  0
 22 23  2  0  0  0
 11 12  1  0  0  0
 12 13  1  0  0  0
 12 14  2  0  0  0
 23 18  1  0  0  0
 36 39  1  0  0  0
 58 60  1  0  0  0
 58 61  1  0  0  0
 41 44  1  0  0  0
 46 47  1  0  0  0
 46 48  1  0  0  0
 52 54  1  0  0  0
 33 34  1  0  0  0
 69 71  1  0  0  0
 69 72  1  0  0  0
  4  5  1  0  0  0
 27 29  1  0  0  0
 27 30  1  0  0  0
  9 10  1  0  0  0
 13 15  1  0  0  0
 13 16  1  0  0  0
M  END
> <minimizedAffinity>
-6.90904

> <CNNscore>
0.1398579627

> <CNNaffinity>
7.1815900803

> <CNN_VS>
1.0044025183

> <CNNaffinity_variance>
0.7799243927

$$$$
[H]OC(=O)C([H])([H])C([H])([H])[C@@]([H])(C(=O)N([H])[C@]([H])(C(=O)N([H])[C@]([H])(C(=O)N([H])[C@]([H])(C(=O)N([H])[C@]([H])(C(=O)N([H])[C@]([H])(C(=O)N([H])[H])C([H])([H])c1c([H])c([H])c([H])c([H])c1[H])C([H])([H])C([H])([H])C(=O)N([H])[H])C([H])([H])C([H])([H])C(=O)N([H])[H])C([H])([H])C([H])(C([H])([H])[H])C([H])([H])[H])C([H])([H])C([H])([H])C(=O)N([H])[H])N([H])[H]


 72 72  0  0  0  0  0  0  0  0999 V2000
    6.8764   20.6922    0.1245 C   0  0  0  0  0  0  0  0  0  0  0  0
    7.6807   21.8700    0.2790 C   0  0  0  0  0  0  0  0  0  0  0  0
    7.1122   22.9545    0.6643 O   0  0  0  0  0  0  0  0  0  0  0  0
    9.0773   21.9740    0.0540 N   0  0  0  0  0  0  0  0  0  0  0  0
    9.5879   21.1378   -0.2454 H   0  0  0  0  0  0  0  0  0  0  0  0
    9.8440   23.2113    0.2233 C   0  0  0  0  0  0  0  0  0  0  0  0
   11.1385   23.0020   -0.4478 C   0  0  0  0  0  0  0  0  0  0  0  0
   11.0310   22.4928   -1.6302 O   0  0  0  0  0  0  0  0  0  0  0  0
   12.4181   23.2765    0.0168 N   0  0  0  0  0  0  0  0  0  0  0  0
   12.5862   23.6989    0.9356 H   0  0  0  0  0  0  0  0  0  0  0  0
   13.5728   22.9661   -0.8419 C   0  0  0  0  0  0  0  0  0  0  0  0
   14.2276   21.7153   -0.4903 C   0  0  0  0  0  0  0  0  0  0  0  0
   14.2055   20.4864   -1.1666 N   0  0  0  0  0  0  0  0  0  0  0  0
   14.9527   21.6869    0.6007 O   0  0  0  0  0  0  0  0  0  0  0  0
   15.0576   20.0191   -1.5576 H   0  0  0  0  0  0  0  0  0  0  0  0
   13.2966   19.9676   -1.3140 H   0  0  0  0  0  0  0  0  0  0  0  0
   14.3949   24.1973   -0.9909 C   0  0  0  0  0  0  0  0  0  0  0  0
   14.2568   24.9516   -2.2403 C   0  0  0  0  0  0  0  0  0  0  0  0
   15.1729   24.7283   -3.2492 C   0  0  0  0  0  0  0  0  0  0  0  0
   15.0590   25.3856   -4.4485 C   0  0  0  0  0  0  0  0  0  0  0  0
   14.0143   26.2885   -4.6616 C   0  0  0  0  0  0  0  0  0  0  0  0
   13.0909   26.5147   -3.6468 C   0  0  0  0  0  0  0  0  0  0  0  0
   13.2400   25.8379   -2.4638 C   0  0  0  0  0  0  0  0  0  0  0  0
   10.0256   23.4480    1.7222 C   0  0  0  0  0  0  0  0  0  0  0  0
    9.6998   24.8364    2.1459 C   0  0  0  0  0  0  0  0  0  0  0  0
    9.3654   25.0054    3.5698 C   0  0  0  0  0  0  0  0  0  0  0  0
    9.2360   26.3123    4.1315 N   0  0  0  0  0  0  0  0  0  0  0  0
    9.1907   24.0253    4.3164 O   0  0  0  0  0  0  0  0  0  0  0  0
    8.9404   27.0753    3.4828 H   0  0  0  0  0  0  0  0  0  0  0  0
    9.4089   26.5549    5.1241 H   0  0  0  0  0  0  0  0  0  0  0  0
    5.7129   19.1022    1.7208 C   0  0  0  0  0  0  0  0  0  0  0  0
    6.0336   18.0786    1.0135 O   0  0  0  0  0  0  0  0  0  0  0  0
    6.1105   20.4041    1.3098 N   0  0  0  0  0  0  0  0  0  0  0  0
    5.8230   21.2048    1.9052 H   0  0  0  0  0  0  0  0  0  0  0  0
    4.9364   18.8254    2.9376 C   0  0  0  0  0  0  0  0  0  0  0  0
    5.5132   19.3604    4.1200 N   0  0  0  0  0  0  0  0  0  0  0  0
    6.2941   18.7451    5.1072 C   0  0  0  0  0  0  0  0  0  0  0  0
    6.5882   17.5417    5.0590 O   0  0  0  0  0  0  0  0  0  0  0  0
    5.3097   20.4197    4.2731 H   0  0  0  0  0  0  0  0  0  0  0  0
    6.7947   19.5385    6.2609 C   0  0  0  0  0  0  0  0  0  0  0  0
    8.2233   19.6925    6.2144 N   0  0  0  0  0  0  0  0  0  0  0  0
    8.8616   20.2096    5.0631 C   0  0  0  0  0  0  0  0  0  0  0  0
    8.1920   20.5521    4.0496 O   0  0  0  0  0  0  0  0  0  0  0  0
    8.7941   19.4216    7.0350 H   0  0  0  0  0  0  0  0  0  0  0  0
   10.3208   20.3652    5.0056 C   0  0  0  0  0  0  0  0  0  0  0  0
   10.8304   20.7366    6.2952 N   0  0  0  0  0  0  0  0  0  0  0  0
   10.5680   20.0499    7.0130 H   0  0  0  0  0  0  0  0  0  0  0  0
   10.4658   21.6795    6.5708 H   0  0  0  0  0  0  0  0  0  0  0  0
   10.9672   19.0690    4.5357 C   0  0  0  0  0  0  0  0  0  0  0  0
   12.1766   19.3488    3.6618 C   0  0  0  0  0  0  0  0  0  0  0  0
   11.8055   20.3082    2.6116 C   0  0  0  0  0  0  0  0  0  0  0  0
   10.8068   20.0144    1.6807 O   0  0  0  0  0  0  0  0  0  0  0  0
   12.3886   21.4245    2.5298 O   0  0  0  0  0  0  0  0  0  0  0  0
    9.8663   20.3571    1.8006 H   0  0  0  0  0  0  0  0  0  0  0  0
    6.0681   20.8627    6.4157 C   0  0  0  0  0  0  0  0  0  0  0  0
    4.8441   20.6081    7.2644 C   0  0  0  0  0  0  0  0  0  0  0  0
    3.5768   21.0016    6.6386 C   0  0  0  0  0  0  0  0  0  0  0  0
    2.3599   20.8367    7.3140 N   0  0  0  0  0  0  0  0  0  0  0  0
    3.5733   21.4943    5.4824 O   0  0  0  0  0  0  0  0  0  0  0  0
    1.9640   19.8677    7.3488 H   0  0  0  0  0  0  0  0  0  0  0  0
    1.8011   21.5687    7.7851 H   0  0  0  0  0  0  0  0  0  0  0  0
    3.4794   19.0584    2.7087 C   0  0  0  0  0  0  0  0  0  0  0  0
    3.4585   16.6091    2.8445 C   0  0  0  0  0  0  0  0  0  0  0  0
    2.6593   17.8466    2.3965 C   0  0  0  0  0  0  0  0  0  0  0  0
    2.4615   17.7109    0.8872 C   0  0  0  0  0  0  0  0  0  0  0  0
    6.0838   20.4858   -1.1235 C   0  0  0  0  0  0  0  0  0  0  0  0
    5.0406   21.4816   -1.4478 C   0  0  0  0  0  0  0  0  0  0  0  0
    3.7266   21.4243   -0.8558 C   0  0  0  0  0  0  0  0  0  0  0  0
    2.6182   21.2031   -1.7795 N   0  0  0  0  0  0  0  0  0  0  0  0
    3.3849   21.5369    0.3451 O   0  0  0  0  0  0  0  0  0  0  0  0
    2.0437   21.9713   -2.1354 H   0  0  0  0  0  0  0  0  0  0  0  0
    2.4406   20.2270   -2.0596 H   0  0  0  0  0  0  0  0  0  0  0  0
 63 64  1  0  0  0
 64 65  1  0  0  0
 64 62  1  0  0  0
 62 35  1  0  0  0
 35 36  1  0  0  0
 36 37  1  0  0  0
 37 38  2  0  0  0
 37 40  1  0  0  0
 40 55  1  0  0  0
 55 56  1  0  0  0
 56 57  1  0  0  0
 57 58  1  0  0  0
 57 59  2  0  0  0
 40 41  1  0  0  0
 41 42  1  0  0  0
 42 43  2  0  0  0
 42 45  1  0  0  0
 45 46  1  0  0  0
 45 49  1  0  0  0
 49 50  1  0  0  0
 50 51  1  0  0  0
 51 52  1  0  0  0
 51 53  2  0  0  0
 35 31  1  0  0  0
 31 32  2  0  0  0
 31 33  1  0  0  0
 33  1  1  0  0  0
  1 66  1  0  0  0
 66 67  1  0  0  0
 67 68  1  0  0  0
 68 69  1  0  0  0
 68 70  2  0  0  0
  1  2  1  0  0  0
  2  3  2  0  0  0
  2  4  1  0  0  0
  4  6  1  0  0  0
  6 24  1  0  0  0
 24 25  1  0  0  0
 25 26  1  0  0  0
 26 27  1  0  0  0
 26 28  2  0  0  0
  6  7  1  0  0  0
  7  8  2  0  0  0
  7  9  1  0  0  0
  9 11  1  0  0  0
 11 17  1  0  0  0
 17 18  1  0  0  0
 18 19  2  0  0  0
 19 20  1  0  0  0
 20 21  2  0  0  0
 21 22  1  0  0  0
 22 23  2  0  0  0
 11 12  1  0  0  0
 12 13  1  0  0  0
 12 14  2  0  0  0
 23 18  1  0  0  0
 36 39  1  0  0  0
 58 60  1  0  0  0
 58 61  1  0  0  0
 41 44  1  0  0  0
 46 47  1  0  0  0
 46 48  1  0  0  0
 52 54  1  0  0  0
 33 34  1  0  0  0
 69 71  1  0  0  0
 69 72  1  0  0  0
  4  5  1  0  0  0
 27 29  1  0  0  0
 27 30  1  0  0  0
  9 10  1  0  0  0
 13 15  1  0  0  0
 13 16  1  0  0  0
M  END
> <minimizedAffinity>
-7.80453

> <CNNscore>
0.1261447519

> <CNNaffinity>
7.1858315468

> <CNN_VS>
0.9064549208

> <CNNaffinity_variance>
0.3810445368

$$$$
[H]OC(=O)C([H])([H])C([H])([H])[C@@]([H])(C(=O)N([H])[C@]([H])(C(=O)N([H])[C@]([H])(C(=O)N([H])[C@]([H])(C(=O)N([H])[C@]([H])(C(=O)N([H])[C@]([H])(C(=O)N([H])[H])C([H])([H])c1c([H])c([H])c([H])c([H])c1[H])C([H])([H])C([H])([H])C(=O)N([H])[H])C([H])([H])C([H])([H])C(=O)N([H])[H])C([H])([H])C([H])(C([H])([H])[H])C([H])([H])[H])C([H])([H])C([H])([H])C(=O)N([H])[H])N([H])[H]


 72 72  0  0  0  0  0  0  0  0999 V2000
    5.9762   21.2365   -0.4892 C   0  0  0  0  0  0  0  0  0  0  0  0
    5.1253   20.7554    0.5608 C   0  0  0  0  0  0  0  0  0  0  0  0
    3.9363   21.2305    0.6526 O   0  0  0  0  0  0  0  0  0  0  0  0
    5.4564   19.7793    1.5352 N   0  0  0  0  0  0  0  0  0  0  0  0
    6.3890   19.3561    1.5061 H   0  0  0  0  0  0  0  0  0  0  0  0
    4.5428   19.3329    2.5903 C   0  0  0  0  0  0  0  0  0  0  0  0
    5.1397   19.7495    3.8710 C   0  0  0  0  0  0  0  0  0  0  0  0
    6.1842   20.4974    3.7350 O   0  0  0  0  0  0  0  0  0  0  0  0
    4.7315   19.4493    5.1640 N   0  0  0  0  0  0  0  0  0  0  0  0
    3.9016   18.8790    5.3557 H   0  0  0  0  0  0  0  0  0  0  0  0
    5.5048   19.9785    6.2992 C   0  0  0  0  0  0  0  0  0  0  0  0
    6.5862   19.0983    6.7150 C   0  0  0  0  0  0  0  0  0  0  0  0
    7.7184   18.6891    5.9947 N   0  0  0  0  0  0  0  0  0  0  0  0
    6.5396   18.5968    7.9247 O   0  0  0  0  0  0  0  0  0  0  0  0
    8.7030   18.8951    6.2870 H   0  0  0  0  0  0  0  0  0  0  0  0
    7.6179   18.1397    5.0975 H   0  0  0  0  0  0  0  0  0  0  0  0
    4.5525   20.4893    7.3221 C   0  0  0  0  0  0  0  0  0  0  0  0
    4.3915   21.9427    7.4253 C   0  0  0  0  0  0  0  0  0  0  0  0
    3.6159   22.5882    6.4825 C   0  0  0  0  0  0  0  0  0  0  0  0
    3.4088   23.9424    6.5630 C   0  0  0  0  0  0  0  0  0  0  0  0
    3.9807   24.6831    7.6005 C   0  0  0  0  0  0  0  0  0  0  0  0
    4.7621   24.0348    8.5508 C   0  0  0  0  0  0  0  0  0  0  0  0
    4.9444   22.6809    8.4346 C   0  0  0  0  0  0  0  0  0  0  0  0
    4.4284   17.8117    2.4978 C   0  0  0  0  0  0  0  0  0  0  0  0
    5.0487   17.2450    1.2702 C   0  0  0  0  0  0  0  0  0  0  0  0
    4.2573   16.2176    0.5731 C   0  0  0  0  0  0  0  0  0  0  0  0
    3.8895   15.0109    1.2429 N   0  0  0  0  0  0  0  0  0  0  0  0
    3.8929   16.3688   -0.6071 O   0  0  0  0  0  0  0  0  0  0  0  0
    3.7883   15.0618    2.2809 H   0  0  0  0  0  0  0  0  0  0  0  0
    3.7149   14.1006    0.7793 H   0  0  0  0  0  0  0  0  0  0  0  0
    8.1753   21.7342    0.6710 C   0  0  0  0  0  0  0  0  0  0  0  0
    8.4088   20.4868    0.8716 O   0  0  0  0  0  0  0  0  0  0  0  0
    6.9851   22.1374    0.0056 N   0  0  0  0  0  0  0  0  0  0  0  0
    6.8306   23.1556   -0.1282 H   0  0  0  0  0  0  0  0  0  0  0  0
    9.1980   22.6674    1.1642 C   0  0  0  0  0  0  0  0  0  0  0  0
    8.9563   23.1391    2.4818 N   0  0  0  0  0  0  0  0  0  0  0  0
    8.2012   24.2307    2.9303 C   0  0  0  0  0  0  0  0  0  0  0  0
    7.6103   24.9889    2.1474 O   0  0  0  0  0  0  0  0  0  0  0  0
    9.4399   22.5496    3.2600 H   0  0  0  0  0  0  0  0  0  0  0  0
    8.0930   24.5117    4.3866 C   0  0  0  0  0  0  0  0  0  0  0  0
    9.1865   23.9317    5.1179 N   0  0  0  0  0  0  0  0  0  0  0  0
    8.9570   22.9583    6.1180 C   0  0  0  0  0  0  0  0  0  0  0  0
    7.7867   22.5723    6.3902 O   0  0  0  0  0  0  0  0  0  0  0  0
   10.1563   24.2298    4.9101 H   0  0  0  0  0  0  0  0  0  0  0  0
   10.0679   22.3648    6.8732 C   0  0  0  0  0  0  0  0  0  0  0  0
    9.7528   22.3312    8.2734 N   0  0  0  0  0  0  0  0  0  0  0  0
    8.8809   21.8165    8.4481 H   0  0  0  0  0  0  0  0  0  0  0  0
    9.6584   23.3057    8.6468 H   0  0  0  0  0  0  0  0  0  0  0  0
   10.3558   20.9593    6.3629 C   0  0  0  0  0  0  0  0  0  0  0  0
   11.2234   20.9987    5.1179 C   0  0  0  0  0  0  0  0  0  0  0  0
   10.5414   20.2864    4.0277 C   0  0  0  0  0  0  0  0  0  0  0  0
    9.1614   20.3942    3.8424 O   0  0  0  0  0  0  0  0  0  0  0  0
   11.1956   19.5564    3.2326 O   0  0  0  0  0  0  0  0  0  0  0  0
    8.7757   21.0302    3.1619 H   0  0  0  0  0  0  0  0  0  0  0  0
    7.9098   25.9896    4.6822 C   0  0  0  0  0  0  0  0  0  0  0  0
    6.5217   26.1659    5.2526 C   0  0  0  0  0  0  0  0  0  0  0  0
    5.5511   26.7528    4.3221 C   0  0  0  0  0  0  0  0  0  0  0  0
    5.9739   27.3711    3.1375 N   0  0  0  0  0  0  0  0  0  0  0  0
    4.3225   26.7044    4.5826 O   0  0  0  0  0  0  0  0  0  0  0  0
    6.3741   28.3353    3.2222 H   0  0  0  0  0  0  0  0  0  0  0  0
    5.9344   26.9823    2.1798 H   0  0  0  0  0  0  0  0  0  0  0  0
   10.5713   22.1769    0.8432 C   0  0  0  0  0  0  0  0  0  0  0  0
   10.5642   24.0248   -0.7703 C   0  0  0  0  0  0  0  0  0  0  0  0
   11.4585   23.1337    0.1112 C   0  0  0  0  0  0  0  0  0  0  0  0
   12.3880   22.3792   -0.8386 C   0  0  0  0  0  0  0  0  0  0  0  0
    6.5169   20.2885   -1.5078 C   0  0  0  0  0  0  0  0  0  0  0  0
    5.6334   19.1962   -1.9674 C   0  0  0  0  0  0  0  0  0  0  0  0
    4.4178   19.4596   -2.6977 C   0  0  0  0  0  0  0  0  0  0  0  0
    4.5757   20.1479   -3.9752 N   0  0  0  0  0  0  0  0  0  0  0  0
    3.2311   19.1857   -2.4006 O   0  0  0  0  0  0  0  0  0  0  0  0
    4.4405   21.1575   -4.0708 H   0  0  0  0  0  0  0  0  0  0  0  0
    4.8333   19.5629   -4.7841 H   0  0  0  0  0  0  0  0  0  0  0  0
 63 64  1  0  0  0
 64 65  1  0  0  0
 64 62  1  0  0  0
 62 35  1  0  0  0
 35 36  1  0  0  0
 36 37  1  0  0  0
 37 38  2  0  0  0
 37 40  1  0  0  0
 40 55  1  0  0  0
 55 56  1  0  0  0
 56 57  1  0  0  0
 57 58  1  0  0  0
 57 59  2  0  0  0
 40 41  1  0  0  0
 41 42  1  0  0  0
 42 43  2  0  0  0
 42 45  1  0  0  0
 45 46  1  0  0  0
 45 49  1  0  0  0
 49 50  1  0  0  0
 50 51  1  0  0  0
 51 52  1  0  0  0
 51 53  2  0  0  0
 35 31  1  0  0  0
 31 32  2  0  0  0
 31 33  1  0  0  0
 33  1  1  0  0  0
  1 66  1  0  0  0
 66 67  1  0  0  0
 67 68  1  0  0  0
 68 69  1  0  0  0
 68 70  2  0  0  0
  1  2  1  0  0  0
  2  3  2  0  0  0
  2  4  1  0  0  0
  4  6  1  0  0  0
  6 24  1  0  0  0
 24 25  1  0  0  0
 25 26  1  0  0  0
 26 27  1  0  0  0
 26 28  2  0  0  0
  6  7  1  0  0  0
  7  8  2  0  0  0
  7  9  1  0  0  0
  9 11  1  0  0  0
 11 17  1  0  0  0
 17 18  1  0  0  0
 18 19  2  0  0  0
 19 20  1  0  0  0
 20 21  2  0  0  0
 21 22  1  0  0  0
 22 23  2  0  0  0
 11 12  1  0  0  0
 12 13  1  0  0  0
 12 14  2  0  0  0
 23 18  1  0  0  0
 36 39  1  0  0  0
 58 60  1  0  0  0
 58 61  1  0  0  0
 41 44  1  0  0  0
 46 47  1  0  0  0
 46 48  1  0  0  0
 52 54  1  0  0  0
 33 34  1  0  0  0
 69 71  1  0  0  0
 69 72  1  0  0  0
  4  5  1  0  0  0
 27 29  1  0  0  0
 27 30  1  0  0  0
  9 10  1  0  0  0
 13 15  1  0  0  0
 13 16  1  0  0  0
M  END
> <minimizedAffinity>
-6.08775

> <CNNscore>
0.1232296079

> <CNNaffinity>
6.3206243515

> <CNN_VS>
0.7788880467

> <CNNaffinity_variance>
1.0787091255

$$$$
[H]OC(=O)C([H])([H])C([H])([H])[C@@]([H])(C(=O)N([H])[C@]([H])(C(=O)N([H])[C@]([H])(C(=O)N([H])[C@]([H])(C(=O)N([H])[C@]([H])(C(=O)N([H])[C@]([H])(C(=O)N([H])[H])C([H])([H])c1c([H])c([H])c([H])c([H])c1[H])C([H])([H])C([H])([H])C(=O)N([H])[H])C([H])([H])C([H])([H])C(=O)N([H])[H])C([H])([H])C([H])(C([H])([H])[H])C([H])([H])[H])C([H])([H])C([H])([H])C(=O)N([H])[H])N([H])[H]


 72 72  0  0  0  0  0  0  0  0999 V2000
    6.1177   20.8366   -0.2267 C   0  0  0  0  0  0  0  0  0  0  0  0
    5.0399   20.4481    0.6367 C   0  0  0  0  0  0  0  0  0  0  0  0
    4.0681   21.2684    0.8114 O   0  0  0  0  0  0  0  0  0  0  0  0
    4.9191   19.2198    1.3356 N   0  0  0  0  0  0  0  0  0  0  0  0
    5.6598   18.5205    1.2271 H   0  0  0  0  0  0  0  0  0  0  0  0
    3.7931   18.8833    2.2111 C   0  0  0  0  0  0  0  0  0  0  0  0
    4.3703   18.4513    3.4956 C   0  0  0  0  0  0  0  0  0  0  0  0
    3.4930   18.3012    4.4318 O   0  0  0  0  0  0  0  0  0  0  0  0
    5.6969   18.1923    3.8143 N   0  0  0  0  0  0  0  0  0  0  0  0
    6.4494   18.2691    3.1225 H   0  0  0  0  0  0  0  0  0  0  0  0
    6.0355   17.7788    5.1860 C   0  0  0  0  0  0  0  0  0  0  0  0
    5.4936   16.4760    5.5412 C   0  0  0  0  0  0  0  0  0  0  0  0
    4.5843   16.1448    6.5568 N   0  0  0  0  0  0  0  0  0  0  0  0
    5.8782   15.4385    4.8392 O   0  0  0  0  0  0  0  0  0  0  0  0
    3.6441   15.7170    6.3827 H   0  0  0  0  0  0  0  0  0  0  0  0
    4.8204   16.3218    7.5716 H   0  0  0  0  0  0  0  0  0  0  0  0
    5.8051   18.9323    6.0972 C   0  0  0  0  0  0  0  0  0  0  0  0
    6.9332   19.8377    6.3352 C   0  0  0  0  0  0  0  0  0  0  0  0
    8.0407   19.3496    7.0003 C   0  0  0  0  0  0  0  0  0  0  0  0
    9.1334   20.1525    7.2114 C   0  0  0  0  0  0  0  0  0  0  0  0
    9.1372   21.4731    6.7554 C   0  0  0  0  0  0  0  0  0  0  0  0
    8.0229   21.9664    6.0855 C   0  0  0  0  0  0  0  0  0  0  0  0
    6.9518   21.1319    5.8949 C   0  0  0  0  0  0  0  0  0  0  0  0
    3.0048   17.7549    1.5470 C   0  0  0  0  0  0  0  0  0  0  0  0
    3.5141   16.3986    1.8849 C   0  0  0  0  0  0  0  0  0  0  0  0
    4.6806   15.9452    1.1093 C   0  0  0  0  0  0  0  0  0  0  0  0
    5.5596   14.9522    1.6399 N   0  0  0  0  0  0  0  0  0  0  0  0
    4.9323   16.4112   -0.0168 O   0  0  0  0  0  0  0  0  0  0  0  0
    5.1457   14.2699    2.3133 H   0  0  0  0  0  0  0  0  0  0  0  0
    6.5647   14.8587    1.4058 H   0  0  0  0  0  0  0  0  0  0  0  0
    7.5250   21.5628    1.7538 C   0  0  0  0  0  0  0  0  0  0  0  0
    7.1429   20.5577    2.4571 O   0  0  0  0  0  0  0  0  0  0  0  0
    7.0370   21.7308    0.4288 N   0  0  0  0  0  0  0  0  0  0  0  0
    7.3639   22.5614   -0.1020 H   0  0  0  0  0  0  0  0  0  0  0  0
    8.4685   22.4822    2.4054 C   0  0  0  0  0  0  0  0  0  0  0  0
    9.8200   22.2894    2.0138 N   0  0  0  0  0  0  0  0  0  0  0  0
   10.5492   22.8570    0.9607 C   0  0  0  0  0  0  0  0  0  0  0  0
   10.0413   23.6628    0.1673 O   0  0  0  0  0  0  0  0  0  0  0  0
   10.3675   21.5859    2.6402 H   0  0  0  0  0  0  0  0  0  0  0  0
   11.9781   22.4943    0.7657 C   0  0  0  0  0  0  0  0  0  0  0  0
   12.7366   23.6003    0.2475 N   0  0  0  0  0  0  0  0  0  0  0  0
   13.2514   23.5750   -1.0695 C   0  0  0  0  0  0  0  0  0  0  0  0
   13.0542   22.5822   -1.8235 O   0  0  0  0  0  0  0  0  0  0  0  0
   12.9087   24.4278    0.8460 H   0  0  0  0  0  0  0  0  0  0  0  0
   14.0315   24.6982   -1.6047 C   0  0  0  0  0  0  0  0  0  0  0  0
   15.3877   24.6254   -1.1396 N   0  0  0  0  0  0  0  0  0  0  0  0
   15.8224   23.7297   -1.3935 H   0  0  0  0  0  0  0  0  0  0  0  0
   15.4203   24.7415   -0.0987 H   0  0  0  0  0  0  0  0  0  0  0  0
   13.9938   24.6835   -3.1269 C   0  0  0  0  0  0  0  0  0  0  0  0
   15.0175   25.6429   -3.7066 C   0  0  0  0  0  0  0  0  0  0  0  0
   14.3207   26.7426   -4.3893 C   0  0  0  0  0  0  0  0  0  0  0  0
   14.9983   27.6047   -5.2542 O   0  0  0  0  0  0  0  0  0  0  0  0
   13.0866   26.9309   -4.2040 O   0  0  0  0  0  0  0  0  0  0  0  0
   14.9699   27.4686   -6.2527 H   0  0  0  0  0  0  0  0  0  0  0  0
   12.6007   21.8905    2.0119 C   0  0  0  0  0  0  0  0  0  0  0  0
   12.3069   20.4085    1.9891 C   0  0  0  0  0  0  0  0  0  0  0  0
   11.9462   19.8392    3.2922 C   0  0  0  0  0  0  0  0  0  0  0  0
   11.7068   20.6674    4.3972 N   0  0  0  0  0  0  0  0  0  0  0  0
   11.8479   18.5936    3.4282 O   0  0  0  0  0  0  0  0  0  0  0  0
   12.5452   21.0685    4.8801 H   0  0  0  0  0  0  0  0  0  0  0  0
   10.7891   20.9297    4.7959 H   0  0  0  0  0  0  0  0  0  0  0  0
    7.9395   23.8785    2.4111 C   0  0  0  0  0  0  0  0  0  0  0  0
    6.7364   25.1247    4.1482 C   0  0  0  0  0  0  0  0  0  0  0  0
    8.1240   24.6479    3.6809 C   0  0  0  0  0  0  0  0  0  0  0  0
    8.9510   25.9074    3.4260 C   0  0  0  0  0  0  0  0  0  0  0  0
    6.8204   19.8118   -1.0540 C   0  0  0  0  0  0  0  0  0  0  0  0
    7.9484   20.2636   -1.8958 C   0  0  0  0  0  0  0  0  0  0  0  0
    9.2676   20.4696   -1.3502 C   0  0  0  0  0  0  0  0  0  0  0  0
   10.1196   21.4081   -2.0740 N   0  0  0  0  0  0  0  0  0  0  0  0
    9.8026   19.9601   -0.3373 O   0  0  0  0  0  0  0  0  0  0  0  0
   10.8253   21.0968   -2.7461 H   0  0  0  0  0  0  0  0  0  0  0  0
    9.9744   22.4091   -1.8746 H   0  0  0  0  0  0  0  0  0  0  0  0
 63 64  1  0  0  0
 64 65  1  0  0  0
 64 62  1  0  0  0
 62 35  1  0  0  0
 35 36  1  0  0  0
 36 37  1  0  0  0
 37 38  2  0  0  0
 37 40  1  0  0  0
 40 55  1  0  0  0
 55 56  1  0  0  0
 56 57  1  0  0  0
 57 58  1  0  0  0
 57 59  2  0  0  0
 40 41  1  0  0  0
 41 42  1  0  0  0
 42 43  2  0  0  0
 42 45  1  0  0  0
 45 46  1  0  0  0
 45 49  1  0  0  0
 49 50  1  0  0  0
 50 51  1  0  0  0
 51 52  1  0  0  0
 51 53  2  0  0  0
 35 31  1  0  0  0
 31 32  2  0  0  0
 31 33  1  0  0  0
 33  1  1  0  0  0
  1 66  1  0  0  0
 66 67  1  0  0  0
 67 68  1  0  0  0
 68 69  1  0  0  0
 68 70  2  0  0  0
  1  2  1  0  0  0
  2  3  2  0  0  0
  2  4  1  0  0  0
  4  6  1  0  0  0
  6 24  1  0  0  0
 24 25  1  0  0  0
 25 26  1  0  0  0
 26 27  1  0  0  0
 26 28  2  0  0  0
  6  7  1  0  0  0
  7  8  2  0  0  0
  7  9  1  0  0  0
  9 11  1  0  0  0
 11 17  1  0  0  0
 17 18  1  0  0  0
 18 19  2  0  0  0
 19 20  1  0  0  0
 20 21  2  0  0  0
 21 22  1  0  0  0
 22 23  2  0  0  0
 11 12  1  0  0  0
 12 13  1  0  0  0
 12 14  2  0  0  0
 23 18  1  0  0  0
 36 39  1  0  0  0
 58 60  1  0  0  0
 58 61  1  0  0  0
 41 44  1  0  0  0
 46 47  1  0  0  0
 46 48  1  0  0  0
 52 54  1  0  0  0
 33 34  1  0  0  0
 69 71  1  0  0  0
 69 72  1  0  0  0
  4  5  1  0  0  0
 27 29  1  0  0  0
 27 30  1  0  0  0
  9 10  1  0  0  0
 13 15  1  0  0  0
 13 16  1  0  0  0
M  END
> <minimizedAffinity>
-7.20300

> <CNNscore>
0.1077540517

> <CNNaffinity>
7.1626458168

> <CNN_VS>
0.7718040943

> <CNNaffinity_variance>
0.5909116268

$$$$
[H]OC(=O)C([H])([H])C([H])([H])[C@@]([H])(C(=O)N([H])[C@]([H])(C(=O)N([H])[C@]([H])(C(=O)N([H])[C@]([H])(C(=O)N([H])[C@]([H])(C(=O)N([H])[C@]([H])(C(=O)N([H])[H])C([H])([H])c1c([H])c([H])c([H])c([H])c1[H])C([H])([H])C([H])([H])C(=O)N([H])[H])C([H])([H])C([H])([H])C(=O)N([H])[H])C([H])([H])C([H])(C([H])([H])[H])C([H])([H])[H])C([H])([H])C([H])([H])C(=O)N([H])[H])N([H])[H]


 72 72  0  0  0  0  0  0  0  0999 V2000
   11.3005   24.4664   -0.4326 C   0  0  0  0  0  0  0  0  0  0  0  0
   11.2440   23.0927   -0.8420 C   0  0  0  0  0  0  0  0  0  0  0  0
   12.2546   22.5942   -1.4569 O   0  0  0  0  0  0  0  0  0  0  0  0
   10.1678   22.1929   -0.6323 N   0  0  0  0  0  0  0  0  0  0  0  0
    9.3369   22.5312   -0.1374 H   0  0  0  0  0  0  0  0  0  0  0  0
   10.1672   20.7982   -1.0819 C   0  0  0  0  0  0  0  0  0  0  0  0
    8.7597   20.4276   -1.3092 C   0  0  0  0  0  0  0  0  0  0  0  0
    8.4462   20.3313   -2.5587 O   0  0  0  0  0  0  0  0  0  0  0  0
    7.7611   20.1757   -0.3777 N   0  0  0  0  0  0  0  0  0  0  0  0
    7.9347   20.2120    0.6319 H   0  0  0  0  0  0  0  0  0  0  0  0
    6.4111   19.8297   -0.8520 C   0  0  0  0  0  0  0  0  0  0  0  0
    5.3843   20.7413   -0.3706 C   0  0  0  0  0  0  0  0  0  0  0  0
    4.7988   20.8193    0.9018 N   0  0  0  0  0  0  0  0  0  0  0  0
    4.9135   21.6333   -1.2070 O   0  0  0  0  0  0  0  0  0  0  0  0
    4.8584   21.6615    1.5220 H   0  0  0  0  0  0  0  0  0  0  0  0
    4.2576   20.0026    1.2980 H   0  0  0  0  0  0  0  0  0  0  0  0
    6.2139   18.3642   -0.6873 C   0  0  0  0  0  0  0  0  0  0  0  0
    4.8793   17.8286   -0.9719 C   0  0  0  0  0  0  0  0  0  0  0  0
    4.2480   17.0810    0.0025 C   0  0  0  0  0  0  0  0  0  0  0  0
    2.9833   16.5918   -0.2082 C   0  0  0  0  0  0  0  0  0  0  0  0
    2.3203   16.8452   -1.4118 C   0  0  0  0  0  0  0  0  0  0  0  0
    2.9545   17.5978   -2.3942 C   0  0  0  0  0  0  0  0  0  0  0  0
    4.2179   18.0682   -2.1443 C   0  0  0  0  0  0  0  0  0  0  0  0
   10.7950   19.9498    0.0235 C   0  0  0  0  0  0  0  0  0  0  0  0
   10.7473   20.5941    1.3635 C   0  0  0  0  0  0  0  0  0  0  0  0
   12.0359   20.6921    2.0690 C   0  0  0  0  0  0  0  0  0  0  0  0
   12.1433   20.2938    3.4364 N   0  0  0  0  0  0  0  0  0  0  0  0
   13.0559   21.1225    1.5007 O   0  0  0  0  0  0  0  0  0  0  0  0
   11.4796   19.5577    3.7648 H   0  0  0  0  0  0  0  0  0  0  0  0
   12.8254   20.6751    4.1171 H   0  0  0  0  0  0  0  0  0  0  0  0
    9.7454   24.4352    1.5701 C   0  0  0  0  0  0  0  0  0  0  0  0
    8.7367   24.1086    0.8443 O   0  0  0  0  0  0  0  0  0  0  0  0
   11.0219   24.6214    0.9720 N   0  0  0  0  0  0  0  0  0  0  0  0
   11.8085   24.8937    1.5929 H   0  0  0  0  0  0  0  0  0  0  0  0
    9.4800   24.5913    3.0072 C   0  0  0  0  0  0  0  0  0  0  0  0
    8.2887   25.3087    3.2957 N   0  0  0  0  0  0  0  0  0  0  0  0
    8.1078   26.6211    3.7515 C   0  0  0  0  0  0  0  0  0  0  0  0
    9.0641   27.3737    3.9881 O   0  0  0  0  0  0  0  0  0  0  0  0
    7.3758   24.7370    3.1322 H   0  0  0  0  0  0  0  0  0  0  0  0
    6.7352   27.1499    3.9694 C   0  0  0  0  0  0  0  0  0  0  0  0
    6.1730   27.6736    2.7542 N   0  0  0  0  0  0  0  0  0  0  0  0
    6.1781   29.0632    2.4908 C   0  0  0  0  0  0  0  0  0  0  0  0
    6.6797   29.8771    3.3147 O   0  0  0  0  0  0  0  0  0  0  0  0
    5.7586   27.0252    2.0611 H   0  0  0  0  0  0  0  0  0  0  0  0
    5.6013   29.6068    1.2545 C   0  0  0  0  0  0  0  0  0  0  0  0
    5.6309   31.0418    1.2834 N   0  0  0  0  0  0  0  0  0  0  0  0
    6.5863   31.3934    1.4219 H   0  0  0  0  0  0  0  0  0  0  0  0
    5.0166   31.4012    2.0525 H   0  0  0  0  0  0  0  0  0  0  0  0
    6.3688   29.0872    0.0463 C   0  0  0  0  0  0  0  0  0  0  0  0
    5.5335   29.1937   -1.2168 C   0  0  0  0  0  0  0  0  0  0  0  0
    6.4013   29.5673   -2.3431 C   0  0  0  0  0  0  0  0  0  0  0  0
    7.5222   30.3792   -2.1569 O   0  0  0  0  0  0  0  0  0  0  0  0
    6.1466   29.1590   -3.5098 O   0  0  0  0  0  0  0  0  0  0  0  0
    8.4442   29.9813   -2.0685 H   0  0  0  0  0  0  0  0  0  0  0  0
    5.8246   26.1428    4.6489 C   0  0  0  0  0  0  0  0  0  0  0  0
    4.6927   26.9162    5.2844 C   0  0  0  0  0  0  0  0  0  0  0  0
    5.0734   27.6850    6.4745 C   0  0  0  0  0  0  0  0  0  0  0  0
    4.8055   29.0581    6.5595 N   0  0  0  0  0  0  0  0  0  0  0  0
    5.6473   27.1127    7.4351 O   0  0  0  0  0  0  0  0  0  0  0  0
    5.4388   29.6991    6.0256 H   0  0  0  0  0  0  0  0  0  0  0  0
    4.0485   29.5163    7.0950 H   0  0  0  0  0  0  0  0  0  0  0  0
    9.7137   23.3105    3.7382 C   0  0  0  0  0  0  0  0  0  0  0  0
    8.9906   21.7194    5.4597 C   0  0  0  0  0  0  0  0  0  0  0  0
    8.5073   22.6710    4.3498 C   0  0  0  0  0  0  0  0  0  0  0  0
    7.7840   21.8034    3.3205 C   0  0  0  0  0  0  0  0  0  0  0  0
   12.4269   25.3361   -0.8836 C   0  0  0  0  0  0  0  0  0  0  0  0
   12.5058   25.6675   -2.3220 C   0  0  0  0  0  0  0  0  0  0  0  0
   13.7288   25.5118   -3.0706 C   0  0  0  0  0  0  0  0  0  0  0  0
   14.2863   24.1635   -3.1114 N   0  0  0  0  0  0  0  0  0  0  0  0
   14.3957   26.3669   -3.6996 O   0  0  0  0  0  0  0  0  0  0  0  0
   15.0400   23.8661   -2.4865 H   0  0  0  0  0  0  0  0  0  0  0  0
   13.8801   23.5186   -3.8056 H   0  0  0  0  0  0  0  0  0  0  0  0
 63 64  1  0  0  0
 64 65  1  0  0  0
 64 62  1  0  0  0
 62 35  1  0  0  0
 35 36  1  0  0  0
 36 37  1  0  0  0
 37 38  2  0  0  0
 37 40  1  0  0  0
 40 55  1  0  0  0
 55 56  1  0  0  0
 56 57  1  0  0  0
 57 58  1  0  0  0
 57 59  2  0  0  0
 40 41  1  0  0  0
 41 42  1  0  0  0
 42 43  2  0  0  0
 42 45  1  0  0  0
 45 46  1  0  0  0
 45 49  1  0  0  0
 49 50  1  0  0  0
 50 51  1  0  0  0
 51 52  1  0  0  0
 51 53  2  0  0  0
 35 31  1  0  0  0
 31 32  2  0  0  0
 31 33  1  0  0  0
 33  1  1  0  0  0
  1 66  1  0  0  0
 66 67  1  0  0  0
 67 68  1  0  0  0
 68 69  1  0  0  0
 68 70  2  0  0  0
  1  2  1  0  0  0
  2  3  2  0  0  0
  2  4  1  0  0  0
  4  6  1  0  0  0
  6 24  1  0  0  0
 24 25  1  0  0  0
 25 26  1  0  0  0
 26 27  1  0  0  0
 26 28  2  0  0  0
  6  7  1  0  0  0
  7  8  2  0  0  0
  7  9  1  0  0  0
  9 11  1  0  0  0
 11 17  1  0  0  0
 17 18  1  0  0  0
 18 19  2  0  0  0
 19 20  1  0  0  0
 20 21  2  0  0  0
 21 22  1  0  0  0
 22 23  2  0  0  0
 11 12  1  0  0  0
 12 13  1  0  0  0
 12 14  2  0  0  0
 23 18  1  0  0  0
 36 39  1  0  0  0
 58 60  1  0  0  0
 58 61  1  0  0  0
 41 44  1  0  0  0
 46 47  1  0  0  0
 46 48  1  0  0  0
 52 54  1  0  0  0
 33 34  1  0  0  0
 69 71  1  0  0  0
 69 72  1  0  0  0
  4  5  1  0  0  0
 27 29  1  0  0  0
 27 30  1  0  0  0
  9 10  1  0  0  0
 13 15  1  0  0  0
 13 16  1  0  0  0
M  END
> <minimizedAffinity>
-8.10980

> <CNNscore>
0.0770197883

> <CNNaffinity>
6.8214120865

> <CNN_VS>
0.5253837109

> <CNNaffinity_variance>
0.7025892138

$$$$
[H]OC(=O)C([H])([H])C([H])([H])[C@@]([H])(C(=O)N([H])[C@]([H])(C(=O)N([H])[C@]([H])(C(=O)N([H])[C@]([H])(C(=O)N([H])[C@]([H])(C(=O)N([H])[C@]([H])(C(=O)N([H])[H])C([H])([H])c1c([H])c([H])c([H])c([H])c1[H])C([H])([H])C([H])([H])C(=O)N([H])[H])C([H])([H])C([H])([H])C(=O)N([H])[H])C([H])([H])C([H])(C([H])([H])[H])C([H])([H])[H])C([H])([H])C([H])([H])C(=O)N([H])[H])N([H])[H]


 72 72  0  0  0  0  0  0  0  0999 V2000
   10.0652   20.9115   -0.8473 C   0  0  0  0  0  0  0  0  0  0  0  0
    8.7134   20.4321   -0.8166 C   0  0  0  0  0  0  0  0  0  0  0  0
    8.4987   19.2278   -0.4274 O   0  0  0  0  0  0  0  0  0  0  0  0
    7.5506   21.1623   -1.1719 N   0  0  0  0  0  0  0  0  0  0  0  0
    7.6582   22.1332   -1.4808 H   0  0  0  0  0  0  0  0  0  0  0  0
    6.1928   20.6130   -1.1255 C   0  0  0  0  0  0  0  0  0  0  0  0
    5.7403   20.7209    0.2722 C   0  0  0  0  0  0  0  0  0  0  0  0
    4.7594   21.5456    0.4355 O   0  0  0  0  0  0  0  0  0  0  0  0
    6.2204   20.0665    1.3990 N   0  0  0  0  0  0  0  0  0  0  0  0
    6.9826   19.3828    1.3498 H   0  0  0  0  0  0  0  0  0  0  0  0
    5.6068   20.3501    2.7067 C   0  0  0  0  0  0  0  0  0  0  0  0
    6.4223   21.2149    3.5460 C   0  0  0  0  0  0  0  0  0  0  0  0
    7.8163   21.3714    3.5614 N   0  0  0  0  0  0  0  0  0  0  0  0
    5.8116   21.9740    4.4222 O   0  0  0  0  0  0  0  0  0  0  0  0
    8.3054   22.2741    3.3536 H   0  0  0  0  0  0  0  0  0  0  0  0
    8.4485   20.5559    3.7898 H   0  0  0  0  0  0  0  0  0  0  0  0
    5.0859   19.0754    3.2703 C   0  0  0  0  0  0  0  0  0  0  0  0
    4.4034   18.1616    2.3492 C   0  0  0  0  0  0  0  0  0  0  0  0
    4.9852   16.9375    2.0841 C   0  0  0  0  0  0  0  0  0  0  0  0
    4.3619   16.0373    1.2568 C   0  0  0  0  0  0  0  0  0  0  0  0
    3.1313   16.3497    0.6737 C   0  0  0  0  0  0  0  0  0  0  0  0
    2.5440   17.5818    0.9395 C   0  0  0  0  0  0  0  0  0  0  0  0
    3.1991   18.4529    1.7713 C   0  0  0  0  0  0  0  0  0  0  0  0
    6.2621   19.1547   -1.5776 C   0  0  0  0  0  0  0  0  0  0  0  0
    4.9275   18.5528   -1.8416 C   0  0  0  0  0  0  0  0  0  0  0  0
    3.9866   19.3970   -2.5966 C   0  0  0  0  0  0  0  0  0  0  0  0
    4.3363   19.8897   -3.8907 N   0  0  0  0  0  0  0  0  0  0  0  0
    2.8735   19.7038   -2.1323 O   0  0  0  0  0  0  0  0  0  0  0  0
    5.0058   19.3136   -4.4477 H   0  0  0  0  0  0  0  0  0  0  0  0
    3.9763   20.7648   -4.3134 H   0  0  0  0  0  0  0  0  0  0  0  0
   10.2162   22.7683    0.8730 C   0  0  0  0  0  0  0  0  0  0  0  0
   10.1914   21.9334    1.8492 O   0  0  0  0  0  0  0  0  0  0  0  0
   10.1534   22.2980   -0.4674 N   0  0  0  0  0  0  0  0  0  0  0  0
   10.1671   23.0065   -1.2266 H   0  0  0  0  0  0  0  0  0  0  0  0
   10.3125   24.1875    1.2427 C   0  0  0  0  0  0  0  0  0  0  0  0
    9.8746   24.4666    2.5646 N   0  0  0  0  0  0  0  0  0  0  0  0
    8.5794   24.5891    3.0844 C   0  0  0  0  0  0  0  0  0  0  0  0
    7.5705   24.4663    2.3744 O   0  0  0  0  0  0  0  0  0  0  0  0
   10.6842   24.6052    3.2804 H   0  0  0  0  0  0  0  0  0  0  0  0
    8.3826   24.8789    4.5296 C   0  0  0  0  0  0  0  0  0  0  0  0
    9.1305   23.9706    5.3559 N   0  0  0  0  0  0  0  0  0  0  0  0
    8.5670   23.4278    6.5341 C   0  0  0  0  0  0  0  0  0  0  0  0
    7.3921   23.7247    6.8868 O   0  0  0  0  0  0  0  0  0  0  0  0
   10.0954   23.7092    5.0853 H   0  0  0  0  0  0  0  0  0  0  0  0
    9.3260   22.5036    7.3863 C   0  0  0  0  0  0  0  0  0  0  0  0
    8.4626   21.9158    8.3712 N   0  0  0  0  0  0  0  0  0  0  0  0
    7.6685   21.4337    7.9323 H   0  0  0  0  0  0  0  0  0  0  0  0
    8.1011   22.6531    9.0221 H   0  0  0  0  0  0  0  0  0  0  0  0
    9.9723   21.4184    6.5357 C   0  0  0  0  0  0  0  0  0  0  0  0
    9.5068   20.0391    6.9663 C   0  0  0  0  0  0  0  0  0  0  0  0
    9.4737   19.1502    5.7959 C   0  0  0  0  0  0  0  0  0  0  0  0
   10.6358   18.5473    5.3098 O   0  0  0  0  0  0  0  0  0  0  0  0
    8.3852   18.9143    5.2022 O   0  0  0  0  0  0  0  0  0  0  0  0
   10.8703   17.5974    5.5531 H   0  0  0  0  0  0  0  0  0  0  0  0
    8.6462   26.3343    4.8725 C   0  0  0  0  0  0  0  0  0  0  0  0
    7.3039   27.0112    5.0247 C   0  0  0  0  0  0  0  0  0  0  0  0
    6.8220   27.6866    3.8147 C   0  0  0  0  0  0  0  0  0  0  0  0
    5.7912   27.1320    3.0439 N   0  0  0  0  0  0  0  0  0  0  0  0
    7.3344   28.7773    3.4576 O   0  0  0  0  0  0  0  0  0  0  0  0
    6.0454   26.3335    2.4156 H   0  0  0  0  0  0  0  0  0  0  0  0
    4.7991   27.4239    3.0223 H   0  0  0  0  0  0  0  0  0  0  0  0
   11.6168   24.7685    0.8059 C   0  0  0  0  0  0  0  0  0  0  0  0
   13.7140   24.1851   -0.3251 C   0  0  0  0  0  0  0  0  0  0  0  0
   12.1820   24.2329   -0.4717 C   0  0  0  0  0  0  0  0  0  0  0  0
   11.8874   25.1886   -1.6272 C   0  0  0  0  0  0  0  0  0  0  0  0
   11.1632   20.0928   -0.2534 C   0  0  0  0  0  0  0  0  0  0  0  0
   12.4806   20.7382   -0.0718 C   0  0  0  0  0  0  0  0  0  0  0  0
   13.4837   20.7202   -1.1080 C   0  0  0  0  0  0  0  0  0  0  0  0
   14.8581   20.5093   -0.6639 N   0  0  0  0  0  0  0  0  0  0  0  0
   13.3560   20.8599   -2.3473 O   0  0  0  0  0  0  0  0  0  0  0  0
   15.5118   21.2844   -0.5272 H   0  0  0  0  0  0  0  0  0  0  0  0
   15.1412   19.5330   -0.4919 H   0  0  0  0  0  0  0  0  0  0  0  0
 63 64  1  0  0  0
 64 65  1  0  0  0
 64 62  1  0  0  0
 62 35  1  0  0  0
 35 36  1  0  0  0
 36 37  1  0  0  0
 37 38  2  0  0  0
 37 40  1  0  0  0
 40 55  1  0  0  0
 55 56  1  0  0  0
 56 57  1  0  0  0
 57 58  1  0  0  0
 57 59  2  0  0  0
 40 41  1  0  0  0
 41 42  1  0  0  0
 42 43  2  0  0  0
 42 45  1  0  0  0
 45 46  1  0  0  0
 45 49  1  0  0  0
 49 50  1  0  0  0
 50 51  1  0  0  0
 51 52  1  0  0  0
 51 53  2  0  0  0
 35 31  1  0  0  0
 31 32  2  0  0  0
 31 33  1  0  0  0
 33  1  1  0  0  0
  1 66  1  0  0  0
 66 67  1  0  0  0
 67 68  1  0  0  0
 68 69  1  0  0  0
 68 70  2  0  0  0
  1  2  1  0  0  0
  2  3  2  0  0  0
  2  4  1  0  0  0
  4  6  1  0  0  0
  6 24  1  0  0  0
 24 25  1  0  0  0
 25 26  1  0  0  0
 26 27  1  0  0  0
 26 28  2  0  0  0
  6  7  1  0  0  0
  7  8  2  0  0  0
  7  9  1  0  0  0
  9 11  1  0  0  0
 11 17  1  0  0  0
 17 18  1  0  0  0
 18 19  2  0  0  0
 19 20  1  0  0  0
 20 21  2  0  0  0
 21 22  1  0  0  0
 22 23  2  0  0  0
 11 12  1  0  0  0
 12 13  1  0  0  0
 12 14  2  0  0  0
 23 18  1  0  0  0
 36 39  1  0  0  0
 58 60  1  0  0  0
 58 61  1  0  0  0
 41 44  1  0  0  0
 46 47  1  0  0  0
 46 48  1  0  0  0
 52 54  1  0  0  0
 33 34  1  0  0  0
 69 71  1  0  0  0
 69 72  1  0  0  0
  4  5  1  0  0  0
 27 29  1  0  0  0
 27 30  1  0  0  0
  9 10  1  0  0  0
 13 15  1  0  0  0
 13 16  1  0  0  0
M  END
> <minimizedAffinity>
-7.36324

> <CNNscore>
0.0736603364

> <CNNaffinity>
6.7709136009

> <CNN_VS>
0.4987477660

> <CNNaffinity_variance>
1.6924207211

$$$$
[H]OC(=O)c1c([H])c([H])c(-c2c([H])nc(N3C([H])([H])[C@@]4([H])N(C([H])([H])[H])C([H])([H])[C@@]3([H])C4([H])[H])c([H])c2[H])c([H])c1[H]


 24 27  0  0  0  0  0  0  0  0999 V2000
   12.8619   23.7320   -0.4591 C   0  0  0  0  0  0  0  0  0  0  0  0
   14.3162   23.5731   -0.7905 C   0  0  0  0  0  0  0  0  0  0  0  0
   14.9277   24.3872   -1.8920 C   0  0  0  0  0  0  0  0  0  0  0  0
   14.0850   25.3601   -2.6621 C   0  0  0  0  0  0  0  0  0  0  0  0
   12.6306   25.5191   -2.3307 C   0  0  0  0  0  0  0  0  0  0  0  0
   12.0191   24.7050   -1.2292 N   0  0  0  0  0  0  0  0  0  0  0  0
   10.1028   20.7448    4.2307 C   0  0  0  0  0  0  0  0  0  0  0  0
   10.7143   21.5588    3.1292 N   0  0  0  0  0  0  0  0  0  0  0  0
   10.4568   23.0117    2.8594 C   0  0  0  0  0  0  0  0  0  0  0  0
   11.2741   23.4138    1.6675 C   0  0  0  0  0  0  0  0  0  0  0  0
   12.0366   22.2094    1.2007 C   0  0  0  0  0  0  0  0  0  0  0  0
   11.6906   21.0630    2.1041 C   0  0  0  0  0  0  0  0  0  0  0  0
   12.5079   21.4650    0.9122 C   0  0  0  0  0  0  0  0  0  0  0  0
   12.2504   22.9179    0.6424 N   0  0  0  0  0  0  0  0  0  0  0  0
   14.6965   26.1742   -3.7636 C   0  0  0  0  0  0  0  0  0  0  0  0
   15.6833   27.2558   -3.4378 C   0  0  0  0  0  0  0  0  0  0  0  0
   16.2948   28.0699   -4.5393 C   0  0  0  0  0  0  0  0  0  0  0  0
   15.9195   27.8024   -5.9667 C   0  0  0  0  0  0  0  0  0  0  0  0
   14.9327   26.7207   -6.2926 C   0  0  0  0  0  0  0  0  0  0  0  0
   14.3211   25.9066   -5.1911 C   0  0  0  0  0  0  0  0  0  0  0  0
   16.5310   28.6164   -7.0682 C   0  0  0  0  0  0  0  0  0  0  0  0
   16.7440   28.0066   -8.4219 O   0  0  0  0  0  0  0  0  0  0  0  0
   16.9296   30.0404   -6.8159 O   0  0  0  0  0  0  0  0  0  0  0  0
   17.3555   28.8207   -9.5235 H   0  0  0  0  0  0  0  0  0  0  0  0
  7  8  1  0  0  0
  8  9  1  0  0  0
  9 10  1  0  0  0
 10 11  1  0  0  0
 11 12  1  0  0  0
 12 13  1  0  0  0
 13 14  1  0  0  0
 14  1  1  0  0  0
  1  2  2  0  0  0
  2  3  1  0  0  0
  3  4  2  0  0  0
  4  5  1  0  0  0
  5  6  2  0  0  0
  4 15  1  0  0  0
 15 16  2  0  0  0
 16 17  1  0  0  0
 17 18  2  0  0  0
 18 19  1  0  0  0
 19 20  2  0  0  0
 18 21  1  0  0  0
 21 22  1  0  0  0
 21 23  2  0  0  0
 12  8  1  0  0  0
  6  1  1  0  0  0
 20 15  1  0  0  0
 14 10  1  0  0  0
 22 24  1  0  0  0
M  END
> <minimizedAffinity>
0.73476

> <CNNscore>
0.5322408676

> <CNNaffinity>
6.2142896652

> <CNN_VS>
3.3074989319

> <CNNaffinity_variance>
0.3732978106

$$$$
[H]OC(=O)c1c([H])c([H])c(-c2c([H])nc(N3C([H])([H])[C@@]4([H])N(C([H])([H])[H])C([H])([H])[C@@]3([H])C4([H])[H])c([H])c2[H])c([H])c1[H]


 24 27  0  0  0  0  0  0  0  0999 V2000
   12.1727   27.7689   -3.2289 C   0  0  0  0  0  0  0  0  0  0  0  0
   13.1113   26.9154   -4.0292 C   0  0  0  0  0  0  0  0  0  0  0  0
   13.7242   25.6931   -3.4125 C   0  0  0  0  0  0  0  0  0  0  0  0
   13.3986   25.3244   -1.9955 C   0  0  0  0  0  0  0  0  0  0  0  0
   12.4600   26.1779   -1.1951 C   0  0  0  0  0  0  0  0  0  0  0  0
   11.8470   27.4001   -1.8118 N   0  0  0  0  0  0  0  0  0  0  0  0
    9.3145   32.5499   -5.9682 C   0  0  0  0  0  0  0  0  0  0  0  0
    9.9275   31.3277   -5.3515 N   0  0  0  0  0  0  0  0  0  0  0  0
    9.4277   29.9210   -5.4980 C   0  0  0  0  0  0  0  0  0  0  0  0
   10.3392   29.0214   -4.7171 C   0  0  0  0  0  0  0  0  0  0  0  0
   11.4024   29.8721   -4.0879 C   0  0  0  0  0  0  0  0  0  0  0  0
   11.1480   31.2974   -4.4800 C   0  0  0  0  0  0  0  0  0  0  0  0
   12.0596   30.3979   -3.6990 C   0  0  0  0  0  0  0  0  0  0  0  0
   11.5597   28.9912   -3.8456 N   0  0  0  0  0  0  0  0  0  0  0  0
   14.0116   24.1021   -1.3788 C   0  0  0  0  0  0  0  0  0  0  0  0
   13.7531   22.7507   -1.9761 C   0  0  0  0  0  0  0  0  0  0  0  0
   14.3660   21.5284   -1.3594 C   0  0  0  0  0  0  0  0  0  0  0  0
   15.2376   21.6575   -0.1455 C   0  0  0  0  0  0  0  0  0  0  0  0
   15.4962   23.0090    0.4519 C   0  0  0  0  0  0  0  0  0  0  0  0
   14.8832   24.2313   -0.1648 C   0  0  0  0  0  0  0  0  0  0  0  0
   15.8506   20.4353    0.4712 C   0  0  0  0  0  0  0  0  0  0  0  0
   16.9750   20.5747    1.4542 O   0  0  0  0  0  0  0  0  0  0  0  0
   15.3391   19.0735    0.1049 O   0  0  0  0  0  0  0  0  0  0  0  0
   17.5880   19.3524    2.0708 H   0  0  0  0  0  0  0  0  0  0  0  0
  7  8  1  0  0  0
  8  9  1  0  0  0
  9 10  1  0  0  0
 10 11  1  0  0  0
 11 12  1  0  0  0
 12 13  1  0  0  0
 13 14  1  0  0  0
 14  1  1  0  0  0
  1  2  2  0  0  0
  2  3  1  0  0  0
  3  4  2  0  0  0
  4  5  1  0  0  0
  5  6  2  0  0  0
  4 15  1  0  0  0
 15 16  2  0  0  0
 16 17  1  0  0  0
 17 18  2  0  0  0
 18 19  1  0  0  0
 19 20  2  0  0  0
 18 21  1  0  0  0
 21 22  1  0  0  0
 21 23  2  0  0  0
 12  8  1  0  0  0
  6  1  1  0  0  0
 20 15  1  0  0  0
 14 10  1  0  0  0
 22 24  1  0  0  0
M  END
> <minimizedAffinity>
23.97666

> <CNNscore>
0.4830707014

> <CNNaffinity>
5.5429987907

> <CNN_VS>
2.6776602268

> <CNNaffinity_variance>
0.5360090733

$$$$
[H]OC(=O)c1c([H])c([H])c(-c2c([H])nc(N3C([H])([H])[C@@]4([H])N(C([H])([H])[H])C([H])([H])[C@@]3([H])C4([H])[H])c([H])c2[H])c([H])c1[H]


 24 27  0  0  0  0  0  0  0  0999 V2000
   12.4065   23.0456    1.1642 C   0  0  0  0  0  0  0  0  0  0  0  0
   13.2178   24.1827    1.7106 C   0  0  0  0  0  0  0  0  0  0  0  0
   14.0700   25.0060    0.7908 C   0  0  0  0  0  0  0  0  0  0  0  0
   14.1109   24.6921   -0.6754 C   0  0  0  0  0  0  0  0  0  0  0  0
   13.2995   23.5549   -1.2218 C   0  0  0  0  0  0  0  0  0  0  0  0
   12.4473   22.7317   -0.3021 N   0  0  0  0  0  0  0  0  0  0  0  0
    9.1550   19.2780    4.8742 C   0  0  0  0  0  0  0  0  0  0  0  0
   10.0072   20.1012    3.9544 N   0  0  0  0  0  0  0  0  0  0  0  0
   11.2028   19.6157    3.1896 C   0  0  0  0  0  0  0  0  0  0  0  0
   11.7480   20.7689    2.4004 C   0  0  0  0  0  0  0  0  0  0  0  0
   10.8894   21.9673    2.6776 C   0  0  0  0  0  0  0  0  0  0  0  0
    9.8136   21.5546    3.6379 C   0  0  0  0  0  0  0  0  0  0  0  0
   10.3587   22.7080    2.8488 C   0  0  0  0  0  0  0  0  0  0  0  0
   11.5543   22.2223    2.0840 N   0  0  0  0  0  0  0  0  0  0  0  0
   14.9631   25.5154   -1.5951 C   0  0  0  0  0  0  0  0  0  0  0  0
   14.7483   25.4474   -3.0781 C   0  0  0  0  0  0  0  0  0  0  0  0
   15.6005   26.2707   -3.9979 C   0  0  0  0  0  0  0  0  0  0  0  0
   16.6675   27.1619   -3.4347 C   0  0  0  0  0  0  0  0  0  0  0  0
   16.8823   27.2299   -1.9516 C   0  0  0  0  0  0  0  0  0  0  0  0
   16.0301   26.4066   -1.0319 C   0  0  0  0  0  0  0  0  0  0  0  0
   17.5197   27.9852   -4.3545 C   0  0  0  0  0  0  0  0  0  0  0  0
   18.7240   28.7022   -3.8200 O   0  0  0  0  0  0  0  0  0  0  0  0
   17.1676   28.0914   -5.8087 O   0  0  0  0  0  0  0  0  0  0  0  0
   19.5762   29.5254   -4.7398 H   0  0  0  0  0  0  0  0  0  0  0  0
  7  8  1  0  0  0
  8  9  1  0  0  0
  9 10  1  0  0  0
 10 11  1  0  0  0
 11 12  1  0  0  0
 12 13  1  0  0  0
 13 14  1  0  0  0
 14  1  1  0  0  0
  1  2  2  0  0  0
  2  3  1  0  0  0
  3  4  2  0  0  0
  4  5  1  0  0  0
  5  6  2  0  0  0
  4 15  1  0  0  0
 15 16  2  0  0  0
 16 17  1  0  0  0
 17 18  2  0  0  0
 18 19  1  0  0  0
 19 20  2  0  0  0
 18 21  1  0  0  0
 21 22  1  0  0  0
 21 23  2  0  0  0
 12  8  1  0  0  0
  6  1  1  0  0  0
 20 15  1  0  0  0
 14 10  1  0  0  0
 22 24  1  0  0  0
M  END
> <minimizedAffinity>
0.03900

> <CNNscore>
0.4364350438

> <CNNaffinity>
5.7937698364

> <CNN_VS>
2.5286042690

> <CNNaffinity_variance>
0.5747768283

$$$$
[H]OC(=O)c1c([H])c([H])c(-c2c([H])nc(N3C([H])([H])[C@@]4([H])N(C([H])([H])[H])C([H])([H])[C@@]3([H])C4([H])[H])c([H])c2[H])c([H])c1[H]


 24 27  0  0  0  0  0  0  0  0999 V2000
   13.4460   25.0735   -2.6615 C   0  0  0  0  0  0  0  0  0  0  0  0
   12.2832   25.6931   -1.9446 C   0  0  0  0  0  0  0  0  0  0  0  0
   11.6377   26.9313   -2.4925 C   0  0  0  0  0  0  0  0  0  0  0  0
   12.1551   27.5500   -3.7572 C   0  0  0  0  0  0  0  0  0  0  0  0
   13.3179   26.9304   -4.4742 C   0  0  0  0  0  0  0  0  0  0  0  0
   13.9634   25.6921   -3.9263 N   0  0  0  0  0  0  0  0  0  0  0  0
   15.7236   19.8679   -0.1625 C   0  0  0  0  0  0  0  0  0  0  0  0
   15.0782   21.1062   -0.7103 N   0  0  0  0  0  0  0  0  0  0  0  0
   13.6885   21.5834   -0.4086 C   0  0  0  0  0  0  0  0  0  0  0  0
   13.4605   22.8567   -1.1679 C   0  0  0  0  0  0  0  0  0  0  0  0
   14.7093   23.1666   -1.9389 C   0  0  0  0  0  0  0  0  0  0  0  0
   15.7091   22.0847   -1.6561 C   0  0  0  0  0  0  0  0  0  0  0  0
   15.4812   23.3581   -2.4154 C   0  0  0  0  0  0  0  0  0  0  0  0
   14.0914   23.8352   -2.1137 N   0  0  0  0  0  0  0  0  0  0  0  0
   11.5096   28.7882   -4.3050 C   0  0  0  0  0  0  0  0  0  0  0  0
   10.3527   28.6743   -5.2530 C   0  0  0  0  0  0  0  0  0  0  0  0
    9.7073   29.9126   -5.8008 C   0  0  0  0  0  0  0  0  0  0  0  0
   10.2187   31.2647   -5.4007 C   0  0  0  0  0  0  0  0  0  0  0  0
   11.3757   31.3787   -4.4528 C   0  0  0  0  0  0  0  0  0  0  0  0
   12.0211   30.1404   -3.9049 C   0  0  0  0  0  0  0  0  0  0  0  0
    9.5733   32.5030   -5.9486 C   0  0  0  0  0  0  0  0  0  0  0  0
    9.1512   33.6025   -5.0197 O   0  0  0  0  0  0  0  0  0  0  0  0
    9.3499   32.6417   -7.4254 O   0  0  0  0  0  0  0  0  0  0  0  0
    8.5057   34.8407   -5.5675 H   0  0  0  0  0  0  0  0  0  0  0  0
  7  8  1  0  0  0
  8  9  1  0  0  0
  9 10  1  0  0  0
 10 11  1  0  0  0
 11 12  1  0  0  0
 12 13  1  0  0  0
 13 14  1  0  0  0
 14  1  1  0  0  0
  1  2  2  0  0  0
  2  3  1  0  0  0
  3  4  2  0  0  0
  4  5  1  0  0  0
  5  6  2  0  0  0
  4 15  1  0  0  0
 15 16  2  0  0  0
 16 17  1  0  0  0
 17 18  2  0  0  0
 18 19  1  0  0  0
 19 20  2  0  0  0
 18 21  1  0  0  0
 21 22  1  0  0  0
 21 23  2  0  0  0
 12  8  1  0  0  0
  6  1  1  0  0  0
 20 15  1  0  0  0
 14 10  1  0  0  0
 22 24  1  0  0  0
M  END
> <minimizedAffinity>
25.89476

> <CNNscore>
0.4318522513

> <CNNaffinity>
5.6478018761

> <CNN_VS>
2.4390158653

> <CNNaffinity_variance>
1.2063237429

$$$$
[H]OC(=O)c1c([H])c([H])c(-c2c([H])nc(N3C([H])([H])[C@@]4([H])N(C([H])([H])[H])C([H])([H])[C@@]3([H])C4([H])[H])c([H])c2[H])c([H])c1[H]


 24 27  0  0  0  0  0  0  0  0999 V2000
   11.8496   22.5120    0.8500 C   0  0  0  0  0  0  0  0  0  0  0  0
   11.5006   23.9521    0.6173 C   0  0  0  0  0  0  0  0  0  0  0  0
   12.1082   24.6942   -0.5360 C   0  0  0  0  0  0  0  0  0  0  0  0
   13.0648   23.9961   -1.4567 C   0  0  0  0  0  0  0  0  0  0  0  0
   13.4139   22.5559   -1.2239 C   0  0  0  0  0  0  0  0  0  0  0  0
   12.8063   21.8139   -0.0706 N   0  0  0  0  0  0  0  0  0  0  0  0
    9.7032   19.1589    5.6124 C   0  0  0  0  0  0  0  0  0  0  0  0
   10.3107   19.9009    4.4590 N   0  0  0  0  0  0  0  0  0  0  0  0
   11.6125   19.5753    3.7886 C   0  0  0  0  0  0  0  0  0  0  0  0
   11.8295   20.5720    2.6888 C   0  0  0  0  0  0  0  0  0  0  0  0
   10.6619   21.5136    2.6796 C   0  0  0  0  0  0  0  0  0  0  0  0
    9.7233   21.0989    3.7736 C   0  0  0  0  0  0  0  0  0  0  0  0
    9.9403   22.0956    2.6738 C   0  0  0  0  0  0  0  0  0  0  0  0
   11.2421   21.7700    2.0034 N   0  0  0  0  0  0  0  0  0  0  0  0
   13.6724   24.7382   -2.6100 C   0  0  0  0  0  0  0  0  0  0  0  0
   13.1227   26.0735   -3.0159 C   0  0  0  0  0  0  0  0  0  0  0  0
   13.7303   26.8155   -4.1692 C   0  0  0  0  0  0  0  0  0  0  0  0
   14.8875   26.2223   -4.9167 C   0  0  0  0  0  0  0  0  0  0  0  0
   15.4373   24.8869   -4.5108 C   0  0  0  0  0  0  0  0  0  0  0  0
   14.8297   24.1449   -3.3575 C   0  0  0  0  0  0  0  0  0  0  0  0
   15.4951   26.9644   -6.0700 C   0  0  0  0  0  0  0  0  0  0  0  0
   15.8064   26.2412   -7.3468 O   0  0  0  0  0  0  0  0  0  0  0  0
   15.7914   28.4297   -5.9466 O   0  0  0  0  0  0  0  0  0  0  0  0
   16.4139   26.9832   -8.5001 H   0  0  0  0  0  0  0  0  0  0  0  0
  7  8  1  0  0  0
  8  9  1  0  0  0
  9 10  1  0  0  0
 10 11  1  0  0  0
 11 12  1  0  0  0
 12 13  1  0  0  0
 13 14  1  0  0  0
 14  1  1  0  0  0
  1  2  2  0  0  0
  2  3  1  0  0  0
  3  4  2  0  0  0
  4  5  1  0  0  0
  5  6  2  0  0  0
  4 15  1  0  0  0
 15 16  2  0  0  0
 16 17  1  0  0  0
 17 18  2  0  0  0
 18 19  1  0  0  0
 19 20  2  0  0  0
 18 21  1  0  0  0
 21 22  1  0  0  0
 21 23  2  0  0  0
 12  8  1  0  0  0
  6  1  1  0  0  0
 20 15  1  0  0  0
 14 10  1  0  0  0
 22 24  1  0  0  0
M  END
> <minimizedAffinity>
-10.00639

> <CNNscore>
0.4145236909

> <CNNaffinity>
6.0890150070

> <CNN_VS>
2.5240409374

> <CNNaffinity_variance>
0.0990094543

$$$$
[H]OC(=O)c1c([H])c([H])c(-c2c([H])nc(N3C([H])([H])[C@@]4([H])N(C([H])([H])[H])C([H])([H])[C@@]3([H])C4([H])[H])c([H])c2[H])c([H])c1[H]


 24 27  0  0  0  0  0  0  0  0999 V2000
   11.8569   22.4981    0.8606 C   0  0  0  0  0  0  0  0  0  0  0  0
   11.6278   23.9733    0.7152 C   0  0  0  0  0  0  0  0  0  0  0  0
   12.2358   24.7168   -0.4370 C   0  0  0  0  0  0  0  0  0  0  0  0
   13.0731   23.9851   -1.4437 C   0  0  0  0  0  0  0  0  0  0  0  0
   13.3023   22.5098   -1.2983 C   0  0  0  0  0  0  0  0  0  0  0  0
   12.6942   21.7663   -0.1462 N   0  0  0  0  0  0  0  0  0  0  0  0
    9.7043   19.1341    5.6124 C   0  0  0  0  0  0  0  0  0  0  0  0
   10.3124   19.8776    4.4603 N   0  0  0  0  0  0  0  0  0  0  0  0
   11.6038   19.5399    3.7761 C   0  0  0  0  0  0  0  0  0  0  0  0
   11.8254   20.5429    2.6830 C   0  0  0  0  0  0  0  0  0  0  0  0
   10.6709   21.5005    2.6916 C   0  0  0  0  0  0  0  0  0  0  0  0
    9.7358   21.0893    3.7900 C   0  0  0  0  0  0  0  0  0  0  0  0
    9.9573   22.0924    2.6969 C   0  0  0  0  0  0  0  0  0  0  0  0
   11.2488   21.7546    2.0127 N   0  0  0  0  0  0  0  0  0  0  0  0
   13.6812   24.7286   -2.5959 C   0  0  0  0  0  0  0  0  0  0  0  0
   14.8285   24.1292   -3.3536 C   0  0  0  0  0  0  0  0  0  0  0  0
   15.4366   24.8727   -4.5057 C   0  0  0  0  0  0  0  0  0  0  0  0
   14.8974   26.2156   -4.9001 C   0  0  0  0  0  0  0  0  0  0  0  0
   13.7500   26.8152   -4.1424 C   0  0  0  0  0  0  0  0  0  0  0  0
   13.1419   26.0717   -2.9902 C   0  0  0  0  0  0  0  0  0  0  0  0
   15.5054   26.9591   -6.0523 C   0  0  0  0  0  0  0  0  0  0  0  0
   15.7989   28.4248   -5.9280 O   0  0  0  0  0  0  0  0  0  0  0  0
   15.8200   26.2368   -7.3288 O   0  0  0  0  0  0  0  0  0  0  0  0
   16.4070   29.1683   -7.0801 H   0  0  0  0  0  0  0  0  0  0  0  0
  7  8  1  0  0  0
  8  9  1  0  0  0
  9 10  1  0  0  0
 10 11  1  0  0  0
 11 12  1  0  0  0
 12 13  1  0  0  0
 13 14  1  0  0  0
 14  1  1  0  0  0
  1  2  2  0  0  0
  2  3  1  0  0  0
  3  4  2  0  0  0
  4  5  1  0  0  0
  5  6  2  0  0  0
  4 15  1  0  0  0
 15 16  2  0  0  0
 16 17  1  0  0  0
 17 18  2  0  0  0
 18 19  1  0  0  0
 19 20  2  0  0  0
 18 21  1  0  0  0
 21 22  1  0  0  0
 21 23  2  0  0  0
 12  8  1  0  0  0
  6  1  1  0  0  0
 20 15  1  0  0  0
 14 10  1  0  0  0
 22 24  1  0  0  0
M  END
> <minimizedAffinity>
-9.95823

> <CNNscore>
0.3963402212

> <CNNaffinity>
6.0777521133

> <CNN_VS>
2.4088575840

> <CNNaffinity_variance>
0.1061282903

$$$$
[H]OC(=O)c1c([H])c([H])c(-c2c([H])nc(N3C([H])([H])[C@@]4([H])N(C([H])([H])[H])C([H])([H])[C@@]3([H])C4([H])[H])c([H])c2[H])c([H])c1[H]


 24 27  0  0  0  0  0  0  0  0999 V2000
   11.2442   22.7869    1.1580 C   0  0  0  0  0  0  0  0  0  0  0  0
   10.5383   23.6761    0.1778 C   0  0  0  0  0  0  0  0  0  0  0  0
   11.3239   24.4176   -0.8629 C   0  0  0  0  0  0  0  0  0  0  0  0
   12.8153   24.2700   -0.9233 C   0  0  0  0  0  0  0  0  0  0  0  0
   13.5213   23.3808    0.0570 C   0  0  0  0  0  0  0  0  0  0  0  0
   12.7358   22.6392    1.0976 N   0  0  0  0  0  0  0  0  0  0  0  0
    8.3939   19.5364    5.6123 C   0  0  0  0  0  0  0  0  0  0  0  0
    9.1794   20.2780    4.5717 N   0  0  0  0  0  0  0  0  0  0  0  0
   10.6656   20.2158    4.3783 C   0  0  0  0  0  0  0  0  0  0  0  0
   11.0214   21.1113    3.2288 C   0  0  0  0  0  0  0  0  0  0  0  0
    9.7551   21.7270    2.7116 C   0  0  0  0  0  0  0  0  0  0  0  0
    8.6167   21.2120    3.5416 C   0  0  0  0  0  0  0  0  0  0  0  0
    8.9724   22.1076    2.3920 C   0  0  0  0  0  0  0  0  0  0  0  0
   10.4587   22.0453    2.1987 N   0  0  0  0  0  0  0  0  0  0  0  0
   13.6009   25.0115   -1.9640 C   0  0  0  0  0  0  0  0  0  0  0  0
   15.0864   24.8257   -2.0561 C   0  0  0  0  0  0  0  0  0  0  0  0
   15.8720   25.5672   -3.0968 C   0  0  0  0  0  0  0  0  0  0  0  0
   15.1720   26.4947   -4.0454 C   0  0  0  0  0  0  0  0  0  0  0  0
   13.6863   26.6806   -3.9533 C   0  0  0  0  0  0  0  0  0  0  0  0
   12.9008   25.9390   -2.9126 C   0  0  0  0  0  0  0  0  0  0  0  0
   15.9575   27.2362   -5.0860 C   0  0  0  0  0  0  0  0  0  0  0  0
   15.6202   27.0725   -6.5384 O   0  0  0  0  0  0  0  0  0  0  0  0
   17.0805   28.1415   -4.6743 O   0  0  0  0  0  0  0  0  0  0  0  0
   16.4057   27.8141   -7.5791 H   0  0  0  0  0  0  0  0  0  0  0  0
  7  8  1  0  0  0
  8  9  1  0  0  0
  9 10  1  0  0  0
 10 11  1  0  0  0
 11 12  1  0  0  0
 12 13  1  0  0  0
 13 14  1  0  0  0
 14  1  1  0  0  0
  1  2  2  0  0  0
  2  3  1  0  0  0
  3  4  2  0  0  0
  4  5  1  0  0  0
  5  6  2  0  0  0
  4 15  1  0  0  0
 15 16  2  0  0  0
 16 17  1  0  0  0
 17 18  2  0  0  0
 18 19  1  0  0  0
 19 20  2  0  0  0
 18 21  1  0  0  0
 21 22  1  0  0  0
 21 23  2  0  0  0
 12  8  1  0  0  0
  6  1  1  0  0  0
 20 15  1  0  0  0
 14 10  1  0  0  0
 22 24  1  0  0  0
M  END
> <minimizedAffinity>
-9.03133

> <CNNscore>
0.3761096895

> <CNNaffinity>
5.9995675087

> <CNN_VS>
2.2564954758

> <CNNaffinity_variance>
0.2331819981

$$$$
[H]OC(=O)c1c([H])c([H])c(-c2c([H])nc(N3C([H])([H])[C@@]4([H])N(C([H])([H])[H])C([H])([H])[C@@]3([H])C4([H])[H])c([H])c2[H])c([H])c1[H]


 24 27  0  0  0  0  0  0  0  0999 V2000
   11.1810   22.6756   -1.2030 C   0  0  0  0  0  0  0  0  0  0  0  0
   10.9355   24.1353   -1.4462 C   0  0  0  0  0  0  0  0  0  0  0  0
   12.0659   25.0255   -1.8698 C   0  0  0  0  0  0  0  0  0  0  0  0
   13.4419   24.4562   -2.0503 C   0  0  0  0  0  0  0  0  0  0  0  0
   13.6874   22.9965   -1.8072 C   0  0  0  0  0  0  0  0  0  0  0  0
   12.5570   22.1062   -1.3835 N   0  0  0  0  0  0  0  0  0  0  0  0
    6.4753   18.8465    0.1104 C   0  0  0  0  0  0  0  0  0  0  0  0
    7.6058   19.7367   -0.3132 N   0  0  0  0  0  0  0  0  0  0  0  0
    8.1637   19.8536   -1.7007 C   0  0  0  0  0  0  0  0  0  0  0  0
    9.2795   20.8556   -1.6688 C   0  0  0  0  0  0  0  0  0  0  0  0
    9.4112   21.3580   -0.2616 C   0  0  0  0  0  0  0  0  0  0  0  0
    8.3768   20.6665    0.5762 C   0  0  0  0  0  0  0  0  0  0  0  0
    9.4926   21.6685    0.6082 C   0  0  0  0  0  0  0  0  0  0  0  0
   10.0505   21.7853   -0.7794 N   0  0  0  0  0  0  0  0  0  0  0  0
   14.5723   25.3465   -2.4740 C   0  0  0  0  0  0  0  0  0  0  0  0
   15.8739   25.3117   -1.7294 C   0  0  0  0  0  0  0  0  0  0  0  0
   17.0044   26.2020   -2.1530 C   0  0  0  0  0  0  0  0  0  0  0  0
   16.8332   27.1271   -3.3213 C   0  0  0  0  0  0  0  0  0  0  0  0
   15.5315   27.1619   -4.0660 C   0  0  0  0  0  0  0  0  0  0  0  0
   14.4011   26.2716   -3.6423 C   0  0  0  0  0  0  0  0  0  0  0  0
   17.9637   28.0173   -3.7449 C   0  0  0  0  0  0  0  0  0  0  0  0
   17.6767   29.3797   -4.3031 O   0  0  0  0  0  0  0  0  0  0  0  0
   19.3811   27.5452   -3.6104 O   0  0  0  0  0  0  0  0  0  0  0  0
   18.8072   30.2700   -4.7267 H   0  0  0  0  0  0  0  0  0  0  0  0
  7  8  1  0  0  0
  8  9  1  0  0  0
  9 10  1  0  0  0
 10 11  1  0  0  0
 11 12  1  0  0  0
 12 13  1  0  0  0
 13 14  1  0  0  0
 14  1  1  0  0  0
  1  2  2  0  0  0
  2  3  1  0  0  0
  3  4  2  0  0  0
  4  5  1  0  0  0
  5  6  2  0  0  0
  4 15  1  0  0  0
 15 16  2  0  0  0
 16 17  1  0  0  0
 17 18  2  0  0  0
 18 19  1  0  0  0
 19 20  2  0  0  0
 18 21  1  0  0  0
 21 22  1  0  0  0
 21 23  2  0  0  0
 12  8  1  0  0  0
  6  1  1  0  0  0
 20 15  1  0  0  0
 14 10  1  0  0  0
 22 24  1  0  0  0
M  END
> <minimizedAffinity>
-5.56112

> <CNNscore>
0.3137003183

> <CNNaffinity>
5.9016852379

> <CNN_VS>
1.8513605595

> <CNNaffinity_variance>
0.1669677943

$$$$
[H]OC(=O)c1c([H])c([H])c(-c2c([H])nc(N3C([H])([H])[C@@]4([H])N(C([H])([H])[H])C([H])([H])[C@@]3([H])C4([H])[H])c([H])c2[H])c([H])c1[H]


 24 27  0  0  0  0  0  0  0  0999 V2000
    9.9101   21.5090   -0.8232 C   0  0  0  0  0  0  0  0  0  0  0  0
   11.3083   20.9801   -0.9459 C   0  0  0  0  0  0  0  0  0  0  0  0
   12.4184   21.8890   -1.3836 C   0  0  0  0  0  0  0  0  0  0  0  0
   12.1301   23.3269   -1.6987 C   0  0  0  0  0  0  0  0  0  0  0  0
   10.7318   23.8559   -1.5761 C   0  0  0  0  0  0  0  0  0  0  0  0
    9.6218   22.9470   -1.1383 N   0  0  0  0  0  0  0  0  0  0  0  0
    5.4306   17.4674    0.6366 C   0  0  0  0  0  0  0  0  0  0  0  0
    6.5406   18.3764    0.1988 N   0  0  0  0  0  0  0  0  0  0  0  0
    7.4583   18.1499   -0.9659 C   0  0  0  0  0  0  0  0  0  0  0  0
    8.4127   19.3049   -1.0356 C   0  0  0  0  0  0  0  0  0  0  0  0
    8.0850   20.2454    0.0861 C   0  0  0  0  0  0  0  0  0  0  0  0
    6.9280   19.6715    0.8490 C   0  0  0  0  0  0  0  0  0  0  0  0
    7.8824   20.8266    0.7793 C   0  0  0  0  0  0  0  0  0  0  0  0
    8.8000   20.6000   -0.3855 N   0  0  0  0  0  0  0  0  0  0  0  0
   13.2402   24.2359   -2.1364 C   0  0  0  0  0  0  0  0  0  0  0  0
   14.6687   23.8344   -1.9176 C   0  0  0  0  0  0  0  0  0  0  0  0
   15.7788   24.7433   -2.3554 C   0  0  0  0  0  0  0  0  0  0  0  0
   15.4602   26.0538   -3.0119 C   0  0  0  0  0  0  0  0  0  0  0  0
   14.0316   26.4554   -3.2308 C   0  0  0  0  0  0  0  0  0  0  0  0
   12.9216   25.5464   -2.7931 C   0  0  0  0  0  0  0  0  0  0  0  0
   16.5703   26.9628   -3.4497 C   0  0  0  0  0  0  0  0  0  0  0  0
   16.9858   26.9992   -4.8905 O   0  0  0  0  0  0  0  0  0  0  0  0
   17.2648   27.8353   -2.4465 O   0  0  0  0  0  0  0  0  0  0  0  0
   18.0958   27.9081   -5.3282 H   0  0  0  0  0  0  0  0  0  0  0  0
  7  8  1  0  0  0
  8  9  1  0  0  0
  9 10  1  0  0  0
 10 11  1  0  0  0
 11 12  1  0  0  0
 12 13  1  0  0  0
 13 14  1  0  0  0
 14  1  1  0  0  0
  1  2  2  0  0  0
  2  3  1  0  0  0
  3  4  2  0  0  0
  4  5  1  0  0  0
  5  6  2  0  0  0
  4 15  1  0  0  0
 15 16  2  0  0  0
 16 17  1  0  0  0
 17 18  2  0  0  0
 18 19  1  0  0  0
 19 20  2  0  0  0
 18 21  1  0  0  0
 21 22  1  0  0  0
 21 23  2  0  0  0
 12  8  1  0  0  0
  6  1  1  0  0  0
 20 15  1  0  0  0
 14 10  1  0  0  0
 22 24  1  0  0  0
M  END
> <minimizedAffinity>
-4.20367

> <CNNscore>
0.3078947365

> <CNNaffinity>
5.7049407959

> <CNN_VS>
1.7565212250

> <CNNaffinity_variance>
0.1265040338

$$$$
[H]c1nc(N2C([H])([H])[C@@]3([H])N(C([H])([H])[H])C([H])([H])[C@]2([H])C3([H])[H])c([H])nc1-c1c([H])c([H])c2oc([H])c([H])c2c1[H]


 23 27  0  0  0  0  0  0  0  0999 V2000
   12.5546   28.2556   -3.4601 C   0  0  0  0  0  0  0  0  0  0  0  0
   13.1492   27.4650   -4.4209 C   0  0  0  0  0  0  0  0  0  0  0  0
   13.5616   26.2100   -4.1495 N   0  0  0  0  0  0  0  0  0  0  0  0
   13.4082   25.6745   -2.9199 C   0  0  0  0  0  0  0  0  0  0  0  0
   12.8281   26.4313   -1.9632 C   0  0  0  0  0  0  0  0  0  0  0  0
   12.4180   27.6907   -2.2482 N   0  0  0  0  0  0  0  0  0  0  0  0
   13.8665   24.3061   -2.6526 C   0  0  0  0  0  0  0  0  0  0  0  0
   14.7989   23.6544   -3.4207 C   0  0  0  0  0  0  0  0  0  0  0  0
   15.2015   22.3495   -3.1225 C   0  0  0  0  0  0  0  0  0  0  0  0
   14.6755   21.6721   -2.0463 C   0  0  0  0  0  0  0  0  0  0  0  0
   14.8852   20.4588   -1.5626 O   0  0  0  0  0  0  0  0  0  0  0  0
   14.1389   20.2479   -0.4970 C   0  0  0  0  0  0  0  0  0  0  0  0
   13.4099   21.3938   -0.2881 C   0  0  0  0  0  0  0  0  0  0  0  0
   13.7360   22.3173   -1.2653 C   0  0  0  0  0  0  0  0  0  0  0  0
   13.3459   23.5977   -1.5640 C   0  0  0  0  0  0  0  0  0  0  0  0
   10.2842   31.4866   -6.1186 C   0  0  0  0  0  0  0  0  0  0  0  0
   10.4698   31.7200   -4.6999 N   0  0  0  0  0  0  0  0  0  0  0  0
    9.9725   30.5736   -3.9201 C   0  0  0  0  0  0  0  0  0  0  0  0
   11.0676   30.2296   -2.9418 C   0  0  0  0  0  0  0  0  0  0  0  0
   11.7184   31.6184   -2.7931 C   0  0  0  0  0  0  0  0  0  0  0  0
   11.8464   31.8263   -4.3151 C   0  0  0  0  0  0  0  0  0  0  0  0
   12.5442   30.5347   -4.6858 C   0  0  0  0  0  0  0  0  0  0  0  0
   12.1107   29.5638   -3.6956 N   0  0  0  0  0  0  0  0  0  0  0  0
 16 17  1  0  0  0
 17 18  1  0  0  0
 18 19  1  0  0  0
 19 20  1  0  0  0
 20 21  1  0  0  0
 21 22  1  0  0  0
 22 23  1  0  0  0
 23  1  1  0  0  0
  1  2  2  0  0  0
  2  3  1  0  0  0
  3  4  2  0  0  0
  4  5  1  0  0  0
  5  6  2  0  0  0
  4  7  1  0  0  0
  7  8  2  0  0  0
  8  9  1  0  0  0
  9 10  2  0  0  0
 10 11  1  0  0  0
 11 12  1  0  0  0
 12 13  2  0  0  0
 13 14  1  0  0  0
 14 15  2  0  0  0
 21 17  1  0  0  0
  6  1  1  0  0  0
 15  7  1  0  0  0
 23 19  1  0  0  0
 14 10  1  0  0  0
M  END
> <minimizedAffinity>
23.28510

> <CNNscore>
0.4270393550

> <CNNaffinity>
5.9151902199

> <CNN_VS>
2.5260190964

> <CNNaffinity_variance>
0.6542307734

$$$$
[H]c1nc(N2C([H])([H])[C@@]3([H])N(C([H])([H])[H])C([H])([H])[C@]2([H])C3([H])[H])c([H])nc1-c1c([H])c([H])c2oc([H])c([H])c2c1[H]


 23 27  0  0  0  0  0  0  0  0999 V2000
   12.5117   22.7998    0.3142 C   0  0  0  0  0  0  0  0  0  0  0  0
   12.2357   22.8358   -1.0364 C   0  0  0  0  0  0  0  0  0  0  0  0
   12.9547   23.5972   -1.8862 N   0  0  0  0  0  0  0  0  0  0  0  0
   13.9789   24.3586   -1.4464 C   0  0  0  0  0  0  0  0  0  0  0  0
   14.2669   24.3387   -0.1269 C   0  0  0  0  0  0  0  0  0  0  0  0
   13.5372   23.5697    0.7167 N   0  0  0  0  0  0  0  0  0  0  0  0
   14.7445   25.1776   -2.3937 C   0  0  0  0  0  0  0  0  0  0  0  0
   15.9614   25.7403   -2.0994 C   0  0  0  0  0  0  0  0  0  0  0  0
   16.6503   26.5130   -3.0387 C   0  0  0  0  0  0  0  0  0  0  0  0
   16.1307   26.7363   -4.2933 C   0  0  0  0  0  0  0  0  0  0  0  0
   16.5747   27.4149   -5.3385 O   0  0  0  0  0  0  0  0  0  0  0  0
   15.7177   27.3436   -6.3371 C   0  0  0  0  0  0  0  0  0  0  0  0
   14.6646   26.5743   -5.9041 C   0  0  0  0  0  0  0  0  0  0  0  0
   14.9063   26.1753   -4.6016 C   0  0  0  0  0  0  0  0  0  0  0  0
   14.2363   25.4183   -3.6749 C   0  0  0  0  0  0  0  0  0  0  0  0
    8.6272   21.9471    2.9304 C   0  0  0  0  0  0  0  0  0  0  0  0
    9.5260   20.8599    2.5964 N   0  0  0  0  0  0  0  0  0  0  0  0
    9.7543   20.8090    1.1421 C   0  0  0  0  0  0  0  0  0  0  0  0
   11.2480   20.7107    0.9587 C   0  0  0  0  0  0  0  0  0  0  0  0
   11.6186   20.0080    2.2790 C   0  0  0  0  0  0  0  0  0  0  0  0
   10.8406   21.0181    3.1454 C   0  0  0  0  0  0  0  0  0  0  0  0
   11.4261   22.3082    2.6112 C   0  0  0  0  0  0  0  0  0  0  0  0
   11.7927   22.0248    1.2342 N   0  0  0  0  0  0  0  0  0  0  0  0
 16 17  1  0  0  0
 17 18  1  0  0  0
 18 19  1  0  0  0
 19 20  1  0  0  0
 20 21  1  0  0  0
 21 22  1  0  0  0
 22 23  1  0  0  0
 23  1  1  0  0  0
  1  2  2  0  0  0
  2  3  1  0  0  0
  3  4  2  0  0  0
  4  5  1  0  0  0
  5  6  2  0  0  0
  4  7  1  0  0  0
  7  8  2  0  0  0
  8  9  1  0  0  0
  9 10  2  0  0  0
 10 11  1  0  0  0
 11 12  1  0  0  0
 12 13  2  0  0  0
 13 14  1  0  0  0
 14 15  2  0  0  0
 21 17  1  0  0  0
  6  1  1  0  0  0
 15  7  1  0  0  0
 23 19  1  0  0  0
 14 10  1  0  0  0
M  END
> <minimizedAffinity>
-8.37876

> <CNNscore>
0.3752177358

> <CNNaffinity>
6.6128525734

> <CNN_VS>
2.4812595844

> <CNNaffinity_variance>
0.2885062099

$$$$
[H]c1nc(N2C([H])([H])[C@@]3([H])N(C([H])([H])[H])C([H])([H])[C@]2([H])C3([H])[H])c([H])nc1-c1c([H])c([H])c2oc([H])c([H])c2c1[H]


 23 27  0  0  0  0  0  0  0  0999 V2000
   10.4900   23.9889    0.9448 C   0  0  0  0  0  0  0  0  0  0  0  0
   10.4513   23.2532   -0.2210 C   0  0  0  0  0  0  0  0  0  0  0  0
   11.3394   23.4550   -1.2156 N   0  0  0  0  0  0  0  0  0  0  0  0
   12.3071   24.3901   -1.1094 C   0  0  0  0  0  0  0  0  0  0  0  0
   12.3636   25.1226    0.0240 C   0  0  0  0  0  0  0  0  0  0  0  0
   11.4657   24.9105    1.0161 N   0  0  0  0  0  0  0  0  0  0  0  0
   13.2603   24.5883   -2.2077 C   0  0  0  0  0  0  0  0  0  0  0  0
   14.2875   23.7216   -2.4866 C   0  0  0  0  0  0  0  0  0  0  0  0
   15.1688   23.9570   -3.5458 C   0  0  0  0  0  0  0  0  0  0  0  0
   15.0363   25.0682   -4.3467 C   0  0  0  0  0  0  0  0  0  0  0  0
   15.7236   25.5086   -5.3877 O   0  0  0  0  0  0  0  0  0  0  0  0
   15.2147   26.6386   -5.8362 C   0  0  0  0  0  0  0  0  0  0  0  0
   14.1394   26.9371   -5.0345 C   0  0  0  0  0  0  0  0  0  0  0  0
   14.0062   25.9483   -4.0761 C   0  0  0  0  0  0  0  0  0  0  0  0
   13.1454   25.7107   -3.0352 C   0  0  0  0  0  0  0  0  0  0  0  0
    8.6513   25.3135    5.1311 C   0  0  0  0  0  0  0  0  0  0  0  0
    7.8722   24.4889    4.2285 N   0  0  0  0  0  0  0  0  0  0  0  0
    7.8061   25.1077    2.8934 C   0  0  0  0  0  0  0  0  0  0  0  0
    8.1576   24.0178    1.9120 C   0  0  0  0  0  0  0  0  0  0  0  0
    7.6820   22.7920    2.7154 C   0  0  0  0  0  0  0  0  0  0  0  0
    8.4567   23.2034    3.9830 C   0  0  0  0  0  0  0  0  0  0  0  0
    9.8295   23.4133    3.3797 C   0  0  0  0  0  0  0  0  0  0  0  0
    9.5893   23.8148    2.0041 N   0  0  0  0  0  0  0  0  0  0  0  0
 16 17  1  0  0  0
 17 18  1  0  0  0
 18 19  1  0  0  0
 19 20  1  0  0  0
 20 21  1  0  0  0
 21 22  1  0  0  0
 22 23  1  0  0  0
 23  1  1  0  0  0
  1  2  2  0  0  0
  2  3  1  0  0  0
  3  4  2  0  0  0
  4  5  1  0  0  0
  5  6  2  0  0  0
  4  7  1  0  0  0
  7  8  2  0  0  0
  8  9  1  0  0  0
  9 10  2  0  0  0
 10 11  1  0  0  0
 11 12  1  0  0  0
 12 13  2  0  0  0
 13 14  1  0  0  0
 14 15  2  0  0  0
 21 17  1  0  0  0
  6  1  1  0  0  0
 15  7  1  0  0  0
 23 19  1  0  0  0
 14 10  1  0  0  0
M  END
> <minimizedAffinity>
-8.67702

> <CNNscore>
0.2848359942

> <CNNaffinity>
5.9714927673

> <CNN_VS>
1.7008960247

> <CNNaffinity_variance>
0.0988623798

$$$$
[H]c1nc(N2C([H])([H])[C@@]3([H])N(C([H])([H])[H])C([H])([H])[C@]2([H])C3([H])[H])c([H])nc1-c1c([H])c([H])c2oc([H])c([H])c2c1[H]


 23 27  0  0  0  0  0  0  0  0999 V2000
   11.2515   23.2973    1.2675 C   0  0  0  0  0  0  0  0  0  0  0  0
   10.7398   23.9769    0.1821 C   0  0  0  0  0  0  0  0  0  0  0  0
   11.4985   24.2654   -0.8948 N   0  0  0  0  0  0  0  0  0  0  0  0
   12.7963   23.8986   -0.9539 C   0  0  0  0  0  0  0  0  0  0  0  0
   13.3185   23.2319    0.0983 C   0  0  0  0  0  0  0  0  0  0  0  0
   12.5460   22.9479    1.1745 N   0  0  0  0  0  0  0  0  0  0  0  0
   13.5986   24.2260   -2.1385 C   0  0  0  0  0  0  0  0  0  0  0  0
   14.6114   23.4300   -2.6127 C   0  0  0  0  0  0  0  0  0  0  0  0
   15.3460   23.7881   -3.7467 C   0  0  0  0  0  0  0  0  0  0  0  0
   15.0782   24.9535   -4.4279 C   0  0  0  0  0  0  0  0  0  0  0  0
   15.6158   25.5058   -5.5029 O   0  0  0  0  0  0  0  0  0  0  0  0
   15.0180   26.6451   -5.7885 C   0  0  0  0  0  0  0  0  0  0  0  0
   14.0412   26.8311   -4.8399 C   0  0  0  0  0  0  0  0  0  0  0  0
   14.0611   25.7633   -3.9604 C   0  0  0  0  0  0  0  0  0  0  0  0
   13.3446   25.4054   -2.8472 C   0  0  0  0  0  0  0  0  0  0  0  0
    7.1229   23.0451    3.6238 C   0  0  0  0  0  0  0  0  0  0  0  0
    8.2314   22.1972    4.0161 N   0  0  0  0  0  0  0  0  0  0  0  0
    8.7410   21.4463    2.8559 C   0  0  0  0  0  0  0  0  0  0  0  0
   10.2381   21.6276    2.8680 C   0  0  0  0  0  0  0  0  0  0  0  0
   10.4547   21.8363    4.3792 C   0  0  0  0  0  0  0  0  0  0  0  0
    9.3729   22.9298    4.4797 C   0  0  0  0  0  0  0  0  0  0  0  0
    9.8363   23.8428    3.3642 C   0  0  0  0  0  0  0  0  0  0  0  0
   10.5021   22.9757    2.4071 N   0  0  0  0  0  0  0  0  0  0  0  0
 16 17  1  0  0  0
 17 18  1  0  0  0
 18 19  1  0  0  0
 19 20  1  0  0  0
 20 21  1  0  0  0
 21 22  1  0  0  0
 22 23  1  0  0  0
 23  1  1  0  0  0
  1  2  2  0  0  0
  2  3  1  0  0  0
  3  4  2  0  0  0
  4  5  1  0  0  0
  5  6  2  0  0  0
  4  7  1  0  0  0
  7  8  2  0  0  0
  8  9  1  0  0  0
  9 10  2  0  0  0
 10 11  1  0  0  0
 11 12  1  0  0  0
 12 13  2  0  0  0
 13 14  1  0  0  0
 14 15  2  0  0  0
 21 17  1  0  0  0
  6  1  1  0  0  0
 15  7  1  0  0  0
 23 19  1  0  0  0
 14 10  1  0  0  0
M  END
> <minimizedAffinity>
-8.73197

> <CNNscore>
0.2826334834

> <CNNaffinity>
6.2540607452

> <CNN_VS>
1.7676069736

> <CNNaffinity_variance>
0.1485576630

$$$$
[H]c1nc(N2C([H])([H])[C@@]3([H])N(C([H])([H])[H])C([H])([H])[C@]2([H])C3([H])[H])c([H])nc1-c1c([H])c([H])c2oc([H])c([H])c2c1[H]


 23 27  0  0  0  0  0  0  0  0999 V2000
   10.2267   23.9725    0.9604 C   0  0  0  0  0  0  0  0  0  0  0  0
   10.1935   23.2829   -0.2333 C   0  0  0  0  0  0  0  0  0  0  0  0
   11.1213   23.4810   -1.1918 N   0  0  0  0  0  0  0  0  0  0  0  0
   12.1252   24.3669   -1.0202 C   0  0  0  0  0  0  0  0  0  0  0  0
   12.1772   25.0536    0.1417 C   0  0  0  0  0  0  0  0  0  0  0  0
   11.2393   24.8459    1.0969 N   0  0  0  0  0  0  0  0  0  0  0  0
   13.1212   24.5623   -2.0803 C   0  0  0  0  0  0  0  0  0  0  0  0
   14.1700   23.7053   -2.3035 C   0  0  0  0  0  0  0  0  0  0  0  0
   15.0921   23.9375   -3.3280 C   0  0  0  0  0  0  0  0  0  0  0  0
   14.9795   25.0356   -4.1498 C   0  0  0  0  0  0  0  0  0  0  0  0
   15.7044   25.4704   -5.1673 O   0  0  0  0  0  0  0  0  0  0  0  0
   15.2008   26.5873   -5.6531 C   0  0  0  0  0  0  0  0  0  0  0  0
   14.0890   26.8829   -4.9014 C   0  0  0  0  0  0  0  0  0  0  0  0
   13.9280   25.9058   -3.9353 C   0  0  0  0  0  0  0  0  0  0  0  0
   13.0272   25.6714   -2.9281 C   0  0  0  0  0  0  0  0  0  0  0  0
    8.2153   21.3630    4.3963 C   0  0  0  0  0  0  0  0  0  0  0  0
    8.1014   22.8079    4.4263 N   0  0  0  0  0  0  0  0  0  0  0  0
    9.4321   23.4314    4.3261 C   0  0  0  0  0  0  0  0  0  0  0  0
    9.3161   24.4900    3.2581 C   0  0  0  0  0  0  0  0  0  0  0  0
    7.8179   24.8230    3.3948 C   0  0  0  0  0  0  0  0  0  0  0  0
    7.3844   23.3463    3.3080 C   0  0  0  0  0  0  0  0  0  0  0  0
    8.1110   22.9468    2.0411 C   0  0  0  0  0  0  0  0  0  0  0  0
    9.2855   23.8003    1.9842 N   0  0  0  0  0  0  0  0  0  0  0  0
 16 17  1  0  0  0
 17 18  1  0  0  0
 18 19  1  0  0  0
 19 20  1  0  0  0
 20 21  1  0  0  0
 21 22  1  0  0  0
 22 23  1  0  0  0
 23  1  1  0  0  0
  1  2  2  0  0  0
  2  3  1  0  0  0
  3  4  2  0  0  0
  4  5  1  0  0  0
  5  6  2  0  0  0
  4  7  1  0  0  0
  7  8  2  0  0  0
  8  9  1  0  0  0
  9 10  2  0  0  0
 10 11  1  0  0  0
 11 12  1  0  0  0
 12 13  2  0  0  0
 13 14  1  0  0  0
 14 15  2  0  0  0
 21 17  1  0  0  0
  6  1  1  0  0  0
 15  7  1  0  0  0
 23 19  1  0  0  0
 14 10  1  0  0  0
M  END
> <minimizedAffinity>
-8.60388

> <CNNscore>
0.2735201418

> <CNNaffinity>
5.9894542694

> <CNN_VS>
1.6382364035

> <CNNaffinity_variance>
0.0303023849

$$$$
[H]c1nc(N2C([H])([H])[C@@]3([H])N(C([H])([H])[H])C([H])([H])[C@]2([H])C3([H])[H])c([H])nc1-c1c([H])c([H])c2oc([H])c([H])c2c1[H]


 23 27  0  0  0  0  0  0  0  0999 V2000
   11.1686   22.8877    2.1476 C   0  0  0  0  0  0  0  0  0  0  0  0
   10.6320   23.9941    1.5235 C   0  0  0  0  0  0  0  0  0  0  0  0
   11.1722   24.5041    0.3980 N   0  0  0  0  0  0  0  0  0  0  0  0
   12.2659   23.9490   -0.1659 C   0  0  0  0  0  0  0  0  0  0  0  0
   12.8083   22.8643    0.4288 C   0  0  0  0  0  0  0  0  0  0  0  0
   12.2564   22.3613    1.5592 N   0  0  0  0  0  0  0  0  0  0  0  0
   12.8328   24.5249   -1.3910 C   0  0  0  0  0  0  0  0  0  0  0  0
   12.3943   25.6988   -1.9512 C   0  0  0  0  0  0  0  0  0  0  0  0
   12.9691   26.2046   -3.1206 C   0  0  0  0  0  0  0  0  0  0  0  0
   13.9968   25.5415   -3.7514 C   0  0  0  0  0  0  0  0  0  0  0  0
   14.6946   25.8044   -4.8440 O   0  0  0  0  0  0  0  0  0  0  0  0
   15.5927   24.8642   -5.0595 C   0  0  0  0  0  0  0  0  0  0  0  0
   15.4604   23.9470   -4.0447 C   0  0  0  0  0  0  0  0  0  0  0  0
   14.4472   24.3587   -3.1974 C   0  0  0  0  0  0  0  0  0  0  0  0
   13.8783   23.8686   -2.0498 C   0  0  0  0  0  0  0  0  0  0  0  0
    7.7206   20.6027    4.5036 C   0  0  0  0  0  0  0  0  0  0  0  0
    9.0796   20.5764    5.0076 N   0  0  0  0  0  0  0  0  0  0  0  0
   10.0093   20.1253    3.9579 C   0  0  0  0  0  0  0  0  0  0  0  0
   11.1428   21.1201    3.9508 C   0  0  0  0  0  0  0  0  0  0  0  0
   11.0887   21.5747    5.4221 C   0  0  0  0  0  0  0  0  0  0  0  0
    9.5765   21.8699    5.3743 C   0  0  0  0  0  0  0  0  0  0  0  0
    9.5342   22.7595    4.1498 C   0  0  0  0  0  0  0  0  0  0  0  0
   10.6423   22.3233    3.3173 N   0  0  0  0  0  0  0  0  0  0  0  0
 16 17  1  0  0  0
 17 18  1  0  0  0
 18 19  1  0  0  0
 19 20  1  0  0  0
 20 21  1  0  0  0
 21 22  1  0  0  0
 22 23  1  0  0  0
 23  1  1  0  0  0
  1  2  2  0  0  0
  2  3  1  0  0  0
  3  4  2  0  0  0
  4  5  1  0  0  0
  5  6  2  0  0  0
  4  7  1  0  0  0
  7  8  2  0  0  0
  8  9  1  0  0  0
  9 10  2  0  0  0
 10 11  1  0  0  0
 11 12  1  0  0  0
 12 13  2  0  0  0
 13 14  1  0  0  0
 14 15  2  0  0  0
 21 17  1  0  0  0
  6  1  1  0  0  0
 15  7  1  0  0  0
 23 19  1  0  0  0
 14 10  1  0  0  0
M  END
> <minimizedAffinity>
-8.11199

> <CNNscore>
0.2641389668

> <CNNaffinity>
6.1604647636

> <CNN_VS>
1.6272188425

> <CNNaffinity_variance>
0.1195095405

$$$$
[H]c1nc(N2C([H])([H])[C@@]3([H])N(C([H])([H])[H])C([H])([H])[C@]2([H])C3([H])[H])c([H])nc1-c1c([H])c([H])c2oc([H])c([H])c2c1[H]


 23 27  0  0  0  0  0  0  0  0999 V2000
   11.7056   23.1833    0.6133 C   0  0  0  0  0  0  0  0  0  0  0  0
   12.3774   22.5705   -0.4235 C   0  0  0  0  0  0  0  0  0  0  0  0
   12.8355   23.2694   -1.4819 N   0  0  0  0  0  0  0  0  0  0  0  0
   12.6539   24.6042   -1.5695 C   0  0  0  0  0  0  0  0  0  0  0  0
   11.9983   25.2252   -0.5651 C   0  0  0  0  0  0  0  0  0  0  0  0
   11.5428   24.5121    0.4929 N   0  0  0  0  0  0  0  0  0  0  0  0
   13.1631   25.3397   -2.7330 C   0  0  0  0  0  0  0  0  0  0  0  0
   12.7025   26.5765   -3.1100 C   0  0  0  0  0  0  0  0  0  0  0  0
   13.2220   27.2351   -4.2281 C   0  0  0  0  0  0  0  0  0  0  0  0
   14.2153   26.6646   -4.9908 C   0  0  0  0  0  0  0  0  0  0  0  0
   14.8605   27.0725   -6.0712 O   0  0  0  0  0  0  0  0  0  0  0  0
   15.7434   26.1716   -6.4532 C   0  0  0  0  0  0  0  0  0  0  0  0
   15.6568   25.1272   -5.5644 C   0  0  0  0  0  0  0  0  0  0  0  0
   14.6874   25.4196   -4.6216 C   0  0  0  0  0  0  0  0  0  0  0  0
   14.1729   24.7796   -3.5233 C   0  0  0  0  0  0  0  0  0  0  0  0
    8.1097   21.4151    3.1831 C   0  0  0  0  0  0  0  0  0  0  0  0
    9.4458   20.8758    3.3435 N   0  0  0  0  0  0  0  0  0  0  0  0
   10.0008   20.4786    2.0382 C   0  0  0  0  0  0  0  0  0  0  0  0
   11.3822   21.0803    1.9732 C   0  0  0  0  0  0  0  0  0  0  0  0
   11.7098   21.1231    3.4782 C   0  0  0  0  0  0  0  0  0  0  0  0
   10.3902   21.8318    3.8422 C   0  0  0  0  0  0  0  0  0  0  0  0
   10.4522   22.9901    2.8690 C   0  0  0  0  0  0  0  0  0  0  0  0
   11.2119   22.4989    1.7321 N   0  0  0  0  0  0  0  0  0  0  0  0
 16 17  1  0  0  0
 17 18  1  0  0  0
 18 19  1  0  0  0
 19 20  1  0  0  0
 20 21  1  0  0  0
 21 22  1  0  0  0
 22 23  1  0  0  0
 23  1  1  0  0  0
  1  2  2  0  0  0
  2  3  1  0  0  0
  3  4  2  0  0  0
  4  5  1  0  0  0
  5  6  2  0  0  0
  4  7  1  0  0  0
  7  8  2  0  0  0
  8  9  1  0  0  0
  9 10  2  0  0  0
 10 11  1  0  0  0
 11 12  1  0  0  0
 12 13  2  0  0  0
 13 14  1  0  0  0
 14 15  2  0  0  0
 21 17  1  0  0  0
  6  1  1  0  0  0
 15  7  1  0  0  0
 23 19  1  0  0  0
 14 10  1  0  0  0
M  END
> <minimizedAffinity>
-7.89949

> <CNNscore>
0.2185914367

> <CNNaffinity>
6.3334484100

> <CNN_VS>
1.3844375610

> <CNNaffinity_variance>
0.2254193127

$$$$
[H]c1nc(N2C([H])([H])[C@@]3([H])N(C([H])([H])[H])C([H])([H])[C@]2([H])C3([H])[H])c([H])nc1-c1c([H])c([H])c2oc([H])c([H])c2c1[H]


 23 27  0  0  0  0  0  0  0  0999 V2000
   11.6577   23.1063   -0.7476 C   0  0  0  0  0  0  0  0  0  0  0  0
   12.8235   22.6530   -1.3282 C   0  0  0  0  0  0  0  0  0  0  0  0
   13.6122   23.4652   -2.0610 N   0  0  0  0  0  0  0  0  0  0  0  0
   13.2904   24.7614   -2.2567 C   0  0  0  0  0  0  0  0  0  0  0  0
   12.1526   25.2269   -1.6972 C   0  0  0  0  0  0  0  0  0  0  0  0
   11.3686   24.4011   -0.9631 N   0  0  0  0  0  0  0  0  0  0  0  0
   14.1673   25.6226   -3.0589 C   0  0  0  0  0  0  0  0  0  0  0  0
   13.8513   26.0629   -4.3200 C   0  0  0  0  0  0  0  0  0  0  0  0
   14.7229   26.8827   -5.0425 C   0  0  0  0  0  0  0  0  0  0  0  0
   15.9303   27.2772   -4.5129 C   0  0  0  0  0  0  0  0  0  0  0  0
   16.9098   28.0324   -4.9820 O   0  0  0  0  0  0  0  0  0  0  0  0
   17.8842   28.1307   -4.1000 C   0  0  0  0  0  0  0  0  0  0  0  0
   17.5044   27.3949   -3.0033 C   0  0  0  0  0  0  0  0  0  0  0  0
   16.2599   26.8405   -3.2442 C   0  0  0  0  0  0  0  0  0  0  0  0
   15.3996   26.0364   -2.5413 C   0  0  0  0  0  0  0  0  0  0  0  0
    7.3210   21.5440    0.4412 C   0  0  0  0  0  0  0  0  0  0  0  0
    8.4865   20.7343    0.7367 N   0  0  0  0  0  0  0  0  0  0  0  0
    9.2970   20.5361   -0.4772 C   0  0  0  0  0  0  0  0  0  0  0  0
   10.7175   20.8580   -0.0861 C   0  0  0  0  0  0  0  0  0  0  0  0
   10.6535   20.5023    1.4119 C   0  0  0  0  0  0  0  0  0  0  0  0
    9.3929   21.3547    1.6577 C   0  0  0  0  0  0  0  0  0  0  0  0
    9.8566   22.6652    1.0575 C   0  0  0  0  0  0  0  0  0  0  0  0
   10.8075   22.3001    0.0213 N   0  0  0  0  0  0  0  0  0  0  0  0
 16 17  1  0  0  0
 17 18  1  0  0  0
 18 19  1  0  0  0
 19 20  1  0  0  0
 20 21  1  0  0  0
 21 22  1  0  0  0
 22 23  1  0  0  0
 23  1  1  0  0  0
  1  2  2  0  0  0
  2  3  1  0  0  0
  3  4  2  0  0  0
  4  5  1  0  0  0
  5  6  2  0  0  0
  4  7  1  0  0  0
  7  8  2  0  0  0
  8  9  1  0  0  0
  9 10  2  0  0  0
 10 11  1  0  0  0
 11 12  1  0  0  0
 12 13  2  0  0  0
 13 14  1  0  0  0
 14 15  2  0  0  0
 21 17  1  0  0  0
  6  1  1  0  0  0
 15  7  1  0  0  0
 23 19  1  0  0  0
 14 10  1  0  0  0
M  END
> <minimizedAffinity>
-8.13222

> <CNNscore>
0.2116867900

> <CNNaffinity>
6.2387037277

> <CNN_VS>
1.3206511736

> <CNNaffinity_variance>
0.1196040958

$$$$
[H]c1nc(N2C([H])([H])[C@@]3([H])N(C([H])([H])[H])C([H])([H])[C@]2([H])C3([H])[H])c([H])nc1-c1c([H])c([H])c2oc([H])c([H])c2c1[H]


 23 27  0  0  0  0  0  0  0  0999 V2000
   12.1462   22.8877   -0.6396 C   0  0  0  0  0  0  0  0  0  0  0  0
   13.2856   22.5038   -1.3150 C   0  0  0  0  0  0  0  0  0  0  0  0
   13.9763   23.3675   -2.0868 N   0  0  0  0  0  0  0  0  0  0  0  0
   13.5780   24.6493   -2.2299 C   0  0  0  0  0  0  0  0  0  0  0  0
   12.4644   25.0471   -1.5773 C   0  0  0  0  0  0  0  0  0  0  0  0
   11.7791   24.1701   -0.8050 N   0  0  0  0  0  0  0  0  0  0  0  0
   14.3491   25.5676   -3.0763 C   0  0  0  0  0  0  0  0  0  0  0  0
   13.9322   25.9896   -4.3141 C   0  0  0  0  0  0  0  0  0  0  0  0
   14.7053   26.8660   -5.0809 C   0  0  0  0  0  0  0  0  0  0  0  0
   15.9135   27.3368   -4.6199 C   0  0  0  0  0  0  0  0  0  0  0  0
   16.8130   28.1552   -5.1403 O   0  0  0  0  0  0  0  0  0  0  0  0
   17.8288   28.3144   -4.3158 C   0  0  0  0  0  0  0  0  0  0  0  0
   17.5620   27.5528   -3.2035 C   0  0  0  0  0  0  0  0  0  0  0  0
   16.3441   26.9193   -3.3752 C   0  0  0  0  0  0  0  0  0  0  0  0
   15.5802   26.0593   -2.6285 C   0  0  0  0  0  0  0  0  0  0  0  0
   11.7451   19.9325    3.0707 C   0  0  0  0  0  0  0  0  0  0  0  0
   10.5652   20.5806    2.5326 N   0  0  0  0  0  0  0  0  0  0  0  0
   10.7653   22.0382    2.4625 C   0  0  0  0  0  0  0  0  0  0  0  0
   10.3440   22.4495    1.0741 C   0  0  0  0  0  0  0  0  0  0  0  0
    9.3116   21.3427    0.7853 C   0  0  0  0  0  0  0  0  0  0  0  0
   10.2774   20.2076    1.1789 C   0  0  0  0  0  0  0  0  0  0  0  0
   11.4667   20.5825    0.3200 C   0  0  0  0  0  0  0  0  0  0  0  0
   11.3966   22.0263    0.1727 N   0  0  0  0  0  0  0  0  0  0  0  0
 16 17  1  0  0  0
 17 18  1  0  0  0
 18 19  1  0  0  0
 19 20  1  0  0  0
 20 21  1  0  0  0
 21 22  1  0  0  0
 22 23  1  0  0  0
 23  1  1  0  0  0
  1  2  2  0  0  0
  2  3  1  0  0  0
  3  4  2  0  0  0
  4  5  1  0  0  0
  5  6  2  0  0  0
  4  7  1  0  0  0
  7  8  2  0  0  0
  8  9  1  0  0  0
  9 10  2  0  0  0
 10 11  1  0  0  0
 11 12  1  0  0  0
 12 13  2  0  0  0
 13 14  1  0  0  0
 14 15  2  0  0  0
 21 17  1  0  0  0
  6  1  1  0  0  0
 15  7  1  0  0  0
 23 19  1  0  0  0
 14 10  1  0  0  0
M  END
> <minimizedAffinity>
-7.59539

> <CNNscore>
0.1965722591

> <CNNaffinity>
6.3765554428

> <CNN_VS>
1.2534538507

> <CNNaffinity_variance>
0.0941681117

$$$$
[H]c1c([H])c([H])c(C2=NC([H])([H])c3nnc(C([H])([H])[H])n3-c3sc(C#CC([H])([H])N4C(=O)c5c([H])c([H])c([H])c([H])c5C4=O)c([H])c32)c(Cl)c1[H]


 35 40  0  0  0  0  0  0  0  0999 V2000
   15.5099   23.9597   -5.0621 C   0  0  0  0  0  0  0  0  0  0  0  0
   15.8027   25.4327   -5.1286 C   0  0  0  0  0  0  0  0  0  0  0  0
   16.7870   26.1155   -5.7154 N   0  0  0  0  0  0  0  0  0  0  0  0
   16.6677   27.4335   -5.5087 N   0  0  0  0  0  0  0  0  0  0  0  0
   15.5794   27.6195   -4.7685 C   0  0  0  0  0  0  0  0  0  0  0  0
   14.9952   28.8866   -4.2298 C   0  0  0  0  0  0  0  0  0  0  0  0
   13.5911   29.0272   -4.4579 N   0  0  0  0  0  0  0  0  0  0  0  0
   12.6136   28.1894   -4.1742 C   0  0  0  0  0  0  0  0  0  0  0  0
   12.7690   26.8724   -3.5239 C   0  0  0  0  0  0  0  0  0  0  0  0
   11.8617   26.3417   -2.6927 C   0  0  0  0  0  0  0  0  0  0  0  0
   12.0856   25.0988   -2.1826 C   0  0  0  0  0  0  0  0  0  0  0  0
   13.6057   24.6747   -2.8844 S   0  0  0  0  0  0  0  0  0  0  0  0
   13.8787   26.0866   -3.7811 C   0  0  0  0  0  0  0  0  0  0  0  0
   15.0508   26.3788   -4.5394 N   0  0  0  0  0  0  0  0  0  0  0  0
   11.3223   28.6855   -4.5574 C   0  0  0  0  0  0  0  0  0  0  0  0
   10.4145   28.0085   -5.2894 C   0  0  0  0  0  0  0  0  0  0  0  0
    9.1269   28.4790   -5.5651 C   0  0  0  0  0  0  0  0  0  0  0  0
    8.7809   29.7062   -5.0566 C   0  0  0  0  0  0  0  0  0  0  0  0
    9.6569   30.4541   -4.3038 C   0  0  0  0  0  0  0  0  0  0  0  0
   10.8982   29.9328   -4.0720 C   0  0  0  0  0  0  0  0  0  0  0  0
   12.0121   30.8947   -3.1079 Cl  0  0  0  0  0  0  0  0  0  0  0  0
   11.2588   24.3182   -1.2775 C   0  0  0  0  0  0  0  0  0  0  0  0
   10.5873   23.6806   -0.5110 C   0  0  0  0  0  0  0  0  0  0  0  0
    9.7791   22.8827    0.4127 C   0  0  0  0  0  0  0  0  0  0  0  0
    9.2418   23.6907    1.4993 N   0  0  0  0  0  0  0  0  0  0  0  0
    9.9027   24.7621    2.1506 C   0  0  0  0  0  0  0  0  0  0  0  0
   11.0527   25.1541    1.8671 O   0  0  0  0  0  0  0  0  0  0  0  0
    8.9990   25.2806    3.1692 C   0  0  0  0  0  0  0  0  0  0  0  0
    9.1409   26.3214    4.0894 C   0  0  0  0  0  0  0  0  0  0  0  0
    8.1207   26.6133    4.9568 C   0  0  0  0  0  0  0  0  0  0  0  0
    6.9544   25.9110    4.9512 C   0  0  0  0  0  0  0  0  0  0  0  0
    6.7960   24.8847    4.0542 C   0  0  0  0  0  0  0  0  0  0  0  0
    7.8194   24.5680    3.1612 C   0  0  0  0  0  0  0  0  0  0  0  0
    7.9673   23.5722    2.1178 C   0  0  0  0  0  0  0  0  0  0  0  0
    7.0795   22.7174    1.8054 O   0  0  0  0  0  0  0  0  0  0  0  0
  1  2  1  0  0  0
  2  3  2  0  0  0
  3  4  1  0  0  0
  4  5  2  0  0  0
  5  6  1  0  0  0
  6  7  1  0  0  0
  7  8  2  0  0  0
  8  9  1  0  0  0
  9 10  1  0  0  0
 10 11  2  0  0  0
 11 12  1  0  0  0
 12 13  1  0  0  0
 13 14  1  0  0  0
 11 22  1  0  0  0
 22 23  3  0  0  0
 23 24  1  0  0  0
 24 25  1  0  0  0
 25 26  1  0  0  0
 26 27  2  0  0  0
 26 28  1  0  0  0
 28 29  2  0  0  0
 29 30  1  0  0  0
 30 31  2  0  0  0
 31 32  1  0  0  0
 32 33  2  0  0  0
 33 34  1  0  0  0
 34 35  2  0  0  0
  8 15  1  0  0  0
 15 16  2  0  0  0
 16 17  1  0  0  0
 17 18  2  0  0  0
 18 19  1  0  0  0
 19 20  2  0  0  0
 20 21  1  0  0  0
 14  2  1  0  0  0
 34 25  1  0  0  0
 20 15  1  0  0  0
 14  5  1  0  0  0
 33 28  1  0  0  0
 13  9  2  0  0  0
M  END
> <minimizedAffinity>
14.86889

> <CNNscore>
0.6761485934

> <CNNaffinity>
7.6339864731

> <CNN_VS>
5.1617093086

> <CNNaffinity_variance>
0.9702936411

$$$$
[H]c1c([H])c([H])c(C2=NC([H])([H])c3nnc(C([H])([H])[H])n3-c3sc(C#CC([H])([H])N4C(=O)c5c([H])c([H])c([H])c([H])c5C4=O)c([H])c32)c(Cl)c1[H]


 35 40  0  0  0  0  0  0  0  0999 V2000
   14.7811   22.6373   -3.9949 C   0  0  0  0  0  0  0  0  0  0  0  0
   15.3409   23.9261   -4.5294 C   0  0  0  0  0  0  0  0  0  0  0  0
   16.3157   24.1735   -5.4058 N   0  0  0  0  0  0  0  0  0  0  0  0
   16.4983   25.4881   -5.5861 N   0  0  0  0  0  0  0  0  0  0  0  0
   15.6225   26.1179   -4.8092 C   0  0  0  0  0  0  0  0  0  0  0  0
   15.4082   27.5838   -4.6040 C   0  0  0  0  0  0  0  0  0  0  0  0
   14.0418   27.9939   -4.6933 N   0  0  0  0  0  0  0  0  0  0  0  0
   12.9875   27.5206   -4.0590 C   0  0  0  0  0  0  0  0  0  0  0  0
   12.9971   26.4225   -3.0714 C   0  0  0  0  0  0  0  0  0  0  0  0
   12.1713   26.3626   -2.0177 C   0  0  0  0  0  0  0  0  0  0  0  0
   12.2359   25.2805   -1.1931 C   0  0  0  0  0  0  0  0  0  0  0  0
   13.4876   24.3343   -1.9147 S   0  0  0  0  0  0  0  0  0  0  0  0
   13.8640   25.3534   -3.2155 C   0  0  0  0  0  0  0  0  0  0  0  0
   14.9112   25.1456   -4.1612 N   0  0  0  0  0  0  0  0  0  0  0  0
   11.7712   28.1951   -4.4142 C   0  0  0  0  0  0  0  0  0  0  0  0
   10.7467   27.6444   -5.0964 C   0  0  0  0  0  0  0  0  0  0  0  0
    9.5341   28.2956   -5.3435 C   0  0  0  0  0  0  0  0  0  0  0  0
    9.3933   29.5725   -4.8596 C   0  0  0  0  0  0  0  0  0  0  0  0
   10.3977   30.1985   -4.1577 C   0  0  0  0  0  0  0  0  0  0  0  0
   11.5553   29.5030   -3.9515 C   0  0  0  0  0  0  0  0  0  0  0  0
   12.8343   30.3099   -3.0524 Cl  0  0  0  0  0  0  0  0  0  0  0  0
   11.4520   24.9871   -0.0049 C   0  0  0  0  0  0  0  0  0  0  0  0
   10.7857   24.7555    0.9684 C   0  0  0  0  0  0  0  0  0  0  0  0
    9.9894   24.4888    2.1675 C   0  0  0  0  0  0  0  0  0  0  0  0
   10.2854   23.1800    2.7344 N   0  0  0  0  0  0  0  0  0  0  0  0
   11.2679   22.2701    2.2699 C   0  0  0  0  0  0  0  0  0  0  0  0
   12.0175   22.4830    1.2955 O   0  0  0  0  0  0  0  0  0  0  0  0
   11.2178   21.0941    3.1287 C   0  0  0  0  0  0  0  0  0  0  0  0
   11.9573   19.9096    3.1204 C   0  0  0  0  0  0  0  0  0  0  0  0
   11.7095   18.9400    4.0569 C   0  0  0  0  0  0  0  0  0  0  0  0
   10.7506   19.0958    5.0107 C   0  0  0  0  0  0  0  0  0  0  0  0
   10.0134   20.2529    5.0353 C   0  0  0  0  0  0  0  0  0  0  0  0
   10.2465   21.2545    4.0931 C   0  0  0  0  0  0  0  0  0  0  0  0
    9.6607   22.5583    3.8499 C   0  0  0  0  0  0  0  0  0  0  0  0
    8.7220   23.0675    4.5399 O   0  0  0  0  0  0  0  0  0  0  0  0
  1  2  1  0  0  0
  2  3  2  0  0  0
  3  4  1  0  0  0
  4  5  2  0  0  0
  5  6  1  0  0  0
  6  7  1  0  0  0
  7  8  2  0  0  0
  8  9  1  0  0  0
  9 10  1  0  0  0
 10 11  2  0  0  0
 11 12  1  0  0  0
 12 13  1  0  0  0
 13 14  1  0  0  0
 11 22  1  0  0  0
 22 23  3  0  0  0
 23 24  1  0  0  0
 24 25  1  0  0  0
 25 26  1  0  0  0
 26 27  2  0  0  0
 26 28  1  0  0  0
 28 29  2  0  0  0
 29 30  1  0  0  0
 30 31  2  0  0  0
 31 32  1  0  0  0
 32 33  2  0  0  0
 33 34  1  0  0  0
 34 35  2  0  0  0
  8 15  1  0  0  0
 15 16  2  0  0  0
 16 17  1  0  0  0
 17 18  2  0  0  0
 18 19  1  0  0  0
 19 20  2  0  0  0
 20 21  1  0  0  0
 14  2  1  0  0  0
 34 25  1  0  0  0
 20 15  1  0  0  0
 14  5  1  0  0  0
 33 28  1  0  0  0
 13  9  2  0  0  0
M  END
> <minimizedAffinity>
13.20290

> <CNNscore>
0.6159976721

> <CNNaffinity>
7.6556777954

> <CNN_VS>
4.7158799171

> <CNNaffinity_variance>
1.0813064575

$$$$
[H]c1c([H])c([H])c(C2=NC([H])([H])c3nnc(C([H])([H])[H])n3-c3sc(C#CC([H])([H])N4C(=O)c5c([H])c([H])c([H])c([H])c5C4=O)c([H])c32)c(Cl)c1[H]


 35 40  0  0  0  0  0  0  0  0999 V2000
   14.5869   22.8909   -4.1497 C   0  0  0  0  0  0  0  0  0  0  0  0
   15.3319   24.1517   -4.4894 C   0  0  0  0  0  0  0  0  0  0  0  0
   16.3453   24.3850   -5.3248 N   0  0  0  0  0  0  0  0  0  0  0  0
   16.7151   25.6723   -5.3082 N   0  0  0  0  0  0  0  0  0  0  0  0
   15.9255   26.2980   -4.4410 C   0  0  0  0  0  0  0  0  0  0  0  0
   15.9179   27.7327   -4.0183 C   0  0  0  0  0  0  0  0  0  0  0  0
   14.6249   28.3418   -4.0374 N   0  0  0  0  0  0  0  0  0  0  0  0
   13.5045   27.9347   -3.4747 C   0  0  0  0  0  0  0  0  0  0  0  0
   13.3431   26.7121   -2.6618 C   0  0  0  0  0  0  0  0  0  0  0  0
   12.5009   26.6148   -1.6241 C   0  0  0  0  0  0  0  0  0  0  0  0
   12.3987   25.4243   -0.9703 C   0  0  0  0  0  0  0  0  0  0  0  0
   13.5147   24.4271   -1.8323 S   0  0  0  0  0  0  0  0  0  0  0  0
   14.0519   25.5638   -2.9688 C   0  0  0  0  0  0  0  0  0  0  0  0
   15.0736   25.3517   -3.9410 N   0  0  0  0  0  0  0  0  0  0  0  0
   12.4017   28.8207   -3.7182 C   0  0  0  0  0  0  0  0  0  0  0  0
   12.3450   30.1143   -3.3417 C   0  0  0  0  0  0  0  0  0  0  0  0
   11.2992   30.9796   -3.6776 C   0  0  0  0  0  0  0  0  0  0  0  0
   10.2742   30.4674   -4.4336 C   0  0  0  0  0  0  0  0  0  0  0  0
   10.2638   29.1563   -4.8508 C   0  0  0  0  0  0  0  0  0  0  0  0
   11.3183   28.3673   -4.4876 C   0  0  0  0  0  0  0  0  0  0  0  0
   11.2981   26.6924   -5.0257 Cl  0  0  0  0  0  0  0  0  0  0  0  0
   11.5628   25.0724    0.1654 C   0  0  0  0  0  0  0  0  0  0  0  0
   10.8785   24.7595    1.1027 C   0  0  0  0  0  0  0  0  0  0  0  0
   10.0242   24.3834    2.2305 C   0  0  0  0  0  0  0  0  0  0  0  0
   10.3756   23.0738    2.7632 N   0  0  0  0  0  0  0  0  0  0  0  0
    9.9289   22.5228    3.9903 C   0  0  0  0  0  0  0  0  0  0  0  0
    9.1621   23.1050    4.7838 O   0  0  0  0  0  0  0  0  0  0  0  0
   10.5258   21.1999    4.1202 C   0  0  0  0  0  0  0  0  0  0  0  0
   10.4242   20.2330    5.1226 C   0  0  0  0  0  0  0  0  0  0  0  0
   11.1001   19.0468    5.0018 C   0  0  0  0  0  0  0  0  0  0  0  0
   11.8800   18.7753    3.9194 C   0  0  0  0  0  0  0  0  0  0  0  0
   11.9923   19.7129    2.9239 C   0  0  0  0  0  0  0  0  0  0  0  0
   11.3145   20.9278    3.0233 C   0  0  0  0  0  0  0  0  0  0  0  0
   11.2233   22.0977    2.1718 C   0  0  0  0  0  0  0  0  0  0  0  0
   11.8192   22.2262    1.0561 O   0  0  0  0  0  0  0  0  0  0  0  0
  1  2  1  0  0  0
  2  3  2  0  0  0
  3  4  1  0  0  0
  4  5  2  0  0  0
  5  6  1  0  0  0
  6  7  1  0  0  0
  7  8  2  0  0  0
  8  9  1  0  0  0
  9 10  1  0  0  0
 10 11  2  0  0  0
 11 12  1  0  0  0
 12 13  1  0  0  0
 13 14  1  0  0  0
 11 22  1  0  0  0
 22 23  3  0  0  0
 23 24  1  0  0  0
 24 25  1  0  0  0
 25 26  1  0  0  0
 26 27  2  0  0  0
 26 28  1  0  0  0
 28 29  2  0  0  0
 29 30  1  0  0  0
 30 31  2  0  0  0
 31 32  1  0  0  0
 32 33  2  0  0  0
 33 34  1  0  0  0
 34 35  2  0  0  0
  8 15  1  0  0  0
 15 16  2  0  0  0
 16 17  1  0  0  0
 17 18  2  0  0  0
 18 19  1  0  0  0
 19 20  2  0  0  0
 20 21  1  0  0  0
 14  2  1  0  0  0
 34 25  1  0  0  0
 20 15  1  0  0  0
 14  5  1  0  0  0
 33 28  1  0  0  0
 13  9  2  0  0  0
M  END
> <minimizedAffinity>
17.40072

> <CNNscore>
0.5983000398

> <CNNaffinity>
7.6198782921

> <CNN_VS>
4.5589733124

> <CNNaffinity_variance>
1.4131186008

$$$$
[H]c1c([H])c([H])c(C2=NC([H])([H])c3nnc(C([H])([H])[H])n3-c3sc(C#CC([H])([H])N4C(=O)c5c([H])c([H])c([H])c([H])c5C4=O)c([H])c32)c(Cl)c1[H]


 35 40  0  0  0  0  0  0  0  0999 V2000
   12.1854   27.5158   -3.8475 C   0  0  0  0  0  0  0  0  0  0  0  0
   13.3801   26.7988   -4.4120 C   0  0  0  0  0  0  0  0  0  0  0  0
   14.1880   27.0896   -5.4329 N   0  0  0  0  0  0  0  0  0  0  0  0
   15.1331   26.1550   -5.5989 N   0  0  0  0  0  0  0  0  0  0  0  0
   14.9402   25.2292   -4.6647 C   0  0  0  0  0  0  0  0  0  0  0  0
   15.6891   23.9602   -4.4081 C   0  0  0  0  0  0  0  0  0  0  0  0
   16.0599   23.7654   -3.0414 N   0  0  0  0  0  0  0  0  0  0  0  0
   15.3064   23.8054   -1.9605 C   0  0  0  0  0  0  0  0  0  0  0  0
   13.8524   24.0635   -1.9329 C   0  0  0  0  0  0  0  0  0  0  0  0
   13.0152   23.5082   -1.0460 C   0  0  0  0  0  0  0  0  0  0  0  0
   11.6975   23.8508   -1.0826 C   0  0  0  0  0  0  0  0  0  0  0  0
   11.6387   24.9718   -2.3951 S   0  0  0  0  0  0  0  0  0  0  0  0
   13.2769   24.9475   -2.8288 C   0  0  0  0  0  0  0  0  0  0  0  0
   13.8565   25.6354   -3.9356 N   0  0  0  0  0  0  0  0  0  0  0  0
   16.0440   23.5575   -0.7544 C   0  0  0  0  0  0  0  0  0  0  0  0
   16.8873   24.4292   -0.1649 C   0  0  0  0  0  0  0  0  0  0  0  0
   17.5175   24.1972    1.0616 C   0  0  0  0  0  0  0  0  0  0  0  0
   17.2554   23.0055    1.6905 C   0  0  0  0  0  0  0  0  0  0  0  0
   16.4081   22.0677    1.1466 C   0  0  0  0  0  0  0  0  0  0  0  0
   15.8254   22.3606   -0.0538 C   0  0  0  0  0  0  0  0  0  0  0  0
   14.7427   21.1568   -0.7423 Cl  0  0  0  0  0  0  0  0  0  0  0  0
   10.6092   23.3947   -0.2342 C   0  0  0  0  0  0  0  0  0  0  0  0
    9.6958   23.0344    0.4593 C   0  0  0  0  0  0  0  0  0  0  0  0
    8.5967   22.6026    1.3245 C   0  0  0  0  0  0  0  0  0  0  0  0
    8.2071   23.6440    2.2658 N   0  0  0  0  0  0  0  0  0  0  0  0
    7.0636   23.6292    3.1031 C   0  0  0  0  0  0  0  0  0  0  0  0
    6.2305   22.7011    3.1378 O   0  0  0  0  0  0  0  0  0  0  0  0
    7.0686   24.8654    3.8745 C   0  0  0  0  0  0  0  0  0  0  0  0
    6.1861   25.3592    4.8374 C   0  0  0  0  0  0  0  0  0  0  0  0
    6.4224   26.5749    5.4247 C   0  0  0  0  0  0  0  0  0  0  0  0
    7.5066   27.3294    5.0952 C   0  0  0  0  0  0  0  0  0  0  0  0
    8.3854   26.8611    4.1511 C   0  0  0  0  0  0  0  0  0  0  0  0
    8.1671   25.6270    3.5389 C   0  0  0  0  0  0  0  0  0  0  0  0
    8.8820   24.8664    2.5327 C   0  0  0  0  0  0  0  0  0  0  0  0
    9.9589   25.2445    1.9726 O   0  0  0  0  0  0  0  0  0  0  0  0
  1  2  1  0  0  0
  2  3  2  0  0  0
  3  4  1  0  0  0
  4  5  2  0  0  0
  5  6  1  0  0  0
  6  7  1  0  0  0
  7  8  2  0  0  0
  8  9  1  0  0  0
  9 10  1  0  0  0
 10 11  2  0  0  0
 11 12  1  0  0  0
 12 13  1  0  0  0
 13 14  1  0  0  0
 11 22  1  0  0  0
 22 23  3  0  0  0
 23 24  1  0  0  0
 24 25  1  0  0  0
 25 26  1  0  0  0
 26 27  2  0  0  0
 26 28  1  0  0  0
 28 29  2  0  0  0
 29 30  1  0  0  0
 30 31  2  0  0  0
 31 32  1  0  0  0
 32 33  2  0  0  0
 33 34  1  0  0  0
 34 35  2  0  0  0
  8 15  1  0  0  0
 15 16  2  0  0  0
 16 17  1  0  0  0
 17 18  2  0  0  0
 18 19  1  0  0  0
 19 20  2  0  0  0
 20 21  1  0  0  0
 14  2  1  0  0  0
 34 25  1  0  0  0
 20 15  1  0  0  0
 14  5  1  0  0  0
 33 28  1  0  0  0
 13  9  2  0  0  0
M  END
> <minimizedAffinity>
-2.25603

> <CNNscore>
0.5758823752

> <CNNaffinity>
7.7545499802

> <CNN_VS>
4.4657087326

> <CNNaffinity_variance>
0.5362774730

$$$$
[H]c1c([H])c([H])c(C2=NC([H])([H])c3nnc(C([H])([H])[H])n3-c3sc(C#CC([H])([H])N4C(=O)c5c([H])c([H])c([H])c([H])c5C4=O)c([H])c32)c(Cl)c1[H]


 35 40  0  0  0  0  0  0  0  0999 V2000
   15.0557   23.8489   -6.9476 C   0  0  0  0  0  0  0  0  0  0  0  0
   15.6250   25.2329   -7.0917 C   0  0  0  0  0  0  0  0  0  0  0  0
   16.2821   25.8216   -8.0923 N   0  0  0  0  0  0  0  0  0  0  0  0
   16.6235   27.0806   -7.7881 N   0  0  0  0  0  0  0  0  0  0  0  0
   16.1800   27.3231   -6.5586 C   0  0  0  0  0  0  0  0  0  0  0  0
   16.3078   28.5568   -5.7227 C   0  0  0  0  0  0  0  0  0  0  0  0
   15.0839   28.9864   -5.1220 N   0  0  0  0  0  0  0  0  0  0  0  0
   14.2331   28.3010   -4.3844 C   0  0  0  0  0  0  0  0  0  0  0  0
   14.3754   26.8824   -3.9985 C   0  0  0  0  0  0  0  0  0  0  0  0
   13.9481   26.3830   -2.8307 C   0  0  0  0  0  0  0  0  0  0  0  0
   14.0901   25.0489   -2.5954 C   0  0  0  0  0  0  0  0  0  0  0  0
   14.8446   24.4915   -4.0455 S   0  0  0  0  0  0  0  0  0  0  0  0
   14.9426   25.9691   -4.8697 C   0  0  0  0  0  0  0  0  0  0  0  0
   15.5637   26.1772   -6.1367 N   0  0  0  0  0  0  0  0  0  0  0  0
   13.1071   29.0819   -3.9573 C   0  0  0  0  0  0  0  0  0  0  0  0
   13.1785   30.2914   -3.3652 C   0  0  0  0  0  0  0  0  0  0  0  0
   12.0626   31.0721   -3.0482 C   0  0  0  0  0  0  0  0  0  0  0  0
   10.8267   30.5632   -3.3611 C   0  0  0  0  0  0  0  0  0  0  0  0
   10.6777   29.3349   -3.9630 C   0  0  0  0  0  0  0  0  0  0  0  0
   11.8108   28.6262   -4.2459 C   0  0  0  0  0  0  0  0  0  0  0  0
   11.6120   27.0570   -5.0163 Cl  0  0  0  0  0  0  0  0  0  0  0  0
   13.7051   24.2800   -1.4237 C   0  0  0  0  0  0  0  0  0  0  0  0
   13.4054   23.6519   -0.4437 C   0  0  0  0  0  0  0  0  0  0  0  0
   13.0447   22.8652    0.7371 C   0  0  0  0  0  0  0  0  0  0  0  0
   11.7394   23.2433    1.2619 N   0  0  0  0  0  0  0  0  0  0  0  0
   10.7682   22.3634    1.8018 C   0  0  0  0  0  0  0  0  0  0  0  0
   10.9150   21.1279    1.8961 O   0  0  0  0  0  0  0  0  0  0  0  0
    9.6214   23.1681    2.2021 C   0  0  0  0  0  0  0  0  0  0  0  0
    8.4014   22.8163    2.7834 C   0  0  0  0  0  0  0  0  0  0  0  0
    7.4728   23.7837    3.0669 C   0  0  0  0  0  0  0  0  0  0  0  0
    7.7040   25.0978    2.7964 C   0  0  0  0  0  0  0  0  0  0  0  0
    8.8970   25.4633    2.2253 C   0  0  0  0  0  0  0  0  0  0  0  0
    9.8582   24.4976    1.9272 C   0  0  0  0  0  0  0  0  0  0  0  0
   11.1823   24.5489    1.3388 C   0  0  0  0  0  0  0  0  0  0  0  0
   11.7577   25.6136    0.9491 O   0  0  0  0  0  0  0  0  0  0  0  0
  1  2  1  0  0  0
  2  3  2  0  0  0
  3  4  1  0  0  0
  4  5  2  0  0  0
  5  6  1  0  0  0
  6  7  1  0  0  0
  7  8  2  0  0  0
  8  9  1  0  0  0
  9 10  1  0  0  0
 10 11  2  0  0  0
 11 12  1  0  0  0
 12 13  1  0  0  0
 13 14  1  0  0  0
 11 22  1  0  0  0
 22 23  3  0  0  0
 23 24  1  0  0  0
 24 25  1  0  0  0
 25 26  1  0  0  0
 26 27  2  0  0  0
 26 28  1  0  0  0
 28 29  2  0  0  0
 29 30  1  0  0  0
 30 31  2  0  0  0
 31 32  1  0  0  0
 32 33  2  0  0  0
 33 34  1  0  0  0
 34 35  2  0  0  0
  8 15  1  0  0  0
 15 16  2  0  0  0
 16 17  1  0  0  0
 17 18  2  0  0  0
 18 19  1  0  0  0
 19 20  2  0  0  0
 20 21  1  0  0  0
 14  2  1  0  0  0
 34 25  1  0  0  0
 20 15  1  0  0  0
 14  5  1  0  0  0
 33 28  1  0  0  0
 13  9  2  0  0  0
M  END
> <minimizedAffinity>
17.97488

> <CNNscore>
0.5604255795

> <CNNaffinity>
7.4867200851

> <CNN_VS>
4.1957492828

> <CNNaffinity_variance>
1.2147424221

$$$$
[H]c1c([H])c([H])c(C2=NC([H])([H])c3nnc(C([H])([H])[H])n3-c3sc(C#CC([H])([H])N4C(=O)c5c([H])c([H])c([H])c([H])c5C4=O)c([H])c32)c(Cl)c1[H]


 35 40  0  0  0  0  0  0  0  0999 V2000
   14.8446   22.7501   -4.1938 C   0  0  0  0  0  0  0  0  0  0  0  0
   15.3655   24.0457   -4.7506 C   0  0  0  0  0  0  0  0  0  0  0  0
   16.2986   24.3052   -5.6679 N   0  0  0  0  0  0  0  0  0  0  0  0
   16.4576   25.6221   -5.8545 N   0  0  0  0  0  0  0  0  0  0  0  0
   15.6087   26.2409   -5.0399 C   0  0  0  0  0  0  0  0  0  0  0  0
   15.3860   27.7040   -4.8242 C   0  0  0  0  0  0  0  0  0  0  0  0
   14.0122   28.0978   -4.8541 N   0  0  0  0  0  0  0  0  0  0  0  0
   12.9919   27.6117   -4.1755 C   0  0  0  0  0  0  0  0  0  0  0  0
   13.0571   26.5132   -3.1904 C   0  0  0  0  0  0  0  0  0  0  0  0
   12.2783   26.4429   -2.1022 C   0  0  0  0  0  0  0  0  0  0  0  0
   12.3911   25.3612   -1.2822 C   0  0  0  0  0  0  0  0  0  0  0  0
   13.6217   24.4304   -2.0581 S   0  0  0  0  0  0  0  0  0  0  0  0
   13.9296   25.4546   -3.3728 C   0  0  0  0  0  0  0  0  0  0  0  0
   14.9376   25.2599   -4.3630 N   0  0  0  0  0  0  0  0  0  0  0  0
   11.7536   28.2718   -4.4773 C   0  0  0  0  0  0  0  0  0  0  0  0
   10.7067   27.7089   -5.1141 C   0  0  0  0  0  0  0  0  0  0  0  0
    9.4770   28.3459   -5.3081 C   0  0  0  0  0  0  0  0  0  0  0  0
    9.3427   29.6212   -4.8185 C   0  0  0  0  0  0  0  0  0  0  0  0
   10.3693   30.2592   -4.1610 C   0  0  0  0  0  0  0  0  0  0  0  0
   11.5428   29.5773   -4.0056 C   0  0  0  0  0  0  0  0  0  0  0  0
   12.8504   30.3995   -3.1631 Cl  0  0  0  0  0  0  0  0  0  0  0  0
   11.6627   25.0578   -0.0618 C   0  0  0  0  0  0  0  0  0  0  0  0
   11.0684   24.8262    0.9571 C   0  0  0  0  0  0  0  0  0  0  0  0
   10.3599   24.5240    2.2020 C   0  0  0  0  0  0  0  0  0  0  0  0
    9.3834   23.4576    2.0244 N   0  0  0  0  0  0  0  0  0  0  0  0
    8.6495   22.8157    3.0532 C   0  0  0  0  0  0  0  0  0  0  0  0
    8.7520   23.0912    4.2657 O   0  0  0  0  0  0  0  0  0  0  0  0
    7.7945   21.8172    2.4247 C   0  0  0  0  0  0  0  0  0  0  0  0
    6.8774   20.9126    2.9637 C   0  0  0  0  0  0  0  0  0  0  0  0
    6.1870   20.0629    2.1390 C   0  0  0  0  0  0  0  0  0  0  0  0
    6.3686   20.0716    0.7898 C   0  0  0  0  0  0  0  0  0  0  0  0
    7.2655   20.9535    0.2413 C   0  0  0  0  0  0  0  0  0  0  0  0
    7.9803   21.8283    1.0592 C   0  0  0  0  0  0  0  0  0  0  0  0
    8.9737   22.8532    0.8046 C   0  0  0  0  0  0  0  0  0  0  0  0
    9.4118   23.1627   -0.3481 O   0  0  0  0  0  0  0  0  0  0  0  0
  1  2  1  0  0  0
  2  3  2  0  0  0
  3  4  1  0  0  0
  4  5  2  0  0  0
  5  6  1  0  0  0
  6  7  1  0  0  0
  7  8  2  0  0  0
  8  9  1  0  0  0
  9 10  1  0  0  0
 10 11  2  0  0  0
 11 12  1  0  0  0
 12 13  1  0  0  0
 13 14  1  0  0  0
 11 22  1  0  0  0
 22 23  3  0  0  0
 23 24  1  0  0  0
 24 25  1  0  0  0
 25 26  1  0  0  0
 26 27  2  0  0  0
 26 28  1  0  0  0
 28 29  2  0  0  0
 29 30  1  0  0  0
 30 31  2  0  0  0
 31 32  1  0  0  0
 32 33  2  0  0  0
 33 34  1  0  0  0
 34 35  2  0  0  0
  8 15  1  0  0  0
 15 16  2  0  0  0
 16 17  1  0  0  0
 17 18  2  0  0  0
 18 19  1  0  0  0
 19 20  2  0  0  0
 20 21  1  0  0  0
 14  2  1  0  0  0
 34 25  1  0  0  0
 20 15  1  0  0  0
 14  5  1  0  0  0
 33 28  1  0  0  0
 13  9  2  0  0  0
M  END
> <minimizedAffinity>
14.88652

> <CNNscore>
0.5525666475

> <CNNaffinity>
7.5227713585

> <CNN_VS>
4.1568326950

> <CNNaffinity_variance>
1.7313369513

$$$$
[H]c1c([H])c([H])c(C2=NC([H])([H])c3nnc(C([H])([H])[H])n3-c3sc(C#CC([H])([H])N4C(=O)c5c([H])c([H])c([H])c([H])c5C4=O)c([H])c32)c(Cl)c1[H]


 35 40  0  0  0  0  0  0  0  0999 V2000
   12.8040   27.8809   -3.8168 C   0  0  0  0  0  0  0  0  0  0  0  0
   13.7985   26.9143   -4.3972 C   0  0  0  0  0  0  0  0  0  0  0  0
   14.6552   27.0269   -5.4135 N   0  0  0  0  0  0  0  0  0  0  0  0
   15.3546   25.8997   -5.5993 N   0  0  0  0  0  0  0  0  0  0  0  0
   14.9467   25.0272   -4.6832 C   0  0  0  0  0  0  0  0  0  0  0  0
   15.3755   23.6129   -4.4527 C   0  0  0  0  0  0  0  0  0  0  0  0
   15.6860   23.3099   -3.0907 N   0  0  0  0  0  0  0  0  0  0  0  0
   14.9596   23.5048   -2.0081 C   0  0  0  0  0  0  0  0  0  0  0  0
   13.6070   24.0969   -1.9730 C   0  0  0  0  0  0  0  0  0  0  0  0
   12.6600   23.7368   -1.0958 C   0  0  0  0  0  0  0  0  0  0  0  0
   11.4598   24.3802   -1.1236 C   0  0  0  0  0  0  0  0  0  0  0  0
   11.6703   25.5089   -2.4138 S   0  0  0  0  0  0  0  0  0  0  0  0
   13.2581   25.1086   -2.8504 C   0  0  0  0  0  0  0  0  0  0  0  0
   13.9865   25.6624   -3.9445 N   0  0  0  0  0  0  0  0  0  0  0  0
   15.6146   23.0671   -0.8082 C   0  0  0  0  0  0  0  0  0  0  0  0
   16.4628   23.8105   -0.0691 C   0  0  0  0  0  0  0  0  0  0  0  0
   17.0102   23.3917    1.1476 C   0  0  0  0  0  0  0  0  0  0  0  0
   16.6569   22.1459    1.6032 C   0  0  0  0  0  0  0  0  0  0  0  0
   15.7991   21.3313    0.9004 C   0  0  0  0  0  0  0  0  0  0  0  0
   15.3003   21.8047   -0.2801 C   0  0  0  0  0  0  0  0  0  0  0  0
   14.2035   20.7576   -1.1724 Cl  0  0  0  0  0  0  0  0  0  0  0  0
   10.2922   24.1762   -0.2826 C   0  0  0  0  0  0  0  0  0  0  0  0
    9.3272   24.0298    0.4190 C   0  0  0  0  0  0  0  0  0  0  0  0
    8.1658   23.8366    1.2889 C   0  0  0  0  0  0  0  0  0  0  0  0
    8.3969   22.7915    2.2771 N   0  0  0  0  0  0  0  0  0  0  0  0
    7.4071   21.9712    2.8741 C   0  0  0  0  0  0  0  0  0  0  0  0
    6.1876   22.0451    2.6209 O   0  0  0  0  0  0  0  0  0  0  0  0
    8.0829   21.0703    3.7985 C   0  0  0  0  0  0  0  0  0  0  0  0
    7.5934   20.0676    4.6381 C   0  0  0  0  0  0  0  0  0  0  0  0
    8.4567   19.3497    5.4242 C   0  0  0  0  0  0  0  0  0  0  0  0
    9.7975   19.5855    5.4136 C   0  0  0  0  0  0  0  0  0  0  0  0
   10.2977   20.5667    4.5951 C   0  0  0  0  0  0  0  0  0  0  0  0
    9.4398   21.3111    3.7857 C   0  0  0  0  0  0  0  0  0  0  0  0
    9.6404   22.3873    2.8351 C   0  0  0  0  0  0  0  0  0  0  0  0
   10.7705   22.8933    2.5461 O   0  0  0  0  0  0  0  0  0  0  0  0
  1  2  1  0  0  0
  2  3  2  0  0  0
  3  4  1  0  0  0
  4  5  2  0  0  0
  5  6  1  0  0  0
  6  7  1  0  0  0
  7  8  2  0  0  0
  8  9  1  0  0  0
  9 10  1  0  0  0
 10 11  2  0  0  0
 11 12  1  0  0  0
 12 13  1  0  0  0
 13 14  1  0  0  0
 11 22  1  0  0  0
 22 23  3  0  0  0
 23 24  1  0  0  0
 24 25  1  0  0  0
 25 26  1  0  0  0
 26 27  2  0  0  0
 26 28  1  0  0  0
 28 29  2  0  0  0
 29 30  1  0  0  0
 30 31  2  0  0  0
 31 32  1  0  0  0
 32 33  2  0  0  0
 33 34  1  0  0  0
 34 35  2  0  0  0
  8 15  1  0  0  0
 15 16  2  0  0  0
 16 17  1  0  0  0
 17 18  2  0  0  0
 18 19  1  0  0  0
 19 20  2  0  0  0
 20 21  1  0  0  0
 14  2  1  0  0  0
 34 25  1  0  0  0
 20 15  1  0  0  0
 14  5  1  0  0  0
 33 28  1  0  0  0
 13  9  2  0  0  0
M  END
> <minimizedAffinity>
-3.61983

> <CNNscore>
0.4969660938

> <CNNaffinity>
7.7761306763

> <CNN_VS>
3.8644733429

> <CNNaffinity_variance>
0.4239432812

$$$$
[H]c1c([H])c([H])c(C2=NC([H])([H])c3nnc(C([H])([H])[H])n3-c3sc(C#CC([H])([H])N4C(=O)c5c([H])c([H])c([H])c([H])c5C4=O)c([H])c32)c(Cl)c1[H]


 35 40  0  0  0  0  0  0  0  0999 V2000
   14.9171   23.8774   -6.5012 C   0  0  0  0  0  0  0  0  0  0  0  0
   15.5239   25.2448   -6.6490 C   0  0  0  0  0  0  0  0  0  0  0  0
   16.2975   25.7737   -7.5984 N   0  0  0  0  0  0  0  0  0  0  0  0
   16.6264   27.0421   -7.3202 N   0  0  0  0  0  0  0  0  0  0  0  0
   16.0551   27.3522   -6.1608 C   0  0  0  0  0  0  0  0  0  0  0  0
   16.1129   28.6249   -5.3772 C   0  0  0  0  0  0  0  0  0  0  0  0
   14.8385   29.0999   -4.9373 N   0  0  0  0  0  0  0  0  0  0  0  0
   13.8995   28.4636   -4.2656 C   0  0  0  0  0  0  0  0  0  0  0  0
   13.9726   27.0648   -3.7973 C   0  0  0  0  0  0  0  0  0  0  0  0
   13.4107   26.6306   -2.6609 C   0  0  0  0  0  0  0  0  0  0  0  0
   13.5016   25.3084   -2.3463 C   0  0  0  0  0  0  0  0  0  0  0  0
   14.4004   24.6688   -3.6751 S   0  0  0  0  0  0  0  0  0  0  0  0
   14.6153   26.1013   -4.5548 C   0  0  0  0  0  0  0  0  0  0  0  0
   15.3754   26.2370   -5.7540 N   0  0  0  0  0  0  0  0  0  0  0  0
   12.7478   29.2795   -4.0043 C   0  0  0  0  0  0  0  0  0  0  0  0
   12.7763   30.5192   -3.4745 C   0  0  0  0  0  0  0  0  0  0  0  0
   11.6463   31.3286   -3.3215 C   0  0  0  0  0  0  0  0  0  0  0  0
   10.4422   30.8167   -3.7367 C   0  0  0  0  0  0  0  0  0  0  0  0
   10.3373   29.5584   -4.2835 C   0  0  0  0  0  0  0  0  0  0  0  0
   11.4820   28.8226   -4.4048 C   0  0  0  0  0  0  0  0  0  0  0  0
   11.3396   27.2152   -5.1057 Cl  0  0  0  0  0  0  0  0  0  0  0  0
   12.9763   24.6049   -1.1883 C   0  0  0  0  0  0  0  0  0  0  0  0
   12.5545   24.0045   -0.2361 C   0  0  0  0  0  0  0  0  0  0  0  0
   12.0178   23.2730    0.9128 C   0  0  0  0  0  0  0  0  0  0  0  0
   10.7877   22.5675    0.5793 N   0  0  0  0  0  0  0  0  0  0  0  0
    9.4843   22.9030    1.0236 C   0  0  0  0  0  0  0  0  0  0  0  0
    9.2239   23.8662    1.7727 O   0  0  0  0  0  0  0  0  0  0  0  0
    8.5615   21.9329    0.4487 C   0  0  0  0  0  0  0  0  0  0  0  0
    7.1761   21.7960    0.5575 C   0  0  0  0  0  0  0  0  0  0  0  0
    6.5345   20.7765   -0.0964 C   0  0  0  0  0  0  0  0  0  0  0  0
    7.2140   19.8782   -0.8610 C   0  0  0  0  0  0  0  0  0  0  0  0
    8.5759   19.9962   -0.9803 C   0  0  0  0  0  0  0  0  0  0  0  0
    9.2520   21.0250   -0.3247 C   0  0  0  0  0  0  0  0  0  0  0  0
   10.6452   21.4185   -0.2457 C   0  0  0  0  0  0  0  0  0  0  0  0
   11.5991   20.8171   -0.8330 O   0  0  0  0  0  0  0  0  0  0  0  0
  1  2  1  0  0  0
  2  3  2  0  0  0
  3  4  1  0  0  0
  4  5  2  0  0  0
  5  6  1  0  0  0
  6  7  1  0  0  0
  7  8  2  0  0  0
  8  9  1  0  0  0
  9 10  1  0  0  0
 10 11  2  0  0  0
 11 12  1  0  0  0
 12 13  1  0  0  0
 13 14  1  0  0  0
 11 22  1  0  0  0
 22 23  3  0  0  0
 23 24  1  0  0  0
 24 25  1  0  0  0
 25 26  1  0  0  0
 26 27  2  0  0  0
 26 28  1  0  0  0
 28 29  2  0  0  0
 29 30  1  0  0  0
 30 31  2  0  0  0
 31 32  1  0  0  0
 32 33  2  0  0  0
 33 34  1  0  0  0
 34 35  2  0  0  0
  8 15  1  0  0  0
 15 16  2  0  0  0
 16 17  1  0  0  0
 17 18  2  0  0  0
 18 19  1  0  0  0
 19 20  2  0  0  0
 20 21  1  0  0  0
 14  2  1  0  0  0
 34 25  1  0  0  0
 20 15  1  0  0  0
 14  5  1  0  0  0
 33 28  1  0  0  0
 13  9  2  0  0  0
M  END
> <minimizedAffinity>
15.95153

> <CNNscore>
0.4964570999

> <CNNaffinity>
7.3392219543

> <CNN_VS>
3.6436088085

> <CNNaffinity_variance>
0.8911868930

$$$$
[H]c1c([H])c([H])c(C2=NC([H])([H])c3nnc(C([H])([H])[H])n3-c3sc(C#CC([H])([H])N4C(=O)c5c([H])c([H])c([H])c([H])c5C4=O)c([H])c32)c(Cl)c1[H]


 35 40  0  0  0  0  0  0  0  0999 V2000
   12.7966   27.1403   -2.8361 C   0  0  0  0  0  0  0  0  0  0  0  0
   13.6623   26.1267   -3.5313 C   0  0  0  0  0  0  0  0  0  0  0  0
   14.4864   26.2314   -4.5751 N   0  0  0  0  0  0  0  0  0  0  0  0
   15.0574   25.0575   -4.8754 N   0  0  0  0  0  0  0  0  0  0  0  0
   14.5966   24.1617   -4.0080 C   0  0  0  0  0  0  0  0  0  0  0  0
   14.8848   22.6979   -3.9022 C   0  0  0  0  0  0  0  0  0  0  0  0
   15.2143   22.2600   -2.5820 N   0  0  0  0  0  0  0  0  0  0  0  0
   14.5542   22.4422   -1.4555 C   0  0  0  0  0  0  0  0  0  0  0  0
   13.2727   23.1627   -1.3146 C   0  0  0  0  0  0  0  0  0  0  0  0
   12.3279   22.8325   -0.4235 C   0  0  0  0  0  0  0  0  0  0  0  0
   11.2008   23.5935   -0.3484 C   0  0  0  0  0  0  0  0  0  0  0  0
   11.4775   24.7924   -1.5604 S   0  0  0  0  0  0  0  0  0  0  0  0
   12.9973   24.2697   -2.0982 C   0  0  0  0  0  0  0  0  0  0  0  0
   13.7367   24.8309   -3.1811 N   0  0  0  0  0  0  0  0  0  0  0  0
   15.2059   21.8486   -0.3227 C   0  0  0  0  0  0  0  0  0  0  0  0
   15.2722   20.5262   -0.0677 C   0  0  0  0  0  0  0  0  0  0  0  0
   15.9969   19.9710    0.9915 C   0  0  0  0  0  0  0  0  0  0  0  0
   16.6740   20.8359    1.8149 C   0  0  0  0  0  0  0  0  0  0  0  0
   16.6489   22.1974    1.6170 C   0  0  0  0  0  0  0  0  0  0  0  0
   15.9219   22.6711    0.5618 C   0  0  0  0  0  0  0  0  0  0  0  0
   15.8955   24.4129    0.3150 Cl  0  0  0  0  0  0  0  0  0  0  0  0
   10.0515   23.4432    0.5284 C   0  0  0  0  0  0  0  0  0  0  0  0
    9.1065   23.2966    1.2567 C   0  0  0  0  0  0  0  0  0  0  0  0
    7.9400   23.1217    2.1237 C   0  0  0  0  0  0  0  0  0  0  0  0
    7.5258   24.3777    2.7346 N   0  0  0  0  0  0  0  0  0  0  0  0
    7.3107   25.6052    2.0594 C   0  0  0  0  0  0  0  0  0  0  0  0
    7.4531   25.7649    0.8302 O   0  0  0  0  0  0  0  0  0  0  0  0
    6.9089   26.5895    3.0557 C   0  0  0  0  0  0  0  0  0  0  0  0
    6.5783   27.9413    2.9406 C   0  0  0  0  0  0  0  0  0  0  0  0
    6.2277   28.6586    4.0547 C   0  0  0  0  0  0  0  0  0  0  0  0
    6.1903   28.0877    5.2901 C   0  0  0  0  0  0  0  0  0  0  0  0
    6.5118   26.7604    5.4235 C   0  0  0  0  0  0  0  0  0  0  0  0
    6.8719   26.0089    4.3051 C   0  0  0  0  0  0  0  0  0  0  0  0
    7.2572   24.6251    4.1085 C   0  0  0  0  0  0  0  0  0  0  0  0
    7.3411   23.7607    5.0371 O   0  0  0  0  0  0  0  0  0  0  0  0
  1  2  1  0  0  0
  2  3  2  0  0  0
  3  4  1  0  0  0
  4  5  2  0  0  0
  5  6  1  0  0  0
  6  7  1  0  0  0
  7  8  2  0  0  0
  8  9  1  0  0  0
  9 10  1  0  0  0
 10 11  2  0  0  0
 11 12  1  0  0  0
 12 13  1  0  0  0
 13 14  1  0  0  0
 11 22  1  0  0  0
 22 23  3  0  0  0
 23 24  1  0  0  0
 24 25  1  0  0  0
 25 26  1  0  0  0
 26 27  2  0  0  0
 26 28  1  0  0  0
 28 29  2  0  0  0
 29 30  1  0  0  0
 30 31  2  0  0  0
 31 32  1  0  0  0
 32 33  2  0  0  0
 33 34  1  0  0  0
 34 35  2  0  0  0
  8 15  1  0  0  0
 15 16  2  0  0  0
 16 17  1  0  0  0
 17 18  2  0  0  0
 18 19  1  0  0  0
 19 20  2  0  0  0
 20 21  1  0  0  0
 14  2  1  0  0  0
 34 25  1  0  0  0
 20 15  1  0  0  0
 14  5  1  0  0  0
 33 28  1  0  0  0
 13  9  2  0  0  0
M  END
> <minimizedAffinity>
1.30422

> <CNNscore>
0.4935022593

> <CNNaffinity>
7.5062537193

> <CNN_VS>
3.7043530941

> <CNNaffinity_variance>
1.0031321049

$$$$
[H]c1c([H])c([H])c2c(c1[H])c(C([H])([H])[C@@]([H])(C(=O)N([H])[H])N([H])C(=O)[C@@]([H])(N([H])C(=O)[C@@]([H])(N([H])C(=O)C([H])([H])N([H])C(=O)[C@@]1([H])N(C(=O)[C@@]([H])(N([H])[H])C([H])([H])C([H])([H])C([H])([H])N=C(N([H])[H])N([H])[H])C([H])([H])C([H])([H])C1([H])[H])C([H])([H])c1c([H])n([H])c3c([H])c([H])c([H])c([H])c13)C([H])([H])C([H])(C([H])([H])[H])C([H])([H])[H])c([H])n2[H]


 73 77  0  0  0  0  0  0  0  0999 V2000
    7.3178   23.7525    3.8829 C   0  0  0  0  0  0  0  0  0  0  0  0
    7.4374   22.6190    4.7575 N   0  0  0  0  0  0  0  0  0  0  0  0
    6.4081   21.8922    5.4231 C   0  0  0  0  0  0  0  0  0  0  0  0
    5.2021   22.2153    5.3038 O   0  0  0  0  0  0  0  0  0  0  0  0
    8.4368   22.2376    4.9564 H   0  0  0  0  0  0  0  0  0  0  0  0
    6.8220   20.7263    6.2740 C   0  0  0  0  0  0  0  0  0  0  0  0
    5.8505   19.6653    6.2506 N   0  0  0  0  0  0  0  0  0  0  0  0
    5.7270   18.8199    5.1489 C   0  0  0  0  0  0  0  0  0  0  0  0
    6.5746   19.0649    4.1862 O   0  0  0  0  0  0  0  0  0  0  0  0
    5.2578   19.5549    7.0923 H   0  0  0  0  0  0  0  0  0  0  0  0
    4.8396   17.7271    4.8583 C   0  0  0  0  0  0  0  0  0  0  0  0
    4.8885   16.7397    6.0746 C   0  0  0  0  0  0  0  0  0  0  0  0
    6.1045   15.8979    5.7338 C   0  0  0  0  0  0  0  0  0  0  0  0
    6.3617   16.0936    4.2489 C   0  0  0  0  0  0  0  0  0  0  0  0
    5.2118   16.8613    3.7818 N   0  0  0  0  0  0  0  0  0  0  0  0
    4.5812   16.7836    2.5136 C   0  0  0  0  0  0  0  0  0  0  0  0
    3.6990   17.5980    2.1918 O   0  0  0  0  0  0  0  0  0  0  0  0
    5.0249   15.6703    1.5890 C   0  0  0  0  0  0  0  0  0  0  0  0
    3.9551   14.6605    1.7537 N   0  0  0  0  0  0  0  0  0  0  0  0
    3.2714   14.8764    0.9593 H   0  0  0  0  0  0  0  0  0  0  0  0
    3.4139   14.9179    2.6059 H   0  0  0  0  0  0  0  0  0  0  0  0
    5.1091   16.1585    0.1872 C   0  0  0  0  0  0  0  0  0  0  0  0
    6.4786   16.5770   -0.2230 C   0  0  0  0  0  0  0  0  0  0  0  0
    6.7007   18.0046   -0.5704 C   0  0  0  0  0  0  0  0  0  0  0  0
    6.3459   18.8440    0.5954 N   0  0  0  0  0  0  0  0  0  0  0  0
    6.3969   20.1229    0.4943 C   0  0  0  0  0  0  0  0  0  0  0  0
    6.0624   20.9323    1.5999 N   0  0  0  0  0  0  0  0  0  0  0  0
    6.7895   20.7103   -0.7311 N   0  0  0  0  0  0  0  0  0  0  0  0
    5.1185   21.3457    1.6744 H   0  0  0  0  0  0  0  0  0  0  0  0
    6.7614   21.1196    2.3381 H   0  0  0  0  0  0  0  0  0  0  0  0
    7.8011   20.7738   -0.9505 H   0  0  0  0  0  0  0  0  0  0  0  0
    6.0957   21.0652   -1.3887 H   0  0  0  0  0  0  0  0  0  0  0  0
    8.4430   23.2825    1.6479 N   0  0  0  0  0  0  0  0  0  0  0  0
    8.5222   23.6939    2.9873 C   0  0  0  0  0  0  0  0  0  0  0  0
    9.6423   24.0358    3.4459 O   0  0  0  0  0  0  0  0  0  0  0  0
    7.5157   22.9816    1.2532 H   0  0  0  0  0  0  0  0  0  0  0  0
    9.5293   23.2219    0.6831 C   0  0  0  0  0  0  0  0  0  0  0  0
   10.2364   21.8982    0.9085 C   0  0  0  0  0  0  0  0  0  0  0  0
    9.7393   20.8647    0.4310 O   0  0  0  0  0  0  0  0  0  0  0  0
   11.4095   21.8394    1.6354 N   0  0  0  0  0  0  0  0  0  0  0  0
   11.8646   22.6817    2.0465 H   0  0  0  0  0  0  0  0  0  0  0  0
   12.1355   20.5897    1.8929 C   0  0  0  0  0  0  0  0  0  0  0  0
   11.8713   20.0784    3.2357 C   0  0  0  0  0  0  0  0  0  0  0  0
   11.7127   20.8877    4.3938 N   0  0  0  0  0  0  0  0  0  0  0  0
   11.7773   18.8257    3.4153 O   0  0  0  0  0  0  0  0  0  0  0  0
   11.7234   20.5555    5.3611 H   0  0  0  0  0  0  0  0  0  0  0  0
   11.5714   21.9245    4.2294 H   0  0  0  0  0  0  0  0  0  0  0  0
   13.5292   20.6559    1.4092 C   0  0  0  0  0  0  0  0  0  0  0  0
   13.7770   21.1622    0.0817 C   0  0  0  0  0  0  0  0  0  0  0  0
   13.3210   20.5780   -1.0978 C   0  0  0  0  0  0  0  0  0  0  0  0
   13.6084   21.2967   -2.1558 N   0  0  0  0  0  0  0  0  0  0  0  0
   14.2727   22.3945   -1.7211 C   0  0  0  0  0  0  0  0  0  0  0  0
   14.7789   23.4396   -2.4563 C   0  0  0  0  0  0  0  0  0  0  0  0
   15.4250   24.4558   -1.8187 C   0  0  0  0  0  0  0  0  0  0  0  0
   15.5539   24.4063   -0.4399 C   0  0  0  0  0  0  0  0  0  0  0  0
   15.0431   23.3565    0.2836 C   0  0  0  0  0  0  0  0  0  0  0  0
   14.3853   22.3187   -0.3254 C   0  0  0  0  0  0  0  0  0  0  0  0
   13.3684   21.0735   -3.1661 H   0  0  0  0  0  0  0  0  0  0  0  0
   10.5602   24.2584    0.7965 C   0  0  0  0  0  0  0  0  0  0  0  0
   11.1631   24.5403   -1.6469 C   0  0  0  0  0  0  0  0  0  0  0  0
   11.6230   24.3848   -0.2269 C   0  0  0  0  0  0  0  0  0  0  0  0
   12.4214   25.6590    0.1753 C   0  0  0  0  0  0  0  0  0  0  0  0
    7.3793   25.0249    4.7070 C   0  0  0  0  0  0  0  0  0  0  0  0
    6.2006   25.8694    4.6051 C   0  0  0  0  0  0  0  0  0  0  0  0
    5.0280   25.7970    5.3124 C   0  0  0  0  0  0  0  0  0  0  0  0
    4.1902   26.7824    4.9300 N   0  0  0  0  0  0  0  0  0  0  0  0
    4.8275   27.5071    3.9595 C   0  0  0  0  0  0  0  0  0  0  0  0
    4.4343   28.6292    3.2208 C   0  0  0  0  0  0  0  0  0  0  0  0
    5.3045   29.1508    2.3022 C   0  0  0  0  0  0  0  0  0  0  0  0
    6.5622   28.6165    2.0694 C   0  0  0  0  0  0  0  0  0  0  0  0
    6.9208   27.5250    2.7995 C   0  0  0  0  0  0  0  0  0  0  0  0
    6.0716   26.9550    3.7468 C   0  0  0  0  0  0  0  0  0  0  0  0
    3.2307   26.9655    5.2972 H   0  0  0  0  0  0  0  0  0  0  0  0
 60 61  1  0  0  0
 61 62  1  0  0  0
 61 59  1  0  0  0
 59 37  1  0  0  0
 37 33  1  0  0  0
 33 34  1  0  0  0
 34 35  2  0  0  0
 34  1  1  0  0  0
  1 63  1  0  0  0
 63 64  1  0  0  0
 64 65  2  0  0  0
 65 66  1  0  0  0
 66 67  1  0  0  0
 67 68  2  0  0  0
 68 69  1  0  0  0
 69 70  2  0  0  0
 70 71  1  0  0  0
 71 72  2  0  0  0
  1  2  1  0  0  0
  2  3  1  0  0  0
  3  4  2  0  0  0
  3  6  1  0  0  0
  6  7  1  0  0  0
  7  8  1  0  0  0
  8  9  2  0  0  0
  8 11  1  0  0  0
 11 12  1  0  0  0
 12 13  1  0  0  0
 13 14  1  0  0  0
 14 15  1  0  0  0
 15 16  1  0  0  0
 16 17  2  0  0  0
 16 18  1  0  0  0
 18 19  1  0  0  0
 18 22  1  0  0  0
 22 23  1  0  0  0
 23 24  1  0  0  0
 24 25  1  0  0  0
 25 26  2  0  0  0
 26 27  1  0  0  0
 26 28  1  0  0  0
 37 38  1  0  0  0
 38 39  2  0  0  0
 38 40  1  0  0  0
 40 42  1  0  0  0
 42 48  1  0  0  0
 48 49  1  0  0  0
 49 50  2  0  0  0
 50 51  1  0  0  0
 51 52  1  0  0  0
 52 53  2  0  0  0
 53 54  1  0  0  0
 54 55  2  0  0  0
 55 56  1  0  0  0
 56 57  2  0  0  0
 42 43  1  0  0  0
 43 44  1  0  0  0
 43 45  2  0  0  0
 72 64  1  0  0  0
 15 11  1  0  0  0
 57 49  1  0  0  0
 72 67  1  0  0  0
 57 52  1  0  0  0
 33 36  1  0  0  0
 66 73  1  0  0  0
  2  5  1  0  0  0
  7 10  1  0  0  0
 19 20  1  0  0  0
 19 21  1  0  0  0
 27 29  1  0  0  0
 27 30  1  0  0  0
 28 31  1  0  0  0
 28 32  1  0  0  0
 40 41  1  0  0  0
 51 58  1  0  0  0
 44 46  1  0  0  0
 44 47  1  0  0  0
M  END
> <minimizedAffinity>
-9.66055

> <CNNscore>
0.2341789603

> <CNNaffinity>
7.1170692444

> <CNN_VS>
1.6666678190

> <CNNaffinity_variance>
2.5447278023

$$$$
[H]c1c([H])c([H])c2c(c1[H])c(C([H])([H])[C@@]([H])(C(=O)N([H])[H])N([H])C(=O)[C@@]([H])(N([H])C(=O)[C@@]([H])(N([H])C(=O)C([H])([H])N([H])C(=O)[C@@]1([H])N(C(=O)[C@@]([H])(N([H])[H])C([H])([H])C([H])([H])C([H])([H])N=C(N([H])[H])N([H])[H])C([H])([H])C([H])([H])C1([H])[H])C([H])([H])c1c([H])n([H])c3c([H])c([H])c([H])c([H])c13)C([H])([H])C([H])(C([H])([H])[H])C([H])([H])[H])c([H])n2[H]


 73 77  0  0  0  0  0  0  0  0999 V2000
    8.9030   21.2440    2.0305 C   0  0  0  0  0  0  0  0  0  0  0  0
    9.3326   21.4082    3.3915 N   0  0  0  0  0  0  0  0  0  0  0  0
   10.3254   20.6796    4.1086 C   0  0  0  0  0  0  0  0  0  0  0  0
   10.9575   19.7392    3.5709 O   0  0  0  0  0  0  0  0  0  0  0  0
    8.8563   22.1890    3.9809 H   0  0  0  0  0  0  0  0  0  0  0  0
   10.5848   21.0790    5.5326 C   0  0  0  0  0  0  0  0  0  0  0  0
    9.9812   20.1696    6.4700 N   0  0  0  0  0  0  0  0  0  0  0  0
    8.6045   20.1634    6.6898 C   0  0  0  0  0  0  0  0  0  0  0  0
    7.9403   21.0193    5.9607 O   0  0  0  0  0  0  0  0  0  0  0  0
   10.6155   19.5164    6.9630 H   0  0  0  0  0  0  0  0  0  0  0  0
    7.7656   19.3992    7.5721 C   0  0  0  0  0  0  0  0  0  0  0  0
    8.6938   18.4517    8.4072 C   0  0  0  0  0  0  0  0  0  0  0  0
    8.8497   17.2718    7.4654 C   0  0  0  0  0  0  0  0  0  0  0  0
    7.7147   17.3704    6.4596 C   0  0  0  0  0  0  0  0  0  0  0  0
    6.8790   18.4552    6.9640 N   0  0  0  0  0  0  0  0  0  0  0  0
    5.4683   18.5711    6.8713 C   0  0  0  0  0  0  0  0  0  0  0  0
    4.8928   19.6177    7.2153 O   0  0  0  0  0  0  0  0  0  0  0  0
    4.7100   17.3703    6.3475 C   0  0  0  0  0  0  0  0  0  0  0  0
    3.4065   17.4768    7.0411 N   0  0  0  0  0  0  0  0  0  0  0  0
    2.7884   18.0101    6.3491 H   0  0  0  0  0  0  0  0  0  0  0  0
    3.5250   18.1561    7.8220 H   0  0  0  0  0  0  0  0  0  0  0  0
    4.5556   17.4539    4.8711 C   0  0  0  0  0  0  0  0  0  0  0  0
    3.1478   17.6450    4.4233 C   0  0  0  0  0  0  0  0  0  0  0  0
    2.6433   16.7940    3.3146 C   0  0  0  0  0  0  0  0  0  0  0  0
    3.6677   16.7360    2.2485 N   0  0  0  0  0  0  0  0  0  0  0  0
    3.9203   15.6166    1.6726 C   0  0  0  0  0  0  0  0  0  0  0  0
    4.8961   15.5499    0.6564 N   0  0  0  0  0  0  0  0  0  0  0  0
    3.2135   14.4559    2.0646 N   0  0  0  0  0  0  0  0  0  0  0  0
    4.6140   15.5749   -0.3372 H   0  0  0  0  0  0  0  0  0  0  0  0
    5.8974   15.4708    0.9009 H   0  0  0  0  0  0  0  0  0  0  0  0
    3.5221   13.9492    2.9154 H   0  0  0  0  0  0  0  0  0  0  0  0
    2.4159   14.1202    1.5253 H   0  0  0  0  0  0  0  0  0  0  0  0
    9.7163   22.2225   -0.1748 N   0  0  0  0  0  0  0  0  0  0  0  0
    9.8798   22.0327    1.2061 C   0  0  0  0  0  0  0  0  0  0  0  0
   10.8756   22.5537    1.7707 O   0  0  0  0  0  0  0  0  0  0  0  0
    8.8955   21.7828   -0.6636 H   0  0  0  0  0  0  0  0  0  0  0  0
   10.5729   22.9930   -1.0619 C   0  0  0  0  0  0  0  0  0  0  0  0
   11.8843   22.2361   -1.1643 C   0  0  0  0  0  0  0  0  0  0  0  0
   11.9796   21.3122   -1.9893 O   0  0  0  0  0  0  0  0  0  0  0  0
   12.9531   22.5629   -0.3527 N   0  0  0  0  0  0  0  0  0  0  0  0
   12.9191   23.3347    0.3464 H   0  0  0  0  0  0  0  0  0  0  0  0
   14.2434   21.8642   -0.4001 C   0  0  0  0  0  0  0  0  0  0  0  0
   14.3820   20.9110    0.6983 C   0  0  0  0  0  0  0  0  0  0  0  0
   13.4312   20.7317    1.7400 N   0  0  0  0  0  0  0  0  0  0  0  0
   15.4177   20.1801    0.7587 O   0  0  0  0  0  0  0  0  0  0  0  0
   13.5899   20.2229    2.6129 H   0  0  0  0  0  0  0  0  0  0  0  0
   12.4775   21.1673    1.5887 H   0  0  0  0  0  0  0  0  0  0  0  0
   15.3565   22.7882   -0.6961 C   0  0  0  0  0  0  0  0  0  0  0  0
   15.4124   23.4092   -1.9966 C   0  0  0  0  0  0  0  0  0  0  0  0
   14.8909   22.8656   -3.1683 C   0  0  0  0  0  0  0  0  0  0  0  0
   14.9945   23.6825   -4.1883 N   0  0  0  0  0  0  0  0  0  0  0  0
   15.5941   24.8095   -3.7346 C   0  0  0  0  0  0  0  0  0  0  0  0
   15.9177   25.9500   -4.4298 C   0  0  0  0  0  0  0  0  0  0  0  0
   16.5287   26.9799   -3.7797 C   0  0  0  0  0  0  0  0  0  0  0  0
   16.8078   26.8472   -2.4289 C   0  0  0  0  0  0  0  0  0  0  0  0
   16.4788   25.7023   -1.7452 C   0  0  0  0  0  0  0  0  0  0  0  0
   15.8614   24.6478   -2.3675 C   0  0  0  0  0  0  0  0  0  0  0  0
   14.6705   23.5073   -5.1845 H   0  0  0  0  0  0  0  0  0  0  0  0
   10.9185   24.3477   -0.6198 C   0  0  0  0  0  0  0  0  0  0  0  0
   12.3603   25.7537   -2.1553 C   0  0  0  0  0  0  0  0  0  0  0  0
   12.2520   24.9222   -0.9107 C   0  0  0  0  0  0  0  0  0  0  0  0
   12.5791   25.8242    0.3150 C   0  0  0  0  0  0  0  0  0  0  0  0
    7.5213   21.8497    1.8688 C   0  0  0  0  0  0  0  0  0  0  0  0
    6.4704   20.8897    1.5741 C   0  0  0  0  0  0  0  0  0  0  0  0
    5.5320   20.3565    2.4199 C   0  0  0  0  0  0  0  0  0  0  0  0
    4.7212   19.5146    1.7468 N   0  0  0  0  0  0  0  0  0  0  0  0
    5.1382   19.5003    0.4433 C   0  0  0  0  0  0  0  0  0  0  0  0
    4.6652   18.8152   -0.6820 C   0  0  0  0  0  0  0  0  0  0  0  0
    5.2943   19.0071   -1.8823 C   0  0  0  0  0  0  0  0  0  0  0  0
    6.3825   19.8522   -2.0347 C   0  0  0  0  0  0  0  0  0  0  0  0
    6.8241   20.5061   -0.9254 C   0  0  0  0  0  0  0  0  0  0  0  0
    6.2193   20.3451    0.3202 C   0  0  0  0  0  0  0  0  0  0  0  0
    3.9230   18.9681    2.1382 H   0  0  0  0  0  0  0  0  0  0  0  0
 60 61  1  0  0  0
 61 62  1  0  0  0
 61 59  1  0  0  0
 59 37  1  0  0  0
 37 33  1  0  0  0
 33 34  1  0  0  0
 34 35  2  0  0  0
 34  1  1  0  0  0
  1 63  1  0  0  0
 63 64  1  0  0  0
 64 65  2  0  0  0
 65 66  1  0  0  0
 66 67  1  0  0  0
 67 68  2  0  0  0
 68 69  1  0  0  0
 69 70  2  0  0  0
 70 71  1  0  0  0
 71 72  2  0  0  0
  1  2  1  0  0  0
  2  3  1  0  0  0
  3  4  2  0  0  0
  3  6  1  0  0  0
  6  7  1  0  0  0
  7  8  1  0  0  0
  8  9  2  0  0  0
  8 11  1  0  0  0
 11 12  1  0  0  0
 12 13  1  0  0  0
 13 14  1  0  0  0
 14 15  1  0  0  0
 15 16  1  0  0  0
 16 17  2  0  0  0
 16 18  1  0  0  0
 18 19  1  0  0  0
 18 22  1  0  0  0
 22 23  1  0  0  0
 23 24  1  0  0  0
 24 25  1  0  0  0
 25 26  2  0  0  0
 26 27  1  0  0  0
 26 28  1  0  0  0
 37 38  1  0  0  0
 38 39  2  0  0  0
 38 40  1  0  0  0
 40 42  1  0  0  0
 42 48  1  0  0  0
 48 49  1  0  0  0
 49 50  2  0  0  0
 50 51  1  0  0  0
 51 52  1  0  0  0
 52 53  2  0  0  0
 53 54  1  0  0  0
 54 55  2  0  0  0
 55 56  1  0  0  0
 56 57  2  0  0  0
 42 43  1  0  0  0
 43 44  1  0  0  0
 43 45  2  0  0  0
 72 64  1  0  0  0
 15 11  1  0  0  0
 57 49  1  0  0  0
 72 67  1  0  0  0
 57 52  1  0  0  0
 33 36  1  0  0  0
 66 73  1  0  0  0
  2  5  1  0  0  0
  7 10  1  0  0  0
 19 20  1  0  0  0
 19 21  1  0  0  0
 27 29  1  0  0  0
 27 30  1  0  0  0
 28 31  1  0  0  0
 28 32  1  0  0  0
 40 41  1  0  0  0
 51 58  1  0  0  0
 44 46  1  0  0  0
 44 47  1  0  0  0
M  END
> <minimizedAffinity>
-8.39029

> <CNNscore>
0.2159469575

> <CNNaffinity>
7.5715956688

> <CNN_VS>
1.6350630522

> <CNNaffinity_variance>
1.0626671314

$$$$
[H]c1c([H])c([H])c2c(c1[H])c(C([H])([H])[C@@]([H])(C(=O)N([H])[H])N([H])C(=O)[C@@]([H])(N([H])C(=O)[C@@]([H])(N([H])C(=O)C([H])([H])N([H])C(=O)[C@@]1([H])N(C(=O)[C@@]([H])(N([H])[H])C([H])([H])C([H])([H])C([H])([H])N=C(N([H])[H])N([H])[H])C([H])([H])C([H])([H])C1([H])[H])C([H])([H])c1c([H])n([H])c3c([H])c([H])c([H])c([H])c13)C([H])([H])C([H])(C([H])([H])[H])C([H])([H])[H])c([H])n2[H]


 73 77  0  0  0  0  0  0  0  0999 V2000
   10.7003   23.2949    0.3341 C   0  0  0  0  0  0  0  0  0  0  0  0
   10.0261   22.4482   -0.6105 N   0  0  0  0  0  0  0  0  0  0  0  0
    9.7606   21.0506   -0.5265 C   0  0  0  0  0  0  0  0  0  0  0  0
   10.1375   20.3750    0.4608 O   0  0  0  0  0  0  0  0  0  0  0  0
    9.6526   22.9071   -1.5236 H   0  0  0  0  0  0  0  0  0  0  0  0
    9.0144   20.4171   -1.6650 C   0  0  0  0  0  0  0  0  0  0  0  0
    7.5897   20.4527   -1.4670 N   0  0  0  0  0  0  0  0  0  0  0  0
    6.8884   19.3245   -1.0438 C   0  0  0  0  0  0  0  0  0  0  0  0
    7.6372   18.2771   -0.8260 O   0  0  0  0  0  0  0  0  0  0  0  0
    7.1152   21.3558   -1.6436 H   0  0  0  0  0  0  0  0  0  0  0  0
    5.4920   19.0828   -0.8040 C   0  0  0  0  0  0  0  0  0  0  0  0
    4.8182   20.4628   -0.4908 C   0  0  0  0  0  0  0  0  0  0  0  0
    5.0921   20.6043    0.9953 C   0  0  0  0  0  0  0  0  0  0  0  0
    5.4282   19.2130    1.5059 C   0  0  0  0  0  0  0  0  0  0  0  0
    5.1578   18.3370    0.3705 N   0  0  0  0  0  0  0  0  0  0  0  0
    4.6689   17.0059    0.4060 C   0  0  0  0  0  0  0  0  0  0  0  0
    4.6198   16.3193   -0.6289 O   0  0  0  0  0  0  0  0  0  0  0  0
    4.2095   16.4748    1.7469 C   0  0  0  0  0  0  0  0  0  0  0  0
    3.1382   15.5237    1.3740 N   0  0  0  0  0  0  0  0  0  0  0  0
    3.6396   14.5801    1.3144 H   0  0  0  0  0  0  0  0  0  0  0  0
    2.8827   15.7170    0.3827 H   0  0  0  0  0  0  0  0  0  0  0  0
    5.3289   15.7941    2.4499 C   0  0  0  0  0  0  0  0  0  0  0  0
    5.6122   16.3451    3.8046 C   0  0  0  0  0  0  0  0  0  0  0  0
    6.5098   15.5723    4.7019 C   0  0  0  0  0  0  0  0  0  0  0  0
    5.7738   15.2292    5.9388 N   0  0  0  0  0  0  0  0  0  0  0  0
    6.2336   15.6091    7.0758 C   0  0  0  0  0  0  0  0  0  0  0  0
    5.5408   15.2860    8.2611 N   0  0  0  0  0  0  0  0  0  0  0  0
    7.4360   16.3521    7.1285 N   0  0  0  0  0  0  0  0  0  0  0  0
    4.9118   15.9779    8.7003 H   0  0  0  0  0  0  0  0  0  0  0  0
    5.6630   14.3573    8.6985 H   0  0  0  0  0  0  0  0  0  0  0  0
    8.3379   15.8434    7.0702 H   0  0  0  0  0  0  0  0  0  0  0  0
    7.4216   17.3674    7.2216 H   0  0  0  0  0  0  0  0  0  0  0  0
    9.8714   24.3791    2.4834 N   0  0  0  0  0  0  0  0  0  0  0  0
    9.6160   23.8662    1.2023 C   0  0  0  0  0  0  0  0  0  0  0  0
    8.4370   23.8993    0.7657 O   0  0  0  0  0  0  0  0  0  0  0  0
   10.8499   24.3473    2.8677 H   0  0  0  0  0  0  0  0  0  0  0  0
    8.9127   24.9865    3.3925 C   0  0  0  0  0  0  0  0  0  0  0  0
    8.4860   23.9002    4.3624 C   0  0  0  0  0  0  0  0  0  0  0  0
    7.9517   22.8725    3.9133 O   0  0  0  0  0  0  0  0  0  0  0  0
    8.6822   24.0504    5.7214 N   0  0  0  0  0  0  0  0  0  0  0  0
    9.1330   24.8915    6.1397 H   0  0  0  0  0  0  0  0  0  0  0  0
    8.2854   23.0391    6.7089 C   0  0  0  0  0  0  0  0  0  0  0  0
    7.2610   23.5459    7.6189 C   0  0  0  0  0  0  0  0  0  0  0  0
    6.6775   24.8400    7.5418 N   0  0  0  0  0  0  0  0  0  0  0  0
    6.8454   22.8036    8.5606 O   0  0  0  0  0  0  0  0  0  0  0  0
    6.1130   25.2854    8.2692 H   0  0  0  0  0  0  0  0  0  0  0  0
    6.8482   25.3823    6.6481 H   0  0  0  0  0  0  0  0  0  0  0  0
    9.4539   22.3279    7.2650 C   0  0  0  0  0  0  0  0  0  0  0  0
    9.8498   21.0761    6.6679 C   0  0  0  0  0  0  0  0  0  0  0  0
    9.4639   19.8153    7.1173 C   0  0  0  0  0  0  0  0  0  0  0  0
    9.8886   18.8534    6.3345 N   0  0  0  0  0  0  0  0  0  0  0  0
   10.5799   19.4382    5.3267 C   0  0  0  0  0  0  0  0  0  0  0  0
   11.2143   18.8440    4.2621 C   0  0  0  0  0  0  0  0  0  0  0  0
   11.8644   19.6213    3.3512 C   0  0  0  0  0  0  0  0  0  0  0  0
   11.8674   20.9961    3.5252 C   0  0  0  0  0  0  0  0  0  0  0  0
   11.2292   21.5778    4.5932 C   0  0  0  0  0  0  0  0  0  0  0  0
   10.5636   20.8260    5.5272 C   0  0  0  0  0  0  0  0  0  0  0  0
    9.7253   17.8108    6.4547 H   0  0  0  0  0  0  0  0  0  0  0  0
    7.6790   25.5013    2.7898 C   0  0  0  0  0  0  0  0  0  0  0  0
    5.8680   26.6964    4.0956 C   0  0  0  0  0  0  0  0  0  0  0  0
    7.0962   26.7867    3.2380 C   0  0  0  0  0  0  0  0  0  0  0  0
    8.2231   27.4757    4.0615 C   0  0  0  0  0  0  0  0  0  0  0  0
   11.3816   24.4273   -0.4111 C   0  0  0  0  0  0  0  0  0  0  0  0
   12.5768   24.0386   -1.1413 C   0  0  0  0  0  0  0  0  0  0  0  0
   13.3588   22.9241   -0.9782 C   0  0  0  0  0  0  0  0  0  0  0  0
   14.3677   22.9263   -1.8734 N   0  0  0  0  0  0  0  0  0  0  0  0
   14.2399   24.0592   -2.6305 C   0  0  0  0  0  0  0  0  0  0  0  0
   14.9975   24.5632   -3.6942 C   0  0  0  0  0  0  0  0  0  0  0  0
   14.6175   25.7444   -4.2718 C   0  0  0  0  0  0  0  0  0  0  0  0
   13.5123   26.4669   -3.8498 C   0  0  0  0  0  0  0  0  0  0  0  0
   12.7926   25.9564   -2.8132 C   0  0  0  0  0  0  0  0  0  0  0  0
   13.1374   24.7581   -2.1900 C   0  0  0  0  0  0  0  0  0  0  0  0
   15.1145   22.2046   -1.9762 H   0  0  0  0  0  0  0  0  0  0  0  0
 60 61  1  0  0  0
 61 62  1  0  0  0
 61 59  1  0  0  0
 59 37  1  0  0  0
 37 33  1  0  0  0
 33 34  1  0  0  0
 34 35  2  0  0  0
 34  1  1  0  0  0
  1 63  1  0  0  0
 63 64  1  0  0  0
 64 65  2  0  0  0
 65 66  1  0  0  0
 66 67  1  0  0  0
 67 68  2  0  0  0
 68 69  1  0  0  0
 69 70  2  0  0  0
 70 71  1  0  0  0
 71 72  2  0  0  0
  1  2  1  0  0  0
  2  3  1  0  0  0
  3  4  2  0  0  0
  3  6  1  0  0  0
  6  7  1  0  0  0
  7  8  1  0  0  0
  8  9  2  0  0  0
  8 11  1  0  0  0
 11 12  1  0  0  0
 12 13  1  0  0  0
 13 14  1  0  0  0
 14 15  1  0  0  0
 15 16  1  0  0  0
 16 17  2  0  0  0
 16 18  1  0  0  0
 18 19  1  0  0  0
 18 22  1  0  0  0
 22 23  1  0  0  0
 23 24  1  0  0  0
 24 25  1  0  0  0
 25 26  2  0  0  0
 26 27  1  0  0  0
 26 28  1  0  0  0
 37 38  1  0  0  0
 38 39  2  0  0  0
 38 40  1  0  0  0
 40 42  1  0  0  0
 42 48  1  0  0  0
 48 49  1  0  0  0
 49 50  2  0  0  0
 50 51  1  0  0  0
 51 52  1  0  0  0
 52 53  2  0  0  0
 53 54  1  0  0  0
 54 55  2  0  0  0
 55 56  1  0  0  0
 56 57  2  0  0  0
 42 43  1  0  0  0
 43 44  1  0  0  0
 43 45  2  0  0  0
 72 64  1  0  0  0
 15 11  1  0  0  0
 57 49  1  0  0  0
 72 67  1  0  0  0
 57 52  1  0  0  0
 33 36  1  0  0  0
 66 73  1  0  0  0
  2  5  1  0  0  0
  7 10  1  0  0  0
 19 20  1  0  0  0
 19 21  1  0  0  0
 27 29  1  0  0  0
 27 30  1  0  0  0
 28 31  1  0  0  0
 28 32  1  0  0  0
 40 41  1  0  0  0
 51 58  1  0  0  0
 44 46  1  0  0  0
 44 47  1  0  0  0
M  END
> <minimizedAffinity>
-9.78924

> <CNNscore>
0.2114543915

> <CNNaffinity>
7.6217436790

> <CNN_VS>
1.6116511822

> <CNNaffinity_variance>
0.8829380274

$$$$
[H]c1c([H])c([H])c2c(c1[H])c(C([H])([H])[C@@]([H])(C(=O)N([H])[H])N([H])C(=O)[C@@]([H])(N([H])C(=O)[C@@]([H])(N([H])C(=O)C([H])([H])N([H])C(=O)[C@@]1([H])N(C(=O)[C@@]([H])(N([H])[H])C([H])([H])C([H])([H])C([H])([H])N=C(N([H])[H])N([H])[H])C([H])([H])C([H])([H])C1([H])[H])C([H])([H])c1c([H])n([H])c3c([H])c([H])c([H])c([H])c13)C([H])([H])C([H])(C([H])([H])[H])C([H])([H])[H])c([H])n2[H]


 73 77  0  0  0  0  0  0  0  0999 V2000
    5.7489   20.4320    0.3948 C   0  0  0  0  0  0  0  0  0  0  0  0
    5.9678   20.6859    1.7918 N   0  0  0  0  0  0  0  0  0  0  0  0
    6.0259   19.7560    2.8701 C   0  0  0  0  0  0  0  0  0  0  0  0
    5.8633   18.5271    2.6788 O   0  0  0  0  0  0  0  0  0  0  0  0
    6.1159   21.7187    2.1004 H   0  0  0  0  0  0  0  0  0  0  0  0
    6.2873   20.3029    4.2437 C   0  0  0  0  0  0  0  0  0  0  0  0
    7.1086   21.4838    4.2106 N   0  0  0  0  0  0  0  0  0  0  0  0
    8.0928   21.7093    5.1720 C   0  0  0  0  0  0  0  0  0  0  0  0
    8.2066   20.7566    6.0578 O   0  0  0  0  0  0  0  0  0  0  0  0
    6.9401   22.1493    3.4355 H   0  0  0  0  0  0  0  0  0  0  0  0
    9.0100   22.7951    5.3862 C   0  0  0  0  0  0  0  0  0  0  0  0
    9.4386   22.7640    6.8936 C   0  0  0  0  0  0  0  0  0  0  0  0
    8.3068   23.5357    7.5472 C   0  0  0  0  0  0  0  0  0  0  0  0
    7.6245   24.3208    6.4393 C   0  0  0  0  0  0  0  0  0  0  0  0
    8.4805   24.1196    5.2747 N   0  0  0  0  0  0  0  0  0  0  0  0
    8.7406   25.0396    4.2268 C   0  0  0  0  0  0  0  0  0  0  0  0
    9.3758   24.6897    3.2173 O   0  0  0  0  0  0  0  0  0  0  0  0
    8.2201   26.4501    4.4015 C   0  0  0  0  0  0  0  0  0  0  0  0
    9.4605   27.2577    4.4237 N   0  0  0  0  0  0  0  0  0  0  0  0
    9.5866   27.5656    3.4065 H   0  0  0  0  0  0  0  0  0  0  0  0
   10.2558   26.6011    4.5707 H   0  0  0  0  0  0  0  0  0  0  0  0
    7.3395   26.8261    3.2641 C   0  0  0  0  0  0  0  0  0  0  0  0
    6.0335   27.4087    3.6814 C   0  0  0  0  0  0  0  0  0  0  0  0
    5.5284   28.5962    2.9447 C   0  0  0  0  0  0  0  0  0  0  0  0
    5.7083   28.3737    1.4929 N   0  0  0  0  0  0  0  0  0  0  0  0
    5.5923   29.3618    0.6813 C   0  0  0  0  0  0  0  0  0  0  0  0
    5.7602   29.1604   -0.7046 N   0  0  0  0  0  0  0  0  0  0  0  0
    5.2965   30.6489    1.1877 N   0  0  0  0  0  0  0  0  0  0  0  0
    6.6647   29.3753   -1.1550 H   0  0  0  0  0  0  0  0  0  0  0  0
    4.9775   28.8016   -1.2768 H   0  0  0  0  0  0  0  0  0  0  0  0
    4.3115   30.8787    1.4171 H   0  0  0  0  0  0  0  0  0  0  0  0
    6.0332   31.3401    1.3264 H   0  0  0  0  0  0  0  0  0  0  0  0
    8.0109   21.5981    0.3199 N   0  0  0  0  0  0  0  0  0  0  0  0
    7.0457   20.7751   -0.2807 C   0  0  0  0  0  0  0  0  0  0  0  0
    7.2854   20.3011   -1.4207 O   0  0  0  0  0  0  0  0  0  0  0  0
    7.8201   22.0122    1.2676 H   0  0  0  0  0  0  0  0  0  0  0  0
    9.3097   21.9658   -0.2210 C   0  0  0  0  0  0  0  0  0  0  0  0
   10.3003   20.9366    0.2914 C   0  0  0  0  0  0  0  0  0  0  0  0
   10.2400   19.7765   -0.1486 O   0  0  0  0  0  0  0  0  0  0  0  0
   11.2501   21.2793    1.2339 N   0  0  0  0  0  0  0  0  0  0  0  0
   11.3410   22.2413    1.6235 H   0  0  0  0  0  0  0  0  0  0  0  0
   12.2299   20.3279    1.7724 C   0  0  0  0  0  0  0  0  0  0  0  0
   11.9361   19.9774    3.1600 C   0  0  0  0  0  0  0  0  0  0  0  0
   11.8278   20.9120    4.2259 N   0  0  0  0  0  0  0  0  0  0  0  0
   11.7663   18.7585    3.4695 O   0  0  0  0  0  0  0  0  0  0  0  0
   11.8190   20.6831    5.2227 H   0  0  0  0  0  0  0  0  0  0  0  0
   11.7497   21.9324    3.9529 H   0  0  0  0  0  0  0  0  0  0  0  0
   13.6112   20.6935    1.3995 C   0  0  0  0  0  0  0  0  0  0  0  0
   13.8623   21.1737    0.0629 C   0  0  0  0  0  0  0  0  0  0  0  0
   13.5349   20.4944   -1.1084 C   0  0  0  0  0  0  0  0  0  0  0  0
   13.7875   21.2005   -2.1836 N   0  0  0  0  0  0  0  0  0  0  0  0
   14.2977   22.3852   -1.7693 C   0  0  0  0  0  0  0  0  0  0  0  0
   14.7139   23.4535   -2.5273 C   0  0  0  0  0  0  0  0  0  0  0  0
   15.2059   24.5629   -1.9077 C   0  0  0  0  0  0  0  0  0  0  0  0
   15.2728   24.5825   -0.5238 C   0  0  0  0  0  0  0  0  0  0  0  0
   14.8532   23.5085    0.2225 C   0  0  0  0  0  0  0  0  0  0  0  0
   14.3508   22.3774   -0.3680 C   0  0  0  0  0  0  0  0  0  0  0  0
   13.6241   20.9115   -3.1925 H   0  0  0  0  0  0  0  0  0  0  0  0
    9.8368   23.2735    0.1816 C   0  0  0  0  0  0  0  0  0  0  0  0
   11.0958   24.3828   -1.7152 C   0  0  0  0  0  0  0  0  0  0  0  0
   11.1294   23.7648   -0.3481 C   0  0  0  0  0  0  0  0  0  0  0  0
   11.5987   24.8447    0.6699 C   0  0  0  0  0  0  0  0  0  0  0  0
    4.6665   21.3642   -0.1162 C   0  0  0  0  0  0  0  0  0  0  0  0
    3.4321   20.7025   -0.5055 C   0  0  0  0  0  0  0  0  0  0  0  0
    2.2614   20.5846    0.1988 C   0  0  0  0  0  0  0  0  0  0  0  0
    1.3454   19.9114   -0.5271 N   0  0  0  0  0  0  0  0  0  0  0  0
    1.9288   19.5869   -1.7218 C   0  0  0  0  0  0  0  0  0  0  0  0
    1.4457   18.9008   -2.8422 C   0  0  0  0  0  0  0  0  0  0  0  0
    2.2755   18.7281   -3.9169 C   0  0  0  0  0  0  0  0  0  0  0  0
    3.5772   19.2036   -3.9464 C   0  0  0  0  0  0  0  0  0  0  0  0
    4.0238   19.8665   -2.8445 C   0  0  0  0  0  0  0  0  0  0  0  0
    3.2195   20.0686   -1.7240 C   0  0  0  0  0  0  0  0  0  0  0  0
    0.3708   19.6740   -0.2395 H   0  0  0  0  0  0  0  0  0  0  0  0
 60 61  1  0  0  0
 61 62  1  0  0  0
 61 59  1  0  0  0
 59 37  1  0  0  0
 37 33  1  0  0  0
 33 34  1  0  0  0
 34 35  2  0  0  0
 34  1  1  0  0  0
  1 63  1  0  0  0
 63 64  1  0  0  0
 64 65  2  0  0  0
 65 66  1  0  0  0
 66 67  1  0  0  0
 67 68  2  0  0  0
 68 69  1  0  0  0
 69 70  2  0  0  0
 70 71  1  0  0  0
 71 72  2  0  0  0
  1  2  1  0  0  0
  2  3  1  0  0  0
  3  4  2  0  0  0
  3  6  1  0  0  0
  6  7  1  0  0  0
  7  8  1  0  0  0
  8  9  2  0  0  0
  8 11  1  0  0  0
 11 12  1  0  0  0
 12 13  1  0  0  0
 13 14  1  0  0  0
 14 15  1  0  0  0
 15 16  1  0  0  0
 16 17  2  0  0  0
 16 18  1  0  0  0
 18 19  1  0  0  0
 18 22  1  0  0  0
 22 23  1  0  0  0
 23 24  1  0  0  0
 24 25  1  0  0  0
 25 26  2  0  0  0
 26 27  1  0  0  0
 26 28  1  0  0  0
 37 38  1  0  0  0
 38 39  2  0  0  0
 38 40  1  0  0  0
 40 42  1  0  0  0
 42 48  1  0  0  0
 48 49  1  0  0  0
 49 50  2  0  0  0
 50 51  1  0  0  0
 51 52  1  0  0  0
 52 53  2  0  0  0
 53 54  1  0  0  0
 54 55  2  0  0  0
 55 56  1  0  0  0
 56 57  2  0  0  0
 42 43  1  0  0  0
 43 44  1  0  0  0
 43 45  2  0  0  0
 72 64  1  0  0  0
 15 11  1  0  0  0
 57 49  1  0  0  0
 72 67  1  0  0  0
 57 52  1  0  0  0
 33 36  1  0  0  0
 66 73  1  0  0  0
  2  5  1  0  0  0
  7 10  1  0  0  0
 19 20  1  0  0  0
 19 21  1  0  0  0
 27 29  1  0  0  0
 27 30  1  0  0  0
 28 31  1  0  0  0
 28 32  1  0  0  0
 40 41  1  0  0  0
 51 58  1  0  0  0
 44 46  1  0  0  0
 44 47  1  0  0  0
M  END
> <minimizedAffinity>
-10.23725

> <CNNscore>
0.1052252650

> <CNNaffinity>
7.1890501976

> <CNN_VS>
0.7564697266

> <CNNaffinity_variance>
2.6659634113

$$$$
[H]c1c([H])c([H])c2c(c1[H])c(C([H])([H])[C@@]([H])(C(=O)N([H])[H])N([H])C(=O)[C@@]([H])(N([H])C(=O)[C@@]([H])(N([H])C(=O)C([H])([H])N([H])C(=O)[C@@]1([H])N(C(=O)[C@@]([H])(N([H])[H])C([H])([H])C([H])([H])C([H])([H])N=C(N([H])[H])N([H])[H])C([H])([H])C([H])([H])C1([H])[H])C([H])([H])c1c([H])n([H])c3c([H])c([H])c([H])c([H])c13)C([H])([H])C([H])(C([H])([H])[H])C([H])([H])[H])c([H])n2[H]


 73 77  0  0  0  0  0  0  0  0999 V2000
   11.9657   22.4964   -0.3264 C   0  0  0  0  0  0  0  0  0  0  0  0
   10.7768   21.9676   -0.9354 N   0  0  0  0  0  0  0  0  0  0  0  0
   10.1374   20.7150   -0.7058 C   0  0  0  0  0  0  0  0  0  0  0  0
   10.6054   19.8855    0.1103 O   0  0  0  0  0  0  0  0  0  0  0  0
   10.2705   22.5849   -1.6746 H   0  0  0  0  0  0  0  0  0  0  0  0
    8.8834   20.4249   -1.4791 C   0  0  0  0  0  0  0  0  0  0  0  0
    7.8507   19.8648   -0.6484 N   0  0  0  0  0  0  0  0  0  0  0  0
    6.6098   19.5096   -1.1752 C   0  0  0  0  0  0  0  0  0  0  0  0
    6.4966   19.7049   -2.4614 O   0  0  0  0  0  0  0  0  0  0  0  0
    8.0774   19.7298    0.3528 H   0  0  0  0  0  0  0  0  0  0  0  0
    5.4185   18.9727   -0.5764 C   0  0  0  0  0  0  0  0  0  0  0  0
    4.1940   19.7364   -1.1880 C   0  0  0  0  0  0  0  0  0  0  0  0
    4.1329   20.9691   -0.3046 C   0  0  0  0  0  0  0  0  0  0  0  0
    4.9221   20.6388    0.9513 C   0  0  0  0  0  0  0  0  0  0  0  0
    5.2304   19.2184    0.8205 N   0  0  0  0  0  0  0  0  0  0  0  0
    5.3352   18.2597    1.8607 C   0  0  0  0  0  0  0  0  0  0  0  0
    5.7469   17.1105    1.6265 O   0  0  0  0  0  0  0  0  0  0  0  0
    4.9187   18.6984    3.2482 C   0  0  0  0  0  0  0  0  0  0  0  0
    3.9830   17.6292    3.6638 N   0  0  0  0  0  0  0  0  0  0  0  0
    4.5999   16.9414    4.2039 H   0  0  0  0  0  0  0  0  0  0  0  0
    3.7256   17.0924    2.8088 H   0  0  0  0  0  0  0  0  0  0  0  0
    6.1000   18.7754    4.1478 C   0  0  0  0  0  0  0  0  0  0  0  0
    6.2431   17.6022    5.0545 C   0  0  0  0  0  0  0  0  0  0  0  0
    6.2884   17.8497    6.5190 C   0  0  0  0  0  0  0  0  0  0  0  0
    7.5646   17.3274    7.0556 N   0  0  0  0  0  0  0  0  0  0  0  0
    7.5705   16.2279    7.7187 C   0  0  0  0  0  0  0  0  0  0  0  0
    8.7812   15.7220    8.2361 N   0  0  0  0  0  0  0  0  0  0  0  0
    6.3568   15.5312    7.9242 N   0  0  0  0  0  0  0  0  0  0  0  0
    9.2973   14.9868    7.7258 H   0  0  0  0  0  0  0  0  0  0  0  0
    9.1551   16.0810    9.1305 H   0  0  0  0  0  0  0  0  0  0  0  0
    5.7256   15.8455    8.6849 H   0  0  0  0  0  0  0  0  0  0  0  0
    6.1029   14.7358    7.3390 H   0  0  0  0  0  0  0  0  0  0  0  0
   10.4247   23.2644    1.5491 N   0  0  0  0  0  0  0  0  0  0  0  0
   11.6251   22.6732    1.1257 C   0  0  0  0  0  0  0  0  0  0  0  0
   12.4359   22.2681    1.9976 O   0  0  0  0  0  0  0  0  0  0  0  0
    9.7420   23.6195    0.8323 H   0  0  0  0  0  0  0  0  0  0  0  0
    9.9752   23.4531    2.9191 C   0  0  0  0  0  0  0  0  0  0  0  0
    9.8567   22.0695    3.5313 C   0  0  0  0  0  0  0  0  0  0  0  0
    9.0194   21.2785    3.0660 O   0  0  0  0  0  0  0  0  0  0  0  0
   10.6606   21.6950    4.5903 N   0  0  0  0  0  0  0  0  0  0  0  0
   11.3804   22.3234    5.0057 H   0  0  0  0  0  0  0  0  0  0  0  0
   10.5884   20.3748    5.2285 C   0  0  0  0  0  0  0  0  0  0  0  0
   11.2655   19.3530    4.4336 C   0  0  0  0  0  0  0  0  0  0  0  0
   12.2291   19.6197    3.4229 N   0  0  0  0  0  0  0  0  0  0  0  0
   10.9909   18.1299    4.6315 O   0  0  0  0  0  0  0  0  0  0  0  0
   12.5673   18.9498    2.7279 H   0  0  0  0  0  0  0  0  0  0  0  0
   12.6255   20.6016    3.3959 H   0  0  0  0  0  0  0  0  0  0  0  0
    9.2393   20.0962    5.7603 C   0  0  0  0  0  0  0  0  0  0  0  0
    8.6651   21.0201    6.7073 C   0  0  0  0  0  0  0  0  0  0  0  0
    9.1586   21.2685    7.9861 C   0  0  0  0  0  0  0  0  0  0  0  0
    8.5022   22.2234    8.5990 N   0  0  0  0  0  0  0  0  0  0  0  0
    7.5383   22.6512    7.7485 C   0  0  0  0  0  0  0  0  0  0  0  0
    6.5988   23.6359    7.9401 C   0  0  0  0  0  0  0  0  0  0  0  0
    5.7059   23.9116    6.9484 C   0  0  0  0  0  0  0  0  0  0  0  0
    5.7710   23.1873    5.7688 C   0  0  0  0  0  0  0  0  0  0  0  0
    6.7150   22.2059    5.5895 C   0  0  0  0  0  0  0  0  0  0  0  0
    7.6300   21.9042    6.5653 C   0  0  0  0  0  0  0  0  0  0  0  0
    8.6843   22.6013    9.5748 H   0  0  0  0  0  0  0  0  0  0  0  0
    8.6654   24.0887    3.0936 C   0  0  0  0  0  0  0  0  0  0  0  0
    7.2917   26.2136    3.1970 C   0  0  0  0  0  0  0  0  0  0  0  0
    8.5599   25.4933    3.5504 C   0  0  0  0  0  0  0  0  0  0  0  0
    8.6714   25.4230    5.1013 C   0  0  0  0  0  0  0  0  0  0  0  0
   12.2707   23.8551   -0.9289 C   0  0  0  0  0  0  0  0  0  0  0  0
   13.3742   23.8635   -1.8751 C   0  0  0  0  0  0  0  0  0  0  0  0
   14.3542   22.9225   -2.0606 C   0  0  0  0  0  0  0  0  0  0  0  0
   15.1809   23.2993   -3.0575 N   0  0  0  0  0  0  0  0  0  0  0  0
   14.7317   24.5035   -3.5279 C   0  0  0  0  0  0  0  0  0  0  0  0
   15.1990   25.3424   -4.5463 C   0  0  0  0  0  0  0  0  0  0  0  0
   14.5271   26.5075   -4.7998 C   0  0  0  0  0  0  0  0  0  0  0  0
   13.4008   26.8960   -4.0912 C   0  0  0  0  0  0  0  0  0  0  0  0
   12.9669   26.0637   -3.1052 C   0  0  0  0  0  0  0  0  0  0  0  0
   13.6154   24.8663   -2.8068 C   0  0  0  0  0  0  0  0  0  0  0  0
   16.0134   22.7783   -3.4104 H   0  0  0  0  0  0  0  0  0  0  0  0
 60 61  1  0  0  0
 61 62  1  0  0  0
 61 59  1  0  0  0
 59 37  1  0  0  0
 37 33  1  0  0  0
 33 34  1  0  0  0
 34 35  2  0  0  0
 34  1  1  0  0  0
  1 63  1  0  0  0
 63 64  1  0  0  0
 64 65  2  0  0  0
 65 66  1  0  0  0
 66 67  1  0  0  0
 67 68  2  0  0  0
 68 69  1  0  0  0
 69 70  2  0  0  0
 70 71  1  0  0  0
 71 72  2  0  0  0
  1  2  1  0  0  0
  2  3  1  0  0  0
  3  4  2  0  0  0
  3  6  1  0  0  0
  6  7  1  0  0  0
  7  8  1  0  0  0
  8  9  2  0  0  0
  8 11  1  0  0  0
 11 12  1  0  0  0
 12 13  1  0  0  0
 13 14  1  0  0  0
 14 15  1  0  0  0
 15 16  1  0  0  0
 16 17  2  0  0  0
 16 18  1  0  0  0
 18 19  1  0  0  0
 18 22  1  0  0  0
 22 23  1  0  0  0
 23 24  1  0  0  0
 24 25  1  0  0  0
 25 26  2  0  0  0
 26 27  1  0  0  0
 26 28  1  0  0  0
 37 38  1  0  0  0
 38 39  2  0  0  0
 38 40  1  0  0  0
 40 42  1  0  0  0
 42 48  1  0  0  0
 48 49  1  0  0  0
 49 50  2  0  0  0
 50 51  1  0  0  0
 51 52  1  0  0  0
 52 53  2  0  0  0
 53 54  1  0  0  0
 54 55  2  0  0  0
 55 56  1  0  0  0
 56 57  2  0  0  0
 42 43  1  0  0  0
 43 44  1  0  0  0
 43 45  2  0  0  0
 72 64  1  0  0  0
 15 11  1  0  0  0
 57 49  1  0  0  0
 72 67  1  0  0  0
 57 52  1  0  0  0
 33 36  1  0  0  0
 66 73  1  0  0  0
  2  5  1  0  0  0
  7 10  1  0  0  0
 19 20  1  0  0  0
 19 21  1  0  0  0
 27 29  1  0  0  0
 27 30  1  0  0  0
 28 31  1  0  0  0
 28 32  1  0  0  0
 40 41  1  0  0  0
 51 58  1  0  0  0
 44 46  1  0  0  0
 44 47  1  0  0  0
M  END
> <minimizedAffinity>
-9.36346

> <CNNscore>
0.1010330692

> <CNNaffinity>
7.3729753494

> <CNN_VS>
0.7449143529

> <CNNaffinity_variance>
1.4930261374

$$$$
[H]c1c([H])c([H])c2c(c1[H])c(C([H])([H])[C@@]([H])(C(=O)N([H])[H])N([H])C(=O)[C@@]([H])(N([H])C(=O)[C@@]([H])(N([H])C(=O)C([H])([H])N([H])C(=O)[C@@]1([H])N(C(=O)[C@@]([H])(N([H])[H])C([H])([H])C([H])([H])C([H])([H])N=C(N([H])[H])N([H])[H])C([H])([H])C([H])([H])C1([H])[H])C([H])([H])c1c([H])n([H])c3c([H])c([H])c([H])c([H])c13)C([H])([H])C([H])(C([H])([H])[H])C([H])([H])[H])c([H])n2[H]


 73 77  0  0  0  0  0  0  0  0999 V2000
    8.5443   22.3759    2.7428 C   0  0  0  0  0  0  0  0  0  0  0  0
    7.9543   21.1905    3.3002 N   0  0  0  0  0  0  0  0  0  0  0  0
    6.6403   21.0067    3.8201 C   0  0  0  0  0  0  0  0  0  0  0  0
    5.8152   21.9508    3.8517 O   0  0  0  0  0  0  0  0  0  0  0  0
    8.5677   20.2928    3.3425 H   0  0  0  0  0  0  0  0  0  0  0  0
    6.2815   19.6408    4.3302 C   0  0  0  0  0  0  0  0  0  0  0  0
    5.3997   18.9410    3.4341 N   0  0  0  0  0  0  0  0  0  0  0  0
    5.2092   17.5635    3.5335 C   0  0  0  0  0  0  0  0  0  0  0  0
    5.8693   16.9991    4.5088 O   0  0  0  0  0  0  0  0  0  0  0  0
    4.9084   19.5099    2.7220 H   0  0  0  0  0  0  0  0  0  0  0  0
    4.4285   16.6334    2.7646 C   0  0  0  0  0  0  0  0  0  0  0  0
    5.3683   15.4464    2.3589 C   0  0  0  0  0  0  0  0  0  0  0  0
    6.0265   15.9946    1.1059 C   0  0  0  0  0  0  0  0  0  0  0  0
    5.1504   17.1393    0.6246 C   0  0  0  0  0  0  0  0  0  0  0  0
    3.9721   17.0774    1.4833 N   0  0  0  0  0  0  0  0  0  0  0  0
    2.6347   17.3980    1.1361 C   0  0  0  0  0  0  0  0  0  0  0  0
    1.7458   17.4411    2.0039 O   0  0  0  0  0  0  0  0  0  0  0  0
    2.3477   17.6729   -0.3245 C   0  0  0  0  0  0  0  0  0  0  0  0
    2.0957   16.3200   -0.8701 N   0  0  0  0  0  0  0  0  0  0  0  0
    1.0326   16.2119   -0.8122 H   0  0  0  0  0  0  0  0  0  0  0  0
    2.4404   15.6327   -0.1672 H   0  0  0  0  0  0  0  0  0  0  0  0
    1.1578   18.5531   -0.4659 C   0  0  0  0  0  0  0  0  0  0  0  0
    1.4932   19.9914   -0.6605 C   0  0  0  0  0  0  0  0  0  0  0  0
    2.4876   20.3438   -1.7068 C   0  0  0  0  0  0  0  0  0  0  0  0
    1.8855   20.1154   -3.0389 N   0  0  0  0  0  0  0  0  0  0  0  0
    2.6449   20.0228   -4.0701 C   0  0  0  0  0  0  0  0  0  0  0  0
    2.0811   19.8068   -5.3448 N   0  0  0  0  0  0  0  0  0  0  0  0
    4.0462   20.1385   -3.9166 N   0  0  0  0  0  0  0  0  0  0  0  0
    2.0470   18.8542   -5.7431 H   0  0  0  0  0  0  0  0  0  0  0  0
    1.7040   20.6011   -5.8884 H   0  0  0  0  0  0  0  0  0  0  0  0
    4.4622   21.0859   -3.8457 H   0  0  0  0  0  0  0  0  0  0  0  0
    4.6395   19.3103   -3.8757 H   0  0  0  0  0  0  0  0  0  0  0  0
    9.3241   20.8484    0.8611 N   0  0  0  0  0  0  0  0  0  0  0  0
    8.7700   22.0641    1.2910 C   0  0  0  0  0  0  0  0  0  0  0  0
    8.4418   22.9147    0.4248 O   0  0  0  0  0  0  0  0  0  0  0  0
    9.6152   20.1319    1.5738 H   0  0  0  0  0  0  0  0  0  0  0  0
    9.5531   20.4253   -0.5112 C   0  0  0  0  0  0  0  0  0  0  0  0
   10.7980   21.1510   -0.9870 C   0  0  0  0  0  0  0  0  0  0  0  0
   10.7605   21.7570   -2.0708 O   0  0  0  0  0  0  0  0  0  0  0  0
   11.9554   21.1359   -0.2332 N   0  0  0  0  0  0  0  0  0  0  0  0
   12.0282   20.6474    0.6842 H   0  0  0  0  0  0  0  0  0  0  0  0
   13.1921   21.8125   -0.6429 C   0  0  0  0  0  0  0  0  0  0  0  0
   14.3755   21.0235   -0.3090 C   0  0  0  0  0  0  0  0  0  0  0  0
   14.7576   20.6552    1.0099 N   0  0  0  0  0  0  0  0  0  0  0  0
   15.1412   20.6286   -1.2407 O   0  0  0  0  0  0  0  0  0  0  0  0
   15.6682   20.2795    1.2854 H   0  0  0  0  0  0  0  0  0  0  0  0
   14.0278   20.7850    1.7665 H   0  0  0  0  0  0  0  0  0  0  0  0
   13.1675   23.2503   -0.3071 C   0  0  0  0  0  0  0  0  0  0  0  0
   13.1239   24.2107   -1.3822 C   0  0  0  0  0  0  0  0  0  0  0  0
   12.2459   25.2894   -1.4592 C   0  0  0  0  0  0  0  0  0  0  0  0
   12.4864   26.0575   -2.4940 N   0  0  0  0  0  0  0  0  0  0  0  0
   13.5399   25.5172   -3.1526 C   0  0  0  0  0  0  0  0  0  0  0  0
   14.1583   25.9628   -4.2963 C   0  0  0  0  0  0  0  0  0  0  0  0
   15.2111   25.2629   -4.8044 C   0  0  0  0  0  0  0  0  0  0  0  0
   15.6305   24.1156   -4.1501 C   0  0  0  0  0  0  0  0  0  0  0  0
   15.0044   23.6810   -3.0075 C   0  0  0  0  0  0  0  0  0  0  0  0
   13.9437   24.3621   -2.4677 C   0  0  0  0  0  0  0  0  0  0  0  0
   11.9645   26.9398   -2.7716 H   0  0  0  0  0  0  0  0  0  0  0  0
    8.4989   20.7494   -1.4776 C   0  0  0  0  0  0  0  0  0  0  0  0
    7.5957   18.3921   -1.2764 C   0  0  0  0  0  0  0  0  0  0  0  0
    7.3827   19.8083   -1.7248 C   0  0  0  0  0  0  0  0  0  0  0  0
    6.1756   20.3982   -0.9389 C   0  0  0  0  0  0  0  0  0  0  0  0
    9.8857   22.6231    3.4071 C   0  0  0  0  0  0  0  0  0  0  0  0
   10.0066   22.0765    4.7486 C   0  0  0  0  0  0  0  0  0  0  0  0
   10.6963   20.9669    5.1653 C   0  0  0  0  0  0  0  0  0  0  0  0
   10.5723   20.8138    6.4996 N   0  0  0  0  0  0  0  0  0  0  0  0
    9.7907   21.8395    6.9579 C   0  0  0  0  0  0  0  0  0  0  0  0
    9.3456   22.1738    8.2423 C   0  0  0  0  0  0  0  0  0  0  0  0
    8.5622   23.2851    8.3992 C   0  0  0  0  0  0  0  0  0  0  0  0
    8.1883   24.0976    7.3401 C   0  0  0  0  0  0  0  0  0  0  0  0
    8.6329   23.7508    6.1012 C   0  0  0  0  0  0  0  0  0  0  0  0
    9.4323   22.6289    5.8873 C   0  0  0  0  0  0  0  0  0  0  0  0
   10.9885   20.0557    7.0837 H   0  0  0  0  0  0  0  0  0  0  0  0
 60 61  1  0  0  0
 61 62  1  0  0  0
 61 59  1  0  0  0
 59 37  1  0  0  0
 37 33  1  0  0  0
 33 34  1  0  0  0
 34 35  2  0  0  0
 34  1  1  0  0  0
  1 63  1  0  0  0
 63 64  1  0  0  0
 64 65  2  0  0  0
 65 66  1  0  0  0
 66 67  1  0  0  0
 67 68  2  0  0  0
 68 69  1  0  0  0
 69 70  2  0  0  0
 70 71  1  0  0  0
 71 72  2  0  0  0
  1  2  1  0  0  0
  2  3  1  0  0  0
  3  4  2  0  0  0
  3  6  1  0  0  0
  6  7  1  0  0  0
  7  8  1  0  0  0
  8  9  2  0  0  0
  8 11  1  0  0  0
 11 12  1  0  0  0
 12 13  1  0  0  0
 13 14  1  0  0  0
 14 15  1  0  0  0
 15 16  1  0  0  0
 16 17  2  0  0  0
 16 18  1  0  0  0
 18 19  1  0  0  0
 18 22  1  0  0  0
 22 23  1  0  0  0
 23 24  1  0  0  0
 24 25  1  0  0  0
 25 26  2  0  0  0
 26 27  1  0  0  0
 26 28  1  0  0  0
 37 38  1  0  0  0
 38 39  2  0  0  0
 38 40  1  0  0  0
 40 42  1  0  0  0
 42 48  1  0  0  0
 48 49  1  0  0  0
 49 50  2  0  0  0
 50 51  1  0  0  0
 51 52  1  0  0  0
 52 53  2  0  0  0
 53 54  1  0  0  0
 54 55  2  0  0  0
 55 56  1  0  0  0
 56 57  2  0  0  0
 42 43  1  0  0  0
 43 44  1  0  0  0
 43 45  2  0  0  0
 72 64  1  0  0  0
 15 11  1  0  0  0
 57 49  1  0  0  0
 72 67  1  0  0  0
 57 52  1  0  0  0
 33 36  1  0  0  0
 66 73  1  0  0  0
  2  5  1  0  0  0
  7 10  1  0  0  0
 19 20  1  0  0  0
 19 21  1  0  0  0
 27 29  1  0  0  0
 27 30  1  0  0  0
 28 31  1  0  0  0
 28 32  1  0  0  0
 40 41  1  0  0  0
 51 58  1  0  0  0
 44 46  1  0  0  0
 44 47  1  0  0  0
M  END
> <minimizedAffinity>
-9.65907

> <CNNscore>
0.0928452834

> <CNNaffinity>
7.3617200851

> <CNN_VS>
0.6835010052

> <CNNaffinity_variance>
1.2610085011

$$$$
[H]c1c([H])c([H])c2c(c1[H])c(C([H])([H])[C@@]([H])(C(=O)N([H])[H])N([H])C(=O)[C@@]([H])(N([H])C(=O)[C@@]([H])(N([H])C(=O)C([H])([H])N([H])C(=O)[C@@]1([H])N(C(=O)[C@@]([H])(N([H])[H])C([H])([H])C([H])([H])C([H])([H])N=C(N([H])[H])N([H])[H])C([H])([H])C([H])([H])C1([H])[H])C([H])([H])c1c([H])n([H])c3c([H])c([H])c([H])c([H])c13)C([H])([H])C([H])(C([H])([H])[H])C([H])([H])[H])c([H])n2[H]


 73 77  0  0  0  0  0  0  0  0999 V2000
    6.6502   20.4208   -0.2875 C   0  0  0  0  0  0  0  0  0  0  0  0
    7.7516   20.7137    0.5871 N   0  0  0  0  0  0  0  0  0  0  0  0
    8.2467   21.9829    1.0053 C   0  0  0  0  0  0  0  0  0  0  0  0
    7.7268   23.0498    0.5998 O   0  0  0  0  0  0  0  0  0  0  0  0
    8.3011   19.8734    1.0064 H   0  0  0  0  0  0  0  0  0  0  0  0
    9.4154   21.9946    1.9479 C   0  0  0  0  0  0  0  0  0  0  0  0
   10.6570   22.2568    1.2700 N   0  0  0  0  0  0  0  0  0  0  0  0
   11.2424   23.5220    1.2933 C   0  0  0  0  0  0  0  0  0  0  0  0
   10.5838   24.4056    1.9939 O   0  0  0  0  0  0  0  0  0  0  0  0
   11.0972   21.4609    0.7752 H   0  0  0  0  0  0  0  0  0  0  0  0
   12.4338   24.0518    0.6884 C   0  0  0  0  0  0  0  0  0  0  0  0
   12.0517   25.4024   -0.0091 C   0  0  0  0  0  0  0  0  0  0  0  0
   11.5361   24.9160   -1.3512 C   0  0  0  0  0  0  0  0  0  0  0  0
   12.0651   23.5026   -1.5295 C   0  0  0  0  0  0  0  0  0  0  0  0
   12.9824   23.3168   -0.4098 N   0  0  0  0  0  0  0  0  0  0  0  0
   14.1794   22.5559   -0.3932 C   0  0  0  0  0  0  0  0  0  0  0  0
   14.7941   22.3615    0.6695 O   0  0  0  0  0  0  0  0  0  0  0  0
   14.6672   22.0076   -1.7171 C   0  0  0  0  0  0  0  0  0  0  0  0
   13.7623   20.8595   -1.9506 N   0  0  0  0  0  0  0  0  0  0  0  0
   12.9774   21.2675   -2.5530 H   0  0  0  0  0  0  0  0  0  0  0  0
   13.2833   20.6534   -1.0488 H   0  0  0  0  0  0  0  0  0  0  0  0
   14.5405   23.0338   -2.7855 C   0  0  0  0  0  0  0  0  0  0  0  0
   15.4992   24.1658   -2.6491 C   0  0  0  0  0  0  0  0  0  0  0  0
   15.3856   25.2992   -3.6033 C   0  0  0  0  0  0  0  0  0  0  0  0
   16.3722   26.3385   -3.2348 N   0  0  0  0  0  0  0  0  0  0  0  0
   16.5433   27.3513   -4.0053 C   0  0  0  0  0  0  0  0  0  0  0  0
   17.4824   28.3469   -3.6644 N   0  0  0  0  0  0  0  0  0  0  0  0
   15.7842   27.4592   -5.1939 N   0  0  0  0  0  0  0  0  0  0  0  0
   17.1722   29.2175   -3.2029 H   0  0  0  0  0  0  0  0  0  0  0  0
   18.4847   28.2122   -3.8792 H   0  0  0  0  0  0  0  0  0  0  0  0
   16.0894   26.9254   -6.0291 H   0  0  0  0  0  0  0  0  0  0  0  0
   14.9529   28.0483   -5.2336 H   0  0  0  0  0  0  0  0  0  0  0  0
    5.3053   19.2899    1.5549 N   0  0  0  0  0  0  0  0  0  0  0  0
    5.4481   20.3147    0.6068 C   0  0  0  0  0  0  0  0  0  0  0  0
    4.5395   21.1794    0.5148 O   0  0  0  0  0  0  0  0  0  0  0  0
    6.0506   18.5522    1.6354 H   0  0  0  0  0  0  0  0  0  0  0  0
    4.2094   19.1097    2.4935 C   0  0  0  0  0  0  0  0  0  0  0  0
    4.8239   18.6062    3.7866 C   0  0  0  0  0  0  0  0  0  0  0  0
    5.9378   18.0577    3.7464 O   0  0  0  0  0  0  0  0  0  0  0  0
    4.1571   18.7494    4.9877 N   0  0  0  0  0  0  0  0  0  0  0  0
    3.2258   19.2097    5.0679 H   0  0  0  0  0  0  0  0  0  0  0  0
    4.6960   18.2776    6.2692 C   0  0  0  0  0  0  0  0  0  0  0  0
    4.0401   17.0494    6.7115 C   0  0  0  0  0  0  0  0  0  0  0  0
    2.7777   16.5918    6.2442 N   0  0  0  0  0  0  0  0  0  0  0  0
    4.6098   16.3196    7.5794 O   0  0  0  0  0  0  0  0  0  0  0  0
    2.2139   15.8535    6.6721 H   0  0  0  0  0  0  0  0  0  0  0  0
    2.3966   17.0635    5.3757 H   0  0  0  0  0  0  0  0  0  0  0  0
    4.8739   19.3847    7.2299 C   0  0  0  0  0  0  0  0  0  0  0  0
    6.1905   19.6314    7.7646 C   0  0  0  0  0  0  0  0  0  0  0  0
    6.5799   19.3918    9.0804 C   0  0  0  0  0  0  0  0  0  0  0  0
    7.8574   19.6145    9.2726 N   0  0  0  0  0  0  0  0  0  0  0  0
    8.3731   20.0153    8.0856 C   0  0  0  0  0  0  0  0  0  0  0  0
    9.6684   20.3631    7.7853 C   0  0  0  0  0  0  0  0  0  0  0  0
    9.9816   20.7463    6.5158 C   0  0  0  0  0  0  0  0  0  0  0  0
    8.9799   20.7746    5.5587 C   0  0  0  0  0  0  0  0  0  0  0  0
    7.6892   20.4242    5.8715 C   0  0  0  0  0  0  0  0  0  0  0  0
    7.3396   20.0316    7.1380 C   0  0  0  0  0  0  0  0  0  0  0  0
    8.3975   19.5022   10.1802 H   0  0  0  0  0  0  0  0  0  0  0  0
    3.1863   18.1279    2.1201 C   0  0  0  0  0  0  0  0  0  0  0  0
    1.7605   19.2326    0.3425 C   0  0  0  0  0  0  0  0  0  0  0  0
    1.8403   18.5651    1.6841 C   0  0  0  0  0  0  0  0  0  0  0  0
    0.9880   17.2634    1.6388 C   0  0  0  0  0  0  0  0  0  0  0  0
    6.8876   19.0783   -0.9535 C   0  0  0  0  0  0  0  0  0  0  0  0
    5.6771   18.3637   -1.3234 C   0  0  0  0  0  0  0  0  0  0  0  0
    5.2199   17.1543   -0.8667 C   0  0  0  0  0  0  0  0  0  0  0  0
    4.0406   16.8514   -1.4470 N   0  0  0  0  0  0  0  0  0  0  0  0
    3.7257   17.8795   -2.2937 C   0  0  0  0  0  0  0  0  0  0  0  0
    2.6294   18.0933   -3.1374 C   0  0  0  0  0  0  0  0  0  0  0  0
    2.5833   19.2430   -3.8786 C   0  0  0  0  0  0  0  0  0  0  0  0
    3.5766   20.2088   -3.8316 C   0  0  0  0  0  0  0  0  0  0  0  0
    4.6326   19.9771   -3.0044 C   0  0  0  0  0  0  0  0  0  0  0  0
    4.7279   18.8225   -2.2291 C   0  0  0  0  0  0  0  0  0  0  0  0
    3.4677   15.9935   -1.2892 H   0  0  0  0  0  0  0  0  0  0  0  0
 60 61  1  0  0  0
 61 62  1  0  0  0
 61 59  1  0  0  0
 59 37  1  0  0  0
 37 33  1  0  0  0
 33 34  1  0  0  0
 34 35  2  0  0  0
 34  1  1  0  0  0
  1 63  1  0  0  0
 63 64  1  0  0  0
 64 65  2  0  0  0
 65 66  1  0  0  0
 66 67  1  0  0  0
 67 68  2  0  0  0
 68 69  1  0  0  0
 69 70  2  0  0  0
 70 71  1  0  0  0
 71 72  2  0  0  0
  1  2  1  0  0  0
  2  3  1  0  0  0
  3  4  2  0  0  0
  3  6  1  0  0  0
  6  7  1  0  0  0
  7  8  1  0  0  0
  8  9  2  0  0  0
  8 11  1  0  0  0
 11 12  1  0  0  0
 12 13  1  0  0  0
 13 14  1  0  0  0
 14 15  1  0  0  0
 15 16  1  0  0  0
 16 17  2  0  0  0
 16 18  1  0  0  0
 18 19  1  0  0  0
 18 22  1  0  0  0
 22 23  1  0  0  0
 23 24  1  0  0  0
 24 25  1  0  0  0
 25 26  2  0  0  0
 26 27  1  0  0  0
 26 28  1  0  0  0
 37 38  1  0  0  0
 38 39  2  0  0  0
 38 40  1  0  0  0
 40 42  1  0  0  0
 42 48  1  0  0  0
 48 49  1  0  0  0
 49 50  2  0  0  0
 50 51  1  0  0  0
 51 52  1  0  0  0
 52 53  2  0  0  0
 53 54  1  0  0  0
 54 55  2  0  0  0
 55 56  1  0  0  0
 56 57  2  0  0  0
 42 43  1  0  0  0
 43 44  1  0  0  0
 43 45  2  0  0  0
 72 64  1  0  0  0
 15 11  1  0  0  0
 57 49  1  0  0  0
 72 67  1  0  0  0
 57 52  1  0  0  0
 33 36  1  0  0  0
 66 73  1  0  0  0
  2  5  1  0  0  0
  7 10  1  0  0  0
 19 20  1  0  0  0
 19 21  1  0  0  0
 27 29  1  0  0  0
 27 30  1  0  0  0
 28 31  1  0  0  0
 28 32  1  0  0  0
 40 41  1  0  0  0
 51 58  1  0  0  0
 44 46  1  0  0  0
 44 47  1  0  0  0
M  END
> <minimizedAffinity>
-8.85450

> <CNNscore>
0.0887061357

> <CNNaffinity>
7.3538064957

> <CNN_VS>
0.6523277760

> <CNNaffinity_variance>
0.5694954991

$$$$
[H]c1c([H])c([H])c2c(c1[H])c(C([H])([H])[C@@]([H])(C(=O)N([H])[H])N([H])C(=O)[C@@]([H])(N([H])C(=O)[C@@]([H])(N([H])C(=O)C([H])([H])N([H])C(=O)[C@@]1([H])N(C(=O)[C@@]([H])(N([H])[H])C([H])([H])C([H])([H])C([H])([H])N=C(N([H])[H])N([H])[H])C([H])([H])C([H])([H])C1([H])[H])C([H])([H])c1c([H])n([H])c3c([H])c([H])c([H])c([H])c13)C([H])([H])C([H])(C([H])([H])[H])C([H])([H])[H])c([H])n2[H]


 73 77  0  0  0  0  0  0  0  0999 V2000
    9.2788   21.4800    2.4368 C   0  0  0  0  0  0  0  0  0  0  0  0
    9.9870   21.6019    3.6807 N   0  0  0  0  0  0  0  0  0  0  0  0
   10.0320   20.6910    4.7757 C   0  0  0  0  0  0  0  0  0  0  0  0
    9.3896   19.6139    4.7527 O   0  0  0  0  0  0  0  0  0  0  0  0
   10.5818   22.4994    3.8376 H   0  0  0  0  0  0  0  0  0  0  0  0
   10.8757   21.0700    5.9585 C   0  0  0  0  0  0  0  0  0  0  0  0
   10.0837   21.3121    7.1350 N   0  0  0  0  0  0  0  0  0  0  0  0
    9.3020   22.4599    7.2588 C   0  0  0  0  0  0  0  0  0  0  0  0
    9.3402   23.2503    6.2201 O   0  0  0  0  0  0  0  0  0  0  0  0
   10.1149   20.5904    7.8767 H   0  0  0  0  0  0  0  0  0  0  0  0
    8.4606   22.9522    8.3151 C   0  0  0  0  0  0  0  0  0  0  0  0
    8.2144   21.7709    9.3154 C   0  0  0  0  0  0  0  0  0  0  0  0
    7.0460   21.0569    8.6606 C   0  0  0  0  0  0  0  0  0  0  0  0
    6.4231   22.0485    7.6921 C   0  0  0  0  0  0  0  0  0  0  0  0
    7.1190   23.3025    7.9623 N   0  0  0  0  0  0  0  0  0  0  0  0
    6.5890   24.6160    7.8869 C   0  0  0  0  0  0  0  0  0  0  0  0
    7.3297   25.6076    8.0019 O   0  0  0  0  0  0  0  0  0  0  0  0
    5.0966   24.7469    7.6705 C   0  0  0  0  0  0  0  0  0  0  0  0
    4.7763   26.0215    8.3519 N   0  0  0  0  0  0  0  0  0  0  0  0
    4.8258   26.7515    7.5709 H   0  0  0  0  0  0  0  0  0  0  0  0
    5.5914   26.2653    8.9532 H   0  0  0  0  0  0  0  0  0  0  0  0
    4.7831   24.8059    6.2183 C   0  0  0  0  0  0  0  0  0  0  0  0
    4.9421   26.1622    5.6231 C   0  0  0  0  0  0  0  0  0  0  0  0
    5.7210   26.2882    4.3640 C   0  0  0  0  0  0  0  0  0  0  0  0
    7.1646   26.2358    4.6844 N   0  0  0  0  0  0  0  0  0  0  0  0
    7.9704   27.0566    4.1139 C   0  0  0  0  0  0  0  0  0  0  0  0
    9.3486   27.0141    4.4108 N   0  0  0  0  0  0  0  0  0  0  0  0
    7.4654   28.0003    3.1893 N   0  0  0  0  0  0  0  0  0  0  0  0
    9.7525   27.6714    5.0980 H   0  0  0  0  0  0  0  0  0  0  0  0
    9.9617   26.3286    3.9388 H   0  0  0  0  0  0  0  0  0  0  0  0
    7.2814   27.6934    2.2158 H   0  0  0  0  0  0  0  0  0  0  0  0
    7.2840   28.9639    3.4693 H   0  0  0  0  0  0  0  0  0  0  0  0
    9.7979   22.2290    0.0595 N   0  0  0  0  0  0  0  0  0  0  0  0
   10.1286   22.1912    1.4229 C   0  0  0  0  0  0  0  0  0  0  0  0
   11.1686   22.7857    1.8058 O   0  0  0  0  0  0  0  0  0  0  0  0
    8.9381   21.7263   -0.2784 H   0  0  0  0  0  0  0  0  0  0  0  0
   10.5214   22.9135   -1.0001 C   0  0  0  0  0  0  0  0  0  0  0  0
   11.8564   22.2057   -1.1412 C   0  0  0  0  0  0  0  0  0  0  0  0
   11.9638   21.2904   -1.9742 O   0  0  0  0  0  0  0  0  0  0  0  0
   12.9335   22.5672   -0.3556 N   0  0  0  0  0  0  0  0  0  0  0  0
   12.8896   23.3335    0.3489 H   0  0  0  0  0  0  0  0  0  0  0  0
   14.2467   21.9164   -0.4409 C   0  0  0  0  0  0  0  0  0  0  0  0
   14.4326   20.9337    0.6240 C   0  0  0  0  0  0  0  0  0  0  0  0
   13.5307   20.7291    1.7038 N   0  0  0  0  0  0  0  0  0  0  0  0
   15.4671   20.1987    0.6165 O   0  0  0  0  0  0  0  0  0  0  0  0
   13.7279   20.1965    2.5544 H   0  0  0  0  0  0  0  0  0  0  0  0
   12.5727   21.1710    1.6089 H   0  0  0  0  0  0  0  0  0  0  0  0
   15.3230   22.8884   -0.7193 C   0  0  0  0  0  0  0  0  0  0  0  0
   15.3929   23.4858   -2.0302 C   0  0  0  0  0  0  0  0  0  0  0  0
   14.8733   22.9267   -3.1955 C   0  0  0  0  0  0  0  0  0  0  0  0
   14.9911   23.7245   -4.2289 N   0  0  0  0  0  0  0  0  0  0  0  0
   15.5990   24.8534   -3.7913 C   0  0  0  0  0  0  0  0  0  0  0  0
   15.9381   25.9783   -4.5044 C   0  0  0  0  0  0  0  0  0  0  0  0
   16.5552   27.0135   -3.8687 C   0  0  0  0  0  0  0  0  0  0  0  0
   16.8247   26.9019   -2.5140 C   0  0  0  0  0  0  0  0  0  0  0  0
   16.4803   25.7725   -1.8124 C   0  0  0  0  0  0  0  0  0  0  0  0
   15.8563   24.7133   -2.4200 C   0  0  0  0  0  0  0  0  0  0  0  0
   14.6715   23.5349   -5.2239 H   0  0  0  0  0  0  0  0  0  0  0  0
   10.8331   24.3274   -0.7682 C   0  0  0  0  0  0  0  0  0  0  0  0
   12.3513   25.7154   -2.2454 C   0  0  0  0  0  0  0  0  0  0  0  0
   12.1923   24.8555   -1.0258 C   0  0  0  0  0  0  0  0  0  0  0  0
   12.5380   25.7099    0.2286 C   0  0  0  0  0  0  0  0  0  0  0  0
    7.9463   22.1964    2.5511 C   0  0  0  0  0  0  0  0  0  0  0  0
    6.7833   21.3290    2.4626 C   0  0  0  0  0  0  0  0  0  0  0  0
    6.1499   20.6365    3.4625 C   0  0  0  0  0  0  0  0  0  0  0  0
    5.0921   19.9626    2.9663 N   0  0  0  0  0  0  0  0  0  0  0  0
    5.0363   20.2209    1.6234 C   0  0  0  0  0  0  0  0  0  0  0  0
    4.1532   19.7932    0.6252 C   0  0  0  0  0  0  0  0  0  0  0  0
    4.3481   20.2295   -0.6574 C   0  0  0  0  0  0  0  0  0  0  0  0
    5.3839   21.0789   -1.0139 C   0  0  0  0  0  0  0  0  0  0  0  0
    6.2296   21.4798   -0.0255 C   0  0  0  0  0  0  0  0  0  0  0  0
    6.0755   21.0640    1.2962 C   0  0  0  0  0  0  0  0  0  0  0  0
    4.4338   19.3522    3.4982 H   0  0  0  0  0  0  0  0  0  0  0  0
 60 61  1  0  0  0
 61 62  1  0  0  0
 61 59  1  0  0  0
 59 37  1  0  0  0
 37 33  1  0  0  0
 33 34  1  0  0  0
 34 35  2  0  0  0
 34  1  1  0  0  0
  1 63  1  0  0  0
 63 64  1  0  0  0
 64 65  2  0  0  0
 65 66  1  0  0  0
 66 67  1  0  0  0
 67 68  2  0  0  0
 68 69  1  0  0  0
 69 70  2  0  0  0
 70 71  1  0  0  0
 71 72  2  0  0  0
  1  2  1  0  0  0
  2  3  1  0  0  0
  3  4  2  0  0  0
  3  6  1  0  0  0
  6  7  1  0  0  0
  7  8  1  0  0  0
  8  9  2  0  0  0
  8 11  1  0  0  0
 11 12  1  0  0  0
 12 13  1  0  0  0
 13 14  1  0  0  0
 14 15  1  0  0  0
 15 16  1  0  0  0
 16 17  2  0  0  0
 16 18  1  0  0  0
 18 19  1  0  0  0
 18 22  1  0  0  0
 22 23  1  0  0  0
 23 24  1  0  0  0
 24 25  1  0  0  0
 25 26  2  0  0  0
 26 27  1  0  0  0
 26 28  1  0  0  0
 37 38  1  0  0  0
 38 39  2  0  0  0
 38 40  1  0  0  0
 40 42  1  0  0  0
 42 48  1  0  0  0
 48 49  1  0  0  0
 49 50  2  0  0  0
 50 51  1  0  0  0
 51 52  1  0  0  0
 52 53  2  0  0  0
 53 54  1  0  0  0
 54 55  2  0  0  0
 55 56  1  0  0  0
 56 57  2  0  0  0
 42 43  1  0  0  0
 43 44  1  0  0  0
 43 45  2  0  0  0
 72 64  1  0  0  0
 15 11  1  0  0  0
 57 49  1  0  0  0
 72 67  1  0  0  0
 57 52  1  0  0  0
 33 36  1  0  0  0
 66 73  1  0  0  0
  2  5  1  0  0  0
  7 10  1  0  0  0
 19 20  1  0  0  0
 19 21  1  0  0  0
 27 29  1  0  0  0
 27 30  1  0  0  0
 28 31  1  0  0  0
 28 32  1  0  0  0
 40 41  1  0  0  0
 51 58  1  0  0  0
 44 46  1  0  0  0
 44 47  1  0  0  0
M  END
> <minimizedAffinity>
-8.65183

> <CNNscore>
0.0857076570

> <CNNaffinity>
7.3463187218

> <CNN_VS>
0.6296357512

> <CNNaffinity_variance>
1.1923106909

$$$$
[H]c1c([H])c([H])c2c(c1[H])c(C([H])([H])[C@@]([H])(C(=O)N([H])[H])N([H])C(=O)[C@@]([H])(N([H])C(=O)[C@@]([H])(N([H])C(=O)C([H])([H])N([H])C(=O)[C@@]1([H])N(C(=O)[C@@]([H])(N([H])[H])C([H])([H])C([H])([H])C([H])([H])N=C(N([H])[H])N([H])[H])C([H])([H])C([H])([H])C1([H])[H])C([H])([H])c1c([H])n([H])c3c([H])c([H])c([H])c([H])c13)C([H])([H])C([H])(C([H])([H])[H])C([H])([H])[H])c([H])n2[H]


 73 77  0  0  0  0  0  0  0  0999 V2000
    6.7183   20.1888   -0.7081 C   0  0  0  0  0  0  0  0  0  0  0  0
    5.9117   19.5648    0.3037 N   0  0  0  0  0  0  0  0  0  0  0  0
    5.8168   18.1843    0.6446 C   0  0  0  0  0  0  0  0  0  0  0  0
    6.4775   17.3149    0.0275 O   0  0  0  0  0  0  0  0  0  0  0  0
    5.2780   20.2069    0.9119 H   0  0  0  0  0  0  0  0  0  0  0  0
    4.8948   17.8097    1.7689 C   0  0  0  0  0  0  0  0  0  0  0  0
    5.5637   17.8104    3.0427 N   0  0  0  0  0  0  0  0  0  0  0  0
    4.9875   17.2157    4.1642 C   0  0  0  0  0  0  0  0  0  0  0  0
    3.8309   16.6528    3.9391 O   0  0  0  0  0  0  0  0  0  0  0  0
    6.4941   18.2631    3.0823 H   0  0  0  0  0  0  0  0  0  0  0  0
    5.4154   17.1043    5.5319 C   0  0  0  0  0  0  0  0  0  0  0  0
    4.2869   17.7128    6.4335 C   0  0  0  0  0  0  0  0  0  0  0  0
    4.6351   19.1897    6.4007 C   0  0  0  0  0  0  0  0  0  0  0  0
    6.0826   19.2812    5.9474 C   0  0  0  0  0  0  0  0  0  0  0  0
    6.5412   17.8960    5.9231 N   0  0  0  0  0  0  0  0  0  0  0  0
    7.8422   17.4134    6.2173 C   0  0  0  0  0  0  0  0  0  0  0  0
    8.1385   16.2228    6.0178 O   0  0  0  0  0  0  0  0  0  0  0  0
    8.8342   18.4054    6.7857 C   0  0  0  0  0  0  0  0  0  0  0  0
    9.5650   17.6003    7.7904 N   0  0  0  0  0  0  0  0  0  0  0  0
   10.4216   17.2402    7.2595 H   0  0  0  0  0  0  0  0  0  0  0  0
    9.0106   16.7341    7.9568 H   0  0  0  0  0  0  0  0  0  0  0  0
    9.7401   18.9072    5.7189 C   0  0  0  0  0  0  0  0  0  0  0  0
    9.6064   20.3669    5.4536 C   0  0  0  0  0  0  0  0  0  0  0  0
   10.5048   21.2974    6.1850 C   0  0  0  0  0  0  0  0  0  0  0  0
    9.7307   22.4894    6.5964 N   0  0  0  0  0  0  0  0  0  0  0  0
    9.4029   22.6376    7.8290 C   0  0  0  0  0  0  0  0  0  0  0  0
    8.6636   23.7693    8.2316 N   0  0  0  0  0  0  0  0  0  0  0  0
    9.7890   21.6600    8.7755 N   0  0  0  0  0  0  0  0  0  0  0  0
    9.1452   24.5842    8.6454 H   0  0  0  0  0  0  0  0  0  0  0  0
    7.6361   23.7866    8.1190 H   0  0  0  0  0  0  0  0  0  0  0  0
    9.2234   20.7943    8.8551 H   0  0  0  0  0  0  0  0  0  0  0  0
   10.6060   21.7989    9.3695 H   0  0  0  0  0  0  0  0  0  0  0  0
    8.8100   21.4568   -0.0016 N   0  0  0  0  0  0  0  0  0  0  0  0
    7.4126   21.3280   -0.0180 C   0  0  0  0  0  0  0  0  0  0  0  0
    6.7212   22.2071    0.5571 O   0  0  0  0  0  0  0  0  0  0  0  0
    9.4025   20.7233   -0.4674 H   0  0  0  0  0  0  0  0  0  0  0  0
    9.5851   22.5304    0.5995 C   0  0  0  0  0  0  0  0  0  0  0  0
   10.8702   22.6381   -0.2003 C   0  0  0  0  0  0  0  0  0  0  0  0
   10.7999   22.7283   -1.4373 O   0  0  0  0  0  0  0  0  0  0  0  0
   12.0981   22.6314    0.4323 N   0  0  0  0  0  0  0  0  0  0  0  0
   12.2025   22.5655    1.4669 H   0  0  0  0  0  0  0  0  0  0  0  0
   13.3747   22.7258   -0.2863 C   0  0  0  0  0  0  0  0  0  0  0  0
   14.0979   21.4564   -0.2716 C   0  0  0  0  0  0  0  0  0  0  0  0
   14.5035   20.7690    0.9049 N   0  0  0  0  0  0  0  0  0  0  0  0
   14.4064   20.9052   -1.3722 O   0  0  0  0  0  0  0  0  0  0  0  0
   15.1704   19.9945    0.9446 H   0  0  0  0  0  0  0  0  0  0  0  0
   14.0710   21.0952    1.8151 H   0  0  0  0  0  0  0  0  0  0  0  0
   14.0983   23.9702    0.0429 C   0  0  0  0  0  0  0  0  0  0  0  0
   14.8434   24.6330   -0.9991 C   0  0  0  0  0  0  0  0  0  0  0  0
   16.2303   24.6176   -1.1277 C   0  0  0  0  0  0  0  0  0  0  0  0
   16.6385   25.2206   -2.2178 N   0  0  0  0  0  0  0  0  0  0  0  0
   15.5332   25.6659   -2.8624 C   0  0  0  0  0  0  0  0  0  0  0  0
   15.4496   26.3565   -4.0477 C   0  0  0  0  0  0  0  0  0  0  0  0
   14.2266   26.7192   -4.5265 C   0  0  0  0  0  0  0  0  0  0  0  0
   13.0960   26.3796   -3.8009 C   0  0  0  0  0  0  0  0  0  0  0  0
   13.1929   25.6887   -2.6177 C   0  0  0  0  0  0  0  0  0  0  0  0
   14.4071   25.3061   -2.1081 C   0  0  0  0  0  0  0  0  0  0  0  0
   17.6415   25.3405   -2.5460 H   0  0  0  0  0  0  0  0  0  0  0  0
    9.9898   22.3392    1.9958 C   0  0  0  0  0  0  0  0  0  0  0  0
    9.8153   24.7940    2.5928 C   0  0  0  0  0  0  0  0  0  0  0  0
    9.6804   23.3620    3.0209 C   0  0  0  0  0  0  0  0  0  0  0  0
    8.1972   23.1027    3.4154 C   0  0  0  0  0  0  0  0  0  0  0  0
    5.8137   20.7474   -1.7905 C   0  0  0  0  0  0  0  0  0  0  0  0
    4.3919   20.6120   -1.5205 C   0  0  0  0  0  0  0  0  0  0  0  0
    3.5675   21.4508   -0.8154 C   0  0  0  0  0  0  0  0  0  0  0  0
    2.3058   20.9741   -0.8148 N   0  0  0  0  0  0  0  0  0  0  0  0
    2.3093   19.8076   -1.5308 C   0  0  0  0  0  0  0  0  0  0  0  0
    1.2890   18.9048   -1.8518 C   0  0  0  0  0  0  0  0  0  0  0  0
    1.5969   17.8034   -2.6037 C   0  0  0  0  0  0  0  0  0  0  0  0
    2.8779   17.5405   -3.0636 C   0  0  0  0  0  0  0  0  0  0  0  0
    3.8527   18.4328   -2.7372 C   0  0  0  0  0  0  0  0  0  0  0  0
    3.5919   19.5696   -1.9736 C   0  0  0  0  0  0  0  0  0  0  0  0
    1.4744   21.4050   -0.3544 H   0  0  0  0  0  0  0  0  0  0  0  0
 60 61  1  0  0  0
 61 62  1  0  0  0
 61 59  1  0  0  0
 59 37  1  0  0  0
 37 33  1  0  0  0
 33 34  1  0  0  0
 34 35  2  0  0  0
 34  1  1  0  0  0
  1 63  1  0  0  0
 63 64  1  0  0  0
 64 65  2  0  0  0
 65 66  1  0  0  0
 66 67  1  0  0  0
 67 68  2  0  0  0
 68 69  1  0  0  0
 69 70  2  0  0  0
 70 71  1  0  0  0
 71 72  2  0  0  0
  1  2  1  0  0  0
  2  3  1  0  0  0
  3  4  2  0  0  0
  3  6  1  0  0  0
  6  7  1  0  0  0
  7  8  1  0  0  0
  8  9  2  0  0  0
  8 11  1  0  0  0
 11 12  1  0  0  0
 12 13  1  0  0  0
 13 14  1  0  0  0
 14 15  1  0  0  0
 15 16  1  0  0  0
 16 17  2  0  0  0
 16 18  1  0  0  0
 18 19  1  0  0  0
 18 22  1  0  0  0
 22 23  1  0  0  0
 23 24  1  0  0  0
 24 25  1  0  0  0
 25 26  2  0  0  0
 26 27  1  0  0  0
 26 28  1  0  0  0
 37 38  1  0  0  0
 38 39  2  0  0  0
 38 40  1  0  0  0
 40 42  1  0  0  0
 42 48  1  0  0  0
 48 49  1  0  0  0
 49 50  2  0  0  0
 50 51  1  0  0  0
 51 52  1  0  0  0
 52 53  2  0  0  0
 53 54  1  0  0  0
 54 55  2  0  0  0
 55 56  1  0  0  0
 56 57  2  0  0  0
 42 43  1  0  0  0
 43 44  1  0  0  0
 43 45  2  0  0  0
 72 64  1  0  0  0
 15 11  1  0  0  0
 57 49  1  0  0  0
 72 67  1  0  0  0
 57 52  1  0  0  0
 33 36  1  0  0  0
 66 73  1  0  0  0
  2  5  1  0  0  0
  7 10  1  0  0  0
 19 20  1  0  0  0
 19 21  1  0  0  0
 27 29  1  0  0  0
 27 30  1  0  0  0
 28 31  1  0  0  0
 28 32  1  0  0  0
 40 41  1  0  0  0
 51 58  1  0  0  0
 44 46  1  0  0  0
 44 47  1  0  0  0
M  END
> <minimizedAffinity>
-9.55731

> <CNNscore>
0.0854608417

> <CNNaffinity>
7.1174712181

> <CNN_VS>
0.6082651019

> <CNNaffinity_variance>
1.6119400263

$$$$
[H]O[C@@]1([H])[C@]([H])(n2c([H])nc3c(N([H])[H])nc([H])nc32)O[C@]([H])(C([H])([H])OP(=O)(O[H])OP(=O)(O[H])O[H])[C@]1([H])O[H]


 34 36  0  0  0  0  0  0  0  0999 V2000
   14.5002   23.3305   -2.1331 C   0  0  0  0  0  0  0  0  0  0  0  0
   13.1787   23.7194   -2.1487 O   0  0  0  0  0  0  0  0  0  0  0  0
   12.6523   23.6171   -0.8943 C   0  0  0  0  0  0  0  0  0  0  0  0
   13.7692   23.3943    0.0779 C   0  0  0  0  0  0  0  0  0  0  0  0
   14.4030   24.6083    0.3826 O   0  0  0  0  0  0  0  0  0  0  0  0
   14.7574   22.6387   -0.8236 C   0  0  0  0  0  0  0  0  0  0  0  0
   14.3493   21.3129   -0.9261 O   0  0  0  0  0  0  0  0  0  0  0  0
   14.0454   25.0433    1.1759 H   0  0  0  0  0  0  0  0  0  0  0  0
   13.7009   21.1645   -1.6393 H   0  0  0  0  0  0  0  0  0  0  0  0
   17.3463   28.3264   -3.8497 N   0  0  0  0  0  0  0  0  0  0  0  0
   16.2824   27.4242   -4.0325 C   0  0  0  0  0  0  0  0  0  0  0  0
   15.3443   27.5316   -4.9643 N   0  0  0  0  0  0  0  0  0  0  0  0
   14.3437   26.6455   -5.1042 C   0  0  0  0  0  0  0  0  0  0  0  0
   14.2485   25.5904   -4.2887 N   0  0  0  0  0  0  0  0  0  0  0  0
   15.1748   25.4291   -3.3214 C   0  0  0  0  0  0  0  0  0  0  0  0
   15.3254   24.4652   -2.3635 N   0  0  0  0  0  0  0  0  0  0  0  0
   16.4157   24.7954   -1.6687 C   0  0  0  0  0  0  0  0  0  0  0  0
   16.9430   25.9077   -2.1460 N   0  0  0  0  0  0  0  0  0  0  0  0
   16.1910   26.3275   -3.1781 C   0  0  0  0  0  0  0  0  0  0  0  0
   17.3811   28.9289   -3.0122 H   0  0  0  0  0  0  0  0  0  0  0  0
   18.0972   28.3885   -4.5544 H   0  0  0  0  0  0  0  0  0  0  0  0
   11.8022   24.8199   -0.5657 C   0  0  0  0  0  0  0  0  0  0  0  0
   11.5741   24.9545    0.7888 O   0  0  0  0  0  0  0  0  0  0  0  0
   10.1885   24.0674    1.1785 P   0  0  0  0  0  0  0  0  0  0  0  0
    9.3043   23.6643   -0.1977 O   0  0  0  0  0  0  0  0  0  0  0  0
   10.6445   22.7937    1.8632 O   0  0  0  0  0  0  0  0  0  0  0  0
    9.1072   24.5121   -0.6856 H   0  0  0  0  0  0  0  0  0  0  0  0
    9.1885   24.9011    2.2449 O   0  0  0  0  0  0  0  0  0  0  0  0
    8.0519   23.9116    2.9697 P   0  0  0  0  0  0  0  0  0  0  0  0
    7.4806   22.8230    1.7827 O   0  0  0  0  0  0  0  0  0  0  0  0
    8.7530   23.0078    4.2352 O   0  0  0  0  0  0  0  0  0  0  0  0
    6.8781   24.6887    3.5394 O   0  0  0  0  0  0  0  0  0  0  0  0
    8.0069   22.8831    0.9507 H   0  0  0  0  0  0  0  0  0  0  0  0
    8.1143   22.2707    4.4206 H   0  0  0  0  0  0  0  0  0  0  0  0
 10 11  1  0  0  0
 11 12  2  0  0  0
 12 13  1  0  0  0
 13 14  2  0  0  0
 14 15  1  0  0  0
 15 16  1  0  0  0
 16 17  1  0  0  0
 17 18  2  0  0  0
 18 19  1  0  0  0
 16  1  1  0  0  0
  1  2  1  0  0  0
  2  3  1  0  0  0
  3 22  1  0  0  0
 22 23  1  0  0  0
 23 24  1  0  0  0
 24 25  1  0  0  0
 24 26  2  0  0  0
 24 28  1  0  0  0
 28 29  1  0  0  0
 29 30  1  0  0  0
 29 31  1  0  0  0
 29 32  2  0  0  0
  3  4  1  0  0  0
  4  5  1  0  0  0
  4  6  1  0  0  0
  6  7  1  0  0  0
 19 11  1  0  0  0
  6  1  1  0  0  0
 19 15  2  0  0  0
 10 20  1  0  0  0
 10 21  1  0  0  0
 25 27  1  0  0  0
 30 33  1  0  0  0
 31 34  1  0  0  0
  5  8  1  0  0  0
  7  9  1  0  0  0
M  END
> <minimizedAffinity>
-8.28771

> <CNNscore>
0.5023252964

> <CNNaffinity>
5.7366757393

> <CNN_VS>
2.8816773891

> <CNNaffinity_variance>
0.2047388256

$$$$
[H]O[C@@]1([H])[C@]([H])(n2c([H])nc3c(N([H])[H])nc([H])nc32)O[C@]([H])(C([H])([H])OP(=O)(O[H])OP(=O)(O[H])O[H])[C@]1([H])O[H]


 34 36  0  0  0  0  0  0  0  0999 V2000
   14.4180   23.2339   -2.2975 C   0  0  0  0  0  0  0  0  0  0  0  0
   13.1016   23.6360   -2.2418 O   0  0  0  0  0  0  0  0  0  0  0  0
   12.6098   23.4340   -0.9854 C   0  0  0  0  0  0  0  0  0  0  0  0
   13.7511   23.1193   -0.0685 C   0  0  0  0  0  0  0  0  0  0  0  0
   14.4083   24.2971    0.3179 O   0  0  0  0  0  0  0  0  0  0  0  0
   14.7037   22.4322   -1.0586 C   0  0  0  0  0  0  0  0  0  0  0  0
   14.2765   21.1238   -1.2596 O   0  0  0  0  0  0  0  0  0  0  0  0
   14.0788   24.6675    1.1549 H   0  0  0  0  0  0  0  0  0  0  0  0
   13.6063   21.0422   -1.9633 H   0  0  0  0  0  0  0  0  0  0  0  0
   17.3244   28.2844   -3.7301 N   0  0  0  0  0  0  0  0  0  0  0  0
   16.2699   27.3888   -3.9856 C   0  0  0  0  0  0  0  0  0  0  0  0
   15.3699   27.5275   -4.9504 N   0  0  0  0  0  0  0  0  0  0  0  0
   14.3769   26.6466   -5.1601 C   0  0  0  0  0  0  0  0  0  0  0  0
   14.2504   25.5648   -4.3847 N   0  0  0  0  0  0  0  0  0  0  0  0
   15.1371   25.3712   -3.3869 C   0  0  0  0  0  0  0  0  0  0  0  0
   15.2504   24.3757   -2.4564 N   0  0  0  0  0  0  0  0  0  0  0  0
   16.3113   24.6824   -1.7077 C   0  0  0  0  0  0  0  0  0  0  0  0
   16.8559   25.8100   -2.1259 N   0  0  0  0  0  0  0  0  0  0  0  0
   16.1456   26.2642   -3.1728 C   0  0  0  0  0  0  0  0  0  0  0  0
   17.3246   28.8585   -2.8722 H   0  0  0  0  0  0  0  0  0  0  0  0
   18.1030   28.3700   -4.4015 H   0  0  0  0  0  0  0  0  0  0  0  0
   11.7844   24.6134   -0.5326 C   0  0  0  0  0  0  0  0  0  0  0  0
   11.8169   24.7899    0.8358 O   0  0  0  0  0  0  0  0  0  0  0  0
   10.4482   24.0466    1.4937 P   0  0  0  0  0  0  0  0  0  0  0  0
   10.8576   22.6851    2.3976 O   0  0  0  0  0  0  0  0  0  0  0  0
    9.7764   25.0582    2.4016 O   0  0  0  0  0  0  0  0  0  0  0  0
   11.3896   22.0824    1.8064 H   0  0  0  0  0  0  0  0  0  0  0  0
    9.3434   23.6007    0.3053 O   0  0  0  0  0  0  0  0  0  0  0  0
    8.1856   22.5338    0.8692 P   0  0  0  0  0  0  0  0  0  0  0  0
    7.6136   23.1329    2.3640 O   0  0  0  0  0  0  0  0  0  0  0  0
    6.8693   22.4399   -0.2116 O   0  0  0  0  0  0  0  0  0  0  0  0
    8.7316   21.1311    1.0706 O   0  0  0  0  0  0  0  0  0  0  0  0
    7.9581   24.0384    2.5487 H   0  0  0  0  0  0  0  0  0  0  0  0
    6.1302   22.0250    0.3055 H   0  0  0  0  0  0  0  0  0  0  0  0
 10 11  1  0  0  0
 11 12  2  0  0  0
 12 13  1  0  0  0
 13 14  2  0  0  0
 14 15  1  0  0  0
 15 16  1  0  0  0
 16 17  1  0  0  0
 17 18  2  0  0  0
 18 19  1  0  0  0
 16  1  1  0  0  0
  1  2  1  0  0  0
  2  3  1  0  0  0
  3 22  1  0  0  0
 22 23  1  0  0  0
 23 24  1  0  0  0
 24 25  1  0  0  0
 24 26  2  0  0  0
 24 28  1  0  0  0
 28 29  1  0  0  0
 29 30  1  0  0  0
 29 31  1  0  0  0
 29 32  2  0  0  0
  3  4  1  0  0  0
  4  5  1  0  0  0
  4  6  1  0  0  0
  6  7  1  0  0  0
 19 11  1  0  0  0
  6  1  1  0  0  0
 19 15  2  0  0  0
 10 20  1  0  0  0
 10 21  1  0  0  0
 25 27  1  0  0  0
 30 33  1  0  0  0
 31 34  1  0  0  0
  5  8  1  0  0  0
  7  9  1  0  0  0
M  END
> <minimizedAffinity>
-8.44353

> <CNNscore>
0.5017138720

> <CNNaffinity>
5.8420958519

> <CNN_VS>
2.9310605526

> <CNNaffinity_variance>
0.1953394115

$$$$
[H]O[C@@]1([H])[C@]([H])(n2c([H])nc3c(N([H])[H])nc([H])nc32)O[C@]([H])(C([H])([H])OP(=O)(O[H])OP(=O)(O[H])O[H])[C@]1([H])O[H]


 34 36  0  0  0  0  0  0  0  0999 V2000
   14.4445   23.5348   -2.7511 C   0  0  0  0  0  0  0  0  0  0  0  0
   13.1754   23.9606   -2.4259 O   0  0  0  0  0  0  0  0  0  0  0  0
   12.8487   23.5254   -1.1748 C   0  0  0  0  0  0  0  0  0  0  0  0
   14.0832   22.9945   -0.5141 C   0  0  0  0  0  0  0  0  0  0  0  0
   14.8583   24.0477   -0.0058 O   0  0  0  0  0  0  0  0  0  0  0  0
   14.8472   22.4904   -1.7479 C   0  0  0  0  0  0  0  0  0  0  0  0
   14.3167   21.2644   -2.1355 O   0  0  0  0  0  0  0  0  0  0  0  0
   14.6700   24.2521    0.9264 H   0  0  0  0  0  0  0  0  0  0  0  0
   13.5527   21.3488   -2.7357 H   0  0  0  0  0  0  0  0  0  0  0  0
   17.5939   28.5372   -3.7829 N   0  0  0  0  0  0  0  0  0  0  0  0
   16.5452   27.6768   -4.1560 C   0  0  0  0  0  0  0  0  0  0  0  0
   15.7405   27.8627   -5.1942 N   0  0  0  0  0  0  0  0  0  0  0  0
   14.7491   27.0142   -5.5157 C   0  0  0  0  0  0  0  0  0  0  0  0
   14.5256   25.9182   -4.7835 N   0  0  0  0  0  0  0  0  0  0  0  0
   15.3127   25.6770   -3.7149 C   0  0  0  0  0  0  0  0  0  0  0  0
   15.3160   24.6570   -2.8043 N   0  0  0  0  0  0  0  0  0  0  0  0
   16.3117   24.9171   -1.9549 C   0  0  0  0  0  0  0  0  0  0  0  0
   16.9200   26.0390   -2.2927 N   0  0  0  0  0  0  0  0  0  0  0  0
   16.3194   26.5370   -3.3874 C   0  0  0  0  0  0  0  0  0  0  0  0
   17.5303   29.0906   -2.9138 H   0  0  0  0  0  0  0  0  0  0  0  0
   18.4323   28.6175   -4.3787 H   0  0  0  0  0  0  0  0  0  0  0  0
   12.1673   24.6157   -0.3847 C   0  0  0  0  0  0  0  0  0  0  0  0
   11.9293   24.2522    0.9252 O   0  0  0  0  0  0  0  0  0  0  0  0
   10.3990   23.5374    1.0021 P   0  0  0  0  0  0  0  0  0  0  0  0
    9.5529   24.0323    2.3723 O   0  0  0  0  0  0  0  0  0  0  0  0
    9.6347   23.9708   -0.2336 O   0  0  0  0  0  0  0  0  0  0  0  0
   10.1240   23.8311    3.1654 H   0  0  0  0  0  0  0  0  0  0  0  0
   10.4899   21.8570    0.9941 O   0  0  0  0  0  0  0  0  0  0  0  0
   11.2369   21.2454    2.3596 P   0  0  0  0  0  0  0  0  0  0  0  0
   11.2346   19.5413    2.2318 O   0  0  0  0  0  0  0  0  0  0  0  0
   12.8555   21.7753    2.4545 O   0  0  0  0  0  0  0  0  0  0  0  0
   10.5322   21.6499    3.6425 O   0  0  0  0  0  0  0  0  0  0  0  0
   10.9281   19.2436    1.3429 H   0  0  0  0  0  0  0  0  0  0  0  0
   13.2953   21.1700    3.1071 H   0  0  0  0  0  0  0  0  0  0  0  0
 10 11  1  0  0  0
 11 12  2  0  0  0
 12 13  1  0  0  0
 13 14  2  0  0  0
 14 15  1  0  0  0
 15 16  1  0  0  0
 16 17  1  0  0  0
 17 18  2  0  0  0
 18 19  1  0  0  0
 16  1  1  0  0  0
  1  2  1  0  0  0
  2  3  1  0  0  0
  3 22  1  0  0  0
 22 23  1  0  0  0
 23 24  1  0  0  0
 24 25  1  0  0  0
 24 26  2  0  0  0
 24 28  1  0  0  0
 28 29  1  0  0  0
 29 30  1  0  0  0
 29 31  1  0  0  0
 29 32  2  0  0  0
  3  4  1  0  0  0
  4  5  1  0  0  0
  4  6  1  0  0  0
  6  7  1  0  0  0
 19 11  1  0  0  0
  6  1  1  0  0  0
 19 15  2  0  0  0
 10 20  1  0  0  0
 10 21  1  0  0  0
 25 27  1  0  0  0
 30 33  1  0  0  0
 31 34  1  0  0  0
  5  8  1  0  0  0
  7  9  1  0  0  0
M  END
> <minimizedAffinity>
-8.32167

> <CNNscore>
0.4855761528

> <CNNaffinity>
5.8007369041

> <CNN_VS>
2.8166995049

> <CNNaffinity_variance>
0.2059210241

$$$$
[H]O[C@@]1([H])[C@]([H])(n2c([H])nc3c(N([H])[H])nc([H])nc32)O[C@]([H])(C([H])([H])OP(=O)(O[H])OP(=O)(O[H])O[H])[C@]1([H])O[H]


 34 36  0  0  0  0  0  0  0  0999 V2000
   11.5621   24.3561   -0.2315 C   0  0  0  0  0  0  0  0  0  0  0  0
   11.9671   23.5428    0.8041 O   0  0  0  0  0  0  0  0  0  0  0  0
   11.5091   22.2738    0.6009 C   0  0  0  0  0  0  0  0  0  0  0  0
   10.9836   22.1716   -0.7976 C   0  0  0  0  0  0  0  0  0  0  0  0
   12.0386   21.9959   -1.7057 O   0  0  0  0  0  0  0  0  0  0  0  0
   10.5077   23.6172   -1.0073 C   0  0  0  0  0  0  0  0  0  0  0  0
    9.2812   23.7835   -0.3727 O   0  0  0  0  0  0  0  0  0  0  0  0
   12.2267   21.0624   -1.9047 H   0  0  0  0  0  0  0  0  0  0  0  0
    9.3651   24.0266    0.5680 H   0  0  0  0  0  0  0  0  0  0  0  0
   16.8787   25.6644   -2.6867 N   0  0  0  0  0  0  0  0  0  0  0  0
   16.1472   25.1867   -1.5840 C   0  0  0  0  0  0  0  0  0  0  0  0
   16.6766   24.7757   -0.4391 N   0  0  0  0  0  0  0  0  0  0  0  0
   15.9398   24.3260    0.5909 C   0  0  0  0  0  0  0  0  0  0  0  0
   14.6068   24.2720    0.5031 N   0  0  0  0  0  0  0  0  0  0  0  0
   14.0122   24.6771   -0.6379 C   0  0  0  0  0  0  0  0  0  0  0  0
   12.6957   24.7320   -1.0029 N   0  0  0  0  0  0  0  0  0  0  0  0
   12.6722   25.2147   -2.2467 C   0  0  0  0  0  0  0  0  0  0  0  0
   13.8999   25.4592   -2.6659 N   0  0  0  0  0  0  0  0  0  0  0  0
   14.7586   25.1338   -1.6842 C   0  0  0  0  0  0  0  0  0  0  0  0
   16.9254   25.1147   -3.5592 H   0  0  0  0  0  0  0  0  0  0  0  0
   17.3720   26.5685   -2.6262 H   0  0  0  0  0  0  0  0  0  0  0  0
   12.5787   21.2569    0.9155 C   0  0  0  0  0  0  0  0  0  0  0  0
   12.0563   20.0367    1.2935 O   0  0  0  0  0  0  0  0  0  0  0  0
   11.4619   20.1855    2.8693 P   0  0  0  0  0  0  0  0  0  0  0  0
   11.6836   18.7671    3.7509 O   0  0  0  0  0  0  0  0  0  0  0  0
   12.2305   21.3081    3.5386 O   0  0  0  0  0  0  0  0  0  0  0  0
   11.2588   18.0254    3.2360 H   0  0  0  0  0  0  0  0  0  0  0  0
    9.8286   20.5905    2.8887 O   0  0  0  0  0  0  0  0  0  0  0  0
    9.4823   21.8204    3.9677 P   0  0  0  0  0  0  0  0  0  0  0  0
    7.8105   21.7496    4.3144 O   0  0  0  0  0  0  0  0  0  0  0  0
   10.3432   21.6090    5.4251 O   0  0  0  0  0  0  0  0  0  0  0  0
    9.8191   23.1945    3.4160 O   0  0  0  0  0  0  0  0  0  0  0  0
    7.3945   20.9393    3.9362 H   0  0  0  0  0  0  0  0  0  0  0  0
    9.8895   22.1921    6.0885 H   0  0  0  0  0  0  0  0  0  0  0  0
 10 11  1  0  0  0
 11 12  2  0  0  0
 12 13  1  0  0  0
 13 14  2  0  0  0
 14 15  1  0  0  0
 15 16  1  0  0  0
 16 17  1  0  0  0
 17 18  2  0  0  0
 18 19  1  0  0  0
 16  1  1  0  0  0
  1  2  1  0  0  0
  2  3  1  0  0  0
  3 22  1  0  0  0
 22 23  1  0  0  0
 23 24  1  0  0  0
 24 25  1  0  0  0
 24 26  2  0  0  0
 24 28  1  0  0  0
 28 29  1  0  0  0
 29 30  1  0  0  0
 29 31  1  0  0  0
 29 32  2  0  0  0
  3  4  1  0  0  0
  4  5  1  0  0  0
  4  6  1  0  0  0
  6  7  1  0  0  0
 19 11  1  0  0  0
  6  1  1  0  0  0
 19 15  2  0  0  0
 10 20  1  0  0  0
 10 21  1  0  0  0
 25 27  1  0  0  0
 30 33  1  0  0  0
 31 34  1  0  0  0
  5  8  1  0  0  0
  7  9  1  0  0  0
M  END
> <minimizedAffinity>
-6.62903

> <CNNscore>
0.4621044099

> <CNNaffinity>
5.7470650673

> <CNN_VS>
2.6557440758

> <CNNaffinity_variance>
0.1626328528

$$$$
[H]O[C@@]1([H])[C@]([H])(n2c([H])nc3c(N([H])[H])nc([H])nc32)O[C@]([H])(C([H])([H])OP(=O)(O[H])OP(=O)(O[H])O[H])[C@]1([H])O[H]


 34 36  0  0  0  0  0  0  0  0999 V2000
   11.7002   24.0639    0.1270 C   0  0  0  0  0  0  0  0  0  0  0  0
   11.6195   23.3917    1.3268 O   0  0  0  0  0  0  0  0  0  0  0  0
   11.1282   22.1358    1.1204 C   0  0  0  0  0  0  0  0  0  0  0  0
   11.1264   21.8573   -0.3509 C   0  0  0  0  0  0  0  0  0  0  0  0
   12.4093   21.4864   -0.7809 O   0  0  0  0  0  0  0  0  0  0  0  0
   10.9166   23.2809   -0.8890 C   0  0  0  0  0  0  0  0  0  0  0  0
    9.5705   23.6117   -0.7732 O   0  0  0  0  0  0  0  0  0  0  0  0
   12.5529   20.5242   -0.7858 H   0  0  0  0  0  0  0  0  0  0  0  0
    9.3406   23.9870    0.0970 H   0  0  0  0  0  0  0  0  0  0  0  0
   17.1193   25.2423   -2.1644 N   0  0  0  0  0  0  0  0  0  0  0  0
   15.7200   25.2695   -2.3080 C   0  0  0  0  0  0  0  0  0  0  0  0
   15.0723   25.7311   -3.3697 N   0  0  0  0  0  0  0  0  0  0  0  0
   13.7318   25.7385   -3.4660 C   0  0  0  0  0  0  0  0  0  0  0  0
   12.9743   25.2687   -2.4695 N   0  0  0  0  0  0  0  0  0  0  0  0
   13.5781   24.7862   -1.3641 C   0  0  0  0  0  0  0  0  0  0  0  0
   13.0677   24.2533   -0.2129 N   0  0  0  0  0  0  0  0  0  0  0  0
   14.1159   23.9374    0.5499 C   0  0  0  0  0  0  0  0  0  0  0  0
   15.2410   24.2462   -0.0679 N   0  0  0  0  0  0  0  0  0  0  0  0
   14.9384   24.7780   -1.2648 C   0  0  0  0  0  0  0  0  0  0  0  0
   17.5850   25.8557   -1.4770 H   0  0  0  0  0  0  0  0  0  0  0  0
   17.6857   24.6070   -2.7476 H   0  0  0  0  0  0  0  0  0  0  0  0
   11.8986   21.1161    1.9228 C   0  0  0  0  0  0  0  0  0  0  0  0
   11.1260   20.0309    2.2836 O   0  0  0  0  0  0  0  0  0  0  0  0
   11.1732   19.8893    3.9677 P   0  0  0  0  0  0  0  0  0  0  0  0
   12.0118   18.5099    4.4496 O   0  0  0  0  0  0  0  0  0  0  0  0
   11.8876   21.1142    4.5048 O   0  0  0  0  0  0  0  0  0  0  0  0
   11.5861   17.7282    3.9985 H   0  0  0  0  0  0  0  0  0  0  0  0
    9.6302   19.8521    4.6383 O   0  0  0  0  0  0  0  0  0  0  0  0
    8.6839   21.1415    4.1497 P   0  0  0  0  0  0  0  0  0  0  0  0
    9.6136   22.5640    4.3306 O   0  0  0  0  0  0  0  0  0  0  0  0
    8.2502   20.9877    2.5072 O   0  0  0  0  0  0  0  0  0  0  0  0
    7.4088   21.2727    4.9639 O   0  0  0  0  0  0  0  0  0  0  0  0
   10.5528   22.3591    4.5511 H   0  0  0  0  0  0  0  0  0  0  0  0
    7.9432   21.8898    2.2280 H   0  0  0  0  0  0  0  0  0  0  0  0
 10 11  1  0  0  0
 11 12  2  0  0  0
 12 13  1  0  0  0
 13 14  2  0  0  0
 14 15  1  0  0  0
 15 16  1  0  0  0
 16 17  1  0  0  0
 17 18  2  0  0  0
 18 19  1  0  0  0
 16  1  1  0  0  0
  1  2  1  0  0  0
  2  3  1  0  0  0
  3 22  1  0  0  0
 22 23  1  0  0  0
 23 24  1  0  0  0
 24 25  1  0  0  0
 24 26  2  0  0  0
 24 28  1  0  0  0
 28 29  1  0  0  0
 29 30  1  0  0  0
 29 31  1  0  0  0
 29 32  2  0  0  0
  3  4  1  0  0  0
  4  5  1  0  0  0
  4  6  1  0  0  0
  6  7  1  0  0  0
 19 11  1  0  0  0
  6  1  1  0  0  0
 19 15  2  0  0  0
 10 20  1  0  0  0
 10 21  1  0  0  0
 25 27  1  0  0  0
 30 33  1  0  0  0
 31 34  1  0  0  0
  5  8  1  0  0  0
  7  9  1  0  0  0
M  END
> <minimizedAffinity>
-7.59441

> <CNNscore>
0.2864338160

> <CNNaffinity>
5.4983830452

> <CNN_VS>
1.5749228001

> <CNNaffinity_variance>
0.1295575500

$$$$
[H]O[C@@]1([H])[C@]([H])(n2c([H])nc3c(N([H])[H])nc([H])nc32)O[C@]([H])(C([H])([H])OP(=O)(O[H])OP(=O)(O[H])O[H])[C@]1([H])O[H]


 34 36  0  0  0  0  0  0  0  0999 V2000
   14.7495   23.7802   -1.4342 C   0  0  0  0  0  0  0  0  0  0  0  0
   13.7168   22.8884   -1.6240 O   0  0  0  0  0  0  0  0  0  0  0  0
   12.7525   23.0910   -0.6805 C   0  0  0  0  0  0  0  0  0  0  0  0
   13.0382   24.3785    0.0288 C   0  0  0  0  0  0  0  0  0  0  0  0
   12.5965   25.4680   -0.7368 O   0  0  0  0  0  0  0  0  0  0  0  0
   14.5705   24.4048   -0.0788 C   0  0  0  0  0  0  0  0  0  0  0  0
   15.1037   23.5542    0.8839 O   0  0  0  0  0  0  0  0  0  0  0  0
   11.6953   25.7584   -0.5131 H   0  0  0  0  0  0  0  0  0  0  0  0
   15.1731   22.6291    0.5832 H   0  0  0  0  0  0  0  0  0  0  0  0
   15.6760   28.0411   -5.5564 N   0  0  0  0  0  0  0  0  0  0  0  0
   16.1051   27.3808   -4.3905 C   0  0  0  0  0  0  0  0  0  0  0  0
   17.2087   27.6705   -3.7137 N   0  0  0  0  0  0  0  0  0  0  0  0
   17.5822   27.0133   -2.6025 C   0  0  0  0  0  0  0  0  0  0  0  0
   16.8379   26.0132   -2.1195 N   0  0  0  0  0  0  0  0  0  0  0  0
   15.7039   25.6739   -2.7664 C   0  0  0  0  0  0  0  0  0  0  0  0
   14.7663   24.7130   -2.5071 N   0  0  0  0  0  0  0  0  0  0  0  0
   13.8492   24.8156   -3.4708 C   0  0  0  0  0  0  0  0  0  0  0  0
   14.1707   25.7852   -4.3071 N   0  0  0  0  0  0  0  0  0  0  0  0
   15.3235   26.3399   -3.8942 C   0  0  0  0  0  0  0  0  0  0  0  0
   15.6839   27.5521   -6.4655 H   0  0  0  0  0  0  0  0  0  0  0  0
   15.3511   29.0190   -5.5058 H   0  0  0  0  0  0  0  0  0  0  0  0
   11.3755   23.0380   -1.2957 C   0  0  0  0  0  0  0  0  0  0  0  0
   11.0026   21.7581   -1.6527 O   0  0  0  0  0  0  0  0  0  0  0  0
    9.8566   21.2140   -0.5349 P   0  0  0  0  0  0  0  0  0  0  0  0
    8.4986   20.5764   -1.3013 O   0  0  0  0  0  0  0  0  0  0  0  0
   10.5130   20.1262    0.2927 O   0  0  0  0  0  0  0  0  0  0  0  0
    8.1474   21.2768   -1.9191 H   0  0  0  0  0  0  0  0  0  0  0  0
    9.3685   22.4391    0.5107 O   0  0  0  0  0  0  0  0  0  0  0  0
    7.8363   22.1846    1.1308 P   0  0  0  0  0  0  0  0  0  0  0  0
    7.7990   20.6075    1.7878 O   0  0  0  0  0  0  0  0  0  0  0  0
    7.4950   23.2955    2.3794 O   0  0  0  0  0  0  0  0  0  0  0  0
    6.7504   22.3113    0.0768 O   0  0  0  0  0  0  0  0  0  0  0  0
    8.6966   20.1993    1.8052 H   0  0  0  0  0  0  0  0  0  0  0  0
    6.7175   22.9165    2.8669 H   0  0  0  0  0  0  0  0  0  0  0  0
 10 11  1  0  0  0
 11 12  2  0  0  0
 12 13  1  0  0  0
 13 14  2  0  0  0
 14 15  1  0  0  0
 15 16  1  0  0  0
 16 17  1  0  0  0
 17 18  2  0  0  0
 18 19  1  0  0  0
 16  1  1  0  0  0
  1  2  1  0  0  0
  2  3  1  0  0  0
  3 22  1  0  0  0
 22 23  1  0  0  0
 23 24  1  0  0  0
 24 25  1  0  0  0
 24 26  2  0  0  0
 24 28  1  0  0  0
 28 29  1  0  0  0
 29 30  1  0  0  0
 29 31  1  0  0  0
 29 32  2  0  0  0
  3  4  1  0  0  0
  4  5  1  0  0  0
  4  6  1  0  0  0
  6  7  1  0  0  0
 19 11  1  0  0  0
  6  1  1  0  0  0
 19 15  2  0  0  0
 10 20  1  0  0  0
 10 21  1  0  0  0
 25 27  1  0  0  0
 30 33  1  0  0  0
 31 34  1  0  0  0
  5  8  1  0  0  0
  7  9  1  0  0  0
M  END
> <minimizedAffinity>
-7.61735

> <CNNscore>
0.2433712631

> <CNNaffinity>
5.3927278519

> <CNN_VS>
1.3124350309

> <CNNaffinity_variance>
0.1510580927

$$$$
[H]O[C@@]1([H])[C@]([H])(n2c([H])nc3c(N([H])[H])nc([H])nc32)O[C@]([H])(C([H])([H])OP(=O)(O[H])OP(=O)(O[H])O[H])[C@]1([H])O[H]


 34 36  0  0  0  0  0  0  0  0999 V2000
   14.8684   23.4699   -1.2186 C   0  0  0  0  0  0  0  0  0  0  0  0
   13.9778   22.4372   -1.0232 O   0  0  0  0  0  0  0  0  0  0  0  0
   12.8271   22.9180   -0.4701 C   0  0  0  0  0  0  0  0  0  0  0  0
   12.8488   24.4136   -0.5421 C   0  0  0  0  0  0  0  0  0  0  0  0
   12.4797   24.8478   -1.8241 O   0  0  0  0  0  0  0  0  0  0  0  0
   14.3625   24.6604   -0.4530 C   0  0  0  0  0  0  0  0  0  0  0  0
   14.7597   24.5447    0.8751 O   0  0  0  0  0  0  0  0  0  0  0  0
   11.5301   25.0413   -1.9089 H   0  0  0  0  0  0  0  0  0  0  0  0
   14.9693   23.6284    1.1349 H   0  0  0  0  0  0  0  0  0  0  0  0
   15.5981   25.3982   -6.8538 N   0  0  0  0  0  0  0  0  0  0  0  0
   15.5001   25.6974   -5.4826 C   0  0  0  0  0  0  0  0  0  0  0  0
   15.5774   26.9148   -4.9613 N   0  0  0  0  0  0  0  0  0  0  0  0
   15.4783   27.1566   -3.6430 C   0  0  0  0  0  0  0  0  0  0  0  0
   15.2930   26.1540   -2.7782 N   0  0  0  0  0  0  0  0  0  0  0  0
   15.2067   24.8936   -3.2509 C   0  0  0  0  0  0  0  0  0  0  0  0
   15.0227   23.6980   -2.6135 N   0  0  0  0  0  0  0  0  0  0  0  0
   15.0155   22.7636   -3.5659 C   0  0  0  0  0  0  0  0  0  0  0  0
   15.1846   23.3179   -4.7521 N   0  0  0  0  0  0  0  0  0  0  0  0
   15.3069   24.6466   -4.5885 C   0  0  0  0  0  0  0  0  0  0  0  0
   16.4178   24.8878   -7.2189 H   0  0  0  0  0  0  0  0  0  0  0  0
   14.8486   25.6890   -7.5003 H   0  0  0  0  0  0  0  0  0  0  0  0
   11.6149   22.3036   -1.1260 C   0  0  0  0  0  0  0  0  0  0  0  0
   11.4212   20.9880   -0.7567 O   0  0  0  0  0  0  0  0  0  0  0  0
   10.2463   20.9513    0.4586 P   0  0  0  0  0  0  0  0  0  0  0  0
    8.8963   20.0602   -0.0125 O   0  0  0  0  0  0  0  0  0  0  0  0
   10.8723   20.2943    1.6733 O   0  0  0  0  0  0  0  0  0  0  0  0
    8.5663   20.4483   -0.8705 H   0  0  0  0  0  0  0  0  0  0  0  0
    9.7522   22.4979    0.9012 O   0  0  0  0  0  0  0  0  0  0  0  0
    8.9107   22.5167    2.3463 P   0  0  0  0  0  0  0  0  0  0  0  0
    7.5367   23.5100    2.1325 O   0  0  0  0  0  0  0  0  0  0  0  0
    8.3817   20.9489    2.7608 O   0  0  0  0  0  0  0  0  0  0  0  0
    9.7401   23.0547    3.4990 O   0  0  0  0  0  0  0  0  0  0  0  0
    7.4197   23.7708    1.1886 H   0  0  0  0  0  0  0  0  0  0  0  0
    7.6793   21.0793    3.4503 H   0  0  0  0  0  0  0  0  0  0  0  0
 10 11  1  0  0  0
 11 12  2  0  0  0
 12 13  1  0  0  0
 13 14  2  0  0  0
 14 15  1  0  0  0
 15 16  1  0  0  0
 16 17  1  0  0  0
 17 18  2  0  0  0
 18 19  1  0  0  0
 16  1  1  0  0  0
  1  2  1  0  0  0
  2  3  1  0  0  0
  3 22  1  0  0  0
 22 23  1  0  0  0
 23 24  1  0  0  0
 24 25  1  0  0  0
 24 26  2  0  0  0
 24 28  1  0  0  0
 28 29  1  0  0  0
 29 30  1  0  0  0
 29 31  1  0  0  0
 29 32  2  0  0  0
  3  4  1  0  0  0
  4  5  1  0  0  0
  4  6  1  0  0  0
  6  7  1  0  0  0
 19 11  1  0  0  0
  6  1  1  0  0  0
 19 15  2  0  0  0
 10 20  1  0  0  0
 10 21  1  0  0  0
 25 27  1  0  0  0
 30 33  1  0  0  0
 31 34  1  0  0  0
  5  8  1  0  0  0
  7  9  1  0  0  0
M  END
> <minimizedAffinity>
-6.55821

> <CNNscore>
0.2244030386

> <CNNaffinity>
5.5230798721

> <CNN_VS>
1.2393958569

> <CNNaffinity_variance>
0.1447707266

$$$$
[H]O[C@@]1([H])[C@]([H])(n2c([H])nc3c(N([H])[H])nc([H])nc32)O[C@]([H])(C([H])([H])OP(=O)(O[H])OP(=O)(O[H])O[H])[C@]1([H])O[H]


 34 36  0  0  0  0  0  0  0  0999 V2000
   13.2966   21.7421   -1.2649 C   0  0  0  0  0  0  0  0  0  0  0  0
   12.3049   21.4154   -0.3662 O   0  0  0  0  0  0  0  0  0  0  0  0
   12.8419   21.2622    0.8786 C   0  0  0  0  0  0  0  0  0  0  0  0
   14.2474   21.7784    0.8615 C   0  0  0  0  0  0  0  0  0  0  0  0
   14.2569   23.1773    0.9686 O   0  0  0  0  0  0  0  0  0  0  0  0
   14.6194   21.4834   -0.5996 C   0  0  0  0  0  0  0  0  0  0  0  0
   14.9289   20.1328   -0.7210 O   0  0  0  0  0  0  0  0  0  0  0  0
   14.3470   23.4949    1.8838 H   0  0  0  0  0  0  0  0  0  0  0  0
   14.1476   19.5728   -0.8851 H   0  0  0  0  0  0  0  0  0  0  0  0
   13.3211   27.2388   -3.6714 N   0  0  0  0  0  0  0  0  0  0  0  0
   13.8953   25.9569   -3.5928 C   0  0  0  0  0  0  0  0  0  0  0  0
   14.9467   25.5492   -4.2916 N   0  0  0  0  0  0  0  0  0  0  0  0
   15.4641   24.3134   -4.1857 C   0  0  0  0  0  0  0  0  0  0  0  0
   14.9270   23.4188   -3.3500 N   0  0  0  0  0  0  0  0  0  0  0  0
   13.8554   23.7771   -2.6131 C   0  0  0  0  0  0  0  0  0  0  0  0
   13.1147   23.0848   -1.6957 N   0  0  0  0  0  0  0  0  0  0  0  0
   12.1673   23.9228   -1.2708 C   0  0  0  0  0  0  0  0  0  0  0  0
   12.2845   25.0905   -1.8753 N   0  0  0  0  0  0  0  0  0  0  0  0
   13.3291   25.0309   -2.7193 C   0  0  0  0  0  0  0  0  0  0  0  0
   12.3838   27.3660   -4.0850 H   0  0  0  0  0  0  0  0  0  0  0  0
   13.8368   28.0580   -3.3146 H   0  0  0  0  0  0  0  0  0  0  0  0
   11.9748   21.9183    1.9251 C   0  0  0  0  0  0  0  0  0  0  0  0
   10.6517   22.0023    1.5415 O   0  0  0  0  0  0  0  0  0  0  0  0
    9.6912   21.6687    2.8923 P   0  0  0  0  0  0  0  0  0  0  0  0
    8.1142   21.2759    2.4484 O   0  0  0  0  0  0  0  0  0  0  0  0
   10.3122   20.4848    3.6077 O   0  0  0  0  0  0  0  0  0  0  0  0
    7.7651   22.0255    1.8900 H   0  0  0  0  0  0  0  0  0  0  0  0
    9.6493   22.9621    3.9680 O   0  0  0  0  0  0  0  0  0  0  0  0
    9.1289   24.3803    3.2507 P   0  0  0  0  0  0  0  0  0  0  0  0
    9.1932   25.6126    4.4330 O   0  0  0  0  0  0  0  0  0  0  0  0
   10.1544   24.8193    1.9601 O   0  0  0  0  0  0  0  0  0  0  0  0
    7.7121   24.2784    2.7136 O   0  0  0  0  0  0  0  0  0  0  0  0
    9.6410   25.3042    5.2558 H   0  0  0  0  0  0  0  0  0  0  0  0
    9.9559   25.7747    1.7764 H   0  0  0  0  0  0  0  0  0  0  0  0
 10 11  1  0  0  0
 11 12  2  0  0  0
 12 13  1  0  0  0
 13 14  2  0  0  0
 14 15  1  0  0  0
 15 16  1  0  0  0
 16 17  1  0  0  0
 17 18  2  0  0  0
 18 19  1  0  0  0
 16  1  1  0  0  0
  1  2  1  0  0  0
  2  3  1  0  0  0
  3 22  1  0  0  0
 22 23  1  0  0  0
 23 24  1  0  0  0
 24 25  1  0  0  0
 24 26  2  0  0  0
 24 28  1  0  0  0
 28 29  1  0  0  0
 29 30  1  0  0  0
 29 31  1  0  0  0
 29 32  2  0  0  0
  3  4  1  0  0  0
  4  5  1  0  0  0
  4  6  1  0  0  0
  6  7  1  0  0  0
 19 11  1  0  0  0
  6  1  1  0  0  0
 19 15  2  0  0  0
 10 20  1  0  0  0
 10 21  1  0  0  0
 25 27  1  0  0  0
 30 33  1  0  0  0
 31 34  1  0  0  0
  5  8  1  0  0  0
  7  9  1  0  0  0
M  END
> <minimizedAffinity>
-7.18878

> <CNNscore>
0.2237463444

> <CNNaffinity>
5.3959069252

> <CNN_VS>
1.2073144913

> <CNNaffinity_variance>
0.1633909047

$$$$
[H]O[C@@]1([H])[C@]([H])(n2c([H])nc3c(N([H])[H])nc([H])nc32)O[C@]([H])(C([H])([H])OP(=O)(O[H])OP(=O)(O[H])O[H])[C@]1([H])O[H]


 34 36  0  0  0  0  0  0  0  0999 V2000
   14.4551   23.5457   -1.2518 C   0  0  0  0  0  0  0  0  0  0  0  0
   13.1975   22.9854   -1.2051 O   0  0  0  0  0  0  0  0  0  0  0  0
   12.5774   23.3386   -0.0423 C   0  0  0  0  0  0  0  0  0  0  0  0
   13.3732   24.4233    0.6153 C   0  0  0  0  0  0  0  0  0  0  0  0
   13.0927   25.6642    0.0237 O   0  0  0  0  0  0  0  0  0  0  0  0
   14.7811   24.0521    0.1255 C   0  0  0  0  0  0  0  0  0  0  0  0
   15.2603   22.9955    0.8928 O   0  0  0  0  0  0  0  0  0  0  0  0
   12.3886   26.1591    0.4773 H   0  0  0  0  0  0  0  0  0  0  0  0
   14.9927   22.1215    0.5529 H   0  0  0  0  0  0  0  0  0  0  0  0
   15.4996   27.9701   -5.1684 N   0  0  0  0  0  0  0  0  0  0  0  0
   15.9490   27.1866   -4.0898 C   0  0  0  0  0  0  0  0  0  0  0  0
   17.1307   27.3095   -3.4996 N   0  0  0  0  0  0  0  0  0  0  0  0
   17.5208   26.5388   -2.4700 C   0  0  0  0  0  0  0  0  0  0  0  0
   16.7134   25.5904   -1.9843 N   0  0  0  0  0  0  0  0  0  0  0  0
   15.4986   25.4192   -2.5450 C   0  0  0  0  0  0  0  0  0  0  0  0
   14.4852   24.5460   -2.2617 N   0  0  0  0  0  0  0  0  0  0  0  0
   13.5076   24.8132   -3.1296 C   0  0  0  0  0  0  0  0  0  0  0  0
   13.8634   25.8011   -3.9299 N   0  0  0  0  0  0  0  0  0  0  0  0
   15.1011   26.2006   -3.5899 C   0  0  0  0  0  0  0  0  0  0  0  0
   15.3769   27.5494   -6.1031 H   0  0  0  0  0  0  0  0  0  0  0  0
   15.2905   28.9705   -5.0277 H   0  0  0  0  0  0  0  0  0  0  0  0
   11.1381   23.7178   -0.2915 C   0  0  0  0  0  0  0  0  0  0  0  0
   10.2520   22.7555    0.1483 O   0  0  0  0  0  0  0  0  0  0  0  0
    9.8433   23.1109    1.7500 P   0  0  0  0  0  0  0  0  0  0  0  0
    8.2715   22.6232    2.1104 O   0  0  0  0  0  0  0  0  0  0  0  0
   10.8108   22.3573    2.6416 O   0  0  0  0  0  0  0  0  0  0  0  0
    7.6652   23.0507    1.4430 H   0  0  0  0  0  0  0  0  0  0  0  0
    9.9964   24.7524    2.0876 O   0  0  0  0  0  0  0  0  0  0  0  0
    9.0015   25.2490    3.3367 P   0  0  0  0  0  0  0  0  0  0  0  0
    9.0843   24.0653    4.5665 O   0  0  0  0  0  0  0  0  0  0  0  0
    9.5350   26.7345    3.9833 O   0  0  0  0  0  0  0  0  0  0  0  0
    7.5560   25.4157    2.9020 O   0  0  0  0  0  0  0  0  0  0  0  0
    9.7856   23.3971    4.3816 H   0  0  0  0  0  0  0  0  0  0  0  0
    9.0843   26.8180    4.8641 H   0  0  0  0  0  0  0  0  0  0  0  0
 10 11  1  0  0  0
 11 12  2  0  0  0
 12 13  1  0  0  0
 13 14  2  0  0  0
 14 15  1  0  0  0
 15 16  1  0  0  0
 16 17  1  0  0  0
 17 18  2  0  0  0
 18 19  1  0  0  0
 16  1  1  0  0  0
  1  2  1  0  0  0
  2  3  1  0  0  0
  3 22  1  0  0  0
 22 23  1  0  0  0
 23 24  1  0  0  0
 24 25  1  0  0  0
 24 26  2  0  0  0
 24 28  1  0  0  0
 28 29  1  0  0  0
 29 30  1  0  0  0
 29 31  1  0  0  0
 29 32  2  0  0  0
  3  4  1  0  0  0
  4  5  1  0  0  0
  4  6  1  0  0  0
  6  7  1  0  0  0
 19 11  1  0  0  0
  6  1  1  0  0  0
 19 15  2  0  0  0
 10 20  1  0  0  0
 10 21  1  0  0  0
 25 27  1  0  0  0
 30 33  1  0  0  0
 31 34  1  0  0  0
  5  8  1  0  0  0
  7  9  1  0  0  0
M  END
> <minimizedAffinity>
-6.92911

> <CNNscore>
0.1852213591

> <CNNaffinity>
5.2666158676

> <CNN_VS>
0.9754897356

> <CNNaffinity_variance>
0.1578193754

$$$$
[H]c1nc(N([H])c2c([H])c([H])c(N3C([H])([H])C([H])([H])C([H])(N4C([H])([H])C([H])([H])N(C([H])([H])[H])C([H])([H])C4([H])[H])C([H])([H])C3([H])[H])c([H])c2OC([H])([H])[H])nc(N([H])c2c([H])c([H])c([H])c([H])c2S(=O)(=O)C([H])(C([H])([H])[H])C([H])([H])[H])c1Cl


 44 48  0  0  0  0  0  0  0  0999 V2000
   13.4354   20.8916    2.1201 N   0  0  0  0  0  0  0  0  0  0  0  0
   14.2883   20.6989    2.7577 H   0  0  0  0  0  0  0  0  0  0  0  0
   13.7192   21.1172    0.7471 C   0  0  0  0  0  0  0  0  0  0  0  0
   13.7129   20.1979   -0.2214 N   0  0  0  0  0  0  0  0  0  0  0  0
   13.9896   20.4804   -1.5005 C   0  0  0  0  0  0  0  0  0  0  0  0
   14.2987   21.7696   -1.8659 C   0  0  0  0  0  0  0  0  0  0  0  0
   14.6652   22.1599   -3.5433 Cl  0  0  0  0  0  0  0  0  0  0  0  0
   14.3123   22.7597   -0.8617 C   0  0  0  0  0  0  0  0  0  0  0  0
   14.0226   22.3783    0.3839 N   0  0  0  0  0  0  0  0  0  0  0  0
   14.6288   24.0672   -1.2612 N   0  0  0  0  0  0  0  0  0  0  0  0
   15.5709   24.4267   -0.8950 H   0  0  0  0  0  0  0  0  0  0  0  0
   13.9349   24.9924   -2.0556 C   0  0  0  0  0  0  0  0  0  0  0  0
   12.5621   25.0861   -1.9660 C   0  0  0  0  0  0  0  0  0  0  0  0
   11.8546   26.0034   -2.7536 C   0  0  0  0  0  0  0  0  0  0  0  0
   12.5421   26.8060   -3.6137 C   0  0  0  0  0  0  0  0  0  0  0  0
   13.9126   26.7103   -3.7007 C   0  0  0  0  0  0  0  0  0  0  0  0
   14.6297   25.8223   -2.9424 C   0  0  0  0  0  0  0  0  0  0  0  0
   16.3369   25.7162   -3.0619 S   0  0  0  0  0  0  0  0  0  0  0  0
   16.7238   24.4415   -3.7687 O   0  0  0  0  0  0  0  0  0  0  0  0
   17.0618   25.7504   -1.7455 O   0  0  0  0  0  0  0  0  0  0  0  0
   17.0374   27.0375   -4.0324 C   0  0  0  0  0  0  0  0  0  0  0  0
   16.2684   27.2331   -5.2984 C   0  0  0  0  0  0  0  0  0  0  0  0
   17.3021   28.2776   -3.2455 C   0  0  0  0  0  0  0  0  0  0  0  0
   11.3074   21.9425    2.4932 C   0  0  0  0  0  0  0  0  0  0  0  0
   10.0620   22.0104    3.0905 C   0  0  0  0  0  0  0  0  0  0  0  0
    9.6288   21.0511    3.9785 C   0  0  0  0  0  0  0  0  0  0  0  0
   10.5027   20.0233    4.2375 C   0  0  0  0  0  0  0  0  0  0  0  0
   11.7685   19.9244    3.6514 C   0  0  0  0  0  0  0  0  0  0  0  0
   12.1947   20.8834    2.7673 C   0  0  0  0  0  0  0  0  0  0  0  0
    8.3349   21.1311    4.5826 N   0  0  0  0  0  0  0  0  0  0  0  0
    7.9983   20.1828    5.5883 C   0  0  0  0  0  0  0  0  0  0  0  0
    6.7969   20.5126    6.4289 C   0  0  0  0  0  0  0  0  0  0  0  0
    5.6381   21.0559    5.6626 C   0  0  0  0  0  0  0  0  0  0  0  0
    6.0151   21.5225    4.2708 C   0  0  0  0  0  0  0  0  0  0  0  0
    7.3725   22.1351    4.1968 C   0  0  0  0  0  0  0  0  0  0  0  0
    4.8537   22.0470    6.2839 N   0  0  0  0  0  0  0  0  0  0  0  0
    5.4829   23.1011    6.9638 C   0  0  0  0  0  0  0  0  0  0  0  0
    4.4667   23.8116    7.8624 C   0  0  0  0  0  0  0  0  0  0  0  0
    3.2512   23.9974    7.0940 N   0  0  0  0  0  0  0  0  0  0  0  0
    3.3555   24.9753    6.0585 C   0  0  0  0  0  0  0  0  0  0  0  0
    2.6230   22.7702    6.7245 C   0  0  0  0  0  0  0  0  0  0  0  0
    3.6268   21.6303    6.8835 C   0  0  0  0  0  0  0  0  0  0  0  0
   10.7821   23.9993    1.3570 C   0  0  0  0  0  0  0  0  0  0  0  0
   11.6799   22.9425    1.6084 O   0  0  0  0  0  0  0  0  0  0  0  0
 43 44  1  0  0  0
 44 24  1  0  0  0
 24 25  2  0  0  0
 25 26  1  0  0  0
 26 27  2  0  0  0
 27 28  1  0  0  0
 28 29  2  0  0  0
 29  1  1  0  0  0
  1  3  1  0  0  0
  3  4  2  0  0  0
  4  5  1  0  0  0
  5  6  2  0  0  0
  6  7  1  0  0  0
  6  8  1  0  0  0
  8 10  1  0  0  0
 10 12  1  0  0  0
 12 13  2  0  0  0
 13 14  1  0  0  0
 14 15  2  0  0  0
 15 16  1  0  0  0
 16 17  2  0  0  0
 17 18  1  0  0  0
 18 19  2  0  0  0
 18 20  2  0  0  0
 18 21  1  0  0  0
 21 22  1  0  0  0
 21 23  1  0  0  0
  8  9  2  0  0  0
 26 30  1  0  0  0
 30 31  1  0  0  0
 31 32  1  0  0  0
 32 33  1  0  0  0
 33 34  1  0  0  0
 34 35  1  0  0  0
 33 36  1  0  0  0
 36 37  1  0  0  0
 37 38  1  0  0  0
 38 39  1  0  0  0
 39 40  1  0  0  0
 39 41  1  0  0  0
 41 42  1  0  0  0
 29 24  1  0  0  0
  9  3  1  0  0  0
 35 30  1  0  0  0
 42 36  1  0  0  0
 17 12  1  0  0  0
  1  2  1  0  0  0
 10 11  1  0  0  0
M  END
> <minimizedAffinity>
-6.47257

> <CNNscore>
0.3537418842

> <CNNaffinity>
7.4805579185

> <CNN_VS>
2.6461865902

> <CNNaffinity_variance>
0.1527483612

$$$$
[H]c1nc(N([H])c2c([H])c([H])c(N3C([H])([H])C([H])([H])C([H])(N4C([H])([H])C([H])([H])N(C([H])([H])[H])C([H])([H])C4([H])[H])C([H])([H])C3([H])[H])c([H])c2OC([H])([H])[H])nc(N([H])c2c([H])c([H])c([H])c([H])c2S(=O)(=O)C([H])(C([H])([H])[H])C([H])([H])[H])c1Cl


 44 48  0  0  0  0  0  0  0  0999 V2000
   12.7695   21.6769    2.6112 N   0  0  0  0  0  0  0  0  0  0  0  0
   13.4841   22.0240    3.3461 H   0  0  0  0  0  0  0  0  0  0  0  0
   13.2352   21.6040    1.2717 C   0  0  0  0  0  0  0  0  0  0  0  0
   13.3053   20.5029    0.5195 N   0  0  0  0  0  0  0  0  0  0  0  0
   13.7550   20.5054   -0.7416 C   0  0  0  0  0  0  0  0  0  0  0  0
   14.1716   21.6824   -1.3179 C   0  0  0  0  0  0  0  0  0  0  0  0
   14.7659   21.7050   -2.9753 Cl  0  0  0  0  0  0  0  0  0  0  0  0
   14.1077   22.8600   -0.5446 C   0  0  0  0  0  0  0  0  0  0  0  0
   13.6445   22.7541    0.7024 N   0  0  0  0  0  0  0  0  0  0  0  0
   14.5369   24.0476   -1.1568 N   0  0  0  0  0  0  0  0  0  0  0  0
   15.5594   24.3042   -0.9579 H   0  0  0  0  0  0  0  0  0  0  0  0
   13.8697   24.9629   -1.9848 C   0  0  0  0  0  0  0  0  0  0  0  0
   12.4991   25.0919   -1.9068 C   0  0  0  0  0  0  0  0  0  0  0  0
   11.8180   25.9998   -2.7278 C   0  0  0  0  0  0  0  0  0  0  0  0
   12.5291   26.7578   -3.6089 C   0  0  0  0  0  0  0  0  0  0  0  0
   13.8974   26.6269   -3.6843 C   0  0  0  0  0  0  0  0  0  0  0  0
   14.5889   25.7470   -2.8934 C   0  0  0  0  0  0  0  0  0  0  0  0
   16.2937   25.5968   -2.9988 S   0  0  0  0  0  0  0  0  0  0  0  0
   16.6533   24.3106   -3.6993 O   0  0  0  0  0  0  0  0  0  0  0  0
   17.0087   25.6159   -1.6767 O   0  0  0  0  0  0  0  0  0  0  0  0
   17.0358   26.8968   -3.9670 C   0  0  0  0  0  0  0  0  0  0  0  0
   16.2416   27.1573   -5.2056 C   0  0  0  0  0  0  0  0  0  0  0  0
   17.3900   28.1059   -3.1672 C   0  0  0  0  0  0  0  0  0  0  0  0
   10.3989   22.0671    2.6048 C   0  0  0  0  0  0  0  0  0  0  0  0
    9.1141   21.8145    3.0495 C   0  0  0  0  0  0  0  0  0  0  0  0
    8.8514   20.8627    4.0094 C   0  0  0  0  0  0  0  0  0  0  0  0
    9.9368   20.1783    4.5000 C   0  0  0  0  0  0  0  0  0  0  0  0
   11.2482   20.4087    4.0728 C   0  0  0  0  0  0  0  0  0  0  0  0
   11.5037   21.3586    3.1160 C   0  0  0  0  0  0  0  0  0  0  0  0
    7.5162   20.6076    4.4539 N   0  0  0  0  0  0  0  0  0  0  0  0
    6.4394   20.9362    3.5840 C   0  0  0  0  0  0  0  0  0  0  0  0
    5.1053   20.3381    3.9323 C   0  0  0  0  0  0  0  0  0  0  0  0
    4.7737   20.3742    5.3862 C   0  0  0  0  0  0  0  0  0  0  0  0
    5.9795   20.6507    6.2618 C   0  0  0  0  0  0  0  0  0  0  0  0
    7.2385   20.0372    5.7503 C   0  0  0  0  0  0  0  0  0  0  0  0
    4.0585   19.2837    5.9182 N   0  0  0  0  0  0  0  0  0  0  0  0
    3.7949   18.1686    5.1080 C   0  0  0  0  0  0  0  0  0  0  0  0
    2.7029   17.3114    5.7542 C   0  0  0  0  0  0  0  0  0  0  0  0
    3.0124   17.1914    7.1657 N   0  0  0  0  0  0  0  0  0  0  0  0
    4.1421   16.3655    7.4504 C   0  0  0  0  0  0  0  0  0  0  0  0
    2.9652   18.4362    7.8624 C   0  0  0  0  0  0  0  0  0  0  0  0
    3.0146   19.5763    6.8473 C   0  0  0  0  0  0  0  0  0  0  0  0
   10.0555   24.3259    1.8449 C   0  0  0  0  0  0  0  0  0  0  0  0
   10.5919   23.0395    1.6359 O   0  0  0  0  0  0  0  0  0  0  0  0
 43 44  1  0  0  0
 44 24  1  0  0  0
 24 25  2  0  0  0
 25 26  1  0  0  0
 26 27  2  0  0  0
 27 28  1  0  0  0
 28 29  2  0  0  0
 29  1  1  0  0  0
  1  3  1  0  0  0
  3  4  2  0  0  0
  4  5  1  0  0  0
  5  6  2  0  0  0
  6  7  1  0  0  0
  6  8  1  0  0  0
  8 10  1  0  0  0
 10 12  1  0  0  0
 12 13  2  0  0  0
 13 14  1  0  0  0
 14 15  2  0  0  0
 15 16  1  0  0  0
 16 17  2  0  0  0
 17 18  1  0  0  0
 18 19  2  0  0  0
 18 20  2  0  0  0
 18 21  1  0  0  0
 21 22  1  0  0  0
 21 23  1  0  0  0
  8  9  2  0  0  0
 26 30  1  0  0  0
 30 31  1  0  0  0
 31 32  1  0  0  0
 32 33  1  0  0  0
 33 34  1  0  0  0
 34 35  1  0  0  0
 33 36  1  0  0  0
 36 37  1  0  0  0
 37 38  1  0  0  0
 38 39  1  0  0  0
 39 40  1  0  0  0
 39 41  1  0  0  0
 41 42  1  0  0  0
 29 24  1  0  0  0
  9  3  1  0  0  0
 35 30  1  0  0  0
 42 36  1  0  0  0
 17 12  1  0  0  0
  1  2  1  0  0  0
 10 11  1  0  0  0
M  END
> <minimizedAffinity>
-6.42633

> <CNNscore>
0.3220471144

> <CNNaffinity>
7.4033956528

> <CNN_VS>
2.3842422962

> <CNNaffinity_variance>
0.2318192273

$$$$
[H]c1nc(N([H])c2c([H])c([H])c(N3C([H])([H])C([H])([H])C([H])(N4C([H])([H])C([H])([H])N(C([H])([H])[H])C([H])([H])C4([H])[H])C([H])([H])C3([H])[H])c([H])c2OC([H])([H])[H])nc(N([H])c2c([H])c([H])c([H])c([H])c2S(=O)(=O)C([H])(C([H])([H])[H])C([H])([H])[H])c1Cl


 44 48  0  0  0  0  0  0  0  0999 V2000
    9.4155   22.4079    2.4558 N   0  0  0  0  0  0  0  0  0  0  0  0
    8.4522   22.8867    2.3374 H   0  0  0  0  0  0  0  0  0  0  0  0
    9.5041   21.4248    3.4767 C   0  0  0  0  0  0  0  0  0  0  0  0
   10.5617   20.6529    3.7390 N   0  0  0  0  0  0  0  0  0  0  0  0
   10.5783   19.7434    4.7214 C   0  0  0  0  0  0  0  0  0  0  0  0
    9.4687   19.5725    5.5155 C   0  0  0  0  0  0  0  0  0  0  0  0
    9.4722   18.3814    6.8123 Cl  0  0  0  0  0  0  0  0  0  0  0  0
    8.3381   20.3756    5.2592 C   0  0  0  0  0  0  0  0  0  0  0  0
    8.4200   21.2534    4.2573 N   0  0  0  0  0  0  0  0  0  0  0  0
    7.2200   20.1828    6.0849 N   0  0  0  0  0  0  0  0  0  0  0  0
    7.4205   20.2860    7.1338 H   0  0  0  0  0  0  0  0  0  0  0  0
    5.8830   19.8791    5.7870 C   0  0  0  0  0  0  0  0  0  0  0  0
    5.5708   18.7039    5.1369 C   0  0  0  0  0  0  0  0  0  0  0  0
    4.2411   18.3870    4.8307 C   0  0  0  0  0  0  0  0  0  0  0  0
    3.2547   19.2581    5.1843 C   0  0  0  0  0  0  0  0  0  0  0  0
    3.5695   20.4305    5.8334 C   0  0  0  0  0  0  0  0  0  0  0  0
    4.8612   20.7654    6.1453 C   0  0  0  0  0  0  0  0  0  0  0  0
    5.2366   22.2294    6.9552 S   0  0  0  0  0  0  0  0  0  0  0  0
    6.4284   22.0262    7.8567 O   0  0  0  0  0  0  0  0  0  0  0  0
    4.1189   22.7897    7.7897 O   0  0  0  0  0  0  0  0  0  0  0  0
    5.6992   23.5332    5.8309 C   0  0  0  0  0  0  0  0  0  0  0  0
    6.7613   24.3984    6.4276 C   0  0  0  0  0  0  0  0  0  0  0  0
    5.9677   23.0545    4.4432 C   0  0  0  0  0  0  0  0  0  0  0  0
   10.6797   22.0498    0.4444 C   0  0  0  0  0  0  0  0  0  0  0  0
   11.6468   22.4105   -0.4759 C   0  0  0  0  0  0  0  0  0  0  0  0
   12.3911   23.5605   -0.3347 C   0  0  0  0  0  0  0  0  0  0  0  0
   12.1190   24.3290    0.7710 C   0  0  0  0  0  0  0  0  0  0  0  0
   11.1487   23.9935    1.7205 C   0  0  0  0  0  0  0  0  0  0  0  0
   10.4102   22.8462    1.5744 C   0  0  0  0  0  0  0  0  0  0  0  0
   13.3828   23.9241   -1.2989 N   0  0  0  0  0  0  0  0  0  0  0  0
   14.1169   22.8866   -1.9383 C   0  0  0  0  0  0  0  0  0  0  0  0
   14.8781   23.2824   -3.1723 C   0  0  0  0  0  0  0  0  0  0  0  0
   15.5951   24.5859   -3.0632 C   0  0  0  0  0  0  0  0  0  0  0  0
   15.1188   25.4279   -1.8964 C   0  0  0  0  0  0  0  0  0  0  0  0
   13.6571   25.3018   -1.6303 C   0  0  0  0  0  0  0  0  0  0  0  0
   15.6602   25.3918   -4.2164 N   0  0  0  0  0  0  0  0  0  0  0  0
   15.5027   24.8034   -5.4806 C   0  0  0  0  0  0  0  0  0  0  0  0
   15.9893   25.7723   -6.5620 C   0  0  0  0  0  0  0  0  0  0  0  0
   15.4659   27.0870   -6.2454 N   0  0  0  0  0  0  0  0  0  0  0  0
   14.0580   27.2210   -6.4429 C   0  0  0  0  0  0  0  0  0  0  0  0
   15.9717   27.6166   -5.0203 C   0  0  0  0  0  0  0  0  0  0  0  0
   16.5833   26.4809   -4.2026 C   0  0  0  0  0  0  0  0  0  0  0  0
   10.6645   19.7123   -0.1331 C   0  0  0  0  0  0  0  0  0  0  0  0
    9.9669   20.8784    0.2408 O   0  0  0  0  0  0  0  0  0  0  0  0
 43 44  1  0  0  0
 44 24  1  0  0  0
 24 25  2  0  0  0
 25 26  1  0  0  0
 26 27  2  0  0  0
 27 28  1  0  0  0
 28 29  2  0  0  0
 29  1  1  0  0  0
  1  3  1  0  0  0
  3  4  2  0  0  0
  4  5  1  0  0  0
  5  6  2  0  0  0
  6  7  1  0  0  0
  6  8  1  0  0  0
  8 10  1  0  0  0
 10 12  1  0  0  0
 12 13  2  0  0  0
 13 14  1  0  0  0
 14 15  2  0  0  0
 15 16  1  0  0  0
 16 17  2  0  0  0
 17 18  1  0  0  0
 18 19  2  0  0  0
 18 20  2  0  0  0
 18 21  1  0  0  0
 21 22  1  0  0  0
 21 23  1  0  0  0
  8  9  2  0  0  0
 26 30  1  0  0  0
 30 31  1  0  0  0
 31 32  1  0  0  0
 32 33  1  0  0  0
 33 34  1  0  0  0
 34 35  1  0  0  0
 33 36  1  0  0  0
 36 37  1  0  0  0
 37 38  1  0  0  0
 38 39  1  0  0  0
 39 40  1  0  0  0
 39 41  1  0  0  0
 41 42  1  0  0  0
 29 24  1  0  0  0
  9  3  1  0  0  0
 35 30  1  0  0  0
 42 36  1  0  0  0
 17 12  1  0  0  0
  1  2  1  0  0  0
 10 11  1  0  0  0
M  END
> <minimizedAffinity>
-4.66634

> <CNNscore>
0.0597511753

> <CNNaffinity>
7.0671525002

> <CNN_VS>
0.4222706556

> <CNNaffinity_variance>
0.5603854060

$$$$
[H]c1nc(N([H])c2c([H])c([H])c(N3C([H])([H])C([H])([H])C([H])(N4C([H])([H])C([H])([H])N(C([H])([H])[H])C([H])([H])C4([H])[H])C([H])([H])C3([H])[H])c([H])c2OC([H])([H])[H])nc(N([H])c2c([H])c([H])c([H])c([H])c2S(=O)(=O)C([H])(C([H])([H])[H])C([H])([H])[H])c1Cl


 44 48  0  0  0  0  0  0  0  0999 V2000
    9.6177   21.1955    4.3617 N   0  0  0  0  0  0  0  0  0  0  0  0
   10.1730   20.5591    5.0384 H   0  0  0  0  0  0  0  0  0  0  0  0
    8.2417   21.3776    4.6618 C   0  0  0  0  0  0  0  0  0  0  0  0
    7.6831   22.4814    5.1645 N   0  0  0  0  0  0  0  0  0  0  0  0
    6.3737   22.5864    5.4233 C   0  0  0  0  0  0  0  0  0  0  0  0
    5.5381   21.5240    5.1700 C   0  0  0  0  0  0  0  0  0  0  0  0
    3.8133   21.6438    5.5037 Cl  0  0  0  0  0  0  0  0  0  0  0  0
    6.1032   20.3461    4.6388 C   0  0  0  0  0  0  0  0  0  0  0  0
    7.4189   20.3400    4.4156 N   0  0  0  0  0  0  0  0  0  0  0  0
    5.2286   19.2777    4.3877 N   0  0  0  0  0  0  0  0  0  0  0  0
    4.3110   19.3164    4.9422 H   0  0  0  0  0  0  0  0  0  0  0  0
    5.3365   18.1649    3.5401 C   0  0  0  0  0  0  0  0  0  0  0  0
    5.2017   18.3204    2.1767 C   0  0  0  0  0  0  0  0  0  0  0  0
    5.3050   17.2190    1.3172 C   0  0  0  0  0  0  0  0  0  0  0  0
    5.5413   15.9859    1.8469 C   0  0  0  0  0  0  0  0  0  0  0  0
    5.6756   15.8339    3.2084 C   0  0  0  0  0  0  0  0  0  0  0  0
    5.5793   16.8936    4.0719 C   0  0  0  0  0  0  0  0  0  0  0  0
    5.7502   16.6876    5.7656 S   0  0  0  0  0  0  0  0  0  0  0  0
    5.7636   15.2183    6.1052 O   0  0  0  0  0  0  0  0  0  0  0  0
    4.6752   17.3402    6.5891 O   0  0  0  0  0  0  0  0  0  0  0  0
    7.2913   17.3389    6.3812 C   0  0  0  0  0  0  0  0  0  0  0  0
    7.0657   18.1838    7.5928 C   0  0  0  0  0  0  0  0  0  0  0  0
    8.3634   16.3088    6.5092 C   0  0  0  0  0  0  0  0  0  0  0  0
   11.6639   21.2349    3.1034 C   0  0  0  0  0  0  0  0  0  0  0  0
   12.4648   21.7092    2.0808 C   0  0  0  0  0  0  0  0  0  0  0  0
   12.0308   22.6845    1.2107 C   0  0  0  0  0  0  0  0  0  0  0  0
   10.7581   23.1593    1.4155 C   0  0  0  0  0  0  0  0  0  0  0  0
    9.9225   22.7022    2.4393 C   0  0  0  0  0  0  0  0  0  0  0  0
   10.3606   21.7302    3.3032 C   0  0  0  0  0  0  0  0  0  0  0  0
   12.8681   23.1597    0.1531 N   0  0  0  0  0  0  0  0  0  0  0  0
   13.2299   22.2534   -0.8823 C   0  0  0  0  0  0  0  0  0  0  0  0
   13.8002   22.8706   -2.1283 C   0  0  0  0  0  0  0  0  0  0  0  0
   14.7805   23.9673   -1.8804 C   0  0  0  0  0  0  0  0  0  0  0  0
   14.7282   24.4989   -0.4621 C   0  0  0  0  0  0  0  0  0  0  0  0
   13.3534   24.5184    0.1148 C   0  0  0  0  0  0  0  0  0  0  0  0
   14.7852   25.0519   -2.7789 N   0  0  0  0  0  0  0  0  0  0  0  0
   15.9926   25.7075   -3.0648 C   0  0  0  0  0  0  0  0  0  0  0  0
   15.7000   27.0535   -3.7337 C   0  0  0  0  0  0  0  0  0  0  0  0
   14.6771   26.8349   -4.7378 N   0  0  0  0  0  0  0  0  0  0  0  0
   15.1250   26.1092   -5.8833 C   0  0  0  0  0  0  0  0  0  0  0  0
   13.4277   26.4156   -4.1898 C   0  0  0  0  0  0  0  0  0  0  0  0
   13.6520   25.9202   -2.7626 C   0  0  0  0  0  0  0  0  0  0  0  0
   11.8211   18.9071    3.6985 C   0  0  0  0  0  0  0  0  0  0  0  0
   12.1641   20.2519    3.9432 O   0  0  0  0  0  0  0  0  0  0  0  0
 43 44  1  0  0  0
 44 24  1  0  0  0
 24 25  2  0  0  0
 25 26  1  0  0  0
 26 27  2  0  0  0
 27 28  1  0  0  0
 28 29  2  0  0  0
 29  1  1  0  0  0
  1  3  1  0  0  0
  3  4  2  0  0  0
  4  5  1  0  0  0
  5  6  2  0  0  0
  6  7  1  0  0  0
  6  8  1  0  0  0
  8 10  1  0  0  0
 10 12  1  0  0  0
 12 13  2  0  0  0
 13 14  1  0  0  0
 14 15  2  0  0  0
 15 16  1  0  0  0
 16 17  2  0  0  0
 17 18  1  0  0  0
 18 19  2  0  0  0
 18 20  2  0  0  0
 18 21  1  0  0  0
 21 22  1  0  0  0
 21 23  1  0  0  0
  8  9  2  0  0  0
 26 30  1  0  0  0
 30 31  1  0  0  0
 31 32  1  0  0  0
 32 33  1  0  0  0
 33 34  1  0  0  0
 34 35  1  0  0  0
 33 36  1  0  0  0
 36 37  1  0  0  0
 37 38  1  0  0  0
 38 39  1  0  0  0
 39 40  1  0  0  0
 39 41  1  0  0  0
 41 42  1  0  0  0
 29 24  1  0  0  0
  9  3  1  0  0  0
 35 30  1  0  0  0
 42 36  1  0  0  0
 17 12  1  0  0  0
  1  2  1  0  0  0
 10 11  1  0  0  0
M  END
> <minimizedAffinity>
-7.96662

> <CNNscore>
0.0393499434

> <CNNaffinity>
6.8073768616

> <CNN_VS>
0.2678698897

> <CNNaffinity_variance>
0.2320326269

$$$$
[H]c1nc(N([H])c2c([H])c([H])c(N3C([H])([H])C([H])([H])C([H])(N4C([H])([H])C([H])([H])N(C([H])([H])[H])C([H])([H])C4([H])[H])C([H])([H])C3([H])[H])c([H])c2OC([H])([H])[H])nc(N([H])c2c([H])c([H])c([H])c([H])c2S(=O)(=O)C([H])(C([H])([H])[H])C([H])([H])[H])c1Cl


 44 48  0  0  0  0  0  0  0  0999 V2000
    6.8785   24.0759    3.4983 N   0  0  0  0  0  0  0  0  0  0  0  0
    6.0986   24.7657    3.2030 H   0  0  0  0  0  0  0  0  0  0  0  0
    6.5786   23.2251    4.5950 C   0  0  0  0  0  0  0  0  0  0  0  0
    6.4887   23.5911    5.8760 N   0  0  0  0  0  0  0  0  0  0  0  0
    6.1999   22.7343    6.8635 C   0  0  0  0  0  0  0  0  0  0  0  0
    5.9800   21.4075    6.5766 C   0  0  0  0  0  0  0  0  0  0  0  0
    5.5987   20.2662    7.8622 Cl  0  0  0  0  0  0  0  0  0  0  0  0
    6.0690   20.9950    5.2310 C   0  0  0  0  0  0  0  0  0  0  0  0
    6.3623   21.9245    4.3195 N   0  0  0  0  0  0  0  0  0  0  0  0
    5.8383   19.6365    4.9652 N   0  0  0  0  0  0  0  0  0  0  0  0
    6.5425   18.9694    5.4235 H   0  0  0  0  0  0  0  0  0  0  0  0
    4.8505   18.9902    4.2068 C   0  0  0  0  0  0  0  0  0  0  0  0
    4.3383   19.5976    3.0798 C   0  0  0  0  0  0  0  0  0  0  0  0
    3.3505   18.9662    2.3131 C   0  0  0  0  0  0  0  0  0  0  0  0
    2.8992   17.7388    2.6958 C   0  0  0  0  0  0  0  0  0  0  0  0
    3.4126   17.1349    3.8212 C   0  0  0  0  0  0  0  0  0  0  0  0
    4.3792   17.7295    4.5894 C   0  0  0  0  0  0  0  0  0  0  0  0
    5.0092   16.9633    5.9881 S   0  0  0  0  0  0  0  0  0  0  0  0
    3.9735   16.0391    6.5775 O   0  0  0  0  0  0  0  0  0  0  0  0
    5.4562   17.9041    7.0718 O   0  0  0  0  0  0  0  0  0  0  0  0
    6.4218   15.9373    5.6275 C   0  0  0  0  0  0  0  0  0  0  0  0
    6.4287   15.5272    4.1907 C   0  0  0  0  0  0  0  0  0  0  0  0
    7.7077   16.4939    6.1409 C   0  0  0  0  0  0  0  0  0  0  0  0
    8.1482   23.3174    1.6050 C   0  0  0  0  0  0  0  0  0  0  0  0
    9.2739   23.3246    0.8020 C   0  0  0  0  0  0  0  0  0  0  0  0
   10.3527   24.1374    1.0704 C   0  0  0  0  0  0  0  0  0  0  0  0
   10.2478   24.9405    2.1799 C   0  0  0  0  0  0  0  0  0  0  0  0
    9.1246   24.9578    3.0129 C   0  0  0  0  0  0  0  0  0  0  0  0
    8.0528   24.1455    2.7404 C   0  0  0  0  0  0  0  0  0  0  0  0
   11.5072   24.1390    0.2262 N   0  0  0  0  0  0  0  0  0  0  0  0
   11.8432   22.9402   -0.4625 C   0  0  0  0  0  0  0  0  0  0  0  0
   12.8293   23.0814   -1.5879 C   0  0  0  0  0  0  0  0  0  0  0  0
   13.9817   23.9802   -1.2892 C   0  0  0  0  0  0  0  0  0  0  0  0
   13.7469   24.8619   -0.0790 C   0  0  0  0  0  0  0  0  0  0  0  0
   12.3324   25.3118    0.0629 C   0  0  0  0  0  0  0  0  0  0  0  0
   14.4828   24.7686   -2.3432 N   0  0  0  0  0  0  0  0  0  0  0  0
   15.8684   24.9490   -2.4732 C   0  0  0  0  0  0  0  0  0  0  0  0
   16.1471   26.1220   -3.4173 C   0  0  0  0  0  0  0  0  0  0  0  0
   15.2697   25.9847   -4.5636 N   0  0  0  0  0  0  0  0  0  0  0  0
   15.6111   24.9085   -5.4380 C   0  0  0  0  0  0  0  0  0  0  0  0
   13.8859   26.0975   -4.2329 C   0  0  0  0  0  0  0  0  0  0  0  0
   13.7180   25.9118   -2.7263 C   0  0  0  0  0  0  0  0  0  0  0  0
    7.2565   21.5743    0.2036 C   0  0  0  0  0  0  0  0  0  0  0  0
    7.0981   22.4741    1.2766 O   0  0  0  0  0  0  0  0  0  0  0  0
 43 44  1  0  0  0
 44 24  1  0  0  0
 24 25  2  0  0  0
 25 26  1  0  0  0
 26 27  2  0  0  0
 27 28  1  0  0  0
 28 29  2  0  0  0
 29  1  1  0  0  0
  1  3  1  0  0  0
  3  4  2  0  0  0
  4  5  1  0  0  0
  5  6  2  0  0  0
  6  7  1  0  0  0
  6  8  1  0  0  0
  8 10  1  0  0  0
 10 12  1  0  0  0
 12 13  2  0  0  0
 13 14  1  0  0  0
 14 15  2  0  0  0
 15 16  1  0  0  0
 16 17  2  0  0  0
 17 18  1  0  0  0
 18 19  2  0  0  0
 18 20  2  0  0  0
 18 21  1  0  0  0
 21 22  1  0  0  0
 21 23  1  0  0  0
  8  9  2  0  0  0
 26 30  1  0  0  0
 30 31  1  0  0  0
 31 32  1  0  0  0
 32 33  1  0  0  0
 33 34  1  0  0  0
 34 35  1  0  0  0
 33 36  1  0  0  0
 36 37  1  0  0  0
 37 38  1  0  0  0
 38 39  1  0  0  0
 39 40  1  0  0  0
 39 41  1  0  0  0
 41 42  1  0  0  0
 29 24  1  0  0  0
  9  3  1  0  0  0
 35 30  1  0  0  0
 42 36  1  0  0  0
 17 12  1  0  0  0
  1  2  1  0  0  0
 10 11  1  0  0  0
M  END
> <minimizedAffinity>
-7.14249

> <CNNscore>
0.0390716605

> <CNNaffinity>
6.8881554604

> <CNN_VS>
0.2691316605

> <CNNaffinity_variance>
0.2080488950

$$$$
[H]c1nc(N([H])c2c([H])c([H])c(N3C([H])([H])C([H])([H])C([H])(N4C([H])([H])C([H])([H])N(C([H])([H])[H])C([H])([H])C4([H])[H])C([H])([H])C3([H])[H])c([H])c2OC([H])([H])[H])nc(N([H])c2c([H])c([H])c([H])c([H])c2S(=O)(=O)C([H])(C([H])([H])[H])C([H])([H])[H])c1Cl


 44 48  0  0  0  0  0  0  0  0999 V2000
    7.8242   21.5585    3.8031 N   0  0  0  0  0  0  0  0  0  0  0  0
    6.8151   21.9484    3.8333 H   0  0  0  0  0  0  0  0  0  0  0  0
    8.1206   20.5186    4.7236 C   0  0  0  0  0  0  0  0  0  0  0  0
    9.1543   20.4836    5.5684 N   0  0  0  0  0  0  0  0  0  0  0  0
    9.3745   19.4690    6.4137 C   0  0  0  0  0  0  0  0  0  0  0  0
    8.5130   18.3974    6.4369 C   0  0  0  0  0  0  0  0  0  0  0  0
    8.7866   17.0541    7.5421 Cl  0  0  0  0  0  0  0  0  0  0  0  0
    7.4131   18.4098    5.5544 C   0  0  0  0  0  0  0  0  0  0  0  0
    7.2799   19.4666    4.7504 N   0  0  0  0  0  0  0  0  0  0  0  0
    6.5483   17.3055    5.5994 N   0  0  0  0  0  0  0  0  0  0  0  0
    6.9733   16.3943    5.2251 H   0  0  0  0  0  0  0  0  0  0  0  0
    5.2249   17.1762    6.0468 C   0  0  0  0  0  0  0  0  0  0  0  0
    4.9545   17.1331    7.3982 C   0  0  0  0  0  0  0  0  0  0  0  0
    3.6388   17.0024    7.8609 C   0  0  0  0  0  0  0  0  0  0  0  0
    2.6240   16.9179    6.9555 C   0  0  0  0  0  0  0  0  0  0  0  0
    2.8971   16.9614    5.6069 C   0  0  0  0  0  0  0  0  0  0  0  0
    4.1743   17.0888    5.1268 C   0  0  0  0  0  0  0  0  0  0  0  0
    4.4975   17.1426    3.4437 S   0  0  0  0  0  0  0  0  0  0  0  0
    3.4809   16.3141    2.6991 O   0  0  0  0  0  0  0  0  0  0  0  0
    5.8643   16.6556    3.0510 O   0  0  0  0  0  0  0  0  0  0  0  0
    4.3615   18.7892    2.7740 C   0  0  0  0  0  0  0  0  0  0  0  0
    3.4195   18.8158    1.6145 C   0  0  0  0  0  0  0  0  0  0  0  0
    4.1295   19.8360    3.8119 C   0  0  0  0  0  0  0  0  0  0  0  0
    9.4097   23.2786    3.2556 C   0  0  0  0  0  0  0  0  0  0  0  0
   10.2627   23.9255    2.3803 C   0  0  0  0  0  0  0  0  0  0  0  0
   10.4252   23.5040    1.0793 C   0  0  0  0  0  0  0  0  0  0  0  0
    9.6929   22.4054    0.7001 C   0  0  0  0  0  0  0  0  0  0  0  0
    8.8216   21.7283    1.5592 C   0  0  0  0  0  0  0  0  0  0  0  0
    8.6638   22.1530    2.8545 C   0  0  0  0  0  0  0  0  0  0  0  0
   11.3169   24.1790    0.1879 N   0  0  0  0  0  0  0  0  0  0  0  0
   12.0257   25.3140    0.6712 C   0  0  0  0  0  0  0  0  0  0  0  0
   13.1906   25.7675   -0.1632 C   0  0  0  0  0  0  0  0  0  0  0  0
   12.9354   25.7634   -1.6328 C   0  0  0  0  0  0  0  0  0  0  0  0
   11.7115   24.9572   -2.0191 C   0  0  0  0  0  0  0  0  0  0  0  0
   11.5080   23.7449   -1.1752 C   0  0  0  0  0  0  0  0  0  0  0  0
   14.0050   25.4107   -2.4785 N   0  0  0  0  0  0  0  0  0  0  0  0
   15.1387   24.7869   -1.9356 C   0  0  0  0  0  0  0  0  0  0  0  0
   16.2926   24.8550   -2.9400 C   0  0  0  0  0  0  0  0  0  0  0  0
   15.7638   24.5078   -4.2448 N   0  0  0  0  0  0  0  0  0  0  0  0
   15.4216   23.1292   -4.3912 C   0  0  0  0  0  0  0  0  0  0  0  0
   14.7972   25.4397   -4.7290 C   0  0  0  0  0  0  0  0  0  0  0  0
   14.3000   26.2914   -3.5629 C   0  0  0  0  0  0  0  0  0  0  0  0
    8.4616   24.8666    4.7972 C   0  0  0  0  0  0  0  0  0  0  0  0
    9.2938   23.7561    4.5518 O   0  0  0  0  0  0  0  0  0  0  0  0
 43 44  1  0  0  0
 44 24  1  0  0  0
 24 25  2  0  0  0
 25 26  1  0  0  0
 26 27  2  0  0  0
 27 28  1  0  0  0
 28 29  2  0  0  0
 29  1  1  0  0  0
  1  3  1  0  0  0
  3  4  2  0  0  0
  4  5  1  0  0  0
  5  6  2  0  0  0
  6  7  1  0  0  0
  6  8  1  0  0  0
  8 10  1  0  0  0
 10 12  1  0  0  0
 12 13  2  0  0  0
 13 14  1  0  0  0
 14 15  2  0  0  0
 15 16  1  0  0  0
 16 17  2  0  0  0
 17 18  1  0  0  0
 18 19  2  0  0  0
 18 20  2  0  0  0
 18 21  1  0  0  0
 21 22  1  0  0  0
 21 23  1  0  0  0
  8  9  2  0  0  0
 26 30  1  0  0  0
 30 31  1  0  0  0
 31 32  1  0  0  0
 32 33  1  0  0  0
 33 34  1  0  0  0
 34 35  1  0  0  0
 33 36  1  0  0  0
 36 37  1  0  0  0
 37 38  1  0  0  0
 38 39  1  0  0  0
 39 40  1  0  0  0
 39 41  1  0  0  0
 41 42  1  0  0  0
 29 24  1  0  0  0
  9  3  1  0  0  0
 35 30  1  0  0  0
 42 36  1  0  0  0
 17 12  1  0  0  0
  1  2  1  0  0  0
 10 11  1  0  0  0
M  END
> <minimizedAffinity>
-6.42750

> <CNNscore>
0.0320521556

> <CNNaffinity>
6.8377714157

> <CNN_VS>
0.2191653103

> <CNNaffinity_variance>
0.2589842081

$$$$
[H]c1nc(N([H])c2c([H])c([H])c(N3C([H])([H])C([H])([H])C([H])(N4C([H])([H])C([H])([H])N(C([H])([H])[H])C([H])([H])C4([H])[H])C([H])([H])C3([H])[H])c([H])c2OC([H])([H])[H])nc(N([H])c2c([H])c([H])c([H])c([H])c2S(=O)(=O)C([H])(C([H])([H])[H])C([H])([H])[H])c1Cl


 44 48  0  0  0  0  0  0  0  0999 V2000
    6.8848   22.6394    2.5722 N   0  0  0  0  0  0  0  0  0  0  0  0
    6.0689   22.9036    1.9120 H   0  0  0  0  0  0  0  0  0  0  0  0
    6.5196   22.1870    3.8678 C   0  0  0  0  0  0  0  0  0  0  0  0
    6.5131   22.9173    4.9857 N   0  0  0  0  0  0  0  0  0  0  0  0
    6.1548   22.4263    6.1786 C   0  0  0  0  0  0  0  0  0  0  0  0
    5.7700   21.1107    6.2903 C   0  0  0  0  0  0  0  0  0  0  0  0
    5.2954   20.4476    7.8509 Cl  0  0  0  0  0  0  0  0  0  0  0  0
    5.7682   20.3177    5.1242 C   0  0  0  0  0  0  0  0  0  0  0  0
    6.1419   20.8993    3.9827 N   0  0  0  0  0  0  0  0  0  0  0  0
    5.3696   18.9795    5.2651 N   0  0  0  0  0  0  0  0  0  0  0  0
    4.9062   18.7518    6.2056 H   0  0  0  0  0  0  0  0  0  0  0  0
    5.4670   17.8820    4.3966 C   0  0  0  0  0  0  0  0  0  0  0  0
    5.3369   18.0651    3.0361 C   0  0  0  0  0  0  0  0  0  0  0  0
    5.4298   16.9793    2.1559 C   0  0  0  0  0  0  0  0  0  0  0  0
    5.6512   15.7338    2.6623 C   0  0  0  0  0  0  0  0  0  0  0  0
    5.7809   15.5542    4.0209 C   0  0  0  0  0  0  0  0  0  0  0  0
    5.6945   16.5982    4.9044 C   0  0  0  0  0  0  0  0  0  0  0  0
    5.8594   16.3578    6.5941 S   0  0  0  0  0  0  0  0  0  0  0  0
    5.5747   14.9173    6.9379 O   0  0  0  0  0  0  0  0  0  0  0  0
    4.9641   17.2184    7.4410 O   0  0  0  0  0  0  0  0  0  0  0  0
    7.5167   16.6727    7.1707 C   0  0  0  0  0  0  0  0  0  0  0  0
    8.5159   16.3964    6.0945 C   0  0  0  0  0  0  0  0  0  0  0  0
    7.6664   17.9869    7.8616 C   0  0  0  0  0  0  0  0  0  0  0  0
    8.7580   24.0669    2.0975 C   0  0  0  0  0  0  0  0  0  0  0  0
   10.0196   24.3027    1.5828 C   0  0  0  0  0  0  0  0  0  0  0  0
   10.7555   23.3078    0.9786 C   0  0  0  0  0  0  0  0  0  0  0  0
   10.1664   22.0684    0.9162 C   0  0  0  0  0  0  0  0  0  0  0  0
    8.8932   21.7958    1.4261 C   0  0  0  0  0  0  0  0  0  0  0  0
    8.1645   22.7914    2.0269 C   0  0  0  0  0  0  0  0  0  0  0  0
   12.0623   23.5653    0.4576 N   0  0  0  0  0  0  0  0  0  0  0  0
   13.0167   22.5103    0.4733 C   0  0  0  0  0  0  0  0  0  0  0  0
   14.2327   22.7093   -0.3872 C   0  0  0  0  0  0  0  0  0  0  0  0
   14.8115   24.0829   -0.3291 C   0  0  0  0  0  0  0  0  0  0  0  0
   13.8628   25.1002    0.2727 C   0  0  0  0  0  0  0  0  0  0  0  0
   12.4329   24.8558   -0.0720 C   0  0  0  0  0  0  0  0  0  0  0  0
   15.3595   24.6093   -1.5149 N   0  0  0  0  0  0  0  0  0  0  0  0
   15.0546   24.0059   -2.7447 C   0  0  0  0  0  0  0  0  0  0  0  0
   16.0421   24.4871   -3.8115 C   0  0  0  0  0  0  0  0  0  0  0  0
   16.1873   25.9223   -3.6642 N   0  0  0  0  0  0  0  0  0  0  0  0
   15.0407   26.6722   -4.0670 C   0  0  0  0  0  0  0  0  0  0  0  0
   16.7716   26.3065   -2.4199 C   0  0  0  0  0  0  0  0  0  0  0  0
   16.6863   25.1323   -1.4470 C   0  0  0  0  0  0  0  0  0  0  0  0
    8.7237   25.8830    3.6779 C   0  0  0  0  0  0  0  0  0  0  0  0
    8.0722   25.1143    2.6927 O   0  0  0  0  0  0  0  0  0  0  0  0
 43 44  1  0  0  0
 44 24  1  0  0  0
 24 25  2  0  0  0
 25 26  1  0  0  0
 26 27  2  0  0  0
 27 28  1  0  0  0
 28 29  2  0  0  0
 29  1  1  0  0  0
  1  3  1  0  0  0
  3  4  2  0  0  0
  4  5  1  0  0  0
  5  6  2  0  0  0
  6  7  1  0  0  0
  6  8  1  0  0  0
  8 10  1  0  0  0
 10 12  1  0  0  0
 12 13  2  0  0  0
 13 14  1  0  0  0
 14 15  2  0  0  0
 15 16  1  0  0  0
 16 17  2  0  0  0
 17 18  1  0  0  0
 18 19  2  0  0  0
 18 20  2  0  0  0
 18 21  1  0  0  0
 21 22  1  0  0  0
 21 23  1  0  0  0
  8  9  2  0  0  0
 26 30  1  0  0  0
 30 31  1  0  0  0
 31 32  1  0  0  0
 32 33  1  0  0  0
 33 34  1  0  0  0
 34 35  1  0  0  0
 33 36  1  0  0  0
 36 37  1  0  0  0
 37 38  1  0  0  0
 38 39  1  0  0  0
 39 40  1  0  0  0
 39 41  1  0  0  0
 41 42  1  0  0  0
 29 24  1  0  0  0
  9  3  1  0  0  0
 35 30  1  0  0  0
 42 36  1  0  0  0
 17 12  1  0  0  0
  1  2  1  0  0  0
 10 11  1  0  0  0
M  END
> <minimizedAffinity>
-7.24496

> <CNNscore>
0.0302665103

> <CNNaffinity>
6.5609893799

> <CNN_VS>
0.1985782534

> <CNNaffinity_variance>
0.2246417254

$$$$
[H]c1nc(N([H])c2c([H])c([H])c(N3C([H])([H])C([H])([H])C([H])(N4C([H])([H])C([H])([H])N(C([H])([H])[H])C([H])([H])C4([H])[H])C([H])([H])C3([H])[H])c([H])c2OC([H])([H])[H])nc(N([H])c2c([H])c([H])c([H])c([H])c2S(=O)(=O)C([H])(C([H])([H])[H])C([H])([H])[H])c1Cl


 44 48  0  0  0  0  0  0  0  0999 V2000
   10.7887   20.3711    2.2624 N   0  0  0  0  0  0  0  0  0  0  0  0
   10.2737   19.5135    1.8494 H   0  0  0  0  0  0  0  0  0  0  0  0
   10.5086   20.6741    3.6212 C   0  0  0  0  0  0  0  0  0  0  0  0
   11.4082   20.8417    4.5938 N   0  0  0  0  0  0  0  0  0  0  0  0
   11.0741   21.1284    5.8582 C   0  0  0  0  0  0  0  0  0  0  0  0
    9.7497   21.2631    6.2031 C   0  0  0  0  0  0  0  0  0  0  0  0
    9.2915   21.6402    7.8609 Cl  0  0  0  0  0  0  0  0  0  0  0  0
    8.7795   21.0910    5.1942 C   0  0  0  0  0  0  0  0  0  0  0  0
    9.2130   20.8071    3.9643 N   0  0  0  0  0  0  0  0  0  0  0  0
    7.4358   21.2357    5.5719 N   0  0  0  0  0  0  0  0  0  0  0  0
    7.0679   22.2423    5.5240 H   0  0  0  0  0  0  0  0  0  0  0  0
    6.4829   20.2999    6.0018 C   0  0  0  0  0  0  0  0  0  0  0  0
    6.8282   18.9708    6.1259 C   0  0  0  0  0  0  0  0  0  0  0  0
    5.8879   18.0240    6.5521 C   0  0  0  0  0  0  0  0  0  0  0  0
    4.6216   18.4337    6.8441 C   0  0  0  0  0  0  0  0  0  0  0  0
    4.2799   19.7614    6.7195 C   0  0  0  0  0  0  0  0  0  0  0  0
    5.1794   20.7085    6.3049 C   0  0  0  0  0  0  0  0  0  0  0  0
    4.7381   22.3587    6.1559 S   0  0  0  0  0  0  0  0  0  0  0  0
    3.2703   22.4700    5.8286 O   0  0  0  0  0  0  0  0  0  0  0  0
    5.5018   23.1207    5.1092 O   0  0  0  0  0  0  0  0  0  0  0  0
    4.9639   23.2662    7.6737 C   0  0  0  0  0  0  0  0  0  0  0  0
    6.3958   23.6531    7.8544 C   0  0  0  0  0  0  0  0  0  0  0  0
    3.9743   24.3674    7.8609 C   0  0  0  0  0  0  0  0  0  0  0  0
   11.0681   21.9219    0.4488 C   0  0  0  0  0  0  0  0  0  0  0  0
   11.8437   22.6165   -0.4612 C   0  0  0  0  0  0  0  0  0  0  0  0
   13.2129   22.4758   -0.5057 C   0  0  0  0  0  0  0  0  0  0  0  0
   13.7648   21.6072    0.4043 C   0  0  0  0  0  0  0  0  0  0  0  0
   13.0100   20.8895    1.3374 C   0  0  0  0  0  0  0  0  0  0  0  0
   11.6460   21.0338    1.3769 C   0  0  0  0  0  0  0  0  0  0  0  0
   14.0025   23.2067   -1.4479 N   0  0  0  0  0  0  0  0  0  0  0  0
   14.6456   22.4874   -2.4936 C   0  0  0  0  0  0  0  0  0  0  0  0
   15.1590   23.3115   -3.6408 C   0  0  0  0  0  0  0  0  0  0  0  0
   15.8384   24.5764   -3.2363 C   0  0  0  0  0  0  0  0  0  0  0  0
   15.5500   24.9707   -1.8016 C   0  0  0  0  0  0  0  0  0  0  0  0
   14.1650   24.6381   -1.3608 C   0  0  0  0  0  0  0  0  0  0  0  0
   15.6677   25.7014   -4.0663 N   0  0  0  0  0  0  0  0  0  0  0  0
   16.6624   26.6906   -4.1029 C   0  0  0  0  0  0  0  0  0  0  0  0
   16.0997   27.9608   -4.7470 C   0  0  0  0  0  0  0  0  0  0  0  0
   15.3524   27.5653   -5.9250 N   0  0  0  0  0  0  0  0  0  0  0  0
   16.1632   27.1067   -7.0074 C   0  0  0  0  0  0  0  0  0  0  0  0
   14.2090   26.7649   -5.6266 C   0  0  0  0  0  0  0  0  0  0  0  0
   14.3433   26.2155   -4.2078 C   0  0  0  0  0  0  0  0  0  0  0  0
    9.1864   23.4209    0.5472 C   0  0  0  0  0  0  0  0  0  0  0  0
    9.6948   22.1110    0.4387 O   0  0  0  0  0  0  0  0  0  0  0  0
 43 44  1  0  0  0
 44 24  1  0  0  0
 24 25  2  0  0  0
 25 26  1  0  0  0
 26 27  2  0  0  0
 27 28  1  0  0  0
 28 29  2  0  0  0
 29  1  1  0  0  0
  1  3  1  0  0  0
  3  4  2  0  0  0
  4  5  1  0  0  0
  5  6  2  0  0  0
  6  7  1  0  0  0
  6  8  1  0  0  0
  8 10  1  0  0  0
 10 12  1  0  0  0
 12 13  2  0  0  0
 13 14  1  0  0  0
 14 15  2  0  0  0
 15 16  1  0  0  0
 16 17  2  0  0  0
 17 18  1  0  0  0
 18 19  2  0  0  0
 18 20  2  0  0  0
 18 21  1  0  0  0
 21 22  1  0  0  0
 21 23  1  0  0  0
  8  9  2  0  0  0
 26 30  1  0  0  0
 30 31  1  0  0  0
 31 32  1  0  0  0
 32 33  1  0  0  0
 33 34  1  0  0  0
 34 35  1  0  0  0
 33 36  1  0  0  0
 36 37  1  0  0  0
 37 38  1  0  0  0
 38 39  1  0  0  0
 39 40  1  0  0  0
 39 41  1  0  0  0
 41 42  1  0  0  0
 29 24  1  0  0  0
  9  3  1  0  0  0
 35 30  1  0  0  0
 42 36  1  0  0  0
 17 12  1  0  0  0
  1  2  1  0  0  0
 10 11  1  0  0  0
M  END
> <minimizedAffinity>
-7.57461

> <CNNscore>
0.0282120425

> <CNNaffinity>
7.0809502602

> <CNN_VS>
0.1997680664

> <CNNaffinity_variance>
0.2573227584

$$$$
[H]c1nc(N([H])c2c([H])c([H])c(N3C([H])([H])C([H])([H])C([H])(N4C([H])([H])C([H])([H])N(C([H])([H])[H])C([H])([H])C4([H])[H])C([H])([H])C3([H])[H])c([H])c2OC([H])([H])[H])nc(N([H])c2c([H])c([H])c([H])c([H])c2S(=O)(=O)C([H])(C([H])([H])[H])C([H])([H])[H])c1Cl


 44 48  0  0  0  0  0  0  0  0999 V2000
    9.1500   21.6283    5.5168 N   0  0  0  0  0  0  0  0  0  0  0  0
    9.8128   21.1838    6.2477 H   0  0  0  0  0  0  0  0  0  0  0  0
    7.7799   21.7075    5.8813 C   0  0  0  0  0  0  0  0  0  0  0  0
    7.2457   22.5570    6.7624 N   0  0  0  0  0  0  0  0  0  0  0  0
    5.9404   22.5788    7.0592 C   0  0  0  0  0  0  0  0  0  0  0  0
    5.0832   21.6968    6.4441 C   0  0  0  0  0  0  0  0  0  0  0  0
    3.3633   21.7110    6.8217 Cl  0  0  0  0  0  0  0  0  0  0  0  0
    5.6222   20.7889    5.5092 C   0  0  0  0  0  0  0  0  0  0  0  0
    6.9360   20.8458    5.2817 N   0  0  0  0  0  0  0  0  0  0  0  0
    4.7260   19.9012    4.8944 N   0  0  0  0  0  0  0  0  0  0  0  0
    3.6936   20.0873    5.1190 H   0  0  0  0  0  0  0  0  0  0  0  0
    4.9356   18.8112    4.0362 C   0  0  0  0  0  0  0  0  0  0  0  0
    4.9634   19.0032    2.6711 C   0  0  0  0  0  0  0  0  0  0  0  0
    5.1698   17.9250    1.8009 C   0  0  0  0  0  0  0  0  0  0  0  0
    5.3435   16.6779    2.3217 C   0  0  0  0  0  0  0  0  0  0  0  0
    5.3154   16.4894    3.6850 C   0  0  0  0  0  0  0  0  0  0  0  0
    5.1156   17.5258    4.5590 C   0  0  0  0  0  0  0  0  0  0  0  0
    5.0845   17.2744    6.2549 S   0  0  0  0  0  0  0  0  0  0  0  0
    3.6577   17.2359    6.7420 O   0  0  0  0  0  0  0  0  0  0  0  0
    5.8165   18.3135    7.0572 O   0  0  0  0  0  0  0  0  0  0  0  0
    5.7975   15.7101    6.7270 C   0  0  0  0  0  0  0  0  0  0  0  0
    7.2795   15.8253    6.8794 C   0  0  0  0  0  0  0  0  0  0  0  0
    5.0864   15.0505    7.8611 C   0  0  0  0  0  0  0  0  0  0  0  0
    9.4159   23.3171    3.8288 C   0  0  0  0  0  0  0  0  0  0  0  0
    9.9779   23.8088    2.6649 C   0  0  0  0  0  0  0  0  0  0  0  0
   10.9037   23.0877    1.9441 C   0  0  0  0  0  0  0  0  0  0  0  0
   11.2376   21.8533    2.4461 C   0  0  0  0  0  0  0  0  0  0  0  0
   10.6885   21.3263    3.6192 C   0  0  0  0  0  0  0  0  0  0  0  0
    9.7663   22.0495    4.3331 C   0  0  0  0  0  0  0  0  0  0  0  0
   11.4818   23.6128    0.7460 N   0  0  0  0  0  0  0  0  0  0  0  0
   11.2673   24.9848    0.4364 C   0  0  0  0  0  0  0  0  0  0  0  0
   12.1652   25.5706   -0.6169 C   0  0  0  0  0  0  0  0  0  0  0  0
   12.3900   24.6865   -1.7971 C   0  0  0  0  0  0  0  0  0  0  0  0
   11.9921   23.2464   -1.5425 C   0  0  0  0  0  0  0  0  0  0  0  0
   12.2632   22.7926   -0.1483 C   0  0  0  0  0  0  0  0  0  0  0  0
   13.6638   24.7131   -2.3974 N   0  0  0  0  0  0  0  0  0  0  0  0
   14.7678   24.2002   -1.6991 C   0  0  0  0  0  0  0  0  0  0  0  0
   16.0623   24.6796   -2.3620 C   0  0  0  0  0  0  0  0  0  0  0  0
   15.9084   24.5248   -3.7955 N   0  0  0  0  0  0  0  0  0  0  0  0
   15.9173   23.1688   -4.2434 C   0  0  0  0  0  0  0  0  0  0  0  0
   14.8834   25.3513   -4.3464 C   0  0  0  0  0  0  0  0  0  0  0  0
   13.9776   25.8389   -3.2175 C   0  0  0  0  0  0  0  0  0  0  0  0
    8.8358   25.4164    4.8553 C   0  0  0  0  0  0  0  0  0  0  0  0
    8.4897   24.0960    4.5049 O   0  0  0  0  0  0  0  0  0  0  0  0
 43 44  1  0  0  0
 44 24  1  0  0  0
 24 25  2  0  0  0
 25 26  1  0  0  0
 26 27  2  0  0  0
 27 28  1  0  0  0
 28 29  2  0  0  0
 29  1  1  0  0  0
  1  3  1  0  0  0
  3  4  2  0  0  0
  4  5  1  0  0  0
  5  6  2  0  0  0
  6  7  1  0  0  0
  6  8  1  0  0  0
  8 10  1  0  0  0
 10 12  1  0  0  0
 12 13  2  0  0  0
 13 14  1  0  0  0
 14 15  2  0  0  0
 15 16  1  0  0  0
 16 17  2  0  0  0
 17 18  1  0  0  0
 18 19  2  0  0  0
 18 20  2  0  0  0
 18 21  1  0  0  0
 21 22  1  0  0  0
 21 23  1  0  0  0
  8  9  2  0  0  0
 26 30  1  0  0  0
 30 31  1  0  0  0
 31 32  1  0  0  0
 32 33  1  0  0  0
 33 34  1  0  0  0
 34 35  1  0  0  0
 33 36  1  0  0  0
 36 37  1  0  0  0
 37 38  1  0  0  0
 38 39  1  0  0  0
 39 40  1  0  0  0
 39 41  1  0  0  0
 41 42  1  0  0  0
 29 24  1  0  0  0
  9  3  1  0  0  0
 35 30  1  0  0  0
 42 36  1  0  0  0
 17 12  1  0  0  0
  1  2  1  0  0  0
 10 11  1  0  0  0
M  END
> <minimizedAffinity>
-6.40459

> <CNNscore>
0.0281197298

> <CNNaffinity>
6.8738112450

> <CNN_VS>
0.1932897121

> <CNNaffinity_variance>
0.3712800145

$$$$
[H]C#C[C@]1(O[H])C([H])([H])C([H])([H])[C@]2([H])[C@]1(C([H])([H])[H])C([H])([H])C([H])([H])[C@]1([H])C3(C([H])([H])[H])C(=C([H])C(=O)C([H])([H])C3([H])[H])C([H])([H])C([H])([H])[C@]12[H]


 24 27  0  0  0  0  0  0  0  0999 V2000
   14.3283   24.5571    0.1009 C   0  0  0  0  0  0  0  0  0  0  0  0
   13.4253   23.5467   -0.5556 C   0  0  0  0  0  0  0  0  0  0  0  0
   14.1946   22.6332   -1.4302 C   0  0  0  0  0  0  0  0  0  0  0  0
   14.8872   23.3834   -2.5201 C   0  0  0  0  0  0  0  0  0  0  0  0
   14.0674   24.4283   -3.1982 C   0  0  0  0  0  0  0  0  0  0  0  0
   13.1816   25.2206   -2.2455 C   0  0  0  0  0  0  0  0  0  0  0  0
   12.3111   26.1102   -3.1432 C   0  0  0  0  0  0  0  0  0  0  0  0
   13.2296   27.2224   -3.6075 C   0  0  0  0  0  0  0  0  0  0  0  0
   14.3021   26.5803   -4.4426 C   0  0  0  0  0  0  0  0  0  0  0  0
   14.6990   27.2025   -5.5416 C   0  0  0  0  0  0  0  0  0  0  0  0
   15.7348   26.6547   -6.4148 C   0  0  0  0  0  0  0  0  0  0  0  0
   16.3254   27.3744   -7.2434 O   0  0  0  0  0  0  0  0  0  0  0  0
   16.0777   25.2183   -6.3015 C   0  0  0  0  0  0  0  0  0  0  0  0
   15.1581   24.4935   -5.3662 C   0  0  0  0  0  0  0  0  0  0  0  0
   14.9190   25.2865   -4.0736 C   0  0  0  0  0  0  0  0  0  0  0  0
   16.2632   25.5955   -3.4452 C   0  0  0  0  0  0  0  0  0  0  0  0
   12.4104   24.2261   -1.4905 C   0  0  0  0  0  0  0  0  0  0  0  0
   11.3845   24.6751   -0.5488 C   0  0  0  0  0  0  0  0  0  0  0  0
   11.1511   23.3748    0.2422 C   0  0  0  0  0  0  0  0  0  0  0  0
   12.5753   22.9153    0.4778 C   0  0  0  0  0  0  0  0  0  0  0  0
   12.9119   23.3737    1.7718 O   0  0  0  0  0  0  0  0  0  0  0  0
   12.0916   23.4371    2.3248 H   0  0  0  0  0  0  0  0  0  0  0  0
   12.6788   21.4632    0.5260 C   0  0  0  0  0  0  0  0  0  0  0  0
   12.7575   20.2632    0.5761 C   0  0  0  0  0  0  0  0  0  0  0  0
  2  1  1  0  0  0
  2  3  1  0  0  0
  3  4  1  0  0  0
  4  5  1  0  0  0
  5  6  1  0  0  0
  6  7  1  0  0  0
  7  8  1  0  0  0
  8  9  1  0  0  0
  9 10  2  0  0  0
 10 11  1  0  0  0
 11 12  2  0  0  0
 11 13  1  0  0  0
 13 14  1  0  0  0
 14 15  1  0  0  0
 15 16  1  0  0  0
  6 17  1  0  0  0
 17 18  1  0  0  0
 18 19  1  0  0  0
 19 20  1  0  0  0
 20 21  1  0  0  0
 20 23  1  0  0  0
 23 24  3  0  0  0
 17  2  1  0  0  0
 20  2  1  0  0  0
 15  5  1  0  0  0
 15  9  1  0  0  0
 21 22  1  0  0  0
M  END
> <minimizedAffinity>
-7.57605

> <CNNscore>
0.6616843343

> <CNNaffinity>
6.9937810898

> <CNN_VS>
4.6276755333

> <CNNaffinity_variance>
0.6133880615

$$$$
[H]C#C[C@]1(O[H])C([H])([H])C([H])([H])[C@]2([H])[C@]1(C([H])([H])[H])C([H])([H])C([H])([H])[C@]1([H])C3(C([H])([H])[H])C(=C([H])C(=O)C([H])([H])C3([H])[H])C([H])([H])C([H])([H])[C@]12[H]


 24 27  0  0  0  0  0  0  0  0999 V2000
   12.2698   24.0991    1.7688 C   0  0  0  0  0  0  0  0  0  0  0  0
   11.8139   22.8471    1.0675 C   0  0  0  0  0  0  0  0  0  0  0  0
   12.9666   22.0014    0.6835 C   0  0  0  0  0  0  0  0  0  0  0  0
   13.8809   22.7247   -0.2499 C   0  0  0  0  0  0  0  0  0  0  0  0
   13.2091   23.4799   -1.3462 C   0  0  0  0  0  0  0  0  0  0  0  0
   11.9390   24.1947   -0.9037 C   0  0  0  0  0  0  0  0  0  0  0  0
   11.3202   24.7595   -2.1894 C   0  0  0  0  0  0  0  0  0  0  0  0
   12.1702   25.9637   -2.5413 C   0  0  0  0  0  0  0  0  0  0  0  0
   13.5497   25.4484   -2.8442 C   0  0  0  0  0  0  0  0  0  0  0  0
   14.2126   25.9860   -3.8561 C   0  0  0  0  0  0  0  0  0  0  0  0
   15.5576   25.5496   -4.2245 C   0  0  0  0  0  0  0  0  0  0  0  0
   16.2903   26.2573   -4.9427 O   0  0  0  0  0  0  0  0  0  0  0  0
   16.0448   24.2417   -3.7283 C   0  0  0  0  0  0  0  0  0  0  0  0
   14.9712   23.4760   -3.0163 C   0  0  0  0  0  0  0  0  0  0  0  0
   14.1792   24.3691   -2.0508 C   0  0  0  0  0  0  0  0  0  0  0  0
   15.1555   25.0272   -1.0964 C   0  0  0  0  0  0  0  0  0  0  0  0
   11.1055   23.1737   -0.2581 C   0  0  0  0  0  0  0  0  0  0  0  0
    9.7599   23.5255    0.1962 C   0  0  0  0  0  0  0  0  0  0  0  0
    9.4557   22.3226    1.1080 C   0  0  0  0  0  0  0  0  0  0  0  0
   10.7565   22.1993    1.8746 C   0  0  0  0  0  0  0  0  0  0  0  0
   10.5451   22.8856    3.0920 O   0  0  0  0  0  0  0  0  0  0  0  0
    9.5828   22.8534    3.3278 H   0  0  0  0  0  0  0  0  0  0  0  0
   11.0475   20.8188    2.2364 C   0  0  0  0  0  0  0  0  0  0  0  0
   11.2904   19.6815    2.5470 C   0  0  0  0  0  0  0  0  0  0  0  0
  2  1  1  0  0  0
  2  3  1  0  0  0
  3  4  1  0  0  0
  4  5  1  0  0  0
  5  6  1  0  0  0
  6  7  1  0  0  0
  7  8  1  0  0  0
  8  9  1  0  0  0
  9 10  2  0  0  0
 10 11  1  0  0  0
 11 12  2  0  0  0
 11 13  1  0  0  0
 13 14  1  0  0  0
 14 15  1  0  0  0
 15 16  1  0  0  0
  6 17  1  0  0  0
 17 18  1  0  0  0
 18 19  1  0  0  0
 19 20  1  0  0  0
 20 21  1  0  0  0
 20 23  1  0  0  0
 23 24  3  0  0  0
 17  2  1  0  0  0
 20  2  1  0  0  0
 15  5  1  0  0  0
 15  9  1  0  0  0
 21 22  1  0  0  0
M  END
> <minimizedAffinity>
-5.71616

> <CNNscore>
0.5724900365

> <CNNaffinity>
6.8574676514

> <CNN_VS>
3.9258317947

> <CNNaffinity_variance>
0.5511387587

$$$$
[H]C#C[C@]1(O[H])C([H])([H])C([H])([H])[C@]2([H])[C@]1(C([H])([H])[H])C([H])([H])C([H])([H])[C@]1([H])C3(C([H])([H])[H])C(=C([H])C(=O)C([H])([H])C3([H])[H])C([H])([H])C([H])([H])[C@]12[H]


 24 27  0  0  0  0  0  0  0  0999 V2000
   14.8020   24.1647   -4.2222 C   0  0  0  0  0  0  0  0  0  0  0  0
   14.9567   25.3195   -3.2684 C   0  0  0  0  0  0  0  0  0  0  0  0
   15.8076   24.9483   -2.1154 C   0  0  0  0  0  0  0  0  0  0  0  0
   15.2122   23.8148   -1.3466 C   0  0  0  0  0  0  0  0  0  0  0  0
   13.7461   23.9141   -1.0931 C   0  0  0  0  0  0  0  0  0  0  0  0
   12.9585   24.4565   -2.2786 C   0  0  0  0  0  0  0  0  0  0  0  0
   11.5236   24.6380   -1.7659 C   0  0  0  0  0  0  0  0  0  0  0  0
   10.9452   23.2386   -1.7059 C   0  0  0  0  0  0  0  0  0  0  0  0
   11.7425   22.4825   -0.6799 C   0  0  0  0  0  0  0  0  0  0  0  0
   11.0985   21.6639    0.1372 C   0  0  0  0  0  0  0  0  0  0  0  0
   11.7893   20.8883    1.1651 C   0  0  0  0  0  0  0  0  0  0  0  0
   11.2487   19.9000    1.6983 O   0  0  0  0  0  0  0  0  0  0  0  0
   13.1548   21.2956    1.5695 C   0  0  0  0  0  0  0  0  0  0  0  0
   13.5671   22.5879    0.9326 C   0  0  0  0  0  0  0  0  0  0  0  0
   13.2107   22.6267   -0.5602 C   0  0  0  0  0  0  0  0  0  0  0  0
   13.8346   21.4206   -1.2335 C   0  0  0  0  0  0  0  0  0  0  0  0
   13.6067   25.7199   -2.6495 C   0  0  0  0  0  0  0  0  0  0  0  0
   13.0218   26.5452   -3.7067 C   0  0  0  0  0  0  0  0  0  0  0  0
   14.1984   27.4958   -3.9944 C   0  0  0  0  0  0  0  0  0  0  0  0
   15.3594   26.5232   -4.0288 C   0  0  0  0  0  0  0  0  0  0  0  0
   15.5629   26.2246   -5.3953 O   0  0  0  0  0  0  0  0  0  0  0  0
   15.2711   26.9929   -5.9495 H   0  0  0  0  0  0  0  0  0  0  0  0
   16.5965   27.1341   -3.5621 C   0  0  0  0  0  0  0  0  0  0  0  0
   17.6155   27.6496   -3.1816 C   0  0  0  0  0  0  0  0  0  0  0  0
  2  1  1  0  0  0
  2  3  1  0  0  0
  3  4  1  0  0  0
  4  5  1  0  0  0
  5  6  1  0  0  0
  6  7  1  0  0  0
  7  8  1  0  0  0
  8  9  1  0  0  0
  9 10  2  0  0  0
 10 11  1  0  0  0
 11 12  2  0  0  0
 11 13  1  0  0  0
 13 14  1  0  0  0
 14 15  1  0  0  0
 15 16  1  0  0  0
  6 17  1  0  0  0
 17 18  1  0  0  0
 18 19  1  0  0  0
 19 20  1  0  0  0
 20 21  1  0  0  0
 20 23  1  0  0  0
 23 24  3  0  0  0
 17  2  1  0  0  0
 20  2  1  0  0  0
 15  5  1  0  0  0
 15  9  1  0  0  0
 21 22  1  0  0  0
M  END
> <minimizedAffinity>
-8.71724

> <CNNscore>
0.4949099123

> <CNNaffinity>
6.9896316528

> <CNN_VS>
3.4592380524

> <CNNaffinity_variance>
0.1610390246

$$$$
[H]C#C[C@]1(O[H])C([H])([H])C([H])([H])[C@]2([H])[C@]1(C([H])([H])[H])C([H])([H])C([H])([H])[C@]1([H])C3(C([H])([H])[H])C(=C([H])C(=O)C([H])([H])C3([H])[H])C([H])([H])C([H])([H])[C@]12[H]


 24 27  0  0  0  0  0  0  0  0999 V2000
   14.0028   26.8620   -3.4820 C   0  0  0  0  0  0  0  0  0  0  0  0
   15.2072   26.2395   -4.1369 C   0  0  0  0  0  0  0  0  0  0  0  0
   14.8653   24.9383   -4.7544 C   0  0  0  0  0  0  0  0  0  0  0  0
   14.3656   23.9698   -3.7334 C   0  0  0  0  0  0  0  0  0  0  0  0
   15.1418   23.9245   -2.4609 C   0  0  0  0  0  0  0  0  0  0  0  0
   15.5946   25.2951   -1.9747 C   0  0  0  0  0  0  0  0  0  0  0  0
   16.5036   25.0201   -0.7693 C   0  0  0  0  0  0  0  0  0  0  0  0
   15.5621   24.6568    0.3611 C   0  0  0  0  0  0  0  0  0  0  0  0
   14.8751   23.3807   -0.0385 C   0  0  0  0  0  0  0  0  0  0  0  0
   14.6805   22.4556    0.8882 C   0  0  0  0  0  0  0  0  0  0  0  0
   14.0221   21.1849    0.5928 C   0  0  0  0  0  0  0  0  0  0  0  0
   13.5555   20.4741    1.5041 O   0  0  0  0  0  0  0  0  0  0  0  0
   13.9149   20.7476   -0.8183 C   0  0  0  0  0  0  0  0  0  0  0  0
   14.6665   21.6536   -1.7457 C   0  0  0  0  0  0  0  0  0  0  0  0
   14.4159   23.1337   -1.4237 C   0  0  0  0  0  0  0  0  0  0  0  0
   12.9212   23.3835   -1.4502 C   0  0  0  0  0  0  0  0  0  0  0  0
   16.2994   25.9114   -3.1048 C   0  0  0  0  0  0  0  0  0  0  0  0
   16.9474   27.2111   -2.9261 C   0  0  0  0  0  0  0  0  0  0  0  0
   17.1851   27.6029   -4.3960 C   0  0  0  0  0  0  0  0  0  0  0  0
   15.8508   27.2412   -5.0154 C   0  0  0  0  0  0  0  0  0  0  0  0
   15.1112   28.4451   -5.0515 O   0  0  0  0  0  0  0  0  0  0  0  0
   15.7331   29.2143   -5.1176 H   0  0  0  0  0  0  0  0  0  0  0  0
   15.9907   26.8135   -6.4007 C   0  0  0  0  0  0  0  0  0  0  0  0
   16.0951   26.4548   -7.5449 C   0  0  0  0  0  0  0  0  0  0  0  0
  2  1  1  0  0  0
  2  3  1  0  0  0
  3  4  1  0  0  0
  4  5  1  0  0  0
  5  6  1  0  0  0
  6  7  1  0  0  0
  7  8  1  0  0  0
  8  9  1  0  0  0
  9 10  2  0  0  0
 10 11  1  0  0  0
 11 12  2  0  0  0
 11 13  1  0  0  0
 13 14  1  0  0  0
 14 15  1  0  0  0
 15 16  1  0  0  0
  6 17  1  0  0  0
 17 18  1  0  0  0
 18 19  1  0  0  0
 19 20  1  0  0  0
 20 21  1  0  0  0
 20 23  1  0  0  0
 23 24  3  0  0  0
 17  2  1  0  0  0
 20  2  1  0  0  0
 15  5  1  0  0  0
 15  9  1  0  0  0
 21 22  1  0  0  0
M  END
> <minimizedAffinity>
-9.77531

> <CNNscore>
0.4816158414

> <CNNaffinity>
7.1484999657

> <CNN_VS>
3.4428308010

> <CNNaffinity_variance>
0.4181657434

$$$$
[H]C#C[C@]1(O[H])C([H])([H])C([H])([H])[C@]2([H])[C@]1(C([H])([H])[H])C([H])([H])C([H])([H])[C@]1([H])C3(C([H])([H])[H])C(=C([H])C(=O)C([H])([H])C3([H])[H])C([H])([H])C([H])([H])[C@]12[H]


 24 27  0  0  0  0  0  0  0  0999 V2000
   11.3468   23.0432   -1.3276 C   0  0  0  0  0  0  0  0  0  0  0  0
   12.3521   22.5007   -0.3466 C   0  0  0  0  0  0  0  0  0  0  0  0
   12.9028   23.5799    0.5040 C   0  0  0  0  0  0  0  0  0  0  0  0
   13.5989   24.6143   -0.3180 C   0  0  0  0  0  0  0  0  0  0  0  0
   14.4897   24.0859   -1.3908 C   0  0  0  0  0  0  0  0  0  0  0  0
   13.9184   22.8734   -2.1143 C   0  0  0  0  0  0  0  0  0  0  0  0
   15.0386   22.3887   -3.0444 C   0  0  0  0  0  0  0  0  0  0  0  0
   15.0534   23.3763   -4.1936 C   0  0  0  0  0  0  0  0  0  0  0  0
   15.4364   24.7101   -3.6154 C   0  0  0  0  0  0  0  0  0  0  0  0
   16.2622   25.4802   -4.3065 C   0  0  0  0  0  0  0  0  0  0  0  0
   16.6899   26.7917   -3.8243 C   0  0  0  0  0  0  0  0  0  0  0  0
   17.1868   27.6321   -4.5990 O   0  0  0  0  0  0  0  0  0  0  0  0
   16.5236   27.1132   -2.3880 C   0  0  0  0  0  0  0  0  0  0  0  0
   16.0568   25.9286   -1.5977 C   0  0  0  0  0  0  0  0  0  0  0  0
   14.9213   25.1801   -2.3099 C   0  0  0  0  0  0  0  0  0  0  0  0
   13.8051   26.1642   -2.5979 C   0  0  0  0  0  0  0  0  0  0  0  0
   13.5731   21.9047   -1.0674 C   0  0  0  0  0  0  0  0  0  0  0  0
   13.0834   20.5792   -1.4470 C   0  0  0  0  0  0  0  0  0  0  0  0
   12.5111   20.1025   -0.0994 C   0  0  0  0  0  0  0  0  0  0  0  0
   11.7633   21.3389    0.3554 C   0  0  0  0  0  0  0  0  0  0  0  0
   10.4192   21.1317   -0.0298 O   0  0  0  0  0  0  0  0  0  0  0  0
   10.2264   20.1596   -0.0501 H   0  0  0  0  0  0  0  0  0  0  0  0
   11.7508   21.4657    1.8064 C   0  0  0  0  0  0  0  0  0  0  0  0
   11.7515   21.5760    3.0050 C   0  0  0  0  0  0  0  0  0  0  0  0
  2  1  1  0  0  0
  2  3  1  0  0  0
  3  4  1  0  0  0
  4  5  1  0  0  0
  5  6  1  0  0  0
  6  7  1  0  0  0
  7  8  1  0  0  0
  8  9  1  0  0  0
  9 10  2  0  0  0
 10 11  1  0  0  0
 11 12  2  0  0  0
 11 13  1  0  0  0
 13 14  1  0  0  0
 14 15  1  0  0  0
 15 16  1  0  0  0
  6 17  1  0  0  0
 17 18  1  0  0  0
 18 19  1  0  0  0
 19 20  1  0  0  0
 20 21  1  0  0  0
 20 23  1  0  0  0
 23 24  3  0  0  0
 17  2  1  0  0  0
 20  2  1  0  0  0
 15  5  1  0  0  0
 15  9  1  0  0  0
 21 22  1  0  0  0
M  END
> <minimizedAffinity>
-6.48966

> <CNNscore>
0.4665092230

> <CNNaffinity>
6.9943208694

> <CNN_VS>
3.2629151344

> <CNNaffinity_variance>
0.4382719100

$$$$
[H]C#C[C@]1(O[H])C([H])([H])C([H])([H])[C@]2([H])[C@]1(C([H])([H])[H])C([H])([H])C([H])([H])[C@]1([H])C3(C([H])([H])[H])C(=C([H])C(=O)C([H])([H])C3([H])[H])C([H])([H])C([H])([H])[C@]12[H]


 24 27  0  0  0  0  0  0  0  0999 V2000
   13.2749   20.7659   -0.2548 C   0  0  0  0  0  0  0  0  0  0  0  0
   12.1143   21.6903    0.0016 C   0  0  0  0  0  0  0  0  0  0  0  0
   11.5476   22.1990   -1.2678 C   0  0  0  0  0  0  0  0  0  0  0  0
   12.5648   22.9691   -2.0441 C   0  0  0  0  0  0  0  0  0  0  0  0
   13.3890   23.9234   -1.2480 C   0  0  0  0  0  0  0  0  0  0  0  0
   13.7993   23.3830    0.1156 C   0  0  0  0  0  0  0  0  0  0  0  0
   14.4816   24.5569    0.8307 C   0  0  0  0  0  0  0  0  0  0  0  0
   15.8497   24.6694    0.1889 C   0  0  0  0  0  0  0  0  0  0  0  0
   15.6251   25.0345   -1.2520 C   0  0  0  0  0  0  0  0  0  0  0  0
   16.4362   25.9200   -1.8092 C   0  0  0  0  0  0  0  0  0  0  0  0
   16.2945   26.3359   -3.2028 C   0  0  0  0  0  0  0  0  0  0  0  0
   17.2286   26.9006   -3.8046 O   0  0  0  0  0  0  0  0  0  0  0  0
   15.0134   26.0751   -3.8990 C   0  0  0  0  0  0  0  0  0  0  0  0
   13.9697   25.5333   -2.9700 C   0  0  0  0  0  0  0  0  0  0  0  0
   14.5346   24.4374   -2.0552 C   0  0  0  0  0  0  0  0  0  0  0  0
   15.1563   23.3617   -2.9232 C   0  0  0  0  0  0  0  0  0  0  0  0
   12.5583   22.9482    0.7673 C   0  0  0  0  0  0  0  0  0  0  0  0
   12.6022   22.4630    2.1470 C   0  0  0  0  0  0  0  0  0  0  0  0
   11.2210   21.7894    2.2444 C   0  0  0  0  0  0  0  0  0  0  0  0
   11.1704   21.0335    0.9325 C   0  0  0  0  0  0  0  0  0  0  0  0
   11.5818   19.7163    1.2384 O   0  0  0  0  0  0  0  0  0  0  0  0
   11.3540   19.5082    2.1805 H   0  0  0  0  0  0  0  0  0  0  0  0
    9.8117   20.9216    0.4197 C   0  0  0  0  0  0  0  0  0  0  0  0
    8.6845   20.8332    0.0068 C   0  0  0  0  0  0  0  0  0  0  0  0
  2  1  1  0  0  0
  2  3  1  0  0  0
  3  4  1  0  0  0
  4  5  1  0  0  0
  5  6  1  0  0  0
  6  7  1  0  0  0
  7  8  1  0  0  0
  8  9  1  0  0  0
  9 10  2  0  0  0
 10 11  1  0  0  0
 11 12  2  0  0  0
 11 13  1  0  0  0
 13 14  1  0  0  0
 14 15  1  0  0  0
 15 16  1  0  0  0
  6 17  1  0  0  0
 17 18  1  0  0  0
 18 19  1  0  0  0
 19 20  1  0  0  0
 20 21  1  0  0  0
 20 23  1  0  0  0
 23 24  3  0  0  0
 17  2  1  0  0  0
 20  2  1  0  0  0
 15  5  1  0  0  0
 15  9  1  0  0  0
 21 22  1  0  0  0
M  END
> <minimizedAffinity>
-6.96076

> <CNNscore>
0.3799608946

> <CNNaffinity>
6.8589973450

> <CNN_VS>
2.6061508656

> <CNNaffinity_variance>
0.4179542959

$$$$
[H]C#C[C@]1(O[H])C([H])([H])C([H])([H])[C@]2([H])[C@]1(C([H])([H])[H])C([H])([H])C([H])([H])[C@]1([H])C3(C([H])([H])[H])C(=C([H])C(=O)C([H])([H])C3([H])[H])C([H])([H])C([H])([H])[C@]12[H]


 24 27  0  0  0  0  0  0  0  0999 V2000
   14.9792   24.9177   -0.9901 C   0  0  0  0  0  0  0  0  0  0  0  0
   14.3156   24.7376   -2.3296 C   0  0  0  0  0  0  0  0  0  0  0  0
   13.0266   25.4631   -2.3878 C   0  0  0  0  0  0  0  0  0  0  0  0
   12.0762   24.9611   -1.3510 C   0  0  0  0  0  0  0  0  0  0  0  0
   12.0049   23.4779   -1.2131 C   0  0  0  0  0  0  0  0  0  0  0  0
   13.3595   22.7903   -1.3241 C   0  0  0  0  0  0  0  0  0  0  0  0
   13.0541   21.2865   -1.3264 C   0  0  0  0  0  0  0  0  0  0  0  0
   12.7237   20.9480    0.1132 C   0  0  0  0  0  0  0  0  0  0  0  0
   11.4717   21.7039    0.4611 C   0  0  0  0  0  0  0  0  0  0  0  0
   10.5542   21.0948    1.1958 C   0  0  0  0  0  0  0  0  0  0  0  0
    9.3066   21.7498    1.5827 C   0  0  0  0  0  0  0  0  0  0  0  0
    8.6125   21.3110    2.5203 O   0  0  0  0  0  0  0  0  0  0  0  0
    8.8725   22.9549    0.8389 C   0  0  0  0  0  0  0  0  0  0  0  0
    9.7520   23.2328   -0.3423 C   0  0  0  0  0  0  0  0  0  0  0  0
   11.2398   23.0943    0.0098 C   0  0  0  0  0  0  0  0  0  0  0  0
   11.5406   24.0018    1.1859 C   0  0  0  0  0  0  0  0  0  0  0  0
   13.9509   23.2646   -2.5807 C   0  0  0  0  0  0  0  0  0  0  0  0
   15.2277   22.7088   -3.0297 C   0  0  0  0  0  0  0  0  0  0  0  0
   15.6105   23.7388   -4.1083 C   0  0  0  0  0  0  0  0  0  0  0  0
   15.2943   25.0388   -3.3977 C   0  0  0  0  0  0  0  0  0  0  0  0
   16.5228   25.4846   -2.8594 O   0  0  0  0  0  0  0  0  0  0  0  0
   17.2702   25.1514   -3.4188 H   0  0  0  0  0  0  0  0  0  0  0  0
   14.8615   26.0756   -4.3246 C   0  0  0  0  0  0  0  0  0  0  0  0
   14.5096   26.9266   -5.0997 C   0  0  0  0  0  0  0  0  0  0  0  0
  2  1  1  0  0  0
  2  3  1  0  0  0
  3  4  1  0  0  0
  4  5  1  0  0  0
  5  6  1  0  0  0
  6  7  1  0  0  0
  7  8  1  0  0  0
  8  9  1  0  0  0
  9 10  2  0  0  0
 10 11  1  0  0  0
 11 12  2  0  0  0
 11 13  1  0  0  0
 13 14  1  0  0  0
 14 15  1  0  0  0
 15 16  1  0  0  0
  6 17  1  0  0  0
 17 18  1  0  0  0
 18 19  1  0  0  0
 19 20  1  0  0  0
 20 21  1  0  0  0
 20 23  1  0  0  0
 23 24  3  0  0  0
 17  2  1  0  0  0
 20  2  1  0  0  0
 15  5  1  0  0  0
 15  9  1  0  0  0
 21 22  1  0  0  0
M  END
> <minimizedAffinity>
-9.34652

> <CNNscore>
0.3589728177

> <CNNaffinity>
6.8116836548

> <CNN_VS>
2.4452092648

> <CNNaffinity_variance>
0.0831213444

$$$$
[H]C#C[C@]1(O[H])C([H])([H])C([H])([H])[C@]2([H])[C@]1(C([H])([H])[H])C([H])([H])C([H])([H])[C@]1([H])C3(C([H])([H])[H])C(=C([H])C(=O)C([H])([H])C3([H])[H])C([H])([H])C([H])([H])[C@]12[H]


 24 27  0  0  0  0  0  0  0  0999 V2000
   13.7281   24.8091    0.3325 C   0  0  0  0  0  0  0  0  0  0  0  0
   13.2053   24.4393   -1.0303 C   0  0  0  0  0  0  0  0  0  0  0  0
   11.8803   25.0518   -1.2771 C   0  0  0  0  0  0  0  0  0  0  0  0
   10.8748   24.5874   -0.2752 C   0  0  0  0  0  0  0  0  0  0  0  0
   10.8932   23.1257    0.0192 C   0  0  0  0  0  0  0  0  0  0  0  0
   12.2962   22.5383    0.0998 C   0  0  0  0  0  0  0  0  0  0  0  0
   12.0964   21.0231    0.2379 C   0  0  0  0  0  0  0  0  0  0  0  0
   11.6583   20.8113    1.6730 C   0  0  0  0  0  0  0  0  0  0  0  0
   10.3304   21.4990    1.8280 C   0  0  0  0  0  0  0  0  0  0  0  0
    9.3930   20.8996    2.5453 C   0  0  0  0  0  0  0  0  0  0  0  0
    8.0729   21.4918    2.7505 C   0  0  0  0  0  0  0  0  0  0  0  0
    7.3269   21.0998    3.6688 O   0  0  0  0  0  0  0  0  0  0  0  0
    7.6278   22.5753    1.8441 C   0  0  0  0  0  0  0  0  0  0  0  0
    8.5915   22.7969    0.7180 C   0  0  0  0  0  0  0  0  0  0  0  0
   10.0464   22.8125    1.2079 C   0  0  0  0  0  0  0  0  0  0  0  0
   10.1740   23.8582    2.2977 C   0  0  0  0  0  0  0  0  0  0  0  0
   12.9673   22.9243   -1.1470 C   0  0  0  0  0  0  0  0  0  0  0  0
   14.3153   22.4263   -1.4223 C   0  0  0  0  0  0  0  0  0  0  0  0
   14.7246   23.3654   -2.5718 C   0  0  0  0  0  0  0  0  0  0  0  0
   14.2555   24.7035   -2.0384 C   0  0  0  0  0  0  0  0  0  0  0  0
   15.3954   25.2976   -1.4507 O   0  0  0  0  0  0  0  0  0  0  0  0
   16.2125   24.9676   -1.9047 H   0  0  0  0  0  0  0  0  0  0  0  0
   13.8401   25.6013   -3.1075 C   0  0  0  0  0  0  0  0  0  0  0  0
   13.5055   26.3514   -3.9874 C   0  0  0  0  0  0  0  0  0  0  0  0
  2  1  1  0  0  0
  2  3  1  0  0  0
  3  4  1  0  0  0
  4  5  1  0  0  0
  5  6  1  0  0  0
  6  7  1  0  0  0
  7  8  1  0  0  0
  8  9  1  0  0  0
  9 10  2  0  0  0
 10 11  1  0  0  0
 11 12  2  0  0  0
 11 13  1  0  0  0
 13 14  1  0  0  0
 14 15  1  0  0  0
 15 16  1  0  0  0
  6 17  1  0  0  0
 17 18  1  0  0  0
 18 19  1  0  0  0
 19 20  1  0  0  0
 20 21  1  0  0  0
 20 23  1  0  0  0
 23 24  3  0  0  0
 17  2  1  0  0  0
 20  2  1  0  0  0
 15  5  1  0  0  0
 15  9  1  0  0  0
 21 22  1  0  0  0
M  END
> <minimizedAffinity>
-8.26571

> <CNNscore>
0.2434255779

> <CNNaffinity>
6.2661008835

> <CNN_VS>
1.5253292322

> <CNNaffinity_variance>
0.0636300221

$$$$
[H]C#C[C@]1(O[H])C([H])([H])C([H])([H])[C@]2([H])[C@]1(C([H])([H])[H])C([H])([H])C([H])([H])[C@]1([H])C3(C([H])([H])[H])C(=C([H])C(=O)C([H])([H])C3([H])[H])C([H])([H])C([H])([H])[C@]12[H]


 24 27  0  0  0  0  0  0  0  0999 V2000
   13.0771   22.2633   -1.8952 C   0  0  0  0  0  0  0  0  0  0  0  0
   13.4983   23.4971   -1.1418 C   0  0  0  0  0  0  0  0  0  0  0  0
   14.2394   23.1426    0.0896 C   0  0  0  0  0  0  0  0  0  0  0  0
   13.3958   22.3259    1.0124 C   0  0  0  0  0  0  0  0  0  0  0  0
   11.9937   22.8026    1.1877 C   0  0  0  0  0  0  0  0  0  0  0  0
   11.3542   23.3007   -0.1017 C   0  0  0  0  0  0  0  0  0  0  0  0
   10.0019   23.8933    0.3165 C   0  0  0  0  0  0  0  0  0  0  0  0
    9.1122   22.6965    0.5858 C   0  0  0  0  0  0  0  0  0  0  0  0
    9.7111   21.9640    1.7542 C   0  0  0  0  0  0  0  0  0  0  0  0
    8.8939   21.4683    2.6701 C   0  0  0  0  0  0  0  0  0  0  0  0
    9.3847   20.7421    3.8393 C   0  0  0  0  0  0  0  0  0  0  0  0
    8.6281   20.0113    4.5080 O   0  0  0  0  0  0  0  0  0  0  0  0
   10.8078   20.8865    4.2239 C   0  0  0  0  0  0  0  0  0  0  0  0
   11.5107   21.9202    3.3973 C   0  0  0  0  0  0  0  0  0  0  0  0
   11.1723   21.7840    1.9061 C   0  0  0  0  0  0  0  0  0  0  0  0
   11.4963   20.3696    1.4682 C   0  0  0  0  0  0  0  0  0  0  0  0
   12.2798   24.2979   -0.6521 C   0  0  0  0  0  0  0  0  0  0  0  0
   11.9036   25.0423   -1.8542 C   0  0  0  0  0  0  0  0  0  0  0  0
   13.2699   25.6322   -2.2496 C   0  0  0  0  0  0  0  0  0  0  0  0
   14.1710   24.4270   -2.0756 C   0  0  0  0  0  0  0  0  0  0  0  0
   14.2982   23.8601   -3.3641 O   0  0  0  0  0  0  0  0  0  0  0  0
   14.1939   24.5685   -4.0496 H   0  0  0  0  0  0  0  0  0  0  0  0
   15.5170   24.8067   -1.6687 C   0  0  0  0  0  0  0  0  0  0  0  0
   16.6281   25.1312   -1.3386 C   0  0  0  0  0  0  0  0  0  0  0  0
  2  1  1  0  0  0
  2  3  1  0  0  0
  3  4  1  0  0  0
  4  5  1  0  0  0
  5  6  1  0  0  0
  6  7  1  0  0  0
  7  8  1  0  0  0
  8  9  1  0  0  0
  9 10  2  0  0  0
 10 11  1  0  0  0
 11 12  2  0  0  0
 11 13  1  0  0  0
 13 14  1  0  0  0
 14 15  1  0  0  0
 15 16  1  0  0  0
  6 17  1  0  0  0
 17 18  1  0  0  0
 18 19  1  0  0  0
 19 20  1  0  0  0
 20 21  1  0  0  0
 20 23  1  0  0  0
 23 24  3  0  0  0
 17  2  1  0  0  0
 20  2  1  0  0  0
 15  5  1  0  0  0
 15  9  1  0  0  0
 21 22  1  0  0  0
M  END
> <minimizedAffinity>
-7.31638

> <CNNscore>
0.2256180197

> <CNNaffinity>
6.2420296669

> <CNN_VS>
1.4083143473

> <CNNaffinity_variance>
0.0999928564

$$$$
[H]OC(=O)[C@@]([H])(N([H])C(=O)[C@@]([H])(S[H])C([H])(C([H])([H])[H])C([H])([H])[H])C([H])([H])c1c([H])c([H])c([H])c([H])c1[H]


 22 22  0  0  0  0  0  0  0  0999 V2000
   15.7346   25.6573   -5.5472 C   0  0  0  0  0  0  0  0  0  0  0  0
   14.4709   26.4968   -3.5412 C   0  0  0  0  0  0  0  0  0  0  0  0
   15.5844   26.8659   -3.0482 O   0  0  0  0  0  0  0  0  0  0  0  0
   14.4805   25.8805   -4.8005 N   0  0  0  0  0  0  0  0  0  0  0  0
   13.5687   25.5773   -5.2057 H   0  0  0  0  0  0  0  0  0  0  0  0
   13.2640   26.7516   -2.7401 C   0  0  0  0  0  0  0  0  0  0  0  0
   11.9101   27.0828   -3.9338 S   0  0  0  0  0  0  0  0  0  0  0  0
   11.6105   25.8393   -4.5286 H   0  0  0  0  0  0  0  0  0  0  0  0
   11.3936   25.2270   -2.3660 C   0  0  0  0  0  0  0  0  0  0  0  0
   12.8351   25.5309   -1.9539 C   0  0  0  0  0  0  0  0  0  0  0  0
   12.8244   25.8046   -0.4714 C   0  0  0  0  0  0  0  0  0  0  0  0
   15.5498   25.9885   -6.9658 C   0  0  0  0  0  0  0  0  0  0  0  0
   16.4946   26.5549   -7.7878 O   0  0  0  0  0  0  0  0  0  0  0  0
   14.4194   25.7411   -7.5103 O   0  0  0  0  0  0  0  0  0  0  0  0
   16.2875   27.4453   -8.2163 H   0  0  0  0  0  0  0  0  0  0  0  0
   16.2767   24.3004   -5.2495 C   0  0  0  0  0  0  0  0  0  0  0  0
   15.8405   23.6905   -3.9928 C   0  0  0  0  0  0  0  0  0  0  0  0
   16.2128   24.1992   -2.7722 C   0  0  0  0  0  0  0  0  0  0  0  0
   15.7980   23.6156   -1.5753 C   0  0  0  0  0  0  0  0  0  0  0  0
   14.9970   22.5043   -1.6176 C   0  0  0  0  0  0  0  0  0  0  0  0
   14.6077   21.9716   -2.8208 C   0  0  0  0  0  0  0  0  0  0  0  0
   15.0355   22.5733   -4.0011 C   0  0  0  0  0  0  0  0  0  0  0  0
  9 10  1  0  0  0
 10 11  1  0  0  0
 10  6  1  0  0  0
  6  7  1  0  0  0
  6  2  1  0  0  0
  2  3  2  0  0  0
  2  4  1  0  0  0
  4  1  1  0  0  0
  1 16  1  0  0  0
 16 17  1  0  0  0
 17 18  2  0  0  0
 18 19  1  0  0  0
 19 20  2  0  0  0
 20 21  1  0  0  0
 21 22  2  0  0  0
  1 12  1  0  0  0
 12 13  1  0  0  0
 12 14  2  0  0  0
 22 17  1  0  0  0
  7  8  1  0  0  0
  4  5  1  0  0  0
 13 15  1  0  0  0
M  END
> <minimizedAffinity>
0.96526

> <CNNscore>
0.5583677888

> <CNNaffinity>
5.6109213829

> <CNN_VS>
3.1329576969

> <CNNaffinity_variance>
0.3154649734

$$$$
[H]OC(=O)[C@@]([H])(N([H])C(=O)[C@@]([H])(S[H])C([H])(C([H])([H])[H])C([H])([H])[H])C([H])([H])c1c([H])c([H])c([H])c([H])c1[H]


 22 22  0  0  0  0  0  0  0  0999 V2000
   14.3853   23.8673   -1.1740 C   0  0  0  0  0  0  0  0  0  0  0  0
   15.0570   25.2950   -3.1327 C   0  0  0  0  0  0  0  0  0  0  0  0
   13.8277   25.5848   -3.2877 O   0  0  0  0  0  0  0  0  0  0  0  0
   15.4026   24.4326   -2.0826 N   0  0  0  0  0  0  0  0  0  0  0  0
   16.4097   24.1939   -1.9545 H   0  0  0  0  0  0  0  0  0  0  0  0
   16.0129   25.8950   -4.0758 C   0  0  0  0  0  0  0  0  0  0  0  0
   15.3271   25.6180   -5.7553 S   0  0  0  0  0  0  0  0  0  0  0  0
   14.2211   26.4866   -5.8659 H   0  0  0  0  0  0  0  0  0  0  0  0
   15.9955   28.0023   -5.3093 C   0  0  0  0  0  0  0  0  0  0  0  0
   16.1098   27.3967   -3.9093 C   0  0  0  0  0  0  0  0  0  0  0  0
   17.4516   27.8056   -3.3570 C   0  0  0  0  0  0  0  0  0  0  0  0
   14.8512   23.9315    0.2171 C   0  0  0  0  0  0  0  0  0  0  0  0
   15.4245   22.8990    0.9203 O   0  0  0  0  0  0  0  0  0  0  0  0
   14.7226   25.0318    0.8559 O   0  0  0  0  0  0  0  0  0  0  0  0
   14.9699   22.5809    1.7637 H   0  0  0  0  0  0  0  0  0  0  0  0
   13.9443   22.5295   -1.6632 C   0  0  0  0  0  0  0  0  0  0  0  0
   12.6647   22.0413   -1.1477 C   0  0  0  0  0  0  0  0  0  0  0  0
   11.5418   22.8325   -1.1268 C   0  0  0  0  0  0  0  0  0  0  0  0
   10.3235   22.3665   -0.6333 C   0  0  0  0  0  0  0  0  0  0  0  0
   10.2438   21.0842   -0.1561 C   0  0  0  0  0  0  0  0  0  0  0  0
   11.3472   20.2685   -0.1630 C   0  0  0  0  0  0  0  0  0  0  0  0
   12.5515   20.7580   -0.6612 C   0  0  0  0  0  0  0  0  0  0  0  0
  9 10  1  0  0  0
 10 11  1  0  0  0
 10  6  1  0  0  0
  6  7  1  0  0  0
  6  2  1  0  0  0
  2  3  2  0  0  0
  2  4  1  0  0  0
  4  1  1  0  0  0
  1 16  1  0  0  0
 16 17  1  0  0  0
 17 18  2  0  0  0
 18 19  1  0  0  0
 19 20  2  0  0  0
 20 21  1  0  0  0
 21 22  2  0  0  0
  1 12  1  0  0  0
 12 13  1  0  0  0
 12 14  2  0  0  0
 22 17  1  0  0  0
  7  8  1  0  0  0
  4  5  1  0  0  0
 13 15  1  0  0  0
M  END
> <minimizedAffinity>
-6.51999

> <CNNscore>
0.5467261076

> <CNNaffinity>
6.1290955544

> <CNN_VS>
3.3509366512

> <CNNaffinity_variance>
0.3696524799

$$$$
[H]OC(=O)[C@@]([H])(N([H])C(=O)[C@@]([H])(S[H])C([H])(C([H])([H])[H])C([H])([H])[H])C([H])([H])c1c([H])c([H])c([H])c([H])c1[H]


 22 22  0  0  0  0  0  0  0  0999 V2000
   15.4569   26.7273   -3.4057 C   0  0  0  0  0  0  0  0  0  0  0  0
   15.1512   26.5269   -5.8941 C   0  0  0  0  0  0  0  0  0  0  0  0
   15.4027   27.7712   -5.9816 O   0  0  0  0  0  0  0  0  0  0  0  0
   15.1636   25.9408   -4.6205 N   0  0  0  0  0  0  0  0  0  0  0  0
   14.9575   24.9212   -4.5471 H   0  0  0  0  0  0  0  0  0  0  0  0
   14.8679   25.8090   -7.1461 C   0  0  0  0  0  0  0  0  0  0  0  0
   13.4273   26.6500   -7.9112 S   0  0  0  0  0  0  0  0  0  0  0  0
   13.9127   27.8867   -8.3853 H   0  0  0  0  0  0  0  0  0  0  0  0
   16.9916   24.8143   -7.8267 C   0  0  0  0  0  0  0  0  0  0  0  0
   16.0003   25.9356   -8.1430 C   0  0  0  0  0  0  0  0  0  0  0  0
   16.7381   27.2399   -7.9780 C   0  0  0  0  0  0  0  0  0  0  0  0
   16.7881   26.3880   -2.8870 C   0  0  0  0  0  0  0  0  0  0  0  0
   17.1449   25.1917   -2.3119 O   0  0  0  0  0  0  0  0  0  0  0  0
   17.7162   27.2646   -2.9618 O   0  0  0  0  0  0  0  0  0  0  0  0
   17.4825   25.1974   -1.3604 H   0  0  0  0  0  0  0  0  0  0  0  0
   14.3248   26.6253   -2.4404 C   0  0  0  0  0  0  0  0  0  0  0  0
   13.9871   25.2784   -1.9787 C   0  0  0  0  0  0  0  0  0  0  0  0
   13.1250   25.0659   -0.9304 C   0  0  0  0  0  0  0  0  0  0  0  0
   12.8058   23.7817   -0.4901 C   0  0  0  0  0  0  0  0  0  0  0  0
   13.3672   22.7018   -1.1203 C   0  0  0  0  0  0  0  0  0  0  0  0
   14.2322   22.8802   -2.1704 C   0  0  0  0  0  0  0  0  0  0  0  0
   14.5343   24.1726   -2.5905 C   0  0  0  0  0  0  0  0  0  0  0  0
  9 10  1  0  0  0
 10 11  1  0  0  0
 10  6  1  0  0  0
  6  7  1  0  0  0
  6  2  1  0  0  0
  2  3  2  0  0  0
  2  4  1  0  0  0
  4  1  1  0  0  0
  1 16  1  0  0  0
 16 17  1  0  0  0
 17 18  2  0  0  0
 18 19  1  0  0  0
 19 20  2  0  0  0
 20 21  1  0  0  0
 21 22  2  0  0  0
  1 12  1  0  0  0
 12 13  1  0  0  0
 12 14  2  0  0  0
 22 17  1  0  0  0
  7  8  1  0  0  0
  4  5  1  0  0  0
 13 15  1  0  0  0
M  END
> <minimizedAffinity>
4.46449

> <CNNscore>
0.4423108399

> <CNNaffinity>
5.2733802795

> <CNN_VS>
2.3324732780

> <CNNaffinity_variance>
0.3333270252

$$$$
[H]OC(=O)[C@@]([H])(N([H])C(=O)[C@@]([H])(S[H])C([H])(C([H])([H])[H])C([H])([H])[H])C([H])([H])c1c([H])c([H])c([H])c([H])c1[H]


 22 22  0  0  0  0  0  0  0  0999 V2000
   16.2955   27.9960   -4.1763 C   0  0  0  0  0  0  0  0  0  0  0  0
   15.8371   26.1624   -5.8357 C   0  0  0  0  0  0  0  0  0  0  0  0
   14.7231   26.7248   -6.0842 O   0  0  0  0  0  0  0  0  0  0  0  0
   16.6760   26.7561   -4.8819 N   0  0  0  0  0  0  0  0  0  0  0  0
   17.5892   26.2962   -4.6770 H   0  0  0  0  0  0  0  0  0  0  0  0
   16.1480   24.9305   -6.5767 C   0  0  0  0  0  0  0  0  0  0  0  0
   15.2185   23.5806   -5.7511 S   0  0  0  0  0  0  0  0  0  0  0  0
   13.8635   23.7891   -6.0835 H   0  0  0  0  0  0  0  0  0  0  0  0
   16.6573   25.7770   -8.8098 C   0  0  0  0  0  0  0  0  0  0  0  0
   15.6344   24.9782   -8.0002 C   0  0  0  0  0  0  0  0  0  0  0  0
   14.3231   25.7166   -8.0898 C   0  0  0  0  0  0  0  0  0  0  0  0
   17.4486   28.5455   -3.4519 C   0  0  0  0  0  0  0  0  0  0  0  0
   18.6852   28.8076   -3.9916 O   0  0  0  0  0  0  0  0  0  0  0  0
   17.3203   28.8108   -2.2075 O   0  0  0  0  0  0  0  0  0  0  0  0
   19.4881   28.3302   -3.6084 H   0  0  0  0  0  0  0  0  0  0  0  0
   15.0562   27.7741   -3.3771 C   0  0  0  0  0  0  0  0  0  0  0  0
   14.8558   26.4216   -2.8556 C   0  0  0  0  0  0  0  0  0  0  0  0
   15.8790   25.7064   -2.2821 C   0  0  0  0  0  0  0  0  0  0  0  0
   15.6869   24.4167   -1.7874 C   0  0  0  0  0  0  0  0  0  0  0  0
   14.4435   23.8468   -1.8756 C   0  0  0  0  0  0  0  0  0  0  0  0
   13.4006   24.5347   -2.4430 C   0  0  0  0  0  0  0  0  0  0  0  0
   13.6188   25.8208   -2.9291 C   0  0  0  0  0  0  0  0  0  0  0  0
  9 10  1  0  0  0
 10 11  1  0  0  0
 10  6  1  0  0  0
  6  7  1  0  0  0
  6  2  1  0  0  0
  2  3  2  0  0  0
  2  4  1  0  0  0
  4  1  1  0  0  0
  1 16  1  0  0  0
 16 17  1  0  0  0
 17 18  2  0  0  0
 18 19  1  0  0  0
 19 20  2  0  0  0
 20 21  1  0  0  0
 21 22  2  0  0  0
  1 12  1  0  0  0
 12 13  1  0  0  0
 12 14  2  0  0  0
 22 17  1  0  0  0
  7  8  1  0  0  0
  4  5  1  0  0  0
 13 15  1  0  0  0
M  END
> <minimizedAffinity>
4.22820

> <CNNscore>
0.4257323742

> <CNNaffinity>
5.2910261154

> <CNN_VS>
2.2525610924

> <CNNaffinity_variance>
0.2335855067

$$$$
[H]OC(=O)[C@@]([H])(N([H])C(=O)[C@@]([H])(S[H])C([H])(C([H])([H])[H])C([H])([H])[H])C([H])([H])c1c([H])c([H])c([H])c([H])c1[H]


 22 22  0  0  0  0  0  0  0  0999 V2000
   14.6837   22.9779   -3.3865 C   0  0  0  0  0  0  0  0  0  0  0  0
   13.7383   21.8382   -1.3536 C   0  0  0  0  0  0  0  0  0  0  0  0
   14.6936   21.0012   -1.4319 O   0  0  0  0  0  0  0  0  0  0  0  0
   13.6784   22.8602   -2.3115 N   0  0  0  0  0  0  0  0  0  0  0  0
   12.8960   23.5467   -2.2488 H   0  0  0  0  0  0  0  0  0  0  0  0
   12.7750   21.6577   -0.2569 C   0  0  0  0  0  0  0  0  0  0  0  0
   13.7005   20.8779    1.1227 S   0  0  0  0  0  0  0  0  0  0  0  0
   14.5443   21.8852    1.6360 H   0  0  0  0  0  0  0  0  0  0  0  0
   13.4963   23.7691    0.7351 C   0  0  0  0  0  0  0  0  0  0  0  0
   12.2680   22.9801    0.2782 C   0  0  0  0  0  0  0  0  0  0  0  0
   11.3899   22.7861    1.4882 C   0  0  0  0  0  0  0  0  0  0  0  0
   15.0179   21.6514   -3.9204 C   0  0  0  0  0  0  0  0  0  0  0  0
   16.2842   21.1318   -4.0453 O   0  0  0  0  0  0  0  0  0  0  0  0
   14.0669   20.8921   -4.3136 O   0  0  0  0  0  0  0  0  0  0  0  0
   16.6099   20.8749   -4.9657 H   0  0  0  0  0  0  0  0  0  0  0  0
   15.8299   23.8157   -2.9303 C   0  0  0  0  0  0  0  0  0  0  0  0
   15.9210   25.1574   -3.5072 C   0  0  0  0  0  0  0  0  0  0  0  0
   15.2766   25.4905   -4.6738 C   0  0  0  0  0  0  0  0  0  0  0  0
   15.3661   26.7691   -5.2236 C   0  0  0  0  0  0  0  0  0  0  0  0
   16.1173   27.7196   -4.5827 C   0  0  0  0  0  0  0  0  0  0  0  0
   16.7734   27.4186   -3.4158 C   0  0  0  0  0  0  0  0  0  0  0  0
   16.6677   26.1348   -2.8879 C   0  0  0  0  0  0  0  0  0  0  0  0
  9 10  1  0  0  0
 10 11  1  0  0  0
 10  6  1  0  0  0
  6  7  1  0  0  0
  6  2  1  0  0  0
  2  3  2  0  0  0
  2  4  1  0  0  0
  4  1  1  0  0  0
  1 16  1  0  0  0
 16 17  1  0  0  0
 17 18  2  0  0  0
 18 19  1  0  0  0
 19 20  2  0  0  0
 20 21  1  0  0  0
 21 22  2  0  0  0
  1 12  1  0  0  0
 12 13  1  0  0  0
 12 14  2  0  0  0
 22 17  1  0  0  0
  7  8  1  0  0  0
  4  5  1  0  0  0
 13 15  1  0  0  0
M  END
> <minimizedAffinity>
-1.84744

> <CNNscore>
0.4018372893

> <CNNaffinity>
5.6717009544

> <CNN_VS>
2.2791008949

> <CNNaffinity_variance>
0.2989434302

$$$$
[H]OC(=O)[C@@]([H])(N([H])C(=O)[C@@]([H])(S[H])C([H])(C([H])([H])[H])C([H])([H])[H])C([H])([H])c1c([H])c([H])c([H])c([H])c1[H]


 22 22  0  0  0  0  0  0  0  0999 V2000
   13.9264   23.8023   -1.2124 C   0  0  0  0  0  0  0  0  0  0  0  0
   12.5780   21.6894   -1.0041 C   0  0  0  0  0  0  0  0  0  0  0  0
   13.3204   21.1784   -1.9023 O   0  0  0  0  0  0  0  0  0  0  0  0
   12.8337   23.0111   -0.6123 N   0  0  0  0  0  0  0  0  0  0  0  0
   12.2260   23.4315    0.1236 H   0  0  0  0  0  0  0  0  0  0  0  0
   11.5099   20.8419   -0.4527 C   0  0  0  0  0  0  0  0  0  0  0  0
   11.7844   20.7763    1.3606 S   0  0  0  0  0  0  0  0  0  0  0  0
   11.4288   22.0512    1.8486 H   0  0  0  0  0  0  0  0  0  0  0  0
    9.6705   21.9209    0.7368 C   0  0  0  0  0  0  0  0  0  0  0  0
   10.1399   21.4574   -0.6434 C   0  0  0  0  0  0  0  0  0  0  0  0
    9.1408   20.4402   -1.1334 C   0  0  0  0  0  0  0  0  0  0  0  0
   14.9585   24.0909   -0.2086 C   0  0  0  0  0  0  0  0  0  0  0  0
   16.0523   24.9029   -0.3920 O   0  0  0  0  0  0  0  0  0  0  0  0
   14.8577   23.5510    0.9463 O   0  0  0  0  0  0  0  0  0  0  0  0
   16.9725   24.5015   -0.2853 H   0  0  0  0  0  0  0  0  0  0  0  0
   13.3701   24.9754   -1.9459 C   0  0  0  0  0  0  0  0  0  0  0  0
   13.9990   25.2948   -3.2281 C   0  0  0  0  0  0  0  0  0  0  0  0
   14.9381   24.4715   -3.8003 C   0  0  0  0  0  0  0  0  0  0  0  0
   15.5381   24.7783   -5.0213 C   0  0  0  0  0  0  0  0  0  0  0  0
   15.1813   25.9327   -5.6684 C   0  0  0  0  0  0  0  0  0  0  0  0
   14.2465   26.7764   -5.1233 C   0  0  0  0  0  0  0  0  0  0  0  0
   13.6625   26.4469   -3.9033 C   0  0  0  0  0  0  0  0  0  0  0  0
  9 10  1  0  0  0
 10 11  1  0  0  0
 10  6  1  0  0  0
  6  7  1  0  0  0
  6  2  1  0  0  0
  2  3  2  0  0  0
  2  4  1  0  0  0
  4  1  1  0  0  0
  1 16  1  0  0  0
 16 17  1  0  0  0
 17 18  2  0  0  0
 18 19  1  0  0  0
 19 20  2  0  0  0
 20 21  1  0  0  0
 21 22  2  0  0  0
  1 12  1  0  0  0
 12 13  1  0  0  0
 12 14  2  0  0  0
 22 17  1  0  0  0
  7  8  1  0  0  0
  4  5  1  0  0  0
 13 15  1  0  0  0
M  END
> <minimizedAffinity>
-7.35465

> <CNNscore>
0.3672903478

> <CNNaffinity>
5.8643856049

> <CNN_VS>
2.1539323330

> <CNNaffinity_variance>
0.1356222630

$$$$
[H]OC(=O)[C@@]([H])(N([H])C(=O)[C@@]([H])(S[H])C([H])(C([H])([H])[H])C([H])([H])[H])C([H])([H])c1c([H])c([H])c([H])c([H])c1[H]


 22 22  0  0  0  0  0  0  0  0999 V2000
   14.1718   24.0571   -0.9707 C   0  0  0  0  0  0  0  0  0  0  0  0
   14.1173   25.7444   -2.8350 C   0  0  0  0  0  0  0  0  0  0  0  0
   12.8508   25.7708   -2.7160 O   0  0  0  0  0  0  0  0  0  0  0  0
   14.8411   24.8991   -1.9822 N   0  0  0  0  0  0  0  0  0  0  0  0
   15.8792   24.8761   -2.0787 H   0  0  0  0  0  0  0  0  0  0  0  0
   14.7137   26.6095   -3.8642 C   0  0  0  0  0  0  0  0  0  0  0  0
   16.4753   26.8292   -3.3994 S   0  0  0  0  0  0  0  0  0  0  0  0
   17.0981   25.5906   -3.6602 H   0  0  0  0  0  0  0  0  0  0  0  0
   15.4881   24.6338   -5.0722 C   0  0  0  0  0  0  0  0  0  0  0  0
   14.7229   25.9492   -5.2266 C   0  0  0  0  0  0  0  0  0  0  0  0
   15.4696   26.7809   -6.2383 C   0  0  0  0  0  0  0  0  0  0  0  0
   14.9361   24.0607    0.2832 C   0  0  0  0  0  0  0  0  0  0  0  0
   15.3619   25.1781    0.9608 O   0  0  0  0  0  0  0  0  0  0  0  0
   15.2493   22.9396    0.8127 O   0  0  0  0  0  0  0  0  0  0  0  0
   16.3530   25.3034    1.1068 H   0  0  0  0  0  0  0  0  0  0  0  0
   13.8496   22.7194   -1.5456 C   0  0  0  0  0  0  0  0  0  0  0  0
   12.5886   22.1158   -1.1134 C   0  0  0  0  0  0  0  0  0  0  0  0
   12.5192   20.8148   -0.6774 C   0  0  0  0  0  0  0  0  0  0  0  0
   11.3162   20.2403   -0.2677 C   0  0  0  0  0  0  0  0  0  0  0  0
   10.1718   20.9938   -0.3008 C   0  0  0  0  0  0  0  0  0  0  0  0
   10.2075   22.2962   -0.7312 C   0  0  0  0  0  0  0  0  0  0  0  0
   11.4212   22.8460   -1.1347 C   0  0  0  0  0  0  0  0  0  0  0  0
  9 10  1  0  0  0
 10 11  1  0  0  0
 10  6  1  0  0  0
  6  7  1  0  0  0
  6  2  1  0  0  0
  2  3  2  0  0  0
  2  4  1  0  0  0
  4  1  1  0  0  0
  1 16  1  0  0  0
 16 17  1  0  0  0
 17 18  2  0  0  0
 18 19  1  0  0  0
 19 20  2  0  0  0
 20 21  1  0  0  0
 21 22  2  0  0  0
  1 12  1  0  0  0
 12 13  1  0  0  0
 12 14  2  0  0  0
 22 17  1  0  0  0
  7  8  1  0  0  0
  4  5  1  0  0  0
 13 15  1  0  0  0
M  END
> <minimizedAffinity>
-6.48009

> <CNNscore>
0.3424401879

> <CNNaffinity>
5.9235301018

> <CNN_VS>
2.0284547806

> <CNNaffinity_variance>
0.3449897170

$$$$
[H]OC(=O)[C@@]([H])(N([H])C(=O)[C@@]([H])(S[H])C([H])(C([H])([H])[H])C([H])([H])[H])C([H])([H])c1c([H])c([H])c([H])c([H])c1[H]


 22 22  0  0  0  0  0  0  0  0999 V2000
   13.9791   24.5620   -2.3619 C   0  0  0  0  0  0  0  0  0  0  0  0
   13.8194   22.5905   -0.8083 C   0  0  0  0  0  0  0  0  0  0  0  0
   14.4578   23.2738    0.0546 O   0  0  0  0  0  0  0  0  0  0  0  0
   13.5465   23.1856   -2.0482 N   0  0  0  0  0  0  0  0  0  0  0  0
   13.0236   22.6268   -2.7565 H   0  0  0  0  0  0  0  0  0  0  0  0
   13.4215   21.2274   -0.4254 C   0  0  0  0  0  0  0  0  0  0  0  0
   14.7688   20.5729    0.6349 S   0  0  0  0  0  0  0  0  0  0  0  0
   14.6631   21.2645    1.8598 H   0  0  0  0  0  0  0  0  0  0  0  0
   12.6073   20.7661    1.8300 C   0  0  0  0  0  0  0  0  0  0  0  0
   12.1753   21.2189    0.4342 C   0  0  0  0  0  0  0  0  0  0  0  0
   11.1666   20.2160   -0.0653 C   0  0  0  0  0  0  0  0  0  0  0  0
   12.8398   25.4852   -2.2845 C   0  0  0  0  0  0  0  0  0  0  0  0
   12.4989   26.4211   -3.2317 O   0  0  0  0  0  0  0  0  0  0  0  0
   12.0823   25.4383   -1.2552 O   0  0  0  0  0  0  0  0  0  0  0  0
   12.4794   27.3937   -2.9615 H   0  0  0  0  0  0  0  0  0  0  0  0
   14.7601   24.5795   -3.6321 C   0  0  0  0  0  0  0  0  0  0  0  0
   15.5241   25.7973   -3.9055 C   0  0  0  0  0  0  0  0  0  0  0  0
   16.4341   26.2995   -3.0072 C   0  0  0  0  0  0  0  0  0  0  0  0
   17.1600   27.4614   -3.2683 C   0  0  0  0  0  0  0  0  0  0  0  0
   16.9604   28.1204   -4.4534 C   0  0  0  0  0  0  0  0  0  0  0  0
   16.0586   27.6447   -5.3717 C   0  0  0  0  0  0  0  0  0  0  0  0
   15.3467   26.4827   -5.0867 C   0  0  0  0  0  0  0  0  0  0  0  0
  9 10  1  0  0  0
 10 11  1  0  0  0
 10  6  1  0  0  0
  6  7  1  0  0  0
  6  2  1  0  0  0
  2  3  2  0  0  0
  2  4  1  0  0  0
  4  1  1  0  0  0
  1 16  1  0  0  0
 16 17  1  0  0  0
 17 18  2  0  0  0
 18 19  1  0  0  0
 19 20  2  0  0  0
 20 21  1  0  0  0
 21 22  2  0  0  0
  1 12  1  0  0  0
 12 13  1  0  0  0
 12 14  2  0  0  0
 22 17  1  0  0  0
  7  8  1  0  0  0
  4  5  1  0  0  0
 13 15  1  0  0  0
M  END
> <minimizedAffinity>
-7.38840

> <CNNscore>
0.3251772821

> <CNNaffinity>
5.7269105911

> <CNN_VS>
1.8622611761

> <CNNaffinity_variance>
0.1872168481

$$$$
[H]OC(=O)[C@@]([H])(N([H])C(=O)[C@@]([H])(S[H])C([H])(C([H])([H])[H])C([H])([H])[H])C([H])([H])c1c([H])c([H])c([H])c([H])c1[H]


 22 22  0  0  0  0  0  0  0  0999 V2000
   12.7118   24.5817   -2.1241 C   0  0  0  0  0  0  0  0  0  0  0  0
   14.2959   23.4739   -0.5150 C   0  0  0  0  0  0  0  0  0  0  0  0
   14.2389   22.4322   -1.2435 O   0  0  0  0  0  0  0  0  0  0  0  0
   13.5472   24.5928   -0.9067 N   0  0  0  0  0  0  0  0  0  0  0  0
   13.5927   25.4472   -0.3106 H   0  0  0  0  0  0  0  0  0  0  0  0
   15.1483   23.4110    0.6819 C   0  0  0  0  0  0  0  0  0  0  0  0
   15.8797   21.7282    0.7094 S   0  0  0  0  0  0  0  0  0  0  0  0
   16.8323   21.7070   -0.3308 H   0  0  0  0  0  0  0  0  0  0  0  0
   15.8293   25.7059    1.1636 C   0  0  0  0  0  0  0  0  0  0  0  0
   16.3166   24.3703    0.5991 C   0  0  0  0  0  0  0  0  0  0  0  0
   16.7288   24.6165   -0.8300 C   0  0  0  0  0  0  0  0  0  0  0  0
   13.2395   25.5293   -3.1140 C   0  0  0  0  0  0  0  0  0  0  0  0
   12.7205   26.7710   -3.3932 O   0  0  0  0  0  0  0  0  0  0  0  0
   14.2708   25.1953   -3.7924 O   0  0  0  0  0  0  0  0  0  0  0  0
   12.4030   26.9592   -4.3330 H   0  0  0  0  0  0  0  0  0  0  0  0
   11.2731   24.7348   -1.7628 C   0  0  0  0  0  0  0  0  0  0  0  0
   10.6694   23.6247   -1.0247 C   0  0  0  0  0  0  0  0  0  0  0  0
    9.9725   23.8236    0.1423 C   0  0  0  0  0  0  0  0  0  0  0  0
    9.3994   22.7644    0.8457 C   0  0  0  0  0  0  0  0  0  0  0  0
    9.5350   21.4901    0.3597 C   0  0  0  0  0  0  0  0  0  0  0  0
   10.2252   21.2579   -0.8033 C   0  0  0  0  0  0  0  0  0  0  0  0
   10.7876   22.3327   -1.4864 C   0  0  0  0  0  0  0  0  0  0  0  0
  9 10  1  0  0  0
 10 11  1  0  0  0
 10  6  1  0  0  0
  6  7  1  0  0  0
  6  2  1  0  0  0
  2  3  2  0  0  0
  2  4  1  0  0  0
  4  1  1  0  0  0
  1 16  1  0  0  0
 16 17  1  0  0  0
 17 18  2  0  0  0
 18 19  1  0  0  0
 19 20  2  0  0  0
 20 21  1  0  0  0
 21 22  2  0  0  0
  1 12  1  0  0  0
 12 13  1  0  0  0
 12 14  2  0  0  0
 22 17  1  0  0  0
  7  8  1  0  0  0
  4  5  1  0  0  0
 13 15  1  0  0  0
M  END
> <minimizedAffinity>
-3.09169

> <CNNscore>
0.3070690334

> <CNNaffinity>
5.3794732094

> <CNN_VS>
1.6518696547

> <CNNaffinity_variance>
0.4085293412

$$$$
[H]OC(=O)[C@@]([H])(N([H])C(=O)[C@@]([H])(N([H])C(=O)[C@@]([H])(N([H])C(=O)[C@@]1([H])N(C(=O)[C@@]([H])(N([H])[H])C([H])([H])c2c([H])c([H])c(O[H])c([H])c2[H])C([H])([H])C([H])([H])C1([H])[H])C([H])([H])c1c([H])c([H])c([H])c([H])c1[H])C([H])([H])C([H])(C([H])([H])[H])C([H])([H])[H])C([H])([H])c1c([H])c([H])c([H])c([H])c1[H]


 57 60  0  0  0  0  0  0  0  0999 V2000
   10.9327   21.1985   -0.3343 C   0  0  0  0  0  0  0  0  0  0  0  0
   11.3416   22.5893   -0.3992 N   0  0  0  0  0  0  0  0  0  0  0  0
   12.2396   23.2603    0.4299 C   0  0  0  0  0  0  0  0  0  0  0  0
   12.8075   22.6316    1.3580 O   0  0  0  0  0  0  0  0  0  0  0  0
   10.8803   23.1327   -1.1886 H   0  0  0  0  0  0  0  0  0  0  0  0
   12.5723   24.7022    0.2813 C   0  0  0  0  0  0  0  0  0  0  0  0
   11.5736   25.5017   -0.4675 C   0  0  0  0  0  0  0  0  0  0  0  0
   11.8976   25.3490   -1.9292 C   0  0  0  0  0  0  0  0  0  0  0  0
   13.2742   24.6613   -1.9099 C   0  0  0  0  0  0  0  0  0  0  0  0
   13.7614   24.8406   -0.5826 N   0  0  0  0  0  0  0  0  0  0  0  0
   15.0487   25.1106   -0.1214 C   0  0  0  0  0  0  0  0  0  0  0  0
   15.2498   25.3332    1.1523 O   0  0  0  0  0  0  0  0  0  0  0  0
   16.3091   25.1867   -0.8954 C   0  0  0  0  0  0  0  0  0  0  0  0
   17.4401   24.5707   -0.3132 N   0  0  0  0  0  0  0  0  0  0  0  0
   18.1048   25.1735    0.1738 H   0  0  0  0  0  0  0  0  0  0  0  0
   17.7158   23.6435   -0.6017 H   0  0  0  0  0  0  0  0  0  0  0  0
   16.1229   24.6326   -2.3150 C   0  0  0  0  0  0  0  0  0  0  0  0
   16.0208   25.7529   -3.2606 C   0  0  0  0  0  0  0  0  0  0  0  0
   15.2473   25.8160   -4.3763 C   0  0  0  0  0  0  0  0  0  0  0  0
   15.2134   26.9045   -5.2437 C   0  0  0  0  0  0  0  0  0  0  0  0
   16.0244   27.9740   -4.9278 C   0  0  0  0  0  0  0  0  0  0  0  0
   16.0345   29.0910   -5.7577 O   0  0  0  0  0  0  0  0  0  0  0  0
   16.8197   27.9485   -3.8084 C   0  0  0  0  0  0  0  0  0  0  0  0
   16.8252   26.8642   -2.9850 C   0  0  0  0  0  0  0  0  0  0  0  0
   16.5898   29.8989   -5.5981 H   0  0  0  0  0  0  0  0  0  0  0  0
   10.2672   21.3171    2.1840 N   0  0  0  0  0  0  0  0  0  0  0  0
   10.3839   20.7584    0.9185 C   0  0  0  0  0  0  0  0  0  0  0  0
    9.8663   19.5437    0.8558 O   0  0  0  0  0  0  0  0  0  0  0  0
   10.5542   22.2698    2.4324 H   0  0  0  0  0  0  0  0  0  0  0  0
    9.6462   20.5814    3.3474 C   0  0  0  0  0  0  0  0  0  0  0  0
    8.2356   20.9382    3.3953 C   0  0  0  0  0  0  0  0  0  0  0  0
    7.5274   20.0816    4.0890 O   0  0  0  0  0  0  0  0  0  0  0  0
    7.5142   21.9867    2.8572 N   0  0  0  0  0  0  0  0  0  0  0  0
    7.9270   22.7117    2.2681 H   0  0  0  0  0  0  0  0  0  0  0  0
    6.0396   22.0586    3.1300 C   0  0  0  0  0  0  0  0  0  0  0  0
    5.8385   22.3268    4.5647 C   0  0  0  0  0  0  0  0  0  0  0  0
    5.5739   23.5689    5.1130 O   0  0  0  0  0  0  0  0  0  0  0  0
    5.9080   21.3611    5.3815 O   0  0  0  0  0  0  0  0  0  0  0  0
    6.2962   24.2777    5.2587 H   0  0  0  0  0  0  0  0  0  0  0  0
    5.4932   20.7649    2.6384 C   0  0  0  0  0  0  0  0  0  0  0  0
    5.5644   20.5059    1.2070 C   0  0  0  0  0  0  0  0  0  0  0  0
    5.2490   21.4905    0.3022 C   0  0  0  0  0  0  0  0  0  0  0  0
    5.3125   21.2251   -1.0539 C   0  0  0  0  0  0  0  0  0  0  0  0
    5.6881   19.9856   -1.5591 C   0  0  0  0  0  0  0  0  0  0  0  0
    6.0050   18.9980   -0.6473 C   0  0  0  0  0  0  0  0  0  0  0  0
    5.9358   19.2790    0.6888 C   0  0  0  0  0  0  0  0  0  0  0  0
   10.5043   20.6965    4.5229 C   0  0  0  0  0  0  0  0  0  0  0  0
   12.0482   18.8781    3.9393 C   0  0  0  0  0  0  0  0  0  0  0  0
   11.2188   19.5392    5.0751 C   0  0  0  0  0  0  0  0  0  0  0  0
   10.1952   18.4308    5.4244 C   0  0  0  0  0  0  0  0  0  0  0  0
   11.8007   20.3155   -1.1247 C   0  0  0  0  0  0  0  0  0  0  0  0
   13.2630   20.4774   -1.0014 C   0  0  0  0  0  0  0  0  0  0  0  0
   13.9598   21.1662   -2.0289 C   0  0  0  0  0  0  0  0  0  0  0  0
   15.3076   21.3899   -1.9493 C   0  0  0  0  0  0  0  0  0  0  0  0
   16.0432   20.9450   -0.8481 C   0  0  0  0  0  0  0  0  0  0  0  0
   15.3920   20.2768    0.1584 C   0  0  0  0  0  0  0  0  0  0  0  0
   14.0251   20.0686    0.0435 C   0  0  0  0  0  0  0  0  0  0  0  0
 48 49  1  0  0  0
 49 50  1  0  0  0
 49 47  1  0  0  0
 47 30  1  0  0  0
 30 26  1  0  0  0
 26 27  1  0  0  0
 27 28  2  0  0  0
 27  1  1  0  0  0
  1 51  1  0  0  0
 51 52  1  0  0  0
 52 53  2  0  0  0
 53 54  1  0  0  0
 54 55  2  0  0  0
 55 56  1  0  0  0
 56 57  2  0  0  0
  1  2  1  0  0  0
  2  3  1  0  0  0
  3  4  2  0  0  0
  3  6  1  0  0  0
  6  7  1  0  0  0
  7  8  1  0  0  0
  8  9  1  0  0  0
  9 10  1  0  0  0
 10 11  1  0  0  0
 11 12  2  0  0  0
 11 13  1  0  0  0
 13 14  1  0  0  0
 13 17  1  0  0  0
 17 18  1  0  0  0
 18 19  2  0  0  0
 19 20  1  0  0  0
 20 21  2  0  0  0
 21 22  1  0  0  0
 21 23  1  0  0  0
 23 24  2  0  0  0
 30 31  1  0  0  0
 31 32  2  0  0  0
 31 33  1  0  0  0
 33 35  1  0  0  0
 35 40  1  0  0  0
 40 41  1  0  0  0
 41 42  2  0  0  0
 42 43  1  0  0  0
 43 44  2  0  0  0
 44 45  1  0  0  0
 45 46  2  0  0  0
 35 36  1  0  0  0
 36 37  1  0  0  0
 36 38  2  0  0  0
 57 52  1  0  0  0
 10  6  1  0  0  0
 24 18  1  0  0  0
 46 41  1  0  0  0
 26 29  1  0  0  0
  2  5  1  0  0  0
 14 15  1  0  0  0
 14 16  1  0  0  0
 22 25  1  0  0  0
 33 34  1  0  0  0
 37 39  1  0  0  0
M  END
> <minimizedAffinity>
-3.66551

> <CNNscore>
0.6042225361

> <CNNaffinity>
8.1961851120

> <CNN_VS>
4.9523196220

> <CNNaffinity_variance>
0.2741836905

$$$$
[H]OC(=O)[C@@]([H])(N([H])C(=O)[C@@]([H])(N([H])C(=O)[C@@]([H])(N([H])C(=O)[C@@]1([H])N(C(=O)[C@@]([H])(N([H])[H])C([H])([H])c2c([H])c([H])c(O[H])c([H])c2[H])C([H])([H])C([H])([H])C1([H])[H])C([H])([H])c1c([H])c([H])c([H])c([H])c1[H])C([H])([H])C([H])(C([H])([H])[H])C([H])([H])[H])C([H])([H])c1c([H])c([H])c([H])c([H])c1[H]


 57 60  0  0  0  0  0  0  0  0999 V2000
   12.5895   21.0410   -0.0985 C   0  0  0  0  0  0  0  0  0  0  0  0
   12.7488   22.4246   -0.5058 N   0  0  0  0  0  0  0  0  0  0  0  0
   12.6863   23.5673    0.2908 C   0  0  0  0  0  0  0  0  0  0  0  0
   12.4827   23.4463    1.5250 O   0  0  0  0  0  0  0  0  0  0  0  0
   12.9357   22.5439   -1.5460 H   0  0  0  0  0  0  0  0  0  0  0  0
   12.8476   24.9469   -0.2405 C   0  0  0  0  0  0  0  0  0  0  0  0
   11.7363   25.4217   -1.0989 C   0  0  0  0  0  0  0  0  0  0  0  0
   12.0179   24.9282   -2.4924 C   0  0  0  0  0  0  0  0  0  0  0  0
   13.4632   24.4090   -2.3917 C   0  0  0  0  0  0  0  0  0  0  0  0
   13.9787   24.9738   -1.1890 N   0  0  0  0  0  0  0  0  0  0  0  0
   15.2442   25.4806   -0.8987 C   0  0  0  0  0  0  0  0  0  0  0  0
   15.4687   26.0447    0.2606 O   0  0  0  0  0  0  0  0  0  0  0  0
   16.4566   25.4780   -1.7493 C   0  0  0  0  0  0  0  0  0  0  0  0
   16.5078   24.4957   -2.7643 N   0  0  0  0  0  0  0  0  0  0  0  0
   17.0555   23.6548   -2.5769 H   0  0  0  0  0  0  0  0  0  0  0  0
   16.2559   24.7341   -3.7122 H   0  0  0  0  0  0  0  0  0  0  0  0
   16.6913   26.8554   -2.3852 C   0  0  0  0  0  0  0  0  0  0  0  0
   16.3108   26.8031   -3.8037 C   0  0  0  0  0  0  0  0  0  0  0  0
   16.7909   27.5798   -4.8104 C   0  0  0  0  0  0  0  0  0  0  0  0
   16.3702   27.4915   -6.1347 C   0  0  0  0  0  0  0  0  0  0  0  0
   15.4055   26.5475   -6.4168 C   0  0  0  0  0  0  0  0  0  0  0  0
   14.9443   26.4127   -7.7228 O   0  0  0  0  0  0  0  0  0  0  0  0
   14.8964   25.7431   -5.4269 C   0  0  0  0  0  0  0  0  0  0  0  0
   15.3335   25.8609   -4.1429 C   0  0  0  0  0  0  0  0  0  0  0  0
   14.2530   25.7576   -8.0049 H   0  0  0  0  0  0  0  0  0  0  0  0
   11.4695   21.3224    2.2393 N   0  0  0  0  0  0  0  0  0  0  0  0
   11.6568   20.7988    0.9672 C   0  0  0  0  0  0  0  0  0  0  0  0
   10.7679   19.8661    0.6718 O   0  0  0  0  0  0  0  0  0  0  0  0
   12.0145   22.0921    2.6419 H   0  0  0  0  0  0  0  0  0  0  0  0
   10.3858   20.8354    3.1714 C   0  0  0  0  0  0  0  0  0  0  0  0
    9.1723   21.5801    2.8675 C   0  0  0  0  0  0  0  0  0  0  0  0
    9.1638   22.0415    1.6412 O   0  0  0  0  0  0  0  0  0  0  0  0
    8.0500   21.8894    3.6118 N   0  0  0  0  0  0  0  0  0  0  0  0
    7.9319   21.6241    4.5910 H   0  0  0  0  0  0  0  0  0  0  0  0
    6.9504   22.6770    2.9600 C   0  0  0  0  0  0  0  0  0  0  0  0
    6.1228   21.7573    2.1600 C   0  0  0  0  0  0  0  0  0  0  0  0
    5.3192   20.7565    2.6757 O   0  0  0  0  0  0  0  0  0  0  0  0
    6.1297   21.8711    0.8983 O   0  0  0  0  0  0  0  0  0  0  0  0
    5.6880   19.8617    3.0054 H   0  0  0  0  0  0  0  0  0  0  0  0
    7.6450   23.7452    2.1915 C   0  0  0  0  0  0  0  0  0  0  0  0
    7.9765   24.9744    2.8987 C   0  0  0  0  0  0  0  0  0  0  0  0
    6.9847   25.7719    3.4164 C   0  0  0  0  0  0  0  0  0  0  0  0
    7.3163   26.9412    4.0769 C   0  0  0  0  0  0  0  0  0  0  0  0
    8.6310   27.3594    4.2481 C   0  0  0  0  0  0  0  0  0  0  0  0
    9.6258   26.5555    3.7271 C   0  0  0  0  0  0  0  0  0  0  0  0
    9.2784   25.4041    3.0770 C   0  0  0  0  0  0  0  0  0  0  0  0
   10.9056   20.7435    4.5325 C   0  0  0  0  0  0  0  0  0  0  0  0
   11.5864   18.3854    4.4517 C   0  0  0  0  0  0  0  0  0  0  0  0
   10.8759   19.4854    5.2883 C   0  0  0  0  0  0  0  0  0  0  0  0
    9.4188   18.9646    5.3488 C   0  0  0  0  0  0  0  0  0  0  0  0
   13.8404   20.2763   -0.1891 C   0  0  0  0  0  0  0  0  0  0  0  0
   15.0562   20.8471    0.4239 C   0  0  0  0  0  0  0  0  0  0  0  0
   15.2745   22.2465    0.3250 C   0  0  0  0  0  0  0  0  0  0  0  0
   16.3576   22.8418    0.9129 C   0  0  0  0  0  0  0  0  0  0  0  0
   17.2866   22.0864    1.6326 C   0  0  0  0  0  0  0  0  0  0  0  0
   17.0971   20.7316    1.7427 C   0  0  0  0  0  0  0  0  0  0  0  0
   15.9876   20.1630    1.1338 C   0  0  0  0  0  0  0  0  0  0  0  0
 48 49  1  0  0  0
 49 50  1  0  0  0
 49 47  1  0  0  0
 47 30  1  0  0  0
 30 26  1  0  0  0
 26 27  1  0  0  0
 27 28  2  0  0  0
 27  1  1  0  0  0
  1 51  1  0  0  0
 51 52  1  0  0  0
 52 53  2  0  0  0
 53 54  1  0  0  0
 54 55  2  0  0  0
 55 56  1  0  0  0
 56 57  2  0  0  0
  1  2  1  0  0  0
  2  3  1  0  0  0
  3  4  2  0  0  0
  3  6  1  0  0  0
  6  7  1  0  0  0
  7  8  1  0  0  0
  8  9  1  0  0  0
  9 10  1  0  0  0
 10 11  1  0  0  0
 11 12  2  0  0  0
 11 13  1  0  0  0
 13 14  1  0  0  0
 13 17  1  0  0  0
 17 18  1  0  0  0
 18 19  2  0  0  0
 19 20  1  0  0  0
 20 21  2  0  0  0
 21 22  1  0  0  0
 21 23  1  0  0  0
 23 24  2  0  0  0
 30 31  1  0  0  0
 31 32  2  0  0  0
 31 33  1  0  0  0
 33 35  1  0  0  0
 35 40  1  0  0  0
 40 41  1  0  0  0
 41 42  2  0  0  0
 42 43  1  0  0  0
 43 44  2  0  0  0
 44 45  1  0  0  0
 45 46  2  0  0  0
 35 36  1  0  0  0
 36 37  1  0  0  0
 36 38  2  0  0  0
 57 52  1  0  0  0
 10  6  1  0  0  0
 24 18  1  0  0  0
 46 41  1  0  0  0
 26 29  1  0  0  0
  2  5  1  0  0  0
 14 15  1  0  0  0
 14 16  1  0  0  0
 22 25  1  0  0  0
 33 34  1  0  0  0
 37 39  1  0  0  0
M  END
> <minimizedAffinity>
-1.97054

> <CNNscore>
0.5654627085

> <CNNaffinity>
8.2930603027

> <CNN_VS>
4.6894164085

> <CNNaffinity_variance>
0.4783771932

$$$$
[H]OC(=O)[C@@]([H])(N([H])C(=O)[C@@]([H])(N([H])C(=O)[C@@]([H])(N([H])C(=O)[C@@]1([H])N(C(=O)[C@@]([H])(N([H])[H])C([H])([H])c2c([H])c([H])c(O[H])c([H])c2[H])C([H])([H])C([H])([H])C1([H])[H])C([H])([H])c1c([H])c([H])c([H])c([H])c1[H])C([H])([H])C([H])(C([H])([H])[H])C([H])([H])[H])C([H])([H])c1c([H])c([H])c([H])c([H])c1[H]


 57 60  0  0  0  0  0  0  0  0999 V2000
   12.3957   25.5764   -1.2253 C   0  0  0  0  0  0  0  0  0  0  0  0
   13.5891   24.7515   -1.2595 N   0  0  0  0  0  0  0  0  0  0  0  0
   14.0017   23.8789   -2.2657 C   0  0  0  0  0  0  0  0  0  0  0  0
   13.3012   23.7600   -3.3022 O   0  0  0  0  0  0  0  0  0  0  0  0
   14.2007   24.8509   -0.3951 H   0  0  0  0  0  0  0  0  0  0  0  0
   15.2432   23.0640   -2.1858 C   0  0  0  0  0  0  0  0  0  0  0  0
   15.7797   22.6099   -3.4908 C   0  0  0  0  0  0  0  0  0  0  0  0
   15.0535   21.3401   -3.8447 C   0  0  0  0  0  0  0  0  0  0  0  0
   14.3088   20.9917   -2.5438 C   0  0  0  0  0  0  0  0  0  0  0  0
   14.9381   21.7753   -1.5332 N   0  0  0  0  0  0  0  0  0  0  0  0
   15.2513   21.4628   -0.2116 C   0  0  0  0  0  0  0  0  0  0  0  0
   15.9247   22.3164    0.5166 O   0  0  0  0  0  0  0  0  0  0  0  0
   14.9170   20.2379    0.5510 C   0  0  0  0  0  0  0  0  0  0  0  0
   15.2655   20.2380    1.9208 N   0  0  0  0  0  0  0  0  0  0  0  0
   16.1248   19.7553    2.1869 H   0  0  0  0  0  0  0  0  0  0  0  0
   14.5701   20.4544    2.6197 H   0  0  0  0  0  0  0  0  0  0  0  0
   13.4264   19.8936    0.4224 C   0  0  0  0  0  0  0  0  0  0  0  0
   12.7201   20.3496    1.6276 C   0  0  0  0  0  0  0  0  0  0  0  0
   12.3717   21.6256    1.9402 C   0  0  0  0  0  0  0  0  0  0  0  0
   11.7189   21.9927    3.1139 C   0  0  0  0  0  0  0  0  0  0  0  0
   11.4169   20.9786    3.9981 C   0  0  0  0  0  0  0  0  0  0  0  0
   10.7654   21.2837    5.1893 O   0  0  0  0  0  0  0  0  0  0  0  0
   11.7516   19.6765    3.7176 C   0  0  0  0  0  0  0  0  0  0  0  0
   12.3908   19.3581    2.5584 C   0  0  0  0  0  0  0  0  0  0  0  0
   10.5142   20.6108    5.8754 H   0  0  0  0  0  0  0  0  0  0  0  0
   10.7654   24.4121    0.4438 N   0  0  0  0  0  0  0  0  0  0  0  0
   11.1948   24.9326   -0.7696 C   0  0  0  0  0  0  0  0  0  0  0  0
   10.2845   24.8083   -1.7200 O   0  0  0  0  0  0  0  0  0  0  0  0
   11.2957   24.4561    1.3204 H   0  0  0  0  0  0  0  0  0  0  0  0
    9.4185   23.7519    0.6183 C   0  0  0  0  0  0  0  0  0  0  0  0
    8.8053   24.3061    1.8167 C   0  0  0  0  0  0  0  0  0  0  0  0
    7.5386   23.9884    1.9218 O   0  0  0  0  0  0  0  0  0  0  0  0
    9.2942   25.0903    2.8440 N   0  0  0  0  0  0  0  0  0  0  0  0
   10.2530   25.4405    2.8791 H   0  0  0  0  0  0  0  0  0  0  0  0
    8.3661   25.4711    3.9611 C   0  0  0  0  0  0  0  0  0  0  0  0
    8.2341   24.3235    4.8756 C   0  0  0  0  0  0  0  0  0  0  0  0
    9.2873   23.5821    5.3800 O   0  0  0  0  0  0  0  0  0  0  0  0
    7.0757   23.9674    5.2446 O   0  0  0  0  0  0  0  0  0  0  0  0
    9.7773   22.8697    4.8344 H   0  0  0  0  0  0  0  0  0  0  0  0
    7.1102   25.9012    3.2890 C   0  0  0  0  0  0  0  0  0  0  0  0
    6.6251   27.2456    3.5683 C   0  0  0  0  0  0  0  0  0  0  0  0
    5.7632   27.4744    4.6135 C   0  0  0  0  0  0  0  0  0  0  0  0
    5.3042   28.7561    4.8592 C   0  0  0  0  0  0  0  0  0  0  0  0
    5.6794   29.8486    4.0858 C   0  0  0  0  0  0  0  0  0  0  0  0
    6.5462   29.6157    3.0362 C   0  0  0  0  0  0  0  0  0  0  0  0
    6.9885   28.3423    2.8087 C   0  0  0  0  0  0  0  0  0  0  0  0
    9.5423   22.3110    0.4193 C   0  0  0  0  0  0  0  0  0  0  0  0
    8.7794   20.2635   -0.7018 C   0  0  0  0  0  0  0  0  0  0  0  0
    9.3548   21.6935   -0.8992 C   0  0  0  0  0  0  0  0  0  0  0  0
   10.7413   21.4076   -1.5270 C   0  0  0  0  0  0  0  0  0  0  0  0
   12.3531   26.5564   -2.3186 C   0  0  0  0  0  0  0  0  0  0  0  0
   13.5017   26.6241   -3.2438 C   0  0  0  0  0  0  0  0  0  0  0  0
   14.8133   26.6213   -2.7003 C   0  0  0  0  0  0  0  0  0  0  0  0
   15.9187   26.6344   -3.5071 C   0  0  0  0  0  0  0  0  0  0  0  0
   15.7895   26.6507   -4.8981 C   0  0  0  0  0  0  0  0  0  0  0  0
   14.5318   26.6533   -5.4474 C   0  0  0  0  0  0  0  0  0  0  0  0
   13.4346   26.6394   -4.5983 C   0  0  0  0  0  0  0  0  0  0  0  0
 48 49  1  0  0  0
 49 50  1  0  0  0
 49 47  1  0  0  0
 47 30  1  0  0  0
 30 26  1  0  0  0
 26 27  1  0  0  0
 27 28  2  0  0  0
 27  1  1  0  0  0
  1 51  1  0  0  0
 51 52  1  0  0  0
 52 53  2  0  0  0
 53 54  1  0  0  0
 54 55  2  0  0  0
 55 56  1  0  0  0
 56 57  2  0  0  0
  1  2  1  0  0  0
  2  3  1  0  0  0
  3  4  2  0  0  0
  3  6  1  0  0  0
  6  7  1  0  0  0
  7  8  1  0  0  0
  8  9  1  0  0  0
  9 10  1  0  0  0
 10 11  1  0  0  0
 11 12  2  0  0  0
 11 13  1  0  0  0
 13 14  1  0  0  0
 13 17  1  0  0  0
 17 18  1  0  0  0
 18 19  2  0  0  0
 19 20  1  0  0  0
 20 21  2  0  0  0
 21 22  1  0  0  0
 21 23  1  0  0  0
 23 24  2  0  0  0
 30 31  1  0  0  0
 31 32  2  0  0  0
 31 33  1  0  0  0
 33 35  1  0  0  0
 35 40  1  0  0  0
 40 41  1  0  0  0
 41 42  2  0  0  0
 42 43  1  0  0  0
 43 44  2  0  0  0
 44 45  1  0  0  0
 45 46  2  0  0  0
 35 36  1  0  0  0
 36 37  1  0  0  0
 36 38  2  0  0  0
 57 52  1  0  0  0
 10  6  1  0  0  0
 24 18  1  0  0  0
 46 41  1  0  0  0
 26 29  1  0  0  0
  2  5  1  0  0  0
 14 15  1  0  0  0
 14 16  1  0  0  0
 22 25  1  0  0  0
 33 34  1  0  0  0
 37 39  1  0  0  0
M  END
> <minimizedAffinity>
-1.45798

> <CNNscore>
0.5237206817

> <CNNaffinity>
7.9560384750

> <CNN_VS>
4.1667418480

> <CNNaffinity_variance>
0.4201537073

$$$$
[H]OC(=O)[C@@]([H])(N([H])C(=O)[C@@]([H])(N([H])C(=O)[C@@]([H])(N([H])C(=O)[C@@]1([H])N(C(=O)[C@@]([H])(N([H])[H])C([H])([H])c2c([H])c([H])c(O[H])c([H])c2[H])C([H])([H])C([H])([H])C1([H])[H])C([H])([H])c1c([H])c([H])c([H])c([H])c1[H])C([H])([H])C([H])(C([H])([H])[H])C([H])([H])[H])C([H])([H])c1c([H])c([H])c([H])c([H])c1[H]


 57 60  0  0  0  0  0  0  0  0999 V2000
   12.2670   20.6542    0.7029 C   0  0  0  0  0  0  0  0  0  0  0  0
   12.9515   21.8755    0.3214 N   0  0  0  0  0  0  0  0  0  0  0  0
   12.6322   23.1857    0.6755 C   0  0  0  0  0  0  0  0  0  0  0  0
   11.6480   23.3971    1.4277 O   0  0  0  0  0  0  0  0  0  0  0  0
   13.7959   21.7130   -0.3045 H   0  0  0  0  0  0  0  0  0  0  0  0
   13.3989   24.3713    0.2080 C   0  0  0  0  0  0  0  0  0  0  0  0
   12.6495   25.6500    0.2288 C   0  0  0  0  0  0  0  0  0  0  0  0
   11.8799   25.7273   -1.0622 C   0  0  0  0  0  0  0  0  0  0  0  0
   12.4681   24.5690   -1.8872 C   0  0  0  0  0  0  0  0  0  0  0  0
   13.6871   24.2271   -1.2327 N   0  0  0  0  0  0  0  0  0  0  0  0
   14.9217   23.8526   -1.7601 C   0  0  0  0  0  0  0  0  0  0  0  0
   15.9430   23.6745   -0.9616 O   0  0  0  0  0  0  0  0  0  0  0  0
   15.2837   23.6041   -3.1746 C   0  0  0  0  0  0  0  0  0  0  0  0
   14.9707   22.3241   -3.6858 N   0  0  0  0  0  0  0  0  0  0  0  0
   15.7260   21.6386   -3.7304 H   0  0  0  0  0  0  0  0  0  0  0  0
   14.1318   22.1881   -4.2304 H   0  0  0  0  0  0  0  0  0  0  0  0
   14.6720   24.6663   -4.0989 C   0  0  0  0  0  0  0  0  0  0  0  0
   15.5443   25.8488   -4.1185 C   0  0  0  0  0  0  0  0  0  0  0  0
   15.6424   26.7789   -5.1047 C   0  0  0  0  0  0  0  0  0  0  0  0
   16.5084   27.8685   -5.0685 C   0  0  0  0  0  0  0  0  0  0  0  0
   17.3053   27.9897   -3.9498 C   0  0  0  0  0  0  0  0  0  0  0  0
   18.1921   29.0581   -3.8565 O   0  0  0  0  0  0  0  0  0  0  0  0
   17.2346   27.0708   -2.9316 C   0  0  0  0  0  0  0  0  0  0  0  0
   16.3747   26.0178   -3.0050 C   0  0  0  0  0  0  0  0  0  0  0  0
   18.7977   29.2140   -3.0848 H   0  0  0  0  0  0  0  0  0  0  0  0
    9.9047   21.5551    0.0647 N   0  0  0  0  0  0  0  0  0  0  0  0
   10.8522   20.6185    0.4555 C   0  0  0  0  0  0  0  0  0  0  0  0
   10.3276   19.4187    0.6366 O   0  0  0  0  0  0  0  0  0  0  0  0
   10.1107   22.5294   -0.1799 H   0  0  0  0  0  0  0  0  0  0  0  0
    8.4409   21.2192   -0.0923 C   0  0  0  0  0  0  0  0  0  0  0  0
    7.8058   21.3878    1.2068 C   0  0  0  0  0  0  0  0  0  0  0  0
    6.6236   21.9452    1.1159 O   0  0  0  0  0  0  0  0  0  0  0  0
    8.2050   21.0801    2.4934 N   0  0  0  0  0  0  0  0  0  0  0  0
    9.1136   20.6721    2.7197 H   0  0  0  0  0  0  0  0  0  0  0  0
    7.2675   21.3795    3.6273 C   0  0  0  0  0  0  0  0  0  0  0  0
    6.2697   20.2987    3.7112 C   0  0  0  0  0  0  0  0  0  0  0  0
    5.4010   19.9368    2.6974 O   0  0  0  0  0  0  0  0  0  0  0  0
    6.1800   19.6331    4.7852 O   0  0  0  0  0  0  0  0  0  0  0  0
    4.5548   20.4658    2.4750 H   0  0  0  0  0  0  0  0  0  0  0  0
    6.7224   22.7316    3.3299 C   0  0  0  0  0  0  0  0  0  0  0  0
    7.5001   23.8815    3.7705 C   0  0  0  0  0  0  0  0  0  0  0  0
    7.3151   24.4110    5.0247 C   0  0  0  0  0  0  0  0  0  0  0  0
    8.0552   25.5094    5.4242 C   0  0  0  0  0  0  0  0  0  0  0  0
    8.9978   26.1177    4.6033 C   0  0  0  0  0  0  0  0  0  0  0  0
    9.1820   25.5830    3.3433 C   0  0  0  0  0  0  0  0  0  0  0  0
    8.4409   24.4978    2.9664 C   0  0  0  0  0  0  0  0  0  0  0  0
    8.2937   19.9869   -0.8610 C   0  0  0  0  0  0  0  0  0  0  0  0
    7.0540   17.8672   -0.8930 C   0  0  0  0  0  0  0  0  0  0  0  0
    6.9767   19.4000   -1.1367 C   0  0  0  0  0  0  0  0  0  0  0  0
    6.6948   19.4787   -2.6574 C   0  0  0  0  0  0  0  0  0  0  0  0
   12.8329   20.0418    1.9122 C   0  0  0  0  0  0  0  0  0  0  0  0
   12.0150   20.0331    3.1413 C   0  0  0  0  0  0  0  0  0  0  0  0
   11.5256   21.2686    3.6410 C   0  0  0  0  0  0  0  0  0  0  0  0
   10.7232   21.3215    4.7484 C   0  0  0  0  0  0  0  0  0  0  0  0
   10.3588   20.1547    5.4247 C   0  0  0  0  0  0  0  0  0  0  0  0
   10.8190   18.9479    4.9606 C   0  0  0  0  0  0  0  0  0  0  0  0
   11.6301   18.9330    3.8351 C   0  0  0  0  0  0  0  0  0  0  0  0
 48 49  1  0  0  0
 49 50  1  0  0  0
 49 47  1  0  0  0
 47 30  1  0  0  0
 30 26  1  0  0  0
 26 27  1  0  0  0
 27 28  2  0  0  0
 27  1  1  0  0  0
  1 51  1  0  0  0
 51 52  1  0  0  0
 52 53  2  0  0  0
 53 54  1  0  0  0
 54 55  2  0  0  0
 55 56  1  0  0  0
 56 57  2  0  0  0
  1  2  1  0  0  0
  2  3  1  0  0  0
  3  4  2  0  0  0
  3  6  1  0  0  0
  6  7  1  0  0  0
  7  8  1  0  0  0
  8  9  1  0  0  0
  9 10  1  0  0  0
 10 11  1  0  0  0
 11 12  2  0  0  0
 11 13  1  0  0  0
 13 14  1  0  0  0
 13 17  1  0  0  0
 17 18  1  0  0  0
 18 19  2  0  0  0
 19 20  1  0  0  0
 20 21  2  0  0  0
 21 22  1  0  0  0
 21 23  1  0  0  0
 23 24  2  0  0  0
 30 31  1  0  0  0
 31 32  2  0  0  0
 31 33  1  0  0  0
 33 35  1  0  0  0
 35 40  1  0  0  0
 40 41  1  0  0  0
 41 42  2  0  0  0
 42 43  1  0  0  0
 43 44  2  0  0  0
 44 45  1  0  0  0
 45 46  2  0  0  0
 35 36  1  0  0  0
 36 37  1  0  0  0
 36 38  2  0  0  0
 57 52  1  0  0  0
 10  6  1  0  0  0
 24 18  1  0  0  0
 46 41  1  0  0  0
 26 29  1  0  0  0
  2  5  1  0  0  0
 14 15  1  0  0  0
 14 16  1  0  0  0
 22 25  1  0  0  0
 33 34  1  0  0  0
 37 39  1  0  0  0
M  END
> <minimizedAffinity>
-8.47823

> <CNNscore>
0.5182818174

> <CNNaffinity>
8.1840724945

> <CNN_VS>
4.2416558266

> <CNNaffinity_variance>
0.1183211356

$$$$
[H]OC(=O)[C@@]([H])(N([H])C(=O)[C@@]([H])(N([H])C(=O)[C@@]([H])(N([H])C(=O)[C@@]1([H])N(C(=O)[C@@]([H])(N([H])[H])C([H])([H])c2c([H])c([H])c(O[H])c([H])c2[H])C([H])([H])C([H])([H])C1([H])[H])C([H])([H])c1c([H])c([H])c([H])c([H])c1[H])C([H])([H])C([H])(C([H])([H])[H])C([H])([H])[H])C([H])([H])c1c([H])c([H])c([H])c([H])c1[H]


 57 60  0  0  0  0  0  0  0  0999 V2000
   13.1052   21.4736   -0.2728 C   0  0  0  0  0  0  0  0  0  0  0  0
   14.3513   22.1914   -0.0784 N   0  0  0  0  0  0  0  0  0  0  0  0
   14.6505   23.5055   -0.4357 C   0  0  0  0  0  0  0  0  0  0  0  0
   13.7668   24.2098   -0.9855 O   0  0  0  0  0  0  0  0  0  0  0  0
   15.1060   21.6135    0.3987 H   0  0  0  0  0  0  0  0  0  0  0  0
   15.9768   24.1367   -0.2027 C   0  0  0  0  0  0  0  0  0  0  0  0
   16.2874   24.4368    1.2153 C   0  0  0  0  0  0  0  0  0  0  0  0
   15.6748   25.7765    1.5235 C   0  0  0  0  0  0  0  0  0  0  0  0
   15.2656   26.2990    0.1350 C   0  0  0  0  0  0  0  0  0  0  0  0
   15.9823   25.4896   -0.7936 N   0  0  0  0  0  0  0  0  0  0  0  0
   16.5987   25.8258   -1.9976 C   0  0  0  0  0  0  0  0  0  0  0  0
   17.2911   24.9253   -2.6474 O   0  0  0  0  0  0  0  0  0  0  0  0
   16.5903   27.1258   -2.7071 C   0  0  0  0  0  0  0  0  0  0  0  0
   17.6825   27.3767   -3.5683 N   0  0  0  0  0  0  0  0  0  0  0  0
   18.4362   27.9659   -3.2118 H   0  0  0  0  0  0  0  0  0  0  0  0
   17.5905   27.2192   -4.5611 H   0  0  0  0  0  0  0  0  0  0  0  0
   15.2873   27.3194   -3.4954 C   0  0  0  0  0  0  0  0  0  0  0  0
   15.5061   26.9242   -4.8938 C   0  0  0  0  0  0  0  0  0  0  0  0
   15.9705   27.7063   -5.9036 C   0  0  0  0  0  0  0  0  0  0  0  0
   16.1353   27.2722   -7.2163 C   0  0  0  0  0  0  0  0  0  0  0  0
   15.8003   25.9613   -7.4821 C   0  0  0  0  0  0  0  0  0  0  0  0
   15.9427   25.4699   -8.7762 O   0  0  0  0  0  0  0  0  0  0  0  0
   15.3287   25.1393   -6.4881 C   0  0  0  0  0  0  0  0  0  0  0  0
   15.1807   25.6020   -5.2162 C   0  0  0  0  0  0  0  0  0  0  0  0
   15.7234   24.5395   -9.0463 H   0  0  0  0  0  0  0  0  0  0  0  0
   11.5005   20.2061    1.3450 N   0  0  0  0  0  0  0  0  0  0  0  0
   12.3208   21.2372    0.9075 C   0  0  0  0  0  0  0  0  0  0  0  0
   12.3975   22.2243    1.7833 O   0  0  0  0  0  0  0  0  0  0  0  0
   11.3488   19.3251    0.8426 H   0  0  0  0  0  0  0  0  0  0  0  0
   10.7635   20.2519    2.6622 C   0  0  0  0  0  0  0  0  0  0  0  0
    9.5564   21.0420    2.4674 C   0  0  0  0  0  0  0  0  0  0  0  0
    8.5172   20.5235    3.0737 O   0  0  0  0  0  0  0  0  0  0  0  0
    9.3016   22.2111    1.7763 N   0  0  0  0  0  0  0  0  0  0  0  0
   10.0072   22.7093    1.2311 H   0  0  0  0  0  0  0  0  0  0  0  0
    7.9099   22.7737    1.8049 C   0  0  0  0  0  0  0  0  0  0  0  0
    7.0951   22.0658    0.8020 C   0  0  0  0  0  0  0  0  0  0  0  0
    7.5328   21.6832   -0.4532 O   0  0  0  0  0  0  0  0  0  0  0  0
    5.8961   21.7725    1.0868 O   0  0  0  0  0  0  0  0  0  0  0  0
    7.6170   22.3360   -1.2355 H   0  0  0  0  0  0  0  0  0  0  0  0
    8.0797   24.2340    1.5758 C   0  0  0  0  0  0  0  0  0  0  0  0
    8.1244   25.0973    2.7478 C   0  0  0  0  0  0  0  0  0  0  0  0
    7.5362   26.3387    2.7241 C   0  0  0  0  0  0  0  0  0  0  0  0
    7.5961   27.1502    3.8428 C   0  0  0  0  0  0  0  0  0  0  0  0
    8.2345   26.7648    5.0160 C   0  0  0  0  0  0  0  0  0  0  0  0
    8.8244   25.5163    5.0371 C   0  0  0  0  0  0  0  0  0  0  0  0
    8.7553   24.7289    3.9216 C   0  0  0  0  0  0  0  0  0  0  0  0
   11.6993   20.5400    3.7451 C   0  0  0  0  0  0  0  0  0  0  0  0
   10.3319   19.3094    5.3720 C   0  0  0  0  0  0  0  0  0  0  0  0
   11.2834   20.5183    5.1528 C   0  0  0  0  0  0  0  0  0  0  0  0
   10.3519   21.7251    5.4250 C   0  0  0  0  0  0  0  0  0  0  0  0
   13.1960   20.4571   -1.3294 C   0  0  0  0  0  0  0  0  0  0  0  0
   13.7954   20.8425   -2.6224 C   0  0  0  0  0  0  0  0  0  0  0  0
   14.6721   21.9587   -2.6595 C   0  0  0  0  0  0  0  0  0  0  0  0
   15.2958   22.3364   -3.8177 C   0  0  0  0  0  0  0  0  0  0  0  0
   15.0880   21.6310   -5.0055 C   0  0  0  0  0  0  0  0  0  0  0  0
   14.2451   20.5480   -4.9950 C   0  0  0  0  0  0  0  0  0  0  0  0
   13.6306   20.1944   -3.8024 C   0  0  0  0  0  0  0  0  0  0  0  0
 48 49  1  0  0  0
 49 50  1  0  0  0
 49 47  1  0  0  0
 47 30  1  0  0  0
 30 26  1  0  0  0
 26 27  1  0  0  0
 27 28  2  0  0  0
 27  1  1  0  0  0
  1 51  1  0  0  0
 51 52  1  0  0  0
 52 53  2  0  0  0
 53 54  1  0  0  0
 54 55  2  0  0  0
 55 56  1  0  0  0
 56 57  2  0  0  0
  1  2  1  0  0  0
  2  3  1  0  0  0
  3  4  2  0  0  0
  3  6  1  0  0  0
  6  7  1  0  0  0
  7  8  1  0  0  0
  8  9  1  0  0  0
  9 10  1  0  0  0
 10 11  1  0  0  0
 11 12  2  0  0  0
 11 13  1  0  0  0
 13 14  1  0  0  0
 13 17  1  0  0  0
 17 18  1  0  0  0
 18 19  2  0  0  0
 19 20  1  0  0  0
 20 21  2  0  0  0
 21 22  1  0  0  0
 21 23  1  0  0  0
 23 24  2  0  0  0
 30 31  1  0  0  0
 31 32  2  0  0  0
 31 33  1  0  0  0
 33 35  1  0  0  0
 35 40  1  0  0  0
 40 41  1  0  0  0
 41 42  2  0  0  0
 42 43  1  0  0  0
 43 44  2  0  0  0
 44 45  1  0  0  0
 45 46  2  0  0  0
 35 36  1  0  0  0
 36 37  1  0  0  0
 36 38  2  0  0  0
 57 52  1  0  0  0
 10  6  1  0  0  0
 24 18  1  0  0  0
 46 41  1  0  0  0
 26 29  1  0  0  0
  2  5  1  0  0  0
 14 15  1  0  0  0
 14 16  1  0  0  0
 22 25  1  0  0  0
 33 34  1  0  0  0
 37 39  1  0  0  0
M  END
> <minimizedAffinity>
0.39235

> <CNNscore>
0.5014500022

> <CNNaffinity>
8.0916557312

> <CNN_VS>
4.0575609207

> <CNNaffinity_variance>
0.3844233751

$$$$
[H]OC(=O)[C@@]([H])(N([H])C(=O)[C@@]([H])(N([H])C(=O)[C@@]([H])(N([H])C(=O)[C@@]1([H])N(C(=O)[C@@]([H])(N([H])[H])C([H])([H])c2c([H])c([H])c(O[H])c([H])c2[H])C([H])([H])C([H])([H])C1([H])[H])C([H])([H])c1c([H])c([H])c([H])c([H])c1[H])C([H])([H])C([H])(C([H])([H])[H])C([H])([H])[H])C([H])([H])c1c([H])c([H])c([H])c([H])c1[H]


 57 60  0  0  0  0  0  0  0  0999 V2000
   10.7173   21.5778    0.0181 C   0  0  0  0  0  0  0  0  0  0  0  0
   11.2391   22.9236   -0.1304 N   0  0  0  0  0  0  0  0  0  0  0  0
   12.5282   23.3800    0.1415 C   0  0  0  0  0  0  0  0  0  0  0  0
   13.3934   22.5684    0.5563 O   0  0  0  0  0  0  0  0  0  0  0  0
   10.5228   23.6207   -0.4941 H   0  0  0  0  0  0  0  0  0  0  0  0
   12.9502   24.7956   -0.0315 C   0  0  0  0  0  0  0  0  0  0  0  0
   12.0080   25.6404   -0.8033 C   0  0  0  0  0  0  0  0  0  0  0  0
   12.3322   25.4400   -2.2592 C   0  0  0  0  0  0  0  0  0  0  0  0
   13.6636   24.6694   -2.2157 C   0  0  0  0  0  0  0  0  0  0  0  0
   14.1517   24.8439   -0.8881 N   0  0  0  0  0  0  0  0  0  0  0  0
   15.4498   25.0431   -0.4216 C   0  0  0  0  0  0  0  0  0  0  0  0
   15.6554   25.2774    0.8494 O   0  0  0  0  0  0  0  0  0  0  0  0
   16.7179   25.0266   -1.1865 C   0  0  0  0  0  0  0  0  0  0  0  0
   17.7425   24.1933   -0.6831 N   0  0  0  0  0  0  0  0  0  0  0  0
   18.4799   24.6356   -0.1328 H   0  0  0  0  0  0  0  0  0  0  0  0
   17.8874   23.2754   -1.0772 H   0  0  0  0  0  0  0  0  0  0  0  0
   16.4729   24.6704   -2.6595 C   0  0  0  0  0  0  0  0  0  0  0  0
   16.3964   25.9076   -3.4489 C   0  0  0  0  0  0  0  0  0  0  0  0
   17.0818   27.0613   -3.2331 C   0  0  0  0  0  0  0  0  0  0  0  0
   16.9461   28.2084   -4.0106 C   0  0  0  0  0  0  0  0  0  0  0  0
   16.0546   28.1434   -5.0605 C   0  0  0  0  0  0  0  0  0  0  0  0
   15.8750   29.2589   -5.8729 O   0  0  0  0  0  0  0  0  0  0  0  0
   15.3442   26.9952   -5.3114 C   0  0  0  0  0  0  0  0  0  0  0  0
   15.5045   25.8940   -4.5270 C   0  0  0  0  0  0  0  0  0  0  0  0
   15.2530   29.2905   -6.6467 H   0  0  0  0  0  0  0  0  0  0  0  0
    8.4011   20.4190    0.3209 N   0  0  0  0  0  0  0  0  0  0  0  0
    9.3061   21.4704    0.2657 C   0  0  0  0  0  0  0  0  0  0  0  0
    8.7336   22.6388    0.4990 O   0  0  0  0  0  0  0  0  0  0  0  0
    8.6477   19.4284    0.2237 H   0  0  0  0  0  0  0  0  0  0  0  0
    6.9281   20.6224    0.5843 C   0  0  0  0  0  0  0  0  0  0  0  0
    6.7821   21.0712    1.9614 C   0  0  0  0  0  0  0  0  0  0  0  0
    5.5428   21.3754    2.2584 O   0  0  0  0  0  0  0  0  0  0  0  0
    7.6840   21.2367    2.9950 N   0  0  0  0  0  0  0  0  0  0  0  0
    8.6871   21.0695    2.9005 H   0  0  0  0  0  0  0  0  0  0  0  0
    7.1731   21.7093    4.3254 C   0  0  0  0  0  0  0  0  0  0  0  0
    6.3865   20.6255    4.9398 C   0  0  0  0  0  0  0  0  0  0  0  0
    6.7897   19.3060    5.0375 O   0  0  0  0  0  0  0  0  0  0  0  0
    5.2480   20.8971    5.4244 O   0  0  0  0  0  0  0  0  0  0  0  0
    6.7520   18.6534    4.2514 H   0  0  0  0  0  0  0  0  0  0  0  0
    6.4193   22.9571    4.0275 C   0  0  0  0  0  0  0  0  0  0  0  0
    7.1625   24.2095    4.0367 C   0  0  0  0  0  0  0  0  0  0  0  0
    8.5005   24.2304    3.7256 C   0  0  0  0  0  0  0  0  0  0  0  0
    9.1940   25.4271    3.7484 C   0  0  0  0  0  0  0  0  0  0  0  0
    8.5925   26.6367    4.0768 C   0  0  0  0  0  0  0  0  0  0  0  0
    7.2474   26.6128    4.3887 C   0  0  0  0  0  0  0  0  0  0  0  0
    6.5792   25.4203    4.3612 C   0  0  0  0  0  0  0  0  0  0  0  0
    6.1696   19.4880    0.0654 C   0  0  0  0  0  0  0  0  0  0  0  0
    5.2484   18.0345   -1.6866 C   0  0  0  0  0  0  0  0  0  0  0  0
    5.5940   19.4954   -1.2850 C   0  0  0  0  0  0  0  0  0  0  0  0
    6.6988   19.8656   -2.3051 C   0  0  0  0  0  0  0  0  0  0  0  0
   11.6661   20.6721    0.6793 C   0  0  0  0  0  0  0  0  0  0  0  0
   11.5352   20.4616    2.1348 C   0  0  0  0  0  0  0  0  0  0  0  0
   11.9328   19.2122    2.6793 C   0  0  0  0  0  0  0  0  0  0  0  0
   11.8803   18.9729    4.0258 C   0  0  0  0  0  0  0  0  0  0  0  0
   11.4317   19.9565    4.9106 C   0  0  0  0  0  0  0  0  0  0  0  0
   11.0422   21.1728    4.4083 C   0  0  0  0  0  0  0  0  0  0  0  0
   11.1093   21.3794    3.0380 C   0  0  0  0  0  0  0  0  0  0  0  0
 48 49  1  0  0  0
 49 50  1  0  0  0
 49 47  1  0  0  0
 47 30  1  0  0  0
 30 26  1  0  0  0
 26 27  1  0  0  0
 27 28  2  0  0  0
 27  1  1  0  0  0
  1 51  1  0  0  0
 51 52  1  0  0  0
 52 53  2  0  0  0
 53 54  1  0  0  0
 54 55  2  0  0  0
 55 56  1  0  0  0
 56 57  2  0  0  0
  1  2  1  0  0  0
  2  3  1  0  0  0
  3  4  2  0  0  0
  3  6  1  0  0  0
  6  7  1  0  0  0
  7  8  1  0  0  0
  8  9  1  0  0  0
  9 10  1  0  0  0
 10 11  1  0  0  0
 11 12  2  0  0  0
 11 13  1  0  0  0
 13 14  1  0  0  0
 13 17  1  0  0  0
 17 18  1  0  0  0
 18 19  2  0  0  0
 19 20  1  0  0  0
 20 21  2  0  0  0
 21 22  1  0  0  0
 21 23  1  0  0  0
 23 24  2  0  0  0
 30 31  1  0  0  0
 31 32  2  0  0  0
 31 33  1  0  0  0
 33 35  1  0  0  0
 35 40  1  0  0  0
 40 41  1  0  0  0
 41 42  2  0  0  0
 42 43  1  0  0  0
 43 44  2  0  0  0
 44 45  1  0  0  0
 45 46  2  0  0  0
 35 36  1  0  0  0
 36 37  1  0  0  0
 36 38  2  0  0  0
 57 52  1  0  0  0
 10  6  1  0  0  0
 24 18  1  0  0  0
 46 41  1  0  0  0
 26 29  1  0  0  0
  2  5  1  0  0  0
 14 15  1  0  0  0
 14 16  1  0  0  0
 22 25  1  0  0  0
 33 34  1  0  0  0
 37 39  1  0  0  0
M  END
> <minimizedAffinity>
-7.80748

> <CNNscore>
0.4882949591

> <CNNaffinity>
8.2715940475

> <CNN_VS>
4.0389776230

> <CNNaffinity_variance>
0.0821076483

$$$$
[H]OC(=O)[C@@]([H])(N([H])C(=O)[C@@]([H])(N([H])C(=O)[C@@]([H])(N([H])C(=O)[C@@]1([H])N(C(=O)[C@@]([H])(N([H])[H])C([H])([H])c2c([H])c([H])c(O[H])c([H])c2[H])C([H])([H])C([H])([H])C1([H])[H])C([H])([H])c1c([H])c([H])c([H])c([H])c1[H])C([H])([H])C([H])(C([H])([H])[H])C([H])([H])[H])C([H])([H])c1c([H])c([H])c([H])c([H])c1[H]


 57 60  0  0  0  0  0  0  0  0999 V2000
   10.2966   21.4098   -1.0111 C   0  0  0  0  0  0  0  0  0  0  0  0
   10.9190   22.7162   -1.1193 N   0  0  0  0  0  0  0  0  0  0  0  0
   11.4412   23.5065   -0.0962 C   0  0  0  0  0  0  0  0  0  0  0  0
   11.4097   23.0817    1.0861 O   0  0  0  0  0  0  0  0  0  0  0  0
   10.9662   23.0844   -2.1160 H   0  0  0  0  0  0  0  0  0  0  0  0
   12.0436   24.8472   -0.3221 C   0  0  0  0  0  0  0  0  0  0  0  0
   11.4743   25.6062   -1.4610 C   0  0  0  0  0  0  0  0  0  0  0  0
   12.2002   25.1499   -2.6977 C   0  0  0  0  0  0  0  0  0  0  0  0
   13.3663   24.3213   -2.1302 C   0  0  0  0  0  0  0  0  0  0  0  0
   13.4458   24.6840   -0.7542 N   0  0  0  0  0  0  0  0  0  0  0  0
   14.5557   24.8821    0.0653 C   0  0  0  0  0  0  0  0  0  0  0  0
   14.3910   25.3107    1.2907 O   0  0  0  0  0  0  0  0  0  0  0  0
   15.9864   24.6664   -0.2508 C   0  0  0  0  0  0  0  0  0  0  0  0
   16.6875   23.7764    0.5942 N   0  0  0  0  0  0  0  0  0  0  0  0
   17.2658   24.1846    1.3299 H   0  0  0  0  0  0  0  0  0  0  0  0
   16.8304   22.8178    0.3123 H   0  0  0  0  0  0  0  0  0  0  0  0
   16.1709   24.2120   -1.7056 C   0  0  0  0  0  0  0  0  0  0  0  0
   16.3028   25.3950   -2.5674 C   0  0  0  0  0  0  0  0  0  0  0  0
   16.9961   26.5325   -2.2979 C   0  0  0  0  0  0  0  0  0  0  0  0
   17.0630   27.6287   -3.1536 C   0  0  0  0  0  0  0  0  0  0  0  0
   16.3747   27.5283   -4.3442 C   0  0  0  0  0  0  0  0  0  0  0  0
   16.4032   28.5925   -5.2405 O   0  0  0  0  0  0  0  0  0  0  0  0
   15.6634   26.3949   -4.6532 C   0  0  0  0  0  0  0  0  0  0  0  0
   15.6219   25.3438   -3.7888 C   0  0  0  0  0  0  0  0  0  0  0  0
   15.9344   28.5963   -6.1162 H   0  0  0  0  0  0  0  0  0  0  0  0
    7.8391   21.8234   -0.2438 N   0  0  0  0  0  0  0  0  0  0  0  0
    9.1349   21.3305   -0.1694 C   0  0  0  0  0  0  0  0  0  0  0  0
    9.3412   20.6232    0.9281 O   0  0  0  0  0  0  0  0  0  0  0  0
    7.4573   22.3494   -1.0370 H   0  0  0  0  0  0  0  0  0  0  0  0
    6.8136   21.5912    0.8401 C   0  0  0  0  0  0  0  0  0  0  0  0
    7.2348   22.3390    2.0160 C   0  0  0  0  0  0  0  0  0  0  0  0
    6.3792   22.2400    3.0033 O   0  0  0  0  0  0  0  0  0  0  0  0
    8.3425   23.1203    2.2841 N   0  0  0  0  0  0  0  0  0  0  0  0
    9.0758   23.3130    1.5997 H   0  0  0  0  0  0  0  0  0  0  0  0
    8.4712   23.7413    3.6450 C   0  0  0  0  0  0  0  0  0  0  0  0
    8.2861   25.1974    3.5177 C   0  0  0  0  0  0  0  0  0  0  0  0
    9.3025   26.1350    3.5511 O   0  0  0  0  0  0  0  0  0  0  0  0
    7.1138   25.6523    3.3644 O   0  0  0  0  0  0  0  0  0  0  0  0
    9.7476   26.4419    4.4189 H   0  0  0  0  0  0  0  0  0  0  0  0
    9.8047   23.3071    4.1422 C   0  0  0  0  0  0  0  0  0  0  0  0
    9.9811   21.8936    4.4455 C   0  0  0  0  0  0  0  0  0  0  0  0
    9.0151   21.2008    5.1343 C   0  0  0  0  0  0  0  0  0  0  0  0
    9.2026   19.8609    5.4227 C   0  0  0  0  0  0  0  0  0  0  0  0
   10.3437   19.1641    5.0421 C   0  0  0  0  0  0  0  0  0  0  0  0
   11.3128   19.8629    4.3494 C   0  0  0  0  0  0  0  0  0  0  0  0
   11.1098   21.1865    4.0743 C   0  0  0  0  0  0  0  0  0  0  0  0
    6.4830   20.1712    0.9150 C   0  0  0  0  0  0  0  0  0  0  0  0
    6.6711   18.6099   -0.9711 C   0  0  0  0  0  0  0  0  0  0  0  0
    5.7092   19.5009   -0.1370 C   0  0  0  0  0  0  0  0  0  0  0  0
    5.2490   20.5527   -1.1763 C   0  0  0  0  0  0  0  0  0  0  0  0
   11.2727   20.3126   -1.0479 C   0  0  0  0  0  0  0  0  0  0  0  0
   12.6368   20.5715   -0.5460 C   0  0  0  0  0  0  0  0  0  0  0  0
   12.8673   20.5193    0.8539 C   0  0  0  0  0  0  0  0  0  0  0  0
   14.1184   20.7031    1.3772 C   0  0  0  0  0  0  0  0  0  0  0  0
   15.2133   20.9488    0.5450 C   0  0  0  0  0  0  0  0  0  0  0  0
   15.0159   21.0036   -0.8120 C   0  0  0  0  0  0  0  0  0  0  0  0
   13.7338   20.8122   -1.3064 C   0  0  0  0  0  0  0  0  0  0  0  0
 48 49  1  0  0  0
 49 50  1  0  0  0
 49 47  1  0  0  0
 47 30  1  0  0  0
 30 26  1  0  0  0
 26 27  1  0  0  0
 27 28  2  0  0  0
 27  1  1  0  0  0
  1 51  1  0  0  0
 51 52  1  0  0  0
 52 53  2  0  0  0
 53 54  1  0  0  0
 54 55  2  0  0  0
 55 56  1  0  0  0
 56 57  2  0  0  0
  1  2  1  0  0  0
  2  3  1  0  0  0
  3  4  2  0  0  0
  3  6  1  0  0  0
  6  7  1  0  0  0
  7  8  1  0  0  0
  8  9  1  0  0  0
  9 10  1  0  0  0
 10 11  1  0  0  0
 11 12  2  0  0  0
 11 13  1  0  0  0
 13 14  1  0  0  0
 13 17  1  0  0  0
 17 18  1  0  0  0
 18 19  2  0  0  0
 19 20  1  0  0  0
 20 21  2  0  0  0
 21 22  1  0  0  0
 21 23  1  0  0  0
 23 24  2  0  0  0
 30 31  1  0  0  0
 31 32  2  0  0  0
 31 33  1  0  0  0
 33 35  1  0  0  0
 35 40  1  0  0  0
 40 41  1  0  0  0
 41 42  2  0  0  0
 42 43  1  0  0  0
 43 44  2  0  0  0
 44 45  1  0  0  0
 45 46  2  0  0  0
 35 36  1  0  0  0
 36 37  1  0  0  0
 36 38  2  0  0  0
 57 52  1  0  0  0
 10  6  1  0  0  0
 24 18  1  0  0  0
 46 41  1  0  0  0
 26 29  1  0  0  0
  2  5  1  0  0  0
 14 15  1  0  0  0
 14 16  1  0  0  0
 22 25  1  0  0  0
 33 34  1  0  0  0
 37 39  1  0  0  0
M  END
> <minimizedAffinity>
-7.50020

> <CNNscore>
0.4658622146

> <CNNaffinity>
8.4526395798

> <CNN_VS>
3.9377653599

> <CNNaffinity_variance>
0.2141608298

$$$$
[H]OC(=O)[C@@]([H])(N([H])C(=O)[C@@]([H])(N([H])C(=O)[C@@]([H])(N([H])C(=O)[C@@]1([H])N(C(=O)[C@@]([H])(N([H])[H])C([H])([H])c2c([H])c([H])c(O[H])c([H])c2[H])C([H])([H])C([H])([H])C1([H])[H])C([H])([H])c1c([H])c([H])c([H])c([H])c1[H])C([H])([H])C([H])(C([H])([H])[H])C([H])([H])[H])C([H])([H])c1c([H])c([H])c([H])c([H])c1[H]


 57 60  0  0  0  0  0  0  0  0999 V2000
   10.3918   22.5585    0.2186 C   0  0  0  0  0  0  0  0  0  0  0  0
   11.6301   22.0273   -0.3199 N   0  0  0  0  0  0  0  0  0  0  0  0
   12.7567   21.5973    0.3801 C   0  0  0  0  0  0  0  0  0  0  0  0
   12.7532   21.6382    1.6361 O   0  0  0  0  0  0  0  0  0  0  0  0
   11.6443   21.9729   -1.3820 H   0  0  0  0  0  0  0  0  0  0  0  0
   13.9863   21.0844   -0.2809 C   0  0  0  0  0  0  0  0  0  0  0  0
   14.9650   20.4420    0.6283 C   0  0  0  0  0  0  0  0  0  0  0  0
   15.8174   21.5419    1.2015 C   0  0  0  0  0  0  0  0  0  0  0  0
   15.4307   22.7621    0.3471 C   0  0  0  0  0  0  0  0  0  0  0  0
   14.7726   22.2227   -0.7962 N   0  0  0  0  0  0  0  0  0  0  0  0
   14.8237   22.6093   -2.1343 C   0  0  0  0  0  0  0  0  0  0  0  0
   14.2017   21.8992   -3.0406 O   0  0  0  0  0  0  0  0  0  0  0  0
   15.5129   23.7760   -2.7321 C   0  0  0  0  0  0  0  0  0  0  0  0
   16.8836   23.9218   -2.4194 N   0  0  0  0  0  0  0  0  0  0  0  0
   17.1297   24.5870   -1.6851 H   0  0  0  0  0  0  0  0  0  0  0  0
   17.5873   23.6023   -3.0687 H   0  0  0  0  0  0  0  0  0  0  0  0
   15.3517   23.7936   -4.2586 C   0  0  0  0  0  0  0  0  0  0  0  0
   15.4742   25.1764   -4.7408 C   0  0  0  0  0  0  0  0  0  0  0  0
   15.2115   25.6342   -5.9932 C   0  0  0  0  0  0  0  0  0  0  0  0
   15.3691   26.9594   -6.3903 C   0  0  0  0  0  0  0  0  0  0  0  0
   15.8205   27.8435   -5.4333 C   0  0  0  0  0  0  0  0  0  0  0  0
   15.9986   29.1818   -5.7709 O   0  0  0  0  0  0  0  0  0  0  0  0
   16.0959   27.4195   -4.1564 C   0  0  0  0  0  0  0  0  0  0  0  0
   15.9296   26.1140   -3.8072 C   0  0  0  0  0  0  0  0  0  0  0  0
   16.3194   29.8780   -5.1391 H   0  0  0  0  0  0  0  0  0  0  0  0
    7.9222   21.7545   -0.0133 N   0  0  0  0  0  0  0  0  0  0  0  0
    9.2793   21.6503    0.2604 C   0  0  0  0  0  0  0  0  0  0  0  0
    9.6226   20.4325    0.6434 O   0  0  0  0  0  0  0  0  0  0  0  0
    7.4608   22.5954   -0.3759 H   0  0  0  0  0  0  0  0  0  0  0  0
    6.9647   20.5985    0.1521 C   0  0  0  0  0  0  0  0  0  0  0  0
    6.6473   20.4852    1.5683 C   0  0  0  0  0  0  0  0  0  0  0  0
    5.3715   20.6601    1.8094 O   0  0  0  0  0  0  0  0  0  0  0  0
    7.4203   20.2353    2.6861 N   0  0  0  0  0  0  0  0  0  0  0  0
    8.4336   20.1106    2.6548 H   0  0  0  0  0  0  0  0  0  0  0  0
    6.7450   20.1641    4.0252 C   0  0  0  0  0  0  0  0  0  0  0  0
    5.8659   18.9820    4.0471 C   0  0  0  0  0  0  0  0  0  0  0  0
    5.6493   18.1310    2.9783 O   0  0  0  0  0  0  0  0  0  0  0  0
    5.2485   18.7005    5.1168 O   0  0  0  0  0  0  0  0  0  0  0  0
    5.0288   18.3632    2.1996 H   0  0  0  0  0  0  0  0  0  0  0  0
    6.0582   21.4749    4.1805 C   0  0  0  0  0  0  0  0  0  0  0  0
    6.8644   22.6092    4.6099 C   0  0  0  0  0  0  0  0  0  0  0  0
    6.2739   23.8134    4.9077 C   0  0  0  0  0  0  0  0  0  0  0  0
    7.0552   24.8837    5.3048 C   0  0  0  0  0  0  0  0  0  0  0  0
    8.4380   24.8008    5.4214 C   0  0  0  0  0  0  0  0  0  0  0  0
    9.0288   23.5889    5.1219 C   0  0  0  0  0  0  0  0  0  0  0  0
    8.2402   22.5430    4.7306 C   0  0  0  0  0  0  0  0  0  0  0  0
    7.4326   19.4517   -0.6207 C   0  0  0  0  0  0  0  0  0  0  0  0
    5.8287   19.9578   -2.4102 C   0  0  0  0  0  0  0  0  0  0  0  0
    6.6081   18.8368   -1.6681 C   0  0  0  0  0  0  0  0  0  0  0  0
    5.4679   18.0254   -1.0049 C   0  0  0  0  0  0  0  0  0  0  0  0
   10.1916   23.9754   -0.1133 C   0  0  0  0  0  0  0  0  0  0  0  0
   11.3364   24.7376   -0.6500 C   0  0  0  0  0  0  0  0  0  0  0  0
   11.3827   25.0033   -2.0439 C   0  0  0  0  0  0  0  0  0  0  0  0
   12.3926   25.7449   -2.5946 C   0  0  0  0  0  0  0  0  0  0  0  0
   13.4144   26.2664   -1.7973 C   0  0  0  0  0  0  0  0  0  0  0  0
   13.3914   26.0235   -0.4467 C   0  0  0  0  0  0  0  0  0  0  0  0
   12.3519   25.2679    0.0761 C   0  0  0  0  0  0  0  0  0  0  0  0
 48 49  1  0  0  0
 49 50  1  0  0  0
 49 47  1  0  0  0
 47 30  1  0  0  0
 30 26  1  0  0  0
 26 27  1  0  0  0
 27 28  2  0  0  0
 27  1  1  0  0  0
  1 51  1  0  0  0
 51 52  1  0  0  0
 52 53  2  0  0  0
 53 54  1  0  0  0
 54 55  2  0  0  0
 55 56  1  0  0  0
 56 57  2  0  0  0
  1  2  1  0  0  0
  2  3  1  0  0  0
  3  4  2  0  0  0
  3  6  1  0  0  0
  6  7  1  0  0  0
  7  8  1  0  0  0
  8  9  1  0  0  0
  9 10  1  0  0  0
 10 11  1  0  0  0
 11 12  2  0  0  0
 11 13  1  0  0  0
 13 14  1  0  0  0
 13 17  1  0  0  0
 17 18  1  0  0  0
 18 19  2  0  0  0
 19 20  1  0  0  0
 20 21  2  0  0  0
 21 22  1  0  0  0
 21 23  1  0  0  0
 23 24  2  0  0  0
 30 31  1  0  0  0
 31 32  2  0  0  0
 31 33  1  0  0  0
 33 35  1  0  0  0
 35 40  1  0  0  0
 40 41  1  0  0  0
 41 42  2  0  0  0
 42 43  1  0  0  0
 43 44  2  0  0  0
 44 45  1  0  0  0
 45 46  2  0  0  0
 35 36  1  0  0  0
 36 37  1  0  0  0
 36 38  2  0  0  0
 57 52  1  0  0  0
 10  6  1  0  0  0
 24 18  1  0  0  0
 46 41  1  0  0  0
 26 29  1  0  0  0
  2  5  1  0  0  0
 14 15  1  0  0  0
 14 16  1  0  0  0
 22 25  1  0  0  0
 33 34  1  0  0  0
 37 39  1  0  0  0
M  END
> <minimizedAffinity>
-7.64505

> <CNNscore>
0.4499365091

> <CNNaffinity>
8.0666217804

> <CNN_VS>
3.6294677258

> <CNNaffinity_variance>
0.1585343927

$$$$
[H]OC(=O)[C@@]([H])(N([H])C(=O)[C@@]([H])(N([H])C(=O)[C@@]([H])(N([H])C(=O)[C@@]1([H])N(C(=O)[C@@]([H])(N([H])[H])C([H])([H])c2c([H])c([H])c(O[H])c([H])c2[H])C([H])([H])C([H])([H])C1([H])[H])C([H])([H])c1c([H])c([H])c([H])c([H])c1[H])C([H])([H])C([H])(C([H])([H])[H])C([H])([H])[H])C([H])([H])c1c([H])c([H])c([H])c([H])c1[H]


 57 60  0  0  0  0  0  0  0  0999 V2000
   15.8456   24.0457    0.4072 C   0  0  0  0  0  0  0  0  0  0  0  0
   15.4567   22.6505    0.4955 N   0  0  0  0  0  0  0  0  0  0  0  0
   14.2400   22.1233    0.9267 C   0  0  0  0  0  0  0  0  0  0  0  0
   13.3228   22.9050    1.2828 O   0  0  0  0  0  0  0  0  0  0  0  0
   16.2175   21.9755    0.1843 H   0  0  0  0  0  0  0  0  0  0  0  0
   13.9560   20.6651    0.9935 C   0  0  0  0  0  0  0  0  0  0  0  0
   14.5238   19.8646   -0.1175 C   0  0  0  0  0  0  0  0  0  0  0  0
   13.5391   19.9324   -1.2536 C   0  0  0  0  0  0  0  0  0  0  0  0
   12.3001   20.5715   -0.6018 C   0  0  0  0  0  0  0  0  0  0  0  0
   12.5093   20.4419    0.8021 N   0  0  0  0  0  0  0  0  0  0  0  0
   11.6102   20.1502    1.8264 C   0  0  0  0  0  0  0  0  0  0  0  0
   12.0480   19.9847    3.0484 O   0  0  0  0  0  0  0  0  0  0  0  0
   10.1399   19.9912    1.7461 C   0  0  0  0  0  0  0  0  0  0  0  0
    9.4427   19.9822    2.9756 N   0  0  0  0  0  0  0  0  0  0  0  0
    9.1754   19.0739    3.3574 H   0  0  0  0  0  0  0  0  0  0  0  0
    8.9933   20.8226    3.3084 H   0  0  0  0  0  0  0  0  0  0  0  0
    9.5155   21.0564    0.8339 C   0  0  0  0  0  0  0  0  0  0  0  0
    8.3391   20.4868    0.1621 C   0  0  0  0  0  0  0  0  0  0  0  0
    7.0363   20.6463    0.5150 C   0  0  0  0  0  0  0  0  0  0  0  0
    5.9670   20.0589   -0.1560 C   0  0  0  0  0  0  0  0  0  0  0  0
    6.2760   19.2714   -1.2448 C   0  0  0  0  0  0  0  0  0  0  0  0
    5.2494   18.6568   -1.9554 O   0  0  0  0  0  0  0  0  0  0  0  0
    7.5803   19.0868   -1.6333 C   0  0  0  0  0  0  0  0  0  0  0  0
    8.5987   19.6781   -0.9499 C   0  0  0  0  0  0  0  0  0  0  0  0
    5.3908   18.0762   -2.7489 H   0  0  0  0  0  0  0  0  0  0  0  0
   13.3949   24.9326    0.4897 N   0  0  0  0  0  0  0  0  0  0  0  0
   14.7813   25.0061    0.5029 C   0  0  0  0  0  0  0  0  0  0  0  0
   15.2174   26.2465    0.6388 O   0  0  0  0  0  0  0  0  0  0  0  0
   12.8550   24.0618    0.4484 H   0  0  0  0  0  0  0  0  0  0  0  0
   12.5115   26.1536    0.5853 C   0  0  0  0  0  0  0  0  0  0  0  0
   11.4489   25.8584    1.5355 C   0  0  0  0  0  0  0  0  0  0  0  0
   11.3334   26.7817    2.4578 O   0  0  0  0  0  0  0  0  0  0  0  0
   10.5571   24.8091    1.6497 N   0  0  0  0  0  0  0  0  0  0  0  0
   10.5507   24.0034    1.0220 H   0  0  0  0  0  0  0  0  0  0  0  0
    9.5551   24.8365    2.7675 C   0  0  0  0  0  0  0  0  0  0  0  0
    9.4486   23.4822    3.3378 C   0  0  0  0  0  0  0  0  0  0  0  0
   10.5116   22.7266    3.7987 O   0  0  0  0  0  0  0  0  0  0  0  0
    8.3047   22.9449    3.4244 O   0  0  0  0  0  0  0  0  0  0  0  0
   11.1497   22.2266    3.1757 H   0  0  0  0  0  0  0  0  0  0  0  0
    8.3094   25.3725    2.1553 C   0  0  0  0  0  0  0  0  0  0  0  0
    7.5160   26.3007    2.9491 C   0  0  0  0  0  0  0  0  0  0  0  0
    7.1107   25.9653    4.2183 C   0  0  0  0  0  0  0  0  0  0  0  0
    6.3494   26.8545    4.9553 C   0  0  0  0  0  0  0  0  0  0  0  0
    5.9657   28.0981    4.4667 C   0  0  0  0  0  0  0  0  0  0  0  0
    6.3749   28.4328    3.1909 C   0  0  0  0  0  0  0  0  0  0  0  0
    7.1262   27.5406    2.4777 C   0  0  0  0  0  0  0  0  0  0  0  0
   12.2217   26.6628   -0.7519 C   0  0  0  0  0  0  0  0  0  0  0  0
   12.5721   26.8987   -3.1711 C   0  0  0  0  0  0  0  0  0  0  0  0
   12.6069   25.9245   -1.9608 C   0  0  0  0  0  0  0  0  0  0  0  0
   11.4874   24.9155   -2.3169 C   0  0  0  0  0  0  0  0  0  0  0  0
   16.9718   24.2628   -0.5106 C   0  0  0  0  0  0  0  0  0  0  0  0
   16.7080   24.9419   -1.7947 C   0  0  0  0  0  0  0  0  0  0  0  0
   15.9580   24.2551   -2.7854 C   0  0  0  0  0  0  0  0  0  0  0  0
   15.6401   24.8485   -3.9769 C   0  0  0  0  0  0  0  0  0  0  0  0
   16.0460   26.1558   -4.2563 C   0  0  0  0  0  0  0  0  0  0  0  0
   16.7718   26.8406   -3.3141 C   0  0  0  0  0  0  0  0  0  0  0  0
   17.0752   26.2069   -2.1177 C   0  0  0  0  0  0  0  0  0  0  0  0
 48 49  1  0  0  0
 49 50  1  0  0  0
 49 47  1  0  0  0
 47 30  1  0  0  0
 30 26  1  0  0  0
 26 27  1  0  0  0
 27 28  2  0  0  0
 27  1  1  0  0  0
  1 51  1  0  0  0
 51 52  1  0  0  0
 52 53  2  0  0  0
 53 54  1  0  0  0
 54 55  2  0  0  0
 55 56  1  0  0  0
 56 57  2  0  0  0
  1  2  1  0  0  0
  2  3  1  0  0  0
  3  4  2  0  0  0
  3  6  1  0  0  0
  6  7  1  0  0  0
  7  8  1  0  0  0
  8  9  1  0  0  0
  9 10  1  0  0  0
 10 11  1  0  0  0
 11 12  2  0  0  0
 11 13  1  0  0  0
 13 14  1  0  0  0
 13 17  1  0  0  0
 17 18  1  0  0  0
 18 19  2  0  0  0
 19 20  1  0  0  0
 20 21  2  0  0  0
 21 22  1  0  0  0
 21 23  1  0  0  0
 23 24  2  0  0  0
 30 31  1  0  0  0
 31 32  2  0  0  0
 31 33  1  0  0  0
 33 35  1  0  0  0
 35 40  1  0  0  0
 40 41  1  0  0  0
 41 42  2  0  0  0
 42 43  1  0  0  0
 43 44  2  0  0  0
 44 45  1  0  0  0
 45 46  2  0  0  0
 35 36  1  0  0  0
 36 37  1  0  0  0
 36 38  2  0  0  0
 57 52  1  0  0  0
 10  6  1  0  0  0
 24 18  1  0  0  0
 46 41  1  0  0  0
 26 29  1  0  0  0
  2  5  1  0  0  0
 14 15  1  0  0  0
 14 16  1  0  0  0
 22 25  1  0  0  0
 33 34  1  0  0  0
 37 39  1  0  0  0
M  END
> <minimizedAffinity>
1.17432

> <CNNscore>
0.4484359920

> <CNNaffinity>
7.5890426636

> <CNN_VS>
3.4031999111

> <CNNaffinity_variance>
0.2079298049

$$$$
[H]c1c([H])c(C(=O)N2C([H])([H])C([H])([H])N(C3([H])C([H])([H])C([H])([H])C([H])([H])C([H])([H])C3([H])[H])C([H])([H])C2([H])[H])c([H])c([H])c1Cl


 21 23  0  0  0  0  0  0  0  0999 V2000
   13.7897   24.5180   -1.4165 C   0  0  0  0  0  0  0  0  0  0  0  0
   14.7608   24.6374   -0.5272 O   0  0  0  0  0  0  0  0  0  0  0  0
   12.5987   24.0572   -0.8788 N   0  0  0  0  0  0  0  0  0  0  0  0
   11.3995   23.8328   -1.5927 C   0  0  0  0  0  0  0  0  0  0  0  0
   10.2423   23.2628   -0.7984 C   0  0  0  0  0  0  0  0  0  0  0  0
   10.3925   23.2462    0.5750 N   0  0  0  0  0  0  0  0  0  0  0  0
   11.3027   24.1778    1.1562 C   0  0  0  0  0  0  0  0  0  0  0  0
   12.6562   23.7904    0.5939 C   0  0  0  0  0  0  0  0  0  0  0  0
   15.4445   26.3334   -6.9034 Cl  0  0  0  0  0  0  0  0  0  0  0  0
   14.9902   25.7629   -5.3063 C   0  0  0  0  0  0  0  0  0  0  0  0
   14.1033   26.4983   -4.5601 C   0  0  0  0  0  0  0  0  0  0  0  0
   13.7270   26.0861   -3.3134 C   0  0  0  0  0  0  0  0  0  0  0  0
   14.2218   24.9020   -2.7361 C   0  0  0  0  0  0  0  0  0  0  0  0
   15.1021   24.2078   -3.5242 C   0  0  0  0  0  0  0  0  0  0  0  0
   15.5027   24.6082   -4.8018 C   0  0  0  0  0  0  0  0  0  0  0  0
    9.6283   22.4540    1.4176 C   0  0  0  0  0  0  0  0  0  0  0  0
    8.1586   22.7226    1.2685 C   0  0  0  0  0  0  0  0  0  0  0  0
    7.3249   21.8959    2.2282 C   0  0  0  0  0  0  0  0  0  0  0  0
    7.8274   21.9836    3.6371 C   0  0  0  0  0  0  0  0  0  0  0  0
    9.3091   21.6023    3.6688 C   0  0  0  0  0  0  0  0  0  0  0  0
   10.0395   22.6639    2.8632 C   0  0  0  0  0  0  0  0  0  0  0  0
  9 10  1  0  0  0
 10 11  2  0  0  0
 11 12  1  0  0  0
 12 13  2  0  0  0
 13 14  1  0  0  0
 14 15  2  0  0  0
 13  1  1  0  0  0
  1  2  2  0  0  0
  1  3  1  0  0  0
  3  4  1  0  0  0
  4  5  1  0  0  0
  5  6  1  0  0  0
  6  7  1  0  0  0
  7  8  1  0  0  0
  6 16  1  0  0  0
 16 17  1  0  0  0
 17 18  1  0  0  0
 18 19  1  0  0  0
 19 20  1  0  0  0
 20 21  1  0  0  0
 15 10  1  0  0  0
  8  3  1  0  0  0
 21 16  1  0  0  0
M  END
> <minimizedAffinity>
-7.99351

> <CNNscore>
0.4735574126

> <CNNaffinity>
6.2790765762

> <CNN_VS>
2.9735033512

> <CNNaffinity_variance>
0.0920516104

$$$$
[H]c1c([H])c(C(=O)N2C([H])([H])C([H])([H])N(C3([H])C([H])([H])C([H])([H])C([H])([H])C([H])([H])C3([H])[H])C([H])([H])C2([H])[H])c([H])c([H])c1Cl


 21 23  0  0  0  0  0  0  0  0999 V2000
   12.8415   25.0651   -1.3012 C   0  0  0  0  0  0  0  0  0  0  0  0
   12.2917   26.1563   -0.7963 O   0  0  0  0  0  0  0  0  0  0  0  0
   12.6984   23.9476   -0.4947 N   0  0  0  0  0  0  0  0  0  0  0  0
   13.1866   22.6521   -0.7800 C   0  0  0  0  0  0  0  0  0  0  0  0
   12.9637   21.6007    0.2878 C   0  0  0  0  0  0  0  0  0  0  0  0
   12.1052   21.9441    1.3144 N   0  0  0  0  0  0  0  0  0  0  0  0
   11.1361   22.9591    1.0601 C   0  0  0  0  0  0  0  0  0  0  0  0
   11.9529   24.2048    0.7787 C   0  0  0  0  0  0  0  0  0  0  0  0
   15.5767   25.9225   -6.5856 Cl  0  0  0  0  0  0  0  0  0  0  0  0
   14.7475   25.7103   -5.0526 C   0  0  0  0  0  0  0  0  0  0  0  0
   15.1647   24.7211   -4.1973 C   0  0  0  0  0  0  0  0  0  0  0  0
   14.5435   24.5260   -2.9965 C   0  0  0  0  0  0  0  0  0  0  0  0
   13.4580   25.3180   -2.5786 C   0  0  0  0  0  0  0  0  0  0  0  0
   13.0842   26.2894   -3.4699 C   0  0  0  0  0  0  0  0  0  0  0  0
   13.7031   26.5090   -4.7036 C   0  0  0  0  0  0  0  0  0  0  0  0
   12.0652   21.2808    2.5310 C   0  0  0  0  0  0  0  0  0  0  0  0
   12.0493   19.7890    2.3621 C   0  0  0  0  0  0  0  0  0  0  0  0
   11.9506   19.0631    3.6899 C   0  0  0  0  0  0  0  0  0  0  0  0
   10.8448   19.5977    4.5480 C   0  0  0  0  0  0  0  0  0  0  0  0
   11.0226   21.1083    4.7169 C   0  0  0  0  0  0  0  0  0  0  0  0
   10.8526   21.7145    3.3338 C   0  0  0  0  0  0  0  0  0  0  0  0
  9 10  1  0  0  0
 10 11  2  0  0  0
 11 12  1  0  0  0
 12 13  2  0  0  0
 13 14  1  0  0  0
 14 15  2  0  0  0
 13  1  1  0  0  0
  1  2  2  0  0  0
  1  3  1  0  0  0
  3  4  1  0  0  0
  4  5  1  0  0  0
  5  6  1  0  0  0
  6  7  1  0  0  0
  7  8  1  0  0  0
  6 16  1  0  0  0
 16 17  1  0  0  0
 17 18  1  0  0  0
 18 19  1  0  0  0
 19 20  1  0  0  0
 20 21  1  0  0  0
 15 10  1  0  0  0
  8  3  1  0  0  0
 21 16  1  0  0  0
M  END
> <minimizedAffinity>
-8.32435

> <CNNscore>
0.3445475996

> <CNNaffinity>
5.8930759430

> <CNN_VS>
2.0304450989

> <CNNaffinity_variance>
0.0816204399

$$$$
[H]c1c([H])c(C(=O)N2C([H])([H])C([H])([H])N(C3([H])C([H])([H])C([H])([H])C([H])([H])C([H])([H])C3([H])[H])C([H])([H])C2([H])[H])c([H])c([H])c1Cl


 21 23  0  0  0  0  0  0  0  0999 V2000
   14.4642   23.3365   -2.3729 C   0  0  0  0  0  0  0  0  0  0  0  0
   14.8650   22.2715   -3.0461 O   0  0  0  0  0  0  0  0  0  0  0  0
   13.7944   23.0312   -1.1990 N   0  0  0  0  0  0  0  0  0  0  0  0
   13.2548   23.9658   -0.2861 C   0  0  0  0  0  0  0  0  0  0  0  0
   12.5063   23.3910    0.8990 C   0  0  0  0  0  0  0  0  0  0  0  0
   12.6307   22.0295    1.0990 N   0  0  0  0  0  0  0  0  0  0  0  0
   13.7833   21.3810    0.5651 C   0  0  0  0  0  0  0  0  0  0  0  0
   13.6628   21.5627   -0.9351 C   0  0  0  0  0  0  0  0  0  0  0  0
   16.2189   28.4371   -5.0272 Cl  0  0  0  0  0  0  0  0  0  0  0  0
   15.6634   26.9501   -4.2771 C   0  0  0  0  0  0  0  0  0  0  0  0
   16.4728   26.3164   -3.3675 C   0  0  0  0  0  0  0  0  0  0  0  0
   16.0743   25.1574   -2.7641 C   0  0  0  0  0  0  0  0  0  0  0  0
   14.8302   24.5602   -3.0394 C   0  0  0  0  0  0  0  0  0  0  0  0
   14.0636   25.2347   -3.9532 C   0  0  0  0  0  0  0  0  0  0  0  0
   14.4483   26.4210   -4.5840 C   0  0  0  0  0  0  0  0  0  0  0  0
   11.7571   21.2892    1.8802 C   0  0  0  0  0  0  0  0  0  0  0  0
   10.8626   22.1624    2.7120 C   0  0  0  0  0  0  0  0  0  0  0  0
    9.9440   21.3536    3.6073 C   0  0  0  0  0  0  0  0  0  0  0  0
   10.6853   20.3109    4.3872 C   0  0  0  0  0  0  0  0  0  0  0  0
   11.4859   19.4334    3.4222 C   0  0  0  0  0  0  0  0  0  0  0  0
   12.5241   20.3406    2.7831 C   0  0  0  0  0  0  0  0  0  0  0  0
  9 10  1  0  0  0
 10 11  2  0  0  0
 11 12  1  0  0  0
 12 13  2  0  0  0
 13 14  1  0  0  0
 14 15  2  0  0  0
 13  1  1  0  0  0
  1  2  2  0  0  0
  1  3  1  0  0  0
  3  4  1  0  0  0
  4  5  1  0  0  0
  5  6  1  0  0  0
  6  7  1  0  0  0
  7  8  1  0  0  0
  6 16  1  0  0  0
 16 17  1  0  0  0
 17 18  1  0  0  0
 18 19  1  0  0  0
 19 20  1  0  0  0
 20 21  1  0  0  0
 15 10  1  0  0  0
  8  3  1  0  0  0
 21 16  1  0  0  0
M  END
> <minimizedAffinity>
-8.41234

> <CNNscore>
0.3381212652

> <CNNaffinity>
6.0508680344

> <CNN_VS>
2.0459270477

> <CNNaffinity_variance>
0.0152673665

$$$$
[H]c1c([H])c(C(=O)N2C([H])([H])C([H])([H])N(C3([H])C([H])([H])C([H])([H])C([H])([H])C([H])([H])C3([H])[H])C([H])([H])C2([H])[H])c([H])c([H])c1Cl


 21 23  0  0  0  0  0  0  0  0999 V2000
   12.7837   24.8249   -1.1793 C   0  0  0  0  0  0  0  0  0  0  0  0
   12.5685   25.9275   -0.4820 O   0  0  0  0  0  0  0  0  0  0  0  0
   12.3064   23.6782   -0.5653 N   0  0  0  0  0  0  0  0  0  0  0  0
   12.3993   22.3642   -1.0780 C   0  0  0  0  0  0  0  0  0  0  0  0
   11.8605   21.2589   -0.1929 C   0  0  0  0  0  0  0  0  0  0  0  0
   11.1225   21.6591    0.9044 N   0  0  0  0  0  0  0  0  0  0  0  0
   10.4970   22.9399    0.8546 C   0  0  0  0  0  0  0  0  0  0  0  0
   11.6471   23.9227    0.7571 C   0  0  0  0  0  0  0  0  0  0  0  0
   15.4920   26.1784   -6.3730 Cl  0  0  0  0  0  0  0  0  0  0  0  0
   14.7309   25.7434   -4.8518 C   0  0  0  0  0  0  0  0  0  0  0  0
   13.7047   26.5181   -4.3712 C   0  0  0  0  0  0  0  0  0  0  0  0
   13.0891   26.2108   -3.1911 C   0  0  0  0  0  0  0  0  0  0  0  0
   13.4690   25.0991   -2.4166 C   0  0  0  0  0  0  0  0  0  0  0  0
   14.4968   24.3614   -2.9433 C   0  0  0  0  0  0  0  0  0  0  0  0
   15.1426   24.6548   -4.1475 C   0  0  0  0  0  0  0  0  0  0  0  0
   10.8694   20.8411    1.9945 C   0  0  0  0  0  0  0  0  0  0  0  0
   10.0324   21.5273    3.0351 C   0  0  0  0  0  0  0  0  0  0  0  0
    9.8006   20.6527    4.2521 C   0  0  0  0  0  0  0  0  0  0  0  0
   11.0735   20.0615    4.7769 C   0  0  0  0  0  0  0  0  0  0  0  0
   11.7875   19.3168    3.6465 C   0  0  0  0  0  0  0  0  0  0  0  0
   12.1697   20.3686    2.6183 C   0  0  0  0  0  0  0  0  0  0  0  0
  9 10  1  0  0  0
 10 11  2  0  0  0
 11 12  1  0  0  0
 12 13  2  0  0  0
 13 14  1  0  0  0
 14 15  2  0  0  0
 13  1  1  0  0  0
  1  2  2  0  0  0
  1  3  1  0  0  0
  3  4  1  0  0  0
  4  5  1  0  0  0
  5  6  1  0  0  0
  6  7  1  0  0  0
  7  8  1  0  0  0
  6 16  1  0  0  0
 16 17  1  0  0  0
 17 18  1  0  0  0
 18 19  1  0  0  0
 19 20  1  0  0  0
 20 21  1  0  0  0
 15 10  1  0  0  0
  8  3  1  0  0  0
 21 16  1  0  0  0
M  END
> <minimizedAffinity>
-8.77832

> <CNNscore>
0.3212757409

> <CNNaffinity>
5.7897987366

> <CNN_VS>
1.8601218462

> <CNNaffinity_variance>
0.1300236434

$$$$
[H]c1c([H])c(C(=O)N2C([H])([H])C([H])([H])N(C3([H])C([H])([H])C([H])([H])C([H])([H])C([H])([H])C3([H])[H])C([H])([H])C2([H])[H])c([H])c([H])c1Cl


 21 23  0  0  0  0  0  0  0  0999 V2000
   14.1044   23.5158   -2.2671 C   0  0  0  0  0  0  0  0  0  0  0  0
   14.8921   22.4649   -2.4199 O   0  0  0  0  0  0  0  0  0  0  0  0
   12.9273   23.2336   -1.5929 N   0  0  0  0  0  0  0  0  0  0  0  0
   11.9030   24.1597   -1.2912 C   0  0  0  0  0  0  0  0  0  0  0  0
   10.6757   23.6014   -0.6003 C   0  0  0  0  0  0  0  0  0  0  0  0
   10.7780   22.3094   -0.1216 N   0  0  0  0  0  0  0  0  0  0  0  0
   12.0818   21.8065    0.1633 C   0  0  0  0  0  0  0  0  0  0  0  0
   12.7900   21.8012   -1.1771 C   0  0  0  0  0  0  0  0  0  0  0  0
   16.7102   28.4277   -4.5527 Cl  0  0  0  0  0  0  0  0  0  0  0  0
   15.9086   27.0029   -3.9126 C   0  0  0  0  0  0  0  0  0  0  0  0
   16.5631   26.2238   -2.9912 C   0  0  0  0  0  0  0  0  0  0  0  0
   15.9713   25.1078   -2.4716 C   0  0  0  0  0  0  0  0  0  0  0  0
   14.6772   24.7032   -2.8482 C   0  0  0  0  0  0  0  0  0  0  0  0
   14.0707   25.5167   -3.7692 C   0  0  0  0  0  0  0  0  0  0  0  0
   14.6545   26.6630   -4.3155 C   0  0  0  0  0  0  0  0  0  0  0  0
    9.6814   21.5242    0.1984 C   0  0  0  0  0  0  0  0  0  0  0  0
    9.2890   20.6134   -0.9290 C   0  0  0  0  0  0  0  0  0  0  0  0
    8.0566   19.7932   -0.6005 C   0  0  0  0  0  0  0  0  0  0  0  0
    6.9370   20.6375   -0.0726 C   0  0  0  0  0  0  0  0  0  0  0  0
    7.4382   21.4488    1.1244 C   0  0  0  0  0  0  0  0  0  0  0  0
    8.4990   22.3936    0.5846 C   0  0  0  0  0  0  0  0  0  0  0  0
  9 10  1  0  0  0
 10 11  2  0  0  0
 11 12  1  0  0  0
 12 13  2  0  0  0
 13 14  1  0  0  0
 14 15  2  0  0  0
 13  1  1  0  0  0
  1  2  2  0  0  0
  1  3  1  0  0  0
  3  4  1  0  0  0
  4  5  1  0  0  0
  5  6  1  0  0  0
  6  7  1  0  0  0
  7  8  1  0  0  0
  6 16  1  0  0  0
 16 17  1  0  0  0
 17 18  1  0  0  0
 18 19  1  0  0  0
 19 20  1  0  0  0
 20 21  1  0  0  0
 15 10  1  0  0  0
  8  3  1  0  0  0
 21 16  1  0  0  0
M  END
> <minimizedAffinity>
-7.65820

> <CNNscore>
0.2922828794

> <CNNaffinity>
5.8344092369

> <CNN_VS>
1.7052979469

> <CNNaffinity_variance>
0.0750369728

$$$$
[H]c1c([H])c(C(=O)N2C([H])([H])C([H])([H])N(C3([H])C([H])([H])C([H])([H])C([H])([H])C([H])([H])C3([H])[H])C([H])([H])C2([H])[H])c([H])c([H])c1Cl


 21 23  0  0  0  0  0  0  0  0999 V2000
   12.9254   23.4452    0.3789 C   0  0  0  0  0  0  0  0  0  0  0  0
   13.8902   22.6923    0.8793 O   0  0  0  0  0  0  0  0  0  0  0  0
   13.2758   24.0858   -0.7988 N   0  0  0  0  0  0  0  0  0  0  0  0
   12.4475   24.9512   -1.5491 C   0  0  0  0  0  0  0  0  0  0  0  0
   13.0751   25.5871   -2.7726 C   0  0  0  0  0  0  0  0  0  0  0  0
   14.2980   25.0789   -3.1667 N   0  0  0  0  0  0  0  0  0  0  0  0
   14.6222   23.7463   -2.7754 C   0  0  0  0  0  0  0  0  0  0  0  0
   14.6703   23.7943   -1.2610 C   0  0  0  0  0  0  0  0  0  0  0  0
    8.0429   23.0520    3.8643 Cl  0  0  0  0  0  0  0  0  0  0  0  0
    9.4545   23.2126    2.8326 C   0  0  0  0  0  0  0  0  0  0  0  0
   10.3416   22.1688    2.7449 C   0  0  0  0  0  0  0  0  0  0  0  0
   11.4511   22.2578    1.9529 C   0  0  0  0  0  0  0  0  0  0  0  0
   11.7392   23.4084    1.1956 C   0  0  0  0  0  0  0  0  0  0  0  0
   10.8210   24.4179    1.3203 C   0  0  0  0  0  0  0  0  0  0  0  0
    9.6790   24.3515    2.1233 C   0  0  0  0  0  0  0  0  0  0  0  0
   15.1693   25.7519   -4.0089 C   0  0  0  0  0  0  0  0  0  0  0  0
   16.0110   26.7523   -3.2705 C   0  0  0  0  0  0  0  0  0  0  0  0
   16.9260   27.5275   -4.1987 C   0  0  0  0  0  0  0  0  0  0  0  0
   16.1932   28.0902   -5.3783 C   0  0  0  0  0  0  0  0  0  0  0  0
   15.4495   26.9613   -6.0956 C   0  0  0  0  0  0  0  0  0  0  0  0
   14.4043   26.4509   -5.1176 C   0  0  0  0  0  0  0  0  0  0  0  0
  9 10  1  0  0  0
 10 11  2  0  0  0
 11 12  1  0  0  0
 12 13  2  0  0  0
 13 14  1  0  0  0
 14 15  2  0  0  0
 13  1  1  0  0  0
  1  2  2  0  0  0
  1  3  1  0  0  0
  3  4  1  0  0  0
  4  5  1  0  0  0
  5  6  1  0  0  0
  6  7  1  0  0  0
  7  8  1  0  0  0
  6 16  1  0  0  0
 16 17  1  0  0  0
 17 18  1  0  0  0
 18 19  1  0  0  0
 19 20  1  0  0  0
 20 21  1  0  0  0
 15 10  1  0  0  0
  8  3  1  0  0  0
 21 16  1  0  0  0
M  END
> <minimizedAffinity>
-8.82518

> <CNNscore>
0.2787958384

> <CNNaffinity>
6.2139234543

> <CNN_VS>
1.7324160337

> <CNNaffinity_variance>
0.3630633652

$$$$
[H]c1c([H])c(C(=O)N2C([H])([H])C([H])([H])N(C3([H])C([H])([H])C([H])([H])C([H])([H])C([H])([H])C3([H])[H])C([H])([H])C2([H])[H])c([H])c([H])c1Cl


 21 23  0  0  0  0  0  0  0  0999 V2000
   13.5920   25.7552   -2.6567 C   0  0  0  0  0  0  0  0  0  0  0  0
   12.6971   26.0297   -3.5905 O   0  0  0  0  0  0  0  0  0  0  0  0
   13.0882   24.9987   -1.6108 N   0  0  0  0  0  0  0  0  0  0  0  0
   13.8143   24.5624   -0.4793 C   0  0  0  0  0  0  0  0  0  0  0  0
   13.0295   23.7996    0.5684 C   0  0  0  0  0  0  0  0  0  0  0  0
   11.7568   23.4001    0.2086 N   0  0  0  0  0  0  0  0  0  0  0  0
   11.4730   23.2545   -1.1815 C   0  0  0  0  0  0  0  0  0  0  0  0
   11.6388   24.6488   -1.7529 C   0  0  0  0  0  0  0  0  0  0  0  0
   18.8625   28.2244   -4.1618 Cl  0  0  0  0  0  0  0  0  0  0  0  0
   17.3452   27.4822   -3.6827 C   0  0  0  0  0  0  0  0  0  0  0  0
   16.2284   27.6835   -4.4550 C   0  0  0  0  0  0  0  0  0  0  0  0
   15.0307   27.1225   -4.1133 C   0  0  0  0  0  0  0  0  0  0  0  0
   14.8806   26.3196   -2.9674 C   0  0  0  0  0  0  0  0  0  0  0  0
   16.0262   26.1518   -2.2345 C   0  0  0  0  0  0  0  0  0  0  0  0
   17.2627   26.7146   -2.5626 C   0  0  0  0  0  0  0  0  0  0  0  0
   10.7848   23.0296    1.1248 C   0  0  0  0  0  0  0  0  0  0  0  0
    9.6599   22.2713    0.4812 C   0  0  0  0  0  0  0  0  0  0  0  0
    8.5698   21.9127    1.4725 C   0  0  0  0  0  0  0  0  0  0  0  0
    8.1315   23.0926    2.2855 C   0  0  0  0  0  0  0  0  0  0  0  0
    9.3528   23.7228    2.9589 C   0  0  0  0  0  0  0  0  0  0  0  0
   10.2326   24.2502    1.8377 C   0  0  0  0  0  0  0  0  0  0  0  0
  9 10  1  0  0  0
 10 11  2  0  0  0
 11 12  1  0  0  0
 12 13  2  0  0  0
 13 14  1  0  0  0
 14 15  2  0  0  0
 13  1  1  0  0  0
  1  2  2  0  0  0
  1  3  1  0  0  0
  3  4  1  0  0  0
  4  5  1  0  0  0
  5  6  1  0  0  0
  6  7  1  0  0  0
  7  8  1  0  0  0
  6 16  1  0  0  0
 16 17  1  0  0  0
 17 18  1  0  0  0
 18 19  1  0  0  0
 19 20  1  0  0  0
 20 21  1  0  0  0
 15 10  1  0  0  0
  8  3  1  0  0  0
 21 16  1  0  0  0
M  END
> <minimizedAffinity>
-6.54390

> <CNNscore>
0.2729620934

> <CNNaffinity>
5.7297062874

> <CNN_VS>
1.5639926195

> <CNNaffinity_variance>
0.1498662978

$$$$
[H]c1c([H])c(C(=O)N2C([H])([H])C([H])([H])N(C3([H])C([H])([H])C([H])([H])C([H])([H])C([H])([H])C3([H])[H])C([H])([H])C2([H])[H])c([H])c([H])c1Cl


 21 23  0  0  0  0  0  0  0  0999 V2000
   14.7633   23.8451   -2.9325 C   0  0  0  0  0  0  0  0  0  0  0  0
   14.9991   22.7209   -3.5872 O   0  0  0  0  0  0  0  0  0  0  0  0
   14.2505   23.6492   -1.6603 N   0  0  0  0  0  0  0  0  0  0  0  0
   13.9038   24.6657   -0.7413 C   0  0  0  0  0  0  0  0  0  0  0  0
   13.2986   24.2072    0.5698 C   0  0  0  0  0  0  0  0  0  0  0  0
   13.3681   22.8530    0.8349 N   0  0  0  0  0  0  0  0  0  0  0  0
   14.3916   22.0997    0.1876 C   0  0  0  0  0  0  0  0  0  0  0  0
   14.0697   22.2093   -1.2897 C   0  0  0  0  0  0  0  0  0  0  0  0
   16.3222   28.7687   -6.0096 Cl  0  0  0  0  0  0  0  0  0  0  0  0
   15.8408   27.3152   -5.1505 C   0  0  0  0  0  0  0  0  0  0  0  0
   16.2659   27.1296   -3.8586 C   0  0  0  0  0  0  0  0  0  0  0  0
   15.9117   26.0110   -3.1591 C   0  0  0  0  0  0  0  0  0  0  0  0
   15.1036   25.0038   -3.7182 C   0  0  0  0  0  0  0  0  0  0  0  0
   14.7079   25.2407   -5.0086 C   0  0  0  0  0  0  0  0  0  0  0  0
   15.0565   26.3762   -5.7452 C   0  0  0  0  0  0  0  0  0  0  0  0
   12.5718   22.2167    1.7744 C   0  0  0  0  0  0  0  0  0  0  0  0
   12.5166   20.7320    1.5573 C   0  0  0  0  0  0  0  0  0  0  0  0
   11.6026   20.0414    2.5509 C   0  0  0  0  0  0  0  0  0  0  0  0
   10.2603   20.7011    2.6410 C   0  0  0  0  0  0  0  0  0  0  0  0
   10.4487   22.1876    2.9521 C   0  0  0  0  0  0  0  0  0  0  0  0
   11.1653   22.7863    1.7531 C   0  0  0  0  0  0  0  0  0  0  0  0
  9 10  1  0  0  0
 10 11  2  0  0  0
 11 12  1  0  0  0
 12 13  2  0  0  0
 13 14  1  0  0  0
 14 15  2  0  0  0
 13  1  1  0  0  0
  1  2  2  0  0  0
  1  3  1  0  0  0
  3  4  1  0  0  0
  4  5  1  0  0  0
  5  6  1  0  0  0
  6  7  1  0  0  0
  7  8  1  0  0  0
  6 16  1  0  0  0
 16 17  1  0  0  0
 17 18  1  0  0  0
 18 19  1  0  0  0
 19 20  1  0  0  0
 20 21  1  0  0  0
 15 10  1  0  0  0
  8  3  1  0  0  0
 21 16  1  0  0  0
M  END
> <minimizedAffinity>
-7.40083

> <CNNscore>
0.2555465102

> <CNNaffinity>
5.9806962013

> <CNN_VS>
1.5283460617

> <CNNaffinity_variance>
0.0439296626

$$$$
[H]c1c([H])c(C(=O)N2C([H])([H])C([H])([H])N(C3([H])C([H])([H])C([H])([H])C([H])([H])C([H])([H])C3([H])[H])C([H])([H])C2([H])[H])c([H])c([H])c1Cl


 21 23  0  0  0  0  0  0  0  0999 V2000
   11.6926   22.6265    1.7097 C   0  0  0  0  0  0  0  0  0  0  0  0
   12.5755   21.7144    2.0796 O   0  0  0  0  0  0  0  0  0  0  0  0
   12.0673   23.3350    0.5795 N   0  0  0  0  0  0  0  0  0  0  0  0
   11.3225   24.3667   -0.0361 C   0  0  0  0  0  0  0  0  0  0  0  0
   11.9691   25.0414   -1.2286 C   0  0  0  0  0  0  0  0  0  0  0  0
   13.0977   24.4298   -1.7396 N   0  0  0  0  0  0  0  0  0  0  0  0
   13.2670   23.0348   -1.4956 C   0  0  0  0  0  0  0  0  0  0  0  0
   13.3905   22.9232    0.0112 C   0  0  0  0  0  0  0  0  0  0  0  0
    6.9369   22.4762    5.3841 Cl  0  0  0  0  0  0  0  0  0  0  0  0
    8.3223   22.5699    4.3097 C   0  0  0  0  0  0  0  0  0  0  0  0
    8.9370   21.4103    3.9075 C   0  0  0  0  0  0  0  0  0  0  0  0
   10.0175   21.4441    3.0725 C   0  0  0  0  0  0  0  0  0  0  0  0
   10.5503   22.6527    2.5872 C   0  0  0  0  0  0  0  0  0  0  0  0
    9.8983   23.7778    3.0196 C   0  0  0  0  0  0  0  0  0  0  0  0
    8.7916   23.7698    3.8732 C   0  0  0  0  0  0  0  0  0  0  0  0
   14.0081   25.0727   -2.5639 C   0  0  0  0  0  0  0  0  0  0  0  0
   13.3478   26.0830   -3.4571 C   0  0  0  0  0  0  0  0  0  0  0  0
   14.3345   26.7480   -4.3972 C   0  0  0  0  0  0  0  0  0  0  0  0
   15.1893   25.7520   -5.1201 C   0  0  0  0  0  0  0  0  0  0  0  0
   15.8744   24.8404   -4.0995 C   0  0  0  0  0  0  0  0  0  0  0  0
   14.7650   24.0647   -3.4089 C   0  0  0  0  0  0  0  0  0  0  0  0
  9 10  1  0  0  0
 10 11  2  0  0  0
 11 12  1  0  0  0
 12 13  2  0  0  0
 13 14  1  0  0  0
 14 15  2  0  0  0
 13  1  1  0  0  0
  1  2  2  0  0  0
  1  3  1  0  0  0
  3  4  1  0  0  0
  4  5  1  0  0  0
  5  6  1  0  0  0
  6  7  1  0  0  0
  7  8  1  0  0  0
  6 16  1  0  0  0
 16 17  1  0  0  0
 17 18  1  0  0  0
 18 19  1  0  0  0
 19 20  1  0  0  0
 20 21  1  0  0  0
 15 10  1  0  0  0
  8  3  1  0  0  0
 21 16  1  0  0  0
M  END
> <minimizedAffinity>
-8.15489

> <CNNscore>
0.2540795207

> <CNNaffinity>
5.9522428513

> <CNN_VS>
1.5123430490

> <CNNaffinity_variance>
0.1685168445

$$$$
[H]C1=C2C([H])([H])C([H])([H])[C@]3([H])[C@]([H])(C([H])([H])C([H])([H])[C@]4(C([H])([H])[H])C([H])([H])C([H])([H])C(=O)[C@]([H])(C([H])([H])C([H])([H])[H])C([H])([H])[C@@]34[H])[C@@]2(C([H])([H])[H])C([H])([H])C([H])([H])C1=O


 25 28  0  0  0  0  0  0  0  0999 V2000
   12.5836   21.6278   -0.2874 C   0  0  0  0  0  0  0  0  0  0  0  0
   13.5269   22.3891   -1.1173 C   0  0  0  0  0  0  0  0  0  0  0  0
   13.5850   23.8386   -1.1149 C   0  0  0  0  0  0  0  0  0  0  0  0
   14.0721   24.2697   -2.5075 C   0  0  0  0  0  0  0  0  0  0  0  0
   15.3125   23.5046   -2.9098 C   0  0  0  0  0  0  0  0  0  0  0  0
   15.4089   23.6091   -4.4275 C   0  0  0  0  0  0  0  0  0  0  0  0
   15.3179   25.0370   -4.8269 C   0  0  0  0  0  0  0  0  0  0  0  0
   15.9513   25.3722   -5.9359 C   0  0  0  0  0  0  0  0  0  0  0  0
   15.9264   26.7430   -6.4153 C   0  0  0  0  0  0  0  0  0  0  0  0
   16.1437   26.9858   -7.6141 O   0  0  0  0  0  0  0  0  0  0  0  0
   15.6430   27.8619   -5.4844 C   0  0  0  0  0  0  0  0  0  0  0  0
   15.4157   27.3409   -4.0749 C   0  0  0  0  0  0  0  0  0  0  0  0
   14.5859   26.0577   -4.0881 C   0  0  0  0  0  0  0  0  0  0  0  0
   13.2759   26.2983   -4.8247 C   0  0  0  0  0  0  0  0  0  0  0  0
   14.3431   25.7024   -2.6395 C   0  0  0  0  0  0  0  0  0  0  0  0
   13.2427   26.6055   -2.1505 C   0  0  0  0  0  0  0  0  0  0  0  0
   12.8327   26.1326   -0.8096 C   0  0  0  0  0  0  0  0  0  0  0  0
   12.4165   24.6515   -0.7632 C   0  0  0  0  0  0  0  0  0  0  0  0
   11.1976   24.4544   -1.6062 C   0  0  0  0  0  0  0  0  0  0  0  0
   12.0273   24.5571    0.7210 C   0  0  0  0  0  0  0  0  0  0  0  0
   11.1643   23.3791    1.0213 C   0  0  0  0  0  0  0  0  0  0  0  0
   12.1363   22.2243    0.9609 C   0  0  0  0  0  0  0  0  0  0  0  0
   12.4963   21.8556    2.0493 O   0  0  0  0  0  0  0  0  0  0  0  0
   14.6543   20.2673    0.1227 C   0  0  0  0  0  0  0  0  0  0  0  0
   13.1714   20.2553    0.0897 C   0  0  0  0  0  0  0  0  0  0  0  0
 24 25  1  0  0  0
 25  1  1  0  0  0
  1  2  1  0  0  0
  2  3  1  0  0  0
  3  4  1  0  0  0
  4  5  1  0  0  0
  5  6  1  0  0  0
  6  7  1  0  0  0
  7  8  2  0  0  0
  8  9  1  0  0  0
  9 10  2  0  0  0
  9 11  1  0  0  0
 11 12  1  0  0  0
 12 13  1  0  0  0
 13 14  1  0  0  0
 13 15  1  0  0  0
 15 16  1  0  0  0
 16 17  1  0  0  0
 17 18  1  0  0  0
 18 19  1  0  0  0
 18 20  1  0  0  0
 20 21  1  0  0  0
 21 22  1  0  0  0
 22 23  2  0  0  0
 22  1  1  0  0  0
 18  3  1  0  0  0
 15  4  1  0  0  0
 13  7  1  0  0  0
M  END
> <minimizedAffinity>
-7.84001

> <CNNscore>
0.6808361411

> <CNNaffinity>
7.4192337990

> <CNN_VS>
5.0512824059

> <CNNaffinity_variance>
0.5049726963

$$$$
[H]C1=C2C([H])([H])C([H])([H])[C@]3([H])[C@]([H])(C([H])([H])C([H])([H])[C@]4(C([H])([H])[H])C([H])([H])C([H])([H])C(=O)[C@]([H])(C([H])([H])C([H])([H])[H])C([H])([H])[C@@]34[H])[C@@]2(C([H])([H])[H])C([H])([H])C([H])([H])C1=O


 25 28  0  0  0  0  0  0  0  0999 V2000
   16.4185   27.8545   -3.7217 C   0  0  0  0  0  0  0  0  0  0  0  0
   16.4157   26.6610   -2.8652 C   0  0  0  0  0  0  0  0  0  0  0  0
   15.9772   25.3590   -3.3310 C   0  0  0  0  0  0  0  0  0  0  0  0
   15.4236   24.6091   -2.1087 C   0  0  0  0  0  0  0  0  0  0  0  0
   16.3950   24.6652   -0.9515 C   0  0  0  0  0  0  0  0  0  0  0  0
   15.5840   24.3710    0.3052 C   0  0  0  0  0  0  0  0  0  0  0  0
   14.8149   23.1153    0.1090 C   0  0  0  0  0  0  0  0  0  0  0  0
   14.5630   22.4115    1.1974 C   0  0  0  0  0  0  0  0  0  0  0  0
   13.8183   21.1672    1.1165 C   0  0  0  0  0  0  0  0  0  0  0  0
   13.2314   20.7283    2.1196 O   0  0  0  0  0  0  0  0  0  0  0  0
   13.7506   20.4109   -0.1571 C   0  0  0  0  0  0  0  0  0  0  0  0
   14.5407   21.1210   -1.2439 C   0  0  0  0  0  0  0  0  0  0  0  0
   14.3322   22.6335   -1.1787 C   0  0  0  0  0  0  0  0  0  0  0  0
   12.8460   22.9529   -1.2538 C   0  0  0  0  0  0  0  0  0  0  0  0
   15.0771   23.2092   -2.3608 C   0  0  0  0  0  0  0  0  0  0  0  0
   14.2144   22.9757   -3.5720 C   0  0  0  0  0  0  0  0  0  0  0  0
   14.8115   23.7212   -4.7022 C   0  0  0  0  0  0  0  0  0  0  0  0
   15.0161   25.2222   -4.4298 C   0  0  0  0  0  0  0  0  0  0  0  0
   13.6856   25.8733   -4.2277 C   0  0  0  0  0  0  0  0  0  0  0  0
   15.5828   25.6399   -5.7964 C   0  0  0  0  0  0  0  0  0  0  0  0
   15.4894   27.1078   -6.0398 C   0  0  0  0  0  0  0  0  0  0  0  0
   16.5785   27.6667   -5.1547 C   0  0  0  0  0  0  0  0  0  0  0  0
   17.5836   27.9373   -5.7602 O   0  0  0  0  0  0  0  0  0  0  0  0
   18.8838   28.3283   -3.6547 C   0  0  0  0  0  0  0  0  0  0  0  0
   17.5336   28.8287   -3.2986 C   0  0  0  0  0  0  0  0  0  0  0  0
 24 25  1  0  0  0
 25  1  1  0  0  0
  1  2  1  0  0  0
  2  3  1  0  0  0
  3  4  1  0  0  0
  4  5  1  0  0  0
  5  6  1  0  0  0
  6  7  1  0  0  0
  7  8  2  0  0  0
  8  9  1  0  0  0
  9 10  2  0  0  0
  9 11  1  0  0  0
 11 12  1  0  0  0
 12 13  1  0  0  0
 13 14  1  0  0  0
 13 15  1  0  0  0
 15 16  1  0  0  0
 16 17  1  0  0  0
 17 18  1  0  0  0
 18 19  1  0  0  0
 18 20  1  0  0  0
 20 21  1  0  0  0
 21 22  1  0  0  0
 22 23  2  0  0  0
 22  1  1  0  0  0
 18  3  1  0  0  0
 15  4  1  0  0  0
 13  7  1  0  0  0
M  END
> <minimizedAffinity>
-3.73097

> <CNNscore>
0.6371157169

> <CNNaffinity>
7.3057365417

> <CNN_VS>
4.6545996666

> <CNNaffinity_variance>
0.3877823949

$$$$
[H]C1=C2C([H])([H])C([H])([H])[C@]3([H])[C@]([H])(C([H])([H])C([H])([H])[C@]4(C([H])([H])[H])C([H])([H])C([H])([H])C(=O)[C@]([H])(C([H])([H])C([H])([H])[H])C([H])([H])[C@@]34[H])[C@@]2(C([H])([H])[H])C([H])([H])C([H])([H])C1=O


 25 28  0  0  0  0  0  0  0  0999 V2000
   12.4374   26.3277   -4.2235 C   0  0  0  0  0  0  0  0  0  0  0  0
   12.9354   25.8261   -2.9357 C   0  0  0  0  0  0  0  0  0  0  0  0
   14.2821   26.0798   -2.4598 C   0  0  0  0  0  0  0  0  0  0  0  0
   14.6713   24.8935   -1.5633 C   0  0  0  0  0  0  0  0  0  0  0  0
   13.5935   24.6078   -0.5423 C   0  0  0  0  0  0  0  0  0  0  0  0
   13.8127   23.1734   -0.0755 C   0  0  0  0  0  0  0  0  0  0  0  0
   15.2269   23.0067    0.3476 C   0  0  0  0  0  0  0  0  0  0  0  0
   15.4506   22.1062    1.2871 C   0  0  0  0  0  0  0  0  0  0  0  0
   16.7978   21.8650    1.7731 C   0  0  0  0  0  0  0  0  0  0  0  0
   17.0767   20.7848    2.3198 O   0  0  0  0  0  0  0  0  0  0  0  0
   17.8496   22.8993    1.6234 C   0  0  0  0  0  0  0  0  0  0  0  0
   17.2908   24.1355    0.9383 C   0  0  0  0  0  0  0  0  0  0  0  0
   16.3490   23.7553   -0.2036 C   0  0  0  0  0  0  0  0  0  0  0  0
   17.0688   22.8380   -1.1819 C   0  0  0  0  0  0  0  0  0  0  0  0
   15.9473   25.0539   -0.8638 C   0  0  0  0  0  0  0  0  0  0  0  0
   17.1017   25.4725   -1.7343 C   0  0  0  0  0  0  0  0  0  0  0  0
   16.6535   26.6162   -2.5595 C   0  0  0  0  0  0  0  0  0  0  0  0
   15.3869   26.3378   -3.3885 C   0  0  0  0  0  0  0  0  0  0  0  0
   15.6759   25.2618   -4.3855 C   0  0  0  0  0  0  0  0  0  0  0  0
   15.2744   27.6870   -4.1167 C   0  0  0  0  0  0  0  0  0  0  0  0
   14.4110   27.6216   -5.3304 C   0  0  0  0  0  0  0  0  0  0  0  0
   13.0179   27.5523   -4.7504 C   0  0  0  0  0  0  0  0  0  0  0  0
   12.4465   28.6122   -4.7723 O   0  0  0  0  0  0  0  0  0  0  0  0
   10.2367   25.6635   -3.2124 C   0  0  0  0  0  0  0  0  0  0  0  0
   10.9185   26.5746   -4.1639 C   0  0  0  0  0  0  0  0  0  0  0  0
 24 25  1  0  0  0
 25  1  1  0  0  0
  1  2  1  0  0  0
  2  3  1  0  0  0
  3  4  1  0  0  0
  4  5  1  0  0  0
  5  6  1  0  0  0
  6  7  1  0  0  0
  7  8  2  0  0  0
  8  9  1  0  0  0
  9 10  2  0  0  0
  9 11  1  0  0  0
 11 12  1  0  0  0
 12 13  1  0  0  0
 13 14  1  0  0  0
 13 15  1  0  0  0
 15 16  1  0  0  0
 16 17  1  0  0  0
 17 18  1  0  0  0
 18 19  1  0  0  0
 18 20  1  0  0  0
 20 21  1  0  0  0
 21 22  1  0  0  0
 22 23  2  0  0  0
 22  1  1  0  0  0
 18  3  1  0  0  0
 15  4  1  0  0  0
 13  7  1  0  0  0
M  END
> <minimizedAffinity>
27.10097

> <CNNscore>
0.6053909659

> <CNNaffinity>
6.9454088211

> <CNN_VS>
4.2046875954

> <CNNaffinity_variance>
0.8817296028

$$$$
[H]C1=C2C([H])([H])C([H])([H])[C@]3([H])[C@]([H])(C([H])([H])C([H])([H])[C@]4(C([H])([H])[H])C([H])([H])C([H])([H])C(=O)[C@]([H])(C([H])([H])C([H])([H])[H])C([H])([H])[C@@]34[H])[C@@]2(C([H])([H])[H])C([H])([H])C([H])([H])C1=O


 25 28  0  0  0  0  0  0  0  0999 V2000
   13.5024   21.4930   -0.8014 C   0  0  0  0  0  0  0  0  0  0  0  0
   14.1797   22.2907   -1.8324 C   0  0  0  0  0  0  0  0  0  0  0  0
   15.2289   23.2447   -1.5265 C   0  0  0  0  0  0  0  0  0  0  0  0
   15.1686   24.3381   -2.6052 C   0  0  0  0  0  0  0  0  0  0  0  0
   15.1331   23.7330   -3.9903 C   0  0  0  0  0  0  0  0  0  0  0  0
   14.5719   24.8074   -4.9146 C   0  0  0  0  0  0  0  0  0  0  0  0
   15.3419   26.0641   -4.7291 C   0  0  0  0  0  0  0  0  0  0  0  0
   15.4233   26.8571   -5.7817 C   0  0  0  0  0  0  0  0  0  0  0  0
   16.1534   28.1105   -5.7076 C   0  0  0  0  0  0  0  0  0  0  0  0
   15.9002   29.0251   -6.5093 O   0  0  0  0  0  0  0  0  0  0  0  0
   17.2033   28.3115   -4.6800 C   0  0  0  0  0  0  0  0  0  0  0  0
   17.3515   27.0697   -3.8163 C   0  0  0  0  0  0  0  0  0  0  0  0
   15.9889   26.4620   -3.4855 C   0  0  0  0  0  0  0  0  0  0  0  0
   15.1024   27.5105   -2.8287 C   0  0  0  0  0  0  0  0  0  0  0  0
   16.2623   25.3095   -2.5471 C   0  0  0  0  0  0  0  0  0  0  0  0
   16.5109   25.9069   -1.1881 C   0  0  0  0  0  0  0  0  0  0  0  0
   16.5610   24.7980   -0.2096 C   0  0  0  0  0  0  0  0  0  0  0  0
   15.3145   23.8951   -0.2153 C   0  0  0  0  0  0  0  0  0  0  0  0
   14.1231   24.6954    0.2035 C   0  0  0  0  0  0  0  0  0  0  0  0
   15.7064   22.9365    0.9209 C   0  0  0  0  0  0  0  0  0  0  0  0
   14.5413   22.1958    1.4836 C   0  0  0  0  0  0  0  0  0  0  0  0
   14.2397   21.1757    0.4111 C   0  0  0  0  0  0  0  0  0  0  0  0
   14.6726   20.0817    0.6680 O   0  0  0  0  0  0  0  0  0  0  0  0
   11.6394   19.8194   -0.9885 C   0  0  0  0  0  0  0  0  0  0  0  0
   13.0348   20.1422   -1.3743 C   0  0  0  0  0  0  0  0  0  0  0  0
 24 25  1  0  0  0
 25  1  1  0  0  0
  1  2  1  0  0  0
  2  3  1  0  0  0
  3  4  1  0  0  0
  4  5  1  0  0  0
  5  6  1  0  0  0
  6  7  1  0  0  0
  7  8  2  0  0  0
  8  9  1  0  0  0
  9 10  2  0  0  0
  9 11  1  0  0  0
 11 12  1  0  0  0
 12 13  1  0  0  0
 13 14  1  0  0  0
 13 15  1  0  0  0
 15 16  1  0  0  0
 16 17  1  0  0  0
 17 18  1  0  0  0
 18 19  1  0  0  0
 18 20  1  0  0  0
 20 21  1  0  0  0
 21 22  1  0  0  0
 22 23  2  0  0  0
 22  1  1  0  0  0
 18  3  1  0  0  0
 15  4  1  0  0  0
 13  7  1  0  0  0
M  END
> <minimizedAffinity>
-1.85459

> <CNNscore>
0.5909185410

> <CNNaffinity>
7.1641225815

> <CNN_VS>
4.2334127426

> <CNNaffinity_variance>
0.3631788194

$$$$
[H]C1=C2C([H])([H])C([H])([H])[C@]3([H])[C@]([H])(C([H])([H])C([H])([H])[C@]4(C([H])([H])[H])C([H])([H])C([H])([H])C(=O)[C@]([H])(C([H])([H])C([H])([H])[H])C([H])([H])[C@@]34[H])[C@@]2(C([H])([H])[H])C([H])([H])C([H])([H])C1=O


 25 28  0  0  0  0  0  0  0  0999 V2000
   11.3992   23.0462    1.3401 C   0  0  0  0  0  0  0  0  0  0  0  0
   11.6746   23.6438    0.0266 C   0  0  0  0  0  0  0  0  0  0  0  0
   12.5941   23.0553   -0.9287 C   0  0  0  0  0  0  0  0  0  0  0  0
   13.1745   24.2095   -1.7614 C   0  0  0  0  0  0  0  0  0  0  0  0
   12.0762   25.1071   -2.2849 C   0  0  0  0  0  0  0  0  0  0  0  0
   12.7359   26.4372   -2.6300 C   0  0  0  0  0  0  0  0  0  0  0  0
   13.9053   26.1897   -3.5121 C   0  0  0  0  0  0  0  0  0  0  0  0
   14.2105   27.1565   -4.3581 C   0  0  0  0  0  0  0  0  0  0  0  0
   15.3357   27.0158   -5.2657 C   0  0  0  0  0  0  0  0  0  0  0  0
   15.8753   28.0259   -5.7472 O   0  0  0  0  0  0  0  0  0  0  0  0
   15.8501   25.6725   -5.6259 C   0  0  0  0  0  0  0  0  0  0  0  0
   15.0427   24.5869   -4.9333 C   0  0  0  0  0  0  0  0  0  0  0  0
   14.7141   24.9778   -3.4930 C   0  0  0  0  0  0  0  0  0  0  0  0
   15.9971   25.3011   -2.7408 C   0  0  0  0  0  0  0  0  0  0  0  0
   14.0090   23.7863   -2.8874 C   0  0  0  0  0  0  0  0  0  0  0  0
   15.0747   22.7796   -2.5462 C   0  0  0  0  0  0  0  0  0  0  0  0
   14.4413   21.7026   -1.7532 C   0  0  0  0  0  0  0  0  0  0  0  0
   13.7012   22.1962   -0.4971 C   0  0  0  0  0  0  0  0  0  0  0  0
   14.6848   22.8111    0.4460 C   0  0  0  0  0  0  0  0  0  0  0  0
   13.2433   20.8391    0.0613 C   0  0  0  0  0  0  0  0  0  0  0  0
   12.8702   20.9006    1.5035 C   0  0  0  0  0  0  0  0  0  0  0  0
   11.5341   21.6049    1.4768 C   0  0  0  0  0  0  0  0  0  0  0  0
   10.6023   20.8492    1.5804 O   0  0  0  0  0  0  0  0  0  0  0  0
    9.8865   24.7052    2.4654 C   0  0  0  0  0  0  0  0  0  0  0  0
    9.9691   23.3802    1.8038 C   0  0  0  0  0  0  0  0  0  0  0  0
 24 25  1  0  0  0
 25  1  1  0  0  0
  1  2  1  0  0  0
  2  3  1  0  0  0
  3  4  1  0  0  0
  4  5  1  0  0  0
  5  6  1  0  0  0
  6  7  1  0  0  0
  7  8  2  0  0  0
  8  9  1  0  0  0
  9 10  2  0  0  0
  9 11  1  0  0  0
 11 12  1  0  0  0
 12 13  1  0  0  0
 13 14  1  0  0  0
 13 15  1  0  0  0
 15 16  1  0  0  0
 16 17  1  0  0  0
 17 18  1  0  0  0
 18 19  1  0  0  0
 18 20  1  0  0  0
 20 21  1  0  0  0
 21 22  1  0  0  0
 22 23  2  0  0  0
 22  1  1  0  0  0
 18  3  1  0  0  0
 15  4  1  0  0  0
 13  7  1  0  0  0
M  END
> <minimizedAffinity>
-10.34521

> <CNNscore>
0.5717302561

> <CNNaffinity>
7.5552773476

> <CNN_VS>
4.3195805550

> <CNNaffinity_variance>
0.3559753299

$$$$
[H]C1=C2C([H])([H])C([H])([H])[C@]3([H])[C@]([H])(C([H])([H])C([H])([H])[C@]4(C([H])([H])[H])C([H])([H])C([H])([H])C(=O)[C@]([H])(C([H])([H])C([H])([H])[H])C([H])([H])[C@@]34[H])[C@@]2(C([H])([H])[H])C([H])([H])C([H])([H])C1=O


 25 28  0  0  0  0  0  0  0  0999 V2000
   10.9557   23.2708    0.0423 C   0  0  0  0  0  0  0  0  0  0  0  0
   11.4374   24.0479   -1.1075 C   0  0  0  0  0  0  0  0  0  0  0  0
   12.5715   23.6389   -1.9144 C   0  0  0  0  0  0  0  0  0  0  0  0
   13.2117   24.9212   -2.4697 C   0  0  0  0  0  0  0  0  0  0  0  0
   12.1712   25.8185   -3.1006 C   0  0  0  0  0  0  0  0  0  0  0  0
   12.7784   27.2159   -3.1454 C   0  0  0  0  0  0  0  0  0  0  0  0
   14.1151   27.1486   -3.7899 C   0  0  0  0  0  0  0  0  0  0  0  0
   14.5041   28.2321   -4.4366 C   0  0  0  0  0  0  0  0  0  0  0  0
   15.7942   28.2715   -5.1027 C   0  0  0  0  0  0  0  0  0  0  0  0
   16.3366   29.3633   -5.3419 O   0  0  0  0  0  0  0  0  0  0  0  0
   16.4746   27.0162   -5.5025 C   0  0  0  0  0  0  0  0  0  0  0  0
   15.6349   25.8078   -5.1223 C   0  0  0  0  0  0  0  0  0  0  0  0
   14.9977   25.9900   -3.7453 C   0  0  0  0  0  0  0  0  0  0  0  0
   16.0767   26.2818   -2.7123 C   0  0  0  0  0  0  0  0  0  0  0  0
   14.2835   24.6936   -3.4407 C   0  0  0  0  0  0  0  0  0  0  0  0
   15.3370   23.7102   -3.0063 C   0  0  0  0  0  0  0  0  0  0  0  0
   14.6467   22.5068   -2.4916 C   0  0  0  0  0  0  0  0  0  0  0  0
   13.6358   22.7923   -1.3666 C   0  0  0  0  0  0  0  0  0  0  0  0
   14.3614   23.3319   -0.1759 C   0  0  0  0  0  0  0  0  0  0  0  0
   13.1856   21.3514   -1.0760 C   0  0  0  0  0  0  0  0  0  0  0  0
   12.5308   21.2048    0.2553 C   0  0  0  0  0  0  0  0  0  0  0  0
   11.1748   21.8334    0.0356 C   0  0  0  0  0  0  0  0  0  0  0  0
   10.3039   21.0212   -0.1437 O   0  0  0  0  0  0  0  0  0  0  0  0
    9.1288   24.5823    1.1600 C   0  0  0  0  0  0  0  0  0  0  0  0
    9.4403   23.4638    0.2368 C   0  0  0  0  0  0  0  0  0  0  0  0
 24 25  1  0  0  0
 25  1  1  0  0  0
  1  2  1  0  0  0
  2  3  1  0  0  0
  3  4  1  0  0  0
  4  5  1  0  0  0
  5  6  1  0  0  0
  6  7  1  0  0  0
  7  8  2  0  0  0
  8  9  1  0  0  0
  9 10  2  0  0  0
  9 11  1  0  0  0
 11 12  1  0  0  0
 12 13  1  0  0  0
 13 14  1  0  0  0
 13 15  1  0  0  0
 15 16  1  0  0  0
 16 17  1  0  0  0
 17 18  1  0  0  0
 18 19  1  0  0  0
 18 20  1  0  0  0
 20 21  1  0  0  0
 21 22  1  0  0  0
 22 23  2  0  0  0
 22  1  1  0  0  0
 18  3  1  0  0  0
 15  4  1  0  0  0
 13  7  1  0  0  0
M  END
> <minimizedAffinity>
-4.91365

> <CNNscore>
0.5544214845

> <CNNaffinity>
7.0228981972

> <CNN_VS>
3.8936455250

> <CNNaffinity_variance>
0.3652605414

$$$$
[H]C1=C2C([H])([H])C([H])([H])[C@]3([H])[C@]([H])(C([H])([H])C([H])([H])[C@]4(C([H])([H])[H])C([H])([H])C([H])([H])C(=O)[C@]([H])(C([H])([H])C([H])([H])[H])C([H])([H])[C@@]34[H])[C@@]2(C([H])([H])[H])C([H])([H])C([H])([H])C1=O


 25 28  0  0  0  0  0  0  0  0999 V2000
   14.5104   25.6794   -3.8897 C   0  0  0  0  0  0  0  0  0  0  0  0
   13.4686   25.4117   -2.8891 C   0  0  0  0  0  0  0  0  0  0  0  0
   13.7663   24.9422   -1.5492 C   0  0  0  0  0  0  0  0  0  0  0  0
   12.5582   24.1120   -1.0868 C   0  0  0  0  0  0  0  0  0  0  0  0
   11.2654   24.8630   -1.3111 C   0  0  0  0  0  0  0  0  0  0  0  0
   10.1561   23.8175   -1.3165 C   0  0  0  0  0  0  0  0  0  0  0  0
   10.2659   22.9805   -0.0942 C   0  0  0  0  0  0  0  0  0  0  0  0
    9.1371   22.4738    0.3671 C   0  0  0  0  0  0  0  0  0  0  0  0
    9.1331   21.6414    1.5572 C   0  0  0  0  0  0  0  0  0  0  0  0
    8.1991   20.8468    1.7561 O   0  0  0  0  0  0  0  0  0  0  0  0
   10.2374   21.7301    2.5428 C   0  0  0  0  0  0  0  0  0  0  0  0
   11.2621   22.7644    2.1066 C   0  0  0  0  0  0  0  0  0  0  0  0
   11.5134   22.6911    0.6010 C   0  0  0  0  0  0  0  0  0  0  0  0
   11.9298   21.2788    0.2158 C   0  0  0  0  0  0  0  0  0  0  0  0
   12.6144   23.6853    0.3125 C   0  0  0  0  0  0  0  0  0  0  0  0
   13.9062   23.0336    0.7274 C   0  0  0  0  0  0  0  0  0  0  0  0
   15.0164   23.8897    0.2538 C   0  0  0  0  0  0  0  0  0  0  0  0
   14.9863   24.1833   -1.2568 C   0  0  0  0  0  0  0  0  0  0  0  0
   15.1655   22.9054   -2.0119 C   0  0  0  0  0  0  0  0  0  0  0  0
   16.2709   25.0207   -1.3650 C   0  0  0  0  0  0  0  0  0  0  0  0
   16.7896   25.1110   -2.7598 C   0  0  0  0  0  0  0  0  0  0  0  0
   15.8276   26.0731   -3.4161 C   0  0  0  0  0  0  0  0  0  0  0  0
   16.2671   27.1908   -3.5034 O   0  0  0  0  0  0  0  0  0  0  0  0
   14.6593   26.6287   -6.2099 C   0  0  0  0  0  0  0  0  0  0  0  0
   14.0642   26.7883   -4.8606 C   0  0  0  0  0  0  0  0  0  0  0  0
 24 25  1  0  0  0
 25  1  1  0  0  0
  1  2  1  0  0  0
  2  3  1  0  0  0
  3  4  1  0  0  0
  4  5  1  0  0  0
  5  6  1  0  0  0
  6  7  1  0  0  0
  7  8  2  0  0  0
  8  9  1  0  0  0
  9 10  2  0  0  0
  9 11  1  0  0  0
 11 12  1  0  0  0
 12 13  1  0  0  0
 13 14  1  0  0  0
 13 15  1  0  0  0
 15 16  1  0  0  0
 16 17  1  0  0  0
 17 18  1  0  0  0
 18 19  1  0  0  0
 18 20  1  0  0  0
 20 21  1  0  0  0
 21 22  1  0  0  0
 22 23  2  0  0  0
 22  1  1  0  0  0
 18  3  1  0  0  0
 15  4  1  0  0  0
 13  7  1  0  0  0
M  END
> <minimizedAffinity>
-9.45262

> <CNNscore>
0.3598940969

> <CNNaffinity>
7.1088609695

> <CNN_VS>
2.5584371090

> <CNNaffinity_variance>
0.2779875696

$$$$
[H]C1=C2C([H])([H])C([H])([H])[C@]3([H])[C@]([H])(C([H])([H])C([H])([H])[C@]4(C([H])([H])[H])C([H])([H])C([H])([H])C(=O)[C@]([H])(C([H])([H])C([H])([H])[H])C([H])([H])[C@@]34[H])[C@@]2(C([H])([H])[H])C([H])([H])C([H])([H])C1=O


 25 28  0  0  0  0  0  0  0  0999 V2000
   13.4448   24.7328   -2.4591 C   0  0  0  0  0  0  0  0  0  0  0  0
   12.8308   24.6709   -1.1259 C   0  0  0  0  0  0  0  0  0  0  0  0
   13.0251   23.5539   -0.2210 C   0  0  0  0  0  0  0  0  0  0  0  0
   11.7630   23.4592    0.6511 C   0  0  0  0  0  0  0  0  0  0  0  0
   11.4087   24.8051    1.2416 C   0  0  0  0  0  0  0  0  0  0  0  0
    9.9374   24.7292    1.6331 C   0  0  0  0  0  0  0  0  0  0  0  0
    9.7162   23.5254    2.4751 C   0  0  0  0  0  0  0  0  0  0  0  0
    8.7377   23.6052    3.3580 C   0  0  0  0  0  0  0  0  0  0  0  0
    8.4378   22.4842    4.2315 C   0  0  0  0  0  0  0  0  0  0  0  0
    7.3121   22.3823    4.7470 O   0  0  0  0  0  0  0  0  0  0  0  0
    9.4661   21.4545    4.5163 C   0  0  0  0  0  0  0  0  0  0  0  0
   10.7628   21.7787    3.7927 C   0  0  0  0  0  0  0  0  0  0  0  0
   10.4921   22.2956    2.3803 C   0  0  0  0  0  0  0  0  0  0  0  0
    9.6492   21.2860    1.6144 C   0  0  0  0  0  0  0  0  0  0  0  0
   11.8466   22.4800    1.7363 C   0  0  0  0  0  0  0  0  0  0  0  0
   12.3198   21.1120    1.3235 C   0  0  0  0  0  0  0  0  0  0  0  0
   13.5344   21.2849    0.4960 C   0  0  0  0  0  0  0  0  0  0  0  0
   13.3437   22.2118   -0.7180 C   0  0  0  0  0  0  0  0  0  0  0  0
   12.3504   21.6016   -1.6540 C   0  0  0  0  0  0  0  0  0  0  0  0
   14.7503   22.1012   -1.3285 C   0  0  0  0  0  0  0  0  0  0  0  0
   14.7982   22.5251   -2.7570 C   0  0  0  0  0  0  0  0  0  0  0  0
   14.7007   24.0298   -2.6662 C   0  0  0  0  0  0  0  0  0  0  0  0
   15.7666   24.5777   -2.7833 O   0  0  0  0  0  0  0  0  0  0  0  0
   13.6687   26.3764   -4.3445 C   0  0  0  0  0  0  0  0  0  0  0  0
   13.7073   26.1926   -2.8732 C   0  0  0  0  0  0  0  0  0  0  0  0
 24 25  1  0  0  0
 25  1  1  0  0  0
  1  2  1  0  0  0
  2  3  1  0  0  0
  3  4  1  0  0  0
  4  5  1  0  0  0
  5  6  1  0  0  0
  6  7  1  0  0  0
  7  8  2  0  0  0
  8  9  1  0  0  0
  9 10  2  0  0  0
  9 11  1  0  0  0
 11 12  1  0  0  0
 12 13  1  0  0  0
 13 14  1  0  0  0
 13 15  1  0  0  0
 15 16  1  0  0  0
 16 17  1  0  0  0
 17 18  1  0  0  0
 18 19  1  0  0  0
 18 20  1  0  0  0
 20 21  1  0  0  0
 21 22  1  0  0  0
 22 23  2  0  0  0
 22  1  1  0  0  0
 18  3  1  0  0  0
 15  4  1  0  0  0
 13  7  1  0  0  0
M  END
> <minimizedAffinity>
-8.28392

> <CNNscore>
0.2503975928

> <CNNaffinity>
6.6060309410

> <CNN_VS>
1.6541342735

> <CNNaffinity_variance>
0.0828213096

$$$$
[H]C1=C2C([H])([H])C([H])([H])[C@]3([H])[C@]([H])(C([H])([H])C([H])([H])[C@]4(C([H])([H])[H])C([H])([H])C([H])([H])C(=O)[C@]([H])(C([H])([H])C([H])([H])[H])C([H])([H])[C@@]34[H])[C@@]2(C([H])([H])[H])C([H])([H])C([H])([H])C1=O


 25 28  0  0  0  0  0  0  0  0999 V2000
   15.7922   23.4059   -4.2461 C   0  0  0  0  0  0  0  0  0  0  0  0
   15.1260   24.6718   -4.5804 C   0  0  0  0  0  0  0  0  0  0  0  0
   14.6235   25.5868   -3.5730 C   0  0  0  0  0  0  0  0  0  0  0  0
   13.4317   26.3299   -4.1975 C   0  0  0  0  0  0  0  0  0  0  0  0
   13.7911   26.8882   -5.5557 C   0  0  0  0  0  0  0  0  0  0  0  0
   12.4737   27.1326   -6.2826 C   0  0  0  0  0  0  0  0  0  0  0  0
   11.5797   27.9435   -5.4167 C   0  0  0  0  0  0  0  0  0  0  0  0
   10.7187   28.7261   -6.0409 C   0  0  0  0  0  0  0  0  0  0  0  0
    9.7991   29.5611   -5.2881 C   0  0  0  0  0  0  0  0  0  0  0  0
    8.7495   29.9627   -5.8176 O   0  0  0  0  0  0  0  0  0  0  0  0
   10.1009   29.9414   -3.8871 C   0  0  0  0  0  0  0  0  0  0  0  0
   11.4302   29.3505   -3.4467 C   0  0  0  0  0  0  0  0  0  0  0  0
   11.5953   27.9205   -3.9598 C   0  0  0  0  0  0  0  0  0  0  0  0
   10.4162   27.0710   -3.5074 C   0  0  0  0  0  0  0  0  0  0  0  0
   12.8929   27.4138   -3.3740 C   0  0  0  0  0  0  0  0  0  0  0  0
   12.6071   27.0439   -1.9432 C   0  0  0  0  0  0  0  0  0  0  0  0
   13.7960   26.3408   -1.4124 C   0  0  0  0  0  0  0  0  0  0  0  0
   14.2279   25.1179   -2.2413 C   0  0  0  0  0  0  0  0  0  0  0  0
   13.1469   24.0860   -2.1992 C   0  0  0  0  0  0  0  0  0  0  0  0
   15.4111   24.6484   -1.3793 C   0  0  0  0  0  0  0  0  0  0  0  0
   15.7978   23.2334   -1.6452 C   0  0  0  0  0  0  0  0  0  0  0  0
   16.5010   23.3205   -2.9794 C   0  0  0  0  0  0  0  0  0  0  0  0
   17.7010   23.3113   -2.8796 O   0  0  0  0  0  0  0  0  0  0  0  0
   16.7547   21.5878   -5.6865 C   0  0  0  0  0  0  0  0  0  0  0  0
   16.8194   23.0258   -5.3287 C   0  0  0  0  0  0  0  0  0  0  0  0
 24 25  1  0  0  0
 25  1  1  0  0  0
  1  2  1  0  0  0
  2  3  1  0  0  0
  3  4  1  0  0  0
  4  5  1  0  0  0
  5  6  1  0  0  0
  6  7  1  0  0  0
  7  8  2  0  0  0
  8  9  1  0  0  0
  9 10  2  0  0  0
  9 11  1  0  0  0
 11 12  1  0  0  0
 12 13  1  0  0  0
 13 14  1  0  0  0
 13 15  1  0  0  0
 15 16  1  0  0  0
 16 17  1  0  0  0
 17 18  1  0  0  0
 18 19  1  0  0  0
 18 20  1  0  0  0
 20 21  1  0  0  0
 21 22  1  0  0  0
 22 23  2  0  0  0
 22  1  1  0  0  0
 18  3  1  0  0  0
 15  4  1  0  0  0
 13  7  1  0  0  0
M  END
> <minimizedAffinity>
54.67184

> <CNNscore>
0.2114775479

> <CNNaffinity>
5.8033170700

> <CNN_VS>
1.2272713184

> <CNNaffinity_variance>
0.8922756314

$$$$
[H]c1nc(N2C([H])([H])c3c(c([H])nn3C3([H])C([H])([H])C3([H])[H])C([H])([H])C2([H])[H])c2c([C@@]3([H])C([H])([H])OC([H])([H])C3([H])[H])nc(C([H])([H])[H])n2n1


 27 32  0  0  0  0  0  0  0  0999 V2000
   18.3356   24.1085    2.0106 C   0  0  0  0  0  0  0  0  0  0  0  0
   17.6592   24.2711    0.6799 C   0  0  0  0  0  0  0  0  0  0  0  0
   17.9803   25.0020   -0.3901 N   0  0  0  0  0  0  0  0  0  0  0  0
   17.0558   24.8898   -1.3818 C   0  0  0  0  0  0  0  0  0  0  0  0
   16.1124   24.0235   -0.8543 C   0  0  0  0  0  0  0  0  0  0  0  0
   14.9893   23.4576   -1.4384 C   0  0  0  0  0  0  0  0  0  0  0  0
   14.3211   22.5261   -0.6592 N   0  0  0  0  0  0  0  0  0  0  0  0
   14.7196   22.1890    0.5658 C   0  0  0  0  0  0  0  0  0  0  0  0
   15.8136   22.7542    1.0986 N   0  0  0  0  0  0  0  0  0  0  0  0
   16.4837   23.6610    0.3722 N   0  0  0  0  0  0  0  0  0  0  0  0
   14.4657   23.7212   -2.6618 N   0  0  0  0  0  0  0  0  0  0  0  0
   14.7706   22.7633   -3.7661 C   0  0  0  0  0  0  0  0  0  0  0  0
   15.9007   23.4283   -4.5727 C   0  0  0  0  0  0  0  0  0  0  0  0
   15.2860   24.6983   -5.0569 C   0  0  0  0  0  0  0  0  0  0  0  0
   15.5950   25.4123   -6.1855 C   0  0  0  0  0  0  0  0  0  0  0  0
   14.7853   26.4657   -6.2253 N   0  0  0  0  0  0  0  0  0  0  0  0
   13.9585   26.4431   -5.1596 N   0  0  0  0  0  0  0  0  0  0  0  0
   14.2550   25.3504   -4.4183 C   0  0  0  0  0  0  0  0  0  0  0  0
   13.7026   24.8454   -3.0973 C   0  0  0  0  0  0  0  0  0  0  0  0
   12.9265   27.4168   -4.9301 C   0  0  0  0  0  0  0  0  0  0  0  0
   12.1205   27.4484   -3.6834 C   0  0  0  0  0  0  0  0  0  0  0  0
   13.2073   28.4339   -3.8302 C   0  0  0  0  0  0  0  0  0  0  0  0
   16.9598   25.6786   -2.5903 C   0  0  0  0  0  0  0  0  0  0  0  0
   18.1581   26.5845   -2.9041 C   0  0  0  0  0  0  0  0  0  0  0  0
   17.4246   27.6382   -3.7248 C   0  0  0  0  0  0  0  0  0  0  0  0
   16.2361   27.8919   -3.0386 O   0  0  0  0  0  0  0  0  0  0  0  0
   16.1106   26.9855   -2.0465 C   0  0  0  0  0  0  0  0  0  0  0  0
  1  2  1  0  0  0
  2  3  2  0  0  0
  3  4  1  0  0  0
  4 23  1  0  0  0
 23 24  1  0  0  0
 24 25  1  0  0  0
 25 26  1  0  0  0
 26 27  1  0  0  0
  4  5  2  0  0  0
  5  6  1  0  0  0
  6  7  2  0  0  0
  7  8  1  0  0  0
  8  9  2  0  0  0
  9 10  1  0  0  0
  6 11  1  0  0  0
 11 12  1  0  0  0
 12 13  1  0  0  0
 13 14  1  0  0  0
 14 15  1  0  0  0
 15 16  2  0  0  0
 16 17  1  0  0  0
 17 20  1  0  0  0
 20 21  1  0  0  0
 21 22  1  0  0  0
 17 18  1  0  0  0
 18 19  1  0  0  0
 10  2  1  0  0  0
 19 11  1  0  0  0
 27 23  1  0  0  0
 10  5  1  0  0  0
 18 14  2  0  0  0
 22 20  1  0  0  0
M  END
> <minimizedAffinity>
8.35955

> <CNNscore>
0.7144580483

> <CNNaffinity>
7.6653318405

> <CNN_VS>
5.4765582085

> <CNNaffinity_variance>
0.7203401327

$$$$
[H]c1nc(N2C([H])([H])c3c(c([H])nn3C3([H])C([H])([H])C3([H])[H])C([H])([H])C2([H])[H])c2c([C@@]3([H])C([H])([H])OC([H])([H])C3([H])[H])nc(C([H])([H])[H])n2n1


 27 32  0  0  0  0  0  0  0  0999 V2000
   18.0895   28.0729   -3.8446 C   0  0  0  0  0  0  0  0  0  0  0  0
   17.0991   27.1445   -3.2029 C   0  0  0  0  0  0  0  0  0  0  0  0
   17.1672   26.4157   -2.0864 N   0  0  0  0  0  0  0  0  0  0  0  0
   16.0457   25.6705   -1.8933 C   0  0  0  0  0  0  0  0  0  0  0  0
   15.2517   25.9839   -2.9842 C   0  0  0  0  0  0  0  0  0  0  0  0
   13.9508   25.6086   -3.2835 C   0  0  0  0  0  0  0  0  0  0  0  0
   13.4053   26.2055   -4.4093 N   0  0  0  0  0  0  0  0  0  0  0  0
   14.0729   27.0800   -5.1593 C   0  0  0  0  0  0  0  0  0  0  0  0
   15.3296   27.4232   -4.8380 N   0  0  0  0  0  0  0  0  0  0  0  0
   15.8888   26.8633   -3.7551 N   0  0  0  0  0  0  0  0  0  0  0  0
   13.1673   24.7218   -2.6200 N   0  0  0  0  0  0  0  0  0  0  0  0
   11.8216   25.1880   -2.1708 C   0  0  0  0  0  0  0  0  0  0  0  0
   11.9893   25.5150   -0.6758 C   0  0  0  0  0  0  0  0  0  0  0  0
   12.3841   24.2090   -0.0729 C   0  0  0  0  0  0  0  0  0  0  0  0
   12.1710   23.7685    1.2075 C   0  0  0  0  0  0  0  0  0  0  0  0
   12.6768   22.5425    1.2971 N   0  0  0  0  0  0  0  0  0  0  0  0
   13.1998   22.1795    0.1077 N   0  0  0  0  0  0  0  0  0  0  0  0
   13.0288   23.2044   -0.7593 C   0  0  0  0  0  0  0  0  0  0  0  0
   13.4606   23.3891   -2.2030 C   0  0  0  0  0  0  0  0  0  0  0  0
   13.7838   20.8910   -0.1466 C   0  0  0  0  0  0  0  0  0  0  0  0
   15.0814   20.7265   -0.8497 C   0  0  0  0  0  0  0  0  0  0  0  0
   15.0657   20.5816    0.6175 C   0  0  0  0  0  0  0  0  0  0  0  0
   15.8415   24.6218   -0.9184 C   0  0  0  0  0  0  0  0  0  0  0  0
   15.4451   25.0773    0.4925 C   0  0  0  0  0  0  0  0  0  0  0  0
   15.9936   23.8855    1.2674 C   0  0  0  0  0  0  0  0  0  0  0  0
   17.2424   23.6127    0.7073 O   0  0  0  0  0  0  0  0  0  0  0  0
   17.3888   24.3650   -0.4037 C   0  0  0  0  0  0  0  0  0  0  0  0
  1  2  1  0  0  0
  2  3  2  0  0  0
  3  4  1  0  0  0
  4 23  1  0  0  0
 23 24  1  0  0  0
 24 25  1  0  0  0
 25 26  1  0  0  0
 26 27  1  0  0  0
  4  5  2  0  0  0
  5  6  1  0  0  0
  6  7  2  0  0  0
  7  8  1  0  0  0
  8  9  2  0  0  0
  9 10  1  0  0  0
  6 11  1  0  0  0
 11 12  1  0  0  0
 12 13  1  0  0  0
 13 14  1  0  0  0
 14 15  1  0  0  0
 15 16  2  0  0  0
 16 17  1  0  0  0
 17 20  1  0  0  0
 20 21  1  0  0  0
 21 22  1  0  0  0
 17 18  1  0  0  0
 18 19  1  0  0  0
 10  2  1  0  0  0
 19 11  1  0  0  0
 27 23  1  0  0  0
 10  5  1  0  0  0
 18 14  2  0  0  0
 22 20  1  0  0  0
M  END
> <minimizedAffinity>
-5.14433

> <CNNscore>
0.6332265735

> <CNNaffinity>
7.6640167236

> <CNN_VS>
4.8530588150

> <CNNaffinity_variance>
0.1266653240

$$$$
[H]c1nc(N2C([H])([H])c3c(c([H])nn3C3([H])C([H])([H])C3([H])[H])C([H])([H])C2([H])[H])c2c([C@@]3([H])C([H])([H])OC([H])([H])C3([H])[H])nc(C([H])([H])[H])n2n1


 27 32  0  0  0  0  0  0  0  0999 V2000
   16.0317   25.4949   -7.4803 C   0  0  0  0  0  0  0  0  0  0  0  0
   15.2234   25.6533   -6.2248 C   0  0  0  0  0  0  0  0  0  0  0  0
   14.4089   26.6292   -5.8165 N   0  0  0  0  0  0  0  0  0  0  0  0
   13.9049   26.3886   -4.5761 C   0  0  0  0  0  0  0  0  0  0  0  0
   14.4679   25.1733   -4.2232 C   0  0  0  0  0  0  0  0  0  0  0  0
   14.2498   24.3732   -3.1118 C   0  0  0  0  0  0  0  0  0  0  0  0
   14.8944   23.1462   -3.1285 N   0  0  0  0  0  0  0  0  0  0  0  0
   15.6710   22.7510   -4.1354 C   0  0  0  0  0  0  0  0  0  0  0  0
   15.8570   23.5497   -5.1974 N   0  0  0  0  0  0  0  0  0  0  0  0
   15.2490   24.7451   -5.2133 N   0  0  0  0  0  0  0  0  0  0  0  0
   13.5025   24.6576   -2.0159 N   0  0  0  0  0  0  0  0  0  0  0  0
   14.2036   25.2377   -0.8318 C   0  0  0  0  0  0  0  0  0  0  0  0
   14.4053   24.0553    0.1333 C   0  0  0  0  0  0  0  0  0  0  0  0
   13.0146   23.6112    0.4399 C   0  0  0  0  0  0  0  0  0  0  0  0
   12.5544   22.9894    1.5715 C   0  0  0  0  0  0  0  0  0  0  0  0
   11.2487   22.7943    1.4165 N   0  0  0  0  0  0  0  0  0  0  0  0
   10.8557   23.2821    0.2217 N   0  0  0  0  0  0  0  0  0  0  0  0
   11.9413   23.7944   -0.4030 C   0  0  0  0  0  0  0  0  0  0  0  0
   12.1167   24.4161   -1.7770 C   0  0  0  0  0  0  0  0  0  0  0  0
    9.4926   23.2726   -0.2342 C   0  0  0  0  0  0  0  0  0  0  0  0
    8.4643   22.3679    0.3396 C   0  0  0  0  0  0  0  0  0  0  0  0
    8.4568   23.7806    0.7618 C   0  0  0  0  0  0  0  0  0  0  0  0
   13.1617   27.3007   -3.7349 C   0  0  0  0  0  0  0  0  0  0  0  0
   11.8254   27.8037   -4.2974 C   0  0  0  0  0  0  0  0  0  0  0  0
   11.7548   29.1245   -3.5411 C   0  0  0  0  0  0  0  0  0  0  0  0
   13.0398   29.6653   -3.6042 O   0  0  0  0  0  0  0  0  0  0  0  0
   13.8710   28.7389   -4.1263 C   0  0  0  0  0  0  0  0  0  0  0  0
  1  2  1  0  0  0
  2  3  2  0  0  0
  3  4  1  0  0  0
  4 23  1  0  0  0
 23 24  1  0  0  0
 24 25  1  0  0  0
 25 26  1  0  0  0
 26 27  1  0  0  0
  4  5  2  0  0  0
  5  6  1  0  0  0
  6  7  2  0  0  0
  7  8  1  0  0  0
  8  9  2  0  0  0
  9 10  1  0  0  0
  6 11  1  0  0  0
 11 12  1  0  0  0
 12 13  1  0  0  0
 13 14  1  0  0  0
 14 15  1  0  0  0
 15 16  2  0  0  0
 16 17  1  0  0  0
 17 20  1  0  0  0
 20 21  1  0  0  0
 21 22  1  0  0  0
 17 18  1  0  0  0
 18 19  1  0  0  0
 10  2  1  0  0  0
 19 11  1  0  0  0
 27 23  1  0  0  0
 10  5  1  0  0  0
 18 14  2  0  0  0
 22 20  1  0  0  0
M  END
> <minimizedAffinity>
5.03846

> <CNNscore>
0.5669627190

> <CNNaffinity>
7.4007673264

> <CNN_VS>
4.1959590912

> <CNNaffinity_variance>
0.8673990965

$$$$
[H]c1nc(N2C([H])([H])c3c(c([H])nn3C3([H])C([H])([H])C3([H])[H])C([H])([H])C2([H])[H])c2c([C@@]3([H])C([H])([H])OC([H])([H])C3([H])[H])nc(C([H])([H])[H])n2n1


 27 32  0  0  0  0  0  0  0  0999 V2000
   15.9405   24.0875   -7.2078 C   0  0  0  0  0  0  0  0  0  0  0  0
   15.3891   24.2282   -5.8182 C   0  0  0  0  0  0  0  0  0  0  0  0
   14.8092   25.2588   -5.1987 N   0  0  0  0  0  0  0  0  0  0  0  0
   14.4928   24.9670   -3.9082 C   0  0  0  0  0  0  0  0  0  0  0  0
   14.9213   23.6590   -3.7530 C   0  0  0  0  0  0  0  0  0  0  0  0
   14.7789   22.7901   -2.6818 C   0  0  0  0  0  0  0  0  0  0  0  0
   15.2227   21.4960   -2.9047 N   0  0  0  0  0  0  0  0  0  0  0  0
   15.7502   21.1017   -4.0619 C   0  0  0  0  0  0  0  0  0  0  0  0
   15.8696   21.9688   -5.0790 N   0  0  0  0  0  0  0  0  0  0  0  0
   15.4512   23.2300   -4.8971 N   0  0  0  0  0  0  0  0  0  0  0  0
   14.2787   23.0626   -1.4506 N   0  0  0  0  0  0  0  0  0  0  0  0
   13.4287   22.0196   -0.8026 C   0  0  0  0  0  0  0  0  0  0  0  0
   11.9792   22.4851   -1.0312 C   0  0  0  0  0  0  0  0  0  0  0  0
   11.9190   23.8017   -0.3326 C   0  0  0  0  0  0  0  0  0  0  0  0
   10.8292   24.4115    0.2325 C   0  0  0  0  0  0  0  0  0  0  0  0
   11.2419   25.5618    0.7552 N   0  0  0  0  0  0  0  0  0  0  0  0
   12.5678   25.7034    0.5503 N   0  0  0  0  0  0  0  0  0  0  0  0
   13.0087   24.6179   -0.1270 C   0  0  0  0  0  0  0  0  0  0  0  0
   14.3771   24.2574   -0.6770 C   0  0  0  0  0  0  0  0  0  0  0  0
   13.3349   26.8182    1.0346 C   0  0  0  0  0  0  0  0  0  0  0  0
   13.0156   27.5160    2.3059 C   0  0  0  0  0  0  0  0  0  0  0  0
   14.1434   26.5663    2.3019 C   0  0  0  0  0  0  0  0  0  0  0  0
   14.0461   25.8829   -2.8818 C   0  0  0  0  0  0  0  0  0  0  0  0
   12.5299   25.9611   -2.6578 C   0  0  0  0  0  0  0  0  0  0  0  0
   12.4645   27.3808   -2.1085 C   0  0  0  0  0  0  0  0  0  0  0  0
   13.3139   28.1382   -2.9163 O   0  0  0  0  0  0  0  0  0  0  0  0
   13.9975   27.3012   -3.7249 C   0  0  0  0  0  0  0  0  0  0  0  0
  1  2  1  0  0  0
  2  3  2  0  0  0
  3  4  1  0  0  0
  4 23  1  0  0  0
 23 24  1  0  0  0
 24 25  1  0  0  0
 25 26  1  0  0  0
 26 27  1  0  0  0
  4  5  2  0  0  0
  5  6  1  0  0  0
  6  7  2  0  0  0
  7  8  1  0  0  0
  8  9  2  0  0  0
  9 10  1  0  0  0
  6 11  1  0  0  0
 11 12  1  0  0  0
 12 13  1  0  0  0
 13 14  1  0  0  0
 14 15  1  0  0  0
 15 16  2  0  0  0
 16 17  1  0  0  0
 17 20  1  0  0  0
 20 21  1  0  0  0
 21 22  1  0  0  0
 17 18  1  0  0  0
 18 19  1  0  0  0
 10  2  1  0  0  0
 19 11  1  0  0  0
 27 23  1  0  0  0
 10  5  1  0  0  0
 18 14  2  0  0  0
 22 20  1  0  0  0
M  END
> <minimizedAffinity>
16.88108

> <CNNscore>
0.5280178785

> <CNNaffinity>
7.0864205360

> <CNN_VS>
3.7417566776

> <CNNaffinity_variance>
1.3927133083

$$$$
[H]c1nc(N2C([H])([H])c3c(c([H])nn3C3([H])C([H])([H])C3([H])[H])C([H])([H])C2([H])[H])c2c([C@@]3([H])C([H])([H])OC([H])([H])C3([H])[H])nc(C([H])([H])[H])n2n1


 27 32  0  0  0  0  0  0  0  0999 V2000
   13.5113   26.2653   -3.4886 C   0  0  0  0  0  0  0  0  0  0  0  0
   12.9653   25.7314   -2.1957 C   0  0  0  0  0  0  0  0  0  0  0  0
   12.3619   26.3419   -1.1732 N   0  0  0  0  0  0  0  0  0  0  0  0
   12.0618   25.4772   -0.1669 C   0  0  0  0  0  0  0  0  0  0  0  0
   12.5262   24.2581   -0.6324 C   0  0  0  0  0  0  0  0  0  0  0  0
   12.4140   22.9883   -0.0866 C   0  0  0  0  0  0  0  0  0  0  0  0
   12.8909   21.9571   -0.8806 N   0  0  0  0  0  0  0  0  0  0  0  0
   13.4213   22.1580   -2.0852 C   0  0  0  0  0  0  0  0  0  0  0  0
   13.5109   23.4003   -2.5841 N   0  0  0  0  0  0  0  0  0  0  0  0
   13.0601   24.4221   -1.8414 N   0  0  0  0  0  0  0  0  0  0  0  0
   11.9145   22.6459    1.1274 N   0  0  0  0  0  0  0  0  0  0  0  0
   12.6218   21.5738    1.8894 C   0  0  0  0  0  0  0  0  0  0  0  0
   11.7879   20.3007    1.6572 C   0  0  0  0  0  0  0  0  0  0  0  0
   10.4559   20.6432    2.2346 C   0  0  0  0  0  0  0  0  0  0  0  0
    9.5216   19.7952    2.7701 C   0  0  0  0  0  0  0  0  0  0  0  0
    8.4954   20.5366    3.1751 N   0  0  0  0  0  0  0  0  0  0  0  0
    8.7484   21.8376    2.9238 N   0  0  0  0  0  0  0  0  0  0  0  0
    9.9646   21.9255    2.3368 C   0  0  0  0  0  0  0  0  0  0  0  0
   10.7374   23.1107    1.7863 C   0  0  0  0  0  0  0  0  0  0  0  0
    7.8587   22.9072    3.2847 C   0  0  0  0  0  0  0  0  0  0  0  0
    8.3467   24.2442    3.7083 C   0  0  0  0  0  0  0  0  0  0  0  0
    7.8335   24.0981    2.3338 C   0  0  0  0  0  0  0  0  0  0  0  0
   11.5973   25.8010    1.1640 C   0  0  0  0  0  0  0  0  0  0  0  0
   11.4415   24.6206    2.1322 C   0  0  0  0  0  0  0  0  0  0  0  0
   10.3707   25.2204    3.0352 C   0  0  0  0  0  0  0  0  0  0  0  0
    9.4545   25.8335    2.1794 O   0  0  0  0  0  0  0  0  0  0  0  0
    9.9636   25.8278    0.9294 C   0  0  0  0  0  0  0  0  0  0  0  0
  1  2  1  0  0  0
  2  3  2  0  0  0
  3  4  1  0  0  0
  4 23  1  0  0  0
 23 24  1  0  0  0
 24 25  1  0  0  0
 25 26  1  0  0  0
 26 27  1  0  0  0
  4  5  2  0  0  0
  5  6  1  0  0  0
  6  7  2  0  0  0
  7  8  1  0  0  0
  8  9  2  0  0  0
  9 10  1  0  0  0
  6 11  1  0  0  0
 11 12  1  0  0  0
 12 13  1  0  0  0
 13 14  1  0  0  0
 14 15  1  0  0  0
 15 16  2  0  0  0
 16 17  1  0  0  0
 17 20  1  0  0  0
 20 21  1  0  0  0
 21 22  1  0  0  0
 17 18  1  0  0  0
 18 19  1  0  0  0
 10  2  1  0  0  0
 19 11  1  0  0  0
 27 23  1  0  0  0
 10  5  1  0  0  0
 18 14  2  0  0  0
 22 20  1  0  0  0
M  END
> <minimizedAffinity>
7.53455

> <CNNscore>
0.4415711164

> <CNNaffinity>
6.2071986198

> <CNN_VS>
2.7409195900

> <CNNaffinity_variance>
0.4217341840

$$$$
[H]c1nc(N2C([H])([H])c3c(c([H])nn3C3([H])C([H])([H])C3([H])[H])C([H])([H])C2([H])[H])c2c([C@@]3([H])C([H])([H])OC([H])([H])C3([H])[H])nc(C([H])([H])[H])n2n1


 27 32  0  0  0  0  0  0  0  0999 V2000
   12.2131   28.3223   -4.3759 C   0  0  0  0  0  0  0  0  0  0  0  0
   12.6619   27.0314   -3.7542 C   0  0  0  0  0  0  0  0  0  0  0  0
   12.1943   26.3455   -2.7086 N   0  0  0  0  0  0  0  0  0  0  0  0
   12.9337   25.2320   -2.4558 C   0  0  0  0  0  0  0  0  0  0  0  0
   13.9178   25.2635   -3.4301 C   0  0  0  0  0  0  0  0  0  0  0  0
   14.9038   24.3386   -3.7386 C   0  0  0  0  0  0  0  0  0  0  0  0
   15.6566   24.6278   -4.8659 N   0  0  0  0  0  0  0  0  0  0  0  0
   15.4569   25.7141   -5.6096 C   0  0  0  0  0  0  0  0  0  0  0  0
   14.4909   26.5865   -5.2836 N   0  0  0  0  0  0  0  0  0  0  0  0
   13.7442   26.3380   -4.1976 N   0  0  0  0  0  0  0  0  0  0  0  0
   15.2241   23.2073   -3.0619 N   0  0  0  0  0  0  0  0  0  0  0  0
   15.1409   21.9120   -3.8005 C   0  0  0  0  0  0  0  0  0  0  0  0
   13.8021   21.2884   -3.3662 C   0  0  0  0  0  0  0  0  0  0  0  0
   13.9593   21.1098   -1.8936 C   0  0  0  0  0  0  0  0  0  0  0  0
   13.3593   20.1801   -1.0845 C   0  0  0  0  0  0  0  0  0  0  0  0
   13.8026   20.3821    0.1523 N   0  0  0  0  0  0  0  0  0  0  0  0
   14.6776   21.4088    0.1586 N   0  0  0  0  0  0  0  0  0  0  0  0
   14.7884   21.8770   -1.1062 C   0  0  0  0  0  0  0  0  0  0  0  0
   15.5704   23.0412   -1.6877 C   0  0  0  0  0  0  0  0  0  0  0  0
   15.3772   21.8530    1.3330 C   0  0  0  0  0  0  0  0  0  0  0  0
   16.8592   21.8574    1.4265 C   0  0  0  0  0  0  0  0  0  0  0  0
   16.1773   23.1413    1.1806 C   0  0  0  0  0  0  0  0  0  0  0  0
   12.8560   24.3664   -1.2997 C   0  0  0  0  0  0  0  0  0  0  0  0
   11.5448   23.5886   -1.1237 C   0  0  0  0  0  0  0  0  0  0  0  0
   11.5951   23.4178    0.3896 C   0  0  0  0  0  0  0  0  0  0  0  0
   12.0062   24.6517    0.8957 O   0  0  0  0  0  0  0  0  0  0  0  0
   12.3805   25.4366   -0.1365 C   0  0  0  0  0  0  0  0  0  0  0  0
  1  2  1  0  0  0
  2  3  2  0  0  0
  3  4  1  0  0  0
  4 23  1  0  0  0
 23 24  1  0  0  0
 24 25  1  0  0  0
 25 26  1  0  0  0
 26 27  1  0  0  0
  4  5  2  0  0  0
  5  6  1  0  0  0
  6  7  2  0  0  0
  7  8  1  0  0  0
  8  9  2  0  0  0
  9 10  1  0  0  0
  6 11  1  0  0  0
 11 12  1  0  0  0
 12 13  1  0  0  0
 13 14  1  0  0  0
 14 15  1  0  0  0
 15 16  2  0  0  0
 16 17  1  0  0  0
 17 20  1  0  0  0
 20 21  1  0  0  0
 21 22  1  0  0  0
 17 18  1  0  0  0
 18 19  1  0  0  0
 10  2  1  0  0  0
 19 11  1  0  0  0
 27 23  1  0  0  0
 10  5  1  0  0  0
 18 14  2  0  0  0
 22 20  1  0  0  0
M  END
> <minimizedAffinity>
0.83799

> <CNNscore>
0.4139935374

> <CNNaffinity>
7.0687804222

> <CNN_VS>
2.9264295101

> <CNNaffinity_variance>
0.3689949512

$$$$
[H]c1nc(N2C([H])([H])c3c(c([H])nn3C3([H])C([H])([H])C3([H])[H])C([H])([H])C2([H])[H])c2c([C@@]3([H])C([H])([H])OC([H])([H])C3([H])[H])nc(C([H])([H])[H])n2n1


 27 32  0  0  0  0  0  0  0  0999 V2000
   15.5637   25.2762   -8.1182 C   0  0  0  0  0  0  0  0  0  0  0  0
   15.5814   25.1595   -6.6213 C   0  0  0  0  0  0  0  0  0  0  0  0
   15.5575   24.0931   -5.8186 N   0  0  0  0  0  0  0  0  0  0  0  0
   15.5436   24.4431   -4.5041 C   0  0  0  0  0  0  0  0  0  0  0  0
   15.5597   25.8278   -4.5330 C   0  0  0  0  0  0  0  0  0  0  0  0
   15.6543   26.7452   -3.4975 C   0  0  0  0  0  0  0  0  0  0  0  0
   15.7678   28.0704   -3.8875 N   0  0  0  0  0  0  0  0  0  0  0  0
   15.7865   28.4495   -5.1638 C   0  0  0  0  0  0  0  0  0  0  0  0
   15.6964   27.5340   -6.1407 N   0  0  0  0  0  0  0  0  0  0  0  0
   15.5840   26.2421   -5.7985 N   0  0  0  0  0  0  0  0  0  0  0  0
   15.6302   26.4992   -2.1636 N   0  0  0  0  0  0  0  0  0  0  0  0
   16.9410   26.3760   -1.4588 C   0  0  0  0  0  0  0  0  0  0  0  0
   17.1730   24.8617   -1.3062 C   0  0  0  0  0  0  0  0  0  0  0  0
   16.0199   24.4120   -0.4736 C   0  0  0  0  0  0  0  0  0  0  0  0
   15.9597   23.3438    0.3832 C   0  0  0  0  0  0  0  0  0  0  0  0
   14.7444   23.3322    0.9217 N   0  0  0  0  0  0  0  0  0  0  0  0
   14.0259   24.3685    0.4424 N   0  0  0  0  0  0  0  0  0  0  0  0
   14.8021   25.0531   -0.4296 C   0  0  0  0  0  0  0  0  0  0  0  0
   14.5148   26.2583   -1.3070 C   0  0  0  0  0  0  0  0  0  0  0  0
   12.6842   24.6698    0.8608 C   0  0  0  0  0  0  0  0  0  0  0  0
   11.5383   24.6905   -0.0834 C   0  0  0  0  0  0  0  0  0  0  0  0
   11.6929   23.5141    0.7919 C   0  0  0  0  0  0  0  0  0  0  0  0
   15.3156   23.5813   -3.3651 C   0  0  0  0  0  0  0  0  0  0  0  0
   15.0723   22.0984   -3.6765 C   0  0  0  0  0  0  0  0  0  0  0  0
   14.2488   21.7497   -2.4428 C   0  0  0  0  0  0  0  0  0  0  0  0
   13.3582   22.8103   -2.2706 O   0  0  0  0  0  0  0  0  0  0  0  0
   13.6971   23.7992   -3.1244 C   0  0  0  0  0  0  0  0  0  0  0  0
  1  2  1  0  0  0
  2  3  2  0  0  0
  3  4  1  0  0  0
  4 23  1  0  0  0
 23 24  1  0  0  0
 24 25  1  0  0  0
 25 26  1  0  0  0
 26 27  1  0  0  0
  4  5  2  0  0  0
  5  6  1  0  0  0
  6  7  2  0  0  0
  7  8  1  0  0  0
  8  9  2  0  0  0
  9 10  1  0  0  0
  6 11  1  0  0  0
 11 12  1  0  0  0
 12 13  1  0  0  0
 13 14  1  0  0  0
 14 15  1  0  0  0
 15 16  2  0  0  0
 16 17  1  0  0  0
 17 20  1  0  0  0
 20 21  1  0  0  0
 21 22  1  0  0  0
 17 18  1  0  0  0
 18 19  1  0  0  0
 10  2  1  0  0  0
 19 11  1  0  0  0
 27 23  1  0  0  0
 10  5  1  0  0  0
 18 14  2  0  0  0
 22 20  1  0  0  0
M  END
> <minimizedAffinity>
0.05807

> <CNNscore>
0.3878270984

> <CNNaffinity>
7.2201414108

> <CNN_VS>
2.8001666069

> <CNNaffinity_variance>
0.2049985379

$$$$
[H]c1nc(N2C([H])([H])c3c(c([H])nn3C3([H])C([H])([H])C3([H])[H])C([H])([H])C2([H])[H])c2c([C@@]3([H])C([H])([H])OC([H])([H])C3([H])[H])nc(C([H])([H])[H])n2n1


 27 32  0  0  0  0  0  0  0  0999 V2000
   16.7045   27.5153   -4.7554 C   0  0  0  0  0  0  0  0  0  0  0  0
   16.0949   26.6897   -3.6593 C   0  0  0  0  0  0  0  0  0  0  0  0
   16.6509   25.9937   -2.6650 N   0  0  0  0  0  0  0  0  0  0  0  0
   15.7211   25.3469   -1.9117 C   0  0  0  0  0  0  0  0  0  0  0  0
   14.5192   25.6878   -2.5099 C   0  0  0  0  0  0  0  0  0  0  0  0
   13.2161   25.4082   -2.1271 C   0  0  0  0  0  0  0  0  0  0  0  0
   12.2306   26.0107   -2.8932 N   0  0  0  0  0  0  0  0  0  0  0  0
   12.5026   26.8049   -3.9267 C   0  0  0  0  0  0  0  0  0  0  0  0
   13.7758   27.0567   -4.2671 N   0  0  0  0  0  0  0  0  0  0  0  0
   14.7548   26.4887   -3.5476 N   0  0  0  0  0  0  0  0  0  0  0  0
   12.8005   24.6083   -1.1133 N   0  0  0  0  0  0  0  0  0  0  0  0
   12.9297   23.1321   -1.2991 C   0  0  0  0  0  0  0  0  0  0  0  0
   11.5205   22.6529   -1.6922 C   0  0  0  0  0  0  0  0  0  0  0  0
   10.6832   23.0203   -0.5135 C   0  0  0  0  0  0  0  0  0  0  0  0
    9.5335   22.4192   -0.0712 C   0  0  0  0  0  0  0  0  0  0  0  0
    9.1378   23.0684    1.0191 N   0  0  0  0  0  0  0  0  0  0  0  0
   10.0063   24.0631    1.2951 N   0  0  0  0  0  0  0  0  0  0  0  0
   10.9761   24.0510    0.3512 C   0  0  0  0  0  0  0  0  0  0  0  0
   12.1697   24.9596    0.1173 C   0  0  0  0  0  0  0  0  0  0  0  0
    9.8931   24.9261    2.4389 C   0  0  0  0  0  0  0  0  0  0  0  0
    8.5935   25.2149    3.0966 C   0  0  0  0  0  0  0  0  0  0  0  0
    9.4976   24.2474    3.7450 C   0  0  0  0  0  0  0  0  0  0  0  0
   15.9533   24.3492   -0.8905 C   0  0  0  0  0  0  0  0  0  0  0  0
   15.5686   24.7445    0.5416 C   0  0  0  0  0  0  0  0  0  0  0  0
   16.5374   23.8339    1.2858 C   0  0  0  0  0  0  0  0  0  0  0  0
   17.7492   23.9304    0.6003 O   0  0  0  0  0  0  0  0  0  0  0  0
   17.5436   24.6205   -0.5412 C   0  0  0  0  0  0  0  0  0  0  0  0
  1  2  1  0  0  0
  2  3  2  0  0  0
  3  4  1  0  0  0
  4 23  1  0  0  0
 23 24  1  0  0  0
 24 25  1  0  0  0
 25 26  1  0  0  0
 26 27  1  0  0  0
  4  5  2  0  0  0
  5  6  1  0  0  0
  6  7  2  0  0  0
  7  8  1  0  0  0
  8  9  2  0  0  0
  9 10  1  0  0  0
  6 11  1  0  0  0
 11 12  1  0  0  0
 12 13  1  0  0  0
 13 14  1  0  0  0
 14 15  1  0  0  0
 15 16  2  0  0  0
 16 17  1  0  0  0
 17 20  1  0  0  0
 20 21  1  0  0  0
 21 22  1  0  0  0
 17 18  1  0  0  0
 18 19  1  0  0  0
 10  2  1  0  0  0
 19 11  1  0  0  0
 27 23  1  0  0  0
 10  5  1  0  0  0
 18 14  2  0  0  0
 22 20  1  0  0  0
M  END
> <minimizedAffinity>
-4.62827

> <CNNscore>
0.3831689656

> <CNNaffinity>
7.2293128967

> <CNN_VS>
2.7700483799

> <CNNaffinity_variance>
0.2197636813

$$$$
[H]c1nc(N2C([H])([H])c3c(c([H])nn3C3([H])C([H])([H])C3([H])[H])C([H])([H])C2([H])[H])c2c([C@@]3([H])C([H])([H])OC([H])([H])C3([H])[H])nc(C([H])([H])[H])n2n1


 27 32  0  0  0  0  0  0  0  0999 V2000
   12.1222   27.6853   -7.0491 C   0  0  0  0  0  0  0  0  0  0  0  0
   13.1233   26.8890   -6.2628 C   0  0  0  0  0  0  0  0  0  0  0  0
   14.2450   26.2677   -6.6343 N   0  0  0  0  0  0  0  0  0  0  0  0
   14.8378   25.6189   -5.5960 C   0  0  0  0  0  0  0  0  0  0  0  0
   13.9978   25.8771   -4.5253 C   0  0  0  0  0  0  0  0  0  0  0  0
   14.1340   25.5601   -3.1822 C   0  0  0  0  0  0  0  0  0  0  0  0
   13.1571   26.0805   -2.3479 N   0  0  0  0  0  0  0  0  0  0  0  0
   12.1531   26.8339   -2.7921 C   0  0  0  0  0  0  0  0  0  0  0  0
   12.0543   27.1240   -4.0985 N   0  0  0  0  0  0  0  0  0  0  0  0
   12.9823   26.6354   -4.9344 N   0  0  0  0  0  0  0  0  0  0  0  0
   15.0909   24.7938   -2.6014 N   0  0  0  0  0  0  0  0  0  0  0  0
   15.5784   23.6030   -3.3593 C   0  0  0  0  0  0  0  0  0  0  0  0
   14.8382   22.4035   -2.7403 C   0  0  0  0  0  0  0  0  0  0  0  0
   15.2857   22.4110   -1.3173 C   0  0  0  0  0  0  0  0  0  0  0  0
   15.3830   21.3503   -0.4546 C   0  0  0  0  0  0  0  0  0  0  0  0
   15.8392   21.8181    0.7030 N   0  0  0  0  0  0  0  0  0  0  0  0
   16.0470   23.1475    0.6050 N   0  0  0  0  0  0  0  0  0  0  0  0
   15.7070   23.5368   -0.6457 C   0  0  0  0  0  0  0  0  0  0  0  0
   15.6764   24.9042   -1.3049 C   0  0  0  0  0  0  0  0  0  0  0  0
   16.5846   23.9511    1.6684 C   0  0  0  0  0  0  0  0  0  0  0  0
   17.9723   24.4793    1.6478 C   0  0  0  0  0  0  0  0  0  0  0  0
   16.8738   25.4061    1.3188 C   0  0  0  0  0  0  0  0  0  0  0  0
   15.9397   24.6839   -5.6549 C   0  0  0  0  0  0  0  0  0  0  0  0
   16.1569   23.9778   -7.0000 C   0  0  0  0  0  0  0  0  0  0  0  0
   16.8330   22.7166   -6.4765 C   0  0  0  0  0  0  0  0  0  0  0  0
   16.1051   22.3383   -5.3475 O   0  0  0  0  0  0  0  0  0  0  0  0
   15.2293   23.3216   -5.0513 C   0  0  0  0  0  0  0  0  0  0  0  0
  1  2  1  0  0  0
  2  3  2  0  0  0
  3  4  1  0  0  0
  4 23  1  0  0  0
 23 24  1  0  0  0
 24 25  1  0  0  0
 25 26  1  0  0  0
 26 27  1  0  0  0
  4  5  2  0  0  0
  5  6  1  0  0  0
  6  7  2  0  0  0
  7  8  1  0  0  0
  8  9  2  0  0  0
  9 10  1  0  0  0
  6 11  1  0  0  0
 11 12  1  0  0  0
 12 13  1  0  0  0
 13 14  1  0  0  0
 14 15  1  0  0  0
 15 16  2  0  0  0
 16 17  1  0  0  0
 17 20  1  0  0  0
 20 21  1  0  0  0
 21 22  1  0  0  0
 17 18  1  0  0  0
 18 19  1  0  0  0
 10  2  1  0  0  0
 19 11  1  0  0  0
 27 23  1  0  0  0
 10  5  1  0  0  0
 18 14  2  0  0  0
 22 20  1  0  0  0
M  END
> <minimizedAffinity>
29.97830

> <CNNscore>
0.3756257594

> <CNNaffinity>
6.7493185997

> <CNN_VS>
2.5352180004

> <CNNaffinity_variance>
0.7736991644

$$$$
[H]O[C@]1([H])[C@]([H])(n2c([H])nc3c(N([H])[H])nc([H])nc32)O[C@@]([H])(C([H])([H])OP(=O)(O[H])OP(=O)(O[H])O[H])[C@]1([H])O[H]


 34 36  0  0  0  0  0  0  0  0999 V2000
   14.4319   23.8014   -1.3463 C   0  0  0  0  0  0  0  0  0  0  0  0
   15.0887   23.0238   -0.4281 O   0  0  0  0  0  0  0  0  0  0  0  0
   14.4538   21.8166   -0.3145 C   0  0  0  0  0  0  0  0  0  0  0  0
   13.4737   21.6917   -1.4582 C   0  0  0  0  0  0  0  0  0  0  0  0
   13.5125   20.4469   -2.0571 O   0  0  0  0  0  0  0  0  0  0  0  0
   13.9730   22.7920   -2.3796 C   0  0  0  0  0  0  0  0  0  0  0  0
   15.0766   22.3532   -3.0953 O   0  0  0  0  0  0  0  0  0  0  0  0
   12.5748   20.1363   -2.1638 H   0  0  0  0  0  0  0  0  0  0  0  0
   15.3621   21.4851   -2.7487 H   0  0  0  0  0  0  0  0  0  0  0  0
   17.2705   28.1419   -4.3709 N   0  0  0  0  0  0  0  0  0  0  0  0
   16.1178   27.3360   -4.1993 C   0  0  0  0  0  0  0  0  0  0  0  0
   15.0237   27.4046   -4.9566 N   0  0  0  0  0  0  0  0  0  0  0  0
   13.9588   26.6102   -4.7427 C   0  0  0  0  0  0  0  0  0  0  0  0
   13.9370   25.7005   -3.7517 N   0  0  0  0  0  0  0  0  0  0  0  0
   15.0414   25.6088   -2.9626 C   0  0  0  0  0  0  0  0  0  0  0  0
   15.2853   24.8095   -1.9278 N   0  0  0  0  0  0  0  0  0  0  0  0
   16.5191   25.0951   -1.4747 C   0  0  0  0  0  0  0  0  0  0  0  0
   17.0446   26.0760   -2.2304 N   0  0  0  0  0  0  0  0  0  0  0  0
   16.1430   26.4116   -3.1626 C   0  0  0  0  0  0  0  0  0  0  0  0
   17.3879   29.0700   -3.9045 H   0  0  0  0  0  0  0  0  0  0  0  0
   18.0255   27.7860   -4.9885 H   0  0  0  0  0  0  0  0  0  0  0  0
   13.8288   21.5550    1.0156 C   0  0  0  0  0  0  0  0  0  0  0  0
   12.7492   22.4061    1.2550 O   0  0  0  0  0  0  0  0  0  0  0  0
   11.4990   21.5654    2.0143 P   0  0  0  0  0  0  0  0  0  0  0  0
   10.6192   22.6813    2.9370 O   0  0  0  0  0  0  0  0  0  0  0  0
   10.5253   21.0108    0.9748 O   0  0  0  0  0  0  0  0  0  0  0  0
   10.6321   23.5813    2.5294 H   0  0  0  0  0  0  0  0  0  0  0  0
   12.0837   20.3029    2.9451 O   0  0  0  0  0  0  0  0  0  0  0  0
   11.0801   20.0108    4.2792 P   0  0  0  0  0  0  0  0  0  0  0  0
    9.4538   20.2567    3.9003 O   0  0  0  0  0  0  0  0  0  0  0  0
   11.3472   18.4287    4.8323 O   0  0  0  0  0  0  0  0  0  0  0  0
   11.4067   20.9688    5.4238 O   0  0  0  0  0  0  0  0  0  0  0  0
    9.3330   20.0586    2.9433 H   0  0  0  0  0  0  0  0  0  0  0  0
   11.4987   18.4174    5.8133 H   0  0  0  0  0  0  0  0  0  0  0  0
 10 11  1  0  0  0
 11 12  2  0  0  0
 12 13  1  0  0  0
 13 14  2  0  0  0
 14 15  1  0  0  0
 15 16  1  0  0  0
 16 17  1  0  0  0
 17 18  2  0  0  0
 18 19  1  0  0  0
 16  1  1  0  0  0
  1  2  1  0  0  0
  2  3  1  0  0  0
  3 22  1  0  0  0
 22 23  1  0  0  0
 23 24  1  0  0  0
 24 25  1  0  0  0
 24 26  2  0  0  0
 24 28  1  0  0  0
 28 29  1  0  0  0
 29 30  1  0  0  0
 29 31  1  0  0  0
 29 32  2  0  0  0
  3  4  1  0  0  0
  4  5  1  0  0  0
  4  6  1  0  0  0
  6  7  1  0  0  0
 19 11  1  0  0  0
  6  1  1  0  0  0
 19 15  2  0  0  0
 10 20  1  0  0  0
 10 21  1  0  0  0
 25 27  1  0  0  0
 30 33  1  0  0  0
 31 34  1  0  0  0
  5  8  1  0  0  0
  7  9  1  0  0  0
M  END
> <minimizedAffinity>
-9.01357

> <CNNscore>
0.7496814132

> <CNNaffinity>
6.1471571922

> <CNN_VS>
4.6084094048

> <CNNaffinity_variance>
0.3888999224

$$$$
[H]O[C@]1([H])[C@]([H])(n2c([H])nc3c(N([H])[H])nc([H])nc32)O[C@@]([H])(C([H])([H])OP(=O)(O[H])OP(=O)(O[H])O[H])[C@]1([H])O[H]


 34 36  0  0  0  0  0  0  0  0999 V2000
   14.4550   23.7283   -1.2749 C   0  0  0  0  0  0  0  0  0  0  0  0
   15.1389   22.9008   -0.4225 O   0  0  0  0  0  0  0  0  0  0  0  0
   14.4901   21.6988   -0.3345 C   0  0  0  0  0  0  0  0  0  0  0  0
   13.4589   21.6396   -1.4377 C   0  0  0  0  0  0  0  0  0  0  0  0
   13.4512   20.4228   -2.0926 O   0  0  0  0  0  0  0  0  0  0  0  0
   13.9349   22.7733   -2.3306 C   0  0  0  0  0  0  0  0  0  0  0  0
   14.9989   22.3517   -3.1137 O   0  0  0  0  0  0  0  0  0  0  0  0
   12.5048   20.1307   -2.1712 H   0  0  0  0  0  0  0  0  0  0  0  0
   15.2852   21.4648   -2.8191 H   0  0  0  0  0  0  0  0  0  0  0  0
   17.2590   28.1053   -4.2791 N   0  0  0  0  0  0  0  0  0  0  0  0
   16.1195   27.2780   -4.1217 C   0  0  0  0  0  0  0  0  0  0  0  0
   15.0373   27.3205   -4.8977 N   0  0  0  0  0  0  0  0  0  0  0  0
   13.9847   26.5067   -4.6967 C   0  0  0  0  0  0  0  0  0  0  0  0
   13.9639   25.6027   -3.7004 N   0  0  0  0  0  0  0  0  0  0  0  0
   15.0564   25.5376   -2.8922 C   0  0  0  0  0  0  0  0  0  0  0  0
   15.2983   24.7494   -1.8484 N   0  0  0  0  0  0  0  0  0  0  0  0
   16.5184   25.0620   -1.3765 C   0  0  0  0  0  0  0  0  0  0  0  0
   17.0374   26.0484   -2.1295 N   0  0  0  0  0  0  0  0  0  0  0  0
   16.1453   26.3606   -3.0789 C   0  0  0  0  0  0  0  0  0  0  0  0
   17.3503   29.0384   -3.8168 H   0  0  0  0  0  0  0  0  0  0  0  0
   18.0311   27.7607   -4.8816 H   0  0  0  0  0  0  0  0  0  0  0  0
   13.9200   21.3863    1.0092 C   0  0  0  0  0  0  0  0  0  0  0  0
   12.6719   20.7700    0.9098 O   0  0  0  0  0  0  0  0  0  0  0  0
   11.5771   21.4919    1.9710 P   0  0  0  0  0  0  0  0  0  0  0  0
   12.2263   21.3769    3.5317 O   0  0  0  0  0  0  0  0  0  0  0  0
   11.4536   22.9855    1.6702 O   0  0  0  0  0  0  0  0  0  0  0  0
   13.2141   21.3969    3.5175 H   0  0  0  0  0  0  0  0  0  0  0  0
   10.0630   20.7856    1.8668 O   0  0  0  0  0  0  0  0  0  0  0  0
    8.8888   21.7407    2.6293 P   0  0  0  0  0  0  0  0  0  0  0  0
    9.5067   22.5129    3.9971 O   0  0  0  0  0  0  0  0  0  0  0  0
    8.2848   22.8661    1.5116 O   0  0  0  0  0  0  0  0  0  0  0  0
    7.7191   20.8826    3.1089 O   0  0  0  0  0  0  0  0  0  0  0  0
   10.4688   22.6632    3.8507 H   0  0  0  0  0  0  0  0  0  0  0  0
    7.2922   22.8635    1.5076 H   0  0  0  0  0  0  0  0  0  0  0  0
 10 11  1  0  0  0
 11 12  2  0  0  0
 12 13  1  0  0  0
 13 14  2  0  0  0
 14 15  1  0  0  0
 15 16  1  0  0  0
 16 17  1  0  0  0
 17 18  2  0  0  0
 18 19  1  0  0  0
 16  1  1  0  0  0
  1  2  1  0  0  0
  2  3  1  0  0  0
  3 22  1  0  0  0
 22 23  1  0  0  0
 23 24  1  0  0  0
 24 25  1  0  0  0
 24 26  2  0  0  0
 24 28  1  0  0  0
 28 29  1  0  0  0
 29 30  1  0  0  0
 29 31  1  0  0  0
 29 32  2  0  0  0
  3  4  1  0  0  0
  4  5  1  0  0  0
  4  6  1  0  0  0
  6  7  1  0  0  0
 19 11  1  0  0  0
  6  1  1  0  0  0
 19 15  2  0  0  0
 10 20  1  0  0  0
 10 21  1  0  0  0
 25 27  1  0  0  0
 30 33  1  0  0  0
 31 34  1  0  0  0
  5  8  1  0  0  0
  7  9  1  0  0  0
M  END
> <minimizedAffinity>
-8.31685

> <CNNscore>
0.6326420903

> <CNNaffinity>
6.1181821823

> <CNN_VS>
3.8706195354

> <CNNaffinity_variance>
0.3524683118

$$$$
[H]O[C@]1([H])[C@]([H])(n2c([H])nc3c(N([H])[H])nc([H])nc32)O[C@@]([H])(C([H])([H])OP(=O)(O[H])OP(=O)(O[H])O[H])[C@]1([H])O[H]


 34 36  0  0  0  0  0  0  0  0999 V2000
   12.5599   24.6840   -1.7214 C   0  0  0  0  0  0  0  0  0  0  0  0
   12.1896   25.4569   -0.6516 O   0  0  0  0  0  0  0  0  0  0  0  0
   12.1720   24.6897    0.4818 C   0  0  0  0  0  0  0  0  0  0  0  0
   12.8616   23.3807    0.1738 C   0  0  0  0  0  0  0  0  0  0  0  0
   13.7377   22.9949    1.1703 O   0  0  0  0  0  0  0  0  0  0  0  0
   13.5771   23.7355   -1.1190 C   0  0  0  0  0  0  0  0  0  0  0  0
   14.7384   24.4421   -0.8453 O   0  0  0  0  0  0  0  0  0  0  0  0
   13.5682   22.0351    1.3634 H   0  0  0  0  0  0  0  0  0  0  0  0
   14.7639   24.6655    0.1059 H   0  0  0  0  0  0  0  0  0  0  0  0
   15.4513   27.1603   -6.3640 N   0  0  0  0  0  0  0  0  0  0  0  0
   15.2490   26.0437   -5.5155 C   0  0  0  0  0  0  0  0  0  0  0  0
   15.9033   24.8872   -5.6134 N   0  0  0  0  0  0  0  0  0  0  0  0
   15.6655   23.8615   -4.7755 C   0  0  0  0  0  0  0  0  0  0  0  0
   14.7532   23.9442   -3.7901 N   0  0  0  0  0  0  0  0  0  0  0  0
   14.0700   25.1142   -3.6670 C   0  0  0  0  0  0  0  0  0  0  0  0
   13.1276   25.4629   -2.7955 N   0  0  0  0  0  0  0  0  0  0  0  0
   12.7585   26.7250   -3.0785 C   0  0  0  0  0  0  0  0  0  0  0  0
   13.4738   27.1629   -4.1301 N   0  0  0  0  0  0  0  0  0  0  0  0
   14.2965   26.1775   -4.5132 C   0  0  0  0  0  0  0  0  0  0  0  0
   14.9228   27.2981   -7.2553 H   0  0  0  0  0  0  0  0  0  0  0  0
   16.1571   27.8664   -6.0790 H   0  0  0  0  0  0  0  0  0  0  0  0
   10.8248   24.5043    1.0974 C   0  0  0  0  0  0  0  0  0  0  0  0
    9.9079   23.9808    0.1850 O   0  0  0  0  0  0  0  0  0  0  0  0
    9.0512   22.7060    0.8829 P   0  0  0  0  0  0  0  0  0  0  0  0
    8.7155   21.5846   -0.3420 O   0  0  0  0  0  0  0  0  0  0  0  0
    9.9252   21.9749    1.9017 O   0  0  0  0  0  0  0  0  0  0  0  0
    9.4196   21.5808   -1.0351 H   0  0  0  0  0  0  0  0  0  0  0  0
    7.6591   23.2433    1.6416 O   0  0  0  0  0  0  0  0  0  0  0  0
    7.7692   23.0600    3.3228 P   0  0  0  0  0  0  0  0  0  0  0  0
    7.7842   21.4330    3.7719 O   0  0  0  0  0  0  0  0  0  0  0  0
    9.1615   23.8596    3.8731 O   0  0  0  0  0  0  0  0  0  0  0  0
    6.5623   23.6888    4.0174 O   0  0  0  0  0  0  0  0  0  0  0  0
    8.1912   20.9201    3.0364 H   0  0  0  0  0  0  0  0  0  0  0  0
    8.9497   24.4513    4.6415 H   0  0  0  0  0  0  0  0  0  0  0  0
 10 11  1  0  0  0
 11 12  2  0  0  0
 12 13  1  0  0  0
 13 14  2  0  0  0
 14 15  1  0  0  0
 15 16  1  0  0  0
 16 17  1  0  0  0
 17 18  2  0  0  0
 18 19  1  0  0  0
 16  1  1  0  0  0
  1  2  1  0  0  0
  2  3  1  0  0  0
  3 22  1  0  0  0
 22 23  1  0  0  0
 23 24  1  0  0  0
 24 25  1  0  0  0
 24 26  2  0  0  0
 24 28  1  0  0  0
 28 29  1  0  0  0
 29 30  1  0  0  0
 29 31  1  0  0  0
 29 32  2  0  0  0
  3  4  1  0  0  0
  4  5  1  0  0  0
  4  6  1  0  0  0
  6  7  1  0  0  0
 19 11  1  0  0  0
  6  1  1  0  0  0
 19 15  2  0  0  0
 10 20  1  0  0  0
 10 21  1  0  0  0
 25 27  1  0  0  0
 30 33  1  0  0  0
 31 34  1  0  0  0
  5  8  1  0  0  0
  7  9  1  0  0  0
M  END
> <minimizedAffinity>
-7.11849

> <CNNscore>
0.5723527670

> <CNNaffinity>
5.6074533463

> <CNN_VS>
3.2094414234

> <CNNaffinity_variance>
0.0866502449

$$$$
[H]O[C@]1([H])[C@]([H])(n2c([H])nc3c(N([H])[H])nc([H])nc32)O[C@@]([H])(C([H])([H])OP(=O)(O[H])OP(=O)(O[H])O[H])[C@]1([H])O[H]


 34 36  0  0  0  0  0  0  0  0999 V2000
   14.4149   23.6623   -1.6236 C   0  0  0  0  0  0  0  0  0  0  0  0
   13.0881   24.0048   -1.6599 O   0  0  0  0  0  0  0  0  0  0  0  0
   12.3958   23.2467   -0.7547 C   0  0  0  0  0  0  0  0  0  0  0  0
   13.3965   22.5571    0.1436 C   0  0  0  0  0  0  0  0  0  0  0  0
   13.0407   22.6150    1.4776 O   0  0  0  0  0  0  0  0  0  0  0  0
   14.6485   23.3645   -0.1560 C   0  0  0  0  0  0  0  0  0  0  0  0
   14.6290   24.5579    0.5499 O   0  0  0  0  0  0  0  0  0  0  0  0
   13.1510   21.7034    1.8571 H   0  0  0  0  0  0  0  0  0  0  0  0
   13.7558   24.6675    0.9749 H   0  0  0  0  0  0  0  0  0  0  0  0
   17.3143   28.2220   -4.2405 N   0  0  0  0  0  0  0  0  0  0  0  0
   16.1827   27.3707   -4.1923 C   0  0  0  0  0  0  0  0  0  0  0  0
   15.1485   27.4341   -5.0299 N   0  0  0  0  0  0  0  0  0  0  0  0
   14.1008   26.5954   -4.9323 C   0  0  0  0  0  0  0  0  0  0  0  0
   14.0366   25.6440   -3.9830 N   0  0  0  0  0  0  0  0  0  0  0  0
   15.0794   25.5567   -3.1137 C   0  0  0  0  0  0  0  0  0  0  0  0
   15.2724   24.7227   -2.0956 N   0  0  0  0  0  0  0  0  0  0  0  0
   16.4560   25.0309   -1.5358 C   0  0  0  0  0  0  0  0  0  0  0  0
   17.0012   26.0604   -2.2083 N   0  0  0  0  0  0  0  0  0  0  0  0
   16.1624   26.4044   -3.1944 C   0  0  0  0  0  0  0  0  0  0  0  0
   17.3605   29.1330   -3.7297 H   0  0  0  0  0  0  0  0  0  0  0  0
   18.1274   27.9188   -4.8104 H   0  0  0  0  0  0  0  0  0  0  0  0
   11.4040   22.3028   -1.3496 C   0  0  0  0  0  0  0  0  0  0  0  0
   11.6338   20.9881   -0.9419 O   0  0  0  0  0  0  0  0  0  0  0  0
   10.4714   20.5136    0.1849 P   0  0  0  0  0  0  0  0  0  0  0  0
    9.8700   19.0071   -0.3045 O   0  0  0  0  0  0  0  0  0  0  0  0
   11.1181   20.2904    1.5517 O   0  0  0  0  0  0  0  0  0  0  0  0
   10.5561   18.4783   -0.7798 H   0  0  0  0  0  0  0  0  0  0  0  0
    9.2572   21.6564    0.3340 O   0  0  0  0  0  0  0  0  0  0  0  0
    7.7709   21.0429   -0.2017 P   0  0  0  0  0  0  0  0  0  0  0  0
    6.5609   22.2190   -0.1603 O   0  0  0  0  0  0  0  0  0  0  0  0
    7.9656   20.4201   -1.7684 O   0  0  0  0  0  0  0  0  0  0  0  0
    7.2974   19.9038    0.6999 O   0  0  0  0  0  0  0  0  0  0  0  0
    6.9869   23.0960   -0.2975 H   0  0  0  0  0  0  0  0  0  0  0  0
    7.5869   19.5049   -1.8353 H   0  0  0  0  0  0  0  0  0  0  0  0
 10 11  1  0  0  0
 11 12  2  0  0  0
 12 13  1  0  0  0
 13 14  2  0  0  0
 14 15  1  0  0  0
 15 16  1  0  0  0
 16 17  1  0  0  0
 17 18  2  0  0  0
 18 19  1  0  0  0
 16  1  1  0  0  0
  1  2  1  0  0  0
  2  3  1  0  0  0
  3 22  1  0  0  0
 22 23  1  0  0  0
 23 24  1  0  0  0
 24 25  1  0  0  0
 24 26  2  0  0  0
 24 28  1  0  0  0
 28 29  1  0  0  0
 29 30  1  0  0  0
 29 31  1  0  0  0
 29 32  2  0  0  0
  3  4  1  0  0  0
  4  5  1  0  0  0
  4  6  1  0  0  0
  6  7  1  0  0  0
 19 11  1  0  0  0
  6  1  1  0  0  0
 19 15  2  0  0  0
 10 20  1  0  0  0
 10 21  1  0  0  0
 25 27  1  0  0  0
 30 33  1  0  0  0
 31 34  1  0  0  0
  5  8  1  0  0  0
  7  9  1  0  0  0
M  END
> <minimizedAffinity>
-8.66051

> <CNNscore>
0.5479180217

> <CNNaffinity>
5.9481735229

> <CNN_VS>
3.2591114044

> <CNNaffinity_variance>
0.5445730686

$$$$
[H]O[C@]1([H])[C@]([H])(n2c([H])nc3c(N([H])[H])nc([H])nc32)O[C@@]([H])(C([H])([H])OP(=O)(O[H])OP(=O)(O[H])O[H])[C@]1([H])O[H]


 34 36  0  0  0  0  0  0  0  0999 V2000
   14.3958   23.7781   -1.7886 C   0  0  0  0  0  0  0  0  0  0  0  0
   13.1034   24.2095   -1.6377 O   0  0  0  0  0  0  0  0  0  0  0  0
   12.4499   23.3939   -0.7538 C   0  0  0  0  0  0  0  0  0  0  0  0
   13.4799   22.5351   -0.0572 C   0  0  0  0  0  0  0  0  0  0  0  0
   13.2684   22.4529    1.3060 O   0  0  0  0  0  0  0  0  0  0  0  0
   14.7544   23.2884   -0.3998 C   0  0  0  0  0  0  0  0  0  0  0  0
   14.9016   24.3852    0.4357 O   0  0  0  0  0  0  0  0  0  0  0  0
   13.3448   21.4965    1.5640 H   0  0  0  0  0  0  0  0  0  0  0  0
   14.0879   24.4997    0.9649 H   0  0  0  0  0  0  0  0  0  0  0  0
   17.4389   28.3047   -4.2975 N   0  0  0  0  0  0  0  0  0  0  0  0
   16.2978   27.4648   -4.2917 C   0  0  0  0  0  0  0  0  0  0  0  0
   15.2971   27.5374   -5.1684 N   0  0  0  0  0  0  0  0  0  0  0  0
   14.2379   26.7094   -5.1100 C   0  0  0  0  0  0  0  0  0  0  0  0
   14.1279   25.7601   -4.1629 N   0  0  0  0  0  0  0  0  0  0  0  0
   15.1358   25.6635   -3.2542 C   0  0  0  0  0  0  0  0  0  0  0  0
   15.2813   24.8292   -2.2286 N   0  0  0  0  0  0  0  0  0  0  0  0
   16.4457   25.1262   -1.6242 C   0  0  0  0  0  0  0  0  0  0  0  0
   17.0266   26.1493   -2.2764 N   0  0  0  0  0  0  0  0  0  0  0  0
   16.2296   26.5002   -3.2943 C   0  0  0  0  0  0  0  0  0  0  0  0
   17.4747   29.2159   -3.7863 H   0  0  0  0  0  0  0  0  0  0  0  0
   18.2701   27.9925   -4.8355 H   0  0  0  0  0  0  0  0  0  0  0  0
   11.3310   22.5976   -1.3387 C   0  0  0  0  0  0  0  0  0  0  0  0
   10.9650   21.5359   -0.5104 O   0  0  0  0  0  0  0  0  0  0  0  0
    9.7132   22.0026    0.5199 P   0  0  0  0  0  0  0  0  0  0  0  0
    8.9277   23.3224   -0.1955 O   0  0  0  0  0  0  0  0  0  0  0  0
    8.6694   20.8908    0.6233 O   0  0  0  0  0  0  0  0  0  0  0  0
    8.9632   23.2763   -1.1818 H   0  0  0  0  0  0  0  0  0  0  0  0
   10.2810   22.3647    2.0524 O   0  0  0  0  0  0  0  0  0  0  0  0
   10.8252   20.9707    2.8481 P   0  0  0  0  0  0  0  0  0  0  0  0
   11.0951   19.7025    1.7674 O   0  0  0  0  0  0  0  0  0  0  0  0
   12.2353   21.3471    3.7143 O   0  0  0  0  0  0  0  0  0  0  0  0
    9.7809   20.4730    3.8462 O   0  0  0  0  0  0  0  0  0  0  0  0
   11.3478   20.0933    0.8997 H   0  0  0  0  0  0  0  0  0  0  0  0
   12.1721   21.0249    4.6511 H   0  0  0  0  0  0  0  0  0  0  0  0
 10 11  1  0  0  0
 11 12  2  0  0  0
 12 13  1  0  0  0
 13 14  2  0  0  0
 14 15  1  0  0  0
 15 16  1  0  0  0
 16 17  1  0  0  0
 17 18  2  0  0  0
 18 19  1  0  0  0
 16  1  1  0  0  0
  1  2  1  0  0  0
  2  3  1  0  0  0
  3 22  1  0  0  0
 22 23  1  0  0  0
 23 24  1  0  0  0
 24 25  1  0  0  0
 24 26  2  0  0  0
 24 28  1  0  0  0
 28 29  1  0  0  0
 29 30  1  0  0  0
 29 31  1  0  0  0
 29 32  2  0  0  0
  3  4  1  0  0  0
  4  5  1  0  0  0
  4  6  1  0  0  0
  6  7  1  0  0  0
 19 11  1  0  0  0
  6  1  1  0  0  0
 19 15  2  0  0  0
 10 20  1  0  0  0
 10 21  1  0  0  0
 25 27  1  0  0  0
 30 33  1  0  0  0
 31 34  1  0  0  0
  5  8  1  0  0  0
  7  9  1  0  0  0
M  END
> <minimizedAffinity>
-8.69382

> <CNNscore>
0.5299816728

> <CNNaffinity>
5.9854726791

> <CNN_VS>
3.1721909046

> <CNNaffinity_variance>
0.3973874450

$$$$
[H]O[C@]1([H])[C@]([H])(n2c([H])nc3c(N([H])[H])nc([H])nc32)O[C@@]([H])(C([H])([H])OP(=O)(O[H])OP(=O)(O[H])O[H])[C@]1([H])O[H]


 34 36  0  0  0  0  0  0  0  0999 V2000
   14.2503   23.7786   -1.4037 C   0  0  0  0  0  0  0  0  0  0  0  0
   14.8011   23.0591   -0.3750 O   0  0  0  0  0  0  0  0  0  0  0  0
   14.1674   21.8503   -0.2726 C   0  0  0  0  0  0  0  0  0  0  0  0
   13.3297   21.6522   -1.5148 C   0  0  0  0  0  0  0  0  0  0  0  0
   13.4492   20.3788   -2.0382 O   0  0  0  0  0  0  0  0  0  0  0  0
   13.9246   22.7105   -2.4286 C   0  0  0  0  0  0  0  0  0  0  0  0
   15.1085   22.2515   -2.9859 O   0  0  0  0  0  0  0  0  0  0  0  0
   12.5332   20.0495   -2.2373 H   0  0  0  0  0  0  0  0  0  0  0  0
   15.3584   21.4067   -2.5627 H   0  0  0  0  0  0  0  0  0  0  0  0
   17.3454   28.0681   -4.2438 N   0  0  0  0  0  0  0  0  0  0  0  0
   16.1631   27.2951   -4.1333 C   0  0  0  0  0  0  0  0  0  0  0  0
   15.1058   27.4055   -4.9366 N   0  0  0  0  0  0  0  0  0  0  0  0
   14.0097   26.6409   -4.7799 C   0  0  0  0  0  0  0  0  0  0  0  0
   13.9176   25.7204   -3.8029 N   0  0  0  0  0  0  0  0  0  0  0  0
   14.9831   25.5863   -2.9677 C   0  0  0  0  0  0  0  0  0  0  0  0
   15.1577   24.7676   -1.9340 N   0  0  0  0  0  0  0  0  0  0  0  0
   16.3783   25.0107   -1.4238 C   0  0  0  0  0  0  0  0  0  0  0  0
   16.9651   25.9844   -2.1428 N   0  0  0  0  0  0  0  0  0  0  0  0
   16.1156   26.3580   -3.1089 C   0  0  0  0  0  0  0  0  0  0  0  0
   17.4693   28.9867   -3.7604 H   0  0  0  0  0  0  0  0  0  0  0  0
   18.1160   27.6973   -4.8325 H   0  0  0  0  0  0  0  0  0  0  0  0
   13.3925   21.6488    0.9873 C   0  0  0  0  0  0  0  0  0  0  0  0
   12.7087   22.8056    1.3634 O   0  0  0  0  0  0  0  0  0  0  0  0
   11.0539   22.4968    1.4743 P   0  0  0  0  0  0  0  0  0  0  0  0
   10.8577   21.0854    2.3909 O   0  0  0  0  0  0  0  0  0  0  0  0
   10.3578   23.6115    2.2548 O   0  0  0  0  0  0  0  0  0  0  0  0
   11.5754   20.9846    3.0624 H   0  0  0  0  0  0  0  0  0  0  0  0
   10.3501   22.3662   -0.0389 O   0  0  0  0  0  0  0  0  0  0  0  0
    9.5200   20.8976   -0.2026 P   0  0  0  0  0  0  0  0  0  0  0  0
    8.7712   20.7706   -1.7099 O   0  0  0  0  0  0  0  0  0  0  0  0
   10.6082   19.6199    0.0498 O   0  0  0  0  0  0  0  0  0  0  0  0
    8.4110   20.7818    0.8420 O   0  0  0  0  0  0  0  0  0  0  0  0
    9.3026   21.2897   -2.3562 H   0  0  0  0  0  0  0  0  0  0  0  0
   10.2410   18.9651    0.6993 H   0  0  0  0  0  0  0  0  0  0  0  0
 10 11  1  0  0  0
 11 12  2  0  0  0
 12 13  1  0  0  0
 13 14  2  0  0  0
 14 15  1  0  0  0
 15 16  1  0  0  0
 16 17  1  0  0  0
 17 18  2  0  0  0
 18 19  1  0  0  0
 16  1  1  0  0  0
  1  2  1  0  0  0
  2  3  1  0  0  0
  3 22  1  0  0  0
 22 23  1  0  0  0
 23 24  1  0  0  0
 24 25  1  0  0  0
 24 26  2  0  0  0
 24 28  1  0  0  0
 28 29  1  0  0  0
 29 30  1  0  0  0
 29 31  1  0  0  0
 29 32  2  0  0  0
  3  4  1  0  0  0
  4  5  1  0  0  0
  4  6  1  0  0  0
  6  7  1  0  0  0
 19 11  1  0  0  0
  6  1  1  0  0  0
 19 15  2  0  0  0
 10 20  1  0  0  0
 10 21  1  0  0  0
 25 27  1  0  0  0
 30 33  1  0  0  0
 31 34  1  0  0  0
  5  8  1  0  0  0
  7  9  1  0  0  0
M  END
> <minimizedAffinity>
-8.49164

> <CNNscore>
0.4217958152

> <CNNaffinity>
5.9672021866

> <CNN_VS>
2.5169408321

> <CNNaffinity_variance>
0.3867512643

$$$$
[H]O[C@]1([H])[C@]([H])(n2c([H])nc3c(N([H])[H])nc([H])nc32)O[C@@]([H])(C([H])([H])OP(=O)(O[H])OP(=O)(O[H])O[H])[C@]1([H])O[H]


 34 36  0  0  0  0  0  0  0  0999 V2000
   13.9980   24.0101   -1.9732 C   0  0  0  0  0  0  0  0  0  0  0  0
   13.2312   25.0642   -1.5486 O   0  0  0  0  0  0  0  0  0  0  0  0
   13.1594   25.0554   -0.1818 C   0  0  0  0  0  0  0  0  0  0  0  0
   14.1961   24.0858    0.3369 C   0  0  0  0  0  0  0  0  0  0  0  0
   14.9062   24.5914    1.4092 O   0  0  0  0  0  0  0  0  0  0  0  0
   15.0626   23.9106   -0.8990 C   0  0  0  0  0  0  0  0  0  0  0  0
   15.9311   24.9835   -1.0310 O   0  0  0  0  0  0  0  0  0  0  0  0
   14.9381   23.8852    2.1073 H   0  0  0  0  0  0  0  0  0  0  0  0
   15.6979   25.6702   -0.3758 H   0  0  0  0  0  0  0  0  0  0  0  0
   15.9471   25.7815   -7.3684 N   0  0  0  0  0  0  0  0  0  0  0  0
   15.1846   26.0500   -6.2048 C   0  0  0  0  0  0  0  0  0  0  0  0
   14.4863   27.1651   -5.9950 N   0  0  0  0  0  0  0  0  0  0  0  0
   13.7804   27.3615   -4.8663 C   0  0  0  0  0  0  0  0  0  0  0  0
   13.7388   26.4431   -3.8839 N   0  0  0  0  0  0  0  0  0  0  0  0
   14.4431   25.2943   -4.0716 C   0  0  0  0  0  0  0  0  0  0  0  0
   14.5749   24.2362   -3.2765 N   0  0  0  0  0  0  0  0  0  0  0  0
   15.3735   23.3534   -3.9028 C   0  0  0  0  0  0  0  0  0  0  0  0
   15.7397   23.8644   -5.0920 N   0  0  0  0  0  0  0  0  0  0  0  0
   15.1727   25.0714   -5.2187 C   0  0  0  0  0  0  0  0  0  0  0  0
   16.9519   26.0538   -7.4630 H   0  0  0  0  0  0  0  0  0  0  0  0
   15.4783   25.2928   -8.1554 H   0  0  0  0  0  0  0  0  0  0  0  0
   11.7984   24.8026    0.3768 C   0  0  0  0  0  0  0  0  0  0  0  0
   10.9051   24.3830   -0.6098 O   0  0  0  0  0  0  0  0  0  0  0  0
   10.5272   22.7521   -0.4011 P   0  0  0  0  0  0  0  0  0  0  0  0
    8.8489   22.6383   -0.1980 O   0  0  0  0  0  0  0  0  0  0  0  0
   10.8570   21.9651   -1.6692 O   0  0  0  0  0  0  0  0  0  0  0  0
    8.3733   23.3487   -0.6933 H   0  0  0  0  0  0  0  0  0  0  0  0
   11.3626   22.0876    0.8884 O   0  0  0  0  0  0  0  0  0  0  0  0
   10.3801   21.9844    2.2656 P   0  0  0  0  0  0  0  0  0  0  0  0
    9.7207   23.4837    2.6734 O   0  0  0  0  0  0  0  0  0  0  0  0
    9.1624   20.8354    1.9875 O   0  0  0  0  0  0  0  0  0  0  0  0
   11.1903   21.5249    3.4768 O   0  0  0  0  0  0  0  0  0  0  0  0
    9.6212   24.0058    1.8444 H   0  0  0  0  0  0  0  0  0  0  0  0
    9.1048   20.1912    2.7405 H   0  0  0  0  0  0  0  0  0  0  0  0
 10 11  1  0  0  0
 11 12  2  0  0  0
 12 13  1  0  0  0
 13 14  2  0  0  0
 14 15  1  0  0  0
 15 16  1  0  0  0
 16 17  1  0  0  0
 17 18  2  0  0  0
 18 19  1  0  0  0
 16  1  1  0  0  0
  1  2  1  0  0  0
  2  3  1  0  0  0
  3 22  1  0  0  0
 22 23  1  0  0  0
 23 24  1  0  0  0
 24 25  1  0  0  0
 24 26  2  0  0  0
 24 28  1  0  0  0
 28 29  1  0  0  0
 29 30  1  0  0  0
 29 31  1  0  0  0
 29 32  2  0  0  0
  3  4  1  0  0  0
  4  5  1  0  0  0
  4  6  1  0  0  0
  6  7  1  0  0  0
 19 11  1  0  0  0
  6  1  1  0  0  0
 19 15  2  0  0  0
 10 20  1  0  0  0
 10 21  1  0  0  0
 25 27  1  0  0  0
 30 33  1  0  0  0
 31 34  1  0  0  0
  5  8  1  0  0  0
  7  9  1  0  0  0
M  END
> <minimizedAffinity>
-6.87303

> <CNNscore>
0.4066959023

> <CNNaffinity>
5.3850107193

> <CNN_VS>
2.1900618076

> <CNNaffinity_variance>
0.1470242441

$$$$
[H]O[C@]1([H])[C@]([H])(n2c([H])nc3c(N([H])[H])nc([H])nc32)O[C@@]([H])(C([H])([H])OP(=O)(O[H])OP(=O)(O[H])O[H])[C@]1([H])O[H]


 34 36  0  0  0  0  0  0  0  0999 V2000
   12.9144   23.0770   -1.3736 C   0  0  0  0  0  0  0  0  0  0  0  0
   12.3819   23.9909   -0.5017 O   0  0  0  0  0  0  0  0  0  0  0  0
   12.0313   23.3614    0.6620 C   0  0  0  0  0  0  0  0  0  0  0  0
   12.6469   21.9813    0.6536 C   0  0  0  0  0  0  0  0  0  0  0  0
   13.2293   21.6523    1.8628 O   0  0  0  0  0  0  0  0  0  0  0  0
   13.6713   22.1355   -0.4581 C   0  0  0  0  0  0  0  0  0  0  0  0
   14.7994   22.7868    0.0173 O   0  0  0  0  0  0  0  0  0  0  0  0
   12.9301   20.7350    2.0998 H   0  0  0  0  0  0  0  0  0  0  0  0
   14.6259   23.1152    0.9213 H   0  0  0  0  0  0  0  0  0  0  0  0
   15.9293   26.3376   -5.4140 N   0  0  0  0  0  0  0  0  0  0  0  0
   14.8192   26.2078   -4.5430 C   0  0  0  0  0  0  0  0  0  0  0  0
   13.8653   27.1247   -4.3868 N   0  0  0  0  0  0  0  0  0  0  0  0
   12.8339   26.9423   -3.5419 C   0  0  0  0  0  0  0  0  0  0  0  0
   12.7061   25.8234   -2.8058 N   0  0  0  0  0  0  0  0  0  0  0  0
   13.6663   24.8698   -2.9455 C   0  0  0  0  0  0  0  0  0  0  0  0
   13.7853   23.6867   -2.3495 N   0  0  0  0  0  0  0  0  0  0  0  0
   14.9045   23.1058   -2.8177 C   0  0  0  0  0  0  0  0  0  0  0  0
   15.4838   23.9307   -3.7084 N   0  0  0  0  0  0  0  0  0  0  0  0
   14.7310   25.0347   -3.8041 C   0  0  0  0  0  0  0  0  0  0  0  0
   16.8332   26.7721   -5.1192 H   0  0  0  0  0  0  0  0  0  0  0  0
   15.8303   25.9827   -6.3846 H   0  0  0  0  0  0  0  0  0  0  0  0
   10.5671   23.3413    0.9521 C   0  0  0  0  0  0  0  0  0  0  0  0
   10.2089   22.2349    1.7233 O   0  0  0  0  0  0  0  0  0  0  0  0
    8.7959   21.5359    1.1223 P   0  0  0  0  0  0  0  0  0  0  0  0
    8.0466   22.6784    0.1204 O   0  0  0  0  0  0  0  0  0  0  0  0
    9.1334   20.3424    0.2290 O   0  0  0  0  0  0  0  0  0  0  0  0
    8.7078   23.2673   -0.3182 H   0  0  0  0  0  0  0  0  0  0  0  0
    7.7880   21.0270    2.3582 O   0  0  0  0  0  0  0  0  0  0  0  0
    7.7257   22.1712    3.6069 P   0  0  0  0  0  0  0  0  0  0  0  0
    9.1449   22.1730    4.5207 O   0  0  0  0  0  0  0  0  0  0  0  0
    7.4278   23.7014    2.9362 O   0  0  0  0  0  0  0  0  0  0  0  0
    6.5879   21.8548    4.5764 O   0  0  0  0  0  0  0  0  0  0  0  0
    9.8840   21.8966    3.9318 H   0  0  0  0  0  0  0  0  0  0  0  0
    6.6843   24.1573    3.4104 H   0  0  0  0  0  0  0  0  0  0  0  0
 10 11  1  0  0  0
 11 12  2  0  0  0
 12 13  1  0  0  0
 13 14  2  0  0  0
 14 15  1  0  0  0
 15 16  1  0  0  0
 16 17  1  0  0  0
 17 18  2  0  0  0
 18 19  1  0  0  0
 16  1  1  0  0  0
  1  2  1  0  0  0
  2  3  1  0  0  0
  3 22  1  0  0  0
 22 23  1  0  0  0
 23 24  1  0  0  0
 24 25  1  0  0  0
 24 26  2  0  0  0
 24 28  1  0  0  0
 28 29  1  0  0  0
 29 30  1  0  0  0
 29 31  1  0  0  0
 29 32  2  0  0  0
  3  4  1  0  0  0
  4  5  1  0  0  0
  4  6  1  0  0  0
  6  7  1  0  0  0
 19 11  1  0  0  0
  6  1  1  0  0  0
 19 15  2  0  0  0
 10 20  1  0  0  0
 10 21  1  0  0  0
 25 27  1  0  0  0
 30 33  1  0  0  0
 31 34  1  0  0  0
  5  8  1  0  0  0
  7  9  1  0  0  0
M  END
> <minimizedAffinity>
-7.19797

> <CNNscore>
0.4047375917

> <CNNaffinity>
5.7199645042

> <CNN_VS>
2.3150846958

> <CNNaffinity_variance>
0.2840688527

$$$$
[H]O[C@]1([H])[C@]([H])(n2c([H])nc3c(N([H])[H])nc([H])nc32)O[C@@]([H])(C([H])([H])OP(=O)(O[H])OP(=O)(O[H])O[H])[C@]1([H])O[H]


 34 36  0  0  0  0  0  0  0  0999 V2000
   11.9062   24.3122    0.9473 C   0  0  0  0  0  0  0  0  0  0  0  0
   12.4558   23.9643   -0.2594 O   0  0  0  0  0  0  0  0  0  0  0  0
   13.8207   23.9680   -0.1576 C   0  0  0  0  0  0  0  0  0  0  0  0
   14.1824   24.0465    1.3077 C   0  0  0  0  0  0  0  0  0  0  0  0
   15.1920   23.1685    1.6531 O   0  0  0  0  0  0  0  0  0  0  0  0
   12.8536   23.6793    1.9468 C   0  0  0  0  0  0  0  0  0  0  0  0
   12.6742   22.3045    1.9226 O   0  0  0  0  0  0  0  0  0  0  0  0
   15.8519   23.6708    2.2003 H   0  0  0  0  0  0  0  0  0  0  0  0
   13.3794   21.8963    1.3829 H   0  0  0  0  0  0  0  0  0  0  0  0
    6.6034   21.5021    1.1205 N   0  0  0  0  0  0  0  0  0  0  0  0
    7.9610   21.5093    0.7146 C   0  0  0  0  0  0  0  0  0  0  0  0
    8.5562   20.5284    0.0372 N   0  0  0  0  0  0  0  0  0  0  0  0
    9.8519   20.5943   -0.3201 C   0  0  0  0  0  0  0  0  0  0  0  0
   10.6216   21.6546   -0.0141 N   0  0  0  0  0  0  0  0  0  0  0  0
   10.0393   22.6713    0.6775 C   0  0  0  0  0  0  0  0  0  0  0  0
   10.5589   23.8192    1.1035 N   0  0  0  0  0  0  0  0  0  0  0  0
    9.5857   24.4951    1.7400 C   0  0  0  0  0  0  0  0  0  0  0  0
    8.4565   23.7647    1.7099 N   0  0  0  0  0  0  0  0  0  0  0  0
    8.7149   22.6257    1.0539 C   0  0  0  0  0  0  0  0  0  0  0  0
    6.2872   21.1051    2.0343 H   0  0  0  0  0  0  0  0  0  0  0  0
    5.9005   21.9112    0.4752 H   0  0  0  0  0  0  0  0  0  0  0  0
   14.5121   25.0029   -0.9816 C   0  0  0  0  0  0  0  0  0  0  0  0
   14.4115   24.7283   -2.3461 O   0  0  0  0  0  0  0  0  0  0  0  0
   14.2239   23.0706   -2.5967 P   0  0  0  0  0  0  0  0  0  0  0  0
   13.1477   22.8676   -3.8894 O   0  0  0  0  0  0  0  0  0  0  0  0
   15.5471   22.4488   -3.0425 O   0  0  0  0  0  0  0  0  0  0  0  0
   13.2124   23.6110   -4.5371 H   0  0  0  0  0  0  0  0  0  0  0  0
   13.6944   22.2954   -1.2107 O   0  0  0  0  0  0  0  0  0  0  0  0
   14.7307   21.0226   -0.7880 P   0  0  0  0  0  0  0  0  0  0  0  0
   13.9603   19.8967    0.2059 O   0  0  0  0  0  0  0  0  0  0  0  0
   15.3105   20.2918   -2.2057 O   0  0  0  0  0  0  0  0  0  0  0  0
   15.9340   21.5409   -0.0020 O   0  0  0  0  0  0  0  0  0  0  0  0
   13.0009   19.9045   -0.0155 H   0  0  0  0  0  0  0  0  0  0  0  0
   16.2980   20.1943   -2.1755 H   0  0  0  0  0  0  0  0  0  0  0  0
 10 11  1  0  0  0
 11 12  2  0  0  0
 12 13  1  0  0  0
 13 14  2  0  0  0
 14 15  1  0  0  0
 15 16  1  0  0  0
 16 17  1  0  0  0
 17 18  2  0  0  0
 18 19  1  0  0  0
 16  1  1  0  0  0
  1  2  1  0  0  0
  2  3  1  0  0  0
  3 22  1  0  0  0
 22 23  1  0  0  0
 23 24  1  0  0  0
 24 25  1  0  0  0
 24 26  2  0  0  0
 24 28  1  0  0  0
 28 29  1  0  0  0
 29 30  1  0  0  0
 29 31  1  0  0  0
 29 32  2  0  0  0
  3  4  1  0  0  0
  4  5  1  0  0  0
  4  6  1  0  0  0
  6  7  1  0  0  0
 19 11  1  0  0  0
  6  1  1  0  0  0
 19 15  2  0  0  0
 10 20  1  0  0  0
 10 21  1  0  0  0
 25 27  1  0  0  0
 30 33  1  0  0  0
 31 34  1  0  0  0
  5  8  1  0  0  0
  7  9  1  0  0  0
M  END
> <minimizedAffinity>
6.91209

> <CNNscore>
0.3981196284

> <CNNaffinity>
5.3576622009

> <CNN_VS>
2.1329905987

> <CNNaffinity_variance>
3.6293768883

$$$$
[H]c1nc(N([H])[H])nc([H])c1-c1c([H])nc(N([H])C(=O)N([H])C([H])([H])C([H])([H])[H])c([H])c1-c1nc(C(F)(F)F)c([H])s1


 32 34  0  0  0  0  0  0  0  0999 V2000
   14.5159   21.9899   -0.7767 C   0  0  0  0  0  0  0  0  0  0  0  0
   15.0962   23.2292   -0.7454 C   0  0  0  0  0  0  0  0  0  0  0  0
   15.2975   23.9583   -1.9030 C   0  0  0  0  0  0  0  0  0  0  0  0
   14.9110   23.4480   -3.0881 C   0  0  0  0  0  0  0  0  0  0  0  0
   14.3051   22.1678   -3.1541 C   0  0  0  0  0  0  0  0  0  0  0  0
   14.1449   21.5238   -2.0246 N   0  0  0  0  0  0  0  0  0  0  0  0
   14.9978   24.1418   -4.3615 C   0  0  0  0  0  0  0  0  0  0  0  0
   15.7734   23.5397   -5.3632 C   0  0  0  0  0  0  0  0  0  0  0  0
   15.9049   24.1727   -6.5367 N   0  0  0  0  0  0  0  0  0  0  0  0
   15.3401   25.3634   -6.8338 C   0  0  0  0  0  0  0  0  0  0  0  0
   15.5471   25.9584   -8.1028 N   0  0  0  0  0  0  0  0  0  0  0  0
   14.5918   25.9392   -5.8648 N   0  0  0  0  0  0  0  0  0  0  0  0
   14.4194   25.3517   -4.6572 C   0  0  0  0  0  0  0  0  0  0  0  0
   16.3221   25.6294   -8.7053 H   0  0  0  0  0  0  0  0  0  0  0  0
   14.9350   26.7153   -8.4356 H   0  0  0  0  0  0  0  0  0  0  0  0
   12.9153   20.1958    2.1530 N   0  0  0  0  0  0  0  0  0  0  0  0
   13.0068   21.0905    1.0190 C   0  0  0  0  0  0  0  0  0  0  0  0
   11.9749   21.7422    0.7943 O   0  0  0  0  0  0  0  0  0  0  0  0
   14.2153   21.1510    0.2929 N   0  0  0  0  0  0  0  0  0  0  0  0
   13.7615   19.6579    2.3997 H   0  0  0  0  0  0  0  0  0  0  0  0
   14.9701   20.4556    0.6280 H   0  0  0  0  0  0  0  0  0  0  0  0
   11.5092   21.2062    3.8784 C   0  0  0  0  0  0  0  0  0  0  0  0
   11.7222   20.0252    2.9364 C   0  0  0  0  0  0  0  0  0  0  0  0
   15.9977   25.2334   -1.8028 C   0  0  0  0  0  0  0  0  0  0  0  0
   16.5341   25.9742   -2.7550 N   0  0  0  0  0  0  0  0  0  0  0  0
   17.0824   27.1120   -2.4875 C   0  0  0  0  0  0  0  0  0  0  0  0
   17.0861   27.5207   -1.1754 C   0  0  0  0  0  0  0  0  0  0  0  0
   16.2918   26.2164   -0.4345 S   0  0  0  0  0  0  0  0  0  0  0  0
   17.7062   28.0002   -3.5542 C   0  0  0  0  0  0  0  0  0  0  0  0
   17.1486   27.5831   -4.7433 F   0  0  0  0  0  0  0  0  0  0  0  0
   19.0697   27.9032   -3.5678 F   0  0  0  0  0  0  0  0  0  0  0  0
   17.3955   29.3148   -3.2659 F   0  0  0  0  0  0  0  0  0  0  0  0
 22 23  1  0  0  0
 23 16  1  0  0  0
 16 17  1  0  0  0
 17 18  2  0  0  0
 17 19  1  0  0  0
 19  1  1  0  0  0
  1  2  2  0  0  0
  2  3  1  0  0  0
  3 24  1  0  0  0
 24 25  2  0  0  0
 25 26  1  0  0  0
 26 27  2  0  0  0
 27 28  1  0  0  0
 26 29  1  0  0  0
 29 30  1  0  0  0
 29 31  1  0  0  0
 29 32  1  0  0  0
  3  4  2  0  0  0
  4  5  1  0  0  0
  5  6  2  0  0  0
  4  7  1  0  0  0
  7  8  2  0  0  0
  8  9  1  0  0  0
  9 10  2  0  0  0
 10 11  1  0  0  0
 10 12  1  0  0  0
 12 13  2  0  0  0
  6  1  1  0  0  0
 13  7  1  0  0  0
 28 24  1  0  0  0
 16 20  1  0  0  0
 19 21  1  0  0  0
 11 14  1  0  0  0
 11 15  1  0  0  0
M  END
> <minimizedAffinity>
1.48876

> <CNNscore>
0.4994194210

> <CNNaffinity>
7.4256906509

> <CNN_VS>
3.7085342407

> <CNNaffinity_variance>
0.5434309244

$$$$
[H]c1nc(N([H])[H])nc([H])c1-c1c([H])nc(N([H])C(=O)N([H])C([H])([H])C([H])([H])[H])c([H])c1-c1nc(C(F)(F)F)c([H])s1


 32 34  0  0  0  0  0  0  0  0999 V2000
   12.7015   26.2550   -3.2099 C   0  0  0  0  0  0  0  0  0  0  0  0
   11.8734   25.5175   -2.4074 C   0  0  0  0  0  0  0  0  0  0  0  0
   12.3435   24.4283   -1.6969 C   0  0  0  0  0  0  0  0  0  0  0  0
   13.6428   24.0844   -1.7860 C   0  0  0  0  0  0  0  0  0  0  0  0
   14.5269   24.8291   -2.6071 C   0  0  0  0  0  0  0  0  0  0  0  0
   14.0220   25.8474   -3.2586 N   0  0  0  0  0  0  0  0  0  0  0  0
   14.2736   23.0124   -1.0355 C   0  0  0  0  0  0  0  0  0  0  0  0
   14.2812   21.7402   -1.6263 C   0  0  0  0  0  0  0  0  0  0  0  0
   14.8216   20.7219   -0.9436 N   0  0  0  0  0  0  0  0  0  0  0  0
   15.3675   20.8273    0.2876 C   0  0  0  0  0  0  0  0  0  0  0  0
   15.9060   19.6869    0.9331 N   0  0  0  0  0  0  0  0  0  0  0  0
   15.3591   22.0567    0.8524 N   0  0  0  0  0  0  0  0  0  0  0  0
   14.8283   23.1272    0.2155 C   0  0  0  0  0  0  0  0  0  0  0  0
   15.6598   18.7398    0.5951 H   0  0  0  0  0  0  0  0  0  0  0  0
   16.5415   19.7873    1.7358 H   0  0  0  0  0  0  0  0  0  0  0  0
   11.7595   29.7246   -4.4091 N   0  0  0  0  0  0  0  0  0  0  0  0
   12.1364   28.6887   -3.4712 C   0  0  0  0  0  0  0  0  0  0  0  0
   12.1927   29.0619   -2.2890 O   0  0  0  0  0  0  0  0  0  0  0  0
   12.3938   27.3889   -3.9566 N   0  0  0  0  0  0  0  0  0  0  0  0
   11.6657   29.4525   -5.4008 H   0  0  0  0  0  0  0  0  0  0  0  0
   12.3397   27.2972   -5.0310 H   0  0  0  0  0  0  0  0  0  0  0  0
   12.7903   31.9216   -4.1166 C   0  0  0  0  0  0  0  0  0  0  0  0
   11.5147   31.0894   -4.0298 C   0  0  0  0  0  0  0  0  0  0  0  0
   11.3869   23.6395   -0.9295 C   0  0  0  0  0  0  0  0  0  0  0  0
   10.8172   22.4867   -1.2286 N   0  0  0  0  0  0  0  0  0  0  0  0
   10.0183   21.9013   -0.4004 C   0  0  0  0  0  0  0  0  0  0  0  0
    9.7841   22.5244    0.8018 C   0  0  0  0  0  0  0  0  0  0  0  0
   10.7448   23.9133    0.6318 S   0  0  0  0  0  0  0  0  0  0  0  0
    9.3457   20.5698   -0.7016 C   0  0  0  0  0  0  0  0  0  0  0  0
    9.1024   20.5864   -2.0579 F   0  0  0  0  0  0  0  0  0  0  0  0
    8.1978   20.4011    0.0212 F   0  0  0  0  0  0  0  0  0  0  0  0
   10.2070   19.5525   -0.3393 F   0  0  0  0  0  0  0  0  0  0  0  0
 22 23  1  0  0  0
 23 16  1  0  0  0
 16 17  1  0  0  0
 17 18  2  0  0  0
 17 19  1  0  0  0
 19  1  1  0  0  0
  1  2  2  0  0  0
  2  3  1  0  0  0
  3 24  1  0  0  0
 24 25  2  0  0  0
 25 26  1  0  0  0
 26 27  2  0  0  0
 27 28  1  0  0  0
 26 29  1  0  0  0
 29 30  1  0  0  0
 29 31  1  0  0  0
 29 32  1  0  0  0
  3  4  2  0  0  0
  4  5  1  0  0  0
  5  6  2  0  0  0
  4  7  1  0  0  0
  7  8  2  0  0  0
  8  9  1  0  0  0
  9 10  2  0  0  0
 10 11  1  0  0  0
 10 12  1  0  0  0
 12 13  2  0  0  0
  6  1  1  0  0  0
 13  7  1  0  0  0
 28 24  1  0  0  0
 16 20  1  0  0  0
 19 21  1  0  0  0
 11 14  1  0  0  0
 11 15  1  0  0  0
M  END
> <minimizedAffinity>
8.07601

> <CNNscore>
0.4704309702

> <CNNaffinity>
7.2148180008

> <CNN_VS>
3.3940737247

> <CNNaffinity_variance>
0.6267224550

$$$$
[H]c1nc(N([H])[H])nc([H])c1-c1c([H])nc(N([H])C(=O)N([H])C([H])([H])C([H])([H])[H])c([H])c1-c1nc(C(F)(F)F)c([H])s1


 32 34  0  0  0  0  0  0  0  0999 V2000
   12.4894   24.5462   -1.9175 C   0  0  0  0  0  0  0  0  0  0  0  0
   12.0194   25.7516   -2.3645 C   0  0  0  0  0  0  0  0  0  0  0  0
   12.7013   26.4785   -3.3229 C   0  0  0  0  0  0  0  0  0  0  0  0
   13.8483   25.9937   -3.8366 C   0  0  0  0  0  0  0  0  0  0  0  0
   14.3607   24.7472   -3.3961 C   0  0  0  0  0  0  0  0  0  0  0  0
   13.6723   24.1073   -2.4835 N   0  0  0  0  0  0  0  0  0  0  0  0
   14.6163   26.6218   -4.8978 C   0  0  0  0  0  0  0  0  0  0  0  0
   15.3633   27.7588   -4.5561 C   0  0  0  0  0  0  0  0  0  0  0  0
   16.0526   28.3839   -5.5200 N   0  0  0  0  0  0  0  0  0  0  0  0
   16.0840   27.9982   -6.8143 C   0  0  0  0  0  0  0  0  0  0  0  0
   16.8367   28.7331   -7.7633 N   0  0  0  0  0  0  0  0  0  0  0  0
   15.3632   26.9001   -7.1384 N   0  0  0  0  0  0  0  0  0  0  0  0
   14.6449   26.2231   -6.2115 C   0  0  0  0  0  0  0  0  0  0  0  0
   17.1487   29.6946   -7.5397 H   0  0  0  0  0  0  0  0  0  0  0  0
   17.0792   28.3225   -8.6748 H   0  0  0  0  0  0  0  0  0  0  0  0
   10.9828   22.9309    1.1622 N   0  0  0  0  0  0  0  0  0  0  0  0
   11.5004   23.9913    0.3241 C   0  0  0  0  0  0  0  0  0  0  0  0
   11.5381   25.1052    0.8697 O   0  0  0  0  0  0  0  0  0  0  0  0
   11.9092   23.6840   -0.9911 N   0  0  0  0  0  0  0  0  0  0  0  0
   10.9648   21.9790    0.7624 H   0  0  0  0  0  0  0  0  0  0  0  0
   11.7379   22.6583   -1.2813 H   0  0  0  0  0  0  0  0  0  0  0  0
    9.1945   23.9263    2.4987 C   0  0  0  0  0  0  0  0  0  0  0  0
   10.5013   23.1390    2.5006 C   0  0  0  0  0  0  0  0  0  0  0  0
   12.1860   27.7925   -3.6890 C   0  0  0  0  0  0  0  0  0  0  0  0
   11.0513   28.1143   -4.2823 N   0  0  0  0  0  0  0  0  0  0  0  0
   10.7329   29.3479   -4.4912 C   0  0  0  0  0  0  0  0  0  0  0  0
   11.6197   30.3108   -4.0732 C   0  0  0  0  0  0  0  0  0  0  0  0
   12.8474   29.3447   -3.4095 S   0  0  0  0  0  0  0  0  0  0  0  0
    9.4332   29.7635   -5.1653 C   0  0  0  0  0  0  0  0  0  0  0  0
    9.1365   28.7406   -6.0398 F   0  0  0  0  0  0  0  0  0  0  0  0
    9.5505   30.9653   -5.8060 F   0  0  0  0  0  0  0  0  0  0  0  0
    8.4644   29.9147   -4.1924 F   0  0  0  0  0  0  0  0  0  0  0  0
 22 23  1  0  0  0
 23 16  1  0  0  0
 16 17  1  0  0  0
 17 18  2  0  0  0
 17 19  1  0  0  0
 19  1  1  0  0  0
  1  2  2  0  0  0
  2  3  1  0  0  0
  3 24  1  0  0  0
 24 25  2  0  0  0
 25 26  1  0  0  0
 26 27  2  0  0  0
 27 28  1  0  0  0
 26 29  1  0  0  0
 29 30  1  0  0  0
 29 31  1  0  0  0
 29 32  1  0  0  0
  3  4  2  0  0  0
  4  5  1  0  0  0
  5  6  2  0  0  0
  4  7  1  0  0  0
  7  8  2  0  0  0
  8  9  1  0  0  0
  9 10  2  0  0  0
 10 11  1  0  0  0
 10 12  1  0  0  0
 12 13  2  0  0  0
  6  1  1  0  0  0
 13  7  1  0  0  0
 28 24  1  0  0  0
 16 20  1  0  0  0
 19 21  1  0  0  0
 11 14  1  0  0  0
 11 15  1  0  0  0
M  END
> <minimizedAffinity>
11.93044

> <CNNscore>
0.4545562565

> <CNNaffinity>
6.7276201248

> <CNN_VS>
3.0580818653

> <CNNaffinity_variance>
0.5943191648

$$$$
[H]c1nc(N([H])[H])nc([H])c1-c1c([H])nc(N([H])C(=O)N([H])C([H])([H])C([H])([H])[H])c([H])c1-c1nc(C(F)(F)F)c([H])s1


 32 34  0  0  0  0  0  0  0  0999 V2000
   13.0644   21.1935    0.9494 C   0  0  0  0  0  0  0  0  0  0  0  0
   13.7792   22.3608    0.9406 C   0  0  0  0  0  0  0  0  0  0  0  0
   14.2380   22.9142   -0.2406 C   0  0  0  0  0  0  0  0  0  0  0  0
   13.9739   22.3014   -1.4107 C   0  0  0  0  0  0  0  0  0  0  0  0
   13.2343   21.0920   -1.4358 C   0  0  0  0  0  0  0  0  0  0  0  0
   12.8304   20.6149   -0.2846 N   0  0  0  0  0  0  0  0  0  0  0  0
   14.3335   22.8172   -2.7204 C   0  0  0  0  0  0  0  0  0  0  0  0
   15.0666   21.9663   -3.5607 C   0  0  0  0  0  0  0  0  0  0  0  0
   15.4466   22.4254   -4.7606 N   0  0  0  0  0  0  0  0  0  0  0  0
   15.1743   23.6624   -5.2304 C   0  0  0  0  0  0  0  0  0  0  0  0
   15.6298   24.0588   -6.5121 N   0  0  0  0  0  0  0  0  0  0  0  0
   14.4655   24.4786   -4.4168 N   0  0  0  0  0  0  0  0  0  0  0  0
   14.0517   24.0756   -3.1922 C   0  0  0  0  0  0  0  0  0  0  0  0
   16.3778   23.5191   -6.9822 H   0  0  0  0  0  0  0  0  0  0  0  0
   15.2253   24.8784   -6.9842 H   0  0  0  0  0  0  0  0  0  0  0  0
   11.1836   20.2190    4.0921 N   0  0  0  0  0  0  0  0  0  0  0  0
   11.5902   21.0491    2.9783 C   0  0  0  0  0  0  0  0  0  0  0  0
   11.0742   22.1775    2.9635 O   0  0  0  0  0  0  0  0  0  0  0  0
   12.5081   20.5309    2.0400 N   0  0  0  0  0  0  0  0  0  0  0  0
   11.6139   19.2831    4.1655 H   0  0  0  0  0  0  0  0  0  0  0  0
   12.7890   19.5031    2.2144 H   0  0  0  0  0  0  0  0  0  0  0  0
    8.7993   20.3636    4.6108 C   0  0  0  0  0  0  0  0  0  0  0  0
   10.2256   20.6304    5.0817 C   0  0  0  0  0  0  0  0  0  0  0  0
   15.0645   24.1131   -0.1662 C   0  0  0  0  0  0  0  0  0  0  0  0
   15.5809   24.8392   -1.1404 N   0  0  0  0  0  0  0  0  0  0  0  0
   16.2588   25.9089   -0.8895 C   0  0  0  0  0  0  0  0  0  0  0  0
   16.4217   26.2612    0.4288 C   0  0  0  0  0  0  0  0  0  0  0  0
   15.5759   25.0072    1.1991 S   0  0  0  0  0  0  0  0  0  0  0  0
   16.8657   26.7782   -1.9813 C   0  0  0  0  0  0  0  0  0  0  0  0
   16.9246   28.0455   -1.4434 F   0  0  0  0  0  0  0  0  0  0  0  0
   16.1273   26.7453   -3.1313 F   0  0  0  0  0  0  0  0  0  0  0  0
   18.1183   26.2839   -2.2887 F   0  0  0  0  0  0  0  0  0  0  0  0
 22 23  1  0  0  0
 23 16  1  0  0  0
 16 17  1  0  0  0
 17 18  2  0  0  0
 17 19  1  0  0  0
 19  1  1  0  0  0
  1  2  2  0  0  0
  2  3  1  0  0  0
  3 24  1  0  0  0
 24 25  2  0  0  0
 25 26  1  0  0  0
 26 27  2  0  0  0
 27 28  1  0  0  0
 26 29  1  0  0  0
 29 30  1  0  0  0
 29 31  1  0  0  0
 29 32  1  0  0  0
  3  4  2  0  0  0
  4  5  1  0  0  0
  5  6  2  0  0  0
  4  7  1  0  0  0
  7  8  2  0  0  0
  8  9  1  0  0  0
  9 10  2  0  0  0
 10 11  1  0  0  0
 10 12  1  0  0  0
 12 13  2  0  0  0
  6  1  1  0  0  0
 13  7  1  0  0  0
 28 24  1  0  0  0
 16 20  1  0  0  0
 19 21  1  0  0  0
 11 14  1  0  0  0
 11 15  1  0  0  0
M  END
> <minimizedAffinity>
3.34209

> <CNNscore>
0.4144862592

> <CNNaffinity>
7.2617406845

> <CNN_VS>
3.0098917484

> <CNNaffinity_variance>
0.8864442706

$$$$
[H]c1nc(N([H])[H])nc([H])c1-c1c([H])nc(N([H])C(=O)N([H])C([H])([H])C([H])([H])[H])c([H])c1-c1nc(C(F)(F)F)c([H])s1


 32 34  0  0  0  0  0  0  0  0999 V2000
   13.5234   24.6282   -0.8416 C   0  0  0  0  0  0  0  0  0  0  0  0
   12.8247   25.5824   -1.5310 C   0  0  0  0  0  0  0  0  0  0  0  0
   13.2971   26.0980   -2.7239 C   0  0  0  0  0  0  0  0  0  0  0  0
   14.4642   25.6521   -3.2273 C   0  0  0  0  0  0  0  0  0  0  0  0
   15.2109   24.6629   -2.5386 C   0  0  0  0  0  0  0  0  0  0  0  0
   14.7139   24.2162   -1.4118 N   0  0  0  0  0  0  0  0  0  0  0  0
   15.0295   26.0568   -4.5029 C   0  0  0  0  0  0  0  0  0  0  0  0
   15.0314   25.1020   -5.5304 C   0  0  0  0  0  0  0  0  0  0  0  0
   15.5799   25.4311   -6.7076 N   0  0  0  0  0  0  0  0  0  0  0  0
   16.1395   26.6289   -6.9853 C   0  0  0  0  0  0  0  0  0  0  0  0
   16.7042   26.8780   -8.2606 N   0  0  0  0  0  0  0  0  0  0  0  0
   16.1337   27.5469   -5.9915 N   0  0  0  0  0  0  0  0  0  0  0  0
   15.5954   27.2773   -4.7787 C   0  0  0  0  0  0  0  0  0  0  0  0
   16.9259   26.0857   -8.8890 H   0  0  0  0  0  0  0  0  0  0  0  0
   16.8970   27.8392   -8.5723 H   0  0  0  0  0  0  0  0  0  0  0  0
   11.8689   22.5643    1.8725 N   0  0  0  0  0  0  0  0  0  0  0  0
   12.1228   23.0647    0.5383 C   0  0  0  0  0  0  0  0  0  0  0  0
   11.3606   22.6161   -0.3322 O   0  0  0  0  0  0  0  0  0  0  0  0
   13.1709   23.9893    0.3439 N   0  0  0  0  0  0  0  0  0  0  0  0
   12.4562   22.9361    2.6361 H   0  0  0  0  0  0  0  0  0  0  0  0
   13.7457   24.2025    1.2327 H   0  0  0  0  0  0  0  0  0  0  0  0
   11.3097   20.6545    3.2919 C   0  0  0  0  0  0  0  0  0  0  0  0
   10.8554   21.5914    2.1769 C   0  0  0  0  0  0  0  0  0  0  0  0
   12.5422   27.1717   -3.3590 C   0  0  0  0  0  0  0  0  0  0  0  0
   12.5940   28.4739   -3.1477 N   0  0  0  0  0  0  0  0  0  0  0  0
   11.8770   29.2927   -3.8422 C   0  0  0  0  0  0  0  0  0  0  0  0
   11.0590   28.7566   -4.8076 C   0  0  0  0  0  0  0  0  0  0  0  0
   11.3977   27.1030   -4.6280 S   0  0  0  0  0  0  0  0  0  0  0  0
   11.9105   30.8001   -3.6364 C   0  0  0  0  0  0  0  0  0  0  0  0
   11.7385   30.9839   -2.2815 F   0  0  0  0  0  0  0  0  0  0  0  0
   10.9454   31.4377   -4.3648 F   0  0  0  0  0  0  0  0  0  0  0  0
   13.1310   31.2749   -4.0757 F   0  0  0  0  0  0  0  0  0  0  0  0
 22 23  1  0  0  0
 23 16  1  0  0  0
 16 17  1  0  0  0
 17 18  2  0  0  0
 17 19  1  0  0  0
 19  1  1  0  0  0
  1  2  2  0  0  0
  2  3  1  0  0  0
  3 24  1  0  0  0
 24 25  2  0  0  0
 25 26  1  0  0  0
 26 27  2  0  0  0
 27 28  1  0  0  0
 26 29  1  0  0  0
 29 30  1  0  0  0
 29 31  1  0  0  0
 29 32  1  0  0  0
  3  4  2  0  0  0
  4  5  1  0  0  0
  5  6  2  0  0  0
  4  7  1  0  0  0
  7  8  2  0  0  0
  8  9  1  0  0  0
  9 10  2  0  0  0
 10 11  1  0  0  0
 10 12  1  0  0  0
 12 13  2  0  0  0
  6  1  1  0  0  0
 13  7  1  0  0  0
 28 24  1  0  0  0
 16 20  1  0  0  0
 19 21  1  0  0  0
 11 14  1  0  0  0
 11 15  1  0  0  0
M  END
> <minimizedAffinity>
9.71087

> <CNNscore>
0.3726477623

> <CNNaffinity>
6.7139487267

> <CNN_VS>
2.5019378662

> <CNNaffinity_variance>
0.4282121658

$$$$
[H]c1nc(N([H])[H])nc([H])c1-c1c([H])nc(N([H])C(=O)N([H])C([H])([H])C([H])([H])[H])c([H])c1-c1nc(C(F)(F)F)c([H])s1


 32 34  0  0  0  0  0  0  0  0999 V2000
    9.8222   22.0683    0.6871 C   0  0  0  0  0  0  0  0  0  0  0  0
   10.7867   22.9987    0.9661 C   0  0  0  0  0  0  0  0  0  0  0  0
   11.8929   23.1542    0.1512 C   0  0  0  0  0  0  0  0  0  0  0  0
   12.0273   22.3829   -0.9449 C   0  0  0  0  0  0  0  0  0  0  0  0
   11.0448   21.4113   -1.2628 C   0  0  0  0  0  0  0  0  0  0  0  0
   10.0221   21.3082   -0.4507 N   0  0  0  0  0  0  0  0  0  0  0  0
   13.0997   22.4988   -1.9181 C   0  0  0  0  0  0  0  0  0  0  0  0
   13.3665   23.7802   -2.4222 C   0  0  0  0  0  0  0  0  0  0  0  0
   14.3240   23.9155   -3.3495 N   0  0  0  0  0  0  0  0  0  0  0  0
   15.0629   22.8982   -3.8436 C   0  0  0  0  0  0  0  0  0  0  0  0
   16.0478   23.1419   -4.8325 N   0  0  0  0  0  0  0  0  0  0  0  0
   14.8028   21.6645   -3.3530 N   0  0  0  0  0  0  0  0  0  0  0  0
   13.8481   21.4601   -2.4148 C   0  0  0  0  0  0  0  0  0  0  0  0
   16.0345   24.0299   -5.3645 H   0  0  0  0  0  0  0  0  0  0  0  0
   16.7795   22.4461   -5.0295 H   0  0  0  0  0  0  0  0  0  0  0  0
    7.1945   21.1484    3.2586 N   0  0  0  0  0  0  0  0  0  0  0  0
    8.5121   21.4438    2.7375 C   0  0  0  0  0  0  0  0  0  0  0  0
    9.4290   21.3334    3.5665 O   0  0  0  0  0  0  0  0  0  0  0  0
    8.6432   21.8131    1.3819 N   0  0  0  0  0  0  0  0  0  0  0  0
    6.4037   21.1933    2.5962 H   0  0  0  0  0  0  0  0  0  0  0  0
    7.7061   21.9006    0.8528 H   0  0  0  0  0  0  0  0  0  0  0  0
    6.3946   21.9963    5.4071 C   0  0  0  0  0  0  0  0  0  0  0  0
    6.9418   20.8024    4.6307 C   0  0  0  0  0  0  0  0  0  0  0  0
   12.9207   24.1058    0.5565 C   0  0  0  0  0  0  0  0  0  0  0  0
   14.2337   24.0209    0.4481 N   0  0  0  0  0  0  0  0  0  0  0  0
   14.9994   24.9903    0.8236 C   0  0  0  0  0  0  0  0  0  0  0  0
   14.3952   26.1114    1.3399 C   0  0  0  0  0  0  0  0  0  0  0  0
   12.7604   25.6659    1.2387 S   0  0  0  0  0  0  0  0  0  0  0  0
   16.5161   24.9371    0.7107 C   0  0  0  0  0  0  0  0  0  0  0  0
   16.9724   25.9904    1.4731 F   0  0  0  0  0  0  0  0  0  0  0  0
   16.9361   25.0264   -0.5871 F   0  0  0  0  0  0  0  0  0  0  0  0
   16.9486   23.7179    1.1946 F   0  0  0  0  0  0  0  0  0  0  0  0
 22 23  1  0  0  0
 23 16  1  0  0  0
 16 17  1  0  0  0
 17 18  2  0  0  0
 17 19  1  0  0  0
 19  1  1  0  0  0
  1  2  2  0  0  0
  2  3  1  0  0  0
  3 24  1  0  0  0
 24 25  2  0  0  0
 25 26  1  0  0  0
 26 27  2  0  0  0
 27 28  1  0  0  0
 26 29  1  0  0  0
 29 30  1  0  0  0
 29 31  1  0  0  0
 29 32  1  0  0  0
  3  4  2  0  0  0
  4  5  1  0  0  0
  5  6  2  0  0  0
  4  7  1  0  0  0
  7  8  2  0  0  0
  8  9  1  0  0  0
  9 10  2  0  0  0
 10 11  1  0  0  0
 10 12  1  0  0  0
 12 13  2  0  0  0
  6  1  1  0  0  0
 13  7  1  0  0  0
 28 24  1  0  0  0
 16 20  1  0  0  0
 19 21  1  0  0  0
 11 14  1  0  0  0
 11 15  1  0  0  0
M  END
> <minimizedAffinity>
0.11897

> <CNNscore>
0.3174667060

> <CNNaffinity>
6.8118181229

> <CNN_VS>
2.1625254154

> <CNNaffinity_variance>
0.5076210499

$$$$
[H]c1nc(N([H])[H])nc([H])c1-c1c([H])nc(N([H])C(=O)N([H])C([H])([H])C([H])([H])[H])c([H])c1-c1nc(C(F)(F)F)c([H])s1


 32 34  0  0  0  0  0  0  0  0999 V2000
   12.4036   20.7646    0.8727 C   0  0  0  0  0  0  0  0  0  0  0  0
   13.1915   21.8503    1.1449 C   0  0  0  0  0  0  0  0  0  0  0  0
   13.7406   22.6127    0.1303 C   0  0  0  0  0  0  0  0  0  0  0  0
   13.4937   22.2906   -1.1541 C   0  0  0  0  0  0  0  0  0  0  0  0
   12.6799   21.1732   -1.4694 C   0  0  0  0  0  0  0  0  0  0  0  0
   12.1919   20.4875   -0.4655 N   0  0  0  0  0  0  0  0  0  0  0  0
   13.9475   23.0517   -2.3054 C   0  0  0  0  0  0  0  0  0  0  0  0
   14.8436   22.4151   -3.1766 C   0  0  0  0  0  0  0  0  0  0  0  0
   15.3107   23.1028   -4.2273 N   0  0  0  0  0  0  0  0  0  0  0  0
   14.9805   24.3804   -4.5165 C   0  0  0  0  0  0  0  0  0  0  0  0
   15.5371   25.0261   -5.6481 N   0  0  0  0  0  0  0  0  0  0  0  0
   14.1146   24.9894   -3.6740 N   0  0  0  0  0  0  0  0  0  0  0  0
   13.6062   24.3501   -2.5940 C   0  0  0  0  0  0  0  0  0  0  0  0
   16.3785   24.6314   -6.1040 H   0  0  0  0  0  0  0  0  0  0  0  0
   15.1143   25.8850   -6.0250 H   0  0  0  0  0  0  0  0  0  0  0  0
   10.8393   19.1439    3.9206 N   0  0  0  0  0  0  0  0  0  0  0  0
   11.4586   20.1835    3.1265 C   0  0  0  0  0  0  0  0  0  0  0  0
   11.6794   21.2378    3.7427 O   0  0  0  0  0  0  0  0  0  0  0  0
   11.7546   19.9228    1.7716 N   0  0  0  0  0  0  0  0  0  0  0  0
   10.6679   18.2361    3.4593 H   0  0  0  0  0  0  0  0  0  0  0  0
   11.4267   18.9548    1.4237 H   0  0  0  0  0  0  0  0  0  0  0  0
    8.9986   19.7415    5.4139 C   0  0  0  0  0  0  0  0  0  0  0  0
   10.4587   19.3149    5.2962 C   0  0  0  0  0  0  0  0  0  0  0  0
   14.6379   23.7029    0.4942 C   0  0  0  0  0  0  0  0  0  0  0  0
   14.3629   24.8643    1.0587 N   0  0  0  0  0  0  0  0  0  0  0  0
   15.2997   25.7021    1.3543 C   0  0  0  0  0  0  0  0  0  0  0  0
   16.5915   25.3385    1.0585 C   0  0  0  0  0  0  0  0  0  0  0  0
   16.3407   23.8061    0.3728 S   0  0  0  0  0  0  0  0  0  0  0  0
   15.0282   27.0479    2.0110 C   0  0  0  0  0  0  0  0  0  0  0  0
   16.0527   27.8682    1.5909 F   0  0  0  0  0  0  0  0  0  0  0  0
   14.9773   26.9515    3.3736 F   0  0  0  0  0  0  0  0  0  0  0  0
   13.7929   27.4995    1.5893 F   0  0  0  0  0  0  0  0  0  0  0  0
 22 23  1  0  0  0
 23 16  1  0  0  0
 16 17  1  0  0  0
 17 18  2  0  0  0
 17 19  1  0  0  0
 19  1  1  0  0  0
  1  2  2  0  0  0
  2  3  1  0  0  0
  3 24  1  0  0  0
 24 25  2  0  0  0
 25 26  1  0  0  0
 26 27  2  0  0  0
 27 28  1  0  0  0
 26 29  1  0  0  0
 29 30  1  0  0  0
 29 31  1  0  0  0
 29 32  1  0  0  0
  3  4  2  0  0  0
  4  5  1  0  0  0
  5  6  2  0  0  0
  4  7  1  0  0  0
  7  8  2  0  0  0
  8  9  1  0  0  0
  9 10  2  0  0  0
 10 11  1  0  0  0
 10 12  1  0  0  0
 12 13  2  0  0  0
  6  1  1  0  0  0
 13  7  1  0  0  0
 28 24  1  0  0  0
 16 20  1  0  0  0
 19 21  1  0  0  0
 11 14  1  0  0  0
 11 15  1  0  0  0
M  END
> <minimizedAffinity>
2.91918

> <CNNscore>
0.2349563241

> <CNNaffinity>
6.7767081261

> <CNN_VS>
1.5922304392

> <CNNaffinity_variance>
0.1483413279

$$$$
[H]c1nc(N([H])[H])nc([H])c1-c1c([H])nc(N([H])C(=O)N([H])C([H])([H])C([H])([H])[H])c([H])c1-c1nc(C(F)(F)F)c([H])s1


 32 34  0  0  0  0  0  0  0  0999 V2000
   13.3809   26.7274   -3.0206 C   0  0  0  0  0  0  0  0  0  0  0  0
   14.1485   25.9225   -2.2225 C   0  0  0  0  0  0  0  0  0  0  0  0
   13.6205   24.7978   -1.6158 C   0  0  0  0  0  0  0  0  0  0  0  0
   12.3274   24.4776   -1.8150 C   0  0  0  0  0  0  0  0  0  0  0  0
   11.5062   25.2896   -2.6377 C   0  0  0  0  0  0  0  0  0  0  0  0
   12.0621   26.3437   -3.1815 N   0  0  0  0  0  0  0  0  0  0  0  0
   11.6752   23.2870   -1.2977 C   0  0  0  0  0  0  0  0  0  0  0  0
   10.6111   23.4808   -0.4045 C   0  0  0  0  0  0  0  0  0  0  0  0
   10.0129   22.4030    0.1202 N   0  0  0  0  0  0  0  0  0  0  0  0
   10.3606   21.1255   -0.1483 C   0  0  0  0  0  0  0  0  0  0  0  0
    9.6717   20.0507    0.4664 N   0  0  0  0  0  0  0  0  0  0  0  0
   11.3863   20.9438   -1.0115 N   0  0  0  0  0  0  0  0  0  0  0  0
   12.0330   21.9908   -1.5764 C   0  0  0  0  0  0  0  0  0  0  0  0
    9.0877   20.2250    1.3032 H   0  0  0  0  0  0  0  0  0  0  0  0
    9.7435   19.0958    0.0905 H   0  0  0  0  0  0  0  0  0  0  0  0
   13.6598   30.1748   -4.5702 N   0  0  0  0  0  0  0  0  0  0  0  0
   13.1477   29.1329   -3.7059 C   0  0  0  0  0  0  0  0  0  0  0  0
   12.1755   29.4719   -3.0132 O   0  0  0  0  0  0  0  0  0  0  0  0
   13.7669   27.8650   -3.7240 N   0  0  0  0  0  0  0  0  0  0  0  0
   14.4473   29.9287   -5.1911 H   0  0  0  0  0  0  0  0  0  0  0  0
   14.6349   27.8037   -4.3631 H   0  0  0  0  0  0  0  0  0  0  0  0
   11.7593   31.5769   -3.9402 C   0  0  0  0  0  0  0  0  0  0  0  0
   13.1320   31.5115   -4.6025 C   0  0  0  0  0  0  0  0  0  0  0  0
   14.4743   24.0356   -0.7123 C   0  0  0  0  0  0  0  0  0  0  0  0
   14.4243   22.7568   -0.3882 N   0  0  0  0  0  0  0  0  0  0  0  0
   15.2996   22.2332    0.4033 C   0  0  0  0  0  0  0  0  0  0  0  0
   16.2830   23.0578    0.8947 C   0  0  0  0  0  0  0  0  0  0  0  0
   15.8558   24.5302    0.1663 S   0  0  0  0  0  0  0  0  0  0  0  0
   15.2832   20.7635    0.7978 C   0  0  0  0  0  0  0  0  0  0  0  0
   16.4239   20.5779    1.5484 F   0  0  0  0  0  0  0  0  0  0  0  0
   15.2507   19.9410   -0.2936 F   0  0  0  0  0  0  0  0  0  0  0  0
   14.1351   20.5183    1.5255 F   0  0  0  0  0  0  0  0  0  0  0  0
 22 23  1  0  0  0
 23 16  1  0  0  0
 16 17  1  0  0  0
 17 18  2  0  0  0
 17 19  1  0  0  0
 19  1  1  0  0  0
  1  2  2  0  0  0
  2  3  1  0  0  0
  3 24  1  0  0  0
 24 25  2  0  0  0
 25 26  1  0  0  0
 26 27  2  0  0  0
 27 28  1  0  0  0
 26 29  1  0  0  0
 29 30  1  0  0  0
 29 31  1  0  0  0
 29 32  1  0  0  0
  3  4  2  0  0  0
  4  5  1  0  0  0
  5  6  2  0  0  0
  4  7  1  0  0  0
  7  8  2  0  0  0
  8  9  1  0  0  0
  9 10  2  0  0  0
 10 11  1  0  0  0
 10 12  1  0  0  0
 12 13  2  0  0  0
  6  1  1  0  0  0
 13  7  1  0  0  0
 28 24  1  0  0  0
 16 20  1  0  0  0
 19 21  1  0  0  0
 11 14  1  0  0  0
 11 15  1  0  0  0
M  END
> <minimizedAffinity>
11.42157

> <CNNscore>
0.1989225000

> <CNNaffinity>
6.6650428772

> <CNN_VS>
1.3258270025

> <CNNaffinity_variance>
0.3696413040

$$$$
[H]c1nc(N([H])[H])nc([H])c1-c1c([H])nc(N([H])C(=O)N([H])C([H])([H])C([H])([H])[H])c([H])c1-c1nc(C(F)(F)F)c([H])s1


 32 34  0  0  0  0  0  0  0  0999 V2000
   10.0437   22.7551    0.0771 C   0  0  0  0  0  0  0  0  0  0  0  0
   11.3645   22.6576    0.4232 C   0  0  0  0  0  0  0  0  0  0  0  0
   12.3520   23.2643   -0.3310 C   0  0  0  0  0  0  0  0  0  0  0  0
   12.0144   23.9728   -1.4257 C   0  0  0  0  0  0  0  0  0  0  0  0
   10.6550   24.0945   -1.8099 C   0  0  0  0  0  0  0  0  0  0  0  0
    9.7658   23.4942   -1.0581 N   0  0  0  0  0  0  0  0  0  0  0  0
   12.9459   24.7166   -2.2561 C   0  0  0  0  0  0  0  0  0  0  0  0
   14.0710   24.0246   -2.7279 C   0  0  0  0  0  0  0  0  0  0  0  0
   14.9690   24.6920   -3.4649 N   0  0  0  0  0  0  0  0  0  0  0  0
   14.8731   25.9989   -3.7933 C   0  0  0  0  0  0  0  0  0  0  0  0
   15.8825   26.6187   -4.5707 N   0  0  0  0  0  0  0  0  0  0  0  0
   13.7853   26.6615   -3.3371 N   0  0  0  0  0  0  0  0  0  0  0  0
   12.8411   26.0452   -2.5873 C   0  0  0  0  0  0  0  0  0  0  0  0
   16.8068   26.1635   -4.6716 H   0  0  0  0  0  0  0  0  0  0  0  0
   15.7086   27.5181   -5.0388 H   0  0  0  0  0  0  0  0  0  0  0  0
    7.1097   20.6701    1.2639 N   0  0  0  0  0  0  0  0  0  0  0  0
    8.3006   20.9987    0.5097 C   0  0  0  0  0  0  0  0  0  0  0  0
    8.6521   20.1271   -0.3006 O   0  0  0  0  0  0  0  0  0  0  0  0
    8.9370   22.2363    0.7434 N   0  0  0  0  0  0  0  0  0  0  0  0
    6.7591   21.3806    1.9261 H   0  0  0  0  0  0  0  0  0  0  0  0
    8.4929   22.8217    1.5345 H   0  0  0  0  0  0  0  0  0  0  0  0
    6.0122   19.1608   -0.3148 C   0  0  0  0  0  0  0  0  0  0  0  0
    6.4065   19.4230    1.1354 C   0  0  0  0  0  0  0  0  0  0  0  0
   13.7428   23.0473    0.0497 C   0  0  0  0  0  0  0  0  0  0  0  0
   14.7437   23.9067    0.1000 N   0  0  0  0  0  0  0  0  0  0  0  0
   15.9142   23.5461    0.5086 C   0  0  0  0  0  0  0  0  0  0  0  0
   16.0770   22.2353    0.8877 C   0  0  0  0  0  0  0  0  0  0  0  0
   14.5138   21.6308    0.6190 S   0  0  0  0  0  0  0  0  0  0  0  0
   17.0934   24.5047    0.5887 C   0  0  0  0  0  0  0  0  0  0  0  0
   17.4281   24.7761   -0.7203 F   0  0  0  0  0  0  0  0  0  0  0  0
   18.1419   23.9694    1.2834 F   0  0  0  0  0  0  0  0  0  0  0  0
   16.6914   25.6375    1.2692 F   0  0  0  0  0  0  0  0  0  0  0  0
 22 23  1  0  0  0
 23 16  1  0  0  0
 16 17  1  0  0  0
 17 18  2  0  0  0
 17 19  1  0  0  0
 19  1  1  0  0  0
  1  2  2  0  0  0
  2  3  1  0  0  0
  3 24  1  0  0  0
 24 25  2  0  0  0
 25 26  1  0  0  0
 26 27  2  0  0  0
 27 28  1  0  0  0
 26 29  1  0  0  0
 29 30  1  0  0  0
 29 31  1  0  0  0
 29 32  1  0  0  0
  3  4  2  0  0  0
  4  5  1  0  0  0
  5  6  2  0  0  0
  4  7  1  0  0  0
  7  8  2  0  0  0
  8  9  1  0  0  0
  9 10  2  0  0  0
 10 11  1  0  0  0
 10 12  1  0  0  0
 12 13  2  0  0  0
  6  1  1  0  0  0
 13  7  1  0  0  0
 28 24  1  0  0  0
 16 20  1  0  0  0
 19 21  1  0  0  0
 11 14  1  0  0  0
 11 15  1  0  0  0
M  END
> <minimizedAffinity>
-4.14170

> <CNNscore>
0.1788657904

> <CNNaffinity>
7.1218657494

> <CNN_VS>
1.2738581896

> <CNNaffinity_variance>
0.3142150044

$$$$
[H]c1nc(N2C([H])([H])[C@@]3([H])N(C([H])([H])[H])C([H])([H])[C@]2([H])C3([H])[H])c([H])nc1-c1c([H])c([H])c([H])c([H])c1[H]


 20 23  0  0  0  0  0  0  0  0999 V2000
   13.7017   23.1829   -1.4979 C   0  0  0  0  0  0  0  0  0  0  0  0
   13.2794   24.4891   -1.6338 C   0  0  0  0  0  0  0  0  0  0  0  0
   13.7636   25.2516   -2.6293 N   0  0  0  0  0  0  0  0  0  0  0  0
   14.6619   24.8133   -3.5324 C   0  0  0  0  0  0  0  0  0  0  0  0
   15.0825   23.5111   -3.3963 C   0  0  0  0  0  0  0  0  0  0  0  0
   14.5970   22.7340   -2.3918 N   0  0  0  0  0  0  0  0  0  0  0  0
   11.1940   21.0125    2.8721 C   0  0  0  0  0  0  0  0  0  0  0  0
   12.3154   21.6407    2.1792 N   0  0  0  0  0  0  0  0  0  0  0  0
   11.7491   22.7346    1.3786 C   0  0  0  0  0  0  0  0  0  0  0  0
   11.8296   22.2760   -0.0625 C   0  0  0  0  0  0  0  0  0  0  0  0
   11.7192   20.7547    0.1643 C   0  0  0  0  0  0  0  0  0  0  0  0
   12.8576   20.7319    1.2023 C   0  0  0  0  0  0  0  0  0  0  0  0
   13.9276   21.4597    0.4230 C   0  0  0  0  0  0  0  0  0  0  0  0
   13.2023   22.3621   -0.4533 N   0  0  0  0  0  0  0  0  0  0  0  0
   15.1221   25.7257   -4.5741 C   0  0  0  0  0  0  0  0  0  0  0  0
   15.1810   25.3726   -5.9023 C   0  0  0  0  0  0  0  0  0  0  0  0
   15.6282   26.2748   -6.8756 C   0  0  0  0  0  0  0  0  0  0  0  0
   16.0242   27.5481   -6.5313 C   0  0  0  0  0  0  0  0  0  0  0  0
   15.9673   27.9057   -5.2062 C   0  0  0  0  0  0  0  0  0  0  0  0
   15.5257   27.0102   -4.2571 C   0  0  0  0  0  0  0  0  0  0  0  0
  7  8  1  0  0  0
  8  9  1  0  0  0
  9 10  1  0  0  0
 10 11  1  0  0  0
 11 12  1  0  0  0
 12 13  1  0  0  0
 13 14  1  0  0  0
 14  1  1  0  0  0
  1  2  2  0  0  0
  2  3  1  0  0  0
  3  4  2  0  0  0
  4  5  1  0  0  0
  5  6  2  0  0  0
  4 15  1  0  0  0
 15 16  2  0  0  0
 16 17  1  0  0  0
 17 18  2  0  0  0
 18 19  1  0  0  0
 19 20  2  0  0  0
 12  8  1  0  0  0
  6  1  1  0  0  0
 20 15  1  0  0  0
 14 10  1  0  0  0
M  END
> <minimizedAffinity>
-8.63311

> <CNNscore>
0.4073077440

> <CNNaffinity>
6.4778289795

> <CNN_VS>
2.6384699345

> <CNNaffinity_variance>
0.0638695806

$$$$
[H]c1nc(N2C([H])([H])[C@@]3([H])N(C([H])([H])[H])C([H])([H])[C@]2([H])C3([H])[H])c([H])nc1-c1c([H])c([H])c([H])c([H])c1[H]


 20 23  0  0  0  0  0  0  0  0999 V2000
   13.6287   23.2071   -1.4056 C   0  0  0  0  0  0  0  0  0  0  0  0
   13.2221   24.5172   -1.5516 C   0  0  0  0  0  0  0  0  0  0  0  0
   13.7186   25.2675   -2.5502 N   0  0  0  0  0  0  0  0  0  0  0  0
   14.6150   24.8130   -3.4471 C   0  0  0  0  0  0  0  0  0  0  0  0
   15.0199   23.5069   -3.3011 C   0  0  0  0  0  0  0  0  0  0  0  0
   14.5219   22.7421   -2.2933 N   0  0  0  0  0  0  0  0  0  0  0  0
   11.0604   21.0877    2.9543 C   0  0  0  0  0  0  0  0  0  0  0  0
   12.1900   21.7111    2.2704 N   0  0  0  0  0  0  0  0  0  0  0  0
   11.6320   22.7909    1.4454 C   0  0  0  0  0  0  0  0  0  0  0  0
   11.7377   22.3122    0.0124 C   0  0  0  0  0  0  0  0  0  0  0  0
   11.6302   20.7938    0.2592 C   0  0  0  0  0  0  0  0  0  0  0  0
   12.7518   20.7910    1.3155 C   0  0  0  0  0  0  0  0  0  0  0  0
   13.8311   21.5125    0.5431 C   0  0  0  0  0  0  0  0  0  0  0  0
   13.1161   22.3990   -0.3575 N   0  0  0  0  0  0  0  0  0  0  0  0
   15.0894   25.7132   -4.4931 C   0  0  0  0  0  0  0  0  0  0  0  0
   15.5063   26.9990   -4.2381 C   0  0  0  0  0  0  0  0  0  0  0  0
   15.9557   27.8356   -5.2673 C   0  0  0  0  0  0  0  0  0  0  0  0
   15.9942   27.3946   -6.5714 C   0  0  0  0  0  0  0  0  0  0  0  0
   15.5790   26.1113   -6.8314 C   0  0  0  0  0  0  0  0  0  0  0  0
   15.1388   25.2969   -5.8112 C   0  0  0  0  0  0  0  0  0  0  0  0
  7  8  1  0  0  0
  8  9  1  0  0  0
  9 10  1  0  0  0
 10 11  1  0  0  0
 11 12  1  0  0  0
 12 13  1  0  0  0
 13 14  1  0  0  0
 14  1  1  0  0  0
  1  2  2  0  0  0
  2  3  1  0  0  0
  3  4  2  0  0  0
  4  5  1  0  0  0
  5  6  2  0  0  0
  4 15  1  0  0  0
 15 16  2  0  0  0
 16 17  1  0  0  0
 17 18  2  0  0  0
 18 19  1  0  0  0
 19 20  2  0  0  0
 12  8  1  0  0  0
  6  1  1  0  0  0
 20 15  1  0  0  0
 14 10  1  0  0  0
M  END
> <minimizedAffinity>
-8.59744

> <CNNscore>
0.3570176959

> <CNNaffinity>
6.4252328873

> <CNN_VS>
2.2939219475

> <CNNaffinity_variance>
0.0503570624

$$$$
[H]c1nc(N2C([H])([H])[C@@]3([H])N(C([H])([H])[H])C([H])([H])[C@]2([H])C3([H])[H])c([H])nc1-c1c([H])c([H])c([H])c([H])c1[H]


 20 23  0  0  0  0  0  0  0  0999 V2000
   13.5056   23.2392   -1.3387 C   0  0  0  0  0  0  0  0  0  0  0  0
   14.4703   22.8067   -2.2249 C   0  0  0  0  0  0  0  0  0  0  0  0
   14.8913   23.6197   -3.2091 N   0  0  0  0  0  0  0  0  0  0  0  0
   14.4206   24.8680   -3.3951 C   0  0  0  0  0  0  0  0  0  0  0  0
   13.4590   25.2985   -2.5113 C   0  0  0  0  0  0  0  0  0  0  0  0
   13.0283   24.4817   -1.5133 N   0  0  0  0  0  0  0  0  0  0  0  0
   11.1236   20.9558    3.0441 C   0  0  0  0  0  0  0  0  0  0  0  0
   12.2132   21.6302    2.3440 N   0  0  0  0  0  0  0  0  0  0  0  0
   11.5973   22.7039    1.5527 C   0  0  0  0  0  0  0  0  0  0  0  0
   11.6833   22.2540    0.1091 C   0  0  0  0  0  0  0  0  0  0  0  0
   11.6349   20.7287    0.3309 C   0  0  0  0  0  0  0  0  0  0  0  0
   12.7823   20.7471    1.3589 C   0  0  0  0  0  0  0  0  0  0  0  0
   13.8160   21.5193    0.5734 C   0  0  0  0  0  0  0  0  0  0  0  0
   13.0480   22.3955   -0.2931 N   0  0  0  0  0  0  0  0  0  0  0  0
   14.9476   25.6670   -4.4966 C   0  0  0  0  0  0  0  0  0  0  0  0
   15.0928   25.1744   -5.7727 C   0  0  0  0  0  0  0  0  0  0  0  0
   15.6024   25.9704   -6.8061 C   0  0  0  0  0  0  0  0  0  0  0  0
   15.9752   27.2759   -6.5753 C   0  0  0  0  0  0  0  0  0  0  0  0
   15.8321   27.7728   -5.3027 C   0  0  0  0  0  0  0  0  0  0  0  0
   15.3297   26.9808   -4.2936 C   0  0  0  0  0  0  0  0  0  0  0  0
  7  8  1  0  0  0
  8  9  1  0  0  0
  9 10  1  0  0  0
 10 11  1  0  0  0
 11 12  1  0  0  0
 12 13  1  0  0  0
 13 14  1  0  0  0
 14  1  1  0  0  0
  1  2  2  0  0  0
  2  3  1  0  0  0
  3  4  2  0  0  0
  4  5  1  0  0  0
  5  6  2  0  0  0
  4 15  1  0  0  0
 15 16  2  0  0  0
 16 17  1  0  0  0
 17 18  2  0  0  0
 18 19  1  0  0  0
 19 20  2  0  0  0
 12  8  1  0  0  0
  6  1  1  0  0  0
 20 15  1  0  0  0
 14 10  1  0  0  0
M  END
> <minimizedAffinity>
-8.35757

> <CNNscore>
0.2717931867

> <CNNaffinity>
6.3215188980

> <CNN_VS>
1.7181457281

> <CNNaffinity_variance>
0.0407334976

$$$$
[H]c1nc(N2C([H])([H])[C@@]3([H])N(C([H])([H])[H])C([H])([H])[C@]2([H])C3([H])[H])c([H])nc1-c1c([H])c([H])c([H])c([H])c1[H]


 20 23  0  0  0  0  0  0  0  0999 V2000
   11.3858   23.5836    0.8035 C   0  0  0  0  0  0  0  0  0  0  0  0
   10.7547   24.1009   -0.3087 C   0  0  0  0  0  0  0  0  0  0  0  0
   11.4816   24.5343   -1.3530 N   0  0  0  0  0  0  0  0  0  0  0  0
   12.8276   24.4967   -1.3889 C   0  0  0  0  0  0  0  0  0  0  0  0
   13.4562   23.9809   -0.2799 C   0  0  0  0  0  0  0  0  0  0  0  0
   12.7274   23.5406    0.7801 N   0  0  0  0  0  0  0  0  0  0  0  0
    7.9719   21.0753    4.2891 C   0  0  0  0  0  0  0  0  0  0  0  0
    8.3702   22.1533    3.3884 N   0  0  0  0  0  0  0  0  0  0  0  0
    8.9222   21.5099    2.1886 C   0  0  0  0  0  0  0  0  0  0  0  0
   10.4170   21.7467    2.2439 C   0  0  0  0  0  0  0  0  0  0  0  0
   10.5918   21.8139    3.7746 C   0  0  0  0  0  0  0  0  0  0  0  0
    9.4855   22.8719    3.9488 C   0  0  0  0  0  0  0  0  0  0  0  0
    9.9470   23.8925    2.9353 C   0  0  0  0  0  0  0  0  0  0  0  0
   10.6358   23.1211    1.9161 N   0  0  0  0  0  0  0  0  0  0  0  0
   13.5188   24.9938   -2.5741 C   0  0  0  0  0  0  0  0  0  0  0  0
   13.1601   26.1577   -3.2135 C   0  0  0  0  0  0  0  0  0  0  0  0
   13.8465   26.6049   -4.3494 C   0  0  0  0  0  0  0  0  0  0  0  0
   14.9057   25.8901   -4.8628 C   0  0  0  0  0  0  0  0  0  0  0  0
   15.2680   24.7271   -4.2280 C   0  0  0  0  0  0  0  0  0  0  0  0
   14.5858   24.2965   -3.1113 C   0  0  0  0  0  0  0  0  0  0  0  0
  7  8  1  0  0  0
  8  9  1  0  0  0
  9 10  1  0  0  0
 10 11  1  0  0  0
 11 12  1  0  0  0
 12 13  1  0  0  0
 13 14  1  0  0  0
 14  1  1  0  0  0
  1  2  2  0  0  0
  2  3  1  0  0  0
  3  4  2  0  0  0
  4  5  1  0  0  0
  5  6  2  0  0  0
  4 15  1  0  0  0
 15 16  2  0  0  0
 16 17  1  0  0  0
 17 18  2  0  0  0
 18 19  1  0  0  0
 19 20  2  0  0  0
 12  8  1  0  0  0
  6  1  1  0  0  0
 20 15  1  0  0  0
 14 10  1  0  0  0
M  END
> <minimizedAffinity>
-8.06049

> <CNNscore>
0.2445704788

> <CNNaffinity>
5.7164983749

> <CNN_VS>
1.3980867863

> <CNNaffinity_variance>
0.1285394728

$$$$
[H]c1nc(N2C([H])([H])[C@@]3([H])N(C([H])([H])[H])C([H])([H])[C@]2([H])C3([H])[H])c([H])nc1-c1c([H])c([H])c([H])c([H])c1[H]


 20 23  0  0  0  0  0  0  0  0999 V2000
   12.2712   23.5113   -1.4294 C   0  0  0  0  0  0  0  0  0  0  0  0
   13.5620   23.1373   -1.7403 C   0  0  0  0  0  0  0  0  0  0  0  0
   14.3915   24.0139   -2.3322 N   0  0  0  0  0  0  0  0  0  0  0  0
   14.0369   25.2733   -2.6528 C   0  0  0  0  0  0  0  0  0  0  0  0
   12.7500   25.6455   -2.3427 C   0  0  0  0  0  0  0  0  0  0  0  0
   11.9055   24.7641   -1.7439 N   0  0  0  0  0  0  0  0  0  0  0  0
    8.4308   19.8132   -0.1363 C   0  0  0  0  0  0  0  0  0  0  0  0
    8.9418   21.1702   -0.3088 N   0  0  0  0  0  0  0  0  0  0  0  0
    9.6529   21.1863   -1.5942 C   0  0  0  0  0  0  0  0  0  0  0  0
   11.1257   21.2656   -1.2503 C   0  0  0  0  0  0  0  0  0  0  0  0
   11.0929   20.5395    0.1098 C   0  0  0  0  0  0  0  0  0  0  0  0
    9.9684   21.4337    0.6663 C   0  0  0  0  0  0  0  0  0  0  0  0
   10.5575   22.7941    0.3759 C   0  0  0  0  0  0  0  0  0  0  0  0
   11.3804   22.6000   -0.8045 N   0  0  0  0  0  0  0  0  0  0  0  0
   15.0171   26.1436   -3.2941 C   0  0  0  0  0  0  0  0  0  0  0  0
   14.8062   26.7272   -4.5218 C   0  0  0  0  0  0  0  0  0  0  0  0
   15.7698   27.5576   -5.1076 C   0  0  0  0  0  0  0  0  0  0  0  0
   16.9626   27.8163   -4.4698 C   0  0  0  0  0  0  0  0  0  0  0  0
   17.1782   27.2361   -3.2435 C   0  0  0  0  0  0  0  0  0  0  0  0
   16.2233   26.4208   -2.6765 C   0  0  0  0  0  0  0  0  0  0  0  0
  7  8  1  0  0  0
  8  9  1  0  0  0
  9 10  1  0  0  0
 10 11  1  0  0  0
 11 12  1  0  0  0
 12 13  1  0  0  0
 13 14  1  0  0  0
 14  1  1  0  0  0
  1  2  2  0  0  0
  2  3  1  0  0  0
  3  4  2  0  0  0
  4  5  1  0  0  0
  5  6  2  0  0  0
  4 15  1  0  0  0
 15 16  2  0  0  0
 16 17  1  0  0  0
 17 18  2  0  0  0
 18 19  1  0  0  0
 19 20  2  0  0  0
 12  8  1  0  0  0
  6  1  1  0  0  0
 20 15  1  0  0  0
 14 10  1  0  0  0
M  END
> <minimizedAffinity>
-6.99437

> <CNNscore>
0.1730594188

> <CNNaffinity>
5.8135046959

> <CNN_VS>
1.0060817003

> <CNNaffinity_variance>
0.3725268245

$$$$
[H]c1nc(N2C([H])([H])[C@@]3([H])N(C([H])([H])[H])C([H])([H])[C@]2([H])C3([H])[H])c([H])nc1-c1c([H])c([H])c([H])c([H])c1[H]


 20 23  0  0  0  0  0  0  0  0999 V2000
   11.4895   23.4904    0.5062 C   0  0  0  0  0  0  0  0  0  0  0  0
   11.8538   22.7202   -0.5787 C   0  0  0  0  0  0  0  0  0  0  0  0
   12.5180   23.2777   -1.6058 N   0  0  0  0  0  0  0  0  0  0  0  0
   12.8633   24.5790   -1.6494 C   0  0  0  0  0  0  0  0  0  0  0  0
   12.4999   25.3463   -0.5677 C   0  0  0  0  0  0  0  0  0  0  0  0
   11.8280   24.7891    0.4748 N   0  0  0  0  0  0  0  0  0  0  0  0
    8.5518   22.4342    5.0174 C   0  0  0  0  0  0  0  0  0  0  0  0
    9.7935   22.6440    4.2783 N   0  0  0  0  0  0  0  0  0  0  0  0
    9.5756   23.8195    3.4245 C   0  0  0  0  0  0  0  0  0  0  0  0
    9.4685   23.2884    2.0103 C   0  0  0  0  0  0  0  0  0  0  0  0
    8.8944   21.8917    2.3224 C   0  0  0  0  0  0  0  0  0  0  0  0
    9.9970   21.5641    3.3474 C   0  0  0  0  0  0  0  0  0  0  0  0
   11.2188   21.8802    2.5172 C   0  0  0  0  0  0  0  0  0  0  0  0
   10.7878   22.9202    1.6002 N   0  0  0  0  0  0  0  0  0  0  0  0
   13.5844   25.0817   -2.8143 C   0  0  0  0  0  0  0  0  0  0  0  0
   13.2478   26.2535   -3.4514 C   0  0  0  0  0  0  0  0  0  0  0  0
   13.9626   26.7059   -4.5675 C   0  0  0  0  0  0  0  0  0  0  0  0
   15.0286   25.9885   -5.0631 C   0  0  0  0  0  0  0  0  0  0  0  0
   15.3689   24.8177   -4.4304 C   0  0  0  0  0  0  0  0  0  0  0  0
   14.6588   24.3821   -3.3333 C   0  0  0  0  0  0  0  0  0  0  0  0
  7  8  1  0  0  0
  8  9  1  0  0  0
  9 10  1  0  0  0
 10 11  1  0  0  0
 11 12  1  0  0  0
 12 13  1  0  0  0
 13 14  1  0  0  0
 14  1  1  0  0  0
  1  2  2  0  0  0
  2  3  1  0  0  0
  3  4  2  0  0  0
  4  5  1  0  0  0
  5  6  2  0  0  0
  4 15  1  0  0  0
 15 16  2  0  0  0
 16 17  1  0  0  0
 17 18  2  0  0  0
 18 19  1  0  0  0
 19 20  2  0  0  0
 12  8  1  0  0  0
  6  1  1  0  0  0
 20 15  1  0  0  0
 14 10  1  0  0  0
M  END
> <minimizedAffinity>
-8.30791

> <CNNscore>
0.1481983811

> <CNNaffinity>
5.4676537514

> <CNN_VS>
0.8102974296

> <CNNaffinity_variance>
0.1446824074

$$$$
[H]c1nc(N2C([H])([H])[C@@]3([H])N(C([H])([H])[H])C([H])([H])[C@]2([H])C3([H])[H])c([H])nc1-c1c([H])c([H])c([H])c([H])c1[H]


 20 23  0  0  0  0  0  0  0  0999 V2000
   11.6049   23.4195    0.4199 C   0  0  0  0  0  0  0  0  0  0  0  0
   12.1319   22.6273   -0.5790 C   0  0  0  0  0  0  0  0  0  0  0  0
   12.7837   23.1914   -1.6103 N   0  0  0  0  0  0  0  0  0  0  0  0
   12.9633   24.5202   -1.7393 C   0  0  0  0  0  0  0  0  0  0  0  0
   12.4377   25.3093   -0.7433 C   0  0  0  0  0  0  0  0  0  0  0  0
   11.7772   24.7456    0.3030 N   0  0  0  0  0  0  0  0  0  0  0  0
    8.6319   22.3304    4.9001 C   0  0  0  0  0  0  0  0  0  0  0  0
    9.8757   22.5911    4.1809 N   0  0  0  0  0  0  0  0  0  0  0  0
    9.6081   23.7242    3.2849 C   0  0  0  0  0  0  0  0  0  0  0  0
    9.5653   23.1437    1.8868 C   0  0  0  0  0  0  0  0  0  0  0  0
    9.0680   21.7254    2.2320 C   0  0  0  0  0  0  0  0  0  0  0  0
   10.1642   21.4967    3.2902 C   0  0  0  0  0  0  0  0  0  0  0  0
   11.3839   21.8595    2.4761 C   0  0  0  0  0  0  0  0  0  0  0  0
   10.9132   22.8426    1.5168 N   0  0  0  0  0  0  0  0  0  0  0  0
   13.6872   25.0278   -2.9003 C   0  0  0  0  0  0  0  0  0  0  0  0
   14.7667   24.3760   -3.4498 C   0  0  0  0  0  0  0  0  0  0  0  0
   15.4378   24.8927   -4.5651 C   0  0  0  0  0  0  0  0  0  0  0  0
   15.0359   26.0739   -5.1479 C   0  0  0  0  0  0  0  0  0  0  0  0
   13.9583   26.7288   -4.6030 C   0  0  0  0  0  0  0  0  0  0  0  0
   13.3055   26.2114   -3.5058 C   0  0  0  0  0  0  0  0  0  0  0  0
  7  8  1  0  0  0
  8  9  1  0  0  0
  9 10  1  0  0  0
 10 11  1  0  0  0
 11 12  1  0  0  0
 12 13  1  0  0  0
 13 14  1  0  0  0
 14  1  1  0  0  0
  1  2  2  0  0  0
  2  3  1  0  0  0
  3  4  2  0  0  0
  4  5  1  0  0  0
  5  6  2  0  0  0
  4 15  1  0  0  0
 15 16  2  0  0  0
 16 17  1  0  0  0
 17 18  2  0  0  0
 18 19  1  0  0  0
 19 20  2  0  0  0
 12  8  1  0  0  0
  6  1  1  0  0  0
 20 15  1  0  0  0
 14 10  1  0  0  0
M  END
> <minimizedAffinity>
-8.33525

> <CNNscore>
0.1368968636

> <CNNaffinity>
5.5106835365

> <CNN_VS>
0.7543953061

> <CNNaffinity_variance>
0.1507504582

$$$$
[H]c1nc(N2C([H])([H])[C@@]3([H])N(C([H])([H])[H])C([H])([H])[C@]2([H])C3([H])[H])c([H])nc1-c1c([H])c([H])c([H])c([H])c1[H]


 20 23  0  0  0  0  0  0  0  0999 V2000
   13.5715   24.4041   -1.9796 C   0  0  0  0  0  0  0  0  0  0  0  0
   12.9454   24.9703   -0.8886 C   0  0  0  0  0  0  0  0  0  0  0  0
   12.5017   24.1894    0.1116 N   0  0  0  0  0  0  0  0  0  0  0  0
   12.6311   22.8487    0.1217 C   0  0  0  0  0  0  0  0  0  0  0  0
   13.2554   22.2848   -0.9661 C   0  0  0  0  0  0  0  0  0  0  0  0
   13.7067   23.0685   -1.9815 N   0  0  0  0  0  0  0  0  0  0  0  0
   16.3161   27.7564   -5.3449 C   0  0  0  0  0  0  0  0  0  0  0  0
   15.2949   27.4431   -4.3494 N   0  0  0  0  0  0  0  0  0  0  0  0
   15.9446   26.5965   -3.3397 C   0  0  0  0  0  0  0  0  0  0  0  0
   15.3857   25.2043   -3.5468 C   0  0  0  0  0  0  0  0  0  0  0  0
   15.0972   25.2852   -5.0595 C   0  0  0  0  0  0  0  0  0  0  0  0
   14.2899   26.5911   -4.9311 C   0  0  0  0  0  0  0  0  0  0  0  0
   13.3244   26.1879   -3.8416 C   0  0  0  0  0  0  0  0  0  0  0  0
   14.0467   25.2117   -3.0456 N   0  0  0  0  0  0  0  0  0  0  0  0
   12.1130   22.0956    1.2592 C   0  0  0  0  0  0  0  0  0  0  0  0
   12.6146   20.8707    1.6338 C   0  0  0  0  0  0  0  0  0  0  0  0
   12.0925   20.1758    2.7319 C   0  0  0  0  0  0  0  0  0  0  0  0
   11.0568   20.6997    3.4731 C   0  0  0  0  0  0  0  0  0  0  0  0
   10.5523   21.9227    3.1033 C   0  0  0  0  0  0  0  0  0  0  0  0
   11.0735   22.5976    2.0213 C   0  0  0  0  0  0  0  0  0  0  0  0
  7  8  1  0  0  0
  8  9  1  0  0  0
  9 10  1  0  0  0
 10 11  1  0  0  0
 11 12  1  0  0  0
 12 13  1  0  0  0
 13 14  1  0  0  0
 14  1  1  0  0  0
  1  2  2  0  0  0
  2  3  1  0  0  0
  3  4  2  0  0  0
  4  5  1  0  0  0
  5  6  2  0  0  0
  4 15  1  0  0  0
 15 16  2  0  0  0
 16 17  1  0  0  0
 17 18  2  0  0  0
 18 19  1  0  0  0
 19 20  2  0  0  0
 12  8  1  0  0  0
  6  1  1  0  0  0
 20 15  1  0  0  0
 14 10  1  0  0  0
M  END
> <minimizedAffinity>
-7.53454

> <CNNscore>
0.1148505434

> <CNNaffinity>
6.0161466599

> <CNN_VS>
0.6909577250

> <CNNaffinity_variance>
0.0459242240

$$$$
[H]c1nc(N2C([H])([H])[C@@]3([H])N(C([H])([H])[H])C([H])([H])[C@]2([H])C3([H])[H])c([H])nc1-c1c([H])c([H])c([H])c([H])c1[H]


 20 23  0  0  0  0  0  0  0  0999 V2000
   13.1054   22.9571    0.3091 C   0  0  0  0  0  0  0  0  0  0  0  0
   13.5343   21.7315    0.7748 C   0  0  0  0  0  0  0  0  0  0  0  0
   12.8498   21.1053    1.7475 N   0  0  0  0  0  0  0  0  0  0  0  0
   11.7378   21.6090    2.3170 C   0  0  0  0  0  0  0  0  0  0  0  0
   11.3108   22.8308    1.8524 C   0  0  0  0  0  0  0  0  0  0  0  0
   11.9981   23.4700    0.8687 N   0  0  0  0  0  0  0  0  0  0  0  0
   15.8028   24.5050   -4.2102 C   0  0  0  0  0  0  0  0  0  0  0  0
   15.7134   24.0285   -2.8328 N   0  0  0  0  0  0  0  0  0  0  0  0
   14.6827   22.9817   -2.8213 C   0  0  0  0  0  0  0  0  0  0  0  0
   13.4900   23.5844   -2.1087 C   0  0  0  0  0  0  0  0  0  0  0  0
   13.7128   25.0645   -2.4800 C   0  0  0  0  0  0  0  0  0  0  0  0
   15.1738   25.0649   -1.9908 C   0  0  0  0  0  0  0  0  0  0  0  0
   14.9789   24.4943   -0.6057 C   0  0  0  0  0  0  0  0  0  0  0  0
   13.8146   23.6339   -0.7171 N   0  0  0  0  0  0  0  0  0  0  0  0
   11.0713   20.8452    3.3666 C   0  0  0  0  0  0  0  0  0  0  0  0
    9.8714   21.2276    3.9202 C   0  0  0  0  0  0  0  0  0  0  0  0
    9.2601   20.4695    4.9265 C   0  0  0  0  0  0  0  0  0  0  0  0
    9.8439   19.3134    5.3946 C   0  0  0  0  0  0  0  0  0  0  0  0
   11.0421   18.9270    4.8451 C   0  0  0  0  0  0  0  0  0  0  0  0
   11.6346   19.6803    3.8556 C   0  0  0  0  0  0  0  0  0  0  0  0
  7  8  1  0  0  0
  8  9  1  0  0  0
  9 10  1  0  0  0
 10 11  1  0  0  0
 11 12  1  0  0  0
 12 13  1  0  0  0
 13 14  1  0  0  0
 14  1  1  0  0  0
  1  2  2  0  0  0
  2  3  1  0  0  0
  3  4  2  0  0  0
  4  5  1  0  0  0
  5  6  2  0  0  0
  4 15  1  0  0  0
 15 16  2  0  0  0
 16 17  1  0  0  0
 17 18  2  0  0  0
 18 19  1  0  0  0
 19 20  2  0  0  0
 12  8  1  0  0  0
  6  1  1  0  0  0
 20 15  1  0  0  0
 14 10  1  0  0  0
M  END
> <minimizedAffinity>
-6.25751

> <CNNscore>
0.0990485698

> <CNNaffinity>
5.8920125961

> <CNN_VS>
0.5835953951

> <CNNaffinity_variance>
0.4542027116

$$$$
[H]c1nc(OC([H])([H])c2c(-c3c([H])c([H])c([H])c([H])c3[H])noc2C([H])([H])[H])c([H])c([H])c1C(=O)N([H])C([H])([H])C1([H])C([H])([H])C1([H])[H]


 28 31  0  0  0  0  0  0  0  0999 V2000
   13.4142   24.4164    0.5646 O   0  0  0  0  0  0  0  0  0  0  0  0
   12.1785   23.8764    0.6349 C   0  0  0  0  0  0  0  0  0  0  0  0
   11.2239   24.3088   -0.3110 C   0  0  0  0  0  0  0  0  0  0  0  0
    9.9666   23.7998   -0.2996 C   0  0  0  0  0  0  0  0  0  0  0  0
    9.5748   22.8411    0.6389 C   0  0  0  0  0  0  0  0  0  0  0  0
   10.5026   22.4406    1.5390 C   0  0  0  0  0  0  0  0  0  0  0  0
   11.7600   22.9507    1.5249 N   0  0  0  0  0  0  0  0  0  0  0  0
    8.2248   22.3102    0.6080 C   0  0  0  0  0  0  0  0  0  0  0  0
    7.4144   22.7165    1.5028 O   0  0  0  0  0  0  0  0  0  0  0  0
    7.7670   21.3843   -0.3435 N   0  0  0  0  0  0  0  0  0  0  0  0
    8.4548   21.0521   -1.0725 H   0  0  0  0  0  0  0  0  0  0  0  0
    6.3988   20.9132   -0.3152 C   0  0  0  0  0  0  0  0  0  0  0  0
    6.2003   19.6530   -1.0946 C   0  0  0  0  0  0  0  0  0  0  0  0
    5.9982   19.8884   -2.6279 C   0  0  0  0  0  0  0  0  0  0  0  0
    7.2040   19.1987   -2.0847 C   0  0  0  0  0  0  0  0  0  0  0  0
   14.6213   23.9082    0.1679 C   0  0  0  0  0  0  0  0  0  0  0  0
   14.6740   20.9300    0.7861 C   0  0  0  0  0  0  0  0  0  0  0  0
   14.5573   21.4978   -0.5926 C   0  0  0  0  0  0  0  0  0  0  0  0
   14.4254   20.8871   -1.7443 O   0  0  0  0  0  0  0  0  0  0  0  0
   14.3590   21.7382   -2.7208 N   0  0  0  0  0  0  0  0  0  0  0  0
   14.4478   23.0127   -2.2315 C   0  0  0  0  0  0  0  0  0  0  0  0
   14.5748   22.8687   -0.8790 C   0  0  0  0  0  0  0  0  0  0  0  0
   14.3670   24.2477   -2.9885 C   0  0  0  0  0  0  0  0  0  0  0  0
   13.4679   25.2628   -2.7729 C   0  0  0  0  0  0  0  0  0  0  0  0
   13.4359   26.4165   -3.5575 C   0  0  0  0  0  0  0  0  0  0  0  0
   14.3138   26.5832   -4.5898 C   0  0  0  0  0  0  0  0  0  0  0  0
   15.2350   25.5832   -4.8397 C   0  0  0  0  0  0  0  0  0  0  0  0
   15.2487   24.4553   -4.0539 C   0  0  0  0  0  0  0  0  0  0  0  0
 17 18  1  0  0  0
 18 19  1  0  0  0
 19 20  1  0  0  0
 20 21  2  0  0  0
 21 22  1  0  0  0
 22 16  1  0  0  0
 16  1  1  0  0  0
  1  2  1  0  0  0
  2  3  2  0  0  0
  3  4  1  0  0  0
  4  5  2  0  0  0
  5  6  1  0  0  0
  6  7  2  0  0  0
  5  8  1  0  0  0
  8  9  2  0  0  0
  8 10  1  0  0  0
 10 12  1  0  0  0
 12 13  1  0  0  0
 13 14  1  0  0  0
 14 15  1  0  0  0
 21 23  1  0  0  0
 23 24  2  0  0  0
 24 25  1  0  0  0
 25 26  2  0  0  0
 26 27  1  0  0  0
 27 28  2  0  0  0
 22 18  2  0  0  0
  7  2  1  0  0  0
 15 13  1  0  0  0
 28 23  1  0  0  0
 10 11  1  0  0  0
M  END
> <minimizedAffinity>
-9.86804

> <CNNscore>
0.6555197835

> <CNNaffinity>
6.8327698708

> <CNN_VS>
4.4790158272

> <CNNaffinity_variance>
0.1315673888

$$$$
[H]c1nc(OC([H])([H])c2c(-c3c([H])c([H])c([H])c([H])c3[H])noc2C([H])([H])[H])c([H])c([H])c1C(=O)N([H])C([H])([H])C1([H])C([H])([H])C1([H])[H]


 28 31  0  0  0  0  0  0  0  0999 V2000
   14.0108   25.8558   -4.0827 O   0  0  0  0  0  0  0  0  0  0  0  0
   13.5487   25.1427   -3.0332 C   0  0  0  0  0  0  0  0  0  0  0  0
   12.5057   25.7094   -2.2691 C   0  0  0  0  0  0  0  0  0  0  0  0
   11.9916   25.0411   -1.2065 C   0  0  0  0  0  0  0  0  0  0  0  0
   12.4712   23.7826   -0.8332 C   0  0  0  0  0  0  0  0  0  0  0  0
   13.4726   23.2563   -1.5758 C   0  0  0  0  0  0  0  0  0  0  0  0
   13.9847   23.9266   -2.6389 N   0  0  0  0  0  0  0  0  0  0  0  0
   11.8839   23.0936    0.3007 C   0  0  0  0  0  0  0  0  0  0  0  0
   12.6434   22.8433    1.2922 O   0  0  0  0  0  0  0  0  0  0  0  0
   10.5396   22.6926    0.3653 N   0  0  0  0  0  0  0  0  0  0  0  0
    9.9268   22.9006   -0.4691 H   0  0  0  0  0  0  0  0  0  0  0  0
   10.0257   22.0216    1.5402 C   0  0  0  0  0  0  0  0  0  0  0  0
    9.0313   22.8453    2.2935 C   0  0  0  0  0  0  0  0  0  0  0  0
    9.6766   23.7795    3.3697 C   0  0  0  0  0  0  0  0  0  0  0  0
    8.9977   24.3198    2.1566 C   0  0  0  0  0  0  0  0  0  0  0  0
   13.8705   25.7020   -5.4353 C   0  0  0  0  0  0  0  0  0  0  0  0
   13.9946   25.2521   -8.4414 C   0  0  0  0  0  0  0  0  0  0  0  0
   15.0875   25.8891   -7.6435 C   0  0  0  0  0  0  0  0  0  0  0  0
   16.2334   26.3881   -8.0367 O   0  0  0  0  0  0  0  0  0  0  0  0
   16.9118   26.8512   -7.0328 N   0  0  0  0  0  0  0  0  0  0  0  0
   16.2071   26.6698   -5.8743 C   0  0  0  0  0  0  0  0  0  0  0  0
   15.0461   26.0580   -6.2537 C   0  0  0  0  0  0  0  0  0  0  0  0
   16.5933   27.0907   -4.5407 C   0  0  0  0  0  0  0  0  0  0  0  0
   16.6720   26.2799   -3.4354 C   0  0  0  0  0  0  0  0  0  0  0  0
   17.0318   26.7608   -2.1757 C   0  0  0  0  0  0  0  0  0  0  0  0
   17.3244   28.0814   -1.9901 C   0  0  0  0  0  0  0  0  0  0  0  0
   17.2563   28.9309   -3.0785 C   0  0  0  0  0  0  0  0  0  0  0  0
   16.9000   28.4355   -4.3103 C   0  0  0  0  0  0  0  0  0  0  0  0
 17 18  1  0  0  0
 18 19  1  0  0  0
 19 20  1  0  0  0
 20 21  2  0  0  0
 21 22  1  0  0  0
 22 16  1  0  0  0
 16  1  1  0  0  0
  1  2  1  0  0  0
  2  3  2  0  0  0
  3  4  1  0  0  0
  4  5  2  0  0  0
  5  6  1  0  0  0
  6  7  2  0  0  0
  5  8  1  0  0  0
  8  9  2  0  0  0
  8 10  1  0  0  0
 10 12  1  0  0  0
 12 13  1  0  0  0
 13 14  1  0  0  0
 14 15  1  0  0  0
 21 23  1  0  0  0
 23 24  2  0  0  0
 24 25  1  0  0  0
 25 26  2  0  0  0
 26 27  1  0  0  0
 27 28  2  0  0  0
 22 18  2  0  0  0
  7  2  1  0  0  0
 15 13  1  0  0  0
 28 23  1  0  0  0
 10 11  1  0  0  0
M  END
> <minimizedAffinity>
0.36176

> <CNNscore>
0.6420761347

> <CNNaffinity>
6.7739472389

> <CNN_VS>
4.3493900299

> <CNNaffinity_variance>
0.5743444562

$$$$
[H]c1nc(OC([H])([H])c2c(-c3c([H])c([H])c([H])c([H])c3[H])noc2C([H])([H])[H])c([H])c([H])c1C(=O)N([H])C([H])([H])C1([H])C([H])([H])C1([H])[H]


 28 31  0  0  0  0  0  0  0  0999 V2000
   14.5747   28.3621   -4.0827 O   0  0  0  0  0  0  0  0  0  0  0  0
   13.2752   28.7128   -4.1921 C   0  0  0  0  0  0  0  0  0  0  0  0
   12.9271   30.0376   -3.8503 C   0  0  0  0  0  0  0  0  0  0  0  0
   11.6402   30.4556   -3.9454 C   0  0  0  0  0  0  0  0  0  0  0  0
   10.6239   29.5997   -4.3788 C   0  0  0  0  0  0  0  0  0  0  0  0
   10.9761   28.3331   -4.6998 C   0  0  0  0  0  0  0  0  0  0  0  0
   12.2645   27.9175   -4.6045 N   0  0  0  0  0  0  0  0  0  0  0  0
    9.2621   30.0899   -4.4814 C   0  0  0  0  0  0  0  0  0  0  0  0
    9.0620   31.1177   -5.2068 O   0  0  0  0  0  0  0  0  0  0  0  0
    8.1646   29.5003   -3.8333 N   0  0  0  0  0  0  0  0  0  0  0  0
    8.3504   28.6544   -3.2293 H   0  0  0  0  0  0  0  0  0  0  0  0
    6.8326   30.0417   -3.9983 C   0  0  0  0  0  0  0  0  0  0  0  0
    6.1063   30.2076   -2.7022 C   0  0  0  0  0  0  0  0  0  0  0  0
    6.0024   28.8886   -1.8675 C   0  0  0  0  0  0  0  0  0  0  0  0
    6.8079   30.0561   -1.4064 C   0  0  0  0  0  0  0  0  0  0  0  0
   15.1988   27.3219   -3.4493 C   0  0  0  0  0  0  0  0  0  0  0  0
   15.8531   26.7840   -6.3711 C   0  0  0  0  0  0  0  0  0  0  0  0
   15.3855   25.7374   -5.4106 C   0  0  0  0  0  0  0  0  0  0  0  0
   15.2040   24.4524   -5.5911 O   0  0  0  0  0  0  0  0  0  0  0  0
   14.7845   23.8814   -4.5046 N   0  0  0  0  0  0  0  0  0  0  0  0
   14.6655   24.8117   -3.5086 C   0  0  0  0  0  0  0  0  0  0  0  0
   15.0452   25.9947   -4.0766 C   0  0  0  0  0  0  0  0  0  0  0  0
   14.2734   24.5739   -2.1322 C   0  0  0  0  0  0  0  0  0  0  0  0
   15.1283   24.4512   -1.0647 C   0  0  0  0  0  0  0  0  0  0  0  0
   14.6784   24.2011    0.2325 C   0  0  0  0  0  0  0  0  0  0  0  0
   13.3455   24.0656    0.4951 C   0  0  0  0  0  0  0  0  0  0  0  0
   12.4520   24.1819   -0.5533 C   0  0  0  0  0  0  0  0  0  0  0  0
   12.9173   24.4288   -1.8231 C   0  0  0  0  0  0  0  0  0  0  0  0
 17 18  1  0  0  0
 18 19  1  0  0  0
 19 20  1  0  0  0
 20 21  2  0  0  0
 21 22  1  0  0  0
 22 16  1  0  0  0
 16  1  1  0  0  0
  1  2  1  0  0  0
  2  3  2  0  0  0
  3  4  1  0  0  0
  4  5  2  0  0  0
  5  6  1  0  0  0
  6  7  2  0  0  0
  5  8  1  0  0  0
  8  9  2  0  0  0
  8 10  1  0  0  0
 10 12  1  0  0  0
 12 13  1  0  0  0
 13 14  1  0  0  0
 14 15  1  0  0  0
 21 23  1  0  0  0
 23 24  2  0  0  0
 24 25  1  0  0  0
 25 26  2  0  0  0
 26 27  1  0  0  0
 27 28  2  0  0  0
 22 18  2  0  0  0
  7  2  1  0  0  0
 15 13  1  0  0  0
 28 23  1  0  0  0
 10 11  1  0  0  0
M  END
> <minimizedAffinity>
10.53965

> <CNNscore>
0.6059327722

> <CNNaffinity>
6.0932774544

> <CNN_VS>
3.6921164989

> <CNNaffinity_variance>
0.2232067883

$$$$
[H]c1nc(OC([H])([H])c2c(-c3c([H])c([H])c([H])c([H])c3[H])noc2C([H])([H])[H])c([H])c([H])c1C(=O)N([H])C([H])([H])C1([H])C([H])([H])C1([H])[H]


 28 31  0  0  0  0  0  0  0  0999 V2000
   14.3793   22.8635   -2.7726 O   0  0  0  0  0  0  0  0  0  0  0  0
   13.7542   22.2558   -1.7414 C   0  0  0  0  0  0  0  0  0  0  0  0
   14.3269   22.3961   -0.4587 C   0  0  0  0  0  0  0  0  0  0  0  0
   13.7440   21.8168    0.6206 C   0  0  0  0  0  0  0  0  0  0  0  0
   12.5700   21.0678    0.5030 C   0  0  0  0  0  0  0  0  0  0  0  0
   12.0370   20.9423   -0.7346 C   0  0  0  0  0  0  0  0  0  0  0  0
   12.6216   21.5235   -1.8126 N   0  0  0  0  0  0  0  0  0  0  0  0
   11.9692   20.4770    1.6842 C   0  0  0  0  0  0  0  0  0  0  0  0
   11.1844   19.4888    1.5111 O   0  0  0  0  0  0  0  0  0  0  0  0
   12.2031   20.9287    2.9933 N   0  0  0  0  0  0  0  0  0  0  0  0
   12.8496   21.7542    3.1173 H   0  0  0  0  0  0  0  0  0  0  0  0
   11.5758   20.2752    4.1221 C   0  0  0  0  0  0  0  0  0  0  0  0
   10.5674   21.1390    4.8090 C   0  0  0  0  0  0  0  0  0  0  0  0
    9.1824   21.1859    4.0830 C   0  0  0  0  0  0  0  0  0  0  0  0
    9.3525   20.5566    5.4245 C   0  0  0  0  0  0  0  0  0  0  0  0
   15.0358   24.0597   -2.8772 C   0  0  0  0  0  0  0  0  0  0  0  0
   15.7162   25.6401   -5.3860 C   0  0  0  0  0  0  0  0  0  0  0  0
   14.5197   25.9036   -4.5283 C   0  0  0  0  0  0  0  0  0  0  0  0
   13.5565   26.7796   -4.6761 O   0  0  0  0  0  0  0  0  0  0  0  0
   12.6951   26.6961   -3.7099 N   0  0  0  0  0  0  0  0  0  0  0  0
   13.0706   25.7106   -2.8383 C   0  0  0  0  0  0  0  0  0  0  0  0
   14.2302   25.2021   -3.3510 C   0  0  0  0  0  0  0  0  0  0  0  0
   12.3548   25.2696   -1.6559 C   0  0  0  0  0  0  0  0  0  0  0  0
   11.2061   24.5175   -1.6482 C   0  0  0  0  0  0  0  0  0  0  0  0
   10.5592   24.1471   -0.4684 C   0  0  0  0  0  0  0  0  0  0  0  0
   11.0528   24.5261    0.7468 C   0  0  0  0  0  0  0  0  0  0  0  0
   12.2078   25.2848    0.7817 C   0  0  0  0  0  0  0  0  0  0  0  0
   12.8287   25.6379   -0.3929 C   0  0  0  0  0  0  0  0  0  0  0  0
 17 18  1  0  0  0
 18 19  1  0  0  0
 19 20  1  0  0  0
 20 21  2  0  0  0
 21 22  1  0  0  0
 22 16  1  0  0  0
 16  1  1  0  0  0
  1  2  1  0  0  0
  2  3  2  0  0  0
  3  4  1  0  0  0
  4  5  2  0  0  0
  5  6  1  0  0  0
  6  7  2  0  0  0
  5  8  1  0  0  0
  8  9  2  0  0  0
  8 10  1  0  0  0
 10 12  1  0  0  0
 12 13  1  0  0  0
 13 14  1  0  0  0
 14 15  1  0  0  0
 21 23  1  0  0  0
 23 24  2  0  0  0
 24 25  1  0  0  0
 25 26  2  0  0  0
 26 27  1  0  0  0
 27 28  2  0  0  0
 22 18  2  0  0  0
  7  2  1  0  0  0
 15 13  1  0  0  0
 28 23  1  0  0  0
 10 11  1  0  0  0
M  END
> <minimizedAffinity>
-8.61960

> <CNNscore>
0.5784830451

> <CNNaffinity>
6.8333396912

> <CNN_VS>
3.9529712200

> <CNNaffinity_variance>
0.1645627767

$$$$
[H]c1nc(OC([H])([H])c2c(-c3c([H])c([H])c([H])c([H])c3[H])noc2C([H])([H])[H])c([H])c([H])c1C(=O)N([H])C([H])([H])C1([H])C([H])([H])C1([H])[H]


 28 31  0  0  0  0  0  0  0  0999 V2000
   14.8137   22.9648   -3.1850 O   0  0  0  0  0  0  0  0  0  0  0  0
   14.2451   24.1581   -3.4609 C   0  0  0  0  0  0  0  0  0  0  0  0
   13.1645   24.5678   -2.6500 C   0  0  0  0  0  0  0  0  0  0  0  0
   12.5543   25.7592   -2.8698 C   0  0  0  0  0  0  0  0  0  0  0  0
   12.9674   26.6137   -3.8956 C   0  0  0  0  0  0  0  0  0  0  0  0
   14.0031   26.2031   -4.6639 C   0  0  0  0  0  0  0  0  0  0  0  0
   14.6124   25.0111   -4.4416 N   0  0  0  0  0  0  0  0  0  0  0  0
   12.2983   27.8867   -4.0882 C   0  0  0  0  0  0  0  0  0  0  0  0
   12.8922   28.9311   -3.6651 O   0  0  0  0  0  0  0  0  0  0  0  0
   11.0468   28.0297   -4.7090 N   0  0  0  0  0  0  0  0  0  0  0  0
   10.5652   27.1525   -5.0459 H   0  0  0  0  0  0  0  0  0  0  0  0
   10.4518   29.3384   -4.8764 C   0  0  0  0  0  0  0  0  0  0  0  0
    8.9806   29.3479   -4.6112 C   0  0  0  0  0  0  0  0  0  0  0  0
    8.2307   30.5495   -5.2753 C   0  0  0  0  0  0  0  0  0  0  0  0
    8.0039   29.1395   -5.7052 C   0  0  0  0  0  0  0  0  0  0  0  0
   14.6936   22.1097   -2.1233 C   0  0  0  0  0  0  0  0  0  0  0  0
   13.0738   20.8507    0.1230 C   0  0  0  0  0  0  0  0  0  0  0  0
   13.8200   22.1407    0.2491 C   0  0  0  0  0  0  0  0  0  0  0  0
   13.9603   22.9325    1.2836 O   0  0  0  0  0  0  0  0  0  0  0  0
   14.6871   23.9653    0.9878 N   0  0  0  0  0  0  0  0  0  0  0  0
   15.0788   23.8966   -0.3212 C   0  0  0  0  0  0  0  0  0  0  0  0
   14.5311   22.7397   -0.7984 C   0  0  0  0  0  0  0  0  0  0  0  0
   15.9381   24.8285   -1.0270 C   0  0  0  0  0  0  0  0  0  0  0  0
   17.2428   24.5998   -1.3884 C   0  0  0  0  0  0  0  0  0  0  0  0
   18.0170   25.5545   -2.0495 C   0  0  0  0  0  0  0  0  0  0  0  0
   17.4972   26.7761   -2.3677 C   0  0  0  0  0  0  0  0  0  0  0  0
   16.1865   27.0456   -2.0203 C   0  0  0  0  0  0  0  0  0  0  0  0
   15.4422   26.0903   -1.3698 C   0  0  0  0  0  0  0  0  0  0  0  0
 17 18  1  0  0  0
 18 19  1  0  0  0
 19 20  1  0  0  0
 20 21  2  0  0  0
 21 22  1  0  0  0
 22 16  1  0  0  0
 16  1  1  0  0  0
  1  2  1  0  0  0
  2  3  2  0  0  0
  3  4  1  0  0  0
  4  5  2  0  0  0
  5  6  1  0  0  0
  6  7  2  0  0  0
  5  8  1  0  0  0
  8  9  2  0  0  0
  8 10  1  0  0  0
 10 12  1  0  0  0
 12 13  1  0  0  0
 13 14  1  0  0  0
 14 15  1  0  0  0
 21 23  1  0  0  0
 23 24  2  0  0  0
 24 25  1  0  0  0
 25 26  2  0  0  0
 26 27  1  0  0  0
 27 28  2  0  0  0
 22 18  2  0  0  0
  7  2  1  0  0  0
 15 13  1  0  0  0
 28 23  1  0  0  0
 10 11  1  0  0  0
M  END
> <minimizedAffinity>
8.11000

> <CNNscore>
0.5601373315

> <CNNaffinity>
6.7798643112

> <CNN_VS>
3.7976551056

> <CNNaffinity_variance>
0.7646545172

$$$$
[H]c1nc(OC([H])([H])c2c(-c3c([H])c([H])c([H])c([H])c3[H])noc2C([H])([H])[H])c([H])c([H])c1C(=O)N([H])C([H])([H])C1([H])C([H])([H])C1([H])[H]


 28 31  0  0  0  0  0  0  0  0999 V2000
   11.9393   28.4647   -4.0297 O   0  0  0  0  0  0  0  0  0  0  0  0
   12.5111   27.3181   -3.6033 C   0  0  0  0  0  0  0  0  0  0  0  0
   13.5178   26.7513   -4.4147 C   0  0  0  0  0  0  0  0  0  0  0  0
   14.1372   25.6043   -4.0396 C   0  0  0  0  0  0  0  0  0  0  0  0
   13.8043   24.9491   -2.8508 C   0  0  0  0  0  0  0  0  0  0  0  0
   12.8356   25.5059   -2.0873 C   0  0  0  0  0  0  0  0  0  0  0  0
   12.2179   26.6539   -2.4644 N   0  0  0  0  0  0  0  0  0  0  0  0
   14.5013   23.7325   -2.4776 C   0  0  0  0  0  0  0  0  0  0  0  0
   14.8505   22.9453   -3.4162 O   0  0  0  0  0  0  0  0  0  0  0  0
   14.8095   23.3789   -1.1539 N   0  0  0  0  0  0  0  0  0  0  0  0
   14.5049   24.0390   -0.3881 H   0  0  0  0  0  0  0  0  0  0  0  0
   15.5214   22.1524   -0.8648 C   0  0  0  0  0  0  0  0  0  0  0  0
   14.8620   21.3322    0.1970 C   0  0  0  0  0  0  0  0  0  0  0  0
   14.2807   19.9775   -0.3266 C   0  0  0  0  0  0  0  0  0  0  0  0
   15.4293   20.0320    0.6232 C   0  0  0  0  0  0  0  0  0  0  0  0
   11.1285   29.3766   -3.4101 C   0  0  0  0  0  0  0  0  0  0  0  0
   13.0116   31.6558   -4.1268 C   0  0  0  0  0  0  0  0  0  0  0  0
   11.5924   31.5642   -4.5897 C   0  0  0  0  0  0  0  0  0  0  0  0
   10.9114   32.3628   -5.3741 O   0  0  0  0  0  0  0  0  0  0  0  0
    9.6970   31.9368   -5.5359 N   0  0  0  0  0  0  0  0  0  0  0  0
    9.5143   30.7790   -4.8303 C   0  0  0  0  0  0  0  0  0  0  0  0
   10.7146   30.5355   -4.2252 C   0  0  0  0  0  0  0  0  0  0  0  0
    8.3162   29.9621   -4.7853 C   0  0  0  0  0  0  0  0  0  0  0  0
    7.3502   30.0088   -3.8107 C   0  0  0  0  0  0  0  0  0  0  0  0
    6.2312   29.1748   -3.8222 C   0  0  0  0  0  0  0  0  0  0  0  0
    6.0509   28.2625   -4.8217 C   0  0  0  0  0  0  0  0  0  0  0  0
    7.0019   28.1840   -5.8220 C   0  0  0  0  0  0  0  0  0  0  0  0
    8.0961   29.0156   -5.7908 C   0  0  0  0  0  0  0  0  0  0  0  0
 17 18  1  0  0  0
 18 19  1  0  0  0
 19 20  1  0  0  0
 20 21  2  0  0  0
 21 22  1  0  0  0
 22 16  1  0  0  0
 16  1  1  0  0  0
  1  2  1  0  0  0
  2  3  2  0  0  0
  3  4  1  0  0  0
  4  5  2  0  0  0
  5  6  1  0  0  0
  6  7  2  0  0  0
  5  8  1  0  0  0
  8  9  2  0  0  0
  8 10  1  0  0  0
 10 12  1  0  0  0
 12 13  1  0  0  0
 13 14  1  0  0  0
 14 15  1  0  0  0
 21 23  1  0  0  0
 23 24  2  0  0  0
 24 25  1  0  0  0
 25 26  2  0  0  0
 26 27  1  0  0  0
 27 28  2  0  0  0
 22 18  2  0  0  0
  7  2  1  0  0  0
 15 13  1  0  0  0
 28 23  1  0  0  0
 10 11  1  0  0  0
M  END
> <minimizedAffinity>
10.47538

> <CNNscore>
0.5485786796

> <CNNaffinity>
5.8917808533

> <CNN_VS>
3.2321052551

> <CNNaffinity_variance>
0.4888125062

$$$$
[H]c1nc(OC([H])([H])c2c(-c3c([H])c([H])c([H])c([H])c3[H])noc2C([H])([H])[H])c([H])c([H])c1C(=O)N([H])C([H])([H])C1([H])C([H])([H])C1([H])[H]


 28 31  0  0  0  0  0  0  0  0999 V2000
   14.2530   27.2521   -3.6600 O   0  0  0  0  0  0  0  0  0  0  0  0
   13.1133   27.9519   -3.8465 C   0  0  0  0  0  0  0  0  0  0  0  0
   12.0125   27.2672   -4.4053 C   0  0  0  0  0  0  0  0  0  0  0  0
   10.8363   27.9107   -4.6114 C   0  0  0  0  0  0  0  0  0  0  0  0
   10.6739   29.2595   -4.2831 C   0  0  0  0  0  0  0  0  0  0  0  0
   11.7407   29.8999   -3.7508 C   0  0  0  0  0  0  0  0  0  0  0  0
   12.9161   29.2536   -3.5449 N   0  0  0  0  0  0  0  0  0  0  0  0
    9.3948   29.9075   -4.5050 C   0  0  0  0  0  0  0  0  0  0  0  0
    9.1422   30.3181   -5.6840 O   0  0  0  0  0  0  0  0  0  0  0  0
    8.4303   30.1041   -3.5034 N   0  0  0  0  0  0  0  0  0  0  0  0
    8.6601   29.7651   -2.5302 H   0  0  0  0  0  0  0  0  0  0  0  0
    7.1703   30.7474   -3.8089 C   0  0  0  0  0  0  0  0  0  0  0  0
    5.9979   30.0561   -3.1905 C   0  0  0  0  0  0  0  0  0  0  0  0
    6.0381   28.4991   -3.3374 C   0  0  0  0  0  0  0  0  0  0  0  0
    6.1634   29.1730   -2.0128 C   0  0  0  0  0  0  0  0  0  0  0  0
   14.6516   26.3832   -2.6807 C   0  0  0  0  0  0  0  0  0  0  0  0
   14.2015   24.0133   -0.8272 C   0  0  0  0  0  0  0  0  0  0  0  0
   14.6113   23.8904   -2.2603 C   0  0  0  0  0  0  0  0  0  0  0  0
   14.8150   22.8193   -2.9869 O   0  0  0  0  0  0  0  0  0  0  0  0
   15.1644   23.1330   -4.1960 N   0  0  0  0  0  0  0  0  0  0  0  0
   15.2079   24.4942   -4.3273 C   0  0  0  0  0  0  0  0  0  0  0  0
   14.8582   24.9833   -3.1006 C   0  0  0  0  0  0  0  0  0  0  0  0
   15.5077   25.2476   -5.5303 C   0  0  0  0  0  0  0  0  0  0  0  0
   15.8363   26.5798   -5.5809 C   0  0  0  0  0  0  0  0  0  0  0  0
   16.0921   27.2448   -6.7809 C   0  0  0  0  0  0  0  0  0  0  0  0
   16.0235   26.5840   -7.9736 C   0  0  0  0  0  0  0  0  0  0  0  0
   15.6951   25.2411   -7.9652 C   0  0  0  0  0  0  0  0  0  0  0  0
   15.4475   24.6061   -6.7714 C   0  0  0  0  0  0  0  0  0  0  0  0
 17 18  1  0  0  0
 18 19  1  0  0  0
 19 20  1  0  0  0
 20 21  2  0  0  0
 21 22  1  0  0  0
 22 16  1  0  0  0
 16  1  1  0  0  0
  1  2  1  0  0  0
  2  3  2  0  0  0
  3  4  1  0  0  0
  4  5  2  0  0  0
  5  6  1  0  0  0
  6  7  2  0  0  0
  5  8  1  0  0  0
  8  9  2  0  0  0
  8 10  1  0  0  0
 10 12  1  0  0  0
 12 13  1  0  0  0
 13 14  1  0  0  0
 14 15  1  0  0  0
 21 23  1  0  0  0
 23 24  2  0  0  0
 24 25  1  0  0  0
 25 26  2  0  0  0
 26 27  1  0  0  0
 27 28  2  0  0  0
 22 18  2  0  0  0
  7  2  1  0  0  0
 15 13  1  0  0  0
 28 23  1  0  0  0
 10 11  1  0  0  0
M  END
> <minimizedAffinity>
11.40493

> <CNNscore>
0.5223860741

> <CNNaffinity>
6.0432615280

> <CNN_VS>
3.1569156647

> <CNNaffinity_variance>
0.5373935699

$$$$
[H]c1nc(OC([H])([H])c2c(-c3c([H])c([H])c([H])c([H])c3[H])noc2C([H])([H])[H])c([H])c([H])c1C(=O)N([H])C([H])([H])C1([H])C([H])([H])C1([H])[H]


 28 31  0  0  0  0  0  0  0  0999 V2000
   14.1284   21.7266   -2.1470 O   0  0  0  0  0  0  0  0  0  0  0  0
   14.0925   22.9840   -2.6380 C   0  0  0  0  0  0  0  0  0  0  0  0
   13.1079   23.8559   -2.1248 C   0  0  0  0  0  0  0  0  0  0  0  0
   13.0232   25.1343   -2.5704 C   0  0  0  0  0  0  0  0  0  0  0  0
   13.8965   25.6285   -3.5432 C   0  0  0  0  0  0  0  0  0  0  0  0
   14.8321   24.7777   -4.0250 C   0  0  0  0  0  0  0  0  0  0  0  0
   14.9153   23.4994   -3.5770 N   0  0  0  0  0  0  0  0  0  0  0  0
   13.7828   27.0068   -3.9821 C   0  0  0  0  0  0  0  0  0  0  0  0
   14.7239   27.4719   -4.7035 O   0  0  0  0  0  0  0  0  0  0  0  0
   12.7045   27.8468   -3.6599 N   0  0  0  0  0  0  0  0  0  0  0  0
   11.9377   27.4472   -3.0540 H   0  0  0  0  0  0  0  0  0  0  0  0
   12.6579   29.2080   -4.1498 C   0  0  0  0  0  0  0  0  0  0  0  0
   11.7544   30.0862   -3.3453 C   0  0  0  0  0  0  0  0  0  0  0  0
   11.6191   31.5371   -3.9145 C   0  0  0  0  0  0  0  0  0  0  0  0
   10.4739   30.5816   -3.9013 C   0  0  0  0  0  0  0  0  0  0  0  0
   13.2225   20.9889   -1.4343 C   0  0  0  0  0  0  0  0  0  0  0  0
   10.2702   20.6985   -0.7604 C   0  0  0  0  0  0  0  0  0  0  0  0
   11.2383   21.5048    0.0453 C   0  0  0  0  0  0  0  0  0  0  0  0
   11.0519   22.1807    1.1522 O   0  0  0  0  0  0  0  0  0  0  0  0
   12.1490   22.7524    1.5423 N   0  0  0  0  0  0  0  0  0  0  0  0
   13.1590   22.4634    0.6659 C   0  0  0  0  0  0  0  0  0  0  0  0
   12.5881   21.6711   -0.2894 C   0  0  0  0  0  0  0  0  0  0  0  0
   14.5481   22.8696    0.7677 C   0  0  0  0  0  0  0  0  0  0  0  0
   15.5937   22.0629    1.1433 C   0  0  0  0  0  0  0  0  0  0  0  0
   16.9053   22.5300    1.2394 C   0  0  0  0  0  0  0  0  0  0  0  0
   17.2048   23.8321    0.9588 C   0  0  0  0  0  0  0  0  0  0  0  0
   16.1793   24.6769    0.5772 C   0  0  0  0  0  0  0  0  0  0  0  0
   14.8948   24.1953    0.4889 C   0  0  0  0  0  0  0  0  0  0  0  0
 17 18  1  0  0  0
 18 19  1  0  0  0
 19 20  1  0  0  0
 20 21  2  0  0  0
 21 22  1  0  0  0
 22 16  1  0  0  0
 16  1  1  0  0  0
  1  2  1  0  0  0
  2  3  2  0  0  0
  3  4  1  0  0  0
  4  5  2  0  0  0
  5  6  1  0  0  0
  6  7  2  0  0  0
  5  8  1  0  0  0
  8  9  2  0  0  0
  8 10  1  0  0  0
 10 12  1  0  0  0
 12 13  1  0  0  0
 13 14  1  0  0  0
 14 15  1  0  0  0
 21 23  1  0  0  0
 23 24  2  0  0  0
 24 25  1  0  0  0
 25 26  2  0  0  0
 26 27  1  0  0  0
 27 28  2  0  0  0
 22 18  2  0  0  0
  7  2  1  0  0  0
 15 13  1  0  0  0
 28 23  1  0  0  0
 10 11  1  0  0  0
M  END
> <minimizedAffinity>
1.66191

> <CNNscore>
0.4626585841

> <CNNaffinity>
6.8048286438

> <CNN_VS>
3.1483123302

> <CNNaffinity_variance>
0.4254342020

$$$$
[H]c1nc(OC([H])([H])c2c(-c3c([H])c([H])c([H])c([H])c3[H])noc2C([H])([H])[H])c([H])c([H])c1C(=O)N([H])C([H])([H])C1([H])C([H])([H])C1([H])[H]


 28 31  0  0  0  0  0  0  0  0999 V2000
   13.3337   24.3421    0.5831 O   0  0  0  0  0  0  0  0  0  0  0  0
   12.2000   23.6513    0.8303 C   0  0  0  0  0  0  0  0  0  0  0  0
   11.0526   23.9933    0.0823 C   0  0  0  0  0  0  0  0  0  0  0  0
    9.8840   23.3326    0.2769 C   0  0  0  0  0  0  0  0  0  0  0  0
    9.7744   22.3023    1.2148 C   0  0  0  0  0  0  0  0  0  0  0  0
   10.8839   21.9901    1.9240 C   0  0  0  0  0  0  0  0  0  0  0  0
   12.0521   22.6521    1.7268 N   0  0  0  0  0  0  0  0  0  0  0  0
    8.5104   21.6098    1.3821 C   0  0  0  0  0  0  0  0  0  0  0  0
    8.2754   20.6240    0.6105 O   0  0  0  0  0  0  0  0  0  0  0  0
    7.5429   21.9617    2.3373 N   0  0  0  0  0  0  0  0  0  0  0  0
    7.7508   22.7867    2.9625 H   0  0  0  0  0  0  0  0  0  0  0  0
    6.3112   21.2103    2.4508 C   0  0  0  0  0  0  0  0  0  0  0  0
    6.0412   20.7411    3.8443 C   0  0  0  0  0  0  0  0  0  0  0  0
    5.9980   19.1836    3.9850 C   0  0  0  0  0  0  0  0  0  0  0  0
    7.0690   20.0065    4.6177 C   0  0  0  0  0  0  0  0  0  0  0  0
   14.5794   23.9528    0.1714 C   0  0  0  0  0  0  0  0  0  0  0  0
   14.9007   20.9768    0.7142 C   0  0  0  0  0  0  0  0  0  0  0  0
   14.7270   21.5660   -0.6494 C   0  0  0  0  0  0  0  0  0  0  0  0
   14.6443   20.9747   -1.8158 O   0  0  0  0  0  0  0  0  0  0  0  0
   14.4973   21.8405   -2.7704 N   0  0  0  0  0  0  0  0  0  0  0  0
   14.4745   23.1053   -2.2494 C   0  0  0  0  0  0  0  0  0  0  0  0
   14.6206   22.9396   -0.9012 C   0  0  0  0  0  0  0  0  0  0  0  0
   14.2801   24.3466   -2.9748 C   0  0  0  0  0  0  0  0  0  0  0  0
   13.3282   25.2965   -2.6975 C   0  0  0  0  0  0  0  0  0  0  0  0
   13.1864   26.4604   -3.4544 C   0  0  0  0  0  0  0  0  0  0  0  0
   14.0038   26.7037   -4.5205 C   0  0  0  0  0  0  0  0  0  0  0  0
   14.9751   25.7708   -4.8328 C   0  0  0  0  0  0  0  0  0  0  0  0
   15.0972   24.6316   -4.0732 C   0  0  0  0  0  0  0  0  0  0  0  0
 17 18  1  0  0  0
 18 19  1  0  0  0
 19 20  1  0  0  0
 20 21  2  0  0  0
 21 22  1  0  0  0
 22 16  1  0  0  0
 16  1  1  0  0  0
  1  2  1  0  0  0
  2  3  2  0  0  0
  3  4  1  0  0  0
  4  5  2  0  0  0
  5  6  1  0  0  0
  6  7  2  0  0  0
  5  8  1  0  0  0
  8  9  2  0  0  0
  8 10  1  0  0  0
 10 12  1  0  0  0
 12 13  1  0  0  0
 13 14  1  0  0  0
 14 15  1  0  0  0
 21 23  1  0  0  0
 23 24  2  0  0  0
 24 25  1  0  0  0
 25 26  2  0  0  0
 26 27  1  0  0  0
 27 28  2  0  0  0
 22 18  2  0  0  0
  7  2  1  0  0  0
 15 13  1  0  0  0
 28 23  1  0  0  0
 10 11  1  0  0  0
M  END
> <minimizedAffinity>
-8.88110

> <CNNscore>
0.4434441030

> <CNNaffinity>
6.4349241257

> <CNN_VS>
2.8535292149

> <CNNaffinity_variance>
0.2092777193

$$$$
[H]c1nc(N([H])c2c([H])c([H])c(F)c(Cl)c2[H])c2c([H])c(OC([H])([H])[H])c(OC([H])([H])[H])c([H])c2n1


 24 26  0  0  0  0  0  0  0  0999 V2000
   14.9926   25.4625    0.9536 C   0  0  0  0  0  0  0  0  0  0  0  0
   13.6538   25.4517    0.7061 C   0  0  0  0  0  0  0  0  0  0  0  0
   13.1725   25.0725   -0.5077 C   0  0  0  0  0  0  0  0  0  0  0  0
   11.8496   25.0492   -0.7857 N   0  0  0  0  0  0  0  0  0  0  0  0
   11.3448   24.6784   -1.9738 C   0  0  0  0  0  0  0  0  0  0  0  0
   12.2234   24.3181   -2.9139 N   0  0  0  0  0  0  0  0  0  0  0  0
   13.5585   24.2962   -2.7697 C   0  0  0  0  0  0  0  0  0  0  0  0
   14.0426   24.6865   -1.5255 C   0  0  0  0  0  0  0  0  0  0  0  0
   15.3925   24.7071   -1.2467 C   0  0  0  0  0  0  0  0  0  0  0  0
   15.8894   25.0951   -0.0039 C   0  0  0  0  0  0  0  0  0  0  0  0
   15.0933   27.0852    2.7995 C   0  0  0  0  0  0  0  0  0  0  0  0
   15.4315   25.8536    2.1962 O   0  0  0  0  0  0  0  0  0  0  0  0
   14.4477   23.9402   -3.7968 N   0  0  0  0  0  0  0  0  0  0  0  0
   14.7912   22.9547   -3.9384 H   0  0  0  0  0  0  0  0  0  0  0  0
   14.9619   24.8702   -4.7362 C   0  0  0  0  0  0  0  0  0  0  0  0
   15.2104   24.4390   -6.0428 C   0  0  0  0  0  0  0  0  0  0  0  0
   15.6754   25.3014   -6.9885 C   0  0  0  0  0  0  0  0  0  0  0  0
   15.9260   26.6173   -6.7340 C   0  0  0  0  0  0  0  0  0  0  0  0
   16.3906   27.4737   -7.6818 F   0  0  0  0  0  0  0  0  0  0  0  0
   15.6886   27.0647   -5.4553 C   0  0  0  0  0  0  0  0  0  0  0  0
   15.9867   28.7379   -5.0553 Cl  0  0  0  0  0  0  0  0  0  0  0  0
   15.2097   26.1837   -4.4767 C   0  0  0  0  0  0  0  0  0  0  0  0
   17.2396   25.1086    0.2533 O   0  0  0  0  0  0  0  0  0  0  0  0
   17.9387   24.1010    0.9218 C   0  0  0  0  0  0  0  0  0  0  0  0
 11 12  1  0  0  0
 12  1  1  0  0  0
  1  2  2  0  0  0
  2  3  1  0  0  0
  3  4  2  0  0  0
  4  5  1  0  0  0
  5  6  2  0  0  0
  6  7  1  0  0  0
  7 13  1  0  0  0
 13 15  1  0  0  0
 15 16  2  0  0  0
 16 17  1  0  0  0
 17 18  2  0  0  0
 18 19  1  0  0  0
 18 20  1  0  0  0
 20 21  1  0  0  0
 20 22  2  0  0  0
  7  8  2  0  0  0
  8  9  1  0  0  0
  9 10  2  0  0  0
 10 23  1  0  0  0
 23 24  1  0  0  0
 10  1  1  0  0  0
  8  3  1  0  0  0
 22 15  1  0  0  0
 13 14  1  0  0  0
M  END
> <minimizedAffinity>
4.24090

> <CNNscore>
0.6027981639

> <CNNaffinity>
6.9293794632

> <CNN_VS>
4.1770172119

> <CNNaffinity_variance>
0.4088648260

$$$$
[H]c1nc(N([H])c2c([H])c([H])c(F)c(Cl)c2[H])c2c([H])c(OC([H])([H])[H])c(OC([H])([H])[H])c([H])c2n1


 24 26  0  0  0  0  0  0  0  0999 V2000
   11.4108   22.8476    0.5885 C   0  0  0  0  0  0  0  0  0  0  0  0
   12.5359   23.3449    1.1722 C   0  0  0  0  0  0  0  0  0  0  0  0
   13.5959   23.7403    0.4179 C   0  0  0  0  0  0  0  0  0  0  0  0
   14.7268   24.2394    0.9656 N   0  0  0  0  0  0  0  0  0  0  0  0
   15.7887   24.6389    0.2468 C   0  0  0  0  0  0  0  0  0  0  0  0
   15.6929   24.5245   -1.0810 N   0  0  0  0  0  0  0  0  0  0  0  0
   14.6311   24.0470   -1.7506 C   0  0  0  0  0  0  0  0  0  0  0  0
   13.5516   23.6438   -0.9716 C   0  0  0  0  0  0  0  0  0  0  0  0
   12.4002   23.1369   -1.5351 C   0  0  0  0  0  0  0  0  0  0  0  0
   11.3119   22.7308   -0.7653 C   0  0  0  0  0  0  0  0  0  0  0  0
    9.5932   23.3561    2.1658 C   0  0  0  0  0  0  0  0  0  0  0  0
   10.3651   22.4609    1.3926 O   0  0  0  0  0  0  0  0  0  0  0  0
   14.5858   23.9148   -3.1480 N   0  0  0  0  0  0  0  0  0  0  0  0
   14.3069   23.0197   -3.6281 H   0  0  0  0  0  0  0  0  0  0  0  0
   14.9081   24.9703   -4.0391 C   0  0  0  0  0  0  0  0  0  0  0  0
   15.0082   26.2702   -3.5339 C   0  0  0  0  0  0  0  0  0  0  0  0
   15.3446   27.3122   -4.3434 C   0  0  0  0  0  0  0  0  0  0  0  0
   15.6021   27.1651   -5.6743 C   0  0  0  0  0  0  0  0  0  0  0  0
   15.9372   28.2090   -6.4777 F   0  0  0  0  0  0  0  0  0  0  0  0
   15.5103   25.8951   -6.1938 C   0  0  0  0  0  0  0  0  0  0  0  0
   15.8261   25.6299   -7.8904 Cl  0  0  0  0  0  0  0  0  0  0  0  0
   15.1651   24.8175   -5.3674 C   0  0  0  0  0  0  0  0  0  0  0  0
   10.1728   22.2278   -1.3474 O   0  0  0  0  0  0  0  0  0  0  0  0
    9.8064   20.8800   -1.3597 C   0  0  0  0  0  0  0  0  0  0  0  0
 11 12  1  0  0  0
 12  1  1  0  0  0
  1  2  2  0  0  0
  2  3  1  0  0  0
  3  4  2  0  0  0
  4  5  1  0  0  0
  5  6  2  0  0  0
  6  7  1  0  0  0
  7 13  1  0  0  0
 13 15  1  0  0  0
 15 16  2  0  0  0
 16 17  1  0  0  0
 17 18  2  0  0  0
 18 19  1  0  0  0
 18 20  1  0  0  0
 20 21  1  0  0  0
 20 22  2  0  0  0
  7  8  2  0  0  0
  8  9  1  0  0  0
  9 10  2  0  0  0
 10 23  1  0  0  0
 23 24  1  0  0  0
 10  1  1  0  0  0
  8  3  1  0  0  0
 22 15  1  0  0  0
 13 14  1  0  0  0
M  END
> <minimizedAffinity>
-7.71200

> <CNNscore>
0.5112935901

> <CNNaffinity>
7.0316419601

> <CNN_VS>
3.5952334404

> <CNNaffinity_variance>
0.1258123368

$$$$
[H]c1nc(N([H])c2c([H])c([H])c(F)c(Cl)c2[H])c2c([H])c(OC([H])([H])[H])c(OC([H])([H])[H])c([H])c2n1


 24 26  0  0  0  0  0  0  0  0999 V2000
   16.3144   26.7734   -3.6021 C   0  0  0  0  0  0  0  0  0  0  0  0
   16.7320   26.4047   -2.3597 C   0  0  0  0  0  0  0  0  0  0  0  0
   16.0752   25.4406   -1.6612 C   0  0  0  0  0  0  0  0  0  0  0  0
   16.4645   25.0504   -0.4266 N   0  0  0  0  0  0  0  0  0  0  0  0
   15.8371   24.1008    0.2865 C   0  0  0  0  0  0  0  0  0  0  0  0
   14.7720   23.5279   -0.2818 N   0  0  0  0  0  0  0  0  0  0  0  0
   14.2814   23.8209   -1.4973 C   0  0  0  0  0  0  0  0  0  0  0  0
   14.9583   24.8089   -2.2047 C   0  0  0  0  0  0  0  0  0  0  0  0
   14.5582   25.2021   -3.4638 C   0  0  0  0  0  0  0  0  0  0  0  0
   15.2288   26.1898   -4.1827 C   0  0  0  0  0  0  0  0  0  0  0  0
   18.2839   28.2211   -3.8764 C   0  0  0  0  0  0  0  0  0  0  0  0
   17.0106   27.7529   -4.2695 O   0  0  0  0  0  0  0  0  0  0  0  0
   13.1382   23.2148   -2.0432 N   0  0  0  0  0  0  0  0  0  0  0  0
   13.0890   22.8846   -3.0422 H   0  0  0  0  0  0  0  0  0  0  0  0
   11.9494   22.9900   -1.3028 C   0  0  0  0  0  0  0  0  0  0  0  0
   11.3795   24.0589   -0.6045 C   0  0  0  0  0  0  0  0  0  0  0  0
   10.2225   23.9007    0.0959 C   0  0  0  0  0  0  0  0  0  0  0  0
    9.5526   22.7151    0.1643 C   0  0  0  0  0  0  0  0  0  0  0  0
    8.3981   22.5627    0.8654 F   0  0  0  0  0  0  0  0  0  0  0  0
   10.0941   21.6491   -0.5153 C   0  0  0  0  0  0  0  0  0  0  0  0
    9.2915   20.0990   -0.4731 Cl  0  0  0  0  0  0  0  0  0  0  0  0
   11.2840   21.8039   -1.2386 C   0  0  0  0  0  0  0  0  0  0  0  0
   14.8130   26.5672   -5.4373 O   0  0  0  0  0  0  0  0  0  0  0  0
   15.3678   26.1135   -6.6362 C   0  0  0  0  0  0  0  0  0  0  0  0
 11 12  1  0  0  0
 12  1  1  0  0  0
  1  2  2  0  0  0
  2  3  1  0  0  0
  3  4  2  0  0  0
  4  5  1  0  0  0
  5  6  2  0  0  0
  6  7  1  0  0  0
  7 13  1  0  0  0
 13 15  1  0  0  0
 15 16  2  0  0  0
 16 17  1  0  0  0
 17 18  2  0  0  0
 18 19  1  0  0  0
 18 20  1  0  0  0
 20 21  1  0  0  0
 20 22  2  0  0  0
  7  8  2  0  0  0
  8  9  1  0  0  0
  9 10  2  0  0  0
 10 23  1  0  0  0
 23 24  1  0  0  0
 10  1  1  0  0  0
  8  3  1  0  0  0
 22 15  1  0  0  0
 13 14  1  0  0  0
M  END
> <minimizedAffinity>
-7.67723

> <CNNscore>
0.4512903988

> <CNNaffinity>
7.0965738297

> <CNN_VS>
3.2026157379

> <CNNaffinity_variance>
0.1309342235

$$$$
[H]c1nc(N([H])c2c([H])c([H])c(F)c(Cl)c2[H])c2c([H])c(OC([H])([H])[H])c(OC([H])([H])[H])c([H])c2n1


 24 26  0  0  0  0  0  0  0  0999 V2000
   14.6127   22.0670   -1.5492 C   0  0  0  0  0  0  0  0  0  0  0  0
   13.9827   22.6966   -0.5194 C   0  0  0  0  0  0  0  0  0  0  0  0
   13.5055   23.9617   -0.6633 C   0  0  0  0  0  0  0  0  0  0  0  0
   12.8744   24.6145    0.3384 N   0  0  0  0  0  0  0  0  0  0  0  0
   12.3916   25.8628    0.2257 C   0  0  0  0  0  0  0  0  0  0  0  0
   12.5594   26.4677   -0.9539 N   0  0  0  0  0  0  0  0  0  0  0  0
   13.1660   25.9347   -2.0271 C   0  0  0  0  0  0  0  0  0  0  0  0
   13.6523   24.6409   -1.8712 C   0  0  0  0  0  0  0  0  0  0  0  0
   14.2938   23.9791   -2.8963 C   0  0  0  0  0  0  0  0  0  0  0  0
   14.7842   22.6827   -2.7525 C   0  0  0  0  0  0  0  0  0  0  0  0
   14.5179   19.8769   -0.4336 C   0  0  0  0  0  0  0  0  0  0  0  0
   15.0782   20.7881   -1.3561 O   0  0  0  0  0  0  0  0  0  0  0  0
   13.3488   26.6197   -3.2394 N   0  0  0  0  0  0  0  0  0  0  0  0
   14.1607   26.4332   -3.8839 H   0  0  0  0  0  0  0  0  0  0  0  0
   12.4596   27.6207   -3.7078 C   0  0  0  0  0  0  0  0  0  0  0  0
   11.4272   27.2510   -4.5752 C   0  0  0  0  0  0  0  0  0  0  0  0
   10.5302   28.1700   -5.0281 C   0  0  0  0  0  0  0  0  0  0  0  0
   10.5740   29.4864   -4.6756 C   0  0  0  0  0  0  0  0  0  0  0  0
    9.6761   30.3995   -5.1311 F   0  0  0  0  0  0  0  0  0  0  0  0
   11.5809   29.8736   -3.8225 C   0  0  0  0  0  0  0  0  0  0  0  0
   11.7003   31.5437   -3.3274 Cl  0  0  0  0  0  0  0  0  0  0  0  0
   12.5076   28.9341   -3.3518 C   0  0  0  0  0  0  0  0  0  0  0  0
   15.4211   22.0407   -3.7876 O   0  0  0  0  0  0  0  0  0  0  0  0
   15.0833   22.1645   -5.1372 C   0  0  0  0  0  0  0  0  0  0  0  0
 11 12  1  0  0  0
 12  1  1  0  0  0
  1  2  2  0  0  0
  2  3  1  0  0  0
  3  4  2  0  0  0
  4  5  1  0  0  0
  5  6  2  0  0  0
  6  7  1  0  0  0
  7 13  1  0  0  0
 13 15  1  0  0  0
 15 16  2  0  0  0
 16 17  1  0  0  0
 17 18  2  0  0  0
 18 19  1  0  0  0
 18 20  1  0  0  0
 20 21  1  0  0  0
 20 22  2  0  0  0
  7  8  2  0  0  0
  8  9  1  0  0  0
  9 10  2  0  0  0
 10 23  1  0  0  0
 23 24  1  0  0  0
 10  1  1  0  0  0
  8  3  1  0  0  0
 22 15  1  0  0  0
 13 14  1  0  0  0
M  END
> <minimizedAffinity>
15.52288

> <CNNscore>
0.4499816298

> <CNNaffinity>
6.3135533333

> <CNN_VS>
2.8409829140

> <CNNaffinity_variance>
1.1467132568

$$$$
[H]c1nc(N([H])c2c([H])c([H])c(F)c(Cl)c2[H])c2c([H])c(OC([H])([H])[H])c(OC([H])([H])[H])c([H])c2n1


 24 26  0  0  0  0  0  0  0  0999 V2000
   12.5846   28.5994   -3.6716 C   0  0  0  0  0  0  0  0  0  0  0  0
   11.9857   27.5989   -2.9688 C   0  0  0  0  0  0  0  0  0  0  0  0
   12.6303   26.4231   -2.7433 C   0  0  0  0  0  0  0  0  0  0  0  0
   12.0648   25.4104   -2.0486 N   0  0  0  0  0  0  0  0  0  0  0  0
   12.6767   24.2390   -1.8090 C   0  0  0  0  0  0  0  0  0  0  0  0
   13.9123   24.0957   -2.2971 N   0  0  0  0  0  0  0  0  0  0  0  0
   14.5872   25.0188   -3.0016 C   0  0  0  0  0  0  0  0  0  0  0  0
   13.9203   26.2182   -3.2287 C   0  0  0  0  0  0  0  0  0  0  0  0
   14.5020   27.2482   -3.9365 C   0  0  0  0  0  0  0  0  0  0  0  0
   13.8445   28.4546   -4.1695 C   0  0  0  0  0  0  0  0  0  0  0  0
   10.4842   29.8672   -3.8488 C   0  0  0  0  0  0  0  0  0  0  0  0
   11.8931   29.7702   -3.8740 O   0  0  0  0  0  0  0  0  0  0  0  0
   15.8746   24.8134   -3.5235 N   0  0  0  0  0  0  0  0  0  0  0  0
   16.2210   23.8681   -3.8333 H   0  0  0  0  0  0  0  0  0  0  0  0
   16.8235   25.8555   -3.6834 C   0  0  0  0  0  0  0  0  0  0  0  0
   16.6349   26.7854   -4.7103 C   0  0  0  0  0  0  0  0  0  0  0  0
   17.5015   27.8210   -4.8854 C   0  0  0  0  0  0  0  0  0  0  0  0
   18.5905   28.0203   -4.0892 C   0  0  0  0  0  0  0  0  0  0  0  0
   19.4525   29.0557   -4.2688 F   0  0  0  0  0  0  0  0  0  0  0  0
   18.7964   27.1182   -3.0717 C   0  0  0  0  0  0  0  0  0  0  0  0
   20.1706   27.3094   -2.0117 Cl  0  0  0  0  0  0  0  0  0  0  0  0
   17.9090   26.0502   -2.8848 C   0  0  0  0  0  0  0  0  0  0  0  0
   14.4427   29.4693   -4.8781 O   0  0  0  0  0  0  0  0  0  0  0  0
   15.4179   29.2934   -5.8624 C   0  0  0  0  0  0  0  0  0  0  0  0
 11 12  1  0  0  0
 12  1  1  0  0  0
  1  2  2  0  0  0
  2  3  1  0  0  0
  3  4  2  0  0  0
  4  5  1  0  0  0
  5  6  2  0  0  0
  6  7  1  0  0  0
  7 13  1  0  0  0
 13 15  1  0  0  0
 15 16  2  0  0  0
 16 17  1  0  0  0
 17 18  2  0  0  0
 18 19  1  0  0  0
 18 20  1  0  0  0
 20 21  1  0  0  0
 20 22  2  0  0  0
  7  8  2  0  0  0
  8  9  1  0  0  0
  9 10  2  0  0  0
 10 23  1  0  0  0
 23 24  1  0  0  0
 10  1  1  0  0  0
  8  3  1  0  0  0
 22 15  1  0  0  0
 13 14  1  0  0  0
M  END
> <minimizedAffinity>
22.06418

> <CNNscore>
0.4467175603

> <CNNaffinity>
6.1156592369

> <CNN_VS>
2.7319724560

> <CNNaffinity_variance>
0.6345275640

$$$$
[H]c1nc(N([H])c2c([H])c([H])c(F)c(Cl)c2[H])c2c([H])c(OC([H])([H])[H])c(OC([H])([H])[H])c([H])c2n1


 24 26  0  0  0  0  0  0  0  0999 V2000
   15.9727   26.4657   -3.4631 C   0  0  0  0  0  0  0  0  0  0  0  0
   16.5551   25.9771   -2.3335 C   0  0  0  0  0  0  0  0  0  0  0  0
   15.8343   25.2567   -1.4334 C   0  0  0  0  0  0  0  0  0  0  0  0
   16.3821   24.7565   -0.3030 N   0  0  0  0  0  0  0  0  0  0  0  0
   15.6963   24.0408    0.6032 C   0  0  0  0  0  0  0  0  0  0  0  0
   14.4024   23.8278    0.3464 N   0  0  0  0  0  0  0  0  0  0  0  0
   13.7368   24.2666   -0.7345 C   0  0  0  0  0  0  0  0  0  0  0  0
   14.4811   25.0036   -1.6497 C   0  0  0  0  0  0  0  0  0  0  0  0
   13.9180   25.5102   -2.8014 C   0  0  0  0  0  0  0  0  0  0  0  0
   14.6536   26.2489   -3.7262 C   0  0  0  0  0  0  0  0  0  0  0  0
   17.7155   28.1323   -3.9479 C   0  0  0  0  0  0  0  0  0  0  0  0
   16.7421   27.1883   -4.3436 O   0  0  0  0  0  0  0  0  0  0  0  0
   12.3666   24.0459   -0.9488 N   0  0  0  0  0  0  0  0  0  0  0  0
   11.7220   24.7859   -1.3312 H   0  0  0  0  0  0  0  0  0  0  0  0
   11.7263   22.8105   -0.6733 C   0  0  0  0  0  0  0  0  0  0  0  0
   10.8549   22.2769   -1.6278 C   0  0  0  0  0  0  0  0  0  0  0  0
   10.2399   21.0794   -1.4229 C   0  0  0  0  0  0  0  0  0  0  0  0
   10.4260   20.3324   -0.2974 C   0  0  0  0  0  0  0  0  0  0  0  0
    9.8090   19.1378   -0.0980 F   0  0  0  0  0  0  0  0  0  0  0  0
   11.2793   20.8370    0.6557 C   0  0  0  0  0  0  0  0  0  0  0  0
   11.5665   19.9358    2.1233 Cl  0  0  0  0  0  0  0  0  0  0  0  0
   11.9164   22.0682    0.4522 C   0  0  0  0  0  0  0  0  0  0  0  0
   14.0725   26.7452   -4.8687 O   0  0  0  0  0  0  0  0  0  0  0  0
   14.5799   26.5868   -6.1604 C   0  0  0  0  0  0  0  0  0  0  0  0
 11 12  1  0  0  0
 12  1  1  0  0  0
  1  2  2  0  0  0
  2  3  1  0  0  0
  3  4  2  0  0  0
  4  5  1  0  0  0
  5  6  2  0  0  0
  6  7  1  0  0  0
  7 13  1  0  0  0
 13 15  1  0  0  0
 15 16  2  0  0  0
 16 17  1  0  0  0
 17 18  2  0  0  0
 18 19  1  0  0  0
 18 20  1  0  0  0
 20 21  1  0  0  0
 20 22  2  0  0  0
  7  8  2  0  0  0
  8  9  1  0  0  0
  9 10  2  0  0  0
 10 23  1  0  0  0
 23 24  1  0  0  0
 10  1  1  0  0  0
  8  3  1  0  0  0
 22 15  1  0  0  0
 13 14  1  0  0  0
M  END
> <minimizedAffinity>
-6.99517

> <CNNscore>
0.4404069781

> <CNNaffinity>
7.1666436195

> <CNN_VS>
3.1562397480

> <CNNaffinity_variance>
0.2080748081

$$$$
[H]c1nc(N([H])c2c([H])c([H])c(F)c(Cl)c2[H])c2c([H])c(OC([H])([H])[H])c(OC([H])([H])[H])c([H])c2n1


 24 26  0  0  0  0  0  0  0  0999 V2000
   15.9047   26.0357   -3.0820 C   0  0  0  0  0  0  0  0  0  0  0  0
   16.6352   25.6427   -2.0023 C   0  0  0  0  0  0  0  0  0  0  0  0
   16.0996   24.8219   -1.0598 C   0  0  0  0  0  0  0  0  0  0  0  0
   16.7979   24.4121    0.0230 N   0  0  0  0  0  0  0  0  0  0  0  0
   16.2966   23.6013    0.9691 C   0  0  0  0  0  0  0  0  0  0  0  0
   15.0349   23.1935    0.8040 N   0  0  0  0  0  0  0  0  0  0  0  0
   14.2334   23.5247   -0.2216 C   0  0  0  0  0  0  0  0  0  0  0  0
   14.7886   24.3655   -1.1806 C   0  0  0  0  0  0  0  0  0  0  0  0
   14.0728   24.7792   -2.2836 C   0  0  0  0  0  0  0  0  0  0  0  0
   14.6183   25.6203   -3.2516 C   0  0  0  0  0  0  0  0  0  0  0  0
   17.2976   27.9750   -3.6731 C   0  0  0  0  0  0  0  0  0  0  0  0
   16.4893   26.8662   -4.0084 O   0  0  0  0  0  0  0  0  0  0  0  0
   12.9007   23.0977   -0.3388 N   0  0  0  0  0  0  0  0  0  0  0  0
   12.5128   22.6729   -1.2211 H   0  0  0  0  0  0  0  0  0  0  0  0
   11.9577   23.1963    0.7162 C   0  0  0  0  0  0  0  0  0  0  0  0
   11.2062   24.3689    0.8394 C   0  0  0  0  0  0  0  0  0  0  0  0
   10.2673   24.4996    1.8170 C   0  0  0  0  0  0  0  0  0  0  0  0
    9.9995   23.5181    2.7249 C   0  0  0  0  0  0  0  0  0  0  0  0
    9.0614   23.6542    3.6990 F   0  0  0  0  0  0  0  0  0  0  0  0
   10.7262   22.3550    2.6231 C   0  0  0  0  0  0  0  0  0  0  0  0
   10.4381   21.0540    3.7514 Cl  0  0  0  0  0  0  0  0  0  0  0  0
   11.6937   22.2125    1.6198 C   0  0  0  0  0  0  0  0  0  0  0  0
   13.8870   26.0212   -4.3442 O   0  0  0  0  0  0  0  0  0  0  0  0
   12.9550   27.0615   -4.3476 C   0  0  0  0  0  0  0  0  0  0  0  0
 11 12  1  0  0  0
 12  1  1  0  0  0
  1  2  2  0  0  0
  2  3  1  0  0  0
  3  4  2  0  0  0
  4  5  1  0  0  0
  5  6  2  0  0  0
  6  7  1  0  0  0
  7 13  1  0  0  0
 13 15  1  0  0  0
 15 16  2  0  0  0
 16 17  1  0  0  0
 17 18  2  0  0  0
 18 19  1  0  0  0
 18 20  1  0  0  0
 20 21  1  0  0  0
 20 22  2  0  0  0
  7  8  2  0  0  0
  8  9  1  0  0  0
  9 10  2  0  0  0
 10 23  1  0  0  0
 23 24  1  0  0  0
 10  1  1  0  0  0
  8  3  1  0  0  0
 22 15  1  0  0  0
 13 14  1  0  0  0
M  END
> <minimizedAffinity>
-6.91568

> <CNNscore>
0.4329877198

> <CNNaffinity>
6.9039735794

> <CNN_VS>
2.9893357754

> <CNNaffinity_variance>
0.2247170657

$$$$
[H]c1nc(N([H])c2c([H])c([H])c(F)c(Cl)c2[H])c2c([H])c(OC([H])([H])[H])c(OC([H])([H])[H])c([H])c2n1


 24 26  0  0  0  0  0  0  0  0999 V2000
   16.1050   26.7620   -3.5621 C   0  0  0  0  0  0  0  0  0  0  0  0
   16.5502   26.3096   -2.3576 C   0  0  0  0  0  0  0  0  0  0  0  0
   15.8555   25.3662   -1.6674 C   0  0  0  0  0  0  0  0  0  0  0  0
   16.2704   24.8948   -0.4701 N   0  0  0  0  0  0  0  0  0  0  0  0
   15.6067   23.9631    0.2338 C   0  0  0  0  0  0  0  0  0  0  0  0
   14.4768   23.4952   -0.3044 N   0  0  0  0  0  0  0  0  0  0  0  0
   13.9544   23.8764   -1.4815 C   0  0  0  0  0  0  0  0  0  0  0  0
   14.6705   24.8424   -2.1807 C   0  0  0  0  0  0  0  0  0  0  0  0
   14.2439   25.3187   -3.4018 C   0  0  0  0  0  0  0  0  0  0  0  0
   14.9532   26.2854   -4.1121 C   0  0  0  0  0  0  0  0  0  0  0  0
   18.1334   28.1278   -3.8268 C   0  0  0  0  0  0  0  0  0  0  0  0
   16.8415   27.7164   -4.2226 O   0  0  0  0  0  0  0  0  0  0  0  0
   12.7452   23.3801   -1.9950 N   0  0  0  0  0  0  0  0  0  0  0  0
   12.5250   23.3665   -3.0249 H   0  0  0  0  0  0  0  0  0  0  0  0
   11.7131   22.8513   -1.1782 C   0  0  0  0  0  0  0  0  0  0  0  0
   11.6438   21.4671   -0.9936 C   0  0  0  0  0  0  0  0  0  0  0  0
   10.6901   20.9139   -0.1945 C   0  0  0  0  0  0  0  0  0  0  0  0
    9.7559   21.6542    0.4677 C   0  0  0  0  0  0  0  0  0  0  0  0
    8.8058   21.0966    1.2638 F   0  0  0  0  0  0  0  0  0  0  0  0
    9.8045   23.0185    0.3017 C   0  0  0  0  0  0  0  0  0  0  0  0
    8.6400   24.0310    1.1185 Cl  0  0  0  0  0  0  0  0  0  0  0  0
   10.7831   23.5955   -0.5185 C   0  0  0  0  0  0  0  0  0  0  0  0
   14.5100   26.7470   -5.3286 O   0  0  0  0  0  0  0  0  0  0  0  0
   15.0738   26.4204   -6.5640 C   0  0  0  0  0  0  0  0  0  0  0  0
 11 12  1  0  0  0
 12  1  1  0  0  0
  1  2  2  0  0  0
  2  3  1  0  0  0
  3  4  2  0  0  0
  4  5  1  0  0  0
  5  6  2  0  0  0
  6  7  1  0  0  0
  7 13  1  0  0  0
 13 15  1  0  0  0
 15 16  2  0  0  0
 16 17  1  0  0  0
 17 18  2  0  0  0
 18 19  1  0  0  0
 18 20  1  0  0  0
 20 21  1  0  0  0
 20 22  2  0  0  0
  7  8  2  0  0  0
  8  9  1  0  0  0
  9 10  2  0  0  0
 10 23  1  0  0  0
 23 24  1  0  0  0
 10  1  1  0  0  0
  8  3  1  0  0  0
 22 15  1  0  0  0
 13 14  1  0  0  0
M  END
> <minimizedAffinity>
-7.72535

> <CNNscore>
0.4220322371

> <CNNaffinity>
7.0701231956

> <CNN_VS>
2.9838199615

> <CNNaffinity_variance>
0.2038120031

$$$$
[H]c1nc(N([H])c2c([H])c([H])c(F)c(Cl)c2[H])c2c([H])c(OC([H])([H])[H])c(OC([H])([H])[H])c([H])c2n1


 24 26  0  0  0  0  0  0  0  0999 V2000
   15.6409   24.3512   -3.7673 C   0  0  0  0  0  0  0  0  0  0  0  0
   15.7889   25.0876   -2.6317 C   0  0  0  0  0  0  0  0  0  0  0  0
   15.3645   24.6102   -1.4314 C   0  0  0  0  0  0  0  0  0  0  0  0
   15.4977   25.3150   -0.2852 N   0  0  0  0  0  0  0  0  0  0  0  0
   15.0897   24.8695    0.9144 C   0  0  0  0  0  0  0  0  0  0  0  0
   14.5242   23.6593    0.9454 N   0  0  0  0  0  0  0  0  0  0  0  0
   14.3319   22.8582   -0.1153 C   0  0  0  0  0  0  0  0  0  0  0  0
   14.7678   23.3543   -1.3395 C   0  0  0  0  0  0  0  0  0  0  0  0
   14.6310   22.6311   -2.5050 C   0  0  0  0  0  0  0  0  0  0  0  0
   15.0647   23.1170   -3.7370 C   0  0  0  0  0  0  0  0  0  0  0  0
   15.3629   25.8192   -5.7213 C   0  0  0  0  0  0  0  0  0  0  0  0
   16.0854   24.8760   -4.9576 O   0  0  0  0  0  0  0  0  0  0  0  0
   13.7033   21.6045   -0.0415 N   0  0  0  0  0  0  0  0  0  0  0  0
   14.2327   20.6959   -0.1008 H   0  0  0  0  0  0  0  0  0  0  0  0
   12.3031   21.4459    0.1213 C   0  0  0  0  0  0  0  0  0  0  0  0
   11.5248   21.1482   -1.0014 C   0  0  0  0  0  0  0  0  0  0  0  0
   10.1811   20.9568   -0.8914 C   0  0  0  0  0  0  0  0  0  0  0  0
    9.5142   21.0401    0.2950 C   0  0  0  0  0  0  0  0  0  0  0  0
    8.1726   20.8484    0.3989 F   0  0  0  0  0  0  0  0  0  0  0  0
   10.2592   21.3315    1.4136 C   0  0  0  0  0  0  0  0  0  0  0  0
    9.4734   21.4544    2.9680 Cl  0  0  0  0  0  0  0  0  0  0  0  0
   11.6423   21.5294    1.3089 C   0  0  0  0  0  0  0  0  0  0  0  0
   14.9187   22.3794   -4.8876 O   0  0  0  0  0  0  0  0  0  0  0  0
   14.9124   20.9841   -4.9505 C   0  0  0  0  0  0  0  0  0  0  0  0
 11 12  1  0  0  0
 12  1  1  0  0  0
  1  2  2  0  0  0
  2  3  1  0  0  0
  3  4  2  0  0  0
  4  5  1  0  0  0
  5  6  2  0  0  0
  6  7  1  0  0  0
  7 13  1  0  0  0
 13 15  1  0  0  0
 15 16  2  0  0  0
 16 17  1  0  0  0
 17 18  2  0  0  0
 18 19  1  0  0  0
 18 20  1  0  0  0
 20 21  1  0  0  0
 20 22  2  0  0  0
  7  8  2  0  0  0
  8  9  1  0  0  0
  9 10  2  0  0  0
 10 23  1  0  0  0
 23 24  1  0  0  0
 10  1  1  0  0  0
  8  3  1  0  0  0
 22 15  1  0  0  0
 13 14  1  0  0  0
M  END
> <minimizedAffinity>
-4.22235

> <CNNscore>
0.4198398888

> <CNNaffinity>
6.8624353409

> <CNN_VS>
2.8811240196

> <CNNaffinity_variance>
0.5285614729

$$$$
[H]Oc1c([H])c([H])c(C([H])([H])[C@@]([H])(C(=O)N2C([H])([H])c3c([H])c([H])c([H])c([H])c3C([H])([H])[C@@]2([H])C(=O)N([H])[C@]([H])(C(=O)N([H])[C@]([H])(C(=O)N([H])[H])C([H])([H])c2c([H])c([H])c([H])c([H])c2[H])C([H])([H])c2c([H])c([H])c([H])c([H])c2[H])N([H])[H])c([H])c1[H]


 54 58  0  0  0  0  0  0  0  0999 V2000
   10.7038   23.9683    0.5601 C   0  0  0  0  0  0  0  0  0  0  0  0
   11.2357   22.8164    0.5370 O   0  0  0  0  0  0  0  0  0  0  0  0
   11.1963   24.9488   -0.3394 N   0  0  0  0  0  0  0  0  0  0  0  0
   10.7733   25.8916   -0.3332 H   0  0  0  0  0  0  0  0  0  0  0  0
    8.5249   21.9662    1.5065 C   0  0  0  0  0  0  0  0  0  0  0  0
    9.5905   21.3017    1.2363 O   0  0  0  0  0  0  0  0  0  0  0  0
    8.5408   23.3706    1.6224 N   0  0  0  0  0  0  0  0  0  0  0  0
    7.2691   24.0279    1.9742 C   0  0  0  0  0  0  0  0  0  0  0  0
    7.5338   24.7783    3.2295 C   0  0  0  0  0  0  0  0  0  0  0  0
    6.4581   25.1760    4.0295 C   0  0  0  0  0  0  0  0  0  0  0  0
    6.6410   25.8676    5.2080 C   0  0  0  0  0  0  0  0  0  0  0  0
    7.9168   26.1751    5.6097 C   0  0  0  0  0  0  0  0  0  0  0  0
    8.9741   25.7857    4.8252 C   0  0  0  0  0  0  0  0  0  0  0  0
    8.8086   25.0894    3.6357 C   0  0  0  0  0  0  0  0  0  0  0  0
   10.0434   24.7308    2.8613 C   0  0  0  0  0  0  0  0  0  0  0  0
    9.6359   24.2701    1.4720 C   0  0  0  0  0  0  0  0  0  0  0  0
    6.2192   21.7766    0.9223 N   0  0  0  0  0  0  0  0  0  0  0  0
    7.3098   21.1171    1.6772 C   0  0  0  0  0  0  0  0  0  0  0  0
    6.6534   22.0291    0.0083 H   0  0  0  0  0  0  0  0  0  0  0  0
    5.9751   22.6778    1.3839 H   0  0  0  0  0  0  0  0  0  0  0  0
    7.5253   19.8182    0.8826 C   0  0  0  0  0  0  0  0  0  0  0  0
    6.8822   19.8628   -0.4316 C   0  0  0  0  0  0  0  0  0  0  0  0
    7.6112   19.9259   -1.5917 C   0  0  0  0  0  0  0  0  0  0  0  0
    7.0165   19.9693   -2.8392 C   0  0  0  0  0  0  0  0  0  0  0  0
    5.6397   19.9485   -2.9183 C   0  0  0  0  0  0  0  0  0  0  0  0
    5.0073   19.9906   -4.1565 O   0  0  0  0  0  0  0  0  0  0  0  0
    4.8735   19.8847   -1.7692 C   0  0  0  0  0  0  0  0  0  0  0  0
    5.5092   19.8432   -0.5457 C   0  0  0  0  0  0  0  0  0  0  0  0
    4.0052   19.9748   -4.2375 H   0  0  0  0  0  0  0  0  0  0  0  0
   12.2815   24.7092   -1.2905 C   0  0  0  0  0  0  0  0  0  0  0  0
   13.4969   24.2718   -0.5970 C   0  0  0  0  0  0  0  0  0  0  0  0
   13.7893   24.7950    0.5042 O   0  0  0  0  0  0  0  0  0  0  0  0
   14.3719   23.2757   -1.1006 N   0  0  0  0  0  0  0  0  0  0  0  0
   14.1182   22.8556   -2.0223 H   0  0  0  0  0  0  0  0  0  0  0  0
   15.5571   22.8570   -0.3798 C   0  0  0  0  0  0  0  0  0  0  0  0
   15.3231   21.8380    0.6505 C   0  0  0  0  0  0  0  0  0  0  0  0
   14.3597   20.8128    0.5476 N   0  0  0  0  0  0  0  0  0  0  0  0
   16.0021   21.8203    1.7397 O   0  0  0  0  0  0  0  0  0  0  0  0
   13.6992   20.6494    1.3191 H   0  0  0  0  0  0  0  0  0  0  0  0
   14.3206   20.2284   -0.2993 H   0  0  0  0  0  0  0  0  0  0  0  0
   16.3079   24.0653    0.1652 C   0  0  0  0  0  0  0  0  0  0  0  0
   16.6089   25.0754   -0.8744 C   0  0  0  0  0  0  0  0  0  0  0  0
   17.3883   24.7169   -1.9530 C   0  0  0  0  0  0  0  0  0  0  0  0
   17.6771   25.6315   -2.9133 C   0  0  0  0  0  0  0  0  0  0  0  0
   17.2110   26.9336   -2.8472 C   0  0  0  0  0  0  0  0  0  0  0  0
   16.4420   27.2895   -1.7823 C   0  0  0  0  0  0  0  0  0  0  0  0
   16.1403   26.3685   -0.7992 C   0  0  0  0  0  0  0  0  0  0  0  0
   12.4266   25.8309   -2.2582 C   0  0  0  0  0  0  0  0  0  0  0  0
   13.4264   25.6088   -3.3269 C   0  0  0  0  0  0  0  0  0  0  0  0
   14.1283   24.4465   -3.4525 C   0  0  0  0  0  0  0  0  0  0  0  0
   15.0437   24.3288   -4.4744 C   0  0  0  0  0  0  0  0  0  0  0  0
   15.2757   25.3533   -5.3814 C   0  0  0  0  0  0  0  0  0  0  0  0
   14.5473   26.5213   -5.2286 C   0  0  0  0  0  0  0  0  0  0  0  0
   13.6411   26.6265   -4.2094 C   0  0  0  0  0  0  0  0  0  0  0  0
 17 18  1  0  0  0
 18 21  1  0  0  0
 21 22  1  0  0  0
 22 23  2  0  0  0
 23 24  1  0  0  0
 24 25  2  0  0  0
 25 26  1  0  0  0
 25 27  1  0  0  0
 27 28  2  0  0  0
 18  5  1  0  0  0
  5  6  2  0  0  0
  5  7  1  0  0  0
  7  8  1  0  0  0
  8  9  1  0  0  0
  9 10  2  0  0  0
 10 11  1  0  0  0
 11 12  2  0  0  0
 12 13  1  0  0  0
 13 14  2  0  0  0
 14 15  1  0  0  0
 15 16  1  0  0  0
 16  1  1  0  0  0
  1  2  2  0  0  0
  1  3  1  0  0  0
  3 30  1  0  0  0
 30 48  1  0  0  0
 48 49  1  0  0  0
 49 50  2  0  0  0
 50 51  1  0  0  0
 51 52  2  0  0  0
 52 53  1  0  0  0
 53 54  2  0  0  0
 30 31  1  0  0  0
 31 32  2  0  0  0
 31 33  1  0  0  0
 33 35  1  0  0  0
 35 41  1  0  0  0
 41 42  1  0  0  0
 42 43  2  0  0  0
 43 44  1  0  0  0
 44 45  2  0  0  0
 45 46  1  0  0  0
 46 47  2  0  0  0
 35 36  1  0  0  0
 36 37  1  0  0  0
 36 38  2  0  0  0
 28 22  1  0  0  0
 16  7  1  0  0  0
 54 49  1  0  0  0
 47 42  1  0  0  0
 14  9  1  0  0  0
 17 19  1  0  0  0
 17 20  1  0  0  0
 26 29  1  0  0  0
  3  4  1  0  0  0
 33 34  1  0  0  0
 37 39  1  0  0  0
 37 40  1  0  0  0
M  END
> <minimizedAffinity>
-3.63880

> <CNNscore>
0.4890421033

> <CNNaffinity>
8.0049324036

> <CNN_VS>
3.9147489071

> <CNNaffinity_variance>
0.3811761439

$$$$
[H]Oc1c([H])c([H])c(C([H])([H])[C@@]([H])(C(=O)N2C([H])([H])c3c([H])c([H])c([H])c([H])c3C([H])([H])[C@@]2([H])C(=O)N([H])[C@]([H])(C(=O)N([H])[C@]([H])(C(=O)N([H])[H])C([H])([H])c2c([H])c([H])c([H])c([H])c2[H])C([H])([H])c2c([H])c([H])c([H])c([H])c2[H])N([H])[H])c([H])c1[H]


 54 58  0  0  0  0  0  0  0  0999 V2000
   10.8726   21.3743   -1.4313 C   0  0  0  0  0  0  0  0  0  0  0  0
   11.9546   20.7254   -1.5672 O   0  0  0  0  0  0  0  0  0  0  0  0
   10.9221   22.7870   -1.5532 N   0  0  0  0  0  0  0  0  0  0  0  0
   10.0494   23.3298   -1.4455 H   0  0  0  0  0  0  0  0  0  0  0  0
    9.1422   21.7412    1.1228 C   0  0  0  0  0  0  0  0  0  0  0  0
    9.7761   22.8374    0.9065 O   0  0  0  0  0  0  0  0  0  0  0  0
    9.0693   20.7265    0.1476 N   0  0  0  0  0  0  0  0  0  0  0  0
    8.2829   19.5268    0.4871 C   0  0  0  0  0  0  0  0  0  0  0  0
    7.2321   19.4211   -0.5585 C   0  0  0  0  0  0  0  0  0  0  0  0
    6.0974   18.6416   -0.3130 C   0  0  0  0  0  0  0  0  0  0  0  0
    5.0862   18.5113   -1.2409 C   0  0  0  0  0  0  0  0  0  0  0  0
    5.1948   19.1662   -2.4420 C   0  0  0  0  0  0  0  0  0  0  0  0
    6.3083   19.9316   -2.6850 C   0  0  0  0  0  0  0  0  0  0  0  0
    7.3362   20.0738   -1.7627 C   0  0  0  0  0  0  0  0  0  0  0  0
    8.5072   20.9286   -2.1515 C   0  0  0  0  0  0  0  0  0  0  0  0
    9.6350   20.6976   -1.1601 C   0  0  0  0  0  0  0  0  0  0  0  0
    9.5390   22.1061    3.4472 N   0  0  0  0  0  0  0  0  0  0  0  0
    8.5140   21.6626    2.4740 C   0  0  0  0  0  0  0  0  0  0  0  0
    9.9444   22.9674    3.0212 H   0  0  0  0  0  0  0  0  0  0  0  0
   10.3118   21.4085    3.4774 H   0  0  0  0  0  0  0  0  0  0  0  0
    7.4597   22.7780    2.5707 C   0  0  0  0  0  0  0  0  0  0  0  0
    7.9288   23.9122    3.3683 C   0  0  0  0  0  0  0  0  0  0  0  0
    7.8229   23.9276    4.7358 C   0  0  0  0  0  0  0  0  0  0  0  0
    8.2611   24.9927    5.5010 C   0  0  0  0  0  0  0  0  0  0  0  0
    8.8249   26.0786    4.8645 C   0  0  0  0  0  0  0  0  0  0  0  0
    9.2770   27.1676    5.6024 O   0  0  0  0  0  0  0  0  0  0  0  0
    8.9479   26.0966    3.4875 C   0  0  0  0  0  0  0  0  0  0  0  0
    8.4970   25.0123    2.7639 C   0  0  0  0  0  0  0  0  0  0  0  0
    9.6926   27.9688    5.1593 H   0  0  0  0  0  0  0  0  0  0  0  0
   12.1474   23.5382   -1.8252 C   0  0  0  0  0  0  0  0  0  0  0  0
   13.1838   23.2228   -0.8374 C   0  0  0  0  0  0  0  0  0  0  0  0
   12.9758   23.4944    0.3688 O   0  0  0  0  0  0  0  0  0  0  0  0
   14.4228   22.6164   -1.1669 N   0  0  0  0  0  0  0  0  0  0  0  0
   14.5835   22.4037   -2.1765 H   0  0  0  0  0  0  0  0  0  0  0  0
   15.4183   22.3046   -0.1612 C   0  0  0  0  0  0  0  0  0  0  0  0
   15.0056   21.2950    0.8212 C   0  0  0  0  0  0  0  0  0  0  0  0
   13.7738   20.6086    0.7832 N   0  0  0  0  0  0  0  0  0  0  0  0
   15.7648   20.9683    1.8034 O   0  0  0  0  0  0  0  0  0  0  0  0
   13.1849   20.5635    1.6254 H   0  0  0  0  0  0  0  0  0  0  0  0
   13.4674   20.1521   -0.0874 H   0  0  0  0  0  0  0  0  0  0  0  0
   15.9283   23.5781    0.5012 C   0  0  0  0  0  0  0  0  0  0  0  0
   16.2917   24.6308   -0.4742 C   0  0  0  0  0  0  0  0  0  0  0  0
   16.9752   24.2792   -1.6181 C   0  0  0  0  0  0  0  0  0  0  0  0
   17.3194   25.2322   -2.5210 C   0  0  0  0  0  0  0  0  0  0  0  0
   17.0053   26.5673   -2.3312 C   0  0  0  0  0  0  0  0  0  0  0  0
   16.3311   26.9163   -1.2017 C   0  0  0  0  0  0  0  0  0  0  0  0
   15.9744   25.9565   -0.2758 C   0  0  0  0  0  0  0  0  0  0  0  0
   11.8693   24.9799   -2.0707 C   0  0  0  0  0  0  0  0  0  0  0  0
   12.7866   25.6390   -3.0273 C   0  0  0  0  0  0  0  0  0  0  0  0
   12.6431   26.9391   -3.4129 C   0  0  0  0  0  0  0  0  0  0  0  0
   13.5405   27.4694   -4.3126 C   0  0  0  0  0  0  0  0  0  0  0  0
   14.5866   26.7255   -4.8400 C   0  0  0  0  0  0  0  0  0  0  0  0
   14.7069   25.4083   -4.4290 C   0  0  0  0  0  0  0  0  0  0  0  0
   13.8092   24.8926   -3.5351 C   0  0  0  0  0  0  0  0  0  0  0  0
 17 18  1  0  0  0
 18 21  1  0  0  0
 21 22  1  0  0  0
 22 23  2  0  0  0
 23 24  1  0  0  0
 24 25  2  0  0  0
 25 26  1  0  0  0
 25 27  1  0  0  0
 27 28  2  0  0  0
 18  5  1  0  0  0
  5  6  2  0  0  0
  5  7  1  0  0  0
  7  8  1  0  0  0
  8  9  1  0  0  0
  9 10  2  0  0  0
 10 11  1  0  0  0
 11 12  2  0  0  0
 12 13  1  0  0  0
 13 14  2  0  0  0
 14 15  1  0  0  0
 15 16  1  0  0  0
 16  1  1  0  0  0
  1  2  2  0  0  0
  1  3  1  0  0  0
  3 30  1  0  0  0
 30 48  1  0  0  0
 48 49  1  0  0  0
 49 50  2  0  0  0
 50 51  1  0  0  0
 51 52  2  0  0  0
 52 53  1  0  0  0
 53 54  2  0  0  0
 30 31  1  0  0  0
 31 32  2  0  0  0
 31 33  1  0  0  0
 33 35  1  0  0  0
 35 41  1  0  0  0
 41 42  1  0  0  0
 42 43  2  0  0  0
 43 44  1  0  0  0
 44 45  2  0  0  0
 45 46  1  0  0  0
 46 47  2  0  0  0
 35 36  1  0  0  0
 36 37  1  0  0  0
 36 38  2  0  0  0
 28 22  1  0  0  0
 16  7  1  0  0  0
 54 49  1  0  0  0
 47 42  1  0  0  0
 14  9  1  0  0  0
 17 19  1  0  0  0
 17 20  1  0  0  0
 26 29  1  0  0  0
  3  4  1  0  0  0
 33 34  1  0  0  0
 37 39  1  0  0  0
 37 40  1  0  0  0
M  END
> <minimizedAffinity>
-2.93756

> <CNNscore>
0.4276186526

> <CNNaffinity>
7.7888212204

> <CNN_VS>
3.3306453228

> <CNNaffinity_variance>
0.2493536174

$$$$
[H]Oc1c([H])c([H])c(C([H])([H])[C@@]([H])(C(=O)N2C([H])([H])c3c([H])c([H])c([H])c([H])c3C([H])([H])[C@@]2([H])C(=O)N([H])[C@]([H])(C(=O)N([H])[C@]([H])(C(=O)N([H])[H])C([H])([H])c2c([H])c([H])c([H])c([H])c2[H])C([H])([H])c2c([H])c([H])c([H])c([H])c2[H])N([H])[H])c([H])c1[H]


 54 58  0  0  0  0  0  0  0  0999 V2000
   10.9164   21.6533   -0.9039 C   0  0  0  0  0  0  0  0  0  0  0  0
   11.7955   20.7855   -1.1943 O   0  0  0  0  0  0  0  0  0  0  0  0
   11.1561   22.9990   -1.2843 N   0  0  0  0  0  0  0  0  0  0  0  0
   10.4496   23.7175   -1.0554 H   0  0  0  0  0  0  0  0  0  0  0  0
   10.4607   21.8986    2.1594 C   0  0  0  0  0  0  0  0  0  0  0  0
   11.2934   22.8096    1.8032 O   0  0  0  0  0  0  0  0  0  0  0  0
    9.7088   21.1753    1.2121 N   0  0  0  0  0  0  0  0  0  0  0  0
    8.7543   20.1802    1.7334 C   0  0  0  0  0  0  0  0  0  0  0  0
    7.4223   20.5837    1.2121 C   0  0  0  0  0  0  0  0  0  0  0  0
    6.2676   20.0956    1.8317 C   0  0  0  0  0  0  0  0  0  0  0  0
    5.0051   20.4400    1.3983 C   0  0  0  0  0  0  0  0  0  0  0  0
    4.8759   21.2879    0.3269 C   0  0  0  0  0  0  0  0  0  0  0  0
    6.0085   21.7677   -0.2830 C   0  0  0  0  0  0  0  0  0  0  0  0
    7.2874   21.4313    0.1395 C   0  0  0  0  0  0  0  0  0  0  0  0
    8.4461   22.0118   -0.6178 C   0  0  0  0  0  0  0  0  0  0  0  0
    9.7151   21.2833   -0.2089 C   0  0  0  0  0  0  0  0  0  0  0  0
   11.7231   21.2542    4.0790 N   0  0  0  0  0  0  0  0  0  0  0  0
   10.3806   21.6965    3.6357 C   0  0  0  0  0  0  0  0  0  0  0  0
   12.3816   21.9022    3.5951 H   0  0  0  0  0  0  0  0  0  0  0  0
   11.9186   20.3057    3.6957 H   0  0  0  0  0  0  0  0  0  0  0  0
   10.2519   23.0794    4.2958 C   0  0  0  0  0  0  0  0  0  0  0  0
    8.8586   23.4280    4.5780 C   0  0  0  0  0  0  0  0  0  0  0  0
    8.4847   24.7070    4.9032 C   0  0  0  0  0  0  0  0  0  0  0  0
    7.1725   25.0496    5.1727 C   0  0  0  0  0  0  0  0  0  0  0  0
    6.2053   24.0683    5.1121 C   0  0  0  0  0  0  0  0  0  0  0  0
    4.8751   24.3769    5.3769 O   0  0  0  0  0  0  0  0  0  0  0  0
    6.5464   22.7685    4.7870 C   0  0  0  0  0  0  0  0  0  0  0  0
    7.8680   22.4717    4.5258 C   0  0  0  0  0  0  0  0  0  0  0  0
    4.1536   23.6776    5.3369 H   0  0  0  0  0  0  0  0  0  0  0  0
   12.3576   23.4437   -1.9902 C   0  0  0  0  0  0  0  0  0  0  0  0
   13.5327   22.6852   -1.5509 C   0  0  0  0  0  0  0  0  0  0  0  0
   14.2791   22.1674   -2.4150 O   0  0  0  0  0  0  0  0  0  0  0  0
   13.8842   22.5027   -0.1890 N   0  0  0  0  0  0  0  0  0  0  0  0
   13.2482   22.9336    0.5181 H   0  0  0  0  0  0  0  0  0  0  0  0
   15.0629   21.7593    0.2082 C   0  0  0  0  0  0  0  0  0  0  0  0
   14.7963   20.5862    1.0492 C   0  0  0  0  0  0  0  0  0  0  0  0
   13.6481   20.4319    1.8542 N   0  0  0  0  0  0  0  0  0  0  0  0
   15.6184   19.6019    1.1039 O   0  0  0  0  0  0  0  0  0  0  0  0
   13.7463   20.1676    2.8434 H   0  0  0  0  0  0  0  0  0  0  0  0
   12.7135   20.5824    1.4492 H   0  0  0  0  0  0  0  0  0  0  0  0
   16.0993   22.6884    0.8274 C   0  0  0  0  0  0  0  0  0  0  0  0
   16.2161   23.9804    0.1143 C   0  0  0  0  0  0  0  0  0  0  0  0
   15.4481   25.0474    0.5279 C   0  0  0  0  0  0  0  0  0  0  0  0
   15.5400   26.2381   -0.1171 C   0  0  0  0  0  0  0  0  0  0  0  0
   16.3900   26.4228   -1.1943 C   0  0  0  0  0  0  0  0  0  0  0  0
   17.1485   25.3700   -1.6045 C   0  0  0  0  0  0  0  0  0  0  0  0
   17.0650   24.1539   -0.9566 C   0  0  0  0  0  0  0  0  0  0  0  0
   12.4787   24.9274   -1.9955 C   0  0  0  0  0  0  0  0  0  0  0  0
   13.3256   25.4813   -3.0757 C   0  0  0  0  0  0  0  0  0  0  0  0
   14.3666   24.7932   -3.6254 C   0  0  0  0  0  0  0  0  0  0  0  0
   15.1053   25.3888   -4.6232 C   0  0  0  0  0  0  0  0  0  0  0  0
   14.8257   26.6659   -5.0888 C   0  0  0  0  0  0  0  0  0  0  0  0
   13.7621   27.3396   -4.5117 C   0  0  0  0  0  0  0  0  0  0  0  0
   13.0359   26.7377   -3.5210 C   0  0  0  0  0  0  0  0  0  0  0  0
 17 18  1  0  0  0
 18 21  1  0  0  0
 21 22  1  0  0  0
 22 23  2  0  0  0
 23 24  1  0  0  0
 24 25  2  0  0  0
 25 26  1  0  0  0
 25 27  1  0  0  0
 27 28  2  0  0  0
 18  5  1  0  0  0
  5  6  2  0  0  0
  5  7  1  0  0  0
  7  8  1  0  0  0
  8  9  1  0  0  0
  9 10  2  0  0  0
 10 11  1  0  0  0
 11 12  2  0  0  0
 12 13  1  0  0  0
 13 14  2  0  0  0
 14 15  1  0  0  0
 15 16  1  0  0  0
 16  1  1  0  0  0
  1  2  2  0  0  0
  1  3  1  0  0  0
  3 30  1  0  0  0
 30 48  1  0  0  0
 48 49  1  0  0  0
 49 50  2  0  0  0
 50 51  1  0  0  0
 51 52  2  0  0  0
 52 53  1  0  0  0
 53 54  2  0  0  0
 30 31  1  0  0  0
 31 32  2  0  0  0
 31 33  1  0  0  0
 33 35  1  0  0  0
 35 41  1  0  0  0
 41 42  1  0  0  0
 42 43  2  0  0  0
 43 44  1  0  0  0
 44 45  2  0  0  0
 45 46  1  0  0  0
 46 47  2  0  0  0
 35 36  1  0  0  0
 36 37  1  0  0  0
 36 38  2  0  0  0
 28 22  1  0  0  0
 16  7  1  0  0  0
 54 49  1  0  0  0
 47 42  1  0  0  0
 14  9  1  0  0  0
 17 19  1  0  0  0
 17 20  1  0  0  0
 26 29  1  0  0  0
  3  4  1  0  0  0
 33 34  1  0  0  0
 37 39  1  0  0  0
 37 40  1  0  0  0
M  END
> <minimizedAffinity>
-2.47709

> <CNNscore>
0.3345856369

> <CNNaffinity>
7.6338286400

> <CNN_VS>
2.5541694164

> <CNNaffinity_variance>
0.3616995215

$$$$
[H]Oc1c([H])c([H])c(C([H])([H])[C@@]([H])(C(=O)N2C([H])([H])c3c([H])c([H])c([H])c([H])c3C([H])([H])[C@@]2([H])C(=O)N([H])[C@]([H])(C(=O)N([H])[C@]([H])(C(=O)N([H])[H])C([H])([H])c2c([H])c([H])c([H])c([H])c2[H])C([H])([H])c2c([H])c([H])c([H])c([H])c2[H])N([H])[H])c([H])c1[H]


 54 58  0  0  0  0  0  0  0  0999 V2000
   10.8013   23.1242    0.9315 C   0  0  0  0  0  0  0  0  0  0  0  0
    9.9759   24.0870    0.9773 O   0  0  0  0  0  0  0  0  0  0  0  0
   10.2864   21.8023    0.9517 N   0  0  0  0  0  0  0  0  0  0  0  0
   10.9457   21.0075    0.9146 H   0  0  0  0  0  0  0  0  0  0  0  0
   12.7428   21.8800   -1.1504 C   0  0  0  0  0  0  0  0  0  0  0  0
   11.5804   21.9705   -1.6895 O   0  0  0  0  0  0  0  0  0  0  0  0
   13.0501   22.5410    0.0556 N   0  0  0  0  0  0  0  0  0  0  0  0
   14.4265   22.4003    0.5645 C   0  0  0  0  0  0  0  0  0  0  0  0
   14.9641   23.7819    0.6681 C   0  0  0  0  0  0  0  0  0  0  0  0
   16.3474   23.9754    0.7354 C   0  0  0  0  0  0  0  0  0  0  0  0
   16.9053   25.2328    0.8250 C   0  0  0  0  0  0  0  0  0  0  0  0
   16.0795   26.3288    0.8484 C   0  0  0  0  0  0  0  0  0  0  0  0
   14.7211   26.1407    0.7828 C   0  0  0  0  0  0  0  0  0  0  0  0
   14.1420   24.8822    0.6927 C   0  0  0  0  0  0  0  0  0  0  0  0
   12.6438   24.8074    0.6399 C   0  0  0  0  0  0  0  0  0  0  0  0
   12.2154   23.3669    0.8631 C   0  0  0  0  0  0  0  0  0  0  0  0
   12.9571   19.8082   -2.3145 N   0  0  0  0  0  0  0  0  0  0  0  0
   13.6989   21.0265   -1.9147 C   0  0  0  0  0  0  0  0  0  0  0  0
   12.0477   20.1667   -2.6777 H   0  0  0  0  0  0  0  0  0  0  0  0
   12.7282   19.2488   -1.4662 H   0  0  0  0  0  0  0  0  0  0  0  0
   13.9671   21.7102   -3.2657 C   0  0  0  0  0  0  0  0  0  0  0  0
   14.5856   23.0270   -3.1040 C   0  0  0  0  0  0  0  0  0  0  0  0
   15.9472   23.1854   -3.0553 C   0  0  0  0  0  0  0  0  0  0  0  0
   16.5442   24.4231   -2.9021 C   0  0  0  0  0  0  0  0  0  0  0  0
   15.7399   25.5383   -2.7943 C   0  0  0  0  0  0  0  0  0  0  0  0
   16.3061   26.7993   -2.6394 O   0  0  0  0  0  0  0  0  0  0  0  0
   14.3636   25.4156   -2.8397 C   0  0  0  0  0  0  0  0  0  0  0  0
   13.8110   24.1611   -2.9937 C   0  0  0  0  0  0  0  0  0  0  0  0
   15.7388   27.6258   -2.5604 H   0  0  0  0  0  0  0  0  0  0  0  0
    8.8602   21.4852    1.0234 C   0  0  0  0  0  0  0  0  0  0  0  0
    8.3882   21.5118    2.4111 C   0  0  0  0  0  0  0  0  0  0  0  0
    8.8943   20.7187    3.2399 O   0  0  0  0  0  0  0  0  0  0  0  0
    7.3832   22.3954    2.8810 N   0  0  0  0  0  0  0  0  0  0  0  0
    6.9666   23.0439    2.1766 H   0  0  0  0  0  0  0  0  0  0  0  0
    6.9521   22.4043    4.2644 C   0  0  0  0  0  0  0  0  0  0  0  0
    6.1881   21.2215    4.6787 C   0  0  0  0  0  0  0  0  0  0  0  0
    6.7274   20.1480    5.4181 N   0  0  0  0  0  0  0  0  0  0  0  0
    4.9461   21.0902    4.3824 O   0  0  0  0  0  0  0  0  0  0  0  0
    6.5887   19.1812    5.0954 H   0  0  0  0  0  0  0  0  0  0  0  0
    7.2576   20.3343    6.2809 H   0  0  0  0  0  0  0  0  0  0  0  0
    6.2256   23.7028    4.5912 C   0  0  0  0  0  0  0  0  0  0  0  0
    7.0492   24.9059    4.3342 C   0  0  0  0  0  0  0  0  0  0  0  0
    6.4450   26.0385    3.8328 C   0  0  0  0  0  0  0  0  0  0  0  0
    7.1858   27.1491    3.5880 C   0  0  0  0  0  0  0  0  0  0  0  0
    8.5493   27.1860    3.8258 C   0  0  0  0  0  0  0  0  0  0  0  0
    9.1476   26.0681    4.3201 C   0  0  0  0  0  0  0  0  0  0  0  0
    8.4053   24.9323    4.5743 C   0  0  0  0  0  0  0  0  0  0  0  0
    8.5210   20.2782    0.2210 C   0  0  0  0  0  0  0  0  0  0  0  0
    7.3307   20.4194   -0.6474 C   0  0  0  0  0  0  0  0  0  0  0  0
    7.2253   19.8092   -1.8623 C   0  0  0  0  0  0  0  0  0  0  0  0
    6.0827   20.0008   -2.6065 C   0  0  0  0  0  0  0  0  0  0  0  0
    5.0342   20.7937   -2.1615 C   0  0  0  0  0  0  0  0  0  0  0  0
    5.1700   21.3998   -0.9236 C   0  0  0  0  0  0  0  0  0  0  0  0
    6.3099   21.2023   -0.1937 C   0  0  0  0  0  0  0  0  0  0  0  0
 17 18  1  0  0  0
 18 21  1  0  0  0
 21 22  1  0  0  0
 22 23  2  0  0  0
 23 24  1  0  0  0
 24 25  2  0  0  0
 25 26  1  0  0  0
 25 27  1  0  0  0
 27 28  2  0  0  0
 18  5  1  0  0  0
  5  6  2  0  0  0
  5  7  1  0  0  0
  7  8  1  0  0  0
  8  9  1  0  0  0
  9 10  2  0  0  0
 10 11  1  0  0  0
 11 12  2  0  0  0
 12 13  1  0  0  0
 13 14  2  0  0  0
 14 15  1  0  0  0
 15 16  1  0  0  0
 16  1  1  0  0  0
  1  2  2  0  0  0
  1  3  1  0  0  0
  3 30  1  0  0  0
 30 48  1  0  0  0
 48 49  1  0  0  0
 49 50  2  0  0  0
 50 51  1  0  0  0
 51 52  2  0  0  0
 52 53  1  0  0  0
 53 54  2  0  0  0
 30 31  1  0  0  0
 31 32  2  0  0  0
 31 33  1  0  0  0
 33 35  1  0  0  0
 35 41  1  0  0  0
 41 42  1  0  0  0
 42 43  2  0  0  0
 43 44  1  0  0  0
 44 45  2  0  0  0
 45 46  1  0  0  0
 46 47  2  0  0  0
 35 36  1  0  0  0
 36 37  1  0  0  0
 36 38  2  0  0  0
 28 22  1  0  0  0
 16  7  1  0  0  0
 54 49  1  0  0  0
 47 42  1  0  0  0
 14  9  1  0  0  0
 17 19  1  0  0  0
 17 20  1  0  0  0
 26 29  1  0  0  0
  3  4  1  0  0  0
 33 34  1  0  0  0
 37 39  1  0  0  0
 37 40  1  0  0  0
M  END
> <minimizedAffinity>
-2.79173

> <CNNscore>
0.2718284726

> <CNNaffinity>
7.3959746361

> <CNN_VS>
2.0104365349

> <CNNaffinity_variance>
0.1507868469

$$$$
[H]Oc1c([H])c([H])c(C([H])([H])[C@@]([H])(C(=O)N2C([H])([H])c3c([H])c([H])c([H])c([H])c3C([H])([H])[C@@]2([H])C(=O)N([H])[C@]([H])(C(=O)N([H])[C@]([H])(C(=O)N([H])[H])C([H])([H])c2c([H])c([H])c([H])c([H])c2[H])C([H])([H])c2c([H])c([H])c([H])c([H])c2[H])N([H])[H])c([H])c1[H]


 54 58  0  0  0  0  0  0  0  0999 V2000
   10.5506   22.5391    0.9808 C   0  0  0  0  0  0  0  0  0  0  0  0
   11.6791   22.7596    1.5177 O   0  0  0  0  0  0  0  0  0  0  0  0
   10.4367   22.7033   -0.4239 N   0  0  0  0  0  0  0  0  0  0  0  0
    9.5244   22.5271   -0.8762 H   0  0  0  0  0  0  0  0  0  0  0  0
    9.2158   24.2440    3.2087 C   0  0  0  0  0  0  0  0  0  0  0  0
    9.7278   25.0438    2.3436 O   0  0  0  0  0  0  0  0  0  0  0  0
    9.0657   22.8682    2.9432 N   0  0  0  0  0  0  0  0  0  0  0  0
    8.4299   22.0494    3.9913 C   0  0  0  0  0  0  0  0  0  0  0  0
    7.2399   21.4274    3.3542 C   0  0  0  0  0  0  0  0  0  0  0  0
    6.2161   20.9223    4.1619 C   0  0  0  0  0  0  0  0  0  0  0  0
    5.0852   20.3411    3.6292 C   0  0  0  0  0  0  0  0  0  0  0  0
    4.9586   20.2556    2.2653 C   0  0  0  0  0  0  0  0  0  0  0  0
    5.9629   20.7506    1.4708 C   0  0  0  0  0  0  0  0  0  0  0  0
    7.1086   21.3384    1.9898 C   0  0  0  0  0  0  0  0  0  0  0  0
    8.1404   21.8305    1.0170 C   0  0  0  0  0  0  0  0  0  0  0  0
    9.4221   22.1368    1.7731 C   0  0  0  0  0  0  0  0  0  0  0  0
    9.2105   26.3307    4.3658 N   0  0  0  0  0  0  0  0  0  0  0  0
    8.8122   24.9087    4.4822 C   0  0  0  0  0  0  0  0  0  0  0  0
    8.8919   26.6113    3.4133 H   0  0  0  0  0  0  0  0  0  0  0  0
   10.2498   26.3987    4.3535 H   0  0  0  0  0  0  0  0  0  0  0  0
    7.2770   24.9947    4.5047 C   0  0  0  0  0  0  0  0  0  0  0  0
    6.7926   26.3128    4.0917 C   0  0  0  0  0  0  0  0  0  0  0  0
    6.1765   27.1653    4.9721 C   0  0  0  0  0  0  0  0  0  0  0  0
    5.7137   28.4125    4.5950 C   0  0  0  0  0  0  0  0  0  0  0  0
    5.8782   28.8125    3.2854 C   0  0  0  0  0  0  0  0  0  0  0  0
    5.4252   30.0606    2.8708 O   0  0  0  0  0  0  0  0  0  0  0  0
    6.4953   27.9790    2.3712 C   0  0  0  0  0  0  0  0  0  0  0  0
    6.9415   26.7431    2.7913 C   0  0  0  0  0  0  0  0  0  0  0  0
    5.5361   30.3731    1.9215 H   0  0  0  0  0  0  0  0  0  0  0  0
   11.5434   23.1129   -1.2881 C   0  0  0  0  0  0  0  0  0  0  0  0
   12.7352   22.2983   -1.0323 C   0  0  0  0  0  0  0  0  0  0  0  0
   12.9061   21.2476   -1.6948 O   0  0  0  0  0  0  0  0  0  0  0  0
   13.7228   22.6334   -0.0711 N   0  0  0  0  0  0  0  0  0  0  0  0
   13.5616   23.5071    0.4773 H   0  0  0  0  0  0  0  0  0  0  0  0
   14.8969   21.8118    0.1440 C   0  0  0  0  0  0  0  0  0  0  0  0
   14.6650   20.6046    0.9461 C   0  0  0  0  0  0  0  0  0  0  0  0
   13.5781   20.4360    1.8293 N   0  0  0  0  0  0  0  0  0  0  0  0
   15.4631   19.6008    0.8896 O   0  0  0  0  0  0  0  0  0  0  0  0
   13.7446   20.1208    2.7942 H   0  0  0  0  0  0  0  0  0  0  0  0
   12.6194   20.6272    1.5057 H   0  0  0  0  0  0  0  0  0  0  0  0
   16.0467   22.6514    0.6860 C   0  0  0  0  0  0  0  0  0  0  0  0
   16.1799   23.9580    0.0029 C   0  0  0  0  0  0  0  0  0  0  0  0
   15.4315   25.0269    0.4465 C   0  0  0  0  0  0  0  0  0  0  0  0
   15.5386   26.2309   -0.1707 C   0  0  0  0  0  0  0  0  0  0  0  0
   16.3851   26.4277   -1.2486 C   0  0  0  0  0  0  0  0  0  0  0  0
   17.1242   25.3731   -1.6883 C   0  0  0  0  0  0  0  0  0  0  0  0
   17.0251   24.1434   -1.0689 C   0  0  0  0  0  0  0  0  0  0  0  0
   11.7266   24.5902   -1.2894 C   0  0  0  0  0  0  0  0  0  0  0  0
   12.6529   25.1040   -2.3234 C   0  0  0  0  0  0  0  0  0  0  0  0
   13.6965   24.3735   -2.8098 C   0  0  0  0  0  0  0  0  0  0  0  0
   14.5118   24.9335   -3.7677 C   0  0  0  0  0  0  0  0  0  0  0  0
   14.3068   26.2164   -4.2555 C   0  0  0  0  0  0  0  0  0  0  0  0
   13.2386   26.9336   -3.7430 C   0  0  0  0  0  0  0  0  0  0  0  0
   12.4360   26.3668   -2.7913 C   0  0  0  0  0  0  0  0  0  0  0  0
 17 18  1  0  0  0
 18 21  1  0  0  0
 21 22  1  0  0  0
 22 23  2  0  0  0
 23 24  1  0  0  0
 24 25  2  0  0  0
 25 26  1  0  0  0
 25 27  1  0  0  0
 27 28  2  0  0  0
 18  5  1  0  0  0
  5  6  2  0  0  0
  5  7  1  0  0  0
  7  8  1  0  0  0
  8  9  1  0  0  0
  9 10  2  0  0  0
 10 11  1  0  0  0
 11 12  2  0  0  0
 12 13  1  0  0  0
 13 14  2  0  0  0
 14 15  1  0  0  0
 15 16  1  0  0  0
 16  1  1  0  0  0
  1  2  2  0  0  0
  1  3  1  0  0  0
  3 30  1  0  0  0
 30 48  1  0  0  0
 48 49  1  0  0  0
 49 50  2  0  0  0
 50 51  1  0  0  0
 51 52  2  0  0  0
 52 53  1  0  0  0
 53 54  2  0  0  0
 30 31  1  0  0  0
 31 32  2  0  0  0
 31 33  1  0  0  0
 33 35  1  0  0  0
 35 41  1  0  0  0
 41 42  1  0  0  0
 42 43  2  0  0  0
 43 44  1  0  0  0
 44 45  2  0  0  0
 45 46  1  0  0  0
 46 47  2  0  0  0
 35 36  1  0  0  0
 36 37  1  0  0  0
 36 38  2  0  0  0
 28 22  1  0  0  0
 16  7  1  0  0  0
 54 49  1  0  0  0
 47 42  1  0  0  0
 14  9  1  0  0  0
 17 19  1  0  0  0
 17 20  1  0  0  0
 26 29  1  0  0  0
  3  4  1  0  0  0
 33 34  1  0  0  0
 37 39  1  0  0  0
 37 40  1  0  0  0
M  END
> <minimizedAffinity>
-5.72912

> <CNNscore>
0.2595371008

> <CNNaffinity>
7.4542627335

> <CNN_VS>
1.9346576929

> <CNNaffinity_variance>
0.3454703987

$$$$
[H]Oc1c([H])c([H])c(C([H])([H])[C@@]([H])(C(=O)N2C([H])([H])c3c([H])c([H])c([H])c([H])c3C([H])([H])[C@@]2([H])C(=O)N([H])[C@]([H])(C(=O)N([H])[C@]([H])(C(=O)N([H])[H])C([H])([H])c2c([H])c([H])c([H])c([H])c2[H])C([H])([H])c2c([H])c([H])c([H])c([H])c2[H])N([H])[H])c([H])c1[H]


 54 58  0  0  0  0  0  0  0  0999 V2000
   10.8499   21.0879   -1.2312 C   0  0  0  0  0  0  0  0  0  0  0  0
   11.8663   20.4089   -0.8905 O   0  0  0  0  0  0  0  0  0  0  0  0
   11.0588   22.4065   -1.7114 N   0  0  0  0  0  0  0  0  0  0  0  0
   10.2412   22.9722   -1.9933 H   0  0  0  0  0  0  0  0  0  0  0  0
    8.7461   21.8372    0.9285 C   0  0  0  0  0  0  0  0  0  0  0  0
    9.5061   22.8551    0.7383 O   0  0  0  0  0  0  0  0  0  0  0  0
    8.7493   20.7389    0.0455 N   0  0  0  0  0  0  0  0  0  0  0  0
    7.8088   19.6420    0.3377 C   0  0  0  0  0  0  0  0  0  0  0  0
    6.9490   19.5127   -0.8676 C   0  0  0  0  0  0  0  0  0  0  0  0
    5.7220   18.8498   -0.7658 C   0  0  0  0  0  0  0  0  0  0  0  0
    4.8784   18.7048   -1.8465 C   0  0  0  0  0  0  0  0  0  0  0  0
    5.2525   19.2269   -3.0593 C   0  0  0  0  0  0  0  0  0  0  0  0
    6.4571   19.8777   -3.1612 C   0  0  0  0  0  0  0  0  0  0  0  0
    7.3191   20.0326   -2.0840 C   0  0  0  0  0  0  0  0  0  0  0  0
    8.6134   20.7532   -2.3260 C   0  0  0  0  0  0  0  0  0  0  0  0
    9.5270   20.5372   -1.1315 C   0  0  0  0  0  0  0  0  0  0  0  0
    8.8030   22.1498    3.2933 N   0  0  0  0  0  0  0  0  0  0  0  0
    7.8896   21.9412    2.1460 C   0  0  0  0  0  0  0  0  0  0  0  0
    9.4706   22.8798    2.9630 H   0  0  0  0  0  0  0  0  0  0  0  0
    9.3695   21.2890    3.4452 H   0  0  0  0  0  0  0  0  0  0  0  0
    7.1316   23.2775    2.0779 C   0  0  0  0  0  0  0  0  0  0  0  0
    7.6793   24.2698    3.0041 C   0  0  0  0  0  0  0  0  0  0  0  0
    7.3413   24.2824    4.3334 C   0  0  0  0  0  0  0  0  0  0  0  0
    7.8506   25.2144    5.2187 C   0  0  0  0  0  0  0  0  0  0  0  0
    8.7306   26.1656    4.7464 C   0  0  0  0  0  0  0  0  0  0  0  0
    9.2631   27.1185    5.6086 O   0  0  0  0  0  0  0  0  0  0  0  0
    9.0938   26.1822    3.4125 C   0  0  0  0  0  0  0  0  0  0  0  0
    8.5609   25.2333    2.5649 C   0  0  0  0  0  0  0  0  0  0  0  0
    9.9073   27.8199    5.2861 H   0  0  0  0  0  0  0  0  0  0  0  0
   12.3769   23.0286   -1.8352 C   0  0  0  0  0  0  0  0  0  0  0  0
   13.3157   22.4616   -0.8623 C   0  0  0  0  0  0  0  0  0  0  0  0
   14.3869   21.9573   -1.2749 O   0  0  0  0  0  0  0  0  0  0  0  0
   13.0850   22.4527    0.5371 N   0  0  0  0  0  0  0  0  0  0  0  0
   12.1850   22.8694    0.8635 H   0  0  0  0  0  0  0  0  0  0  0  0
   14.0434   21.8971    1.4712 C   0  0  0  0  0  0  0  0  0  0  0  0
   15.4498   22.0965    1.1018 C   0  0  0  0  0  0  0  0  0  0  0  0
   16.0310   23.3556    0.8430 N   0  0  0  0  0  0  0  0  0  0  0  0
   16.2582   21.1059    0.9882 O   0  0  0  0  0  0  0  0  0  0  0  0
   16.5781   23.5019   -0.0158 H   0  0  0  0  0  0  0  0  0  0  0  0
   15.9079   24.1256    1.5155 H   0  0  0  0  0  0  0  0  0  0  0  0
   13.7253   20.4355    1.7597 C   0  0  0  0  0  0  0  0  0  0  0  0
   12.7082   20.2644    2.8218 C   0  0  0  0  0  0  0  0  0  0  0  0
   12.3960   18.9935    3.2539 C   0  0  0  0  0  0  0  0  0  0  0  0
   11.4632   18.8184    4.2241 C   0  0  0  0  0  0  0  0  0  0  0  0
   10.8016   19.8875    4.8043 C   0  0  0  0  0  0  0  0  0  0  0  0
   11.1082   21.1430    4.3781 C   0  0  0  0  0  0  0  0  0  0  0  0
   12.0556   21.3348    3.3926 C   0  0  0  0  0  0  0  0  0  0  0  0
   12.2846   24.5131   -1.8938 C   0  0  0  0  0  0  0  0  0  0  0  0
   13.2219   25.1605   -2.8389 C   0  0  0  0  0  0  0  0  0  0  0  0
   13.0776   26.4507   -3.2561 C   0  0  0  0  0  0  0  0  0  0  0  0
   13.9946   26.9704   -4.1420 C   0  0  0  0  0  0  0  0  0  0  0  0
   15.0615   26.2254   -4.6245 C   0  0  0  0  0  0  0  0  0  0  0  0
   15.1822   24.9185   -4.1823 C   0  0  0  0  0  0  0  0  0  0  0  0
   14.2648   24.4133   -3.3024 C   0  0  0  0  0  0  0  0  0  0  0  0
 17 18  1  0  0  0
 18 21  1  0  0  0
 21 22  1  0  0  0
 22 23  2  0  0  0
 23 24  1  0  0  0
 24 25  2  0  0  0
 25 26  1  0  0  0
 25 27  1  0  0  0
 27 28  2  0  0  0
 18  5  1  0  0  0
  5  6  2  0  0  0
  5  7  1  0  0  0
  7  8  1  0  0  0
  8  9  1  0  0  0
  9 10  2  0  0  0
 10 11  1  0  0  0
 11 12  2  0  0  0
 12 13  1  0  0  0
 13 14  2  0  0  0
 14 15  1  0  0  0
 15 16  1  0  0  0
 16  1  1  0  0  0
  1  2  2  0  0  0
  1  3  1  0  0  0
  3 30  1  0  0  0
 30 48  1  0  0  0
 48 49  1  0  0  0
 49 50  2  0  0  0
 50 51  1  0  0  0
 51 52  2  0  0  0
 52 53  1  0  0  0
 53 54  2  0  0  0
 30 31  1  0  0  0
 31 32  2  0  0  0
 31 33  1  0  0  0
 33 35  1  0  0  0
 35 41  1  0  0  0
 41 42  1  0  0  0
 42 43  2  0  0  0
 43 44  1  0  0  0
 44 45  2  0  0  0
 45 46  1  0  0  0
 46 47  2  0  0  0
 35 36  1  0  0  0
 36 37  1  0  0  0
 36 38  2  0  0  0
 28 22  1  0  0  0
 16  7  1  0  0  0
 54 49  1  0  0  0
 47 42  1  0  0  0
 14  9  1  0  0  0
 17 19  1  0  0  0
 17 20  1  0  0  0
 26 29  1  0  0  0
  3  4  1  0  0  0
 33 34  1  0  0  0
 37 39  1  0  0  0
 37 40  1  0  0  0
M  END
> <minimizedAffinity>
-5.76892

> <CNNscore>
0.2560034692

> <CNNaffinity>
7.2933897972

> <CNN_VS>
1.8671331406

> <CNNaffinity_variance>
0.2018996179

$$$$
[H]Oc1c([H])c([H])c(C([H])([H])[C@@]([H])(C(=O)N2C([H])([H])c3c([H])c([H])c([H])c([H])c3C([H])([H])[C@@]2([H])C(=O)N([H])[C@]([H])(C(=O)N([H])[C@]([H])(C(=O)N([H])[H])C([H])([H])c2c([H])c([H])c([H])c([H])c2[H])C([H])([H])c2c([H])c([H])c([H])c([H])c2[H])N([H])[H])c([H])c1[H]


 54 58  0  0  0  0  0  0  0  0999 V2000
   11.1342   23.2705    0.4446 C   0  0  0  0  0  0  0  0  0  0  0  0
   10.3733   24.2701    0.2654 O   0  0  0  0  0  0  0  0  0  0  0  0
   10.5377   21.9868    0.5410 N   0  0  0  0  0  0  0  0  0  0  0  0
   11.1438   21.1626    0.6865 H   0  0  0  0  0  0  0  0  0  0  0  0
   13.2224   22.2151   -1.5994 C   0  0  0  0  0  0  0  0  0  0  0  0
   12.1274   22.4494   -2.2288 O   0  0  0  0  0  0  0  0  0  0  0  0
   13.4328   22.6817   -0.2864 N   0  0  0  0  0  0  0  0  0  0  0  0
   14.7411   22.3891    0.3267 C   0  0  0  0  0  0  0  0  0  0  0  0
   15.3274   23.7080    0.6807 C   0  0  0  0  0  0  0  0  0  0  0  0
   16.7036   23.8070    0.9080 C   0  0  0  0  0  0  0  0  0  0  0  0
   17.3060   25.0039    1.2321 C   0  0  0  0  0  0  0  0  0  0  0  0
   16.5330   26.1334    1.3346 C   0  0  0  0  0  0  0  0  0  0  0  0
   15.1816   26.0380    1.1121 C   0  0  0  0  0  0  0  0  0  0  0  0
   14.5582   24.8413    0.7853 C   0  0  0  0  0  0  0  0  0  0  0  0
   13.0717   24.8645    0.5784 C   0  0  0  0  0  0  0  0  0  0  0  0
   12.5573   23.4352    0.5483 C   0  0  0  0  0  0  0  0  0  0  0  0
   13.5518   20.1426   -2.7348 N   0  0  0  0  0  0  0  0  0  0  0  0
   14.2126   21.4209   -2.3837 C   0  0  0  0  0  0  0  0  0  0  0  0
   12.6053   20.4243   -3.0702 H   0  0  0  0  0  0  0  0  0  0  0  0
   13.3963   19.5846   -1.8692 H   0  0  0  0  0  0  0  0  0  0  0  0
   14.3798   22.0959   -3.7553 C   0  0  0  0  0  0  0  0  0  0  0  0
   14.9783   23.4272   -3.6453 C   0  0  0  0  0  0  0  0  0  0  0  0
   14.7832   24.3892   -4.6033 C   0  0  0  0  0  0  0  0  0  0  0  0
   15.3432   25.6501   -4.5121 C   0  0  0  0  0  0  0  0  0  0  0  0
   16.1265   25.9500   -3.4172 C   0  0  0  0  0  0  0  0  0  0  0  0
   16.7055   27.2085   -3.2923 O   0  0  0  0  0  0  0  0  0  0  0  0
   16.3439   25.0046   -2.4322 C   0  0  0  0  0  0  0  0  0  0  0  0
   15.7655   23.7592   -2.5643 C   0  0  0  0  0  0  0  0  0  0  0  0
   17.2786   27.4491   -2.5019 H   0  0  0  0  0  0  0  0  0  0  0  0
    9.0974   21.7493    0.4472 C   0  0  0  0  0  0  0  0  0  0  0  0
    8.4693   21.8177    1.7701 C   0  0  0  0  0  0  0  0  0  0  0  0
    7.9180   20.7917    2.2343 O   0  0  0  0  0  0  0  0  0  0  0  0
    8.4509   22.9887    2.5700 N   0  0  0  0  0  0  0  0  0  0  0  0
    8.9074   23.8363    2.1657 H   0  0  0  0  0  0  0  0  0  0  0  0
    7.8337   23.0154    3.8808 C   0  0  0  0  0  0  0  0  0  0  0  0
    6.9263   24.1458    4.1110 C   0  0  0  0  0  0  0  0  0  0  0  0
    6.1054   24.2847    5.2498 N   0  0  0  0  0  0  0  0  0  0  0  0
    6.8228   25.1037    3.2627 O   0  0  0  0  0  0  0  0  0  0  0  0
    5.1036   24.4903    5.1386 H   0  0  0  0  0  0  0  0  0  0  0  0
    6.5111   24.1817    6.1905 H   0  0  0  0  0  0  0  0  0  0  0  0
    8.8888   22.8920    4.9727 C   0  0  0  0  0  0  0  0  0  0  0  0
    9.5122   21.5503    5.0246 C   0  0  0  0  0  0  0  0  0  0  0  0
    8.7968   20.4976    5.5531 C   0  0  0  0  0  0  0  0  0  0  0  0
    9.3546   19.2616    5.6118 C   0  0  0  0  0  0  0  0  0  0  0  0
   10.6380   19.0158    5.1540 C   0  0  0  0  0  0  0  0  0  0  0  0
   11.3461   20.0544    4.6326 C   0  0  0  0  0  0  0  0  0  0  0  0
   10.7900   21.3162    4.5665 C   0  0  0  0  0  0  0  0  0  0  0  0
    8.7870   20.5535   -0.3832 C   0  0  0  0  0  0  0  0  0  0  0  0
    7.4476   20.5609   -1.0133 C   0  0  0  0  0  0  0  0  0  0  0  0
    7.1432   19.8123   -2.1116 C   0  0  0  0  0  0  0  0  0  0  0  0
    5.8718   19.8853   -2.6354 C   0  0  0  0  0  0  0  0  0  0  0  0
    4.8894   20.6948   -2.0827 C   0  0  0  0  0  0  0  0  0  0  0  0
    5.2282   21.4428   -0.9674 C   0  0  0  0  0  0  0  0  0  0  0  0
    6.4945   21.3622   -0.4564 C   0  0  0  0  0  0  0  0  0  0  0  0
 17 18  1  0  0  0
 18 21  1  0  0  0
 21 22  1  0  0  0
 22 23  2  0  0  0
 23 24  1  0  0  0
 24 25  2  0  0  0
 25 26  1  0  0  0
 25 27  1  0  0  0
 27 28  2  0  0  0
 18  5  1  0  0  0
  5  6  2  0  0  0
  5  7  1  0  0  0
  7  8  1  0  0  0
  8  9  1  0  0  0
  9 10  2  0  0  0
 10 11  1  0  0  0
 11 12  2  0  0  0
 12 13  1  0  0  0
 13 14  2  0  0  0
 14 15  1  0  0  0
 15 16  1  0  0  0
 16  1  1  0  0  0
  1  2  2  0  0  0
  1  3  1  0  0  0
  3 30  1  0  0  0
 30 48  1  0  0  0
 48 49  1  0  0  0
 49 50  2  0  0  0
 50 51  1  0  0  0
 51 52  2  0  0  0
 52 53  1  0  0  0
 53 54  2  0  0  0
 30 31  1  0  0  0
 31 32  2  0  0  0
 31 33  1  0  0  0
 33 35  1  0  0  0
 35 41  1  0  0  0
 41 42  1  0  0  0
 42 43  2  0  0  0
 43 44  1  0  0  0
 44 45  2  0  0  0
 45 46  1  0  0  0
 46 47  2  0  0  0
 35 36  1  0  0  0
 36 37  1  0  0  0
 36 38  2  0  0  0
 28 22  1  0  0  0
 16  7  1  0  0  0
 54 49  1  0  0  0
 47 42  1  0  0  0
 14  9  1  0  0  0
 17 19  1  0  0  0
 17 20  1  0  0  0
 26 29  1  0  0  0
  3  4  1  0  0  0
 33 34  1  0  0  0
 37 39  1  0  0  0
 37 40  1  0  0  0
M  END
> <minimizedAffinity>
-2.51496

> <CNNscore>
0.2459834069

> <CNNaffinity>
7.5939164162

> <CNN_VS>
1.8679773808

> <CNNaffinity_variance>
0.1051765233

$$$$
[H]Oc1c([H])c([H])c(C([H])([H])[C@@]([H])(C(=O)N2C([H])([H])c3c([H])c([H])c([H])c([H])c3C([H])([H])[C@@]2([H])C(=O)N([H])[C@]([H])(C(=O)N([H])[C@]([H])(C(=O)N([H])[H])C([H])([H])c2c([H])c([H])c([H])c([H])c2[H])C([H])([H])c2c([H])c([H])c([H])c([H])c2[H])N([H])[H])c([H])c1[H]


 54 58  0  0  0  0  0  0  0  0999 V2000
    9.8572   24.0861    1.2170 C   0  0  0  0  0  0  0  0  0  0  0  0
    9.8965   22.9124    0.7363 O   0  0  0  0  0  0  0  0  0  0  0  0
   10.8313   25.0197    0.7781 N   0  0  0  0  0  0  0  0  0  0  0  0
   10.8125   25.9798    1.1598 H   0  0  0  0  0  0  0  0  0  0  0  0
    8.6975   22.2247    3.4175 C   0  0  0  0  0  0  0  0  0  0  0  0
    9.8992   21.8476    3.1651 O   0  0  0  0  0  0  0  0  0  0  0  0
    8.1996   23.4597    2.9561 N   0  0  0  0  0  0  0  0  0  0  0  0
    6.8193   23.8097    3.3370 C   0  0  0  0  0  0  0  0  0  0  0  0
    6.9154   25.0977    4.0723 C   0  0  0  0  0  0  0  0  0  0  0  0
    5.8600   25.4948    4.8993 C   0  0  0  0  0  0  0  0  0  0  0  0
    5.8947   26.6744    5.6119 C   0  0  0  0  0  0  0  0  0  0  0  0
    6.9978   27.4842    5.5080 C   0  0  0  0  0  0  0  0  0  0  0  0
    8.0348   27.0961    4.6962 C   0  0  0  0  0  0  0  0  0  0  0  0
    8.0168   25.9123    3.9712 C   0  0  0  0  0  0  0  0  0  0  0  0
    9.2069   25.6056    3.1094 C   0  0  0  0  0  0  0  0  0  0  0  0
    8.8567   24.4570    2.1785 C   0  0  0  0  0  0  0  0  0  0  0  0
    7.8792   21.7643    5.6110 N   0  0  0  0  0  0  0  0  0  0  0  0
    7.9131   21.2447    4.2243 C   0  0  0  0  0  0  0  0  0  0  0  0
    7.6489   22.7756    5.5027 H   0  0  0  0  0  0  0  0  0  0  0  0
    8.8377   21.7290    6.0170 H   0  0  0  0  0  0  0  0  0  0  0  0
    6.4404   21.3497    3.7943 C   0  0  0  0  0  0  0  0  0  0  0  0
    6.0351   20.2338    2.9381 C   0  0  0  0  0  0  0  0  0  0  0  0
    5.8653   20.3847    1.5854 C   0  0  0  0  0  0  0  0  0  0  0  0
    5.4821   19.3394    0.7655 C   0  0  0  0  0  0  0  0  0  0  0  0
    5.2629   18.1002    1.3299 C   0  0  0  0  0  0  0  0  0  0  0  0
    4.8768   17.0257    0.5354 O   0  0  0  0  0  0  0  0  0  0  0  0
    5.4253   17.9119    2.6899 C   0  0  0  0  0  0  0  0  0  0  0  0
    5.8086   18.9831    3.4700 C   0  0  0  0  0  0  0  0  0  0  0  0
    4.7133   16.1135    0.9255 H   0  0  0  0  0  0  0  0  0  0  0  0
   11.8781   24.7074   -0.1947 C   0  0  0  0  0  0  0  0  0  0  0  0
   12.5931   23.4842    0.1817 C   0  0  0  0  0  0  0  0  0  0  0  0
   13.3903   23.5200    1.1487 O   0  0  0  0  0  0  0  0  0  0  0  0
   12.4323   22.2442   -0.4877 N   0  0  0  0  0  0  0  0  0  0  0  0
   11.7708   22.2332   -1.2955 H   0  0  0  0  0  0  0  0  0  0  0  0
   13.1446   21.0507   -0.0778 C   0  0  0  0  0  0  0  0  0  0  0  0
   14.2786   20.6856   -0.9352 C   0  0  0  0  0  0  0  0  0  0  0  0
   15.3973   19.9457   -0.4982 N   0  0  0  0  0  0  0  0  0  0  0  0
   14.3204   21.0299   -2.1711 O   0  0  0  0  0  0  0  0  0  0  0  0
   16.3475   20.2902   -0.6896 H   0  0  0  0  0  0  0  0  0  0  0  0
   15.2605   19.0608    0.0102 H   0  0  0  0  0  0  0  0  0  0  0  0
   12.1770   19.8911    0.1222 C   0  0  0  0  0  0  0  0  0  0  0  0
   10.8789   20.0979   -0.5588 C   0  0  0  0  0  0  0  0  0  0  0  0
    9.7747   19.3955   -0.1268 C   0  0  0  0  0  0  0  0  0  0  0  0
    8.5778   19.5702   -0.7423 C   0  0  0  0  0  0  0  0  0  0  0  0
    8.4231   20.4417   -1.8071 C   0  0  0  0  0  0  0  0  0  0  0  0
    9.5126   21.1354   -2.2354 C   0  0  0  0  0  0  0  0  0  0  0  0
   10.7356   20.9674   -1.6175 C   0  0  0  0  0  0  0  0  0  0  0  0
   12.7091   25.9002   -0.5151 C   0  0  0  0  0  0  0  0  0  0  0  0
   13.3783   25.8592   -1.8347 C   0  0  0  0  0  0  0  0  0  0  0  0
   12.8449   26.4305   -2.9522 C   0  0  0  0  0  0  0  0  0  0  0  0
   13.5346   26.3390   -4.1404 C   0  0  0  0  0  0  0  0  0  0  0  0
   14.7548   25.6853   -4.2392 C   0  0  0  0  0  0  0  0  0  0  0  0
   15.2714   25.1156   -3.0873 C   0  0  0  0  0  0  0  0  0  0  0  0
   14.5769   25.2127   -1.9129 C   0  0  0  0  0  0  0  0  0  0  0  0
 17 18  1  0  0  0
 18 21  1  0  0  0
 21 22  1  0  0  0
 22 23  2  0  0  0
 23 24  1  0  0  0
 24 25  2  0  0  0
 25 26  1  0  0  0
 25 27  1  0  0  0
 27 28  2  0  0  0
 18  5  1  0  0  0
  5  6  2  0  0  0
  5  7  1  0  0  0
  7  8  1  0  0  0
  8  9  1  0  0  0
  9 10  2  0  0  0
 10 11  1  0  0  0
 11 12  2  0  0  0
 12 13  1  0  0  0
 13 14  2  0  0  0
 14 15  1  0  0  0
 15 16  1  0  0  0
 16  1  1  0  0  0
  1  2  2  0  0  0
  1  3  1  0  0  0
  3 30  1  0  0  0
 30 48  1  0  0  0
 48 49  1  0  0  0
 49 50  2  0  0  0
 50 51  1  0  0  0
 51 52  2  0  0  0
 52 53  1  0  0  0
 53 54  2  0  0  0
 30 31  1  0  0  0
 31 32  2  0  0  0
 31 33  1  0  0  0
 33 35  1  0  0  0
 35 41  1  0  0  0
 41 42  1  0  0  0
 42 43  2  0  0  0
 43 44  1  0  0  0
 44 45  2  0  0  0
 45 46  1  0  0  0
 46 47  2  0  0  0
 35 36  1  0  0  0
 36 37  1  0  0  0
 36 38  2  0  0  0
 28 22  1  0  0  0
 16  7  1  0  0  0
 54 49  1  0  0  0
 47 42  1  0  0  0
 14  9  1  0  0  0
 17 19  1  0  0  0
 17 20  1  0  0  0
 26 29  1  0  0  0
  3  4  1  0  0  0
 33 34  1  0  0  0
 37 39  1  0  0  0
 37 40  1  0  0  0
M  END
> <minimizedAffinity>
-5.90414

> <CNNscore>
0.2371113151

> <CNNaffinity>
7.4347891808

> <CNN_VS>
1.7628726959

> <CNNaffinity_variance>
0.1517967135

$$$$
[H]Oc1c([H])c([H])c(C([H])([H])[C@@]([H])(C(=O)N2C([H])([H])c3c([H])c([H])c([H])c([H])c3C([H])([H])[C@@]2([H])C(=O)N([H])[C@]([H])(C(=O)N([H])[C@]([H])(C(=O)N([H])[H])C([H])([H])c2c([H])c([H])c([H])c([H])c2[H])C([H])([H])c2c([H])c([H])c([H])c([H])c2[H])N([H])[H])c([H])c1[H]


 54 58  0  0  0  0  0  0  0  0999 V2000
   11.7667   21.7794   -0.3010 C   0  0  0  0  0  0  0  0  0  0  0  0
   11.6098   20.8373    0.5345 O   0  0  0  0  0  0  0  0  0  0  0  0
   10.6328   22.2182   -1.0324 N   0  0  0  0  0  0  0  0  0  0  0  0
   10.7440   22.9848   -1.7163 H   0  0  0  0  0  0  0  0  0  0  0  0
   12.2915   24.4544   -1.7913 C   0  0  0  0  0  0  0  0  0  0  0  0
   11.1171   24.5071   -1.2735 O   0  0  0  0  0  0  0  0  0  0  0  0
   13.2139   23.4531   -1.4274 N   0  0  0  0  0  0  0  0  0  0  0  0
   14.5467   23.5104   -2.0547 C   0  0  0  0  0  0  0  0  0  0  0  0
   15.5183   23.6107   -0.9346 C   0  0  0  0  0  0  0  0  0  0  0  0
   16.8120   24.0764   -1.1897 C   0  0  0  0  0  0  0  0  0  0  0  0
   17.7544   24.1982   -0.1909 C   0  0  0  0  0  0  0  0  0  0  0  0
   17.4140   23.8531    1.0930 C   0  0  0  0  0  0  0  0  0  0  0  0
   16.1444   23.3953    1.3452 C   0  0  0  0  0  0  0  0  0  0  0  0
   15.1830   23.2658    0.3521 C   0  0  0  0  0  0  0  0  0  0  0  0
   13.8346   22.7419    0.7525 C   0  0  0  0  0  0  0  0  0  0  0  0
   13.0551   22.3819   -0.5010 C   0  0  0  0  0  0  0  0  0  0  0  0
   13.2048   26.6436   -2.0485 N   0  0  0  0  0  0  0  0  0  0  0  0
   12.5620   25.5322   -2.7872 C   0  0  0  0  0  0  0  0  0  0  0  0
   13.9251   26.1776   -1.4555 H   0  0  0  0  0  0  0  0  0  0  0  0
   12.5169   27.0640   -1.3891 H   0  0  0  0  0  0  0  0  0  0  0  0
   13.6930   25.0494   -3.7107 C   0  0  0  0  0  0  0  0  0  0  0  0
   14.7675   26.0363   -3.8286 C   0  0  0  0  0  0  0  0  0  0  0  0
   14.8115   26.9376   -4.8616 C   0  0  0  0  0  0  0  0  0  0  0  0
   15.8210   27.8743   -4.9852 C   0  0  0  0  0  0  0  0  0  0  0  0
   16.8197   27.9021   -4.0344 C   0  0  0  0  0  0  0  0  0  0  0  0
   17.8509   28.8310   -4.1268 O   0  0  0  0  0  0  0  0  0  0  0  0
   16.8067   27.0087   -2.9794 C   0  0  0  0  0  0  0  0  0  0  0  0
   15.7800   26.0911   -2.8957 C   0  0  0  0  0  0  0  0  0  0  0  0
   18.5881   28.8701   -3.4441 H   0  0  0  0  0  0  0  0  0  0  0  0
    9.2948   21.6471   -0.8800 C   0  0  0  0  0  0  0  0  0  0  0  0
    8.7681   21.9015    0.4644 C   0  0  0  0  0  0  0  0  0  0  0  0
    7.7623   21.2620    0.8535 O   0  0  0  0  0  0  0  0  0  0  0  0
    9.3377   22.8365    1.3659 N   0  0  0  0  0  0  0  0  0  0  0  0
   10.1699   23.3662    1.0237 H   0  0  0  0  0  0  0  0  0  0  0  0
    8.7993   23.0508    2.6940 C   0  0  0  0  0  0  0  0  0  0  0  0
    7.9824   24.2616    2.8392 C   0  0  0  0  0  0  0  0  0  0  0  0
    7.3531   24.6547    4.0389 N   0  0  0  0  0  0  0  0  0  0  0  0
    7.7861   25.0580    1.8518 O   0  0  0  0  0  0  0  0  0  0  0  0
    6.3548   24.9029    4.0378 H   0  0  0  0  0  0  0  0  0  0  0  0
    7.8949   24.6941    4.9136 H   0  0  0  0  0  0  0  0  0  0  0  0
    9.9045   22.9729    3.7396 C   0  0  0  0  0  0  0  0  0  0  0  0
   10.2015   21.5860    4.1639 C   0  0  0  0  0  0  0  0  0  0  0  0
    9.3064   20.9271    4.9788 C   0  0  0  0  0  0  0  0  0  0  0  0
    9.5648   19.6566    5.3803 C   0  0  0  0  0  0  0  0  0  0  0  0
   10.7146   18.9876    4.9962 C   0  0  0  0  0  0  0  0  0  0  0  0
   11.5999   19.6372    4.1923 C   0  0  0  0  0  0  0  0  0  0  0  0
   11.3485   20.9292    3.7762 C   0  0  0  0  0  0  0  0  0  0  0  0
    9.2333   20.2433   -1.3714 C   0  0  0  0  0  0  0  0  0  0  0  0
    7.8669   19.7010   -1.5439 C   0  0  0  0  0  0  0  0  0  0  0  0
    7.4001   18.6339   -0.8347 C   0  0  0  0  0  0  0  0  0  0  0  0
    6.1162   18.1925   -1.0642 C   0  0  0  0  0  0  0  0  0  0  0  0
    5.2807   18.7974   -1.9926 C   0  0  0  0  0  0  0  0  0  0  0  0
    5.7826   19.8792   -2.6970 C   0  0  0  0  0  0  0  0  0  0  0  0
    7.0597   20.3083   -2.4606 C   0  0  0  0  0  0  0  0  0  0  0  0
 17 18  1  0  0  0
 18 21  1  0  0  0
 21 22  1  0  0  0
 22 23  2  0  0  0
 23 24  1  0  0  0
 24 25  2  0  0  0
 25 26  1  0  0  0
 25 27  1  0  0  0
 27 28  2  0  0  0
 18  5  1  0  0  0
  5  6  2  0  0  0
  5  7  1  0  0  0
  7  8  1  0  0  0
  8  9  1  0  0  0
  9 10  2  0  0  0
 10 11  1  0  0  0
 11 12  2  0  0  0
 12 13  1  0  0  0
 13 14  2  0  0  0
 14 15  1  0  0  0
 15 16  1  0  0  0
 16  1  1  0  0  0
  1  2  2  0  0  0
  1  3  1  0  0  0
  3 30  1  0  0  0
 30 48  1  0  0  0
 48 49  1  0  0  0
 49 50  2  0  0  0
 50 51  1  0  0  0
 51 52  2  0  0  0
 52 53  1  0  0  0
 53 54  2  0  0  0
 30 31  1  0  0  0
 31 32  2  0  0  0
 31 33  1  0  0  0
 33 35  1  0  0  0
 35 41  1  0  0  0
 41 42  1  0  0  0
 42 43  2  0  0  0
 43 44  1  0  0  0
 44 45  2  0  0  0
 45 46  1  0  0  0
 46 47  2  0  0  0
 35 36  1  0  0  0
 36 37  1  0  0  0
 36 38  2  0  0  0
 28 22  1  0  0  0
 16  7  1  0  0  0
 54 49  1  0  0  0
 47 42  1  0  0  0
 14  9  1  0  0  0
 17 19  1  0  0  0
 17 20  1  0  0  0
 26 29  1  0  0  0
  3  4  1  0  0  0
 33 34  1  0  0  0
 37 39  1  0  0  0
 37 40  1  0  0  0
M  END
> <minimizedAffinity>
-5.40682

> <CNNscore>
0.2297069728

> <CNNaffinity>
7.7748785019

> <CNN_VS>
1.7859437466

> <CNNaffinity_variance>
0.1934720576

$$$$
[H]O[C@]1([H])[C@]([H])(C([H])([H])OP(=O)(O[H])OP(=O)(O[H])O[H])OC([H])(n2c([H])nc3c(N([H])[H])nc([H])nc32)[C@]1([H])O[H]


 34 36  0  0  0  0  0  0  0  0999 V2000
   13.3447   24.6467   -1.8942 C   0  0  0  0  0  0  0  0  0  0  0  0
   13.9003   24.0992   -0.7900 O   0  0  0  0  0  0  0  0  0  0  0  0
   12.8701   23.2531   -0.4646 C   0  0  0  0  0  0  0  0  0  0  0  0
   11.5418   23.8932   -0.7772 C   0  0  0  0  0  0  0  0  0  0  0  0
   10.6762   24.0078    0.2715 O   0  0  0  0  0  0  0  0  0  0  0  0
   12.0974   25.2776   -1.1879 C   0  0  0  0  0  0  0  0  0  0  0  0
   12.4057   25.8398    0.0247 O   0  0  0  0  0  0  0  0  0  0  0  0
   10.0234   24.7377    0.0030 H   0  0  0  0  0  0  0  0  0  0  0  0
   13.1335   25.3862    0.4848 H   0  0  0  0  0  0  0  0  0  0  0  0
   16.3177   28.6585   -5.1838 N   0  0  0  0  0  0  0  0  0  0  0  0
   16.3227   27.6206   -4.2250 C   0  0  0  0  0  0  0  0  0  0  0  0
   17.3841   27.3222   -3.4778 N   0  0  0  0  0  0  0  0  0  0  0  0
   17.2906   26.3824   -2.4868 C   0  0  0  0  0  0  0  0  0  0  0  0
   16.1544   25.7478   -2.2523 N   0  0  0  0  0  0  0  0  0  0  0  0
   15.0578   26.0098   -2.9736 C   0  0  0  0  0  0  0  0  0  0  0  0
   13.8045   25.4755   -2.8796 N   0  0  0  0  0  0  0  0  0  0  0  0
   13.1221   26.1270   -3.8635 C   0  0  0  0  0  0  0  0  0  0  0  0
   13.8898   26.9948   -4.5078 N   0  0  0  0  0  0  0  0  0  0  0  0
   15.1540   26.9547   -3.9642 C   0  0  0  0  0  0  0  0  0  0  0  0
   16.8435   28.7387   -6.0613 H   0  0  0  0  0  0  0  0  0  0  0  0
   15.6839   29.5304   -5.0087 H   0  0  0  0  0  0  0  0  0  0  0  0
   12.8339   22.3487    0.6803 C   0  0  0  0  0  0  0  0  0  0  0  0
   11.8439   21.3472    0.2817 O   0  0  0  0  0  0  0  0  0  0  0  0
   10.8803   20.9694    1.5981 P   0  0  0  0  0  0  0  0  0  0  0  0
   10.7966   22.4227    2.5821 O   0  0  0  0  0  0  0  0  0  0  0  0
    9.4634   20.6289    1.1757 O   0  0  0  0  0  0  0  0  0  0  0  0
   11.6826   22.8698    2.3785 H   0  0  0  0  0  0  0  0  0  0  0  0
   11.5194   19.8155    2.5625 O   0  0  0  0  0  0  0  0  0  0  0  0
   10.9811   19.9170    4.1692 P   0  0  0  0  0  0  0  0  0  0  0  0
    9.3078   20.2365    4.1139 O   0  0  0  0  0  0  0  0  0  0  0  0
   11.3130   18.4337    4.9047 O   0  0  0  0  0  0  0  0  0  0  0  0
   11.7419   21.0139    4.8476 O   0  0  0  0  0  0  0  0  0  0  0  0
    9.0091   20.3293    3.1699 H   0  0  0  0  0  0  0  0  0  0  0  0
   11.3167   18.5296    5.8950 H   0  0  0  0  0  0  0  0  0  0  0  0
 10 11  1  0  0  0
 11 12  2  0  0  0
 12 13  1  0  0  0
 13 14  2  0  0  0
 14 15  1  0  0  0
 15 16  1  0  0  0
 16 17  1  0  0  0
 17 18  2  0  0  0
 18 19  1  0  0  0
 16  1  1  0  0  0
  1  2  1  0  0  0
  2  3  1  0  0  0
  3 22  1  0  0  0
 22 23  1  0  0  0
 23 24  1  0  0  0
 24 25  1  0  0  0
 24 26  2  0  0  0
 24 28  1  0  0  0
 28 29  1  0  0  0
 29 30  1  0  0  0
 29 31  1  0  0  0
 29 32  2  0  0  0
  3  4  1  0  0  0
  4  5  1  0  0  0
  4  6  1  0  0  0
  6  7  1  0  0  0
 19 11  1  0  0  0
  6  1  1  0  0  0
 19 15  2  0  0  0
 10 20  1  0  0  0
 10 21  1  0  0  0
 25 27  1  0  0  0
 30 33  1  0  0  0
 31 34  1  0  0  0
  5  8  1  0  0  0
  7  9  1  0  0  0
M  END
> <minimizedAffinity>
-7.85511

> <CNNscore>
0.5367857814

> <CNNaffinity>
5.8003935814

> <CNN_VS>
3.1135687828

> <CNNaffinity_variance>
0.3643799424

$$$$
[H]O[C@]1([H])[C@]([H])(C([H])([H])OP(=O)(O[H])OP(=O)(O[H])O[H])OC([H])(n2c([H])nc3c(N([H])[H])nc([H])nc32)[C@]1([H])O[H]


 34 36  0  0  0  0  0  0  0  0999 V2000
   14.3750   23.8154   -1.3505 C   0  0  0  0  0  0  0  0  0  0  0  0
   14.3232   22.4815   -1.5643 O   0  0  0  0  0  0  0  0  0  0  0  0
   13.1219   22.2415   -0.9458 C   0  0  0  0  0  0  0  0  0  0  0  0
   12.9630   23.1288    0.2621 C   0  0  0  0  0  0  0  0  0  0  0  0
   12.7563   22.4863    1.4481 O   0  0  0  0  0  0  0  0  0  0  0  0
   14.3755   23.7584    0.2145 C   0  0  0  0  0  0  0  0  0  0  0  0
   15.1622   22.7477    0.7055 O   0  0  0  0  0  0  0  0  0  0  0  0
   13.0191   23.1549    2.1657 H   0  0  0  0  0  0  0  0  0  0  0  0
   15.1973   21.9697    0.1220 H   0  0  0  0  0  0  0  0  0  0  0  0
   17.2619   27.9702   -4.5378 N   0  0  0  0  0  0  0  0  0  0  0  0
   16.0664   27.2878   -4.2188 C   0  0  0  0  0  0  0  0  0  0  0  0
   14.9583   27.3744   -4.9527 N   0  0  0  0  0  0  0  0  0  0  0  0
   13.8693   26.5998   -4.6559 C   0  0  0  0  0  0  0  0  0  0  0  0
   13.8882   25.7566   -3.6374 N   0  0  0  0  0  0  0  0  0  0  0  0
   14.9761   25.6302   -2.8682 C   0  0  0  0  0  0  0  0  0  0  0  0
   15.1927   24.8187   -1.7913 N   0  0  0  0  0  0  0  0  0  0  0  0
   16.4700   25.1284   -1.4297 C   0  0  0  0  0  0  0  0  0  0  0  0
   16.9991   26.0510   -2.2210 N   0  0  0  0  0  0  0  0  0  0  0  0
   16.0671   26.4059   -3.1702 C   0  0  0  0  0  0  0  0  0  0  0  0
   17.4557   28.9777   -4.5459 H   0  0  0  0  0  0  0  0  0  0  0  0
   18.1357   27.3858   -4.8336 H   0  0  0  0  0  0  0  0  0  0  0  0
   12.4724   20.9414   -0.8120 C   0  0  0  0  0  0  0  0  0  0  0  0
   11.0837   21.2245   -1.1774 O   0  0  0  0  0  0  0  0  0  0  0  0
   10.0718   20.6934    0.0467 P   0  0  0  0  0  0  0  0  0  0  0  0
   11.1139   20.0279    1.2950 O   0  0  0  0  0  0  0  0  0  0  0  0
    9.2974   21.8396    0.6699 O   0  0  0  0  0  0  0  0  0  0  0  0
   11.9102   19.7046    0.7585 H   0  0  0  0  0  0  0  0  0  0  0  0
    9.0862   19.4719   -0.4078 O   0  0  0  0  0  0  0  0  0  0  0  0
    7.8778   19.9605   -1.4953 P   0  0  0  0  0  0  0  0  0  0  0  0
    6.8914   21.0806   -0.6722 O   0  0  0  0  0  0  0  0  0  0  0  0
    8.6506   20.6614   -2.8230 O   0  0  0  0  0  0  0  0  0  0  0  0
    7.1147   18.7447   -1.9217 O   0  0  0  0  0  0  0  0  0  0  0  0
    7.2036   21.1854    0.2662 H   0  0  0  0  0  0  0  0  0  0  0  0
    8.0427   20.6777   -3.6105 H   0  0  0  0  0  0  0  0  0  0  0  0
 10 11  1  0  0  0
 11 12  2  0  0  0
 12 13  1  0  0  0
 13 14  2  0  0  0
 14 15  1  0  0  0
 15 16  1  0  0  0
 16 17  1  0  0  0
 17 18  2  0  0  0
 18 19  1  0  0  0
 16  1  1  0  0  0
  1  2  1  0  0  0
  2  3  1  0  0  0
  3 22  1  0  0  0
 22 23  1  0  0  0
 23 24  1  0  0  0
 24 25  1  0  0  0
 24 26  2  0  0  0
 24 28  1  0  0  0
 28 29  1  0  0  0
 29 30  1  0  0  0
 29 31  1  0  0  0
 29 32  2  0  0  0
  3  4  1  0  0  0
  4  5  1  0  0  0
  4  6  1  0  0  0
  6  7  1  0  0  0
 19 11  1  0  0  0
  6  1  1  0  0  0
 19 15  2  0  0  0
 10 20  1  0  0  0
 10 21  1  0  0  0
 25 27  1  0  0  0
 30 33  1  0  0  0
 31 34  1  0  0  0
  5  8  1  0  0  0
  7  9  1  0  0  0
M  END
> <minimizedAffinity>
-8.85729

> <CNNscore>
0.4773574173

> <CNNaffinity>
5.8592705727

> <CNN_VS>
2.7969663143

> <CNNaffinity_variance>
0.7278401852

$$$$
[H]O[C@]1([H])[C@]([H])(C([H])([H])OP(=O)(O[H])OP(=O)(O[H])O[H])OC([H])(n2c([H])nc3c(N([H])[H])nc([H])nc32)[C@]1([H])O[H]


 34 36  0  0  0  0  0  0  0  0999 V2000
   12.3413   25.0675   -1.4741 C   0  0  0  0  0  0  0  0  0  0  0  0
   11.1477   24.5555   -1.0987 O   0  0  0  0  0  0  0  0  0  0  0  0
   11.4330   24.3774    0.2318 C   0  0  0  0  0  0  0  0  0  0  0  0
   12.8700   23.9602    0.4128 C   0  0  0  0  0  0  0  0  0  0  0  0
   13.0678   22.7786    1.0660 O   0  0  0  0  0  0  0  0  0  0  0  0
   13.2122   23.8239   -1.0900 C   0  0  0  0  0  0  0  0  0  0  0  0
   12.6106   22.6361   -1.4197 O   0  0  0  0  0  0  0  0  0  0  0  0
   14.0008   22.4776    0.8013 H   0  0  0  0  0  0  0  0  0  0  0  0
   11.6393   22.6701   -1.3694 H   0  0  0  0  0  0  0  0  0  0  0  0
   15.5911   26.8140   -6.1798 N   0  0  0  0  0  0  0  0  0  0  0  0
   15.1886   25.7996   -5.2823 C   0  0  0  0  0  0  0  0  0  0  0  0
   15.8029   24.6216   -5.1890 N   0  0  0  0  0  0  0  0  0  0  0  0
   15.4377   23.7253   -4.2209 C   0  0  0  0  0  0  0  0  0  0  0  0
   14.4692   24.0022   -3.3642 N   0  0  0  0  0  0  0  0  0  0  0  0
   13.8196   25.1714   -3.4136 C   0  0  0  0  0  0  0  0  0  0  0  0
   12.8112   25.6424   -2.6221 N   0  0  0  0  0  0  0  0  0  0  0  0
   12.5640   26.8759   -3.1472 C   0  0  0  0  0  0  0  0  0  0  0  0
   13.3575   27.1452   -4.1744 N   0  0  0  0  0  0  0  0  0  0  0  0
   14.1902   26.0689   -4.3834 C   0  0  0  0  0  0  0  0  0  0  0  0
   15.5685   26.8243   -7.2055 H   0  0  0  0  0  0  0  0  0  0  0  0
   16.0012   27.7408   -5.7730 H   0  0  0  0  0  0  0  0  0  0  0  0
   10.5281   23.8259    1.2352 C   0  0  0  0  0  0  0  0  0  0  0  0
    9.9505   25.0198    1.8540 O   0  0  0  0  0  0  0  0  0  0  0  0
    8.5297   24.6033    2.6366 P   0  0  0  0  0  0  0  0  0  0  0  0
    7.7562   23.3814    1.6387 O   0  0  0  0  0  0  0  0  0  0  0  0
    8.7998   23.9746    3.9906 O   0  0  0  0  0  0  0  0  0  0  0  0
    8.0822   23.6255    0.7110 H   0  0  0  0  0  0  0  0  0  0  0  0
    7.4600   25.8340    2.7419 O   0  0  0  0  0  0  0  0  0  0  0  0
    7.8367   26.9405    3.9729 P   0  0  0  0  0  0  0  0  0  0  0  0
    9.4988   26.7652    4.3075 O   0  0  0  0  0  0  0  0  0  0  0  0
    7.4729   28.4829    3.3902 O   0  0  0  0  0  0  0  0  0  0  0  0
    6.9857   26.6217    5.1631 O   0  0  0  0  0  0  0  0  0  0  0  0
    9.8853   26.0408    3.7465 H   0  0  0  0  0  0  0  0  0  0  0  0
    7.3705   29.1243    4.1439 H   0  0  0  0  0  0  0  0  0  0  0  0
 10 11  1  0  0  0
 11 12  2  0  0  0
 12 13  1  0  0  0
 13 14  2  0  0  0
 14 15  1  0  0  0
 15 16  1  0  0  0
 16 17  1  0  0  0
 17 18  2  0  0  0
 18 19  1  0  0  0
 16  1  1  0  0  0
  1  2  1  0  0  0
  2  3  1  0  0  0
  3 22  1  0  0  0
 22 23  1  0  0  0
 23 24  1  0  0  0
 24 25  1  0  0  0
 24 26  2  0  0  0
 24 28  1  0  0  0
 28 29  1  0  0  0
 29 30  1  0  0  0
 29 31  1  0  0  0
 29 32  2  0  0  0
  3  4  1  0  0  0
  4  5  1  0  0  0
  4  6  1  0  0  0
  6  7  1  0  0  0
 19 11  1  0  0  0
  6  1  1  0  0  0
 19 15  2  0  0  0
 10 20  1  0  0  0
 10 21  1  0  0  0
 25 27  1  0  0  0
 30 33  1  0  0  0
 31 34  1  0  0  0
  5  8  1  0  0  0
  7  9  1  0  0  0
M  END
> <minimizedAffinity>
-8.13753

> <CNNscore>
0.4766149521

> <CNNaffinity>
5.3899698257

> <CNN_VS>
2.5689401627

> <CNNaffinity_variance>
0.1049197540

$$$$
[H]O[C@]1([H])[C@]([H])(C([H])([H])OP(=O)(O[H])OP(=O)(O[H])O[H])OC([H])(n2c([H])nc3c(N([H])[H])nc([H])nc32)[C@]1([H])O[H]


 34 36  0  0  0  0  0  0  0  0999 V2000
   13.5144   23.7878   -1.5060 C   0  0  0  0  0  0  0  0  0  0  0  0
   13.3917   22.6915   -0.7246 O   0  0  0  0  0  0  0  0  0  0  0  0
   12.1455   22.3018   -1.1469 C   0  0  0  0  0  0  0  0  0  0  0  0
   11.2828   23.5051   -1.4286 C   0  0  0  0  0  0  0  0  0  0  0  0
   10.1128   23.5740   -0.7297 O   0  0  0  0  0  0  0  0  0  0  0  0
   12.2869   24.5715   -0.9301 C   0  0  0  0  0  0  0  0  0  0  0  0
   12.1805   24.4581    0.4327 O   0  0  0  0  0  0  0  0  0  0  0  0
    9.8414   24.5522   -0.7550 H   0  0  0  0  0  0  0  0  0  0  0  0
   12.5048   23.6063    0.7741 H   0  0  0  0  0  0  0  0  0  0  0  0
   17.4647   27.4680   -4.0763 N   0  0  0  0  0  0  0  0  0  0  0  0
   16.1400   26.9923   -3.9519 C   0  0  0  0  0  0  0  0  0  0  0  0
   15.1743   27.2864   -4.8207 N   0  0  0  0  0  0  0  0  0  0  0  0
   13.9413   26.7022   -4.7088 C   0  0  0  0  0  0  0  0  0  0  0  0
   13.6785   25.8423   -3.7393 N   0  0  0  0  0  0  0  0  0  0  0  0
   14.6131   25.5115   -2.8401 C   0  0  0  0  0  0  0  0  0  0  0  0
   14.5405   24.6473   -1.7851 N   0  0  0  0  0  0  0  0  0  0  0  0
   15.7888   24.7243   -1.2431 C   0  0  0  0  0  0  0  0  0  0  0  0
   16.5683   25.5629   -1.9114 N   0  0  0  0  0  0  0  0  0  0  0  0
   15.8489   26.0966   -2.9568 C   0  0  0  0  0  0  0  0  0  0  0  0
   17.8224   28.4274   -4.0092 H   0  0  0  0  0  0  0  0  0  0  0  0
   18.2618   26.7505   -4.2822 H   0  0  0  0  0  0  0  0  0  0  0  0
   11.4014   21.1428   -0.6641 C   0  0  0  0  0  0  0  0  0  0  0  0
   11.9636   20.9184    0.6684 O   0  0  0  0  0  0  0  0  0  0  0  0
   10.8062   21.2796    1.8236 P   0  0  0  0  0  0  0  0  0  0  0  0
    9.2464   21.0652    1.0438 O   0  0  0  0  0  0  0  0  0  0  0  0
   10.8619   20.3146    2.9930 O   0  0  0  0  0  0  0  0  0  0  0  0
    9.4609   21.2743    0.0759 H   0  0  0  0  0  0  0  0  0  0  0  0
   10.8454   22.8361    2.3194 O   0  0  0  0  0  0  0  0  0  0  0  0
    9.3334   23.4086    2.8367 P   0  0  0  0  0  0  0  0  0  0  0  0
    9.6245   24.7932    3.7871 O   0  0  0  0  0  0  0  0  0  0  0  0
    8.4349   23.7735    1.4544 O   0  0  0  0  0  0  0  0  0  0  0  0
    8.6646   22.3199    3.6175 O   0  0  0  0  0  0  0  0  0  0  0  0
   10.6028   24.9528    3.8669 H   0  0  0  0  0  0  0  0  0  0  0  0
    7.4641   23.8080    1.6696 H   0  0  0  0  0  0  0  0  0  0  0  0
 10 11  1  0  0  0
 11 12  2  0  0  0
 12 13  1  0  0  0
 13 14  2  0  0  0
 14 15  1  0  0  0
 15 16  1  0  0  0
 16 17  1  0  0  0
 17 18  2  0  0  0
 18 19  1  0  0  0
 16  1  1  0  0  0
  1  2  1  0  0  0
  2  3  1  0  0  0
  3 22  1  0  0  0
 22 23  1  0  0  0
 23 24  1  0  0  0
 24 25  1  0  0  0
 24 26  2  0  0  0
 24 28  1  0  0  0
 28 29  1  0  0  0
 29 30  1  0  0  0
 29 31  1  0  0  0
 29 32  2  0  0  0
  3  4  1  0  0  0
  4  5  1  0  0  0
  4  6  1  0  0  0
  6  7  1  0  0  0
 19 11  1  0  0  0
  6  1  1  0  0  0
 19 15  2  0  0  0
 10 20  1  0  0  0
 10 21  1  0  0  0
 25 27  1  0  0  0
 30 33  1  0  0  0
 31 34  1  0  0  0
  5  8  1  0  0  0
  7  9  1  0  0  0
M  END
> <minimizedAffinity>
-7.45572

> <CNNscore>
0.4747915864

> <CNNaffinity>
5.9163007736

> <CNN_VS>
2.8090097904

> <CNNaffinity_variance>
0.2333516628

$$$$
[H]O[C@]1([H])[C@]([H])(C([H])([H])OP(=O)(O[H])OP(=O)(O[H])O[H])OC([H])(n2c([H])nc3c(N([H])[H])nc([H])nc32)[C@]1([H])O[H]


 34 36  0  0  0  0  0  0  0  0999 V2000
   13.5192   23.5118   -1.4205 C   0  0  0  0  0  0  0  0  0  0  0  0
   13.7189   22.6417   -0.4053 O   0  0  0  0  0  0  0  0  0  0  0  0
   12.4419   22.6470    0.0970 C   0  0  0  0  0  0  0  0  0  0  0  0
   11.8349   24.0219   -0.0174 C   0  0  0  0  0  0  0  0  0  0  0  0
   11.4073   24.5816    1.1514 O   0  0  0  0  0  0  0  0  0  0  0  0
   13.1018   24.7388   -0.5415 C   0  0  0  0  0  0  0  0  0  0  0  0
   13.8614   24.8569    0.5946 O   0  0  0  0  0  0  0  0  0  0  0  0
   11.3664   25.5803    0.9724 H   0  0  0  0  0  0  0  0  0  0  0  0
   14.1649   24.0011    0.9448 H   0  0  0  0  0  0  0  0  0  0  0  0
   15.5885   25.9793   -6.4588 N   0  0  0  0  0  0  0  0  0  0  0  0
   14.7984   26.0674   -5.2906 C   0  0  0  0  0  0  0  0  0  0  0  0
   13.9077   27.0355   -5.0831 N   0  0  0  0  0  0  0  0  0  0  0  0
   13.0920   27.0016   -3.9842 C   0  0  0  0  0  0  0  0  0  0  0  0
   13.1715   26.0172   -3.1048 N   0  0  0  0  0  0  0  0  0  0  0  0
   14.0488   25.0193   -3.2657 C   0  0  0  0  0  0  0  0  0  0  0  0
   14.2737   23.9220   -2.4844 N   0  0  0  0  0  0  0  0  0  0  0  0
   15.2724   23.2752   -3.1494 C   0  0  0  0  0  0  0  0  0  0  0  0
   15.6305   23.9179   -4.2522 N   0  0  0  0  0  0  0  0  0  0  0  0
   14.8629   25.0547   -4.3699 C   0  0  0  0  0  0  0  0  0  0  0  0
   16.3279   26.6061   -6.7951 H   0  0  0  0  0  0  0  0  0  0  0  0
   15.4217   25.1440   -7.1422 H   0  0  0  0  0  0  0  0  0  0  0  0
   11.9734   21.8900    1.2535 C   0  0  0  0  0  0  0  0  0  0  0  0
   10.5385   21.7516    1.0011 O   0  0  0  0  0  0  0  0  0  0  0  0
    9.7093   21.8686    2.4514 P   0  0  0  0  0  0  0  0  0  0  0  0
   10.8055   21.2870    3.6953 O   0  0  0  0  0  0  0  0  0  0  0  0
    9.3694   23.3085    2.7875 O   0  0  0  0  0  0  0  0  0  0  0  0
   11.3751   20.6229    3.1845 H   0  0  0  0  0  0  0  0  0  0  0  0
    8.3947   20.9012    2.5292 O   0  0  0  0  0  0  0  0  0  0  0  0
    7.2314   21.2617    1.3468 P   0  0  0  0  0  0  0  0  0  0  0  0
    7.9118   22.4429    0.3236 O   0  0  0  0  0  0  0  0  0  0  0  0
    6.8979   19.8293    0.5172 O   0  0  0  0  0  0  0  0  0  0  0  0
    6.0003   21.7583    2.0398 O   0  0  0  0  0  0  0  0  0  0  0  0
    8.8177   22.6943    0.6478 H   0  0  0  0  0  0  0  0  0  0  0  0
    6.0253   19.8965    0.0441 H   0  0  0  0  0  0  0  0  0  0  0  0
 10 11  1  0  0  0
 11 12  2  0  0  0
 12 13  1  0  0  0
 13 14  2  0  0  0
 14 15  1  0  0  0
 15 16  1  0  0  0
 16 17  1  0  0  0
 17 18  2  0  0  0
 18 19  1  0  0  0
 16  1  1  0  0  0
  1  2  1  0  0  0
  2  3  1  0  0  0
  3 22  1  0  0  0
 22 23  1  0  0  0
 23 24  1  0  0  0
 24 25  1  0  0  0
 24 26  2  0  0  0
 24 28  1  0  0  0
 28 29  1  0  0  0
 29 30  1  0  0  0
 29 31  1  0  0  0
 29 32  2  0  0  0
  3  4  1  0  0  0
  4  5  1  0  0  0
  4  6  1  0  0  0
  6  7  1  0  0  0
 19 11  1  0  0  0
  6  1  1  0  0  0
 19 15  2  0  0  0
 10 20  1  0  0  0
 10 21  1  0  0  0
 25 27  1  0  0  0
 30 33  1  0  0  0
 31 34  1  0  0  0
  5  8  1  0  0  0
  7  9  1  0  0  0
M  END
> <minimizedAffinity>
-7.91848

> <CNNscore>
0.4624292254

> <CNNaffinity>
5.7490715981

> <CNN_VS>
2.6585388184

> <CNNaffinity_variance>
0.1677395105

$$$$
[H]O[C@]1([H])[C@]([H])(C([H])([H])OP(=O)(O[H])OP(=O)(O[H])O[H])OC([H])(n2c([H])nc3c(N([H])[H])nc([H])nc32)[C@]1([H])O[H]


 34 36  0  0  0  0  0  0  0  0999 V2000
   12.8773   25.4720   -2.5813 C   0  0  0  0  0  0  0  0  0  0  0  0
   12.6787   26.7985   -2.4129 O   0  0  0  0  0  0  0  0  0  0  0  0
   12.6790   27.1554   -3.7381 C   0  0  0  0  0  0  0  0  0  0  0  0
   13.6689   26.3209   -4.5097 C   0  0  0  0  0  0  0  0  0  0  0  0
   14.6346   27.0135   -5.1803 O   0  0  0  0  0  0  0  0  0  0  0  0
   14.2683   25.5757   -3.2934 C   0  0  0  0  0  0  0  0  0  0  0  0
   15.0772   26.5323   -2.7347 O   0  0  0  0  0  0  0  0  0  0  0  0
   15.3852   26.3474   -5.3351 H   0  0  0  0  0  0  0  0  0  0  0  0
   14.5837   27.2869   -2.3684 H   0  0  0  0  0  0  0  0  0  0  0  0
   14.2045   20.8887    1.0225 N   0  0  0  0  0  0  0  0  0  0  0  0
   14.4597   22.2047    0.5756 C   0  0  0  0  0  0  0  0  0  0  0  0
   15.5602   22.8834    0.8949 N   0  0  0  0  0  0  0  0  0  0  0  0
   15.8029   24.1100    0.3376 C   0  0  0  0  0  0  0  0  0  0  0  0
   14.9544   24.6501   -0.5208 N   0  0  0  0  0  0  0  0  0  0  0  0
   13.8337   24.0104   -0.8762 C   0  0  0  0  0  0  0  0  0  0  0  0
   12.8501   24.3919   -1.7434 N   0  0  0  0  0  0  0  0  0  0  0  0
   11.9804   23.3432   -1.6965 C   0  0  0  0  0  0  0  0  0  0  0  0
   12.3959   22.3916   -0.8723 N   0  0  0  0  0  0  0  0  0  0  0  0
   13.5948   22.7797   -0.3181 C   0  0  0  0  0  0  0  0  0  0  0  0
   14.0302   20.5448    1.9733 H   0  0  0  0  0  0  0  0  0  0  0  0
   14.1874   20.0803    0.2885 H   0  0  0  0  0  0  0  0  0  0  0  0
   12.5142   28.5080   -4.2606 C   0  0  0  0  0  0  0  0  0  0  0  0
   11.0725   28.7339   -4.1495 O   0  0  0  0  0  0  0  0  0  0  0  0
   10.7905   30.3542   -3.8338 P   0  0  0  0  0  0  0  0  0  0  0  0
    9.0804   30.4931   -3.4547 O   0  0  0  0  0  0  0  0  0  0  0  0
   11.5619   30.8302   -2.6172 O   0  0  0  0  0  0  0  0  0  0  0  0
    8.6806   29.7309   -3.9893 H   0  0  0  0  0  0  0  0  0  0  0  0
   11.0395   31.3220   -5.1266 O   0  0  0  0  0  0  0  0  0  0  0  0
    9.6348   31.5836   -6.0432 P   0  0  0  0  0  0  0  0  0  0  0  0
   10.1011   31.5699   -7.6826 O   0  0  0  0  0  0  0  0  0  0  0  0
    8.5611   30.3306   -5.6853 O   0  0  0  0  0  0  0  0  0  0  0  0
    9.0500   32.9003   -5.6349 O   0  0  0  0  0  0  0  0  0  0  0  0
   11.0853   31.4484   -7.7565 H   0  0  0  0  0  0  0  0  0  0  0  0
    7.6322   30.5871   -5.9331 H   0  0  0  0  0  0  0  0  0  0  0  0
 10 11  1  0  0  0
 11 12  2  0  0  0
 12 13  1  0  0  0
 13 14  2  0  0  0
 14 15  1  0  0  0
 15 16  1  0  0  0
 16 17  1  0  0  0
 17 18  2  0  0  0
 18 19  1  0  0  0
 16  1  1  0  0  0
  1  2  1  0  0  0
  2  3  1  0  0  0
  3 22  1  0  0  0
 22 23  1  0  0  0
 23 24  1  0  0  0
 24 25  1  0  0  0
 24 26  2  0  0  0
 24 28  1  0  0  0
 28 29  1  0  0  0
 29 30  1  0  0  0
 29 31  1  0  0  0
 29 32  2  0  0  0
  3  4  1  0  0  0
  4  5  1  0  0  0
  4  6  1  0  0  0
  6  7  1  0  0  0
 19 11  1  0  0  0
  6  1  1  0  0  0
 19 15  2  0  0  0
 10 20  1  0  0  0
 10 21  1  0  0  0
 25 27  1  0  0  0
 30 33  1  0  0  0
 31 34  1  0  0  0
  5  8  1  0  0  0
  7  9  1  0  0  0
M  END
> <minimizedAffinity>
8.47176

> <CNNscore>
0.4510074258

> <CNNaffinity>
5.5173254013

> <CNN_VS>
2.4883546829

> <CNNaffinity_variance>
1.1736853123

$$$$
[H]O[C@]1([H])[C@]([H])(C([H])([H])OP(=O)(O[H])OP(=O)(O[H])O[H])OC([H])(n2c([H])nc3c(N([H])[H])nc([H])nc32)[C@]1([H])O[H]


 34 36  0  0  0  0  0  0  0  0999 V2000
   15.1309   24.3692   -2.5711 C   0  0  0  0  0  0  0  0  0  0  0  0
   13.8012   24.1259   -2.5540 O   0  0  0  0  0  0  0  0  0  0  0  0
   13.8626   22.7798   -2.2943 C   0  0  0  0  0  0  0  0  0  0  0  0
   15.0451   22.1602   -2.9940 C   0  0  0  0  0  0  0  0  0  0  0  0
   14.7592   21.1378   -3.8514 O   0  0  0  0  0  0  0  0  0  0  0  0
   15.4826   23.4251   -3.7701 C   0  0  0  0  0  0  0  0  0  0  0  0
   14.5546   23.4845   -4.7784 O   0  0  0  0  0  0  0  0  0  0  0  0
   15.5583   21.0780   -4.4749 H   0  0  0  0  0  0  0  0  0  0  0  0
   13.6527   23.6653   -4.4606 H   0  0  0  0  0  0  0  0  0  0  0  0
   18.2046   29.2273   -4.2160 N   0  0  0  0  0  0  0  0  0  0  0  0
   17.0789   28.3861   -4.3639 C   0  0  0  0  0  0  0  0  0  0  0  0
   16.2368   28.4678   -5.3925 N   0  0  0  0  0  0  0  0  0  0  0  0
   15.2315   27.5501   -5.5385 C   0  0  0  0  0  0  0  0  0  0  0  0
   15.0690   26.5705   -4.6652 N   0  0  0  0  0  0  0  0  0  0  0  0
   15.8873   26.4424   -3.6139 C   0  0  0  0  0  0  0  0  0  0  0  0
   15.8898   25.5054   -2.6204 N   0  0  0  0  0  0  0  0  0  0  0  0
   16.9450   25.8866   -1.8461 C   0  0  0  0  0  0  0  0  0  0  0  0
   17.5464   26.9665   -2.3251 N   0  0  0  0  0  0  0  0  0  0  0  0
   16.8959   27.3621   -3.4721 C   0  0  0  0  0  0  0  0  0  0  0  0
   18.2457   30.2392   -4.0512 H   0  0  0  0  0  0  0  0  0  0  0  0
   19.2010   28.7863   -4.2872 H   0  0  0  0  0  0  0  0  0  0  0  0
   12.7208   21.8811   -2.1578 C   0  0  0  0  0  0  0  0  0  0  0  0
   11.9708   22.4634   -1.0441 O   0  0  0  0  0  0  0  0  0  0  0  0
   12.9804   22.6113    0.2837 P   0  0  0  0  0  0  0  0  0  0  0  0
   13.1786   24.3345    0.5638 O   0  0  0  0  0  0  0  0  0  0  0  0
   12.3532   22.0209    1.5327 O   0  0  0  0  0  0  0  0  0  0  0  0
   13.0701   24.7163   -0.3683 H   0  0  0  0  0  0  0  0  0  0  0  0
   14.4844   22.0267    0.0260 O   0  0  0  0  0  0  0  0  0  0  0  0
   15.6835   22.8748    0.8771 P   0  0  0  0  0  0  0  0  0  0  0  0
   16.2665   21.8287    2.0899 O   0  0  0  0  0  0  0  0  0  0  0  0
   16.8899   23.2858   -0.2306 O   0  0  0  0  0  0  0  0  0  0  0  0
   15.0627   24.1111    1.4502 O   0  0  0  0  0  0  0  0  0  0  0  0
   15.7674   20.9688    2.0678 H   0  0  0  0  0  0  0  0  0  0  0  0
   17.4454   24.0324    0.1213 H   0  0  0  0  0  0  0  0  0  0  0  0
 10 11  1  0  0  0
 11 12  2  0  0  0
 12 13  1  0  0  0
 13 14  2  0  0  0
 14 15  1  0  0  0
 15 16  1  0  0  0
 16 17  1  0  0  0
 17 18  2  0  0  0
 18 19  1  0  0  0
 16  1  1  0  0  0
  1  2  1  0  0  0
  2  3  1  0  0  0
  3 22  1  0  0  0
 22 23  1  0  0  0
 23 24  1  0  0  0
 24 25  1  0  0  0
 24 26  2  0  0  0
 24 28  1  0  0  0
 28 29  1  0  0  0
 29 30  1  0  0  0
 29 31  1  0  0  0
 29 32  2  0  0  0
  3  4  1  0  0  0
  4  5  1  0  0  0
  4  6  1  0  0  0
  6  7  1  0  0  0
 19 11  1  0  0  0
  6  1  1  0  0  0
 19 15  2  0  0  0
 10 20  1  0  0  0
 10 21  1  0  0  0
 25 27  1  0  0  0
 30 33  1  0  0  0
 31 34  1  0  0  0
  5  8  1  0  0  0
  7  9  1  0  0  0
M  END
> <minimizedAffinity>
-1.21070

> <CNNscore>
0.4373394847

> <CNNaffinity>
5.5704932213

> <CNN_VS>
2.4361965656

> <CNNaffinity_variance>
0.4136802554

$$$$
[H]O[C@]1([H])[C@]([H])(C([H])([H])OP(=O)(O[H])OP(=O)(O[H])O[H])OC([H])(n2c([H])nc3c(N([H])[H])nc([H])nc32)[C@]1([H])O[H]


 34 36  0  0  0  0  0  0  0  0999 V2000
   12.7644   24.0386   -1.5291 C   0  0  0  0  0  0  0  0  0  0  0  0
   12.0009   22.9230   -1.5189 O   0  0  0  0  0  0  0  0  0  0  0  0
   12.0470   22.6795   -0.1692 C   0  0  0  0  0  0  0  0  0  0  0  0
   13.3993   23.0440    0.3876 C   0  0  0  0  0  0  0  0  0  0  0  0
   14.0693   22.0408    1.0254 O   0  0  0  0  0  0  0  0  0  0  0  0
   14.0697   23.3822   -0.9652 C   0  0  0  0  0  0  0  0  0  0  0  0
   14.3053   22.1383   -1.4932 O   0  0  0  0  0  0  0  0  0  0  0  0
   15.0449   22.3221    1.0188 H   0  0  0  0  0  0  0  0  0  0  0  0
   13.4908   21.6534   -1.7131 H   0  0  0  0  0  0  0  0  0  0  0  0
   15.3889   27.4269   -5.6988 N   0  0  0  0  0  0  0  0  0  0  0  0
   15.1591   26.1566   -5.1242 C   0  0  0  0  0  0  0  0  0  0  0  0
   15.8730   25.0756   -5.4334 N   0  0  0  0  0  0  0  0  0  0  0  0
   15.6774   23.9007   -4.7585 C   0  0  0  0  0  0  0  0  0  0  0  0
   14.7776   23.8089   -3.7939 N   0  0  0  0  0  0  0  0  0  0  0  0
   14.0338   24.8649   -3.4432 C   0  0  0  0  0  0  0  0  0  0  0  0
   13.0724   24.9723   -2.4793 N   0  0  0  0  0  0  0  0  0  0  0  0
   12.6761   26.2720   -2.5890 C   0  0  0  0  0  0  0  0  0  0  0  0
   13.3415   26.9143   -3.5388 N   0  0  0  0  0  0  0  0  0  0  0  0
   14.2343   26.0420   -4.1197 C   0  0  0  0  0  0  0  0  0  0  0  0
   15.2659   27.7358   -6.6695 H   0  0  0  0  0  0  0  0  0  0  0  0
   15.7602   28.2313   -5.0603 H   0  0  0  0  0  0  0  0  0  0  0  0
   11.4052   21.5660    0.5224 C   0  0  0  0  0  0  0  0  0  0  0  0
    9.9818   21.7934    0.2691 O   0  0  0  0  0  0  0  0  0  0  0  0
    9.2506   22.3341    1.6754 P   0  0  0  0  0  0  0  0  0  0  0  0
   10.4900   23.1921    2.5780 O   0  0  0  0  0  0  0  0  0  0  0  0
    8.1388   23.3243    1.3834 O   0  0  0  0  0  0  0  0  0  0  0  0
   11.3358   22.7197    2.2815 H   0  0  0  0  0  0  0  0  0  0  0  0
    8.7453   21.1256    2.6522 O   0  0  0  0  0  0  0  0  0  0  0  0
    7.0686   20.8696    2.5824 P   0  0  0  0  0  0  0  0  0  0  0  0
    6.7149   19.5954    3.6578 O   0  0  0  0  0  0  0  0  0  0  0  0
    6.3209   22.3102    3.0483 O   0  0  0  0  0  0  0  0  0  0  0  0
    6.7069   20.5310    1.1693 O   0  0  0  0  0  0  0  0  0  0  0  0
    7.5534   19.2519    4.0674 H   0  0  0  0  0  0  0  0  0  0  0  0
    5.3774   22.3300    2.7332 H   0  0  0  0  0  0  0  0  0  0  0  0
 10 11  1  0  0  0
 11 12  2  0  0  0
 12 13  1  0  0  0
 13 14  2  0  0  0
 14 15  1  0  0  0
 15 16  1  0  0  0
 16 17  1  0  0  0
 17 18  2  0  0  0
 18 19  1  0  0  0
 16  1  1  0  0  0
  1  2  1  0  0  0
  2  3  1  0  0  0
  3 22  1  0  0  0
 22 23  1  0  0  0
 23 24  1  0  0  0
 24 25  1  0  0  0
 24 26  2  0  0  0
 24 28  1  0  0  0
 28 29  1  0  0  0
 29 30  1  0  0  0
 29 31  1  0  0  0
 29 32  2  0  0  0
  3  4  1  0  0  0
  4  5  1  0  0  0
  4  6  1  0  0  0
  6  7  1  0  0  0
 19 11  1  0  0  0
  6  1  1  0  0  0
 19 15  2  0  0  0
 10 20  1  0  0  0
 10 21  1  0  0  0
 25 27  1  0  0  0
 30 33  1  0  0  0
 31 34  1  0  0  0
  5  8  1  0  0  0
  7  9  1  0  0  0
M  END
> <minimizedAffinity>
-6.77537

> <CNNscore>
0.4042813778

> <CNNaffinity>
5.5653858185

> <CNN_VS>
2.2499818802

> <CNNaffinity_variance>
0.1489959061

$$$$
[H]O[C@]1([H])[C@]([H])(C([H])([H])OP(=O)(O[H])OP(=O)(O[H])O[H])OC([H])(n2c([H])nc3c(N([H])[H])nc([H])nc32)[C@]1([H])O[H]


 34 36  0  0  0  0  0  0  0  0999 V2000
   14.4757   23.8761   -1.3810 C   0  0  0  0  0  0  0  0  0  0  0  0
   14.4340   22.5431   -1.6021 O   0  0  0  0  0  0  0  0  0  0  0  0
   13.2355   22.2902   -0.9833 C   0  0  0  0  0  0  0  0  0  0  0  0
   13.0713   23.1696    0.2297 C   0  0  0  0  0  0  0  0  0  0  0  0
   12.8713   22.5189    1.4124 O   0  0  0  0  0  0  0  0  0  0  0  0
   14.4788   23.8105    0.1837 C   0  0  0  0  0  0  0  0  0  0  0  0
   15.2740   22.8033    0.6681 O   0  0  0  0  0  0  0  0  0  0  0  0
   13.1299   23.1855    2.1334 H   0  0  0  0  0  0  0  0  0  0  0  0
   15.3144   22.0288    0.0802 H   0  0  0  0  0  0  0  0  0  0  0  0
   17.3409   28.0563   -4.5545 N   0  0  0  0  0  0  0  0  0  0  0  0
   16.1511   27.3598   -4.2449 C   0  0  0  0  0  0  0  0  0  0  0  0
   15.0493   27.4299   -4.9899 N   0  0  0  0  0  0  0  0  0  0  0  0
   13.9674   26.6424   -4.7011 C   0  0  0  0  0  0  0  0  0  0  0  0
   13.9869   25.8031   -3.6794 N   0  0  0  0  0  0  0  0  0  0  0  0
   15.0687   25.6931   -2.8991 C   0  0  0  0  0  0  0  0  0  0  0  0
   15.2849   24.8882   -1.8173 N   0  0  0  0  0  0  0  0  0  0  0  0
   16.5545   25.2153   -1.4442 C   0  0  0  0  0  0  0  0  0  0  0  0
   17.0797   26.1419   -2.2336 N   0  0  0  0  0  0  0  0  0  0  0  0
   16.1527   26.4817   -3.1931 C   0  0  0  0  0  0  0  0  0  0  0  0
   17.5221   29.0662   -4.5642 H   0  0  0  0  0  0  0  0  0  0  0  0
   18.2250   27.4821   -4.8396 H   0  0  0  0  0  0  0  0  0  0  0  0
   12.5964   20.9844   -0.8559 C   0  0  0  0  0  0  0  0  0  0  0  0
   11.2966   21.1864   -1.4977 O   0  0  0  0  0  0  0  0  0  0  0  0
   10.0817   20.7304   -0.4392 P   0  0  0  0  0  0  0  0  0  0  0  0
    8.5708   20.8967   -1.3205 O   0  0  0  0  0  0  0  0  0  0  0  0
   10.2092   19.2738   -0.0343 O   0  0  0  0  0  0  0  0  0  0  0  0
    8.7851   21.6414   -1.9732 H   0  0  0  0  0  0  0  0  0  0  0  0
    9.9488   21.7117    0.8606 O   0  0  0  0  0  0  0  0  0  0  0  0
    9.2553   23.2164    0.4910 P   0  0  0  0  0  0  0  0  0  0  0  0
    9.8718   23.6889   -1.0261 O   0  0  0  0  0  0  0  0  0  0  0  0
    7.5811   23.0009    0.4489 O   0  0  0  0  0  0  0  0  0  0  0  0
    9.6270   24.1801    1.5751 O   0  0  0  0  0  0  0  0  0  0  0  0
   10.5232   23.0134   -1.3553 H   0  0  0  0  0  0  0  0  0  0  0  0
    7.1153   23.8741    0.5516 H   0  0  0  0  0  0  0  0  0  0  0  0
 10 11  1  0  0  0
 11 12  2  0  0  0
 12 13  1  0  0  0
 13 14  2  0  0  0
 14 15  1  0  0  0
 15 16  1  0  0  0
 16 17  1  0  0  0
 17 18  2  0  0  0
 18 19  1  0  0  0
 16  1  1  0  0  0
  1  2  1  0  0  0
  2  3  1  0  0  0
  3 22  1  0  0  0
 22 23  1  0  0  0
 23 24  1  0  0  0
 24 25  1  0  0  0
 24 26  2  0  0  0
 24 28  1  0  0  0
 28 29  1  0  0  0
 29 30  1  0  0  0
 29 31  1  0  0  0
 29 32  2  0  0  0
  3  4  1  0  0  0
  4  5  1  0  0  0
  4  6  1  0  0  0
  6  7  1  0  0  0
 19 11  1  0  0  0
  6  1  1  0  0  0
 19 15  2  0  0  0
 10 20  1  0  0  0
 10 21  1  0  0  0
 25 27  1  0  0  0
 30 33  1  0  0  0
 31 34  1  0  0  0
  5  8  1  0  0  0
  7  9  1  0  0  0
M  END
> <minimizedAffinity>
-9.02569

> <CNNscore>
0.4000179470

> <CNNaffinity>
5.7873172760

> <CNN_VS>
2.3150308132

> <CNNaffinity_variance>
0.3404356539

$$$$
[H]c1c([H])c([H])c2c(c1[H])c1c3c(c4c5c([H])c([H])c([H])c([H])c5n5c4c1n2[C@@]1(C([H])([H])[H])O[C@]5([H])C([H])([H])[C@@]([H])(N(C([H])([H])[H])C([H])([H])[H])[C@@]1([H])OC([H])([H])[H])C(=O)N([H])C3([H])[H]


 37 44  0  0  0  0  0  0  0  0999 V2000
   13.4533   22.9026   -0.9246 C   0  0  0  0  0  0  0  0  0  0  0  0
   13.7622   23.9056    0.2093 C   0  0  0  0  0  0  0  0  0  0  0  0
   14.0791   25.1993   -0.5377 C   0  0  0  0  0  0  0  0  0  0  0  0
   15.4388   24.9310   -1.1285 C   0  0  0  0  0  0  0  0  0  0  0  0
   15.7454   23.5945   -1.1806 O   0  0  0  0  0  0  0  0  0  0  0  0
   14.7367   22.7366   -1.6575 C   0  0  0  0  0  0  0  0  0  0  0  0
   15.2964   21.3594   -1.1864 C   0  0  0  0  0  0  0  0  0  0  0  0
   14.7252   22.7816   -3.0964 N   0  0  0  0  0  0  0  0  0  0  0  0
   14.3580   21.7667   -3.9321 C   0  0  0  0  0  0  0  0  0  0  0  0
   13.8077   20.5348   -3.7213 C   0  0  0  0  0  0  0  0  0  0  0  0
   13.5062   19.6840   -4.7608 C   0  0  0  0  0  0  0  0  0  0  0  0
   13.7535   20.0555   -6.0555 C   0  0  0  0  0  0  0  0  0  0  0  0
   14.3124   21.3023   -6.3098 C   0  0  0  0  0  0  0  0  0  0  0  0
   14.5948   22.1142   -5.2522 C   0  0  0  0  0  0  0  0  0  0  0  0
   15.1226   23.3939   -5.2335 C   0  0  0  0  0  0  0  0  0  0  0  0
   15.5311   24.2682   -6.2228 C   0  0  0  0  0  0  0  0  0  0  0  0
   15.5588   24.0351   -7.6908 C   0  0  0  0  0  0  0  0  0  0  0  0
   16.1346   25.2359   -8.2196 N   0  0  0  0  0  0  0  0  0  0  0  0
   16.3913   26.1846   -7.1578 C   0  0  0  0  0  0  0  0  0  0  0  0
   16.8635   27.3261   -7.3348 O   0  0  0  0  0  0  0  0  0  0  0  0
   16.0043   25.5480   -5.9288 C   0  0  0  0  0  0  0  0  0  0  0  0
   16.0406   25.8965   -4.5793 C   0  0  0  0  0  0  0  0  0  0  0  0
   16.3978   27.0583   -3.9387 C   0  0  0  0  0  0  0  0  0  0  0  0
   16.8548   28.2757   -4.3514 C   0  0  0  0  0  0  0  0  0  0  0  0
   17.1021   29.2530   -3.3813 C   0  0  0  0  0  0  0  0  0  0  0  0
   16.8974   29.0089   -2.0472 C   0  0  0  0  0  0  0  0  0  0  0  0
   16.4376   27.7821   -1.6371 C   0  0  0  0  0  0  0  0  0  0  0  0
   16.1894   26.8128   -2.5800 C   0  0  0  0  0  0  0  0  0  0  0  0
   15.7363   25.5885   -2.3764 N   0  0  0  0  0  0  0  0  0  0  0  0
   15.6337   25.0095   -3.5816 C   0  0  0  0  0  0  0  0  0  0  0  0
   15.1842   23.7674   -3.9395 C   0  0  0  0  0  0  0  0  0  0  0  0
   16.3695   25.4734   -9.2180 H   0  0  0  0  0  0  0  0  0  0  0  0
   12.9268   23.9481    1.2942 N   0  0  0  0  0  0  0  0  0  0  0  0
   12.1352   25.1624    1.2933 C   0  0  0  0  0  0  0  0  0  0  0  0
   12.1687   22.8570    1.7326 C   0  0  0  0  0  0  0  0  0  0  0  0
   11.2143   22.9416   -1.5154 C   0  0  0  0  0  0  0  0  0  0  0  0
   12.4522   23.5124   -1.6583 O   0  0  0  0  0  0  0  0  0  0  0  0
 36 37  1  0  0  0
 37  1  1  0  0  0
  1  2  1  0  0  0
  2  3  1  0  0  0
  3  4  1  0  0  0
  4  5  1  0  0  0
  5  6  1  0  0  0
  6  7  1  0  0  0
  6  8  1  0  0  0
  8  9  1  0  0  0
  9 10  2  0  0  0
 10 11  1  0  0  0
 11 12  2  0  0  0
 12 13  1  0  0  0
 13 14  2  0  0  0
 14 15  1  0  0  0
 15 16  2  0  0  0
 16 17  1  0  0  0
 17 18  1  0  0  0
 18 19  1  0  0  0
 19 20  2  0  0  0
 19 21  1  0  0  0
 21 22  2  0  0  0
 22 23  1  0  0  0
 23 24  2  0  0  0
 24 25  1  0  0  0
 25 26  2  0  0  0
 26 27  1  0  0  0
 27 28  2  0  0  0
 28 29  1  0  0  0
 29 30  1  0  0  0
 30 31  2  0  0  0
  2 33  1  0  0  0
 33 34  1  0  0  0
 33 35  1  0  0  0
  6  1  1  0  0  0
 31  8  1  0  0  0
 29  4  1  0  0  0
 14  9  1  0  0  0
 31 15  1  0  0  0
 21 16  1  0  0  0
 30 22  1  0  0  0
 28 23  1  0  0  0
 18 32  1  0  0  0
M  END
> <minimizedAffinity>
27.65375

> <CNNscore>
0.4936923087

> <CNNaffinity>
7.4613800049

> <CNN_VS>
3.6836259365

> <CNNaffinity_variance>
1.3567559719

$$$$
[H]c1c([H])c([H])c2c(c1[H])c1c3c(c4c5c([H])c([H])c([H])c([H])c5n5c4c1n2[C@@]1(C([H])([H])[H])O[C@]5([H])C([H])([H])[C@@]([H])(N(C([H])([H])[H])C([H])([H])[H])[C@@]1([H])OC([H])([H])[H])C(=O)N([H])C3([H])[H]


 37 44  0  0  0  0  0  0  0  0999 V2000
   12.7452   22.2804   -0.0214 C   0  0  0  0  0  0  0  0  0  0  0  0
   11.2999   22.4986   -0.5218 C   0  0  0  0  0  0  0  0  0  0  0  0
   11.4866   23.3028   -1.8065 C   0  0  0  0  0  0  0  0  0  0  0  0
   11.8777   24.6681   -1.3037 C   0  0  0  0  0  0  0  0  0  0  0  0
   12.3296   24.6521   -0.0082 O   0  0  0  0  0  0  0  0  0  0  0  0
   13.2460   23.6372    0.3252 C   0  0  0  0  0  0  0  0  0  0  0  0
   13.1840   23.7059    1.8818 C   0  0  0  0  0  0  0  0  0  0  0  0
   14.5588   24.0271   -0.1192 N   0  0  0  0  0  0  0  0  0  0  0  0
   15.7439   23.6708    0.4567 C   0  0  0  0  0  0  0  0  0  0  0  0
   16.0723   22.8089    1.4637 C   0  0  0  0  0  0  0  0  0  0  0  0
   17.3771   22.6080    1.8543 C   0  0  0  0  0  0  0  0  0  0  0  0
   18.3980   23.2775    1.2337 C   0  0  0  0  0  0  0  0  0  0  0  0
   18.1030   24.1628    0.2039 C   0  0  0  0  0  0  0  0  0  0  0  0
   16.7983   24.3318   -0.1523 C   0  0  0  0  0  0  0  0  0  0  0  0
   16.2461   25.1219   -1.1458 C   0  0  0  0  0  0  0  0  0  0  0  0
   16.7837   25.9780   -2.0882 C   0  0  0  0  0  0  0  0  0  0  0  0
   18.2117   26.3466   -2.2758 C   0  0  0  0  0  0  0  0  0  0  0  0
   18.1825   27.3112   -3.3349 N   0  0  0  0  0  0  0  0  0  0  0  0
   16.8316   27.4874   -3.8221 C   0  0  0  0  0  0  0  0  0  0  0  0
   16.5172   28.2460   -4.7618 O   0  0  0  0  0  0  0  0  0  0  0  0
   15.9875   26.6426   -3.0224 C   0  0  0  0  0  0  0  0  0  0  0  0
   14.6175   26.3932   -2.9529 C   0  0  0  0  0  0  0  0  0  0  0  0
   13.5635   26.8278   -3.7196 C   0  0  0  0  0  0  0  0  0  0  0  0
   13.4430   27.6540   -4.7985 C   0  0  0  0  0  0  0  0  0  0  0  0
   12.1685   27.8531   -5.3401 C   0  0  0  0  0  0  0  0  0  0  0  0
   11.0598   27.2428   -4.8113 C   0  0  0  0  0  0  0  0  0  0  0  0
   11.1864   26.4124   -3.7254 C   0  0  0  0  0  0  0  0  0  0  0  0
   12.4333   26.2070   -3.1838 C   0  0  0  0  0  0  0  0  0  0  0  0
   12.7481   25.4394   -2.1554 N   0  0  0  0  0  0  0  0  0  0  0  0
   14.0763   25.5333   -1.9961 C   0  0  0  0  0  0  0  0  0  0  0  0
   14.9141   24.9171   -1.1066 C   0  0  0  0  0  0  0  0  0  0  0  0
   18.9785   27.8571   -3.7551 H   0  0  0  0  0  0  0  0  0  0  0  0
   10.4362   21.4352   -0.5188 N   0  0  0  0  0  0  0  0  0  0  0  0
   11.0970   20.2278   -0.9734 C   0  0  0  0  0  0  0  0  0  0  0  0
    9.5518   21.1572    0.5291 C   0  0  0  0  0  0  0  0  0  0  0  0
   14.2214   20.6519   -0.7513 C   0  0  0  0  0  0  0  0  0  0  0  0
   13.3926   21.6894   -1.0910 O   0  0  0  0  0  0  0  0  0  0  0  0
 36 37  1  0  0  0
 37  1  1  0  0  0
  1  2  1  0  0  0
  2  3  1  0  0  0
  3  4  1  0  0  0
  4  5  1  0  0  0
  5  6  1  0  0  0
  6  7  1  0  0  0
  6  8  1  0  0  0
  8  9  1  0  0  0
  9 10  2  0  0  0
 10 11  1  0  0  0
 11 12  2  0  0  0
 12 13  1  0  0  0
 13 14  2  0  0  0
 14 15  1  0  0  0
 15 16  2  0  0  0
 16 17  1  0  0  0
 17 18  1  0  0  0
 18 19  1  0  0  0
 19 20  2  0  0  0
 19 21  1  0  0  0
 21 22  2  0  0  0
 22 23  1  0  0  0
 23 24  2  0  0  0
 24 25  1  0  0  0
 25 26  2  0  0  0
 26 27  1  0  0  0
 27 28  2  0  0  0
 28 29  1  0  0  0
 29 30  1  0  0  0
 30 31  2  0  0  0
  2 33  1  0  0  0
 33 34  1  0  0  0
 33 35  1  0  0  0
  6  1  1  0  0  0
 31  8  1  0  0  0
 29  4  1  0  0  0
 14  9  1  0  0  0
 31 15  1  0  0  0
 21 16  1  0  0  0
 30 22  1  0  0  0
 28 23  1  0  0  0
 18 32  1  0  0  0
M  END
> <minimizedAffinity>
17.95159

> <CNNscore>
0.4862228632

> <CNNaffinity>
7.5009818077

> <CNN_VS>
3.6471488476

> <CNNaffinity_variance>
0.8022590876

$$$$
[H]c1c([H])c([H])c2c(c1[H])c1c3c(c4c5c([H])c([H])c([H])c([H])c5n5c4c1n2[C@@]1(C([H])([H])[H])O[C@]5([H])C([H])([H])[C@@]([H])(N(C([H])([H])[H])C([H])([H])[H])[C@@]1([H])OC([H])([H])[H])C(=O)N([H])C3([H])[H]


 37 44  0  0  0  0  0  0  0  0999 V2000
   13.1417   24.6303   -0.4852 C   0  0  0  0  0  0  0  0  0  0  0  0
   13.3536   23.1243   -0.2130 C   0  0  0  0  0  0  0  0  0  0  0  0
   14.4637   22.7399   -1.1887 C   0  0  0  0  0  0  0  0  0  0  0  0
   13.7652   22.7450   -2.5237 C   0  0  0  0  0  0  0  0  0  0  0  0
   12.5871   23.4484   -2.5085 O   0  0  0  0  0  0  0  0  0  0  0  0
   12.6131   24.7042   -1.8734 C   0  0  0  0  0  0  0  0  0  0  0  0
   11.0845   24.9661   -1.7109 C   0  0  0  0  0  0  0  0  0  0  0  0
   13.1717   25.6750   -2.7781 N   0  0  0  0  0  0  0  0  0  0  0  0
   12.8734   27.0064   -2.8168 C   0  0  0  0  0  0  0  0  0  0  0  0
   12.1247   27.8205   -2.0158 C   0  0  0  0  0  0  0  0  0  0  0  0
   11.9933   29.1679   -2.2659 C   0  0  0  0  0  0  0  0  0  0  0  0
   12.6199   29.7382   -3.3419 C   0  0  0  0  0  0  0  0  0  0  0  0
   13.3913   28.9417   -4.1797 C   0  0  0  0  0  0  0  0  0  0  0  0
   13.4958   27.6128   -3.8959 C   0  0  0  0  0  0  0  0  0  0  0  0
   14.2106   26.6213   -4.5458 C   0  0  0  0  0  0  0  0  0  0  0  0
   15.0347   26.6155   -5.6552 C   0  0  0  0  0  0  0  0  0  0  0  0
   15.3674   27.7554   -6.5497 C   0  0  0  0  0  0  0  0  0  0  0  0
   16.1931   27.1687   -7.5631 N   0  0  0  0  0  0  0  0  0  0  0  0
   16.4156   25.7662   -7.2858 C   0  0  0  0  0  0  0  0  0  0  0  0
   17.1222   25.0149   -7.9883 O   0  0  0  0  0  0  0  0  0  0  0  0
   15.6789   25.4565   -6.0913 C   0  0  0  0  0  0  0  0  0  0  0  0
   15.4455   24.3033   -5.3432 C   0  0  0  0  0  0  0  0  0  0  0  0
   15.9333   23.0233   -5.4501 C   0  0  0  0  0  0  0  0  0  0  0  0
   16.7915   22.3958   -6.3049 C   0  0  0  0  0  0  0  0  0  0  0  0
   17.0741   21.0435   -6.0841 C   0  0  0  0  0  0  0  0  0  0  0  0
   16.5104   20.3526   -5.0418 C   0  0  0  0  0  0  0  0  0  0  0  0
   15.6473   20.9888   -4.1846 C   0  0  0  0  0  0  0  0  0  0  0  0
   15.3615   22.3179   -4.3893 C   0  0  0  0  0  0  0  0  0  0  0  0
   14.5711   23.0923   -3.6672 N   0  0  0  0  0  0  0  0  0  0  0  0
   14.6078   24.3103   -4.2270 C   0  0  0  0  0  0  0  0  0  0  0  0
   14.0037   25.4811   -3.8567 C   0  0  0  0  0  0  0  0  0  0  0  0
   16.6153   27.6193   -8.4158 H   0  0  0  0  0  0  0  0  0  0  0  0
   13.4280   22.6957    1.0861 N   0  0  0  0  0  0  0  0  0  0  0  0
   12.1308   22.7608    1.7297 C   0  0  0  0  0  0  0  0  0  0  0  0
   14.1286   21.5531    1.4869 C   0  0  0  0  0  0  0  0  0  0  0  0
   14.7546   25.4113    0.9819 C   0  0  0  0  0  0  0  0  0  0  0  0
   14.3966   25.1879   -0.3222 O   0  0  0  0  0  0  0  0  0  0  0  0
 36 37  1  0  0  0
 37  1  1  0  0  0
  1  2  1  0  0  0
  2  3  1  0  0  0
  3  4  1  0  0  0
  4  5  1  0  0  0
  5  6  1  0  0  0
  6  7  1  0  0  0
  6  8  1  0  0  0
  8  9  1  0  0  0
  9 10  2  0  0  0
 10 11  1  0  0  0
 11 12  2  0  0  0
 12 13  1  0  0  0
 13 14  2  0  0  0
 14 15  1  0  0  0
 15 16  2  0  0  0
 16 17  1  0  0  0
 17 18  1  0  0  0
 18 19  1  0  0  0
 19 20  2  0  0  0
 19 21  1  0  0  0
 21 22  2  0  0  0
 22 23  1  0  0  0
 23 24  2  0  0  0
 24 25  1  0  0  0
 25 26  2  0  0  0
 26 27  1  0  0  0
 27 28  2  0  0  0
 28 29  1  0  0  0
 29 30  1  0  0  0
 30 31  2  0  0  0
  2 33  1  0  0  0
 33 34  1  0  0  0
 33 35  1  0  0  0
  6  1  1  0  0  0
 31  8  1  0  0  0
 29  4  1  0  0  0
 14  9  1  0  0  0
 31 15  1  0  0  0
 21 16  1  0  0  0
 30 22  1  0  0  0
 28 23  1  0  0  0
 18 32  1  0  0  0
M  END
> <minimizedAffinity>
40.64155

> <CNNscore>
0.4554612637

> <CNNaffinity>
7.1518774033

> <CNN_VS>
3.2574031353

> <CNNaffinity_variance>
0.8239210844

$$$$
[H]c1c([H])c([H])c2c(c1[H])c1c3c(c4c5c([H])c([H])c([H])c([H])c5n5c4c1n2[C@@]1(C([H])([H])[H])O[C@]5([H])C([H])([H])[C@@]([H])(N(C([H])([H])[H])C([H])([H])[H])[C@@]1([H])OC([H])([H])[H])C(=O)N([H])C3([H])[H]


 37 44  0  0  0  0  0  0  0  0999 V2000
   15.9677   26.7916   -3.3174 C   0  0  0  0  0  0  0  0  0  0  0  0
   16.2857   26.3511   -4.7638 C   0  0  0  0  0  0  0  0  0  0  0  0
   15.3649   25.1522   -4.9803 C   0  0  0  0  0  0  0  0  0  0  0  0
   16.0075   24.0709   -4.1509 C   0  0  0  0  0  0  0  0  0  0  0  0
   16.8744   24.5635   -3.2081 O   0  0  0  0  0  0  0  0  0  0  0  0
   16.4265   25.6674   -2.4586 C   0  0  0  0  0  0  0  0  0  0  0  0
   17.7750   26.1523   -1.8436 C   0  0  0  0  0  0  0  0  0  0  0  0
   15.5616   25.1995   -1.4069 N   0  0  0  0  0  0  0  0  0  0  0  0
   15.3866   25.7851   -0.1864 C   0  0  0  0  0  0  0  0  0  0  0  0
   15.8193   26.9607    0.3573 C   0  0  0  0  0  0  0  0  0  0  0  0
   15.4801   27.3403    1.6364 C   0  0  0  0  0  0  0  0  0  0  0  0
   14.6865   26.5368    2.4112 C   0  0  0  0  0  0  0  0  0  0  0  0
   14.2261   25.3327    1.8920 C   0  0  0  0  0  0  0  0  0  0  0  0
   14.5846   24.9951    0.6212 C   0  0  0  0  0  0  0  0  0  0  0  0
   14.2457   23.8822   -0.1292 C   0  0  0  0  0  0  0  0  0  0  0  0
   13.4632   22.7705    0.1194 C   0  0  0  0  0  0  0  0  0  0  0  0
   12.7529   22.4183    1.3770 C   0  0  0  0  0  0  0  0  0  0  0  0
   12.1681   21.1407    1.0964 N   0  0  0  0  0  0  0  0  0  0  0  0
   12.4408   20.7479   -0.2691 C   0  0  0  0  0  0  0  0  0  0  0  0
   12.0271   19.6933   -0.7926 O   0  0  0  0  0  0  0  0  0  0  0  0
   13.2499   21.7859   -0.8467 C   0  0  0  0  0  0  0  0  0  0  0  0
   13.8701   21.9873   -2.0791 C   0  0  0  0  0  0  0  0  0  0  0  0
   13.8481   21.2664   -3.2485 C   0  0  0  0  0  0  0  0  0  0  0  0
   13.2483   20.1072   -3.6457 C   0  0  0  0  0  0  0  0  0  0  0  0
   13.4469   19.6770   -4.9620 C   0  0  0  0  0  0  0  0  0  0  0  0
   14.2222   20.3891   -5.8413 C   0  0  0  0  0  0  0  0  0  0  0  0
   14.8238   21.5548   -5.4366 C   0  0  0  0  0  0  0  0  0  0  0  0
   14.6362   21.9898   -4.1460 C   0  0  0  0  0  0  0  0  0  0  0  0
   15.1210   23.0842   -3.5865 N   0  0  0  0  0  0  0  0  0  0  0  0
   14.6652   23.1075   -2.3256 C   0  0  0  0  0  0  0  0  0  0  0  0
   14.8361   24.0328   -1.3318 C   0  0  0  0  0  0  0  0  0  0  0  0
   11.6096   20.5144    1.7322 H   0  0  0  0  0  0  0  0  0  0  0  0
   16.3741   27.3101   -5.7380 N   0  0  0  0  0  0  0  0  0  0  0  0
   15.8590   26.8176   -7.0002 C   0  0  0  0  0  0  0  0  0  0  0  0
   16.0210   28.6496   -5.5421 C   0  0  0  0  0  0  0  0  0  0  0  0
   13.9096   26.2217   -4.2135 C   0  0  0  0  0  0  0  0  0  0  0  0
   14.5994   26.9911   -3.3130 O   0  0  0  0  0  0  0  0  0  0  0  0
 36 37  1  0  0  0
 37  1  1  0  0  0
  1  2  1  0  0  0
  2  3  1  0  0  0
  3  4  1  0  0  0
  4  5  1  0  0  0
  5  6  1  0  0  0
  6  7  1  0  0  0
  6  8  1  0  0  0
  8  9  1  0  0  0
  9 10  2  0  0  0
 10 11  1  0  0  0
 11 12  2  0  0  0
 12 13  1  0  0  0
 13 14  2  0  0  0
 14 15  1  0  0  0
 15 16  2  0  0  0
 16 17  1  0  0  0
 17 18  1  0  0  0
 18 19  1  0  0  0
 19 20  2  0  0  0
 19 21  1  0  0  0
 21 22  2  0  0  0
 22 23  1  0  0  0
 23 24  2  0  0  0
 24 25  1  0  0  0
 25 26  2  0  0  0
 26 27  1  0  0  0
 27 28  2  0  0  0
 28 29  1  0  0  0
 29 30  1  0  0  0
 30 31  2  0  0  0
  2 33  1  0  0  0
 33 34  1  0  0  0
 33 35  1  0  0  0
  6  1  1  0  0  0
 31  8  1  0  0  0
 29  4  1  0  0  0
 14  9  1  0  0  0
 31 15  1  0  0  0
 21 16  1  0  0  0
 30 22  1  0  0  0
 28 23  1  0  0  0
 18 32  1  0  0  0
M  END
> <minimizedAffinity>
20.05146

> <CNNscore>
0.4480373561

> <CNNaffinity>
7.5657143593

> <CNN_VS>
3.3897225857

> <CNNaffinity_variance>
0.9723733068

$$$$
[H]c1c([H])c([H])c2c(c1[H])c1c3c(c4c5c([H])c([H])c([H])c([H])c5n5c4c1n2[C@@]1(C([H])([H])[H])O[C@]5([H])C([H])([H])[C@@]([H])(N(C([H])([H])[H])C([H])([H])[H])[C@@]1([H])OC([H])([H])[H])C(=O)N([H])C3([H])[H]


 37 44  0  0  0  0  0  0  0  0999 V2000
   11.1007   23.1687    0.7419 C   0  0  0  0  0  0  0  0  0  0  0  0
   10.1747   24.4044    0.6886 C   0  0  0  0  0  0  0  0  0  0  0  0
   10.3848   24.9447   -0.7242 C   0  0  0  0  0  0  0  0  0  0  0  0
   11.7595   25.5576   -0.6571 C   0  0  0  0  0  0  0  0  0  0  0  0
   12.4978   25.1007    0.4055 O   0  0  0  0  0  0  0  0  0  0  0  0
   12.4808   23.7116    0.6315 C   0  0  0  0  0  0  0  0  0  0  0  0
   13.0539   23.6580    2.0807 C   0  0  0  0  0  0  0  0  0  0  0  0
   13.4054   23.0787   -0.2726 N   0  0  0  0  0  0  0  0  0  0  0  0
   14.1013   21.9278   -0.0394 C   0  0  0  0  0  0  0  0  0  0  0  0
   14.0699   21.0036    0.9654 C   0  0  0  0  0  0  0  0  0  0  0  0
   14.8809   19.8911    0.9576 C   0  0  0  0  0  0  0  0  0  0  0  0
   15.7552   19.6771   -0.0745 C   0  0  0  0  0  0  0  0  0  0  0  0
   15.8153   20.5956   -1.1158 C   0  0  0  0  0  0  0  0  0  0  0  0
   14.9946   21.6827   -1.0697 C   0  0  0  0  0  0  0  0  0  0  0  0
   14.8420   22.7170   -1.9771 C   0  0  0  0  0  0  0  0  0  0  0  0
   15.4298   23.0090   -3.1933 C   0  0  0  0  0  0  0  0  0  0  0  0
   16.5041   22.2545   -3.8911 C   0  0  0  0  0  0  0  0  0  0  0  0
   16.7735   23.0394   -5.0592 N   0  0  0  0  0  0  0  0  0  0  0  0
   15.8818   24.1771   -5.1216 C   0  0  0  0  0  0  0  0  0  0  0  0
   15.8743   25.0137   -6.0475 O   0  0  0  0  0  0  0  0  0  0  0  0
   15.0601   24.1264   -3.9435 C   0  0  0  0  0  0  0  0  0  0  0  0
   14.0620   24.9324   -3.3975 C   0  0  0  0  0  0  0  0  0  0  0  0
   13.4329   26.0609   -3.8647 C   0  0  0  0  0  0  0  0  0  0  0  0
   13.5422   26.8179   -4.9944 C   0  0  0  0  0  0  0  0  0  0  0  0
   12.6941   27.9215   -5.1359 C   0  0  0  0  0  0  0  0  0  0  0  0
   11.7732   28.2479   -4.1731 C   0  0  0  0  0  0  0  0  0  0  0  0
   11.6673   27.4831   -3.0381 C   0  0  0  0  0  0  0  0  0  0  0  0
   12.4939   26.3950   -2.8866 C   0  0  0  0  0  0  0  0  0  0  0  0
   12.5276   25.5435   -1.8768 N   0  0  0  0  0  0  0  0  0  0  0  0
   13.4744   24.6391   -2.1660 C   0  0  0  0  0  0  0  0  0  0  0  0
   13.8875   23.5292   -1.4801 C   0  0  0  0  0  0  0  0  0  0  0  0
   17.4950   22.8830   -5.8098 H   0  0  0  0  0  0  0  0  0  0  0  0
    8.9002   24.2917    1.1781 N   0  0  0  0  0  0  0  0  0  0  0  0
    7.9995   23.7730    0.1678 C   0  0  0  0  0  0  0  0  0  0  0  0
    8.5970   23.7632    2.4375 C   0  0  0  0  0  0  0  0  0  0  0  0
   10.3933   21.0989   -0.0193 C   0  0  0  0  0  0  0  0  0  0  0  0
   10.7037   22.3963   -0.3343 O   0  0  0  0  0  0  0  0  0  0  0  0
 36 37  1  0  0  0
 37  1  1  0  0  0
  1  2  1  0  0  0
  2  3  1  0  0  0
  3  4  1  0  0  0
  4  5  1  0  0  0
  5  6  1  0  0  0
  6  7  1  0  0  0
  6  8  1  0  0  0
  8  9  1  0  0  0
  9 10  2  0  0  0
 10 11  1  0  0  0
 11 12  2  0  0  0
 12 13  1  0  0  0
 13 14  2  0  0  0
 14 15  1  0  0  0
 15 16  2  0  0  0
 16 17  1  0  0  0
 17 18  1  0  0  0
 18 19  1  0  0  0
 19 20  2  0  0  0
 19 21  1  0  0  0
 21 22  2  0  0  0
 22 23  1  0  0  0
 23 24  2  0  0  0
 24 25  1  0  0  0
 25 26  2  0  0  0
 26 27  1  0  0  0
 27 28  2  0  0  0
 28 29  1  0  0  0
 29 30  1  0  0  0
 30 31  2  0  0  0
  2 33  1  0  0  0
 33 34  1  0  0  0
 33 35  1  0  0  0
  6  1  1  0  0  0
 31  8  1  0  0  0
 29  4  1  0  0  0
 14  9  1  0  0  0
 31 15  1  0  0  0
 21 16  1  0  0  0
 30 22  1  0  0  0
 28 23  1  0  0  0
 18 32  1  0  0  0
M  END
> <minimizedAffinity>
18.12244

> <CNNscore>
0.4452954531

> <CNNaffinity>
7.2607741356

> <CNN_VS>
3.2331898212

> <CNNaffinity_variance>
1.0258258581

$$$$
[H]c1c([H])c([H])c2c(c1[H])c1c3c(c4c5c([H])c([H])c([H])c([H])c5n5c4c1n2[C@@]1(C([H])([H])[H])O[C@]5([H])C([H])([H])[C@@]([H])(N(C([H])([H])[H])C([H])([H])[H])[C@@]1([H])OC([H])([H])[H])C(=O)N([H])C3([H])[H]


 37 44  0  0  0  0  0  0  0  0999 V2000
   14.0310   22.5268   -0.4814 C   0  0  0  0  0  0  0  0  0  0  0  0
   13.5108   21.5893   -1.5938 C   0  0  0  0  0  0  0  0  0  0  0  0
   14.3188   22.0102   -2.8194 C   0  0  0  0  0  0  0  0  0  0  0  0
   13.7139   23.3393   -3.1902 C   0  0  0  0  0  0  0  0  0  0  0  0
   13.0024   23.9083   -2.1641 O   0  0  0  0  0  0  0  0  0  0  0  0
   13.6089   23.8919   -0.8941 C   0  0  0  0  0  0  0  0  0  0  0  0
   12.3798   24.2248    0.0060 C   0  0  0  0  0  0  0  0  0  0  0  0
   14.5638   24.9667   -0.8172 N   0  0  0  0  0  0  0  0  0  0  0  0
   14.9241   25.6460    0.3107 C   0  0  0  0  0  0  0  0  0  0  0  0
   14.6379   25.4774    1.6352 C   0  0  0  0  0  0  0  0  0  0  0  0
   15.1547   26.3082    2.6038 C   0  0  0  0  0  0  0  0  0  0  0  0
   15.9834   27.3430    2.2601 C   0  0  0  0  0  0  0  0  0  0  0  0
   16.2982   27.5459    0.9218 C   0  0  0  0  0  0  0  0  0  0  0  0
   15.7660   26.7000   -0.0050 C   0  0  0  0  0  0  0  0  0  0  0  0
   15.9380   26.6685   -1.3782 C   0  0  0  0  0  0  0  0  0  0  0  0
   16.6716   27.4369   -2.2622 C   0  0  0  0  0  0  0  0  0  0  0  0
   17.5060   28.6293   -1.9586 C   0  0  0  0  0  0  0  0  0  0  0  0
   17.9683   29.0628   -3.2436 N   0  0  0  0  0  0  0  0  0  0  0  0
   17.5060   28.1630   -4.2781 C   0  0  0  0  0  0  0  0  0  0  0  0
   17.7836   28.2829   -5.4888 O   0  0  0  0  0  0  0  0  0  0  0  0
   16.7012   27.1636   -3.6307 C   0  0  0  0  0  0  0  0  0  0  0  0
   15.9494   26.0695   -4.0568 C   0  0  0  0  0  0  0  0  0  0  0  0
   15.7816   25.4944   -5.2933 C   0  0  0  0  0  0  0  0  0  0  0  0
   16.2522   25.7645   -6.5449 C   0  0  0  0  0  0  0  0  0  0  0  0
   15.8669   24.9214   -7.5928 C   0  0  0  0  0  0  0  0  0  0  0  0
   15.0376   23.8489   -7.3841 C   0  0  0  0  0  0  0  0  0  0  0  0
   14.5666   23.5815   -6.1227 C   0  0  0  0  0  0  0  0  0  0  0  0
   14.9382   24.4014   -5.0835 C   0  0  0  0  0  0  0  0  0  0  0  0
   14.5972   24.2942   -3.8115 N   0  0  0  0  0  0  0  0  0  0  0  0
   15.2042   25.2989   -3.1632 C   0  0  0  0  0  0  0  0  0  0  0  0
   15.2161   25.6252   -1.8341 C   0  0  0  0  0  0  0  0  0  0  0  0
   18.5587   29.8998   -3.4869 H   0  0  0  0  0  0  0  0  0  0  0  0
   13.3662   20.2559   -1.3146 N   0  0  0  0  0  0  0  0  0  0  0  0
   14.4788   19.7667   -0.5248 C   0  0  0  0  0  0  0  0  0  0  0  0
   12.1631   19.6771   -0.8964 C   0  0  0  0  0  0  0  0  0  0  0  0
   15.9523   22.1931    0.7680 C   0  0  0  0  0  0  0  0  0  0  0  0
   15.3996   22.3293   -0.4789 O   0  0  0  0  0  0  0  0  0  0  0  0
 36 37  1  0  0  0
 37  1  1  0  0  0
  1  2  1  0  0  0
  2  3  1  0  0  0
  3  4  1  0  0  0
  4  5  1  0  0  0
  5  6  1  0  0  0
  6  7  1  0  0  0
  6  8  1  0  0  0
  8  9  1  0  0  0
  9 10  2  0  0  0
 10 11  1  0  0  0
 11 12  2  0  0  0
 12 13  1  0  0  0
 13 14  2  0  0  0
 14 15  1  0  0  0
 15 16  2  0  0  0
 16 17  1  0  0  0
 17 18  1  0  0  0
 18 19  1  0  0  0
 19 20  2  0  0  0
 19 21  1  0  0  0
 21 22  2  0  0  0
 22 23  1  0  0  0
 23 24  2  0  0  0
 24 25  1  0  0  0
 25 26  2  0  0  0
 26 27  1  0  0  0
 27 28  2  0  0  0
 28 29  1  0  0  0
 29 30  1  0  0  0
 30 31  2  0  0  0
  2 33  1  0  0  0
 33 34  1  0  0  0
 33 35  1  0  0  0
  6  1  1  0  0  0
 31  8  1  0  0  0
 29  4  1  0  0  0
 14  9  1  0  0  0
 31 15  1  0  0  0
 21 16  1  0  0  0
 30 22  1  0  0  0
 28 23  1  0  0  0
 18 32  1  0  0  0
M  END
> <minimizedAffinity>
34.23914

> <CNNscore>
0.4281124175

> <CNNaffinity>
7.2487535477

> <CNN_VS>
3.1032814980

> <CNNaffinity_variance>
0.7589486837

$$$$
[H]c1c([H])c([H])c2c(c1[H])c1c3c(c4c5c([H])c([H])c([H])c([H])c5n5c4c1n2[C@@]1(C([H])([H])[H])O[C@]5([H])C([H])([H])[C@@]([H])(N(C([H])([H])[H])C([H])([H])[H])[C@@]1([H])OC([H])([H])[H])C(=O)N([H])C3([H])[H]


 37 44  0  0  0  0  0  0  0  0999 V2000
   13.2121   28.1659   -4.5115 C   0  0  0  0  0  0  0  0  0  0  0  0
   11.7264   27.7465   -4.5742 C   0  0  0  0  0  0  0  0  0  0  0  0
   11.5232   26.9647   -3.2783 C   0  0  0  0  0  0  0  0  0  0  0  0
   12.2490   25.6705   -3.5400 C   0  0  0  0  0  0  0  0  0  0  0  0
   13.1458   25.7597   -4.5747 O   0  0  0  0  0  0  0  0  0  0  0  0
   13.9790   26.8940   -4.5880 C   0  0  0  0  0  0  0  0  0  0  0  0
   14.5126   26.8307   -6.0519 C   0  0  0  0  0  0  0  0  0  0  0  0
   15.0696   26.6848   -3.6716 N   0  0  0  0  0  0  0  0  0  0  0  0
   16.3265   27.2058   -3.7815 C   0  0  0  0  0  0  0  0  0  0  0  0
   16.8913   28.1134   -4.6312 C   0  0  0  0  0  0  0  0  0  0  0  0
   18.2092   28.4954   -4.5180 C   0  0  0  0  0  0  0  0  0  0  0  0
   19.0025   27.9675   -3.5344 C   0  0  0  0  0  0  0  0  0  0  0  0
   18.4628   27.0412   -2.6501 C   0  0  0  0  0  0  0  0  0  0  0  0
   17.1538   26.6911   -2.7965 C   0  0  0  0  0  0  0  0  0  0  0  0
   16.3790   25.8239   -2.0455 C   0  0  0  0  0  0  0  0  0  0  0  0
   16.6326   25.0420   -0.9345 C   0  0  0  0  0  0  0  0  0  0  0  0
   17.9222   24.8720   -0.2146 C   0  0  0  0  0  0  0  0  0  0  0  0
   17.6260   23.9035    0.7990 N   0  0  0  0  0  0  0  0  0  0  0  0
   16.2265   23.5388    0.7573 C   0  0  0  0  0  0  0  0  0  0  0  0
   15.6861   22.7360    1.5453 O   0  0  0  0  0  0  0  0  0  0  0  0
   15.6395   24.2661   -0.3345 C   0  0  0  0  0  0  0  0  0  0  0  0
   14.3748   24.3251   -0.9183 C   0  0  0  0  0  0  0  0  0  0  0  0
   13.1773   23.7429   -0.5794 C   0  0  0  0  0  0  0  0  0  0  0  0
   12.7718   22.8988    0.4126 C   0  0  0  0  0  0  0  0  0  0  0  0
   11.4251   22.5214    0.4507 C   0  0  0  0  0  0  0  0  0  0  0  0
   10.5246   22.9778   -0.4779 C   0  0  0  0  0  0  0  0  0  0  0  0
   10.9378   23.8270   -1.4742 C   0  0  0  0  0  0  0  0  0  0  0  0
   12.2583   24.2067   -1.5229 C   0  0  0  0  0  0  0  0  0  0  0  0
   12.8311   25.0192   -2.3933 N   0  0  0  0  0  0  0  0  0  0  0  0
   14.1226   25.1104   -2.0441 C   0  0  0  0  0  0  0  0  0  0  0  0
   15.1436   25.8438   -2.5851 C   0  0  0  0  0  0  0  0  0  0  0  0
   18.2715   23.4688    1.5080 H   0  0  0  0  0  0  0  0  0  0  0  0
   10.7952   28.6808   -4.9438 N   0  0  0  0  0  0  0  0  0  0  0  0
    9.6184   28.0477   -5.5053 C   0  0  0  0  0  0  0  0  0  0  0  0
   10.4428   29.7797   -4.1528 C   0  0  0  0  0  0  0  0  0  0  0  0
   13.2626   30.1969   -3.3996 C   0  0  0  0  0  0  0  0  0  0  0  0
   13.3297   28.8312   -3.3049 O   0  0  0  0  0  0  0  0  0  0  0  0
 36 37  1  0  0  0
 37  1  1  0  0  0
  1  2  1  0  0  0
  2  3  1  0  0  0
  3  4  1  0  0  0
  4  5  1  0  0  0
  5  6  1  0  0  0
  6  7  1  0  0  0
  6  8  1  0  0  0
  8  9  1  0  0  0
  9 10  2  0  0  0
 10 11  1  0  0  0
 11 12  2  0  0  0
 12 13  1  0  0  0
 13 14  2  0  0  0
 14 15  1  0  0  0
 15 16  2  0  0  0
 16 17  1  0  0  0
 17 18  1  0  0  0
 18 19  1  0  0  0
 19 20  2  0  0  0
 19 21  1  0  0  0
 21 22  2  0  0  0
 22 23  1  0  0  0
 23 24  2  0  0  0
 24 25  1  0  0  0
 25 26  2  0  0  0
 26 27  1  0  0  0
 27 28  2  0  0  0
 28 29  1  0  0  0
 29 30  1  0  0  0
 30 31  2  0  0  0
  2 33  1  0  0  0
 33 34  1  0  0  0
 33 35  1  0  0  0
  6  1  1  0  0  0
 31  8  1  0  0  0
 29  4  1  0  0  0
 14  9  1  0  0  0
 31 15  1  0  0  0
 21 16  1  0  0  0
 30 22  1  0  0  0
 28 23  1  0  0  0
 18 32  1  0  0  0
M  END
> <minimizedAffinity>
23.82201

> <CNNscore>
0.4261812270

> <CNNaffinity>
7.4925408363

> <CNN_VS>
3.1931803226

> <CNNaffinity_variance>
0.7863152623

$$$$
[H]c1c([H])c([H])c2c(c1[H])c1c3c(c4c5c([H])c([H])c([H])c([H])c5n5c4c1n2[C@@]1(C([H])([H])[H])O[C@]5([H])C([H])([H])[C@@]([H])(N(C([H])([H])[H])C([H])([H])[H])[C@@]1([H])OC([H])([H])[H])C(=O)N([H])C3([H])[H]


 37 44  0  0  0  0  0  0  0  0999 V2000
   10.1161   23.7618   -0.4642 C   0  0  0  0  0  0  0  0  0  0  0  0
    9.9595   22.5051    0.4209 C   0  0  0  0  0  0  0  0  0  0  0  0
   11.3402   22.3417    1.0527 C   0  0  0  0  0  0  0  0  0  0  0  0
   12.1851   21.8439   -0.0911 C   0  0  0  0  0  0  0  0  0  0  0  0
   11.6218   22.0881   -1.3183 O   0  0  0  0  0  0  0  0  0  0  0  0
   11.0891   23.3751   -1.5203 C   0  0  0  0  0  0  0  0  0  0  0  0
   10.2251   23.1225   -2.7936 C   0  0  0  0  0  0  0  0  0  0  0  0
   12.1614   24.2806   -1.8413 N   0  0  0  0  0  0  0  0  0  0  0  0
   12.0694   25.3933   -2.6268 C   0  0  0  0  0  0  0  0  0  0  0  0
   11.0187   26.0411   -3.2108 C   0  0  0  0  0  0  0  0  0  0  0  0
   11.1921   27.1841   -3.9583 C   0  0  0  0  0  0  0  0  0  0  0  0
   12.4429   27.7116   -4.1395 C   0  0  0  0  0  0  0  0  0  0  0  0
   13.5370   27.0804   -3.5599 C   0  0  0  0  0  0  0  0  0  0  0  0
   13.3214   25.9518   -2.8270 C   0  0  0  0  0  0  0  0  0  0  0  0
   14.2210   25.1591   -2.1351 C   0  0  0  0  0  0  0  0  0  0  0  0
   15.5883   25.2187   -1.9426 C   0  0  0  0  0  0  0  0  0  0  0  0
   16.5466   26.2039   -2.5094 C   0  0  0  0  0  0  0  0  0  0  0  0
   17.8234   25.7496   -2.0444 N   0  0  0  0  0  0  0  0  0  0  0  0
   17.6686   24.5926   -1.1894 C   0  0  0  0  0  0  0  0  0  0  0  0
   18.6133   24.0073   -0.6218 O   0  0  0  0  0  0  0  0  0  0  0  0
   16.2642   24.2900   -1.1496 C   0  0  0  0  0  0  0  0  0  0  0  0
   15.4817   23.2979   -0.5601 C   0  0  0  0  0  0  0  0  0  0  0  0
   15.7923   22.2690    0.2959 C   0  0  0  0  0  0  0  0  0  0  0  0
   16.9444   21.8194    0.8717 C   0  0  0  0  0  0  0  0  0  0  0  0
   16.8683   20.7181    1.7311 C   0  0  0  0  0  0  0  0  0  0  0  0
   15.6756   20.0950    1.9966 C   0  0  0  0  0  0  0  0  0  0  0  0
   14.5191   20.5512    1.4143 C   0  0  0  0  0  0  0  0  0  0  0  0
   14.5792   21.6333    0.5685 C   0  0  0  0  0  0  0  0  0  0  0  0
   13.5778   22.2149   -0.0677 N   0  0  0  0  0  0  0  0  0  0  0  0
   14.1021   23.2359   -0.7612 C   0  0  0  0  0  0  0  0  0  0  0  0
   13.5032   24.1764   -1.5548 C   0  0  0  0  0  0  0  0  0  0  0  0
   18.7794   26.1408   -2.2477 H   0  0  0  0  0  0  0  0  0  0  0  0
    8.8458   22.3926    1.2107 N   0  0  0  0  0  0  0  0  0  0  0  0
    7.6501   22.2452    0.4047 C   0  0  0  0  0  0  0  0  0  0  0  0
    8.7826   21.5857    2.3519 C   0  0  0  0  0  0  0  0  0  0  0  0
    9.8186   24.8883    1.5374 C   0  0  0  0  0  0  0  0  0  0  0  0
   10.5732   24.7370    0.4032 O   0  0  0  0  0  0  0  0  0  0  0  0
 36 37  1  0  0  0
 37  1  1  0  0  0
  1  2  1  0  0  0
  2  3  1  0  0  0
  3  4  1  0  0  0
  4  5  1  0  0  0
  5  6  1  0  0  0
  6  7  1  0  0  0
  6  8  1  0  0  0
  8  9  1  0  0  0
  9 10  2  0  0  0
 10 11  1  0  0  0
 11 12  2  0  0  0
 12 13  1  0  0  0
 13 14  2  0  0  0
 14 15  1  0  0  0
 15 16  2  0  0  0
 16 17  1  0  0  0
 17 18  1  0  0  0
 18 19  1  0  0  0
 19 20  2  0  0  0
 19 21  1  0  0  0
 21 22  2  0  0  0
 22 23  1  0  0  0
 23 24  2  0  0  0
 24 25  1  0  0  0
 25 26  2  0  0  0
 26 27  1  0  0  0
 27 28  2  0  0  0
 28 29  1  0  0  0
 29 30  1  0  0  0
 30 31  2  0  0  0
  2 33  1  0  0  0
 33 34  1  0  0  0
 33 35  1  0  0  0
  6  1  1  0  0  0
 31  8  1  0  0  0
 29  4  1  0  0  0
 14  9  1  0  0  0
 31 15  1  0  0  0
 21 16  1  0  0  0
 30 22  1  0  0  0
 28 23  1  0  0  0
 18 32  1  0  0  0
M  END
> <minimizedAffinity>
19.76578

> <CNNscore>
0.4227689803

> <CNNaffinity>
7.2478418350

> <CNN_VS>
3.0641627312

> <CNNaffinity_variance>
1.3225841522

$$$$
[H]c1c([H])c([H])c2c(c1[H])c1c3c(c4c5c([H])c([H])c([H])c([H])c5n5c4c1n2[C@@]1(C([H])([H])[H])O[C@]5([H])C([H])([H])[C@@]([H])(N(C([H])([H])[H])C([H])([H])[H])[C@@]1([H])OC([H])([H])[H])C(=O)N([H])C3([H])[H]


 37 44  0  0  0  0  0  0  0  0999 V2000
   11.3102   21.4748   -0.6548 C   0  0  0  0  0  0  0  0  0  0  0  0
   10.0779   22.1247   -1.3227 C   0  0  0  0  0  0  0  0  0  0  0  0
   10.6905   23.0834   -2.3414 C   0  0  0  0  0  0  0  0  0  0  0  0
   11.2335   24.1963   -1.4831 C   0  0  0  0  0  0  0  0  0  0  0  0
   11.3882   23.8320   -0.1692 O   0  0  0  0  0  0  0  0  0  0  0  0
   11.9893   22.5819    0.0697 C   0  0  0  0  0  0  0  0  0  0  0  0
   11.6144   22.3743    1.5690 C   0  0  0  0  0  0  0  0  0  0  0  0
   13.4174   22.7181   -0.0522 N   0  0  0  0  0  0  0  0  0  0  0  0
   14.3571   21.9856    0.6140 C   0  0  0  0  0  0  0  0  0  0  0  0
   14.2842   20.8989    1.4376 C   0  0  0  0  0  0  0  0  0  0  0  0
   15.4088   20.3197    1.9809 C   0  0  0  0  0  0  0  0  0  0  0  0
   16.6514   20.8254    1.7059 C   0  0  0  0  0  0  0  0  0  0  0  0
   16.7658   21.9306    0.8711 C   0  0  0  0  0  0  0  0  0  0  0  0
   15.6276   22.4730    0.3536 C   0  0  0  0  0  0  0  0  0  0  0  0
   15.4691   23.5430   -0.5103 C   0  0  0  0  0  0  0  0  0  0  0  0
   16.3553   24.4029   -1.1311 C   0  0  0  0  0  0  0  0  0  0  0  0
   17.8349   24.4433   -0.9923 C   0  0  0  0  0  0  0  0  0  0  0  0
   18.2257   25.5652   -1.7934 N   0  0  0  0  0  0  0  0  0  0  0  0
   17.0725   26.1499   -2.4428 C   0  0  0  0  0  0  0  0  0  0  0  0
   17.1237   27.1224   -3.2231 O   0  0  0  0  0  0  0  0  0  0  0  0
   15.9257   25.4013   -2.0067 C   0  0  0  0  0  0  0  0  0  0  0  0
   14.5505   25.4821   -2.2220 C   0  0  0  0  0  0  0  0  0  0  0  0
   13.7925   26.2929   -3.0318 C   0  0  0  0  0  0  0  0  0  0  0  0
   14.0722   27.3086   -3.8984 C   0  0  0  0  0  0  0  0  0  0  0  0
   13.0081   27.9067   -4.5822 C   0  0  0  0  0  0  0  0  0  0  0  0
   11.7129   27.4955   -4.3961 C   0  0  0  0  0  0  0  0  0  0  0  0
   11.4367   26.4731   -3.5227 C   0  0  0  0  0  0  0  0  0  0  0  0
   12.4730   25.8757   -2.8449 C   0  0  0  0  0  0  0  0  0  0  0  0
   12.4017   24.8781   -1.9815 N   0  0  0  0  0  0  0  0  0  0  0  0
   13.6570   24.6169   -1.5890 C   0  0  0  0  0  0  0  0  0  0  0  0
   14.1457   23.6627   -0.7383 C   0  0  0  0  0  0  0  0  0  0  0  0
   19.1860   25.9705   -1.9413 H   0  0  0  0  0  0  0  0  0  0  0  0
    9.0369   21.3201   -1.7044 N   0  0  0  0  0  0  0  0  0  0  0  0
    9.1832   20.9006   -3.0841 C   0  0  0  0  0  0  0  0  0  0  0  0
    8.5307   20.2807   -0.9165 C   0  0  0  0  0  0  0  0  0  0  0  0
   12.8221   19.8786   -1.3830 C   0  0  0  0  0  0  0  0  0  0  0  0
   12.0365   20.9533   -1.7097 O   0  0  0  0  0  0  0  0  0  0  0  0
 36 37  1  0  0  0
 37  1  1  0  0  0
  1  2  1  0  0  0
  2  3  1  0  0  0
  3  4  1  0  0  0
  4  5  1  0  0  0
  5  6  1  0  0  0
  6  7  1  0  0  0
  6  8  1  0  0  0
  8  9  1  0  0  0
  9 10  2  0  0  0
 10 11  1  0  0  0
 11 12  2  0  0  0
 12 13  1  0  0  0
 13 14  2  0  0  0
 14 15  1  0  0  0
 15 16  2  0  0  0
 16 17  1  0  0  0
 17 18  1  0  0  0
 18 19  1  0  0  0
 19 20  2  0  0  0
 19 21  1  0  0  0
 21 22  2  0  0  0
 22 23  1  0  0  0
 23 24  2  0  0  0
 24 25  1  0  0  0
 25 26  2  0  0  0
 26 27  1  0  0  0
 27 28  2  0  0  0
 28 29  1  0  0  0
 29 30  1  0  0  0
 30 31  2  0  0  0
  2 33  1  0  0  0
 33 34  1  0  0  0
 33 35  1  0  0  0
  6  1  1  0  0  0
 31  8  1  0  0  0
 29  4  1  0  0  0
 14  9  1  0  0  0
 31 15  1  0  0  0
 21 16  1  0  0  0
 30 22  1  0  0  0
 28 23  1  0  0  0
 18 32  1  0  0  0
M  END
> <minimizedAffinity>
13.85760

> <CNNscore>
0.4106338322

> <CNNaffinity>
7.3471207619

> <CNN_VS>
3.0169763565

> <CNNaffinity_variance>
0.8554958105

$$$$
[H]N=C(N([H])[H])N([H])C([H])([H])C([H])([H])C([H])([H])[C@@]([H])(C(=O)c1nc2c([H])c([H])c([H])c([H])c2s1)N([H])C(=O)[C@@]([H])(N([H])C(=O)[C@@]([H])(N([H])C(=O)[C@@]1([H])N(C(=O)OC([H])([H])c2c([H])c([H])c([H])c([H])c2[H])C([H])([H])C([H])([H])C1([H])[H])C([H])([H])C([H])([H])C([H])([H])N([H])C(=N[H])N([H])[H])C([H])([H])c1c([H])c([H])c([H])c([H])c1[H]


 70 74  0  0  0  0  0  0  0  0999 V2000
    9.6178   22.5706    0.3719 C   0  0  0  0  0  0  0  0  0  0  0  0
    8.9453   23.5740    0.1171 O   0  0  0  0  0  0  0  0  0  0  0  0
    9.0229   21.2873    0.3589 N   0  0  0  0  0  0  0  0  0  0  0  0
    9.6262   20.4626    0.5720 H   0  0  0  0  0  0  0  0  0  0  0  0
    7.5958   21.1604    0.0542 C   0  0  0  0  0  0  0  0  0  0  0  0
    6.9386   20.0587    0.8540 C   0  0  0  0  0  0  0  0  0  0  0  0
    6.8233   18.9920    0.2227 O   0  0  0  0  0  0  0  0  0  0  0  0
    6.5330   20.2958    2.1504 N   0  0  0  0  0  0  0  0  0  0  0  0
    6.2464   18.9577    2.3233 H   0  0  0  0  0  0  0  0  0  0  0  0
    6.1200   20.5031    3.4386 C   0  0  0  0  0  0  0  0  0  0  0  0
    7.2567   21.0115    4.2712 C   0  0  0  0  0  0  0  0  0  0  0  0
    8.0038   20.1666    4.8748 O   0  0  0  0  0  0  0  0  0  0  0  0
    7.5802   22.4160    4.4406 C   0  0  0  0  0  0  0  0  0  0  0  0
    7.9311   23.3250    3.5579 N   0  0  0  0  0  0  0  0  0  0  0  0
    8.1926   24.5402    3.9185 C   0  0  0  0  0  0  0  0  0  0  0  0
    8.5814   25.5964    3.0775 C   0  0  0  0  0  0  0  0  0  0  0  0
    8.8369   26.8364    3.5610 C   0  0  0  0  0  0  0  0  0  0  0  0
    8.7333   27.1420    4.8902 C   0  0  0  0  0  0  0  0  0  0  0  0
    8.3568   26.1378    5.7440 C   0  0  0  0  0  0  0  0  0  0  0  0
    8.0909   24.8507    5.2529 C   0  0  0  0  0  0  0  0  0  0  0  0
    7.6125   23.3242    5.9026 S   0  0  0  0  0  0  0  0  0  0  0  0
    5.3842   19.4564    4.2199 C   0  0  0  0  0  0  0  0  0  0  0  0
    3.9230   19.4853    4.2697 C   0  0  0  0  0  0  0  0  0  0  0  0
    3.1878   19.6613    5.5480 C   0  0  0  0  0  0  0  0  0  0  0  0
    4.0545   20.2093    6.6059 N   0  0  0  0  0  0  0  0  0  0  0  0
    4.5412   19.5687    7.2307 H   0  0  0  0  0  0  0  0  0  0  0  0
    4.1619   21.6078    6.7070 C   0  0  0  0  0  0  0  0  0  0  0  0
    3.1900   22.5182    6.2119 N   0  0  0  0  0  0  0  0  0  0  0  0
    5.1897   22.1715    7.2964 N   0  0  0  0  0  0  0  0  0  0  0  0
    2.2815   22.7051    6.6939 H   0  0  0  0  0  0  0  0  0  0  0  0
    3.3877   23.0250    5.3363 H   0  0  0  0  0  0  0  0  0  0  0  0
    5.9061   21.5387    7.6771 H   0  0  0  0  0  0  0  0  0  0  0  0
    7.5066   20.8795   -1.4149 C   0  0  0  0  0  0  0  0  0  0  0  0
    6.1581   20.7092   -1.9580 C   0  0  0  0  0  0  0  0  0  0  0  0
    5.8444   19.7766   -2.9378 C   0  0  0  0  0  0  0  0  0  0  0  0
    4.5464   19.7344   -3.3842 C   0  0  0  0  0  0  0  0  0  0  0  0
    3.5449   20.5449   -2.9348 C   0  0  0  0  0  0  0  0  0  0  0  0
    3.8377   21.5026   -1.9382 C   0  0  0  0  0  0  0  0  0  0  0  0
    5.1344   21.5270   -1.5088 C   0  0  0  0  0  0  0  0  0  0  0  0
   11.0830   22.7049    0.7053 C   0  0  0  0  0  0  0  0  0  0  0  0
   11.6009   23.8912    0.0807 N   0  0  0  0  0  0  0  0  0  0  0  0
   11.9807   23.9894   -1.3010 C   0  0  0  0  0  0  0  0  0  0  0  0
   11.8604   22.9806   -2.0124 O   0  0  0  0  0  0  0  0  0  0  0  0
   11.7051   24.7191    0.6729 H   0  0  0  0  0  0  0  0  0  0  0  0
   12.4766   25.2616   -1.7685 C   0  0  0  0  0  0  0  0  0  0  0  0
   11.6590   25.7893   -2.9558 C   0  0  0  0  0  0  0  0  0  0  0  0
   12.6462   26.4802   -3.8542 C   0  0  0  0  0  0  0  0  0  0  0  0
   13.7628   26.7748   -2.8680 C   0  0  0  0  0  0  0  0  0  0  0  0
   13.8179   25.4344   -2.1622 N   0  0  0  0  0  0  0  0  0  0  0  0
   15.0422   24.7793   -2.0659 C   0  0  0  0  0  0  0  0  0  0  0  0
   16.0596   25.3205   -2.6532 O   0  0  0  0  0  0  0  0  0  0  0  0
   15.3243   23.6202   -1.4240 O   0  0  0  0  0  0  0  0  0  0  0  0
   15.0118   22.3311   -1.9614 C   0  0  0  0  0  0  0  0  0  0  0  0
   14.3157   21.4867   -0.9602 C   0  0  0  0  0  0  0  0  0  0  0  0
   14.6469   21.4736    0.3607 C   0  0  0  0  0  0  0  0  0  0  0  0
   13.9668   20.6659    1.2713 C   0  0  0  0  0  0  0  0  0  0  0  0
   12.9316   19.8416    0.8882 C   0  0  0  0  0  0  0  0  0  0  0  0
   12.5892   19.8522   -0.4680 C   0  0  0  0  0  0  0  0  0  0  0  0
   13.2636   20.6519   -1.3548 C   0  0  0  0  0  0  0  0  0  0  0  0
   11.1475   22.7851    2.1894 C   0  0  0  0  0  0  0  0  0  0  0  0
   10.7047   21.6585    3.0209 C   0  0  0  0  0  0  0  0  0  0  0  0
   11.6251   21.1881    4.0887 C   0  0  0  0  0  0  0  0  0  0  0  0
   10.8228   20.4699    5.1002 N   0  0  0  0  0  0  0  0  0  0  0  0
   10.2931   21.0405    5.8241 H   0  0  0  0  0  0  0  0  0  0  0  0
    9.9046   18.3368    5.8708 N   0  0  0  0  0  0  0  0  0  0  0  0
   10.7874   19.0746    5.0790 C   0  0  0  0  0  0  0  0  0  0  0  0
   11.6033   18.4329    4.2843 N   0  0  0  0  0  0  0  0  0  0  0  0
    9.7660   18.5909    6.8812 H   0  0  0  0  0  0  0  0  0  0  0  0
    9.3512   17.5125    5.5035 H   0  0  0  0  0  0  0  0  0  0  0  0
   12.2781   18.9725    3.6775 H   0  0  0  0  0  0  0  0  0  0  0  0
 65 66  1  0  0  0
 66 67  2  0  0  0
 66 63  1  0  0  0
 63 62  1  0  0  0
 62 61  1  0  0  0
 61 60  1  0  0  0
 60 40  1  0  0  0
 40 41  1  0  0  0
 41 42  1  0  0  0
 42 43  2  0  0  0
 42 45  1  0  0  0
 45 46  1  0  0  0
 46 47  1  0  0  0
 47 48  1  0  0  0
 48 49  1  0  0  0
 49 50  1  0  0  0
 50 51  2  0  0  0
 50 52  1  0  0  0
 52 53  1  0  0  0
 53 54  1  0  0  0
 54 55  2  0  0  0
 55 56  1  0  0  0
 56 57  2  0  0  0
 57 58  1  0  0  0
 58 59  2  0  0  0
 40  1  1  0  0  0
  1  2  2  0  0  0
  1  3  1  0  0  0
  3  5  1  0  0  0
  5 33  1  0  0  0
 33 34  1  0  0  0
 34 35  2  0  0  0
 35 36  1  0  0  0
 36 37  2  0  0  0
 37 38  1  0  0  0
 38 39  2  0  0  0
  5  6  1  0  0  0
  6  7  2  0  0  0
  6  8  1  0  0  0
  8 10  1  0  0  0
 10 22  1  0  0  0
 22 23  1  0  0  0
 23 24  1  0  0  0
 24 25  1  0  0  0
 25 27  1  0  0  0
 27 28  1  0  0  0
 27 29  2  0  0  0
 10 11  1  0  0  0
 11 12  2  0  0  0
 11 13  1  0  0  0
 13 14  2  0  0  0
 14 15  1  0  0  0
 15 16  2  0  0  0
 16 17  1  0  0  0
 17 18  2  0  0  0
 18 19  1  0  0  0
 19 20  2  0  0  0
 20 21  1  0  0  0
 49 45  1  0  0  0
 59 54  1  0  0  0
 39 34  1  0  0  0
 21 13  1  0  0  0
 20 15  1  0  0  0
 65 68  1  0  0  0
 65 69  1  0  0  0
 67 70  1  0  0  0
 63 64  1  0  0  0
 41 44  1  0  0  0
  3  4  1  0  0  0
  8  9  1  0  0  0
 25 26  1  0  0  0
 28 30  1  0  0  0
 28 31  1  0  0  0
 29 32  1  0  0  0
M  END
> <minimizedAffinity>
-4.51155

> <CNNscore>
0.2597124577

> <CNNaffinity>
7.4799757004

> <CNN_VS>
1.9426429272

> <CNNaffinity_variance>
0.2919931710

$$$$
[H]N=C(N([H])[H])N([H])C([H])([H])C([H])([H])C([H])([H])[C@@]([H])(C(=O)c1nc2c([H])c([H])c([H])c([H])c2s1)N([H])C(=O)[C@@]([H])(N([H])C(=O)[C@@]([H])(N([H])C(=O)[C@@]1([H])N(C(=O)OC([H])([H])c2c([H])c([H])c([H])c([H])c2[H])C([H])([H])C([H])([H])C1([H])[H])C([H])([H])C([H])([H])C([H])([H])N([H])C(=N[H])N([H])[H])C([H])([H])c1c([H])c([H])c([H])c([H])c1[H]


 70 74  0  0  0  0  0  0  0  0999 V2000
    9.8787   22.8038    0.5092 C   0  0  0  0  0  0  0  0  0  0  0  0
    9.2901   23.7894    0.0552 O   0  0  0  0  0  0  0  0  0  0  0  0
    9.1572   21.6419    0.8701 N   0  0  0  0  0  0  0  0  0  0  0  0
    9.6913   20.8264    1.2430 H   0  0  0  0  0  0  0  0  0  0  0  0
    7.7008   21.6235    0.7139 C   0  0  0  0  0  0  0  0  0  0  0  0
    6.9899   21.3992    2.0290 C   0  0  0  0  0  0  0  0  0  0  0  0
    6.4306   20.2896    2.1047 O   0  0  0  0  0  0  0  0  0  0  0  0
    7.0057   22.3806    2.9975 N   0  0  0  0  0  0  0  0  0  0  0  0
    6.4156   21.5219    3.9013 H   0  0  0  0  0  0  0  0  0  0  0  0
    7.0044   23.3375    3.9761 C   0  0  0  0  0  0  0  0  0  0  0  0
    7.9110   24.4677    3.5962 C   0  0  0  0  0  0  0  0  0  0  0  0
    9.1615   24.2351    3.4606 O   0  0  0  0  0  0  0  0  0  0  0  0
    7.4648   25.8285    3.3614 C   0  0  0  0  0  0  0  0  0  0  0  0
    6.6307   26.3126    2.4678 N   0  0  0  0  0  0  0  0  0  0  0  0
    6.3692   27.5792    2.4154 C   0  0  0  0  0  0  0  0  0  0  0  0
    5.5058   28.2176    1.5094 C   0  0  0  0  0  0  0  0  0  0  0  0
    5.3053   29.5576    1.5383 C   0  0  0  0  0  0  0  0  0  0  0  0
    5.9243   30.3732    2.4453 C   0  0  0  0  0  0  0  0  0  0  0  0
    6.7755   29.7882    3.3465 C   0  0  0  0  0  0  0  0  0  0  0  0
    6.9899   28.4018    3.3239 C   0  0  0  0  0  0  0  0  0  0  0  0
    7.9286   27.2537    4.2082 S   0  0  0  0  0  0  0  0  0  0  0  0
    7.2331   23.0039    5.4196 C   0  0  0  0  0  0  0  0  0  0  0  0
    6.1578   22.3924    6.1995 C   0  0  0  0  0  0  0  0  0  0  0  0
    5.4469   23.1378    7.2694 C   0  0  0  0  0  0  0  0  0  0  0  0
    5.4950   24.5932    7.0459 N   0  0  0  0  0  0  0  0  0  0  0  0
    6.2461   25.1361    7.4686 H   0  0  0  0  0  0  0  0  0  0  0  0
    4.4837   25.1694    6.2567 C   0  0  0  0  0  0  0  0  0  0  0  0
    3.1893   24.6085    6.0882 N   0  0  0  0  0  0  0  0  0  0  0  0
    4.6763   26.3017    5.6223 N   0  0  0  0  0  0  0  0  0  0  0  0
    2.4416   24.6631    6.8166 H   0  0  0  0  0  0  0  0  0  0  0  0
    2.9705   24.1263    5.2038 H   0  0  0  0  0  0  0  0  0  0  0  0
    5.6002   26.7405    5.7339 H   0  0  0  0  0  0  0  0  0  0  0  0
    7.3990   20.5180   -0.2514 C   0  0  0  0  0  0  0  0  0  0  0  0
    6.0177   20.4381   -0.7287 C   0  0  0  0  0  0  0  0  0  0  0  0
    5.3183   19.2436   -0.8384 C   0  0  0  0  0  0  0  0  0  0  0  0
    4.0359   19.2993   -1.3266 C   0  0  0  0  0  0  0  0  0  0  0  0
    3.4022   20.4443   -1.7130 C   0  0  0  0  0  0  0  0  0  0  0  0
    4.0918   21.6732   -1.6118 C   0  0  0  0  0  0  0  0  0  0  0  0
    5.3654   21.5944   -1.1238 C   0  0  0  0  0  0  0  0  0  0  0  0
   11.3764   22.8315    0.6883 C   0  0  0  0  0  0  0  0  0  0  0  0
   11.9058   24.0022    0.0439 N   0  0  0  0  0  0  0  0  0  0  0  0
   12.1359   24.1254   -1.3685 C   0  0  0  0  0  0  0  0  0  0  0  0
   11.8652   23.1542   -2.0908 O   0  0  0  0  0  0  0  0  0  0  0  0
   12.1344   24.7985    0.6444 H   0  0  0  0  0  0  0  0  0  0  0  0
   12.6671   25.3772   -1.8519 C   0  0  0  0  0  0  0  0  0  0  0  0
   11.8498   25.9249   -3.0303 C   0  0  0  0  0  0  0  0  0  0  0  0
   12.8459   26.5766   -3.9480 C   0  0  0  0  0  0  0  0  0  0  0  0
   13.9866   26.8394   -2.9805 C   0  0  0  0  0  0  0  0  0  0  0  0
   14.0074   25.5024   -2.2667 N   0  0  0  0  0  0  0  0  0  0  0  0
   15.2103   24.8070   -2.1844 C   0  0  0  0  0  0  0  0  0  0  0  0
   16.2363   25.3100   -2.7905 O   0  0  0  0  0  0  0  0  0  0  0  0
   15.4631   23.6430   -1.5390 O   0  0  0  0  0  0  0  0  0  0  0  0
   15.1338   22.3598   -2.0804 C   0  0  0  0  0  0  0  0  0  0  0  0
   14.4303   21.5201   -1.0806 C   0  0  0  0  0  0  0  0  0  0  0  0
   14.8418   21.4011    0.2122 C   0  0  0  0  0  0  0  0  0  0  0  0
   14.1517   20.6018    1.1227 C   0  0  0  0  0  0  0  0  0  0  0  0
   13.0255   19.8923    0.7676 C   0  0  0  0  0  0  0  0  0  0  0  0
   12.6003   20.0118   -0.5597 C   0  0  0  0  0  0  0  0  0  0  0  0
   13.2856   20.8022   -1.4465 C   0  0  0  0  0  0  0  0  0  0  0  0
   11.6008   22.8575    2.1587 C   0  0  0  0  0  0  0  0  0  0  0  0
   10.9688   21.8594    3.0311 C   0  0  0  0  0  0  0  0  0  0  0  0
   11.8013   21.2603    4.1067 C   0  0  0  0  0  0  0  0  0  0  0  0
   10.8935   20.6837    5.1197 N   0  0  0  0  0  0  0  0  0  0  0  0
   10.3920   21.3447    5.7844 H   0  0  0  0  0  0  0  0  0  0  0  0
    9.7853   18.6940    6.0141 N   0  0  0  0  0  0  0  0  0  0  0  0
   10.7255   19.2991    5.1772 C   0  0  0  0  0  0  0  0  0  0  0  0
   11.4680   18.5394    4.4152 N   0  0  0  0  0  0  0  0  0  0  0  0
    9.6827   19.0157    7.0095 H   0  0  0  0  0  0  0  0  0  0  0  0
    9.1522   17.9072    5.6969 H   0  0  0  0  0  0  0  0  0  0  0  0
   12.1842   18.9778    3.7752 H   0  0  0  0  0  0  0  0  0  0  0  0
 65 66  1  0  0  0
 66 67  2  0  0  0
 66 63  1  0  0  0
 63 62  1  0  0  0
 62 61  1  0  0  0
 61 60  1  0  0  0
 60 40  1  0  0  0
 40 41  1  0  0  0
 41 42  1  0  0  0
 42 43  2  0  0  0
 42 45  1  0  0  0
 45 46  1  0  0  0
 46 47  1  0  0  0
 47 48  1  0  0  0
 48 49  1  0  0  0
 49 50  1  0  0  0
 50 51  2  0  0  0
 50 52  1  0  0  0
 52 53  1  0  0  0
 53 54  1  0  0  0
 54 55  2  0  0  0
 55 56  1  0  0  0
 56 57  2  0  0  0
 57 58  1  0  0  0
 58 59  2  0  0  0
 40  1  1  0  0  0
  1  2  2  0  0  0
  1  3  1  0  0  0
  3  5  1  0  0  0
  5 33  1  0  0  0
 33 34  1  0  0  0
 34 35  2  0  0  0
 35 36  1  0  0  0
 36 37  2  0  0  0
 37 38  1  0  0  0
 38 39  2  0  0  0
  5  6  1  0  0  0
  6  7  2  0  0  0
  6  8  1  0  0  0
  8 10  1  0  0  0
 10 22  1  0  0  0
 22 23  1  0  0  0
 23 24  1  0  0  0
 24 25  1  0  0  0
 25 27  1  0  0  0
 27 28  1  0  0  0
 27 29  2  0  0  0
 10 11  1  0  0  0
 11 12  2  0  0  0
 11 13  1  0  0  0
 13 14  2  0  0  0
 14 15  1  0  0  0
 15 16  2  0  0  0
 16 17  1  0  0  0
 17 18  2  0  0  0
 18 19  1  0  0  0
 19 20  2  0  0  0
 20 21  1  0  0  0
 49 45  1  0  0  0
 59 54  1  0  0  0
 39 34  1  0  0  0
 21 13  1  0  0  0
 20 15  1  0  0  0
 65 68  1  0  0  0
 65 69  1  0  0  0
 67 70  1  0  0  0
 63 64  1  0  0  0
 41 44  1  0  0  0
  3  4  1  0  0  0
  8  9  1  0  0  0
 25 26  1  0  0  0
 28 30  1  0  0  0
 28 31  1  0  0  0
 29 32  1  0  0  0
M  END
> <minimizedAffinity>
-5.25338

> <CNNscore>
0.2096126229

> <CNNaffinity>
7.4961328506

> <CNN_VS>
1.5712840557

> <CNNaffinity_variance>
0.3751922250

$$$$
[H]N=C(N([H])[H])N([H])C([H])([H])C([H])([H])C([H])([H])[C@@]([H])(C(=O)c1nc2c([H])c([H])c([H])c([H])c2s1)N([H])C(=O)[C@@]([H])(N([H])C(=O)[C@@]([H])(N([H])C(=O)[C@@]1([H])N(C(=O)OC([H])([H])c2c([H])c([H])c([H])c([H])c2[H])C([H])([H])C([H])([H])C1([H])[H])C([H])([H])C([H])([H])C([H])([H])N([H])C(=N[H])N([H])[H])C([H])([H])c1c([H])c([H])c([H])c([H])c1[H]


 70 74  0  0  0  0  0  0  0  0999 V2000
   10.2511   21.2941    3.0719 C   0  0  0  0  0  0  0  0  0  0  0  0
    9.9710   20.6171    2.0783 O   0  0  0  0  0  0  0  0  0  0  0  0
   11.0938   22.4241    2.9544 N   0  0  0  0  0  0  0  0  0  0  0  0
   11.3011   22.9756    3.8159 H   0  0  0  0  0  0  0  0  0  0  0  0
   11.6441   22.7763    1.6434 C   0  0  0  0  0  0  0  0  0  0  0  0
   10.5983   23.3712    0.7281 C   0  0  0  0  0  0  0  0  0  0  0  0
   11.0292   23.6305   -0.4107 O   0  0  0  0  0  0  0  0  0  0  0  0
    9.3150   23.5765    1.1889 N   0  0  0  0  0  0  0  0  0  0  0  0
    8.8931   23.9060   -0.0822 H   0  0  0  0  0  0  0  0  0  0  0  0
    8.0340   23.7919    1.6199 C   0  0  0  0  0  0  0  0  0  0  0  0
    8.0357   24.6845    2.8228 C   0  0  0  0  0  0  0  0  0  0  0  0
    8.5678   24.2582    3.9051 O   0  0  0  0  0  0  0  0  0  0  0  0
    7.4731   26.0220    2.8475 C   0  0  0  0  0  0  0  0  0  0  0  0
    6.3846   26.5021    2.2880 N   0  0  0  0  0  0  0  0  0  0  0  0
    6.0577   27.7472    2.4230 C   0  0  0  0  0  0  0  0  0  0  0  0
    4.9299   28.3797    1.8734 C   0  0  0  0  0  0  0  0  0  0  0  0
    4.6823   29.6970    2.0738 C   0  0  0  0  0  0  0  0  0  0  0  0
    5.5063   30.4939    2.8198 C   0  0  0  0  0  0  0  0  0  0  0  0
    6.6184   29.9140    3.3730 C   0  0  0  0  0  0  0  0  0  0  0  0
    6.8836   28.5512    3.1706 C   0  0  0  0  0  0  0  0  0  0  0  0
    8.1015   27.4184    3.6342 S   0  0  0  0  0  0  0  0  0  0  0  0
    7.0719   22.6673    1.8588 C   0  0  0  0  0  0  0  0  0  0  0  0
    7.0179   21.5497    0.9174 C   0  0  0  0  0  0  0  0  0  0  0  0
    6.2467   21.6312   -0.3492 C   0  0  0  0  0  0  0  0  0  0  0  0
    5.5745   20.3582   -0.6625 N   0  0  0  0  0  0  0  0  0  0  0  0
    4.9254   19.9597    0.0138 H   0  0  0  0  0  0  0  0  0  0  0  0
    5.8725   19.7443   -1.8921 C   0  0  0  0  0  0  0  0  0  0  0  0
    4.8968   19.3948   -2.8639 N   0  0  0  0  0  0  0  0  0  0  0  0
    7.1084   19.4635   -2.2319 N   0  0  0  0  0  0  0  0  0  0  0  0
    4.4412   20.0922   -3.4954 H   0  0  0  0  0  0  0  0  0  0  0  0
    4.6242   18.4051   -2.9575 H   0  0  0  0  0  0  0  0  0  0  0  0
    7.8405   19.7155   -1.5544 H   0  0  0  0  0  0  0  0  0  0  0  0
   12.1969   21.5078    1.0688 C   0  0  0  0  0  0  0  0  0  0  0  0
   13.1340   21.6592   -0.0453 C   0  0  0  0  0  0  0  0  0  0  0  0
   13.4074   20.6447   -0.9531 C   0  0  0  0  0  0  0  0  0  0  0  0
   14.3280   20.9035   -1.9387 C   0  0  0  0  0  0  0  0  0  0  0  0
   14.9938   22.0853   -2.0872 C   0  0  0  0  0  0  0  0  0  0  0  0
   14.7340   23.1338   -1.1766 C   0  0  0  0  0  0  0  0  0  0  0  0
   13.8152   22.8547   -0.2049 C   0  0  0  0  0  0  0  0  0  0  0  0
    9.6998   20.9183    4.4250 C   0  0  0  0  0  0  0  0  0  0  0  0
    8.3761   21.4614    4.5611 N   0  0  0  0  0  0  0  0  0  0  0  0
    7.6548   21.5587    5.7994 C   0  0  0  0  0  0  0  0  0  0  0  0
    8.2053   21.1419    6.8297 O   0  0  0  0  0  0  0  0  0  0  0  0
    7.9229   21.7977    3.7075 H   0  0  0  0  0  0  0  0  0  0  0  0
    6.3340   22.1391    5.7591 C   0  0  0  0  0  0  0  0  0  0  0  0
    5.9990   22.8814    7.0604 C   0  0  0  0  0  0  0  0  0  0  0  0
    4.5337   22.6451    7.2976 C   0  0  0  0  0  0  0  0  0  0  0  0
    4.0740   22.3066    5.8903 C   0  0  0  0  0  0  0  0  0  0  0  0
    5.1904   21.3603    5.4955 N   0  0  0  0  0  0  0  0  0  0  0  0
    4.8572   20.1009    5.0053 C   0  0  0  0  0  0  0  0  0  0  0  0
    3.6049   19.7782    4.9831 O   0  0  0  0  0  0  0  0  0  0  0  0
    5.6864   19.1384    4.5348 O   0  0  0  0  0  0  0  0  0  0  0  0
    6.0187   18.9993    3.1497 C   0  0  0  0  0  0  0  0  0  0  0  0
    5.2035   17.9407    2.5060 C   0  0  0  0  0  0  0  0  0  0  0  0
    4.1344   18.2086    1.7060 C   0  0  0  0  0  0  0  0  0  0  0  0
    3.3936   17.1843    1.1177 C   0  0  0  0  0  0  0  0  0  0  0  0
    3.6983   15.8550    1.3130 C   0  0  0  0  0  0  0  0  0  0  0  0
    4.7956   15.5763    2.1346 C   0  0  0  0  0  0  0  0  0  0  0  0
    5.5184   16.5916    2.7068 C   0  0  0  0  0  0  0  0  0  0  0  0
    9.6955   19.4310    4.4536 C   0  0  0  0  0  0  0  0  0  0  0  0
   10.3101   18.7010    5.5699 C   0  0  0  0  0  0  0  0  0  0  0  0
    9.4041   17.9858    6.5061 C   0  0  0  0  0  0  0  0  0  0  0  0
    8.0399   18.0232    5.9402 N   0  0  0  0  0  0  0  0  0  0  0  0
    7.8065   18.7809    5.2319 H   0  0  0  0  0  0  0  0  0  0  0  0
    5.9374   17.4208    7.0372 N   0  0  0  0  0  0  0  0  0  0  0  0
    7.1035   17.0732    6.3517 C   0  0  0  0  0  0  0  0  0  0  0  0
    7.3193   15.8128    6.0798 N   0  0  0  0  0  0  0  0  0  0  0  0
    5.9777   18.1135    7.8266 H   0  0  0  0  0  0  0  0  0  0  0  0
    4.9878   17.0157    6.8029 H   0  0  0  0  0  0  0  0  0  0  0  0
    8.1948   15.5297    5.5620 H   0  0  0  0  0  0  0  0  0  0  0  0
 65 66  1  0  0  0
 66 67  2  0  0  0
 66 63  1  0  0  0
 63 62  1  0  0  0
 62 61  1  0  0  0
 61 60  1  0  0  0
 60 40  1  0  0  0
 40 41  1  0  0  0
 41 42  1  0  0  0
 42 43  2  0  0  0
 42 45  1  0  0  0
 45 46  1  0  0  0
 46 47  1  0  0  0
 47 48  1  0  0  0
 48 49  1  0  0  0
 49 50  1  0  0  0
 50 51  2  0  0  0
 50 52  1  0  0  0
 52 53  1  0  0  0
 53 54  1  0  0  0
 54 55  2  0  0  0
 55 56  1  0  0  0
 56 57  2  0  0  0
 57 58  1  0  0  0
 58 59  2  0  0  0
 40  1  1  0  0  0
  1  2  2  0  0  0
  1  3  1  0  0  0
  3  5  1  0  0  0
  5 33  1  0  0  0
 33 34  1  0  0  0
 34 35  2  0  0  0
 35 36  1  0  0  0
 36 37  2  0  0  0
 37 38  1  0  0  0
 38 39  2  0  0  0
  5  6  1  0  0  0
  6  7  2  0  0  0
  6  8  1  0  0  0
  8 10  1  0  0  0
 10 22  1  0  0  0
 22 23  1  0  0  0
 23 24  1  0  0  0
 24 25  1  0  0  0
 25 27  1  0  0  0
 27 28  1  0  0  0
 27 29  2  0  0  0
 10 11  1  0  0  0
 11 12  2  0  0  0
 11 13  1  0  0  0
 13 14  2  0  0  0
 14 15  1  0  0  0
 15 16  2  0  0  0
 16 17  1  0  0  0
 17 18  2  0  0  0
 18 19  1  0  0  0
 19 20  2  0  0  0
 20 21  1  0  0  0
 49 45  1  0  0  0
 59 54  1  0  0  0
 39 34  1  0  0  0
 21 13  1  0  0  0
 20 15  1  0  0  0
 65 68  1  0  0  0
 65 69  1  0  0  0
 67 70  1  0  0  0
 63 64  1  0  0  0
 41 44  1  0  0  0
  3  4  1  0  0  0
  8  9  1  0  0  0
 25 26  1  0  0  0
 28 30  1  0  0  0
 28 31  1  0  0  0
 29 32  1  0  0  0
M  END
> <minimizedAffinity>
-4.49512

> <CNNscore>
0.1840610951

> <CNNaffinity>
6.9807252884

> <CNN_VS>
1.2848799229

> <CNNaffinity_variance>
0.3602455258

$$$$
[H]N=C(N([H])[H])N([H])C([H])([H])C([H])([H])C([H])([H])[C@@]([H])(C(=O)c1nc2c([H])c([H])c([H])c([H])c2s1)N([H])C(=O)[C@@]([H])(N([H])C(=O)[C@@]([H])(N([H])C(=O)[C@@]1([H])N(C(=O)OC([H])([H])c2c([H])c([H])c([H])c([H])c2[H])C([H])([H])C([H])([H])C1([H])[H])C([H])([H])C([H])([H])C([H])([H])N([H])C(=N[H])N([H])[H])C([H])([H])c1c([H])c([H])c([H])c([H])c1[H]


 70 74  0  0  0  0  0  0  0  0999 V2000
    9.7575   23.7018   -0.3225 C   0  0  0  0  0  0  0  0  0  0  0  0
    8.7505   24.1968   -0.8371 O   0  0  0  0  0  0  0  0  0  0  0  0
    9.6542   22.5455    0.4857 N   0  0  0  0  0  0  0  0  0  0  0  0
   10.5293   22.1521    0.8968 H   0  0  0  0  0  0  0  0  0  0  0  0
    8.3374   21.9479    0.7193 C   0  0  0  0  0  0  0  0  0  0  0  0
    8.2813   21.1857    2.0235 C   0  0  0  0  0  0  0  0  0  0  0  0
    9.3377   20.5828    2.2886 O   0  0  0  0  0  0  0  0  0  0  0  0
    7.1320   21.2060    2.7852 N   0  0  0  0  0  0  0  0  0  0  0  0
    7.7813   20.5543    3.8128 H   0  0  0  0  0  0  0  0  0  0  0  0
    6.0044   21.2081    3.5608 C   0  0  0  0  0  0  0  0  0  0  0  0
    6.1892   22.1124    4.7405 C   0  0  0  0  0  0  0  0  0  0  0  0
    6.3496   21.5904    5.8973 O   0  0  0  0  0  0  0  0  0  0  0  0
    6.2053   23.5615    4.6636 C   0  0  0  0  0  0  0  0  0  0  0  0
    6.7085   24.3637    3.7517 N   0  0  0  0  0  0  0  0  0  0  0  0
    6.6273   25.6496    3.8752 C   0  0  0  0  0  0  0  0  0  0  0  0
    7.1270   26.6087    2.9783 C   0  0  0  0  0  0  0  0  0  0  0  0
    6.9915   27.9377    3.2064 C   0  0  0  0  0  0  0  0  0  0  0  0
    6.3626   28.4319    4.3159 C   0  0  0  0  0  0  0  0  0  0  0  0
    5.8613   27.5277    5.2159 C   0  0  0  0  0  0  0  0  0  0  0  0
    5.9974   26.1499    4.9889 C   0  0  0  0  0  0  0  0  0  0  0  0
    5.5587   24.6870    5.7944 S   0  0  0  0  0  0  0  0  0  0  0  0
    5.3523   19.9408    4.0257 C   0  0  0  0  0  0  0  0  0  0  0  0
    5.9169   18.6507    3.6320 C   0  0  0  0  0  0  0  0  0  0  0  0
    5.2574   17.7843    2.6219 C   0  0  0  0  0  0  0  0  0  0  0  0
    5.1455   16.3908    3.0868 N   0  0  0  0  0  0  0  0  0  0  0  0
    4.8472   15.6709    2.4308 H   0  0  0  0  0  0  0  0  0  0  0  0
    5.4522   16.1215    4.4325 C   0  0  0  0  0  0  0  0  0  0  0  0
    4.7803   16.7137    5.5354 N   0  0  0  0  0  0  0  0  0  0  0  0
    6.3952   15.2698    4.7593 N   0  0  0  0  0  0  0  0  0  0  0  0
    3.8282   16.4200    5.8516 H   0  0  0  0  0  0  0  0  0  0  0  0
    5.2527   17.4681    6.0553 H   0  0  0  0  0  0  0  0  0  0  0  0
    6.8930   14.8139    3.9829 H   0  0  0  0  0  0  0  0  0  0  0  0
    8.0809   21.0373   -0.4426 C   0  0  0  0  0  0  0  0  0  0  0  0
    6.7208   20.5094   -0.5600 C   0  0  0  0  0  0  0  0  0  0  0  0
    6.4416   19.1664   -0.7754 C   0  0  0  0  0  0  0  0  0  0  0  0
    5.1231   18.8015   -0.8951 C   0  0  0  0  0  0  0  0  0  0  0  0
    4.0694   19.6651   -0.8195 C   0  0  0  0  0  0  0  0  0  0  0  0
    4.3262   21.0372   -0.6012 C   0  0  0  0  0  0  0  0  0  0  0  0
    5.6441   21.3777   -0.4851 C   0  0  0  0  0  0  0  0  0  0  0  0
   11.1105   24.3301   -0.5476 C   0  0  0  0  0  0  0  0  0  0  0  0
   12.1284   23.3305   -0.3737 N   0  0  0  0  0  0  0  0  0  0  0  0
   12.8055   23.0586    0.8636 C   0  0  0  0  0  0  0  0  0  0  0  0
   12.4985   23.7341    1.8575 O   0  0  0  0  0  0  0  0  0  0  0  0
   12.3836   22.7804   -1.1978 H   0  0  0  0  0  0  0  0  0  0  0  0
   13.7994   22.0122    0.8651 C   0  0  0  0  0  0  0  0  0  0  0  0
   14.2287   21.6334   -0.5593 C   0  0  0  0  0  0  0  0  0  0  0  0
   14.4659   20.1494   -0.5313 C   0  0  0  0  0  0  0  0  0  0  0  0
   14.7059   19.9329    0.9526 C   0  0  0  0  0  0  0  0  0  0  0  0
   13.5738   20.7771    1.5033 N   0  0  0  0  0  0  0  0  0  0  0  0
   12.6948   20.2027    2.4170 C   0  0  0  0  0  0  0  0  0  0  0  0
   12.8503   18.9483    2.6915 O   0  0  0  0  0  0  0  0  0  0  0  0
   11.6693   20.7919    3.0777 O   0  0  0  0  0  0  0  0  0  0  0  0
   11.7798   21.2825    4.4176 C   0  0  0  0  0  0  0  0  0  0  0  0
   10.7789   20.6445    5.3069 C   0  0  0  0  0  0  0  0  0  0  0  0
   10.2701   19.4013    5.0827 C   0  0  0  0  0  0  0  0  0  0  0  0
    9.3307   18.8355    5.9439 C   0  0  0  0  0  0  0  0  0  0  0  0
    8.8675   19.4981    7.0594 C   0  0  0  0  0  0  0  0  0  0  0  0
    9.3876   20.7755    7.2924 C   0  0  0  0  0  0  0  0  0  0  0  0
   10.3125   21.3218    6.4398 C   0  0  0  0  0  0  0  0  0  0  0  0
   11.0789   24.8544   -1.9394 C   0  0  0  0  0  0  0  0  0  0  0  0
   12.1828   25.6730   -2.4572 C   0  0  0  0  0  0  0  0  0  0  0  0
   13.5211   25.0355   -2.5634 C   0  0  0  0  0  0  0  0  0  0  0  0
   14.1548   25.5080   -3.8115 N   0  0  0  0  0  0  0  0  0  0  0  0
   13.5372   25.6762   -4.6603 H   0  0  0  0  0  0  0  0  0  0  0  0
   16.4451   24.7461   -3.4101 N   0  0  0  0  0  0  0  0  0  0  0  0
   15.5352   25.7139   -3.8412 C   0  0  0  0  0  0  0  0  0  0  0  0
   15.9959   26.8497   -4.2960 N   0  0  0  0  0  0  0  0  0  0  0  0
   16.2734   24.2245   -2.5139 H   0  0  0  0  0  0  0  0  0  0  0  0
   17.3234   24.4998   -3.9473 H   0  0  0  0  0  0  0  0  0  0  0  0
   15.3242   27.5940   -4.6271 H   0  0  0  0  0  0  0  0  0  0  0  0
 65 66  1  0  0  0
 66 67  2  0  0  0
 66 63  1  0  0  0
 63 62  1  0  0  0
 62 61  1  0  0  0
 61 60  1  0  0  0
 60 40  1  0  0  0
 40 41  1  0  0  0
 41 42  1  0  0  0
 42 43  2  0  0  0
 42 45  1  0  0  0
 45 46  1  0  0  0
 46 47  1  0  0  0
 47 48  1  0  0  0
 48 49  1  0  0  0
 49 50  1  0  0  0
 50 51  2  0  0  0
 50 52  1  0  0  0
 52 53  1  0  0  0
 53 54  1  0  0  0
 54 55  2  0  0  0
 55 56  1  0  0  0
 56 57  2  0  0  0
 57 58  1  0  0  0
 58 59  2  0  0  0
 40  1  1  0  0  0
  1  2  2  0  0  0
  1  3  1  0  0  0
  3  5  1  0  0  0
  5 33  1  0  0  0
 33 34  1  0  0  0
 34 35  2  0  0  0
 35 36  1  0  0  0
 36 37  2  0  0  0
 37 38  1  0  0  0
 38 39  2  0  0  0
  5  6  1  0  0  0
  6  7  2  0  0  0
  6  8  1  0  0  0
  8 10  1  0  0  0
 10 22  1  0  0  0
 22 23  1  0  0  0
 23 24  1  0  0  0
 24 25  1  0  0  0
 25 27  1  0  0  0
 27 28  1  0  0  0
 27 29  2  0  0  0
 10 11  1  0  0  0
 11 12  2  0  0  0
 11 13  1  0  0  0
 13 14  2  0  0  0
 14 15  1  0  0  0
 15 16  2  0  0  0
 16 17  1  0  0  0
 17 18  2  0  0  0
 18 19  1  0  0  0
 19 20  2  0  0  0
 20 21  1  0  0  0
 49 45  1  0  0  0
 59 54  1  0  0  0
 39 34  1  0  0  0
 21 13  1  0  0  0
 20 15  1  0  0  0
 65 68  1  0  0  0
 65 69  1  0  0  0
 67 70  1  0  0  0
 63 64  1  0  0  0
 41 44  1  0  0  0
  3  4  1  0  0  0
  8  9  1  0  0  0
 25 26  1  0  0  0
 28 30  1  0  0  0
 28 31  1  0  0  0
 29 32  1  0  0  0
M  END
> <minimizedAffinity>
-4.61391

> <CNNscore>
0.1722512692

> <CNNaffinity>
7.8560967445

> <CNN_VS>
1.3532226086

> <CNNaffinity_variance>
0.3045700192

$$$$
[H]N=C(N([H])[H])N([H])C([H])([H])C([H])([H])C([H])([H])[C@@]([H])(C(=O)c1nc2c([H])c([H])c([H])c([H])c2s1)N([H])C(=O)[C@@]([H])(N([H])C(=O)[C@@]([H])(N([H])C(=O)[C@@]1([H])N(C(=O)OC([H])([H])c2c([H])c([H])c([H])c([H])c2[H])C([H])([H])C([H])([H])C1([H])[H])C([H])([H])C([H])([H])C([H])([H])N([H])C(=N[H])N([H])[H])C([H])([H])c1c([H])c([H])c([H])c([H])c1[H]


 70 74  0  0  0  0  0  0  0  0999 V2000
    9.1307   23.4715    0.5615 C   0  0  0  0  0  0  0  0  0  0  0  0
    8.1954   23.8843   -0.1305 O   0  0  0  0  0  0  0  0  0  0  0  0
    8.9374   22.3952    1.4587 N   0  0  0  0  0  0  0  0  0  0  0  0
    9.7544   22.0697    2.0208 H   0  0  0  0  0  0  0  0  0  0  0  0
    7.6114   21.7828    1.5705 C   0  0  0  0  0  0  0  0  0  0  0  0
    7.2831   21.3914    2.9933 C   0  0  0  0  0  0  0  0  0  0  0  0
    7.3000   20.1612    3.1831 O   0  0  0  0  0  0  0  0  0  0  0  0
    7.0016   22.3647    3.9286 N   0  0  0  0  0  0  0  0  0  0  0  0
    7.0029   21.4216    4.9351 H   0  0  0  0  0  0  0  0  0  0  0  0
    6.7176   23.3094    4.8773 C   0  0  0  0  0  0  0  0  0  0  0  0
    7.5924   24.5107    4.6896 C   0  0  0  0  0  0  0  0  0  0  0  0
    8.8245   24.4336    5.0248 O   0  0  0  0  0  0  0  0  0  0  0  0
    7.1368   25.7746    4.1408 C   0  0  0  0  0  0  0  0  0  0  0  0
    5.9249   26.1932    3.8503 N   0  0  0  0  0  0  0  0  0  0  0  0
    5.7270   27.3704    3.3498 C   0  0  0  0  0  0  0  0  0  0  0  0
    4.4885   27.9296    2.9931 C   0  0  0  0  0  0  0  0  0  0  0  0
    4.3928   29.1761    2.4699 C   0  0  0  0  0  0  0  0  0  0  0  0
    5.4867   29.9689    2.2564 C   0  0  0  0  0  0  0  0  0  0  0  0
    6.7142   29.4589    2.5912 C   0  0  0  0  0  0  0  0  0  0  0  0
    6.8235   28.1692    3.1328 C   0  0  0  0  0  0  0  0  0  0  0  0
    8.0902   27.1326    3.6825 S   0  0  0  0  0  0  0  0  0  0  0  0
    6.6604   22.9815    6.3390 C   0  0  0  0  0  0  0  0  0  0  0  0
    6.0391   21.7320    6.7759 C   0  0  0  0  0  0  0  0  0  0  0  0
    4.5746   21.6230    6.9974 C   0  0  0  0  0  0  0  0  0  0  0  0
    4.0382   20.3491    6.4874 N   0  0  0  0  0  0  0  0  0  0  0  0
    3.3525   19.8408    7.0434 H   0  0  0  0  0  0  0  0  0  0  0  0
    4.5116   19.8881    5.2461 C   0  0  0  0  0  0  0  0  0  0  0  0
    5.4410   18.8243    5.0944 N   0  0  0  0  0  0  0  0  0  0  0  0
    4.0985   20.4187    4.1194 N   0  0  0  0  0  0  0  0  0  0  0  0
    5.1815   17.8170    5.1982 H   0  0  0  0  0  0  0  0  0  0  0  0
    6.4203   19.0518    4.8666 H   0  0  0  0  0  0  0  0  0  0  0  0
    3.4149   21.1840    4.1944 H   0  0  0  0  0  0  0  0  0  0  0  0
    7.6311   20.5801    0.6771 C   0  0  0  0  0  0  0  0  0  0  0  0
    6.7008   20.6009   -0.4528 C   0  0  0  0  0  0  0  0  0  0  0  0
    5.5348   21.3548   -0.4648 C   0  0  0  0  0  0  0  0  0  0  0  0
    4.7311   21.2666   -1.5748 C   0  0  0  0  0  0  0  0  0  0  0  0
    4.9964   20.4895   -2.6646 C   0  0  0  0  0  0  0  0  0  0  0  0
    6.1763   19.7124   -2.6776 C   0  0  0  0  0  0  0  0  0  0  0  0
    6.9606   19.8155   -1.5637 C   0  0  0  0  0  0  0  0  0  0  0  0
   10.4907   24.1164    0.4599 C   0  0  0  0  0  0  0  0  0  0  0  0
   11.5017   23.0981    0.5409 N   0  0  0  0  0  0  0  0  0  0  0  0
   12.8979   23.3472    0.7683 C   0  0  0  0  0  0  0  0  0  0  0  0
   13.2667   24.5239    0.9009 O   0  0  0  0  0  0  0  0  0  0  0  0
   11.1942   22.1292    0.4239 H   0  0  0  0  0  0  0  0  0  0  0  0
   13.7788   22.2056    0.8289 C   0  0  0  0  0  0  0  0  0  0  0  0
   14.3037   21.8177   -0.5605 C   0  0  0  0  0  0  0  0  0  0  0  0
   14.3893   20.3171   -0.5585 C   0  0  0  0  0  0  0  0  0  0  0  0
   14.4627   20.0436    0.9335 C   0  0  0  0  0  0  0  0  0  0  0  0
   13.3718   20.9855    1.4030 N   0  0  0  0  0  0  0  0  0  0  0  0
   12.3565   20.4825    2.2114 C   0  0  0  0  0  0  0  0  0  0  0  0
   12.3602   19.2129    2.4586 O   0  0  0  0  0  0  0  0  0  0  0  0
   11.3354   21.1575    2.7921 O   0  0  0  0  0  0  0  0  0  0  0  0
   11.4414   21.7887    4.0722 C   0  0  0  0  0  0  0  0  0  0  0  0
   10.6483   21.0644    5.0949 C   0  0  0  0  0  0  0  0  0  0  0  0
   10.3476   21.5920    6.3139 C   0  0  0  0  0  0  0  0  0  0  0  0
    9.5976   20.8789    7.2483 C   0  0  0  0  0  0  0  0  0  0  0  0
    9.1245   19.6104    6.9931 C   0  0  0  0  0  0  0  0  0  0  0  0
    9.4320   19.0652    5.7421 C   0  0  0  0  0  0  0  0  0  0  0  0
   10.1689   19.7761    4.8298 C   0  0  0  0  0  0  0  0  0  0  0  0
   10.5049   24.8096   -0.8563 C   0  0  0  0  0  0  0  0  0  0  0  0
   11.5250   24.4872   -1.8623 C   0  0  0  0  0  0  0  0  0  0  0  0
   12.5034   25.5491   -2.2148 C   0  0  0  0  0  0  0  0  0  0  0  0
   13.8463   24.9353   -2.2639 N   0  0  0  0  0  0  0  0  0  0  0  0
   14.3102   24.6592   -1.3480 H   0  0  0  0  0  0  0  0  0  0  0  0
   15.1146   23.5513   -3.8333 N   0  0  0  0  0  0  0  0  0  0  0  0
   14.4639   24.7415   -3.5007 C   0  0  0  0  0  0  0  0  0  0  0  0
   14.4263   25.7040   -4.3845 N   0  0  0  0  0  0  0  0  0  0  0  0
   15.7574   23.0916   -3.1403 H   0  0  0  0  0  0  0  0  0  0  0  0
   14.9963   23.0710   -4.7692 H   0  0  0  0  0  0  0  0  0  0  0  0
   13.9388   26.6114   -4.1524 H   0  0  0  0  0  0  0  0  0  0  0  0
 65 66  1  0  0  0
 66 67  2  0  0  0
 66 63  1  0  0  0
 63 62  1  0  0  0
 62 61  1  0  0  0
 61 60  1  0  0  0
 60 40  1  0  0  0
 40 41  1  0  0  0
 41 42  1  0  0  0
 42 43  2  0  0  0
 42 45  1  0  0  0
 45 46  1  0  0  0
 46 47  1  0  0  0
 47 48  1  0  0  0
 48 49  1  0  0  0
 49 50  1  0  0  0
 50 51  2  0  0  0
 50 52  1  0  0  0
 52 53  1  0  0  0
 53 54  1  0  0  0
 54 55  2  0  0  0
 55 56  1  0  0  0
 56 57  2  0  0  0
 57 58  1  0  0  0
 58 59  2  0  0  0
 40  1  1  0  0  0
  1  2  2  0  0  0
  1  3  1  0  0  0
  3  5  1  0  0  0
  5 33  1  0  0  0
 33 34  1  0  0  0
 34 35  2  0  0  0
 35 36  1  0  0  0
 36 37  2  0  0  0
 37 38  1  0  0  0
 38 39  2  0  0  0
  5  6  1  0  0  0
  6  7  2  0  0  0
  6  8  1  0  0  0
  8 10  1  0  0  0
 10 22  1  0  0  0
 22 23  1  0  0  0
 23 24  1  0  0  0
 24 25  1  0  0  0
 25 27  1  0  0  0
 27 28  1  0  0  0
 27 29  2  0  0  0
 10 11  1  0  0  0
 11 12  2  0  0  0
 11 13  1  0  0  0
 13 14  2  0  0  0
 14 15  1  0  0  0
 15 16  2  0  0  0
 16 17  1  0  0  0
 17 18  2  0  0  0
 18 19  1  0  0  0
 19 20  2  0  0  0
 20 21  1  0  0  0
 49 45  1  0  0  0
 59 54  1  0  0  0
 39 34  1  0  0  0
 21 13  1  0  0  0
 20 15  1  0  0  0
 65 68  1  0  0  0
 65 69  1  0  0  0
 67 70  1  0  0  0
 63 64  1  0  0  0
 41 44  1  0  0  0
  3  4  1  0  0  0
  8  9  1  0  0  0
 25 26  1  0  0  0
 28 30  1  0  0  0
 28 31  1  0  0  0
 29 32  1  0  0  0
M  END
> <minimizedAffinity>
-6.58037

> <CNNscore>
0.1545217782

> <CNNaffinity>
7.9652419090

> <CNN_VS>
1.2308033705

> <CNNaffinity_variance>
0.7275631428

$$$$
[H]N=C(N([H])[H])N([H])C([H])([H])C([H])([H])C([H])([H])[C@@]([H])(C(=O)c1nc2c([H])c([H])c([H])c([H])c2s1)N([H])C(=O)[C@@]([H])(N([H])C(=O)[C@@]([H])(N([H])C(=O)[C@@]1([H])N(C(=O)OC([H])([H])c2c([H])c([H])c([H])c([H])c2[H])C([H])([H])C([H])([H])C1([H])[H])C([H])([H])C([H])([H])C([H])([H])N([H])C(=N[H])N([H])[H])C([H])([H])c1c([H])c([H])c([H])c([H])c1[H]


 70 74  0  0  0  0  0  0  0  0999 V2000
    9.9366   21.1830    0.5750 C   0  0  0  0  0  0  0  0  0  0  0  0
   10.2654   20.5696    1.5946 O   0  0  0  0  0  0  0  0  0  0  0  0
    9.7166   22.5796    0.6188 N   0  0  0  0  0  0  0  0  0  0  0  0
    9.4475   23.0638   -0.2658 H   0  0  0  0  0  0  0  0  0  0  0  0
    9.8682   23.2909    1.8903 C   0  0  0  0  0  0  0  0  0  0  0  0
    8.5567   23.4185    2.6313 C   0  0  0  0  0  0  0  0  0  0  0  0
    7.5747   23.5489    1.8774 O   0  0  0  0  0  0  0  0  0  0  0  0
    8.5376   23.3863    4.0096 N   0  0  0  0  0  0  0  0  0  0  0  0
    7.1588   23.3467    4.0064 H   0  0  0  0  0  0  0  0  0  0  0  0
    8.4890   23.3582    5.3771 C   0  0  0  0  0  0  0  0  0  0  0  0
    8.0993   24.7032    5.9089 C   0  0  0  0  0  0  0  0  0  0  0  0
    8.2422   24.9362    7.1586 O   0  0  0  0  0  0  0  0  0  0  0  0
    7.5680   25.7804    5.0945 C   0  0  0  0  0  0  0  0  0  0  0  0
    6.3261   26.1435    4.8616 N   0  0  0  0  0  0  0  0  0  0  0  0
    6.0569   27.1421    4.0832 C   0  0  0  0  0  0  0  0  0  0  0  0
    4.7791   27.6226    3.7516 C   0  0  0  0  0  0  0  0  0  0  0  0
    4.6077   28.6780    2.9188 C   0  0  0  0  0  0  0  0  0  0  0  0
    5.6591   29.3427    2.3499 C   0  0  0  0  0  0  0  0  0  0  0  0
    6.9229   28.9036    2.6484 C   0  0  0  0  0  0  0  0  0  0  0  0
    7.1103   27.8114    3.5089 C   0  0  0  0  0  0  0  0  0  0  0  0
    8.4444   26.9249    4.1535 S   0  0  0  0  0  0  0  0  0  0  0  0
    9.6183   22.8239    6.2057 C   0  0  0  0  0  0  0  0  0  0  0  0
    9.5255   21.4794    6.7733 C   0  0  0  0  0  0  0  0  0  0  0  0
    8.8479   20.3717    6.0524 C   0  0  0  0  0  0  0  0  0  0  0  0
    9.4128   20.1692    4.7069 N   0  0  0  0  0  0  0  0  0  0  0  0
    8.8179   20.3099    3.8922 H   0  0  0  0  0  0  0  0  0  0  0  0
   10.7605   19.7787    4.6132 C   0  0  0  0  0  0  0  0  0  0  0  0
   11.8249   20.6639    4.2942 N   0  0  0  0  0  0  0  0  0  0  0  0
   11.1280   18.5391    4.8370 N   0  0  0  0  0  0  0  0  0  0  0  0
   12.2277   21.3457    4.9767 H   0  0  0  0  0  0  0  0  0  0  0  0
   12.2261   20.6335    3.3452 H   0  0  0  0  0  0  0  0  0  0  0  0
   10.3817   17.8750    5.0828 H   0  0  0  0  0  0  0  0  0  0  0  0
   10.4222   24.6407    1.5494 C   0  0  0  0  0  0  0  0  0  0  0  0
   11.4828   24.6664    0.5410 C   0  0  0  0  0  0  0  0  0  0  0  0
   11.2488   24.9240   -0.8032 C   0  0  0  0  0  0  0  0  0  0  0  0
   12.3260   24.8921   -1.6544 C   0  0  0  0  0  0  0  0  0  0  0  0
   13.6082   24.6233   -1.2729 C   0  0  0  0  0  0  0  0  0  0  0  0
   13.8733   24.3575    0.0891 C   0  0  0  0  0  0  0  0  0  0  0  0
   12.7877   24.3946    0.9177 C   0  0  0  0  0  0  0  0  0  0  0  0
    9.7613   20.4457   -0.7295 C   0  0  0  0  0  0  0  0  0  0  0  0
    8.3646   20.4117   -1.0667 N   0  0  0  0  0  0  0  0  0  0  0  0
    7.5186   19.2585   -0.9345 C   0  0  0  0  0  0  0  0  0  0  0  0
    8.0233   18.2109   -0.5030 O   0  0  0  0  0  0  0  0  0  0  0  0
    7.9539   21.2761   -1.4289 H   0  0  0  0  0  0  0  0  0  0  0  0
    6.1331   19.3996   -1.3128 C   0  0  0  0  0  0  0  0  0  0  0  0
    5.9813   20.1293   -2.6549 C   0  0  0  0  0  0  0  0  0  0  0  0
    4.7402   20.9668   -2.5243 C   0  0  0  0  0  0  0  0  0  0  0  0
    4.0226   20.2304   -1.4066 C   0  0  0  0  0  0  0  0  0  0  0  0
    5.1940   20.0220   -0.4674 N   0  0  0  0  0  0  0  0  0  0  0  0
    5.0696   20.4305    0.8574 C   0  0  0  0  0  0  0  0  0  0  0  0
    3.9792   21.0371    1.1979 O   0  0  0  0  0  0  0  0  0  0  0  0
    5.9576   20.2765    1.8688 O   0  0  0  0  0  0  0  0  0  0  0  0
    5.5668   20.0373    3.2247 C   0  0  0  0  0  0  0  0  0  0  0  0
    5.6961   18.6020    3.5752 C   0  0  0  0  0  0  0  0  0  0  0  0
    5.3476   17.5950    2.7271 C   0  0  0  0  0  0  0  0  0  0  0  0
    5.4857   16.2569    3.0939 C   0  0  0  0  0  0  0  0  0  0  0  0
    5.9766   15.8822    4.3254 C   0  0  0  0  0  0  0  0  0  0  0  0
    6.3350   16.9140    5.1992 C   0  0  0  0  0  0  0  0  0  0  0  0
    6.1968   18.2268    4.8275 C   0  0  0  0  0  0  0  0  0  0  0  0
   10.5554   21.2103   -1.7284 C   0  0  0  0  0  0  0  0  0  0  0  0
   11.9945   21.4286   -1.5335 C   0  0  0  0  0  0  0  0  0  0  0  0
   12.7822   20.3233   -0.9280 C   0  0  0  0  0  0  0  0  0  0  0  0
   14.1043   20.8603   -0.5453 N   0  0  0  0  0  0  0  0  0  0  0  0
   14.7678   21.1683   -1.3167 H   0  0  0  0  0  0  0  0  0  0  0  0
   15.7589   21.1209    1.2383 N   0  0  0  0  0  0  0  0  0  0  0  0
   14.4427   20.9430    0.8064 C   0  0  0  0  0  0  0  0  0  0  0  0
   13.4944   20.8594    1.7024 N   0  0  0  0  0  0  0  0  0  0  0  0
   16.5355   20.5616    0.8036 H   0  0  0  0  0  0  0  0  0  0  0  0
   16.0289   21.8046    2.0000 H   0  0  0  0  0  0  0  0  0  0  0  0
   12.4929   20.7253    1.3962 H   0  0  0  0  0  0  0  0  0  0  0  0
 65 66  1  0  0  0
 66 67  2  0  0  0
 66 63  1  0  0  0
 63 62  1  0  0  0
 62 61  1  0  0  0
 61 60  1  0  0  0
 60 40  1  0  0  0
 40 41  1  0  0  0
 41 42  1  0  0  0
 42 43  2  0  0  0
 42 45  1  0  0  0
 45 46  1  0  0  0
 46 47  1  0  0  0
 47 48  1  0  0  0
 48 49  1  0  0  0
 49 50  1  0  0  0
 50 51  2  0  0  0
 50 52  1  0  0  0
 52 53  1  0  0  0
 53 54  1  0  0  0
 54 55  2  0  0  0
 55 56  1  0  0  0
 56 57  2  0  0  0
 57 58  1  0  0  0
 58 59  2  0  0  0
 40  1  1  0  0  0
  1  2  2  0  0  0
  1  3  1  0  0  0
  3  5  1  0  0  0
  5 33  1  0  0  0
 33 34  1  0  0  0
 34 35  2  0  0  0
 35 36  1  0  0  0
 36 37  2  0  0  0
 37 38  1  0  0  0
 38 39  2  0  0  0
  5  6  1  0  0  0
  6  7  2  0  0  0
  6  8  1  0  0  0
  8 10  1  0  0  0
 10 22  1  0  0  0
 22 23  1  0  0  0
 23 24  1  0  0  0
 24 25  1  0  0  0
 25 27  1  0  0  0
 27 28  1  0  0  0
 27 29  2  0  0  0
 10 11  1  0  0  0
 11 12  2  0  0  0
 11 13  1  0  0  0
 13 14  2  0  0  0
 14 15  1  0  0  0
 15 16  2  0  0  0
 16 17  1  0  0  0
 17 18  2  0  0  0
 18 19  1  0  0  0
 19 20  2  0  0  0
 20 21  1  0  0  0
 49 45  1  0  0  0
 59 54  1  0  0  0
 39 34  1  0  0  0
 21 13  1  0  0  0
 20 15  1  0  0  0
 65 68  1  0  0  0
 65 69  1  0  0  0
 67 70  1  0  0  0
 63 64  1  0  0  0
 41 44  1  0  0  0
  3  4  1  0  0  0
  8  9  1  0  0  0
 25 26  1  0  0  0
 28 30  1  0  0  0
 28 31  1  0  0  0
 29 32  1  0  0  0
M  END
> <minimizedAffinity>
-9.01425

> <CNNscore>
0.1397982687

> <CNNaffinity>
7.5689058304

> <CNN_VS>
1.0581198931

> <CNNaffinity_variance>
2.6704678535

$$$$
[H]N=C(N([H])[H])N([H])C([H])([H])C([H])([H])C([H])([H])[C@@]([H])(C(=O)c1nc2c([H])c([H])c([H])c([H])c2s1)N([H])C(=O)[C@@]([H])(N([H])C(=O)[C@@]([H])(N([H])C(=O)[C@@]1([H])N(C(=O)OC([H])([H])c2c([H])c([H])c([H])c([H])c2[H])C([H])([H])C([H])([H])C1([H])[H])C([H])([H])C([H])([H])C([H])([H])N([H])C(=N[H])N([H])[H])C([H])([H])c1c([H])c([H])c([H])c([H])c1[H]


 70 74  0  0  0  0  0  0  0  0999 V2000
    8.2381   22.4953    1.2355 C   0  0  0  0  0  0  0  0  0  0  0  0
    7.5469   23.3169    0.6263 O   0  0  0  0  0  0  0  0  0  0  0  0
    7.8238   21.1467    1.3382 N   0  0  0  0  0  0  0  0  0  0  0  0
    8.4392   20.4804    1.8546 H   0  0  0  0  0  0  0  0  0  0  0  0
    6.5578   20.7358    0.7267 C   0  0  0  0  0  0  0  0  0  0  0  0
    6.0813   19.3990    1.2475 C   0  0  0  0  0  0  0  0  0  0  0  0
    6.4489   18.4373    0.5476 O   0  0  0  0  0  0  0  0  0  0  0  0
    5.3155   19.3383    2.3925 N   0  0  0  0  0  0  0  0  0  0  0  0
    5.4065   17.9621    2.4008 H   0  0  0  0  0  0  0  0  0  0  0  0
    4.5537   19.2485    3.5260 C   0  0  0  0  0  0  0  0  0  0  0  0
    4.9274   20.3339    4.4882 C   0  0  0  0  0  0  0  0  0  0  0  0
    3.9976   21.0395    5.0119 O   0  0  0  0  0  0  0  0  0  0  0  0
    6.2899   20.6442    4.8799 C   0  0  0  0  0  0  0  0  0  0  0  0
    7.4359   20.2050    4.4086 N   0  0  0  0  0  0  0  0  0  0  0  0
    8.5608   20.6021    4.9110 C   0  0  0  0  0  0  0  0  0  0  0  0
    9.8451   20.2052    4.5026 C   0  0  0  0  0  0  0  0  0  0  0  0
   10.9634   20.6809    5.1025 C   0  0  0  0  0  0  0  0  0  0  0  0
   10.9181   21.5739    6.1376 C   0  0  0  0  0  0  0  0  0  0  0  0
    9.6827   21.9855    6.5660 C   0  0  0  0  0  0  0  0  0  0  0  0
    8.5194   21.4981    5.9517 C   0  0  0  0  0  0  0  0  0  0  0  0
    6.8145   21.7046    6.1304 S   0  0  0  0  0  0  0  0  0  0  0  0
    4.4010   17.9655    4.2862 C   0  0  0  0  0  0  0  0  0  0  0  0
    5.5800   17.1479    4.5688 C   0  0  0  0  0  0  0  0  0  0  0  0
    5.8891   15.9248    3.7852 C   0  0  0  0  0  0  0  0  0  0  0  0
    4.7451   15.5015    2.9590 N   0  0  0  0  0  0  0  0  0  0  0  0
    3.8899   15.1905    3.4169 H   0  0  0  0  0  0  0  0  0  0  0  0
    4.8951   15.5406    1.5614 C   0  0  0  0  0  0  0  0  0  0  0  0
    3.8224   15.7396    0.6514 N   0  0  0  0  0  0  0  0  0  0  0  0
    6.0728   15.4073    0.9984 N   0  0  0  0  0  0  0  0  0  0  0  0
    3.3829   16.6721    0.4782 H   0  0  0  0  0  0  0  0  0  0  0  0
    3.4585   14.9278    0.1306 H   0  0  0  0  0  0  0  0  0  0  0  0
    6.8730   15.2739    1.6311 H   0  0  0  0  0  0  0  0  0  0  0  0
    6.8080   20.6752   -0.7494 C   0  0  0  0  0  0  0  0  0  0  0  0
    5.6234   20.7334   -1.6071 C   0  0  0  0  0  0  0  0  0  0  0  0
    4.5588   21.5946   -1.3771 C   0  0  0  0  0  0  0  0  0  0  0  0
    3.4924   21.5331   -2.2401 C   0  0  0  0  0  0  0  0  0  0  0  0
    3.4045   20.6847   -3.3052 C   0  0  0  0  0  0  0  0  0  0  0  0
    4.4742   19.7979   -3.5612 C   0  0  0  0  0  0  0  0  0  0  0  0
    5.5242   19.8763   -2.6907 C   0  0  0  0  0  0  0  0  0  0  0  0
    9.5319   22.9244    1.8819 C   0  0  0  0  0  0  0  0  0  0  0  0
   10.2602   23.7604    0.9674 N   0  0  0  0  0  0  0  0  0  0  0  0
   11.6802   23.9730    1.0066 C   0  0  0  0  0  0  0  0  0  0  0  0
   12.3317   23.4010    1.8936 O   0  0  0  0  0  0  0  0  0  0  0  0
    9.7180   24.2360    0.2417 H   0  0  0  0  0  0  0  0  0  0  0  0
   12.2536   24.8401    0.0055 C   0  0  0  0  0  0  0  0  0  0  0  0
   11.3337   24.9863   -1.2148 C   0  0  0  0  0  0  0  0  0  0  0  0
   12.2477   25.0704   -2.4051 C   0  0  0  0  0  0  0  0  0  0  0  0
   13.5328   25.5291   -1.7386 C   0  0  0  0  0  0  0  0  0  0  0  0
   13.5278   24.5970   -0.5432 N   0  0  0  0  0  0  0  0  0  0  0  0
   14.6595   23.8269   -0.2912 C   0  0  0  0  0  0  0  0  0  0  0  0
   15.6327   23.8954   -1.1404 O   0  0  0  0  0  0  0  0  0  0  0  0
   14.8899   22.9913    0.7500 O   0  0  0  0  0  0  0  0  0  0  0  0
   14.8994   21.5658    0.6230 C   0  0  0  0  0  0  0  0  0  0  0  0
   13.5312   21.0375    0.4025 C   0  0  0  0  0  0  0  0  0  0  0  0
   12.9297   21.0175   -0.8192 C   0  0  0  0  0  0  0  0  0  0  0  0
   11.6413   20.5108   -0.9854 C   0  0  0  0  0  0  0  0  0  0  0  0
   10.9106   20.0081    0.0687 C   0  0  0  0  0  0  0  0  0  0  0  0
   11.5252   20.0277    1.3251 C   0  0  0  0  0  0  0  0  0  0  0  0
   12.7935   20.5267    1.4770 C   0  0  0  0  0  0  0  0  0  0  0  0
    9.1365   23.6604    3.1128 C   0  0  0  0  0  0  0  0  0  0  0  0
    9.0737   25.1276    3.1212 C   0  0  0  0  0  0  0  0  0  0  0  0
    7.7533   25.7581    3.3814 C   0  0  0  0  0  0  0  0  0  0  0  0
    7.9216   27.2234    3.2957 N   0  0  0  0  0  0  0  0  0  0  0  0
    8.9082   27.6192    3.2783 H   0  0  0  0  0  0  0  0  0  0  0  0
    5.4965   27.5192    3.1597 N   0  0  0  0  0  0  0  0  0  0  0  0
    6.7899   28.0391    3.2450 C   0  0  0  0  0  0  0  0  0  0  0  0
    6.9429   29.3368    3.2868 N   0  0  0  0  0  0  0  0  0  0  0  0
    5.2881   26.7336    2.4932 H   0  0  0  0  0  0  0  0  0  0  0  0
    4.6899   27.8801    3.7426 H   0  0  0  0  0  0  0  0  0  0  0  0
    7.9125   29.7495    3.3517 H   0  0  0  0  0  0  0  0  0  0  0  0
 65 66  1  0  0  0
 66 67  2  0  0  0
 66 63  1  0  0  0
 63 62  1  0  0  0
 62 61  1  0  0  0
 61 60  1  0  0  0
 60 40  1  0  0  0
 40 41  1  0  0  0
 41 42  1  0  0  0
 42 43  2  0  0  0
 42 45  1  0  0  0
 45 46  1  0  0  0
 46 47  1  0  0  0
 47 48  1  0  0  0
 48 49  1  0  0  0
 49 50  1  0  0  0
 50 51  2  0  0  0
 50 52  1  0  0  0
 52 53  1  0  0  0
 53 54  1  0  0  0
 54 55  2  0  0  0
 55 56  1  0  0  0
 56 57  2  0  0  0
 57 58  1  0  0  0
 58 59  2  0  0  0
 40  1  1  0  0  0
  1  2  2  0  0  0
  1  3  1  0  0  0
  3  5  1  0  0  0
  5 33  1  0  0  0
 33 34  1  0  0  0
 34 35  2  0  0  0
 35 36  1  0  0  0
 36 37  2  0  0  0
 37 38  1  0  0  0
 38 39  2  0  0  0
  5  6  1  0  0  0
  6  7  2  0  0  0
  6  8  1  0  0  0
  8 10  1  0  0  0
 10 22  1  0  0  0
 22 23  1  0  0  0
 23 24  1  0  0  0
 24 25  1  0  0  0
 25 27  1  0  0  0
 27 28  1  0  0  0
 27 29  2  0  0  0
 10 11  1  0  0  0
 11 12  2  0  0  0
 11 13  1  0  0  0
 13 14  2  0  0  0
 14 15  1  0  0  0
 15 16  2  0  0  0
 16 17  1  0  0  0
 17 18  2  0  0  0
 18 19  1  0  0  0
 19 20  2  0  0  0
 20 21  1  0  0  0
 49 45  1  0  0  0
 59 54  1  0  0  0
 39 34  1  0  0  0
 21 13  1  0  0  0
 20 15  1  0  0  0
 65 68  1  0  0  0
 65 69  1  0  0  0
 67 70  1  0  0  0
 63 64  1  0  0  0
 41 44  1  0  0  0
  3  4  1  0  0  0
  8  9  1  0  0  0
 25 26  1  0  0  0
 28 30  1  0  0  0
 28 31  1  0  0  0
 29 32  1  0  0  0
M  END
> <minimizedAffinity>
-7.69073

> <CNNscore>
0.1070782915

> <CNNaffinity>
7.4409232140

> <CNN_VS>
0.7967613339

> <CNNaffinity_variance>
2.0767912865

$$$$
[H]N=C(N([H])[H])N([H])C([H])([H])C([H])([H])C([H])([H])[C@@]([H])(C(=O)c1nc2c([H])c([H])c([H])c([H])c2s1)N([H])C(=O)[C@@]([H])(N([H])C(=O)[C@@]([H])(N([H])C(=O)[C@@]1([H])N(C(=O)OC([H])([H])c2c([H])c([H])c([H])c([H])c2[H])C([H])([H])C([H])([H])C1([H])[H])C([H])([H])C([H])([H])C([H])([H])N([H])C(=N[H])N([H])[H])C([H])([H])c1c([H])c([H])c([H])c([H])c1[H]


 70 74  0  0  0  0  0  0  0  0999 V2000
   10.1952   21.4335    0.6525 C   0  0  0  0  0  0  0  0  0  0  0  0
   10.4880   20.9177    1.7351 O   0  0  0  0  0  0  0  0  0  0  0  0
   10.0386   22.8352    0.5458 N   0  0  0  0  0  0  0  0  0  0  0  0
    9.7985   23.2344   -0.3882 H   0  0  0  0  0  0  0  0  0  0  0  0
   10.2130   23.6699    1.7369 C   0  0  0  0  0  0  0  0  0  0  0  0
    8.9012   23.9461    2.4356 C   0  0  0  0  0  0  0  0  0  0  0  0
    7.9245   23.4079    1.8823 O   0  0  0  0  0  0  0  0  0  0  0  0
    8.8756   24.7305    3.5693 N   0  0  0  0  0  0  0  0  0  0  0  0
    7.5464   24.4233    3.7724 H   0  0  0  0  0  0  0  0  0  0  0  0
    8.8207   25.5060    4.6957 C   0  0  0  0  0  0  0  0  0  0  0  0
    8.3951   24.6814    5.8716 C   0  0  0  0  0  0  0  0  0  0  0  0
    7.8750   25.2706    6.8809 O   0  0  0  0  0  0  0  0  0  0  0  0
    8.5273   23.2382    5.9473 C   0  0  0  0  0  0  0  0  0  0  0  0
    9.4553   22.4385    5.4701 N   0  0  0  0  0  0  0  0  0  0  0  0
    9.3837   21.1571    5.6383 C   0  0  0  0  0  0  0  0  0  0  0  0
   10.3028   20.2007    5.1752 C   0  0  0  0  0  0  0  0  0  0  0  0
   10.1299   18.8760    5.4036 C   0  0  0  0  0  0  0  0  0  0  0  0
    9.0580   18.3840    6.0962 C   0  0  0  0  0  0  0  0  0  0  0  0
    8.1379   19.2858    6.5645 C   0  0  0  0  0  0  0  0  0  0  0  0
    8.3079   20.6590    6.3324 C   0  0  0  0  0  0  0  0  0  0  0  0
    7.4590   22.1172    6.6992 S   0  0  0  0  0  0  0  0  0  0  0  0
    8.0824   26.8102    4.7324 C   0  0  0  0  0  0  0  0  0  0  0  0
    6.7818   26.9236    4.0736 C   0  0  0  0  0  0  0  0  0  0  0  0
    6.6529   27.4132    2.6774 C   0  0  0  0  0  0  0  0  0  0  0  0
    5.5795   28.4137    2.5462 N   0  0  0  0  0  0  0  0  0  0  0  0
    4.6131   28.1275    2.6936 H   0  0  0  0  0  0  0  0  0  0  0  0
    5.9463   29.7294    2.2117 C   0  0  0  0  0  0  0  0  0  0  0  0
    5.3447   30.4819    1.1675 N   0  0  0  0  0  0  0  0  0  0  0  0
    6.8837   30.3650    2.8743 N   0  0  0  0  0  0  0  0  0  0  0  0
    4.4027   30.9274    1.2513 H   0  0  0  0  0  0  0  0  0  0  0  0
    5.8604   30.6007    0.2829 H   0  0  0  0  0  0  0  0  0  0  0  0
    7.3310   29.8514    3.6454 H   0  0  0  0  0  0  0  0  0  0  0  0
   10.8446   24.9438    1.2643 C   0  0  0  0  0  0  0  0  0  0  0  0
   11.9284   24.8036    0.2907 C   0  0  0  0  0  0  0  0  0  0  0  0
   13.2050   24.3748    0.6293 C   0  0  0  0  0  0  0  0  0  0  0  0
   14.1420   24.3119   -0.3726 C   0  0  0  0  0  0  0  0  0  0  0  0
   13.9078   24.6427   -1.6755 C   0  0  0  0  0  0  0  0  0  0  0  0
   12.6173   25.0823   -2.0464 C   0  0  0  0  0  0  0  0  0  0  0  0
   11.7012   25.1371   -1.0344 C   0  0  0  0  0  0  0  0  0  0  0  0
    9.9962   20.5705   -0.5689 C   0  0  0  0  0  0  0  0  0  0  0  0
    8.5923   20.4934   -0.8670 N   0  0  0  0  0  0  0  0  0  0  0  0
    7.8213   19.2816   -0.8679 C   0  0  0  0  0  0  0  0  0  0  0  0
    8.4026   18.2198   -0.5974 O   0  0  0  0  0  0  0  0  0  0  0  0
    8.1182   21.3706   -1.0965 H   0  0  0  0  0  0  0  0  0  0  0  0
    6.4167   19.3839   -1.1832 C   0  0  0  0  0  0  0  0  0  0  0  0
    6.1865   20.0594   -2.5424 C   0  0  0  0  0  0  0  0  0  0  0  0
    4.9370   20.8793   -2.3825 C   0  0  0  0  0  0  0  0  0  0  0  0
    4.2885   20.1733   -1.2046 C   0  0  0  0  0  0  0  0  0  0  0  0
    5.5074   20.0213   -0.3166 N   0  0  0  0  0  0  0  0  0  0  0  0
    5.4390   20.4774    0.9967 C   0  0  0  0  0  0  0  0  0  0  0  0
    4.3546   21.0773    1.3673 O   0  0  0  0  0  0  0  0  0  0  0  0
    6.3774   20.3775    1.9686 O   0  0  0  0  0  0  0  0  0  0  0  0
    6.1317   20.7299    3.3338 C   0  0  0  0  0  0  0  0  0  0  0  0
    5.5651   19.5864    4.0895 C   0  0  0  0  0  0  0  0  0  0  0  0
    5.8752   18.2885    3.8177 C   0  0  0  0  0  0  0  0  0  0  0  0
    5.3218   17.2409    4.5529 C   0  0  0  0  0  0  0  0  0  0  0  0
    4.4362   17.4588    5.5855 C   0  0  0  0  0  0  0  0  0  0  0  0
    4.1150   18.7909    5.8670 C   0  0  0  0  0  0  0  0  0  0  0  0
    4.6666   19.8137    5.1387 C   0  0  0  0  0  0  0  0  0  0  0  0
   10.7591   21.2393   -1.6569 C   0  0  0  0  0  0  0  0  0  0  0  0
   12.2117   21.4262   -1.5484 C   0  0  0  0  0  0  0  0  0  0  0  0
   13.0131   20.2939   -1.0151 C   0  0  0  0  0  0  0  0  0  0  0  0
   14.3188   20.8258   -0.5737 N   0  0  0  0  0  0  0  0  0  0  0  0
   15.0322   21.0946   -1.3147 H   0  0  0  0  0  0  0  0  0  0  0  0
   15.8483   21.2547    1.2874 N   0  0  0  0  0  0  0  0  0  0  0  0
   14.5774   20.9547    0.7920 C   0  0  0  0  0  0  0  0  0  0  0  0
   13.5947   20.7975    1.6397 N   0  0  0  0  0  0  0  0  0  0  0  0
   16.6930   20.7619    0.9022 H   0  0  0  0  0  0  0  0  0  0  0  0
   16.0164   21.9690    2.0504 H   0  0  0  0  0  0  0  0  0  0  0  0
   12.6264   20.5707    1.2850 H   0  0  0  0  0  0  0  0  0  0  0  0
 65 66  1  0  0  0
 66 67  2  0  0  0
 66 63  1  0  0  0
 63 62  1  0  0  0
 62 61  1  0  0  0
 61 60  1  0  0  0
 60 40  1  0  0  0
 40 41  1  0  0  0
 41 42  1  0  0  0
 42 43  2  0  0  0
 42 45  1  0  0  0
 45 46  1  0  0  0
 46 47  1  0  0  0
 47 48  1  0  0  0
 48 49  1  0  0  0
 49 50  1  0  0  0
 50 51  2  0  0  0
 50 52  1  0  0  0
 52 53  1  0  0  0
 53 54  1  0  0  0
 54 55  2  0  0  0
 55 56  1  0  0  0
 56 57  2  0  0  0
 57 58  1  0  0  0
 58 59  2  0  0  0
 40  1  1  0  0  0
  1  2  2  0  0  0
  1  3  1  0  0  0
  3  5  1  0  0  0
  5 33  1  0  0  0
 33 34  1  0  0  0
 34 35  2  0  0  0
 35 36  1  0  0  0
 36 37  2  0  0  0
 37 38  1  0  0  0
 38 39  2  0  0  0
  5  6  1  0  0  0
  6  7  2  0  0  0
  6  8  1  0  0  0
  8 10  1  0  0  0
 10 22  1  0  0  0
 22 23  1  0  0  0
 23 24  1  0  0  0
 24 25  1  0  0  0
 25 27  1  0  0  0
 27 28  1  0  0  0
 27 29  2  0  0  0
 10 11  1  0  0  0
 11 12  2  0  0  0
 11 13  1  0  0  0
 13 14  2  0  0  0
 14 15  1  0  0  0
 15 16  2  0  0  0
 16 17  1  0  0  0
 17 18  2  0  0  0
 18 19  1  0  0  0
 19 20  2  0  0  0
 20 21  1  0  0  0
 49 45  1  0  0  0
 59 54  1  0  0  0
 39 34  1  0  0  0
 21 13  1  0  0  0
 20 15  1  0  0  0
 65 68  1  0  0  0
 65 69  1  0  0  0
 67 70  1  0  0  0
 63 64  1  0  0  0
 41 44  1  0  0  0
  3  4  1  0  0  0
  8  9  1  0  0  0
 25 26  1  0  0  0
 28 30  1  0  0  0
 28 31  1  0  0  0
 29 32  1  0  0  0
M  END
> <minimizedAffinity>
-8.40995

> <CNNscore>
0.0951620042

> <CNNaffinity>
7.4429550171

> <CNN_VS>
0.7082865238

> <CNNaffinity_variance>
3.1529240608

$$$$
[H]N=C(N([H])[H])N([H])C([H])([H])C([H])([H])C([H])([H])[C@@]([H])(C(=O)c1nc2c([H])c([H])c([H])c([H])c2s1)N([H])C(=O)[C@@]([H])(N([H])C(=O)[C@@]([H])(N([H])C(=O)[C@@]1([H])N(C(=O)OC([H])([H])c2c([H])c([H])c([H])c([H])c2[H])C([H])([H])C([H])([H])C1([H])[H])C([H])([H])C([H])([H])C([H])([H])N([H])C(=N[H])N([H])[H])C([H])([H])c1c([H])c([H])c([H])c([H])c1[H]


 70 74  0  0  0  0  0  0  0  0999 V2000
    8.6453   23.0568    1.7081 C   0  0  0  0  0  0  0  0  0  0  0  0
    7.9614   23.9118    1.1378 O   0  0  0  0  0  0  0  0  0  0  0  0
    8.2497   21.6988    1.6971 N   0  0  0  0  0  0  0  0  0  0  0  0
    8.8585   21.0045    2.1838 H   0  0  0  0  0  0  0  0  0  0  0  0
    7.0113   21.3171    1.0142 C   0  0  0  0  0  0  0  0  0  0  0  0
    6.3412   20.1317    1.6709 C   0  0  0  0  0  0  0  0  0  0  0  0
    6.5140   19.0636    1.0551 O   0  0  0  0  0  0  0  0  0  0  0  0
    5.6246   20.3031    2.8363 N   0  0  0  0  0  0  0  0  0  0  0  0
    5.4855   18.9375    2.9716 H   0  0  0  0  0  0  0  0  0  0  0  0
    4.9065   20.4442    3.9929 C   0  0  0  0  0  0  0  0  0  0  0  0
    5.7146   21.1797    5.0174 C   0  0  0  0  0  0  0  0  0  0  0  0
    6.4682   20.5095    5.8044 O   0  0  0  0  0  0  0  0  0  0  0  0
    5.7085   22.6217    5.1805 C   0  0  0  0  0  0  0  0  0  0  0  0
    6.1150   23.5753    4.3718 N   0  0  0  0  0  0  0  0  0  0  0  0
    6.0326   24.8210    4.7135 C   0  0  0  0  0  0  0  0  0  0  0  0
    6.4355   25.9267    3.9460 C   0  0  0  0  0  0  0  0  0  0  0  0
    6.3084   27.1964    4.4025 C   0  0  0  0  0  0  0  0  0  0  0  0
    5.7822   27.4857    5.6314 C   0  0  0  0  0  0  0  0  0  0  0  0
    5.3775   26.4335    6.4113 C   0  0  0  0  0  0  0  0  0  0  0  0
    5.5058   25.1155    5.9476 C   0  0  0  0  0  0  0  0  0  0  0  0
    5.1602   23.5296    6.5364 S   0  0  0  0  0  0  0  0  0  0  0  0
    4.2289   19.2847    4.6589 C   0  0  0  0  0  0  0  0  0  0  0  0
    4.5374   17.9219    4.2276 C   0  0  0  0  0  0  0  0  0  0  0  0
    3.6642   17.1861    3.2779 C   0  0  0  0  0  0  0  0  0  0  0  0
    4.2284   17.1702    1.9171 N   0  0  0  0  0  0  0  0  0  0  0  0
    4.2203   18.0269    1.3660 H   0  0  0  0  0  0  0  0  0  0  0  0
    4.7495   15.9554    1.4371 C   0  0  0  0  0  0  0  0  0  0  0  0
    5.9013   15.8548    0.6114 N   0  0  0  0  0  0  0  0  0  0  0  0
    4.1953   14.8068    1.7457 N   0  0  0  0  0  0  0  0  0  0  0  0
    6.8768   15.9553    0.9734 H   0  0  0  0  0  0  0  0  0  0  0  0
    5.7740   15.6697   -0.3946 H   0  0  0  0  0  0  0  0  0  0  0  0
    3.3657   14.8445    2.3530 H   0  0  0  0  0  0  0  0  0  0  0  0
    7.3955   20.9981   -0.3984 C   0  0  0  0  0  0  0  0  0  0  0  0
    6.2907   20.7860   -1.3348 C   0  0  0  0  0  0  0  0  0  0  0  0
    6.3409   19.8687   -2.3760 C   0  0  0  0  0  0  0  0  0  0  0  0
    5.2480   19.7840   -3.2031 C   0  0  0  0  0  0  0  0  0  0  0  0
    4.1183   20.5386   -3.0752 C   0  0  0  0  0  0  0  0  0  0  0  0
    4.0418   21.4797   -2.0243 C   0  0  0  0  0  0  0  0  0  0  0  0
    5.1397   21.5470   -1.2140 C   0  0  0  0  0  0  0  0  0  0  0  0
    9.9100   23.4545    2.4281 C   0  0  0  0  0  0  0  0  0  0  0  0
   10.6913   24.3045    1.5721 N   0  0  0  0  0  0  0  0  0  0  0  0
   11.0401   23.9987    0.2127 C   0  0  0  0  0  0  0  0  0  0  0  0
   10.6462   22.9231   -0.2630 O   0  0  0  0  0  0  0  0  0  0  0  0
   11.0202   25.1876    1.9708 H   0  0  0  0  0  0  0  0  0  0  0  0
   11.8268   24.9695   -0.5095 C   0  0  0  0  0  0  0  0  0  0  0  0
   11.3747   25.0941   -1.9713 C   0  0  0  0  0  0  0  0  0  0  0  0
   12.6286   25.3290   -2.7660 C   0  0  0  0  0  0  0  0  0  0  0  0
   13.5473   25.8704   -1.6847 C   0  0  0  0  0  0  0  0  0  0  0  0
   13.2305   24.8783   -0.5833 N   0  0  0  0  0  0  0  0  0  0  0  0
   14.2815   24.2062    0.0339 C   0  0  0  0  0  0  0  0  0  0  0  0
   15.4746   24.4127   -0.4209 O   0  0  0  0  0  0  0  0  0  0  0  0
   14.2269   23.3407    1.0747 O   0  0  0  0  0  0  0  0  0  0  0  0
   14.4941   21.9408    0.9441 C   0  0  0  0  0  0  0  0  0  0  0  0
   13.2456   21.1759    0.7080 C   0  0  0  0  0  0  0  0  0  0  0  0
   12.4043   20.7979    1.7100 C   0  0  0  0  0  0  0  0  0  0  0  0
   11.2383   20.0800    1.4464 C   0  0  0  0  0  0  0  0  0  0  0  0
   10.8765   19.7146    0.1683 C   0  0  0  0  0  0  0  0  0  0  0  0
   11.7388   20.1008   -0.8632 C   0  0  0  0  0  0  0  0  0  0  0  0
   12.8821   20.8083   -0.5929 C   0  0  0  0  0  0  0  0  0  0  0  0
    9.4620   24.1642    3.6564 C   0  0  0  0  0  0  0  0  0  0  0  0
    9.8122   23.6523    4.9876 C   0  0  0  0  0  0  0  0  0  0  0  0
    9.2533   22.3343    5.3867 C   0  0  0  0  0  0  0  0  0  0  0  0
   10.3191   21.3220    5.2386 N   0  0  0  0  0  0  0  0  0  0  0  0
   11.3277   21.6239    5.3864 H   0  0  0  0  0  0  0  0  0  0  0  0
   10.8440   18.9359    5.1051 N   0  0  0  0  0  0  0  0  0  0  0  0
    9.9743   20.0105    4.9073 C   0  0  0  0  0  0  0  0  0  0  0  0
    8.7920   19.7758    4.4011 N   0  0  0  0  0  0  0  0  0  0  0  0
   11.8560   19.0212    4.8340 H   0  0  0  0  0  0  0  0  0  0  0  0
   10.5358   18.0134    5.5231 H   0  0  0  0  0  0  0  0  0  0  0  0
    8.1198   20.5747    4.2443 H   0  0  0  0  0  0  0  0  0  0  0  0
 65 66  1  0  0  0
 66 67  2  0  0  0
 66 63  1  0  0  0
 63 62  1  0  0  0
 62 61  1  0  0  0
 61 60  1  0  0  0
 60 40  1  0  0  0
 40 41  1  0  0  0
 41 42  1  0  0  0
 42 43  2  0  0  0
 42 45  1  0  0  0
 45 46  1  0  0  0
 46 47  1  0  0  0
 47 48  1  0  0  0
 48 49  1  0  0  0
 49 50  1  0  0  0
 50 51  2  0  0  0
 50 52  1  0  0  0
 52 53  1  0  0  0
 53 54  1  0  0  0
 54 55  2  0  0  0
 55 56  1  0  0  0
 56 57  2  0  0  0
 57 58  1  0  0  0
 58 59  2  0  0  0
 40  1  1  0  0  0
  1  2  2  0  0  0
  1  3  1  0  0  0
  3  5  1  0  0  0
  5 33  1  0  0  0
 33 34  1  0  0  0
 34 35  2  0  0  0
 35 36  1  0  0  0
 36 37  2  0  0  0
 37 38  1  0  0  0
 38 39  2  0  0  0
  5  6  1  0  0  0
  6  7  2  0  0  0
  6  8  1  0  0  0
  8 10  1  0  0  0
 10 22  1  0  0  0
 22 23  1  0  0  0
 23 24  1  0  0  0
 24 25  1  0  0  0
 25 27  1  0  0  0
 27 28  1  0  0  0
 27 29  2  0  0  0
 10 11  1  0  0  0
 11 12  2  0  0  0
 11 13  1  0  0  0
 13 14  2  0  0  0
 14 15  1  0  0  0
 15 16  2  0  0  0
 16 17  1  0  0  0
 17 18  2  0  0  0
 18 19  1  0  0  0
 19 20  2  0  0  0
 20 21  1  0  0  0
 49 45  1  0  0  0
 59 54  1  0  0  0
 39 34  1  0  0  0
 21 13  1  0  0  0
 20 15  1  0  0  0
 65 68  1  0  0  0
 65 69  1  0  0  0
 67 70  1  0  0  0
 63 64  1  0  0  0
 41 44  1  0  0  0
  3  4  1  0  0  0
  8  9  1  0  0  0
 25 26  1  0  0  0
 28 30  1  0  0  0
 28 31  1  0  0  0
 29 32  1  0  0  0
M  END
> <minimizedAffinity>
-6.66837

> <CNNscore>
0.0853654072

> <CNNaffinity>
7.2748703957

> <CNN_VS>
0.6210222840

> <CNNaffinity_variance>
0.7847305536

$$$$
[H]c1c([H])c([H])c(C([H])([H])[C@@]([H])(C(=O)N([H])[H])N([H])C(=O)[C@@]([H])(N([H])C(=O)[C@@]([H])(N([H])C(=O)C([H])([H])N([H])C(=O)[C@@]2([H])N(C(=O)[C@@]([H])(N([H])[H])C([H])([H])c3c([H])n([H])c4c([H])c([H])c([H])c([H])c34)C([H])([H])C([H])([H])C2([H])[H])C([H])([H])c2c([H])c([H])c([H])c([H])c2[H])C([H])([H])C([H])(C([H])([H])[H])C([H])([H])[H])c([H])c1[H]


 65 69  0  0  0  0  0  0  0  0999 V2000
    8.1786   23.7983    2.9746 C   0  0  0  0  0  0  0  0  0  0  0  0
    8.8110   23.6539    1.6437 N   0  0  0  0  0  0  0  0  0  0  0  0
   10.0035   24.3376    1.3476 C   0  0  0  0  0  0  0  0  0  0  0  0
   10.4705   25.0503    2.3225 O   0  0  0  0  0  0  0  0  0  0  0  0
    8.3799   23.0379    0.9345 H   0  0  0  0  0  0  0  0  0  0  0  0
   10.7612   24.3449    0.1218 C   0  0  0  0  0  0  0  0  0  0  0  0
   11.9405   23.5456    0.0621 N   0  0  0  0  0  0  0  0  0  0  0  0
   12.3518   22.7976   -1.0675 C   0  0  0  0  0  0  0  0  0  0  0  0
   11.6434   22.8104   -2.0964 O   0  0  0  0  0  0  0  0  0  0  0  0
   12.5977   23.4706    0.8990 H   0  0  0  0  0  0  0  0  0  0  0  0
   13.6063   21.9839   -1.1007 C   0  0  0  0  0  0  0  0  0  0  0  0
   13.3741   20.5301   -0.8584 C   0  0  0  0  0  0  0  0  0  0  0  0
   13.6269   20.3548    0.6032 C   0  0  0  0  0  0  0  0  0  0  0  0
   14.5367   21.4778    0.9831 C   0  0  0  0  0  0  0  0  0  0  0  0
   14.5277   22.4157   -0.0972 N   0  0  0  0  0  0  0  0  0  0  0  0
   15.3120   23.6219   -0.1897 C   0  0  0  0  0  0  0  0  0  0  0  0
   16.0641   23.9401    0.7917 O   0  0  0  0  0  0  0  0  0  0  0  0
   15.2829   24.4991   -1.3547 C   0  0  0  0  0  0  0  0  0  0  0  0
   14.2492   25.5680   -1.1420 N   0  0  0  0  0  0  0  0  0  0  0  0
   13.3081   25.1143   -1.0473 H   0  0  0  0  0  0  0  0  0  0  0  0
   14.1956   26.1285   -2.0474 H   0  0  0  0  0  0  0  0  0  0  0  0
   16.5604   25.2001   -1.7113 C   0  0  0  0  0  0  0  0  0  0  0  0
   16.4845   26.1860   -2.7851 C   0  0  0  0  0  0  0  0  0  0  0  0
   16.9262   27.5219   -2.6868 C   0  0  0  0  0  0  0  0  0  0  0  0
   16.7674   28.1721   -3.8295 N   0  0  0  0  0  0  0  0  0  0  0  0
   16.2279   27.2999   -4.6965 C   0  0  0  0  0  0  0  0  0  0  0  0
   15.8458   27.4322   -6.0048 C   0  0  0  0  0  0  0  0  0  0  0  0
   15.2922   26.3866   -6.6996 C   0  0  0  0  0  0  0  0  0  0  0  0
   15.1112   25.1749   -6.0833 C   0  0  0  0  0  0  0  0  0  0  0  0
   15.4818   25.0039   -4.7740 C   0  0  0  0  0  0  0  0  0  0  0  0
   16.0410   26.0623   -4.0769 C   0  0  0  0  0  0  0  0  0  0  0  0
   16.9930   29.1604   -4.0789 H   0  0  0  0  0  0  0  0  0  0  0  0
    7.1254   21.5543    2.4445 N   0  0  0  0  0  0  0  0  0  0  0  0
    7.1679   22.7408    3.2258 C   0  0  0  0  0  0  0  0  0  0  0  0
    6.3392   22.9100    4.1448 O   0  0  0  0  0  0  0  0  0  0  0  0
    7.8384   21.4662    1.6744 H   0  0  0  0  0  0  0  0  0  0  0  0
    6.1320   20.4846    2.6844 C   0  0  0  0  0  0  0  0  0  0  0  0
    6.5831   19.6633    3.8317 C   0  0  0  0  0  0  0  0  0  0  0  0
    6.3209   18.4458    3.7499 O   0  0  0  0  0  0  0  0  0  0  0  0
    7.2665   20.1752    4.9519 N   0  0  0  0  0  0  0  0  0  0  0  0
    7.4653   21.2507    4.9793 H   0  0  0  0  0  0  0  0  0  0  0  0
    7.7469   19.4528    6.0675 C   0  0  0  0  0  0  0  0  0  0  0  0
    8.9504   18.6047    5.8930 C   0  0  0  0  0  0  0  0  0  0  0  0
   10.1903   19.2440    5.5366 N   0  0  0  0  0  0  0  0  0  0  0  0
    9.0071   17.3758    6.0262 O   0  0  0  0  0  0  0  0  0  0  0  0
   10.9798   19.1469    6.1802 H   0  0  0  0  0  0  0  0  0  0  0  0
   10.2178   19.7702    4.6474 H   0  0  0  0  0  0  0  0  0  0  0  0
    6.7797   18.9340    7.0600 C   0  0  0  0  0  0  0  0  0  0  0  0
    5.5422   19.7327    7.2014 C   0  0  0  0  0  0  0  0  0  0  0  0
    5.4625   20.9839    7.7622 C   0  0  0  0  0  0  0  0  0  0  0  0
    4.2623   21.6927    7.8618 C   0  0  0  0  0  0  0  0  0  0  0  0
    3.0816   21.1261    7.3778 C   0  0  0  0  0  0  0  0  0  0  0  0
    3.1451   19.8847    6.8186 C   0  0  0  0  0  0  0  0  0  0  0  0
    4.3393   19.1972    6.7282 C   0  0  0  0  0  0  0  0  0  0  0  0
    6.1611   19.7165    1.3625 C   0  0  0  0  0  0  0  0  0  0  0  0
    4.6704   20.0593   -0.5956 C   0  0  0  0  0  0  0  0  0  0  0  0
    4.8212   19.4085    0.8006 C   0  0  0  0  0  0  0  0  0  0  0  0
    3.6652   19.9768    1.5908 C   0  0  0  0  0  0  0  0  0  0  0  0
    7.6037   25.1904    2.9810 C   0  0  0  0  0  0  0  0  0  0  0  0
    7.3823   25.7295    4.3538 C   0  0  0  0  0  0  0  0  0  0  0  0
    6.1913   26.3360    4.6994 C   0  0  0  0  0  0  0  0  0  0  0  0
    6.0058   26.8074    5.9702 C   0  0  0  0  0  0  0  0  0  0  0  0
    6.9631   26.7166    6.9739 C   0  0  0  0  0  0  0  0  0  0  0  0
    8.1486   26.1007    6.5888 C   0  0  0  0  0  0  0  0  0  0  0  0
    8.3536   25.6223    5.3201 C   0  0  0  0  0  0  0  0  0  0  0  0
 56 57  1  0  0  0
 57 58  1  0  0  0
 57 55  1  0  0  0
 55 37  1  0  0  0
 37 33  1  0  0  0
 33 34  1  0  0  0
 34 35  2  0  0  0
 34  1  1  0  0  0
  1 59  1  0  0  0
 59 60  1  0  0  0
 60 61  2  0  0  0
 61 62  1  0  0  0
 62 63  2  0  0  0
 63 64  1  0  0  0
 64 65  2  0  0  0
  1  2  1  0  0  0
  2  3  1  0  0  0
  3  4  2  0  0  0
  3  6  1  0  0  0
  6  7  1  0  0  0
  7  8  1  0  0  0
  8  9  2  0  0  0
  8 11  1  0  0  0
 11 12  1  0  0  0
 12 13  1  0  0  0
 13 14  1  0  0  0
 14 15  1  0  0  0
 15 16  1  0  0  0
 16 17  2  0  0  0
 16 18  1  0  0  0
 18 19  1  0  0  0
 18 22  1  0  0  0
 22 23  1  0  0  0
 23 24  2  0  0  0
 24 25  1  0  0  0
 25 26  1  0  0  0
 26 27  2  0  0  0
 27 28  1  0  0  0
 28 29  2  0  0  0
 29 30  1  0  0  0
 30 31  2  0  0  0
 37 38  1  0  0  0
 38 39  2  0  0  0
 38 40  1  0  0  0
 40 42  1  0  0  0
 42 48  1  0  0  0
 48 49  1  0  0  0
 49 50  2  0  0  0
 50 51  1  0  0  0
 51 52  2  0  0  0
 52 53  1  0  0  0
 53 54  2  0  0  0
 42 43  1  0  0  0
 43 44  1  0  0  0
 43 45  2  0  0  0
 65 60  1  0  0  0
 15 11  1  0  0  0
 31 23  1  0  0  0
 54 49  1  0  0  0
 31 26  1  0  0  0
 33 36  1  0  0  0
  2  5  1  0  0  0
  7 10  1  0  0  0
 19 20  1  0  0  0
 19 21  1  0  0  0
 25 32  1  0  0  0
 40 41  1  0  0  0
 44 46  1  0  0  0
 44 47  1  0  0  0
M  END
> <minimizedAffinity>
-7.57216

> <CNNscore>
0.1414940804

> <CNNaffinity>
7.6233320236

> <CNN_VS>
1.0786563158

> <CNNaffinity_variance>
0.1157347113

$$$$
[H]c1c([H])c([H])c(C([H])([H])[C@@]([H])(C(=O)N([H])[H])N([H])C(=O)[C@@]([H])(N([H])C(=O)[C@@]([H])(N([H])C(=O)C([H])([H])N([H])C(=O)[C@@]2([H])N(C(=O)[C@@]([H])(N([H])[H])C([H])([H])c3c([H])n([H])c4c([H])c([H])c([H])c([H])c34)C([H])([H])C([H])([H])C2([H])[H])C([H])([H])c2c([H])c([H])c([H])c([H])c2[H])C([H])([H])C([H])(C([H])([H])[H])C([H])([H])[H])c([H])c1[H]


 65 69  0  0  0  0  0  0  0  0999 V2000
    7.5854   25.1943    3.4298 C   0  0  0  0  0  0  0  0  0  0  0  0
    7.0040   24.8476    4.7465 N   0  0  0  0  0  0  0  0  0  0  0  0
    6.2710   23.6584    4.9068 C   0  0  0  0  0  0  0  0  0  0  0  0
    6.1853   22.9319    3.8385 O   0  0  0  0  0  0  0  0  0  0  0  0
    7.1487   25.4770    5.5534 H   0  0  0  0  0  0  0  0  0  0  0  0
    5.6170   23.1513    6.0866 C   0  0  0  0  0  0  0  0  0  0  0  0
    5.2545   21.7724    6.1075 N   0  0  0  0  0  0  0  0  0  0  0  0
    3.9267   21.2862    6.0344 C   0  0  0  0  0  0  0  0  0  0  0  0
    2.9836   22.1017    5.9575 O   0  0  0  0  0  0  0  0  0  0  0  0
    5.9962   21.0092    6.1805 H   0  0  0  0  0  0  0  0  0  0  0  0
    3.5843   19.8302    6.0404 C   0  0  0  0  0  0  0  0  0  0  0  0
    3.2855   19.2991    7.4023 C   0  0  0  0  0  0  0  0  0  0  0  0
    4.5805   18.7140    7.8625 C   0  0  0  0  0  0  0  0  0  0  0  0
    5.3302   18.3849    6.6124 C   0  0  0  0  0  0  0  0  0  0  0  0
    4.6642   19.0445    5.5315 N   0  0  0  0  0  0  0  0  0  0  0  0
    5.0057   18.9546    4.1337 C   0  0  0  0  0  0  0  0  0  0  0  0
    6.0259   18.2654    3.7956 O   0  0  0  0  0  0  0  0  0  0  0  0
    4.2389   19.6193    3.0859 C   0  0  0  0  0  0  0  0  0  0  0  0
    5.1336   20.5769    2.3517 N   0  0  0  0  0  0  0  0  0  0  0  0
    5.4732   21.3062    3.0249 H   0  0  0  0  0  0  0  0  0  0  0  0
    4.5171   21.1050    1.6603 H   0  0  0  0  0  0  0  0  0  0  0  0
    3.6019   18.7429    2.0482 C   0  0  0  0  0  0  0  0  0  0  0  0
    4.4242   17.6607    1.5159 C   0  0  0  0  0  0  0  0  0  0  0  0
    4.2857   16.2992    1.8570 C   0  0  0  0  0  0  0  0  0  0  0  0
    5.1422   15.5409    1.1897 N   0  0  0  0  0  0  0  0  0  0  0  0
    5.8548   16.3652    0.4046 C   0  0  0  0  0  0  0  0  0  0  0  0
    6.8739   16.1287   -0.4789 C   0  0  0  0  0  0  0  0  0  0  0  0
    7.4734   17.1496   -1.1724 C   0  0  0  0  0  0  0  0  0  0  0  0
    7.0530   18.4419   -0.9873 C   0  0  0  0  0  0  0  0  0  0  0  0
    6.0349   18.7180   -0.1109 C   0  0  0  0  0  0  0  0  0  0  0  0
    5.4323   17.6838    0.5864 C   0  0  0  0  0  0  0  0  0  0  0  0
    5.2898   14.5079    1.2167 H   0  0  0  0  0  0  0  0  0  0  0  0
    9.0140   23.8346    1.8373 N   0  0  0  0  0  0  0  0  0  0  0  0
    8.7943   24.3878    3.1279 C   0  0  0  0  0  0  0  0  0  0  0  0
    9.6284   24.1948    4.0372 O   0  0  0  0  0  0  0  0  0  0  0  0
    8.2746   24.0165    1.1097 H   0  0  0  0  0  0  0  0  0  0  0  0
   10.2163   23.0356    1.5136 C   0  0  0  0  0  0  0  0  0  0  0  0
   11.2372   23.9295    0.9193 C   0  0  0  0  0  0  0  0  0  0  0  0
   11.1170   25.1384    1.2055 O   0  0  0  0  0  0  0  0  0  0  0  0
   12.2881   23.4906    0.0905 N   0  0  0  0  0  0  0  0  0  0  0  0
   12.3449   22.4219   -0.1369 H   0  0  0  0  0  0  0  0  0  0  0  0
   13.3083   24.2773   -0.4903 C   0  0  0  0  0  0  0  0  0  0  0  0
   14.4973   24.6082    0.3311 C   0  0  0  0  0  0  0  0  0  0  0  0
   15.5878   23.6684    0.3634 N   0  0  0  0  0  0  0  0  0  0  0  0
   14.6598   25.6316    1.0075 O   0  0  0  0  0  0  0  0  0  0  0  0
   16.5021   23.9864    0.0321 H   0  0  0  0  0  0  0  0  0  0  0  0
   15.3890   22.7187    0.7194 H   0  0  0  0  0  0  0  0  0  0  0  0
   12.9409   25.3223   -1.4716 C   0  0  0  0  0  0  0  0  0  0  0  0
   13.7261   25.3039   -2.7256 C   0  0  0  0  0  0  0  0  0  0  0  0
   13.7483   26.3054   -3.6652 C   0  0  0  0  0  0  0  0  0  0  0  0
   14.5172   26.2325   -4.8298 C   0  0  0  0  0  0  0  0  0  0  0  0
   15.3041   25.1045   -5.0702 C   0  0  0  0  0  0  0  0  0  0  0  0
   15.2922   24.1023   -4.1467 C   0  0  0  0  0  0  0  0  0  0  0  0
   14.5263   24.1896   -3.0009 C   0  0  0  0  0  0  0  0  0  0  0  0
    9.6670   22.0200    0.5110 C   0  0  0  0  0  0  0  0  0  0  0  0
   11.0199   20.5476    1.9859 C   0  0  0  0  0  0  0  0  0  0  0  0
   10.1949   20.6422    0.6797 C   0  0  0  0  0  0  0  0  0  0  0  0
   11.1664   20.2081   -0.3934 C   0  0  0  0  0  0  0  0  0  0  0  0
    7.8554   26.6742    3.5034 C   0  0  0  0  0  0  0  0  0  0  0  0
    6.6828   27.5068    3.1084 C   0  0  0  0  0  0  0  0  0  0  0  0
    5.5525   27.5690    3.8984 C   0  0  0  0  0  0  0  0  0  0  0  0
    4.4964   28.3535    3.5231 C   0  0  0  0  0  0  0  0  0  0  0  0
    4.4784   29.1195    2.3634 C   0  0  0  0  0  0  0  0  0  0  0  0
    5.6328   29.0311    1.5936 C   0  0  0  0  0  0  0  0  0  0  0  0
    6.7014   28.2503    1.9526 C   0  0  0  0  0  0  0  0  0  0  0  0
 56 57  1  0  0  0
 57 58  1  0  0  0
 57 55  1  0  0  0
 55 37  1  0  0  0
 37 33  1  0  0  0
 33 34  1  0  0  0
 34 35  2  0  0  0
 34  1  1  0  0  0
  1 59  1  0  0  0
 59 60  1  0  0  0
 60 61  2  0  0  0
 61 62  1  0  0  0
 62 63  2  0  0  0
 63 64  1  0  0  0
 64 65  2  0  0  0
  1  2  1  0  0  0
  2  3  1  0  0  0
  3  4  2  0  0  0
  3  6  1  0  0  0
  6  7  1  0  0  0
  7  8  1  0  0  0
  8  9  2  0  0  0
  8 11  1  0  0  0
 11 12  1  0  0  0
 12 13  1  0  0  0
 13 14  1  0  0  0
 14 15  1  0  0  0
 15 16  1  0  0  0
 16 17  2  0  0  0
 16 18  1  0  0  0
 18 19  1  0  0  0
 18 22  1  0  0  0
 22 23  1  0  0  0
 23 24  2  0  0  0
 24 25  1  0  0  0
 25 26  1  0  0  0
 26 27  2  0  0  0
 27 28  1  0  0  0
 28 29  2  0  0  0
 29 30  1  0  0  0
 30 31  2  0  0  0
 37 38  1  0  0  0
 38 39  2  0  0  0
 38 40  1  0  0  0
 40 42  1  0  0  0
 42 48  1  0  0  0
 48 49  1  0  0  0
 49 50  2  0  0  0
 50 51  1  0  0  0
 51 52  2  0  0  0
 52 53  1  0  0  0
 53 54  2  0  0  0
 42 43  1  0  0  0
 43 44  1  0  0  0
 43 45  2  0  0  0
 65 60  1  0  0  0
 15 11  1  0  0  0
 31 23  1  0  0  0
 54 49  1  0  0  0
 31 26  1  0  0  0
 33 36  1  0  0  0
  2  5  1  0  0  0
  7 10  1  0  0  0
 19 20  1  0  0  0
 19 21  1  0  0  0
 25 32  1  0  0  0
 40 41  1  0  0  0
 44 46  1  0  0  0
 44 47  1  0  0  0
M  END
> <minimizedAffinity>
-9.37376

> <CNNscore>
0.1400772631

> <CNNaffinity>
7.1597213745

> <CNN_VS>
1.0029141903

> <CNNaffinity_variance>
0.8033353686

$$$$
[H]c1c([H])c([H])c(C([H])([H])[C@@]([H])(C(=O)N([H])[H])N([H])C(=O)[C@@]([H])(N([H])C(=O)[C@@]([H])(N([H])C(=O)C([H])([H])N([H])C(=O)[C@@]2([H])N(C(=O)[C@@]([H])(N([H])[H])C([H])([H])c3c([H])n([H])c4c([H])c([H])c([H])c([H])c34)C([H])([H])C([H])([H])C2([H])[H])C([H])([H])c2c([H])c([H])c([H])c([H])c2[H])C([H])([H])C([H])(C([H])([H])[H])C([H])([H])[H])c([H])c1[H]


 65 69  0  0  0  0  0  0  0  0999 V2000
    8.7758   23.0467    2.9997 C   0  0  0  0  0  0  0  0  0  0  0  0
    9.5050   23.1023    1.7124 N   0  0  0  0  0  0  0  0  0  0  0  0
   10.3330   24.1989    1.4135 C   0  0  0  0  0  0  0  0  0  0  0  0
   10.3983   25.0932    2.3475 O   0  0  0  0  0  0  0  0  0  0  0  0
    9.4141   22.3255    1.0368 H   0  0  0  0  0  0  0  0  0  0  0  0
   11.1070   24.4499    0.2241 C   0  0  0  0  0  0  0  0  0  0  0  0
   12.2949   23.6858    0.0280 N   0  0  0  0  0  0  0  0  0  0  0  0
   12.5169   22.8040   -1.0573 C   0  0  0  0  0  0  0  0  0  0  0  0
   11.6198   22.6556   -1.9139 O   0  0  0  0  0  0  0  0  0  0  0  0
   13.1075   23.7451    0.7165 H   0  0  0  0  0  0  0  0  0  0  0  0
   13.7844   22.0316   -1.2411 C   0  0  0  0  0  0  0  0  0  0  0  0
   13.5920   20.5539   -1.1656 C   0  0  0  0  0  0  0  0  0  0  0  0
   13.9137   20.2120    0.2523 C   0  0  0  0  0  0  0  0  0  0  0  0
   14.8175   21.3040    0.7255 C   0  0  0  0  0  0  0  0  0  0  0  0
   14.7413   22.3635   -0.2329 N   0  0  0  0  0  0  0  0  0  0  0  0
   15.4969   23.5913   -0.2129 C   0  0  0  0  0  0  0  0  0  0  0  0
   16.2860   23.8088    0.7670 O   0  0  0  0  0  0  0  0  0  0  0  0
   15.3982   24.6001   -1.2617 C   0  0  0  0  0  0  0  0  0  0  0  0
   14.3489   25.6057   -0.8820 N   0  0  0  0  0  0  0  0  0  0  0  0
   13.4237   25.1170   -0.8065 H   0  0  0  0  0  0  0  0  0  0  0  0
   14.2441   26.2685   -1.7106 H   0  0  0  0  0  0  0  0  0  0  0  0
   16.6425   25.3752   -1.5803 C   0  0  0  0  0  0  0  0  0  0  0  0
   16.5641   26.2977   -2.7088 C   0  0  0  0  0  0  0  0  0  0  0  0
   17.0725   27.6133   -2.7125 C   0  0  0  0  0  0  0  0  0  0  0  0
   16.8924   28.2012   -3.8854 N   0  0  0  0  0  0  0  0  0  0  0  0
   16.2733   27.3066   -4.6728 C   0  0  0  0  0  0  0  0  0  0  0  0
   15.8385   27.3793   -5.9693 C   0  0  0  0  0  0  0  0  0  0  0  0
   15.2049   26.3230   -6.5737 C   0  0  0  0  0  0  0  0  0  0  0  0
   14.9953   25.1609   -5.8763 C   0  0  0  0  0  0  0  0  0  0  0  0
   15.4169   25.0502   -4.5760 C   0  0  0  0  0  0  0  0  0  0  0  0
   16.0567   26.1192   -3.9703 C   0  0  0  0  0  0  0  0  0  0  0  0
   17.1527   29.1603   -4.2050 H   0  0  0  0  0  0  0  0  0  0  0  0
    6.9521   21.3348    3.4109 N   0  0  0  0  0  0  0  0  0  0  0  0
    8.3310   21.6688    3.3258 C   0  0  0  0  0  0  0  0  0  0  0  0
    9.1968   20.7925    3.5314 O   0  0  0  0  0  0  0  0  0  0  0  0
    6.2629   22.1128    3.2408 H   0  0  0  0  0  0  0  0  0  0  0  0
    6.4881   19.9657    3.7258 C   0  0  0  0  0  0  0  0  0  0  0  0
    5.6987   19.4546    2.5812 C   0  0  0  0  0  0  0  0  0  0  0  0
    5.1676   20.3305    1.8681 O   0  0  0  0  0  0  0  0  0  0  0  0
    5.5366   18.0887    2.2780 N   0  0  0  0  0  0  0  0  0  0  0  0
    6.0157   17.3602    2.9387 H   0  0  0  0  0  0  0  0  0  0  0  0
    4.8218   17.5295    1.1947 C   0  0  0  0  0  0  0  0  0  0  0  0
    3.6824   16.6287    1.4919 C   0  0  0  0  0  0  0  0  0  0  0  0
    3.7895   15.2441    1.1114 N   0  0  0  0  0  0  0  0  0  0  0  0
    2.6231   16.9448    2.0478 O   0  0  0  0  0  0  0  0  0  0  0  0
    3.7317   14.5397    1.8513 H   0  0  0  0  0  0  0  0  0  0  0  0
    3.9208   15.0336    0.1081 H   0  0  0  0  0  0  0  0  0  0  0  0
    5.5474   17.1966   -0.0513 C   0  0  0  0  0  0  0  0  0  0  0  0
    5.3531   18.1554   -1.1614 C   0  0  0  0  0  0  0  0  0  0  0  0
    6.2701   19.0905   -1.5748 C   0  0  0  0  0  0  0  0  0  0  0  0
    6.0304   19.9664   -2.6369 C   0  0  0  0  0  0  0  0  0  0  0  0
    4.8152   19.9074   -3.3219 C   0  0  0  0  0  0  0  0  0  0  0  0
    3.8951   18.9845   -2.9228 C   0  0  0  0  0  0  0  0  0  0  0  0
    4.1474   18.1263   -1.8708 C   0  0  0  0  0  0  0  0  0  0  0  0
    5.6353   20.1946    4.9742 C   0  0  0  0  0  0  0  0  0  0  0  0
    7.1620   20.6755    6.8746 C   0  0  0  0  0  0  0  0  0  0  0  0
    6.2138   19.6393    6.2243 C   0  0  0  0  0  0  0  0  0  0  0  0
    7.0896   18.4244    6.0232 C   0  0  0  0  0  0  0  0  0  0  0  0
    7.6388   24.0221    2.8429 C   0  0  0  0  0  0  0  0  0  0  0  0
    7.4168   24.8666    4.0520 C   0  0  0  0  0  0  0  0  0  0  0  0
    8.1870   24.7061    5.1864 C   0  0  0  0  0  0  0  0  0  0  0  0
    7.9754   25.5047    6.2769 C   0  0  0  0  0  0  0  0  0  0  0  0
    7.0074   26.5009    6.3272 C   0  0  0  0  0  0  0  0  0  0  0  0
    6.2517   26.6325    5.1676 C   0  0  0  0  0  0  0  0  0  0  0  0
    6.4483   25.8416    4.0647 C   0  0  0  0  0  0  0  0  0  0  0  0
 56 57  1  0  0  0
 57 58  1  0  0  0
 57 55  1  0  0  0
 55 37  1  0  0  0
 37 33  1  0  0  0
 33 34  1  0  0  0
 34 35  2  0  0  0
 34  1  1  0  0  0
  1 59  1  0  0  0
 59 60  1  0  0  0
 60 61  2  0  0  0
 61 62  1  0  0  0
 62 63  2  0  0  0
 63 64  1  0  0  0
 64 65  2  0  0  0
  1  2  1  0  0  0
  2  3  1  0  0  0
  3  4  2  0  0  0
  3  6  1  0  0  0
  6  7  1  0  0  0
  7  8  1  0  0  0
  8  9  2  0  0  0
  8 11  1  0  0  0
 11 12  1  0  0  0
 12 13  1  0  0  0
 13 14  1  0  0  0
 14 15  1  0  0  0
 15 16  1  0  0  0
 16 17  2  0  0  0
 16 18  1  0  0  0
 18 19  1  0  0  0
 18 22  1  0  0  0
 22 23  1  0  0  0
 23 24  2  0  0  0
 24 25  1  0  0  0
 25 26  1  0  0  0
 26 27  2  0  0  0
 27 28  1  0  0  0
 28 29  2  0  0  0
 29 30  1  0  0  0
 30 31  2  0  0  0
 37 38  1  0  0  0
 38 39  2  0  0  0
 38 40  1  0  0  0
 40 42  1  0  0  0
 42 48  1  0  0  0
 48 49  1  0  0  0
 49 50  2  0  0  0
 50 51  1  0  0  0
 51 52  2  0  0  0
 52 53  1  0  0  0
 53 54  2  0  0  0
 42 43  1  0  0  0
 43 44  1  0  0  0
 43 45  2  0  0  0
 65 60  1  0  0  0
 15 11  1  0  0  0
 31 23  1  0  0  0
 54 49  1  0  0  0
 31 26  1  0  0  0
 33 36  1  0  0  0
  2  5  1  0  0  0
  7 10  1  0  0  0
 19 20  1  0  0  0
 19 21  1  0  0  0
 25 32  1  0  0  0
 40 41  1  0  0  0
 44 46  1  0  0  0
 44 47  1  0  0  0
M  END
> <minimizedAffinity>
-8.75258

> <CNNscore>
0.1325786114

> <CNNaffinity>
7.6229858398

> <CNN_VS>
1.0106449127

> <CNNaffinity_variance>
0.2423224002

$$$$
[H]c1c([H])c([H])c(C([H])([H])[C@@]([H])(C(=O)N([H])[H])N([H])C(=O)[C@@]([H])(N([H])C(=O)[C@@]([H])(N([H])C(=O)C([H])([H])N([H])C(=O)[C@@]2([H])N(C(=O)[C@@]([H])(N([H])[H])C([H])([H])c3c([H])n([H])c4c([H])c([H])c([H])c([H])c34)C([H])([H])C([H])([H])C2([H])[H])C([H])([H])c2c([H])c([H])c([H])c([H])c2[H])C([H])([H])C([H])(C([H])([H])[H])C([H])([H])[H])c([H])c1[H]


 65 69  0  0  0  0  0  0  0  0999 V2000
    6.7240   20.7966   -0.3910 C   0  0  0  0  0  0  0  0  0  0  0  0
    8.1410   21.1929   -0.2263 N   0  0  0  0  0  0  0  0  0  0  0  0
    8.4678   22.4747    0.2504 C   0  0  0  0  0  0  0  0  0  0  0  0
    7.4469   23.2193    0.5331 O   0  0  0  0  0  0  0  0  0  0  0  0
    8.8919   20.5193   -0.4512 H   0  0  0  0  0  0  0  0  0  0  0  0
    9.7693   23.0554    0.4641 C   0  0  0  0  0  0  0  0  0  0  0  0
   10.8748   22.4906   -0.2375 N   0  0  0  0  0  0  0  0  0  0  0  0
   12.2295   22.8443   -0.0272 C   0  0  0  0  0  0  0  0  0  0  0  0
   12.5051   23.7204    0.8196 O   0  0  0  0  0  0  0  0  0  0  0  0
   10.7290   21.7427   -0.9841 H   0  0  0  0  0  0  0  0  0  0  0  0
   13.3664   22.2169   -0.7696 C   0  0  0  0  0  0  0  0  0  0  0  0
   13.0863   20.8181   -1.2068 C   0  0  0  0  0  0  0  0  0  0  0  0
   13.6816   19.9693   -0.1316 C   0  0  0  0  0  0  0  0  0  0  0  0
   14.7446   20.8135    0.4933 C   0  0  0  0  0  0  0  0  0  0  0  0
   14.5410   22.1558    0.0421 N   0  0  0  0  0  0  0  0  0  0  0  0
   15.3715   23.2951    0.3437 C   0  0  0  0  0  0  0  0  0  0  0  0
   16.3682   23.1365    1.1257 O   0  0  0  0  0  0  0  0  0  0  0  0
   15.1225   24.6245   -0.2026 C   0  0  0  0  0  0  0  0  0  0  0  0
   15.0615   25.6172    0.9232 N   0  0  0  0  0  0  0  0  0  0  0  0
   14.2619   25.3647    1.5536 H   0  0  0  0  0  0  0  0  0  0  0  0
   14.7885   26.5537    0.4927 H   0  0  0  0  0  0  0  0  0  0  0  0
   16.1212   25.1531   -1.1895 C   0  0  0  0  0  0  0  0  0  0  0  0
   15.8035   24.9650   -2.6017 C   0  0  0  0  0  0  0  0  0  0  0  0
   15.3338   23.7626   -3.1700 C   0  0  0  0  0  0  0  0  0  0  0  0
   15.0938   23.8980   -4.4653 N   0  0  0  0  0  0  0  0  0  0  0  0
   15.3919   25.1688   -4.7809 C   0  0  0  0  0  0  0  0  0  0  0  0
   15.3442   25.8491   -5.9684 C   0  0  0  0  0  0  0  0  0  0  0  0
   15.7192   27.1659   -6.0563 C   0  0  0  0  0  0  0  0  0  0  0  0
   16.1537   27.8299   -4.9377 C   0  0  0  0  0  0  0  0  0  0  0  0
   16.2150   27.1821   -3.7304 C   0  0  0  0  0  0  0  0  0  0  0  0
   15.8346   25.8527   -3.6466 C   0  0  0  0  0  0  0  0  0  0  0  0
   14.7433   23.2035   -5.1614 H   0  0  0  0  0  0  0  0  0  0  0  0
    6.5449   19.9164    1.9794 N   0  0  0  0  0  0  0  0  0  0  0  0
    6.0214   20.6960    0.9125 C   0  0  0  0  0  0  0  0  0  0  0  0
    4.9451   21.3117    1.0622 O   0  0  0  0  0  0  0  0  0  0  0  0
    7.4488   19.4074    1.7974 H   0  0  0  0  0  0  0  0  0  0  0  0
    5.8648   19.8102    3.2889 C   0  0  0  0  0  0  0  0  0  0  0  0
    6.8047   20.2388    4.3506 C   0  0  0  0  0  0  0  0  0  0  0  0
    6.4384   19.9896    5.5175 O   0  0  0  0  0  0  0  0  0  0  0  0
    8.0356   20.8788    4.1075 N   0  0  0  0  0  0  0  0  0  0  0  0
    8.3071   21.0819    3.0673 H   0  0  0  0  0  0  0  0  0  0  0  0
    8.9906   21.2930    5.0633 C   0  0  0  0  0  0  0  0  0  0  0  0
    9.6900   20.2542    5.8570 C   0  0  0  0  0  0  0  0  0  0  0  0
   10.2248   20.6219    7.1423 N   0  0  0  0  0  0  0  0  0  0  0  0
    9.8665   19.0746    5.5275 O   0  0  0  0  0  0  0  0  0  0  0  0
    9.8719   20.1274    7.9655 H   0  0  0  0  0  0  0  0  0  0  0  0
   10.9384   21.3692    7.1663 H   0  0  0  0  0  0  0  0  0  0  0  0
    8.7799   22.5670    5.7861 C   0  0  0  0  0  0  0  0  0  0  0  0
    8.3836   23.7096    4.9336 C   0  0  0  0  0  0  0  0  0  0  0  0
    7.1625   24.3376    4.9620 C   0  0  0  0  0  0  0  0  0  0  0  0
    6.8491   25.4189    4.1342 C   0  0  0  0  0  0  0  0  0  0  0  0
    7.8008   25.8990    3.2325 C   0  0  0  0  0  0  0  0  0  0  0  0
    9.0174   25.2856    3.1928 C   0  0  0  0  0  0  0  0  0  0  0  0
    9.3112   24.2176    4.0174 C   0  0  0  0  0  0  0  0  0  0  0  0
    5.5359   18.3185    3.3602 C   0  0  0  0  0  0  0  0  0  0  0  0
    3.5821   17.6416    1.9825 C   0  0  0  0  0  0  0  0  0  0  0  0
    5.1258   17.7167    2.0659 C   0  0  0  0  0  0  0  0  0  0  0  0
    5.5681   16.2847    1.8732 C   0  0  0  0  0  0  0  0  0  0  0  0
    6.7714   19.4955   -1.1483 C   0  0  0  0  0  0  0  0  0  0  0  0
    5.5285   19.2213   -1.9256 C   0  0  0  0  0  0  0  0  0  0  0  0
    5.1646   20.0156   -2.9944 C   0  0  0  0  0  0  0  0  0  0  0  0
    4.0287   19.7333   -3.7026 C   0  0  0  0  0  0  0  0  0  0  0  0
    3.1848   18.6673   -3.4140 C   0  0  0  0  0  0  0  0  0  0  0  0
    3.5829   17.8906   -2.3317 C   0  0  0  0  0  0  0  0  0  0  0  0
    4.7177   18.1576   -1.6094 C   0  0  0  0  0  0  0  0  0  0  0  0
 56 57  1  0  0  0
 57 58  1  0  0  0
 57 55  1  0  0  0
 55 37  1  0  0  0
 37 33  1  0  0  0
 33 34  1  0  0  0
 34 35  2  0  0  0
 34  1  1  0  0  0
  1 59  1  0  0  0
 59 60  1  0  0  0
 60 61  2  0  0  0
 61 62  1  0  0  0
 62 63  2  0  0  0
 63 64  1  0  0  0
 64 65  2  0  0  0
  1  2  1  0  0  0
  2  3  1  0  0  0
  3  4  2  0  0  0
  3  6  1  0  0  0
  6  7  1  0  0  0
  7  8  1  0  0  0
  8  9  2  0  0  0
  8 11  1  0  0  0
 11 12  1  0  0  0
 12 13  1  0  0  0
 13 14  1  0  0  0
 14 15  1  0  0  0
 15 16  1  0  0  0
 16 17  2  0  0  0
 16 18  1  0  0  0
 18 19  1  0  0  0
 18 22  1  0  0  0
 22 23  1  0  0  0
 23 24  2  0  0  0
 24 25  1  0  0  0
 25 26  1  0  0  0
 26 27  2  0  0  0
 27 28  1  0  0  0
 28 29  2  0  0  0
 29 30  1  0  0  0
 30 31  2  0  0  0
 37 38  1  0  0  0
 38 39  2  0  0  0
 38 40  1  0  0  0
 40 42  1  0  0  0
 42 48  1  0  0  0
 48 49  1  0  0  0
 49 50  2  0  0  0
 50 51  1  0  0  0
 51 52  2  0  0  0
 52 53  1  0  0  0
 53 54  2  0  0  0
 42 43  1  0  0  0
 43 44  1  0  0  0
 43 45  2  0  0  0
 65 60  1  0  0  0
 15 11  1  0  0  0
 31 23  1  0  0  0
 54 49  1  0  0  0
 31 26  1  0  0  0
 33 36  1  0  0  0
  2  5  1  0  0  0
  7 10  1  0  0  0
 19 20  1  0  0  0
 19 21  1  0  0  0
 25 32  1  0  0  0
 40 41  1  0  0  0
 44 46  1  0  0  0
 44 47  1  0  0  0
M  END
> <minimizedAffinity>
-9.62204

> <CNNscore>
0.1248501837

> <CNNaffinity>
7.9334411621

> <CNN_VS>
0.9904915690

> <CNNaffinity_variance>
0.4315018654

$$$$
[H]c1c([H])c([H])c(C([H])([H])[C@@]([H])(C(=O)N([H])[H])N([H])C(=O)[C@@]([H])(N([H])C(=O)[C@@]([H])(N([H])C(=O)C([H])([H])N([H])C(=O)[C@@]2([H])N(C(=O)[C@@]([H])(N([H])[H])C([H])([H])c3c([H])n([H])c4c([H])c([H])c([H])c([H])c34)C([H])([H])C([H])([H])C2([H])[H])C([H])([H])c2c([H])c([H])c([H])c([H])c2[H])C([H])([H])C([H])(C([H])([H])[H])C([H])([H])[H])c([H])c1[H]


 65 69  0  0  0  0  0  0  0  0999 V2000
    7.2152   21.1232    1.1648 C   0  0  0  0  0  0  0  0  0  0  0  0
    8.6121   21.6042    1.0690 N   0  0  0  0  0  0  0  0  0  0  0  0
    8.9266   22.9368    1.3893 C   0  0  0  0  0  0  0  0  0  0  0  0
    7.9168   23.6490    1.7760 O   0  0  0  0  0  0  0  0  0  0  0  0
    9.3603   20.9536    0.7774 H   0  0  0  0  0  0  0  0  0  0  0  0
   10.2055   23.5995    1.3465 C   0  0  0  0  0  0  0  0  0  0  0  0
   11.2921   22.9126    0.7295 N   0  0  0  0  0  0  0  0  0  0  0  0
   11.8069   23.2071   -0.5562 C   0  0  0  0  0  0  0  0  0  0  0  0
   11.2830   24.1221   -1.2263 O   0  0  0  0  0  0  0  0  0  0  0  0
   11.7912   22.1120    1.2273 H   0  0  0  0  0  0  0  0  0  0  0  0
   12.9614   22.4769   -1.1651 C   0  0  0  0  0  0  0  0  0  0  0  0
   12.5974   21.1280   -1.6888 C   0  0  0  0  0  0  0  0  0  0  0  0
   12.9488   20.1937   -0.5776 C   0  0  0  0  0  0  0  0  0  0  0  0
   14.0002   20.9013    0.2143 C   0  0  0  0  0  0  0  0  0  0  0  0
   14.0021   22.2682   -0.2082 N   0  0  0  0  0  0  0  0  0  0  0  0
   14.8994   23.3022    0.2439 C   0  0  0  0  0  0  0  0  0  0  0  0
   15.7586   23.0168    1.1442 O   0  0  0  0  0  0  0  0  0  0  0  0
   14.8682   24.6634   -0.2792 C   0  0  0  0  0  0  0  0  0  0  0  0
   14.9014   25.6336    0.8672 N   0  0  0  0  0  0  0  0  0  0  0  0
   14.0472   25.4878    1.4584 H   0  0  0  0  0  0  0  0  0  0  0  0
   14.7850   26.6075    0.4492 H   0  0  0  0  0  0  0  0  0  0  0  0
   15.9746   25.0601   -1.2115 C   0  0  0  0  0  0  0  0  0  0  0  0
   15.7350   24.8451   -2.6353 C   0  0  0  0  0  0  0  0  0  0  0  0
   15.3377   23.6203   -3.2108 C   0  0  0  0  0  0  0  0  0  0  0  0
   15.1581   23.7326   -4.5180 N   0  0  0  0  0  0  0  0  0  0  0  0
   15.4260   25.0099   -4.8346 C   0  0  0  0  0  0  0  0  0  0  0  0
   15.4135   25.6749   -6.0316 C   0  0  0  0  0  0  0  0  0  0  0  0
   15.7450   27.0035   -6.1176 C   0  0  0  0  0  0  0  0  0  0  0  0
   16.0989   27.6950   -4.9873 C   0  0  0  0  0  0  0  0  0  0  0  0
   16.1228   27.0632   -3.7704 C   0  0  0  0  0  0  0  0  0  0  0  0
   15.7866   25.7218   -3.6885 C   0  0  0  0  0  0  0  0  0  0  0  0
   14.8681   23.0182   -5.2218 H   0  0  0  0  0  0  0  0  0  0  0  0
    7.4100   20.9511    3.6863 N   0  0  0  0  0  0  0  0  0  0  0  0
    6.9569   20.4222    2.4473 C   0  0  0  0  0  0  0  0  0  0  0  0
    6.3294   19.3426    2.4244 O   0  0  0  0  0  0  0  0  0  0  0  0
    7.9447   21.8576    3.6494 H   0  0  0  0  0  0  0  0  0  0  0  0
    7.1553   20.2726    4.9761 C   0  0  0  0  0  0  0  0  0  0  0  0
    6.3154   21.1535    5.8206 C   0  0  0  0  0  0  0  0  0  0  0  0
    6.7167   21.3070    6.9924 O   0  0  0  0  0  0  0  0  0  0  0  0
    5.1443   21.7963    5.3745 N   0  0  0  0  0  0  0  0  0  0  0  0
    4.8305   21.6229    4.3409 H   0  0  0  0  0  0  0  0  0  0  0  0
    4.3091   22.6658    6.1118 C   0  0  0  0  0  0  0  0  0  0  0  0
    3.2431   22.0730    6.9546 C   0  0  0  0  0  0  0  0  0  0  0  0
    2.8719   20.7015    6.7213 N   0  0  0  0  0  0  0  0  0  0  0  0
    2.6235   22.6425    7.8617 O   0  0  0  0  0  0  0  0  0  0  0  0
    2.9867   20.0380    7.4917 H   0  0  0  0  0  0  0  0  0  0  0  0
    2.5090   20.4579    5.7847 H   0  0  0  0  0  0  0  0  0  0  0  0
    3.9658   23.9882    5.5433 C   0  0  0  0  0  0  0  0  0  0  0  0
    4.6925   25.1310    6.1393 C   0  0  0  0  0  0  0  0  0  0  0  0
    5.3348   25.1197    7.3532 C   0  0  0  0  0  0  0  0  0  0  0  0
    6.0114   26.2320    7.8609 C   0  0  0  0  0  0  0  0  0  0  0  0
    6.0502   27.4156    7.1214 C   0  0  0  0  0  0  0  0  0  0  0  0
    5.4171   27.4420    5.9146 C   0  0  0  0  0  0  0  0  0  0  0  0
    4.7523   26.3340    5.4272 C   0  0  0  0  0  0  0  0  0  0  0  0
    8.5691   20.0972    5.5318 C   0  0  0  0  0  0  0  0  0  0  0  0
   10.6218   20.7231    4.2795 C   0  0  0  0  0  0  0  0  0  0  0  0
    9.4954   21.2154    5.2200 C   0  0  0  0  0  0  0  0  0  0  0  0
   10.2378   21.7653    6.4158 C   0  0  0  0  0  0  0  0  0  0  0  0
    7.0233   20.2478   -0.0458 C   0  0  0  0  0  0  0  0  0  0  0  0
    5.7930   20.5775   -0.8215 C   0  0  0  0  0  0  0  0  0  0  0  0
    4.7534   21.2809   -0.2468 C   0  0  0  0  0  0  0  0  0  0  0  0
    3.6423   21.5861   -0.9843 C   0  0  0  0  0  0  0  0  0  0  0  0
    3.4785   21.2269   -2.3170 C   0  0  0  0  0  0  0  0  0  0  0  0
    4.5449   20.5198   -2.8610 C   0  0  0  0  0  0  0  0  0  0  0  0
    5.6666   20.2041   -2.1381 C   0  0  0  0  0  0  0  0  0  0  0  0
 56 57  1  0  0  0
 57 58  1  0  0  0
 57 55  1  0  0  0
 55 37  1  0  0  0
 37 33  1  0  0  0
 33 34  1  0  0  0
 34 35  2  0  0  0
 34  1  1  0  0  0
  1 59  1  0  0  0
 59 60  1  0  0  0
 60 61  2  0  0  0
 61 62  1  0  0  0
 62 63  2  0  0  0
 63 64  1  0  0  0
 64 65  2  0  0  0
  1  2  1  0  0  0
  2  3  1  0  0  0
  3  4  2  0  0  0
  3  6  1  0  0  0
  6  7  1  0  0  0
  7  8  1  0  0  0
  8  9  2  0  0  0
  8 11  1  0  0  0
 11 12  1  0  0  0
 12 13  1  0  0  0
 13 14  1  0  0  0
 14 15  1  0  0  0
 15 16  1  0  0  0
 16 17  2  0  0  0
 16 18  1  0  0  0
 18 19  1  0  0  0
 18 22  1  0  0  0
 22 23  1  0  0  0
 23 24  2  0  0  0
 24 25  1  0  0  0
 25 26  1  0  0  0
 26 27  2  0  0  0
 27 28  1  0  0  0
 28 29  2  0  0  0
 29 30  1  0  0  0
 30 31  2  0  0  0
 37 38  1  0  0  0
 38 39  2  0  0  0
 38 40  1  0  0  0
 40 42  1  0  0  0
 42 48  1  0  0  0
 48 49  1  0  0  0
 49 50  2  0  0  0
 50 51  1  0  0  0
 51 52  2  0  0  0
 52 53  1  0  0  0
 53 54  2  0  0  0
 42 43  1  0  0  0
 43 44  1  0  0  0
 43 45  2  0  0  0
 65 60  1  0  0  0
 15 11  1  0  0  0
 31 23  1  0  0  0
 54 49  1  0  0  0
 31 26  1  0  0  0
 33 36  1  0  0  0
  2  5  1  0  0  0
  7 10  1  0  0  0
 19 20  1  0  0  0
 19 21  1  0  0  0
 25 32  1  0  0  0
 40 41  1  0  0  0
 44 46  1  0  0  0
 44 47  1  0  0  0
M  END
> <minimizedAffinity>
-7.67383

> <CNNscore>
0.1151848286

> <CNNaffinity>
7.4552087784

> <CNN_VS>
0.8587269187

> <CNNaffinity_variance>
0.3092691004

$$$$
[H]c1c([H])c([H])c(C([H])([H])[C@@]([H])(C(=O)N([H])[H])N([H])C(=O)[C@@]([H])(N([H])C(=O)[C@@]([H])(N([H])C(=O)C([H])([H])N([H])C(=O)[C@@]2([H])N(C(=O)[C@@]([H])(N([H])[H])C([H])([H])c3c([H])n([H])c4c([H])c([H])c([H])c([H])c34)C([H])([H])C([H])([H])C2([H])[H])C([H])([H])c2c([H])c([H])c([H])c([H])c2[H])C([H])([H])C([H])(C([H])([H])[H])C([H])([H])[H])c([H])c1[H]


 65 69  0  0  0  0  0  0  0  0999 V2000
    7.7931   25.5303    3.4506 C   0  0  0  0  0  0  0  0  0  0  0  0
    7.2388   25.1304    4.7639 N   0  0  0  0  0  0  0  0  0  0  0  0
    6.4695   23.9592    4.8817 C   0  0  0  0  0  0  0  0  0  0  0  0
    6.3270   23.2967    3.7784 O   0  0  0  0  0  0  0  0  0  0  0  0
    7.4291   25.7086    5.5991 H   0  0  0  0  0  0  0  0  0  0  0  0
    5.8331   23.4092    6.0518 C   0  0  0  0  0  0  0  0  0  0  0  0
    5.4822   22.0273    6.0327 N   0  0  0  0  0  0  0  0  0  0  0  0
    4.1562   21.5321    5.9978 C   0  0  0  0  0  0  0  0  0  0  0  0
    3.2045   22.3413    5.9950 O   0  0  0  0  0  0  0  0  0  0  0  0
    6.2320   21.2686    6.0425 H   0  0  0  0  0  0  0  0  0  0  0  0
    3.8253   20.0739    5.9598 C   0  0  0  0  0  0  0  0  0  0  0  0
    3.5319   19.4994    7.3052 C   0  0  0  0  0  0  0  0  0  0  0  0
    4.8318   18.9109    7.7465 C   0  0  0  0  0  0  0  0  0  0  0  0
    5.5831   18.6259    6.4865 C   0  0  0  0  0  0  0  0  0  0  0  0
    4.9109   19.3126    5.4266 N   0  0  0  0  0  0  0  0  0  0  0  0
    5.2519   19.2679    4.0264 C   0  0  0  0  0  0  0  0  0  0  0  0
    6.2772   18.5974    3.6670 O   0  0  0  0  0  0  0  0  0  0  0  0
    4.4789   19.9580    2.9999 C   0  0  0  0  0  0  0  0  0  0  0  0
    5.3917   20.8576    2.2162 N   0  0  0  0  0  0  0  0  0  0  0  0
    5.7956   21.5770    2.8642 H   0  0  0  0  0  0  0  0  0  0  0  0
    4.7761   21.4082    1.5418 H   0  0  0  0  0  0  0  0  0  0  0  0
    3.7560   19.1027    2.0017 C   0  0  0  0  0  0  0  0  0  0  0  0
    4.4624   17.9164    1.5278 C   0  0  0  0  0  0  0  0  0  0  0  0
    4.1978   16.5970    1.9503 C   0  0  0  0  0  0  0  0  0  0  0  0
    4.9676   15.7215    1.3222 N   0  0  0  0  0  0  0  0  0  0  0  0
    5.7456   16.4253    0.4837 C   0  0  0  0  0  0  0  0  0  0  0  0
    6.7246   16.0398   -0.3925 C   0  0  0  0  0  0  0  0  0  0  0  0
    7.4102   16.9554   -1.1503 C   0  0  0  0  0  0  0  0  0  0  0  0
    7.1193   18.2910   -1.0388 C   0  0  0  0  0  0  0  0  0  0  0  0
    6.1449   18.7154   -0.1720 C   0  0  0  0  0  0  0  0  0  0  0  0
    5.4550   17.7871    0.5904 C   0  0  0  0  0  0  0  0  0  0  0  0
    5.0151   14.6823    1.4092 H   0  0  0  0  0  0  0  0  0  0  0  0
    9.2578   23.4880    3.1201 N   0  0  0  0  0  0  0  0  0  0  0  0
    9.1113   24.9000    3.1900 C   0  0  0  0  0  0  0  0  0  0  0  0
   10.1075   25.6369    3.0338 O   0  0  0  0  0  0  0  0  0  0  0  0
    8.3893   22.9117    3.2709 H   0  0  0  0  0  0  0  0  0  0  0  0
   10.5608   22.8404    2.8527 C   0  0  0  0  0  0  0  0  0  0  0  0
   10.8675   22.9641    1.4087 C   0  0  0  0  0  0  0  0  0  0  0  0
    9.8734   23.0626    0.6604 O   0  0  0  0  0  0  0  0  0  0  0  0
   12.1706   22.9798    0.8744 N   0  0  0  0  0  0  0  0  0  0  0  0
   13.0080   22.8824    1.5717 H   0  0  0  0  0  0  0  0  0  0  0  0
   12.5396   23.1183   -0.4827 C   0  0  0  0  0  0  0  0  0  0  0  0
   12.1262   22.0616   -1.4370 C   0  0  0  0  0  0  0  0  0  0  0  0
   10.7576   22.0430   -1.8841 N   0  0  0  0  0  0  0  0  0  0  0  0
   12.8485   21.1725   -1.9049 O   0  0  0  0  0  0  0  0  0  0  0  0
   10.5813   22.1464   -2.8866 H   0  0  0  0  0  0  0  0  0  0  0  0
   10.0226   21.9270   -1.1667 H   0  0  0  0  0  0  0  0  0  0  0  0
   13.8288   23.7639   -0.8160 C   0  0  0  0  0  0  0  0  0  0  0  0
   13.8009   24.6299   -2.0154 C   0  0  0  0  0  0  0  0  0  0  0  0
   12.9028   25.6435   -2.2442 C   0  0  0  0  0  0  0  0  0  0  0  0
   12.9315   26.4332   -3.3967 C   0  0  0  0  0  0  0  0  0  0  0  0
   13.9048   26.2013   -4.3706 C   0  0  0  0  0  0  0  0  0  0  0  0
   14.8031   25.1986   -4.1574 C   0  0  0  0  0  0  0  0  0  0  0  0
   14.7607   24.4269   -3.0130 C   0  0  0  0  0  0  0  0  0  0  0  0
   10.2948   21.3955    3.2768 C   0  0  0  0  0  0  0  0  0  0  0  0
   11.5313   19.4072    4.1083 C   0  0  0  0  0  0  0  0  0  0  0  0
   11.1878   20.8964    4.3534 C   0  0  0  0  0  0  0  0  0  0  0  0
   10.5697   20.9023    5.7324 C   0  0  0  0  0  0  0  0  0  0  0  0
    7.8466   27.0349    3.4949 C   0  0  0  0  0  0  0  0  0  0  0  0
    6.5718   27.6819    3.0700 C   0  0  0  0  0  0  0  0  0  0  0  0
    5.4458   27.6331    3.8671 C   0  0  0  0  0  0  0  0  0  0  0  0
    4.2930   28.2492    3.4631 C   0  0  0  0  0  0  0  0  0  0  0  0
    4.1690   28.9453    2.2664 C   0  0  0  0  0  0  0  0  0  0  0  0
    5.3225   28.9724    1.4906 C   0  0  0  0  0  0  0  0  0  0  0  0
    6.4872   28.3608    1.8780 C   0  0  0  0  0  0  0  0  0  0  0  0
 56 57  1  0  0  0
 57 58  1  0  0  0
 57 55  1  0  0  0
 55 37  1  0  0  0
 37 33  1  0  0  0
 33 34  1  0  0  0
 34 35  2  0  0  0
 34  1  1  0  0  0
  1 59  1  0  0  0
 59 60  1  0  0  0
 60 61  2  0  0  0
 61 62  1  0  0  0
 62 63  2  0  0  0
 63 64  1  0  0  0
 64 65  2  0  0  0
  1  2  1  0  0  0
  2  3  1  0  0  0
  3  4  2  0  0  0
  3  6  1  0  0  0
  6  7  1  0  0  0
  7  8  1  0  0  0
  8  9  2  0  0  0
  8 11  1  0  0  0
 11 12  1  0  0  0
 12 13  1  0  0  0
 13 14  1  0  0  0
 14 15  1  0  0  0
 15 16  1  0  0  0
 16 17  2  0  0  0
 16 18  1  0  0  0
 18 19  1  0  0  0
 18 22  1  0  0  0
 22 23  1  0  0  0
 23 24  2  0  0  0
 24 25  1  0  0  0
 25 26  1  0  0  0
 26 27  2  0  0  0
 27 28  1  0  0  0
 28 29  2  0  0  0
 29 30  1  0  0  0
 30 31  2  0  0  0
 37 38  1  0  0  0
 38 39  2  0  0  0
 38 40  1  0  0  0
 40 42  1  0  0  0
 42 48  1  0  0  0
 48 49  1  0  0  0
 49 50  2  0  0  0
 50 51  1  0  0  0
 51 52  2  0  0  0
 52 53  1  0  0  0
 53 54  2  0  0  0
 42 43  1  0  0  0
 43 44  1  0  0  0
 43 45  2  0  0  0
 65 60  1  0  0  0
 15 11  1  0  0  0
 31 23  1  0  0  0
 54 49  1  0  0  0
 31 26  1  0  0  0
 33 36  1  0  0  0
  2  5  1  0  0  0
  7 10  1  0  0  0
 19 20  1  0  0  0
 19 21  1  0  0  0
 25 32  1  0  0  0
 40 41  1  0  0  0
 44 46  1  0  0  0
 44 47  1  0  0  0
M  END
> <minimizedAffinity>
-9.66583

> <CNNscore>
0.1063343510

> <CNNaffinity>
6.8248949051

> <CNN_VS>
0.7257207632

> <CNNaffinity_variance>
1.5386171341

$$$$
[H]c1c([H])c([H])c(C([H])([H])[C@@]([H])(C(=O)N([H])[H])N([H])C(=O)[C@@]([H])(N([H])C(=O)[C@@]([H])(N([H])C(=O)C([H])([H])N([H])C(=O)[C@@]2([H])N(C(=O)[C@@]([H])(N([H])[H])C([H])([H])c3c([H])n([H])c4c([H])c([H])c([H])c([H])c34)C([H])([H])C([H])([H])C2([H])[H])C([H])([H])c2c([H])c([H])c([H])c([H])c2[H])C([H])([H])C([H])(C([H])([H])[H])C([H])([H])[H])c([H])c1[H]


 65 69  0  0  0  0  0  0  0  0999 V2000
    8.7495   22.2468    3.0828 C   0  0  0  0  0  0  0  0  0  0  0  0
    7.4107   21.6192    3.1578 N   0  0  0  0  0  0  0  0  0  0  0  0
    6.5911   21.5590    2.0168 C   0  0  0  0  0  0  0  0  0  0  0  0
    7.1186   22.0666    0.9489 O   0  0  0  0  0  0  0  0  0  0  0  0
    7.0833   21.2129    4.0499 H   0  0  0  0  0  0  0  0  0  0  0  0
    5.2644   21.0120    1.8842 C   0  0  0  0  0  0  0  0  0  0  0  0
    5.1129   19.5978    1.9861 N   0  0  0  0  0  0  0  0  0  0  0  0
    3.9081   18.8958    1.7408 C   0  0  0  0  0  0  0  0  0  0  0  0
    2.8844   19.5371    1.4221 O   0  0  0  0  0  0  0  0  0  0  0  0
    5.9336   18.9747    2.2618 H   0  0  0  0  0  0  0  0  0  0  0  0
    3.7903   17.4080    1.8395 C   0  0  0  0  0  0  0  0  0  0  0  0
    3.1048   16.9509    3.0835 C   0  0  0  0  0  0  0  0  0  0  0  0
    4.2203   16.6490    4.0297 C   0  0  0  0  0  0  0  0  0  0  0  0
    5.4020   16.3535    3.1641 C   0  0  0  0  0  0  0  0  0  0  0  0
    5.0778   16.7878    1.8400 N   0  0  0  0  0  0  0  0  0  0  0  0
    5.9012   16.6410    0.6657 C   0  0  0  0  0  0  0  0  0  0  0  0
    7.0598   16.1193    0.7914 O   0  0  0  0  0  0  0  0  0  0  0  0
    5.4714   17.0652   -0.6620 C   0  0  0  0  0  0  0  0  0  0  0  0
    6.0493   16.1335   -1.6890 N   0  0  0  0  0  0  0  0  0  0  0  0
    7.0959   16.1914   -1.6471 H   0  0  0  0  0  0  0  0  0  0  0  0
    5.7890   16.5293   -2.6442 H   0  0  0  0  0  0  0  0  0  0  0  0
    3.9935   17.1206   -0.9139 C   0  0  0  0  0  0  0  0  0  0  0  0
    3.5556   17.9336   -2.0445 C   0  0  0  0  0  0  0  0  0  0  0  0
    2.9488   17.4296   -3.2137 C   0  0  0  0  0  0  0  0  0  0  0  0
    2.6230   18.4026   -4.0508 N   0  0  0  0  0  0  0  0  0  0  0  0
    2.9977   19.5530   -3.4679 C   0  0  0  0  0  0  0  0  0  0  0  0
    2.9150   20.8552   -3.8831 C   0  0  0  0  0  0  0  0  0  0  0  0
    3.3871   21.8859   -3.1102 C   0  0  0  0  0  0  0  0  0  0  0  0
    3.9572   21.6216   -1.8911 C   0  0  0  0  0  0  0  0  0  0  0  0
    4.0574   20.3300   -1.4412 C   0  0  0  0  0  0  0  0  0  0  0  0
    3.5788   19.2928   -2.2248 C   0  0  0  0  0  0  0  0  0  0  0  0
    2.1660   18.3595   -4.9884 H   0  0  0  0  0  0  0  0  0  0  0  0
   10.4331   21.5558    1.3183 N   0  0  0  0  0  0  0  0  0  0  0  0
    9.7717   21.3106    2.5522 C   0  0  0  0  0  0  0  0  0  0  0  0
   10.0461   20.2862    3.2118 O   0  0  0  0  0  0  0  0  0  0  0  0
   10.1566   22.4272    0.7954 H   0  0  0  0  0  0  0  0  0  0  0  0
   11.4610   20.6400    0.7765 C   0  0  0  0  0  0  0  0  0  0  0  0
   12.5257   21.4449    0.1337 C   0  0  0  0  0  0  0  0  0  0  0  0
   13.3909   20.7882   -0.4811 O   0  0  0  0  0  0  0  0  0  0  0  0
   12.5936   22.8509    0.1817 N   0  0  0  0  0  0  0  0  0  0  0  0
   11.8154   23.3795    0.7402 H   0  0  0  0  0  0  0  0  0  0  0  0
   13.5608   23.6841   -0.4244 C   0  0  0  0  0  0  0  0  0  0  0  0
   14.8209   23.9511    0.3098 C   0  0  0  0  0  0  0  0  0  0  0  0
   15.6086   22.8272    0.7452 N   0  0  0  0  0  0  0  0  0  0  0  0
   15.2824   25.0634    0.5944 O   0  0  0  0  0  0  0  0  0  0  0  0
   16.5641   22.7468    0.3881 H   0  0  0  0  0  0  0  0  0  0  0  0
   15.1661   22.1578    1.3966 H   0  0  0  0  0  0  0  0  0  0  0  0
   13.1113   24.8033   -1.2818 C   0  0  0  0  0  0  0  0  0  0  0  0
   13.8418   24.9413   -2.5611 C   0  0  0  0  0  0  0  0  0  0  0  0
   14.7543   24.0428   -3.0573 C   0  0  0  0  0  0  0  0  0  0  0  0
   15.4086   24.2259   -4.2783 C   0  0  0  0  0  0  0  0  0  0  0  0
   15.1397   25.3620   -5.0441 C   0  0  0  0  0  0  0  0  0  0  0  0
   14.2363   26.2628   -4.5646 C   0  0  0  0  0  0  0  0  0  0  0  0
   13.5986   26.0672   -3.3554 C   0  0  0  0  0  0  0  0  0  0  0  0
   10.6580   19.8145   -0.2295 C   0  0  0  0  0  0  0  0  0  0  0  0
    8.3576   19.5356   -1.1260 C   0  0  0  0  0  0  0  0  0  0  0  0
    9.5055   20.5314   -0.8325 C   0  0  0  0  0  0  0  0  0  0  0  0
    9.7923   21.1587   -2.1770 C   0  0  0  0  0  0  0  0  0  0  0  0
    9.0365   22.7154    4.4852 C   0  0  0  0  0  0  0  0  0  0  0  0
    8.9063   24.1918    4.6507 C   0  0  0  0  0  0  0  0  0  0  0  0
    9.1600   25.0531    3.6021 C   0  0  0  0  0  0  0  0  0  0  0  0
    9.0170   26.4028    3.7740 C   0  0  0  0  0  0  0  0  0  0  0  0
    8.6207   26.9903    4.9697 C   0  0  0  0  0  0  0  0  0  0  0  0
    8.3748   26.0922    6.0022 C   0  0  0  0  0  0  0  0  0  0  0  0
    8.5129   24.7364    5.8496 C   0  0  0  0  0  0  0  0  0  0  0  0
 56 57  1  0  0  0
 57 58  1  0  0  0
 57 55  1  0  0  0
 55 37  1  0  0  0
 37 33  1  0  0  0
 33 34  1  0  0  0
 34 35  2  0  0  0
 34  1  1  0  0  0
  1 59  1  0  0  0
 59 60  1  0  0  0
 60 61  2  0  0  0
 61 62  1  0  0  0
 62 63  2  0  0  0
 63 64  1  0  0  0
 64 65  2  0  0  0
  1  2  1  0  0  0
  2  3  1  0  0  0
  3  4  2  0  0  0
  3  6  1  0  0  0
  6  7  1  0  0  0
  7  8  1  0  0  0
  8  9  2  0  0  0
  8 11  1  0  0  0
 11 12  1  0  0  0
 12 13  1  0  0  0
 13 14  1  0  0  0
 14 15  1  0  0  0
 15 16  1  0  0  0
 16 17  2  0  0  0
 16 18  1  0  0  0
 18 19  1  0  0  0
 18 22  1  0  0  0
 22 23  1  0  0  0
 23 24  2  0  0  0
 24 25  1  0  0  0
 25 26  1  0  0  0
 26 27  2  0  0  0
 27 28  1  0  0  0
 28 29  2  0  0  0
 29 30  1  0  0  0
 30 31  2  0  0  0
 37 38  1  0  0  0
 38 39  2  0  0  0
 38 40  1  0  0  0
 40 42  1  0  0  0
 42 48  1  0  0  0
 48 49  1  0  0  0
 49 50  2  0  0  0
 50 51  1  0  0  0
 51 52  2  0  0  0
 52 53  1  0  0  0
 53 54  2  0  0  0
 42 43  1  0  0  0
 43 44  1  0  0  0
 43 45  2  0  0  0
 65 60  1  0  0  0
 15 11  1  0  0  0
 31 23  1  0  0  0
 54 49  1  0  0  0
 31 26  1  0  0  0
 33 36  1  0  0  0
  2  5  1  0  0  0
  7 10  1  0  0  0
 19 20  1  0  0  0
 19 21  1  0  0  0
 25 32  1  0  0  0
 40 41  1  0  0  0
 44 46  1  0  0  0
 44 47  1  0  0  0
M  END
> <minimizedAffinity>
-8.61498

> <CNNscore>
0.1053796262

> <CNNaffinity>
7.2468652725

> <CNN_VS>
0.7636719346

> <CNNaffinity_variance>
0.7525595427

$$$$
[H]c1c([H])c([H])c(C([H])([H])[C@@]([H])(C(=O)N([H])[H])N([H])C(=O)[C@@]([H])(N([H])C(=O)[C@@]([H])(N([H])C(=O)C([H])([H])N([H])C(=O)[C@@]2([H])N(C(=O)[C@@]([H])(N([H])[H])C([H])([H])c3c([H])n([H])c4c([H])c([H])c([H])c([H])c34)C([H])([H])C([H])([H])C2([H])[H])C([H])([H])c2c([H])c([H])c([H])c([H])c2[H])C([H])([H])C([H])(C([H])([H])[H])C([H])([H])[H])c([H])c1[H]


 65 69  0  0  0  0  0  0  0  0999 V2000
    7.8391   21.7967    4.6408 C   0  0  0  0  0  0  0  0  0  0  0  0
    8.5606   22.1482    3.3967 N   0  0  0  0  0  0  0  0  0  0  0  0
    9.3688   23.2978    3.3467 C   0  0  0  0  0  0  0  0  0  0  0  0
    9.4243   23.9642    4.4553 O   0  0  0  0  0  0  0  0  0  0  0  0
    8.4790   21.5386    2.5661 H   0  0  0  0  0  0  0  0  0  0  0  0
   10.1324   23.8189    2.2412 C   0  0  0  0  0  0  0  0  0  0  0  0
   10.3286   22.9742    1.1092 N   0  0  0  0  0  0  0  0  0  0  0  0
   11.0208   23.3499   -0.0674 C   0  0  0  0  0  0  0  0  0  0  0  0
   11.4941   24.5028   -0.1529 O   0  0  0  0  0  0  0  0  0  0  0  0
    9.9494   21.9772    1.0939 H   0  0  0  0  0  0  0  0  0  0  0  0
   11.2235   22.4302   -1.2294 C   0  0  0  0  0  0  0  0  0  0  0  0
   10.0494   21.5494   -1.4977 C   0  0  0  0  0  0  0  0  0  0  0  0
   10.3735   20.2761   -0.7873 C   0  0  0  0  0  0  0  0  0  0  0  0
   11.8644   20.2479   -0.6898 C   0  0  0  0  0  0  0  0  0  0  0  0
   12.3359   21.5601   -1.0103 N   0  0  0  0  0  0  0  0  0  0  0  0
   13.7135   21.9754   -1.1034 C   0  0  0  0  0  0  0  0  0  0  0  0
   14.6284   21.1268   -0.8333 O   0  0  0  0  0  0  0  0  0  0  0  0
   14.1103   23.3247   -1.4897 C   0  0  0  0  0  0  0  0  0  0  0  0
   14.6987   24.0261   -0.2987 N   0  0  0  0  0  0  0  0  0  0  0  0
   13.9649   24.0991    0.4474 H   0  0  0  0  0  0  0  0  0  0  0  0
   14.8897   25.0317   -0.5974 H   0  0  0  0  0  0  0  0  0  0  0  0
   15.1113   23.4484   -2.6003 C   0  0  0  0  0  0  0  0  0  0  0  0
   15.7393   24.7553   -2.7685 C   0  0  0  0  0  0  0  0  0  0  0  0
   16.6535   25.3337   -1.8635 C   0  0  0  0  0  0  0  0  0  0  0  0
   17.0880   26.5080   -2.2948 N   0  0  0  0  0  0  0  0  0  0  0  0
   16.4850   26.7318   -3.4737 C   0  0  0  0  0  0  0  0  0  0  0  0
   16.5536   27.7832   -4.3483 C   0  0  0  0  0  0  0  0  0  0  0  0
   15.8205   27.8006   -5.5080 C   0  0  0  0  0  0  0  0  0  0  0  0
   14.9959   26.7477   -5.8122 C   0  0  0  0  0  0  0  0  0  0  0  0
   14.9010   25.6767   -4.9609 C   0  0  0  0  0  0  0  0  0  0  0  0
   15.6436   25.6634   -3.7916 C   0  0  0  0  0  0  0  0  0  0  0  0
   17.7614   27.1775   -1.8612 H   0  0  0  0  0  0  0  0  0  0  0  0
    6.6636   19.5693    4.9288 N   0  0  0  0  0  0  0  0  0  0  0  0
    7.8604   20.3354    4.9001 C   0  0  0  0  0  0  0  0  0  0  0  0
    8.9602   19.7782    5.0994 O   0  0  0  0  0  0  0  0  0  0  0  0
    5.7621   20.0892    4.7667 H   0  0  0  0  0  0  0  0  0  0  0  0
    6.6641   18.1108    5.1766 C   0  0  0  0  0  0  0  0  0  0  0  0
    5.5824   17.4908    4.3766 C   0  0  0  0  0  0  0  0  0  0  0  0
    4.7172   16.8788    5.0360 O   0  0  0  0  0  0  0  0  0  0  0  0
    5.4931   17.5655    2.9730 N   0  0  0  0  0  0  0  0  0  0  0  0
    6.2810   18.1068    2.4408 H   0  0  0  0  0  0  0  0  0  0  0  0
    4.4827   17.0224    2.1476 C   0  0  0  0  0  0  0  0  0  0  0  0
    4.4606   15.5556    1.9328 C   0  0  0  0  0  0  0  0  0  0  0  0
    5.6962   14.8958    1.5994 N   0  0  0  0  0  0  0  0  0  0  0  0
    3.4708   14.8174    2.0133 O   0  0  0  0  0  0  0  0  0  0  0  0
    6.0367   14.1701    2.2352 H   0  0  0  0  0  0  0  0  0  0  0  0
    6.1765   15.1913    0.7333 H   0  0  0  0  0  0  0  0  0  0  0  0
    3.9946   17.8103    0.9940 C   0  0  0  0  0  0  0  0  0  0  0  0
    5.0497   18.2848    0.0716 C   0  0  0  0  0  0  0  0  0  0  0  0
    6.0832   17.5221   -0.4149 C   0  0  0  0  0  0  0  0  0  0  0  0
    7.0480   18.0267   -1.2908 C   0  0  0  0  0  0  0  0  0  0  0  0
    6.9794   19.3589   -1.7032 C   0  0  0  0  0  0  0  0  0  0  0  0
    5.9593   20.1282   -1.2286 C   0  0  0  0  0  0  0  0  0  0  0  0
    5.0139   19.6143   -0.3630 C   0  0  0  0  0  0  0  0  0  0  0  0
    6.3988   18.0403    6.6809 C   0  0  0  0  0  0  0  0  0  0  0  0
    8.4038   16.5852    6.4903 C   0  0  0  0  0  0  0  0  0  0  0  0
    7.2659   17.0830    7.4139 C   0  0  0  0  0  0  0  0  0  0  0  0
    6.5705   15.8131    7.8468 C   0  0  0  0  0  0  0  0  0  0  0  0
    6.4515   22.3518    4.4536 C   0  0  0  0  0  0  0  0  0  0  0  0
    6.0792   23.3653    5.4825 C   0  0  0  0  0  0  0  0  0  0  0  0
    5.7633   22.9902    6.7729 C   0  0  0  0  0  0  0  0  0  0  0  0
    5.4416   23.9401    7.7033 C   0  0  0  0  0  0  0  0  0  0  0  0
    5.4088   25.3033    7.4343 C   0  0  0  0  0  0  0  0  0  0  0  0
    5.7319   25.6427    6.1253 C   0  0  0  0  0  0  0  0  0  0  0  0
    6.0566   24.7054    5.1784 C   0  0  0  0  0  0  0  0  0  0  0  0
 56 57  1  0  0  0
 57 58  1  0  0  0
 57 55  1  0  0  0
 55 37  1  0  0  0
 37 33  1  0  0  0
 33 34  1  0  0  0
 34 35  2  0  0  0
 34  1  1  0  0  0
  1 59  1  0  0  0
 59 60  1  0  0  0
 60 61  2  0  0  0
 61 62  1  0  0  0
 62 63  2  0  0  0
 63 64  1  0  0  0
 64 65  2  0  0  0
  1  2  1  0  0  0
  2  3  1  0  0  0
  3  4  2  0  0  0
  3  6  1  0  0  0
  6  7  1  0  0  0
  7  8  1  0  0  0
  8  9  2  0  0  0
  8 11  1  0  0  0
 11 12  1  0  0  0
 12 13  1  0  0  0
 13 14  1  0  0  0
 14 15  1  0  0  0
 15 16  1  0  0  0
 16 17  2  0  0  0
 16 18  1  0  0  0
 18 19  1  0  0  0
 18 22  1  0  0  0
 22 23  1  0  0  0
 23 24  2  0  0  0
 24 25  1  0  0  0
 25 26  1  0  0  0
 26 27  2  0  0  0
 27 28  1  0  0  0
 28 29  2  0  0  0
 29 30  1  0  0  0
 30 31  2  0  0  0
 37 38  1  0  0  0
 38 39  2  0  0  0
 38 40  1  0  0  0
 40 42  1  0  0  0
 42 48  1  0  0  0
 48 49  1  0  0  0
 49 50  2  0  0  0
 50 51  1  0  0  0
 51 52  2  0  0  0
 52 53  1  0  0  0
 53 54  2  0  0  0
 42 43  1  0  0  0
 43 44  1  0  0  0
 43 45  2  0  0  0
 65 60  1  0  0  0
 15 11  1  0  0  0
 31 23  1  0  0  0
 54 49  1  0  0  0
 31 26  1  0  0  0
 33 36  1  0  0  0
  2  5  1  0  0  0
  7 10  1  0  0  0
 19 20  1  0  0  0
 19 21  1  0  0  0
 25 32  1  0  0  0
 40 41  1  0  0  0
 44 46  1  0  0  0
 44 47  1  0  0  0
M  END
> <minimizedAffinity>
-9.40771

> <CNNscore>
0.0879130661

> <CNNaffinity>
7.3658113480

> <CNN_VS>
0.6475510597

> <CNNaffinity_variance>
0.2692239881

$$$$
[H]c1c([H])c([H])c(C([H])([H])[C@@]([H])(C(=O)N([H])[H])N([H])C(=O)[C@@]([H])(N([H])C(=O)[C@@]([H])(N([H])C(=O)C([H])([H])N([H])C(=O)[C@@]2([H])N(C(=O)[C@@]([H])(N([H])[H])C([H])([H])c3c([H])n([H])c4c([H])c([H])c([H])c([H])c34)C([H])([H])C([H])([H])C2([H])[H])C([H])([H])c2c([H])c([H])c([H])c([H])c2[H])C([H])([H])C([H])(C([H])([H])[H])C([H])([H])[H])c([H])c1[H]


 65 69  0  0  0  0  0  0  0  0999 V2000
    6.8161   20.9561   -0.5123 C   0  0  0  0  0  0  0  0  0  0  0  0
    8.2238   21.2415   -0.1531 N   0  0  0  0  0  0  0  0  0  0  0  0
    8.5941   22.5194    0.3022 C   0  0  0  0  0  0  0  0  0  0  0  0
    7.6163   23.3637    0.3871 O   0  0  0  0  0  0  0  0  0  0  0  0
    8.9339   20.4941   -0.2259 H   0  0  0  0  0  0  0  0  0  0  0  0
    9.8980   23.0010    0.6826 C   0  0  0  0  0  0  0  0  0  0  0  0
   11.0375   22.3664    0.1064 N   0  0  0  0  0  0  0  0  0  0  0  0
   12.0986   23.0458   -0.5395 C   0  0  0  0  0  0  0  0  0  0  0  0
   12.0542   24.2904   -0.6370 O   0  0  0  0  0  0  0  0  0  0  0  0
   11.1513   21.3062    0.1366 H   0  0  0  0  0  0  0  0  0  0  0  0
   13.2890   22.3481   -1.1169 C   0  0  0  0  0  0  0  0  0  0  0  0
   12.9852   20.9742   -1.6134 C   0  0  0  0  0  0  0  0  0  0  0  0
   13.3583   20.0802   -0.4765 C   0  0  0  0  0  0  0  0  0  0  0  0
   14.3705   20.8468    0.3116 C   0  0  0  0  0  0  0  0  0  0  0  0
   14.3243   22.2027   -0.1426 N   0  0  0  0  0  0  0  0  0  0  0  0
   15.1742   23.2815    0.2963 C   0  0  0  0  0  0  0  0  0  0  0  0
   16.0319   23.0510    1.2135 O   0  0  0  0  0  0  0  0  0  0  0  0
   15.0964   24.6281   -0.2588 C   0  0  0  0  0  0  0  0  0  0  0  0
   15.1417   25.6273    0.8620 N   0  0  0  0  0  0  0  0  0  0  0  0
   14.3089   25.4777    1.4821 H   0  0  0  0  0  0  0  0  0  0  0  0
   14.9907   26.5876    0.4240 H   0  0  0  0  0  0  0  0  0  0  0  0
   16.1653   25.0255   -1.2337 C   0  0  0  0  0  0  0  0  0  0  0  0
   15.8362   24.8952   -2.6498 C   0  0  0  0  0  0  0  0  0  0  0  0
   15.3584   23.7179   -3.2623 C   0  0  0  0  0  0  0  0  0  0  0  0
   15.1088   23.9059   -4.5492 N   0  0  0  0  0  0  0  0  0  0  0  0
   15.4084   25.1876   -4.8158 C   0  0  0  0  0  0  0  0  0  0  0  0
   15.3536   25.9151   -5.9746 C   0  0  0  0  0  0  0  0  0  0  0  0
   15.7318   27.2334   -6.0124 C   0  0  0  0  0  0  0  0  0  0  0  0
   16.1769   27.8506   -4.8715 C   0  0  0  0  0  0  0  0  0  0  0  0
   16.2456   27.1547   -3.6917 C   0  0  0  0  0  0  0  0  0  0  0  0
   15.8619   25.8241   -3.6584 C   0  0  0  0  0  0  0  0  0  0  0  0
   14.7509   23.2408   -5.2699 H   0  0  0  0  0  0  0  0  0  0  0  0
    6.3545   20.3050    1.8937 N   0  0  0  0  0  0  0  0  0  0  0  0
    5.9358   20.9189    0.6821 C   0  0  0  0  0  0  0  0  0  0  0  0
    4.8027   21.4390    0.6078 O   0  0  0  0  0  0  0  0  0  0  0  0
    7.3139   19.8707    1.8999 H   0  0  0  0  0  0  0  0  0  0  0  0
    5.4959   20.2651    3.0978 C   0  0  0  0  0  0  0  0  0  0  0  0
    6.1021   21.1204    4.1444 C   0  0  0  0  0  0  0  0  0  0  0  0
    5.3363   21.4461    5.0746 O   0  0  0  0  0  0  0  0  0  0  0  0
    7.4422   21.5541    4.1347 N   0  0  0  0  0  0  0  0  0  0  0  0
    8.0703   21.2479    3.2929 H   0  0  0  0  0  0  0  0  0  0  0  0
    8.0941   22.3474    5.1056 C   0  0  0  0  0  0  0  0  0  0  0  0
    8.1453   23.8146    4.8986 C   0  0  0  0  0  0  0  0  0  0  0  0
    7.0177   24.6036    5.3222 N   0  0  0  0  0  0  0  0  0  0  0  0
    9.0765   24.4515    4.3904 O   0  0  0  0  0  0  0  0  0  0  0  0
    7.1786   25.3250    6.0296 H   0  0  0  0  0  0  0  0  0  0  0  0
    6.1019   24.3985    4.8892 H   0  0  0  0  0  0  0  0  0  0  0  0
    9.2691   21.7952    5.8157 C   0  0  0  0  0  0  0  0  0  0  0  0
   10.2184   21.0467    4.9626 C   0  0  0  0  0  0  0  0  0  0  0  0
   10.9473   21.5785    3.9271 C   0  0  0  0  0  0  0  0  0  0  0  0
   11.8352   20.8199    3.1598 C   0  0  0  0  0  0  0  0  0  0  0  0
   12.0056   19.4625    3.4384 C   0  0  0  0  0  0  0  0  0  0  0  0
   11.2888   18.9205    4.4632 C   0  0  0  0  0  0  0  0  0  0  0  0
   10.4150   19.6840    5.2118 C   0  0  0  0  0  0  0  0  0  0  0  0
    5.5222   18.7803    3.4622 C   0  0  0  0  0  0  0  0  0  0  0  0
    3.4490   17.4250    3.2646 C   0  0  0  0  0  0  0  0  0  0  0  0
    4.7348   17.9098    2.5523 C   0  0  0  0  0  0  0  0  0  0  0  0
    5.4311   16.6295    2.1528 C   0  0  0  0  0  0  0  0  0  0  0  0
    6.8649   19.6505   -1.2617 C   0  0  0  0  0  0  0  0  0  0  0  0
    5.5859   19.3212   -1.9544 C   0  0  0  0  0  0  0  0  0  0  0  0
    5.1637   20.0407   -3.0543 C   0  0  0  0  0  0  0  0  0  0  0  0
    3.9950   19.7084   -3.6831 C   0  0  0  0  0  0  0  0  0  0  0  0
    3.1731   18.6622   -3.2808 C   0  0  0  0  0  0  0  0  0  0  0  0
    3.6302   17.9614   -2.1703 C   0  0  0  0  0  0  0  0  0  0  0  0
    4.7984   18.2794   -1.5264 C   0  0  0  0  0  0  0  0  0  0  0  0
 56 57  1  0  0  0
 57 58  1  0  0  0
 57 55  1  0  0  0
 55 37  1  0  0  0
 37 33  1  0  0  0
 33 34  1  0  0  0
 34 35  2  0  0  0
 34  1  1  0  0  0
  1 59  1  0  0  0
 59 60  1  0  0  0
 60 61  2  0  0  0
 61 62  1  0  0  0
 62 63  2  0  0  0
 63 64  1  0  0  0
 64 65  2  0  0  0
  1  2  1  0  0  0
  2  3  1  0  0  0
  3  4  2  0  0  0
  3  6  1  0  0  0
  6  7  1  0  0  0
  7  8  1  0  0  0
  8  9  2  0  0  0
  8 11  1  0  0  0
 11 12  1  0  0  0
 12 13  1  0  0  0
 13 14  1  0  0  0
 14 15  1  0  0  0
 15 16  1  0  0  0
 16 17  2  0  0  0
 16 18  1  0  0  0
 18 19  1  0  0  0
 18 22  1  0  0  0
 22 23  1  0  0  0
 23 24  2  0  0  0
 24 25  1  0  0  0
 25 26  1  0  0  0
 26 27  2  0  0  0
 27 28  1  0  0  0
 28 29  2  0  0  0
 29 30  1  0  0  0
 30 31  2  0  0  0
 37 38  1  0  0  0
 38 39  2  0  0  0
 38 40  1  0  0  0
 40 42  1  0  0  0
 42 48  1  0  0  0
 48 49  1  0  0  0
 49 50  2  0  0  0
 50 51  1  0  0  0
 51 52  2  0  0  0
 52 53  1  0  0  0
 53 54  2  0  0  0
 42 43  1  0  0  0
 43 44  1  0  0  0
 43 45  2  0  0  0
 65 60  1  0  0  0
 15 11  1  0  0  0
 31 23  1  0  0  0
 54 49  1  0  0  0
 31 26  1  0  0  0
 33 36  1  0  0  0
  2  5  1  0  0  0
  7 10  1  0  0  0
 19 20  1  0  0  0
 19 21  1  0  0  0
 25 32  1  0  0  0
 40 41  1  0  0  0
 44 46  1  0  0  0
 44 47  1  0  0  0
M  END
> <minimizedAffinity>
-9.39230

> <CNNscore>
0.0828245655

> <CNNaffinity>
7.6281905174

> <CNN_VS>
0.6318015456

> <CNNaffinity_variance>
0.6545106769

$$$$
[H]C([H])=C([H])C(=O)N1C([H])([H])C([H])([H])C([H])([H])[C@@]([H])(n2c([H])c(-c3c([H])c([H])c(Oc4c([H])c([H])c([H])c([H])c4[H])c([H])c3[H])c3c(N([H])[H])nc([H])nc32)C1([H])[H]


 35 39  0  0  0  0  0  0  0  0999 V2000
   16.9204   24.2326   -1.1647 N   0  0  0  0  0  0  0  0  0  0  0  0
   16.3147   23.5496   -0.0768 C   0  0  0  0  0  0  0  0  0  0  0  0
   17.0452   23.0238    0.9236 N   0  0  0  0  0  0  0  0  0  0  0  0
   16.5189   22.3507    1.9616 C   0  0  0  0  0  0  0  0  0  0  0  0
   15.1837   22.1971    1.9969 N   0  0  0  0  0  0  0  0  0  0  0  0
   14.3607   22.6755    1.0611 C   0  0  0  0  0  0  0  0  0  0  0  0
   13.0118   22.6284    0.8965 N   0  0  0  0  0  0  0  0  0  0  0  0
   12.7325   23.2709   -0.2326 C   0  0  0  0  0  0  0  0  0  0  0  0
   13.9139   23.7502   -0.8227 C   0  0  0  0  0  0  0  0  0  0  0  0
   14.9283   23.3737   -0.0105 C   0  0  0  0  0  0  0  0  0  0  0  0
   16.9550   23.8739   -2.1432 H   0  0  0  0  0  0  0  0  0  0  0  0
   17.3666   25.1593   -0.9903 H   0  0  0  0  0  0  0  0  0  0  0  0
   12.0840   21.9977    1.7878 C   0  0  0  0  0  0  0  0  0  0  0  0
   11.6737   20.6291    1.2145 C   0  0  0  0  0  0  0  0  0  0  0  0
   11.1367   19.8541    2.3573 C   0  0  0  0  0  0  0  0  0  0  0  0
   10.1508   20.6060    3.1828 C   0  0  0  0  0  0  0  0  0  0  0  0
    9.9779   21.9867    2.9370 N   0  0  0  0  0  0  0  0  0  0  0  0
   10.8104   22.7433    1.9655 C   0  0  0  0  0  0  0  0  0  0  0  0
    9.0033   22.7620    3.5900 C   0  0  0  0  0  0  0  0  0  0  0  0
    8.9420   24.0384    3.2744 O   0  0  0  0  0  0  0  0  0  0  0  0
    8.0237   22.4029    4.5768 C   0  0  0  0  0  0  0  0  0  0  0  0
    6.9172   21.7326    4.4877 C   0  0  0  0  0  0  0  0  0  0  0  0
   13.9565   24.5241   -2.0309 C   0  0  0  0  0  0  0  0  0  0  0  0
   14.7258   24.2577   -3.1368 C   0  0  0  0  0  0  0  0  0  0  0  0
   14.6846   25.0570   -4.2534 C   0  0  0  0  0  0  0  0  0  0  0  0
   13.8733   26.1578   -4.3138 C   0  0  0  0  0  0  0  0  0  0  0  0
   13.0924   26.4453   -3.2155 C   0  0  0  0  0  0  0  0  0  0  0  0
   13.1315   25.6488   -2.0995 C   0  0  0  0  0  0  0  0  0  0  0  0
   13.8104   26.9885   -5.4348 O   0  0  0  0  0  0  0  0  0  0  0  0
   14.7726   26.8458   -6.4273 C   0  0  0  0  0  0  0  0  0  0  0  0
   14.5654   25.8139   -7.3338 C   0  0  0  0  0  0  0  0  0  0  0  0
   15.5062   25.6497   -8.3306 C   0  0  0  0  0  0  0  0  0  0  0  0
   16.6192   26.4551   -8.4557 C   0  0  0  0  0  0  0  0  0  0  0  0
   16.7989   27.4737   -7.5392 C   0  0  0  0  0  0  0  0  0  0  0  0
   15.8686   27.6646   -6.5236 C   0  0  0  0  0  0  0  0  0  0  0  0
  1  2  1  0  0  0
  2  3  2  0  0  0
  3  4  1  0  0  0
  4  5  2  0  0  0
  5  6  1  0  0  0
  6  7  1  0  0  0
  7  8  1  0  0  0
  8  9  2  0  0  0
  9 23  1  0  0  0
 23 24  2  0  0  0
 24 25  1  0  0  0
 25 26  2  0  0  0
 26 29  1  0  0  0
 29 30  1  0  0  0
 30 31  2  0  0  0
 31 32  1  0  0  0
 32 33  2  0  0  0
 33 34  1  0  0  0
 34 35  2  0  0  0
 26 27  1  0  0  0
 27 28  2  0  0  0
  9 10  1  0  0  0
  7 13  1  0  0  0
 13 14  1  0  0  0
 14 15  1  0  0  0
 15 16  1  0  0  0
 16 17  1  0  0  0
 17 18  1  0  0  0
 17 19  1  0  0  0
 19 20  2  0  0  0
 19 21  1  0  0  0
 21 22  2  0  0  0
 10  2  1  0  0  0
 18 13  1  0  0  0
 10  6  2  0  0  0
 28 23  1  0  0  0
 35 30  1  0  0  0
  1 11  1  0  0  0
  1 12  1  0  0  0
M  END
> <minimizedAffinity>
1.57983

> <CNNscore>
0.5746813416

> <CNNaffinity>
7.6337151527

> <CNN_VS>
4.3869538307

> <CNNaffinity_variance>
0.5464598536

$$$$
[H]C([H])=C([H])C(=O)N1C([H])([H])C([H])([H])C([H])([H])[C@@]([H])(n2c([H])c(-c3c([H])c([H])c(Oc4c([H])c([H])c([H])c([H])c4[H])c([H])c3[H])c3c(N([H])[H])nc([H])nc32)C1([H])[H]


 35 39  0  0  0  0  0  0  0  0999 V2000
   16.5599   25.6916   -1.8839 N   0  0  0  0  0  0  0  0  0  0  0  0
   16.3254   24.7982   -0.8051 C   0  0  0  0  0  0  0  0  0  0  0  0
   17.3246   24.3664   -0.0140 N   0  0  0  0  0  0  0  0  0  0  0  0
   17.1548   23.5048    1.0041 C   0  0  0  0  0  0  0  0  0  0  0  0
   15.9114   23.0514    1.2408 N   0  0  0  0  0  0  0  0  0  0  0  0
   14.8455   23.4108    0.5222 C   0  0  0  0  0  0  0  0  0  0  0  0
   13.5291   23.0750    0.5791 N   0  0  0  0  0  0  0  0  0  0  0  0
   12.9146   23.7329   -0.3982 C   0  0  0  0  0  0  0  0  0  0  0  0
   13.8381   24.5156   -1.1112 C   0  0  0  0  0  0  0  0  0  0  0  0
   15.0434   24.3090   -0.5324 C   0  0  0  0  0  0  0  0  0  0  0  0
   16.4819   25.4358   -2.8918 H   0  0  0  0  0  0  0  0  0  0  0  0
   16.8300   26.6765   -1.6710 H   0  0  0  0  0  0  0  0  0  0  0  0
   12.9374   22.1766    1.5255 C   0  0  0  0  0  0  0  0  0  0  0  0
   12.8086   20.7790    0.8929 C   0  0  0  0  0  0  0  0  0  0  0  0
   12.6647   19.8326    2.0236 C   0  0  0  0  0  0  0  0  0  0  0  0
   11.6549   20.2534    3.0345 C   0  0  0  0  0  0  0  0  0  0  0  0
   11.1007   21.5496    2.9362 N   0  0  0  0  0  0  0  0  0  0  0  0
   11.5573   22.5479    1.9342 C   0  0  0  0  0  0  0  0  0  0  0  0
   10.0699   22.0047    3.7774 C   0  0  0  0  0  0  0  0  0  0  0  0
    9.6384   23.2334    3.5863 O   0  0  0  0  0  0  0  0  0  0  0  0
    9.3736   21.3493    4.8489 C   0  0  0  0  0  0  0  0  0  0  0  0
    8.5120   20.3802    4.8505 C   0  0  0  0  0  0  0  0  0  0  0  0
   13.4905   25.3805   -2.2028 C   0  0  0  0  0  0  0  0  0  0  0  0
   14.3169   25.7567   -3.2330 C   0  0  0  0  0  0  0  0  0  0  0  0
   13.8822   26.5825   -4.2412 C   0  0  0  0  0  0  0  0  0  0  0  0
   12.6030   27.0689   -4.2641 C   0  0  0  0  0  0  0  0  0  0  0  0
   11.7556   26.7052   -3.2401 C   0  0  0  0  0  0  0  0  0  0  0  0
   12.1869   25.8808   -2.2325 C   0  0  0  0  0  0  0  0  0  0  0  0
   12.1332   27.9098   -5.2754 O   0  0  0  0  0  0  0  0  0  0  0  0
   11.0065   28.6854   -5.0302 C   0  0  0  0  0  0  0  0  0  0  0  0
   11.1766   29.7474   -4.1511 C   0  0  0  0  0  0  0  0  0  0  0  0
   10.0731   30.5346   -3.8897 C   0  0  0  0  0  0  0  0  0  0  0  0
    8.8360   30.3096   -4.4572 C   0  0  0  0  0  0  0  0  0  0  0  0
    8.6970   29.2457   -5.3280 C   0  0  0  0  0  0  0  0  0  0  0  0
    9.7899   28.4343   -5.6116 C   0  0  0  0  0  0  0  0  0  0  0  0
  1  2  1  0  0  0
  2  3  2  0  0  0
  3  4  1  0  0  0
  4  5  2  0  0  0
  5  6  1  0  0  0
  6  7  1  0  0  0
  7  8  1  0  0  0
  8  9  2  0  0  0
  9 23  1  0  0  0
 23 24  2  0  0  0
 24 25  1  0  0  0
 25 26  2  0  0  0
 26 29  1  0  0  0
 29 30  1  0  0  0
 30 31  2  0  0  0
 31 32  1  0  0  0
 32 33  2  0  0  0
 33 34  1  0  0  0
 34 35  2  0  0  0
 26 27  1  0  0  0
 27 28  2  0  0  0
  9 10  1  0  0  0
  7 13  1  0  0  0
 13 14  1  0  0  0
 14 15  1  0  0  0
 15 16  1  0  0  0
 16 17  1  0  0  0
 17 18  1  0  0  0
 17 19  1  0  0  0
 19 20  2  0  0  0
 19 21  1  0  0  0
 21 22  2  0  0  0
 10  2  1  0  0  0
 18 13  1  0  0  0
 10  6  2  0  0  0
 28 23  1  0  0  0
 35 30  1  0  0  0
  1 11  1  0  0  0
  1 12  1  0  0  0
M  END
> <minimizedAffinity>
9.18985

> <CNNscore>
0.5287918448

> <CNNaffinity>
7.3888411522

> <CNN_VS>
3.9071588516

> <CNNaffinity_variance>
0.5469626188

$$$$
[H]C([H])=C([H])C(=O)N1C([H])([H])C([H])([H])C([H])([H])[C@@]([H])(n2c([H])c(-c3c([H])c([H])c(Oc4c([H])c([H])c([H])c([H])c4[H])c([H])c3[H])c3c(N([H])[H])nc([H])nc32)C1([H])[H]


 35 39  0  0  0  0  0  0  0  0999 V2000
   15.5642   27.9201   -4.1839 N   0  0  0  0  0  0  0  0  0  0  0  0
   15.9195   26.8231   -3.3549 C   0  0  0  0  0  0  0  0  0  0  0  0
   17.2034   26.4716   -3.1579 N   0  0  0  0  0  0  0  0  0  0  0  0
   17.5867   25.4291   -2.4005 C   0  0  0  0  0  0  0  0  0  0  0  0
   16.6265   24.6984   -1.8074 N   0  0  0  0  0  0  0  0  0  0  0  0
   15.3222   24.9539   -1.9314 C   0  0  0  0  0  0  0  0  0  0  0  0
   14.2059   24.3532   -1.4396 N   0  0  0  0  0  0  0  0  0  0  0  0
   13.1608   25.0332   -1.8988 C   0  0  0  0  0  0  0  0  0  0  0  0
   13.5925   26.0994   -2.7054 C   0  0  0  0  0  0  0  0  0  0  0  0
   14.9441   26.0438   -2.7233 C   0  0  0  0  0  0  0  0  0  0  0  0
   15.0864   27.8340   -5.1068 H   0  0  0  0  0  0  0  0  0  0  0  0
   15.7897   28.8865   -3.8624 H   0  0  0  0  0  0  0  0  0  0  0  0
   14.1848   23.2021   -0.5867 C   0  0  0  0  0  0  0  0  0  0  0  0
   14.4103   21.9351   -1.4317 C   0  0  0  0  0  0  0  0  0  0  0  0
   14.8549   20.8876   -0.4831 C   0  0  0  0  0  0  0  0  0  0  0  0
   14.0113   20.7878    0.7405 C   0  0  0  0  0  0  0  0  0  0  0  0
   13.0367   21.7844    0.9717 N   0  0  0  0  0  0  0  0  0  0  0  0
   12.8877   22.9830    0.1054 C   0  0  0  0  0  0  0  0  0  0  0  0
   12.1245   21.7266    2.0403 C   0  0  0  0  0  0  0  0  0  0  0  0
   11.2647   22.7172    2.1490 O   0  0  0  0  0  0  0  0  0  0  0  0
   11.9518   20.7466    3.0758 C   0  0  0  0  0  0  0  0  0  0  0  0
   11.6975   19.4761    3.0252 C   0  0  0  0  0  0  0  0  0  0  0  0
   12.7139   27.0530   -3.3213 C   0  0  0  0  0  0  0  0  0  0  0  0
   12.7408   28.4140   -3.1402 C   0  0  0  0  0  0  0  0  0  0  0  0
   11.8602   29.2452   -3.7890 C   0  0  0  0  0  0  0  0  0  0  0  0
   10.9140   28.7531   -4.6469 C   0  0  0  0  0  0  0  0  0  0  0  0
   10.8678   27.3901   -4.8441 C   0  0  0  0  0  0  0  0  0  0  0  0
   11.7458   26.5580   -4.1977 C   0  0  0  0  0  0  0  0  0  0  0  0
   10.0060   29.5733   -5.3202 O   0  0  0  0  0  0  0  0  0  0  0  0
    8.6457   29.3562   -5.1369 C   0  0  0  0  0  0  0  0  0  0  0  0
    8.0712   29.9804   -4.0369 C   0  0  0  0  0  0  0  0  0  0  0  0
    6.7207   29.7815   -3.8311 C   0  0  0  0  0  0  0  0  0  0  0  0
    5.9393   29.0030   -4.6596 C   0  0  0  0  0  0  0  0  0  0  0  0
    6.5385   28.3945   -5.7461 C   0  0  0  0  0  0  0  0  0  0  0  0
    7.8970   28.5756   -5.9802 C   0  0  0  0  0  0  0  0  0  0  0  0
  1  2  1  0  0  0
  2  3  2  0  0  0
  3  4  1  0  0  0
  4  5  2  0  0  0
  5  6  1  0  0  0
  6  7  1  0  0  0
  7  8  1  0  0  0
  8  9  2  0  0  0
  9 23  1  0  0  0
 23 24  2  0  0  0
 24 25  1  0  0  0
 25 26  2  0  0  0
 26 29  1  0  0  0
 29 30  1  0  0  0
 30 31  2  0  0  0
 31 32  1  0  0  0
 32 33  2  0  0  0
 33 34  1  0  0  0
 34 35  2  0  0  0
 26 27  1  0  0  0
 27 28  2  0  0  0
  9 10  1  0  0  0
  7 13  1  0  0  0
 13 14  1  0  0  0
 14 15  1  0  0  0
 15 16  1  0  0  0
 16 17  1  0  0  0
 17 18  1  0  0  0
 17 19  1  0  0  0
 19 20  2  0  0  0
 19 21  1  0  0  0
 21 22  2  0  0  0
 10  2  1  0  0  0
 18 13  1  0  0  0
 10  6  2  0  0  0
 28 23  1  0  0  0
 35 30  1  0  0  0
  1 11  1  0  0  0
  1 12  1  0  0  0
M  END
> <minimizedAffinity>
12.62738

> <CNNscore>
0.5175731778

> <CNNaffinity>
7.3960251808

> <CNN_VS>
3.8279843330

> <CNNaffinity_variance>
0.8979578018

$$$$
[H]C([H])=C([H])C(=O)N1C([H])([H])C([H])([H])C([H])([H])[C@@]([H])(n2c([H])c(-c3c([H])c([H])c(Oc4c([H])c([H])c([H])c([H])c4[H])c([H])c3[H])c3c(N([H])[H])nc([H])nc32)C1([H])[H]


 35 39  0  0  0  0  0  0  0  0999 V2000
   13.2464   27.5504   -4.9636 N   0  0  0  0  0  0  0  0  0  0  0  0
   12.4077   26.7338   -4.1595 C   0  0  0  0  0  0  0  0  0  0  0  0
   11.0932   26.6013   -4.4154 N   0  0  0  0  0  0  0  0  0  0  0  0
   10.2564   25.8581   -3.6705 C   0  0  0  0  0  0  0  0  0  0  0  0
   10.7686   25.2114   -2.6089 N   0  0  0  0  0  0  0  0  0  0  0  0
   12.0558   25.2693   -2.2599 C   0  0  0  0  0  0  0  0  0  0  0  0
   12.7696   24.7166   -1.2432 N   0  0  0  0  0  0  0  0  0  0  0  0
   14.0266   25.1254   -1.3798 C   0  0  0  0  0  0  0  0  0  0  0  0
   14.1454   25.9601   -2.5036 C   0  0  0  0  0  0  0  0  0  0  0  0
   12.9103   26.0476   -3.0487 C   0  0  0  0  0  0  0  0  0  0  0  0
   13.6769   28.4467   -4.6495 H   0  0  0  0  0  0  0  0  0  0  0  0
   13.4569   27.2472   -5.9393 H   0  0  0  0  0  0  0  0  0  0  0  0
   12.2432   23.8563   -0.2255 C   0  0  0  0  0  0  0  0  0  0  0  0
   11.6540   24.7104    0.9118 C   0  0  0  0  0  0  0  0  0  0  0  0
   10.7293   23.8201    1.6516 C   0  0  0  0  0  0  0  0  0  0  0  0
   11.3138   22.4918    1.9869 C   0  0  0  0  0  0  0  0  0  0  0  0
   12.5601   22.1403    1.4212 N   0  0  0  0  0  0  0  0  0  0  0  0
   13.2620   22.9911    0.4249 C   0  0  0  0  0  0  0  0  0  0  0  0
   13.2424   20.9565    1.7533 C   0  0  0  0  0  0  0  0  0  0  0  0
   14.3962   20.7420    1.1574 O   0  0  0  0  0  0  0  0  0  0  0  0
   12.8981   19.8965    2.6591 C   0  0  0  0  0  0  0  0  0  0  0  0
   11.9386   19.0245    2.6393 C   0  0  0  0  0  0  0  0  0  0  0  0
   15.3806   26.5359   -2.9546 C   0  0  0  0  0  0  0  0  0  0  0  0
   15.7845   26.6657   -4.2607 C   0  0  0  0  0  0  0  0  0  0  0  0
   16.9857   27.2456   -4.5896 C   0  0  0  0  0  0  0  0  0  0  0  0
   17.8361   27.7207   -3.6281 C   0  0  0  0  0  0  0  0  0  0  0  0
   17.4521   27.6009   -2.3102 C   0  0  0  0  0  0  0  0  0  0  0  0
   16.2534   27.0226   -1.9790 C   0  0  0  0  0  0  0  0  0  0  0  0
   19.0630   28.3147   -3.9324 O   0  0  0  0  0  0  0  0  0  0  0  0
   20.2214   27.5569   -3.8091 C   0  0  0  0  0  0  0  0  0  0  0  0
   20.4533   26.9960   -2.5596 C   0  0  0  0  0  0  0  0  0  0  0  0
   21.5972   26.2380   -2.4094 C   0  0  0  0  0  0  0  0  0  0  0  0
   22.4976   26.0226   -3.4322 C   0  0  0  0  0  0  0  0  0  0  0  0
   22.2404   26.5932   -4.6642 C   0  0  0  0  0  0  0  0  0  0  0  0
   21.0964   27.3621   -4.8471 C   0  0  0  0  0  0  0  0  0  0  0  0
  1  2  1  0  0  0
  2  3  2  0  0  0
  3  4  1  0  0  0
  4  5  2  0  0  0
  5  6  1  0  0  0
  6  7  1  0  0  0
  7  8  1  0  0  0
  8  9  2  0  0  0
  9 23  1  0  0  0
 23 24  2  0  0  0
 24 25  1  0  0  0
 25 26  2  0  0  0
 26 29  1  0  0  0
 29 30  1  0  0  0
 30 31  2  0  0  0
 31 32  1  0  0  0
 32 33  2  0  0  0
 33 34  1  0  0  0
 34 35  2  0  0  0
 26 27  1  0  0  0
 27 28  2  0  0  0
  9 10  1  0  0  0
  7 13  1  0  0  0
 13 14  1  0  0  0
 14 15  1  0  0  0
 15 16  1  0  0  0
 16 17  1  0  0  0
 17 18  1  0  0  0
 17 19  1  0  0  0
 19 20  2  0  0  0
 19 21  1  0  0  0
 21 22  2  0  0  0
 10  2  1  0  0  0
 18 13  1  0  0  0
 10  6  2  0  0  0
 28 23  1  0  0  0
 35 30  1  0  0  0
  1 11  1  0  0  0
  1 12  1  0  0  0
M  END
> <minimizedAffinity>
30.48920

> <CNNscore>
0.4786638916

> <CNNaffinity>
7.1856865883

> <CNN_VS>
3.4395287037

> <CNNaffinity_variance>
1.7276958227

$$$$
[H]C([H])=C([H])C(=O)N1C([H])([H])C([H])([H])C([H])([H])[C@@]([H])(n2c([H])c(-c3c([H])c([H])c(Oc4c([H])c([H])c([H])c([H])c4[H])c([H])c3[H])c3c(N([H])[H])nc([H])nc32)C1([H])[H]


 35 39  0  0  0  0  0  0  0  0999 V2000
   14.8310   29.5412   -4.9601 N   0  0  0  0  0  0  0  0  0  0  0  0
   15.5182   28.4008   -4.4661 C   0  0  0  0  0  0  0  0  0  0  0  0
   16.8623   28.3387   -4.4447 N   0  0  0  0  0  0  0  0  0  0  0  0
   17.5559   27.2733   -4.0074 C   0  0  0  0  0  0  0  0  0  0  0  0
   16.8606   26.2104   -3.5667 N   0  0  0  0  0  0  0  0  0  0  0  0
   15.5269   26.1598   -3.5414 C   0  0  0  0  0  0  0  0  0  0  0  0
   14.6394   25.2047   -3.1554 N   0  0  0  0  0  0  0  0  0  0  0  0
   13.4219   25.6963   -3.3591 C   0  0  0  0  0  0  0  0  0  0  0  0
   13.5056   26.9956   -3.8869 C   0  0  0  0  0  0  0  0  0  0  0  0
   14.8236   27.2792   -4.0001 C   0  0  0  0  0  0  0  0  0  0  0  0
   14.2770   29.5617   -5.8433 H   0  0  0  0  0  0  0  0  0  0  0  0
   14.8730   30.4289   -4.4137 H   0  0  0  0  0  0  0  0  0  0  0  0
   14.9774   23.9154   -2.6297 C   0  0  0  0  0  0  0  0  0  0  0  0
   14.7792   22.8493   -3.7226 C   0  0  0  0  0  0  0  0  0  0  0  0
   15.5787   21.6770   -3.2968 C   0  0  0  0  0  0  0  0  0  0  0  0
   15.3652   21.2886   -1.8748 C   0  0  0  0  0  0  0  0  0  0  0  0
   14.6144   22.1511   -1.0447 N   0  0  0  0  0  0  0  0  0  0  0  0
   14.1191   23.4772   -1.4979 C   0  0  0  0  0  0  0  0  0  0  0  0
   14.2715   21.8280    0.2802 C   0  0  0  0  0  0  0  0  0  0  0  0
   13.5689   22.7159    0.9513 O   0  0  0  0  0  0  0  0  0  0  0  0
   14.5581   20.6610    1.0666 C   0  0  0  0  0  0  0  0  0  0  0  0
   15.5616   19.8398    1.0548 C   0  0  0  0  0  0  0  0  0  0  0  0
   12.3696   27.8224   -4.1810 C   0  0  0  0  0  0  0  0  0  0  0  0
   11.3746   27.5403   -5.0844 C   0  0  0  0  0  0  0  0  0  0  0  0
   10.3184   28.3957   -5.2841 C   0  0  0  0  0  0  0  0  0  0  0  0
   10.2101   29.5705   -4.5902 C   0  0  0  0  0  0  0  0  0  0  0  0
   11.1972   29.8750   -3.6782 C   0  0  0  0  0  0  0  0  0  0  0  0
   12.2528   29.0227   -3.4769 C   0  0  0  0  0  0  0  0  0  0  0  0
    9.1482   30.4594   -4.7719 O   0  0  0  0  0  0  0  0  0  0  0  0
    7.9166   30.1543   -4.2052 C   0  0  0  0  0  0  0  0  0  0  0  0
    7.1066   29.2925   -4.9337 C   0  0  0  0  0  0  0  0  0  0  0  0
    5.8772   28.9725   -4.3936 C   0  0  0  0  0  0  0  0  0  0  0  0
    5.4344   29.4666   -3.1841 C   0  0  0  0  0  0  0  0  0  0  0  0
    6.2619   30.3219   -2.4817 C   0  0  0  0  0  0  0  0  0  0  0  0
    7.5064   30.6632   -2.9994 C   0  0  0  0  0  0  0  0  0  0  0  0
  1  2  1  0  0  0
  2  3  2  0  0  0
  3  4  1  0  0  0
  4  5  2  0  0  0
  5  6  1  0  0  0
  6  7  1  0  0  0
  7  8  1  0  0  0
  8  9  2  0  0  0
  9 23  1  0  0  0
 23 24  2  0  0  0
 24 25  1  0  0  0
 25 26  2  0  0  0
 26 29  1  0  0  0
 29 30  1  0  0  0
 30 31  2  0  0  0
 31 32  1  0  0  0
 32 33  2  0  0  0
 33 34  1  0  0  0
 34 35  2  0  0  0
 26 27  1  0  0  0
 27 28  2  0  0  0
  9 10  1  0  0  0
  7 13  1  0  0  0
 13 14  1  0  0  0
 14 15  1  0  0  0
 15 16  1  0  0  0
 16 17  1  0  0  0
 17 18  1  0  0  0
 17 19  1  0  0  0
 19 20  2  0  0  0
 19 21  1  0  0  0
 21 22  2  0  0  0
 10  2  1  0  0  0
 18 13  1  0  0  0
 10  6  2  0  0  0
 28 23  1  0  0  0
 35 30  1  0  0  0
  1 11  1  0  0  0
  1 12  1  0  0  0
M  END
> <minimizedAffinity>
16.97347

> <CNNscore>
0.4559789896

> <CNNaffinity>
7.0255150795

> <CNN_VS>
3.2034871578

> <CNNaffinity_variance>
0.7486149669

$$$$
[H]C([H])=C([H])C(=O)N1C([H])([H])C([H])([H])C([H])([H])[C@@]([H])(n2c([H])c(-c3c([H])c([H])c(Oc4c([H])c([H])c([H])c([H])c4[H])c([H])c3[H])c3c(N([H])[H])nc([H])nc32)C1([H])[H]


 35 39  0  0  0  0  0  0  0  0999 V2000
   15.5997   25.3787   -1.0432 N   0  0  0  0  0  0  0  0  0  0  0  0
   14.7896   24.7654   -0.0510 C   0  0  0  0  0  0  0  0  0  0  0  0
   14.7571   25.2188    1.2156 N   0  0  0  0  0  0  0  0  0  0  0  0
   14.0237   24.6585    2.1931 C   0  0  0  0  0  0  0  0  0  0  0  0
   13.2811   23.5820    1.8810 N   0  0  0  0  0  0  0  0  0  0  0  0
   13.2353   23.0460    0.6594 C   0  0  0  0  0  0  0  0  0  0  0  0
   12.5762   21.9778    0.1365 N   0  0  0  0  0  0  0  0  0  0  0  0
   12.9121   21.9004   -1.1469 C   0  0  0  0  0  0  0  0  0  0  0  0
   13.8058   22.9328   -1.4772 C   0  0  0  0  0  0  0  0  0  0  0  0
   14.0052   23.6446   -0.3441 C   0  0  0  0  0  0  0  0  0  0  0  0
   16.4456   24.9425   -1.4693 H   0  0  0  0  0  0  0  0  0  0  0  0
   15.3450   26.3323   -1.3809 H   0  0  0  0  0  0  0  0  0  0  0  0
   11.6896   21.1112    0.8546 C   0  0  0  0  0  0  0  0  0  0  0  0
   10.5584   20.6474   -0.0810 C   0  0  0  0  0  0  0  0  0  0  0  0
    9.9918   19.4274    0.5398 C   0  0  0  0  0  0  0  0  0  0  0  0
    9.7003   19.5728    1.9933 C   0  0  0  0  0  0  0  0  0  0  0  0
   10.1563   20.7318    2.6607 N   0  0  0  0  0  0  0  0  0  0  0  0
   11.0039   21.7603    2.0027 C   0  0  0  0  0  0  0  0  0  0  0  0
    9.8465   21.0110    4.0036 C   0  0  0  0  0  0  0  0  0  0  0  0
   10.3317   22.1238    4.5121 O   0  0  0  0  0  0  0  0  0  0  0  0
    9.0670   20.2760    4.9600 C   0  0  0  0  0  0  0  0  0  0  0  0
    9.2988   19.1660    5.5890 C   0  0  0  0  0  0  0  0  0  0  0  0
   14.3287   23.1570   -2.7951 C   0  0  0  0  0  0  0  0  0  0  0  0
   14.7963   22.1943   -3.6556 C   0  0  0  0  0  0  0  0  0  0  0  0
   15.2666   22.5125   -4.9066 C   0  0  0  0  0  0  0  0  0  0  0  0
   15.2907   23.8063   -5.3525 C   0  0  0  0  0  0  0  0  0  0  0  0
   14.8268   24.7897   -4.5059 C   0  0  0  0  0  0  0  0  0  0  0  0
   14.3566   24.4748   -3.2566 C   0  0  0  0  0  0  0  0  0  0  0  0
   15.7629   24.1597   -6.6185 O   0  0  0  0  0  0  0  0  0  0  0  0
   15.9707   25.5039   -6.9032 C   0  0  0  0  0  0  0  0  0  0  0  0
   15.7737   26.3881   -5.8500 C   0  0  0  0  0  0  0  0  0  0  0  0
   15.9734   27.7299   -6.1053 C   0  0  0  0  0  0  0  0  0  0  0  0
   16.3529   28.2132   -7.3405 C   0  0  0  0  0  0  0  0  0  0  0  0
   16.5414   27.3099   -8.3692 C   0  0  0  0  0  0  0  0  0  0  0  0
   16.3481   25.9516   -8.1434 C   0  0  0  0  0  0  0  0  0  0  0  0
  1  2  1  0  0  0
  2  3  2  0  0  0
  3  4  1  0  0  0
  4  5  2  0  0  0
  5  6  1  0  0  0
  6  7  1  0  0  0
  7  8  1  0  0  0
  8  9  2  0  0  0
  9 23  1  0  0  0
 23 24  2  0  0  0
 24 25  1  0  0  0
 25 26  2  0  0  0
 26 29  1  0  0  0
 29 30  1  0  0  0
 30 31  2  0  0  0
 31 32  1  0  0  0
 32 33  2  0  0  0
 33 34  1  0  0  0
 34 35  2  0  0  0
 26 27  1  0  0  0
 27 28  2  0  0  0
  9 10  1  0  0  0
  7 13  1  0  0  0
 13 14  1  0  0  0
 14 15  1  0  0  0
 15 16  1  0  0  0
 16 17  1  0  0  0
 17 18  1  0  0  0
 17 19  1  0  0  0
 19 20  2  0  0  0
 19 21  1  0  0  0
 21 22  2  0  0  0
 10  2  1  0  0  0
 18 13  1  0  0  0
 10  6  2  0  0  0
 28 23  1  0  0  0
 35 30  1  0  0  0
  1 11  1  0  0  0
  1 12  1  0  0  0
M  END
> <minimizedAffinity>
10.63726

> <CNNscore>
0.4465612173

> <CNNaffinity>
7.3667502403

> <CNN_VS>
3.2897050381

> <CNNaffinity_variance>
1.1655567884

$$$$
[H]C([H])=C([H])C(=O)N1C([H])([H])C([H])([H])C([H])([H])[C@@]([H])(n2c([H])c(-c3c([H])c([H])c(Oc4c([H])c([H])c([H])c([H])c4[H])c([H])c3[H])c3c(N([H])[H])nc([H])nc32)C1([H])[H]


 35 39  0  0  0  0  0  0  0  0999 V2000
   15.7139   22.3281   -4.6572 N   0  0  0  0  0  0  0  0  0  0  0  0
   15.5996   23.6145   -5.2480 C   0  0  0  0  0  0  0  0  0  0  0  0
   16.0817   23.8740   -6.4772 N   0  0  0  0  0  0  0  0  0  0  0  0
   16.0164   25.0799   -7.0681 C   0  0  0  0  0  0  0  0  0  0  0  0
   15.4341   26.0815   -6.3860 N   0  0  0  0  0  0  0  0  0  0  0  0
   14.9214   25.9404   -5.1616 C   0  0  0  0  0  0  0  0  0  0  0  0
   14.3103   26.8008   -4.3043 N   0  0  0  0  0  0  0  0  0  0  0  0
   14.0103   26.1134   -3.2074 C   0  0  0  0  0  0  0  0  0  0  0  0
   14.4286   24.7790   -3.3418 C   0  0  0  0  0  0  0  0  0  0  0  0
   14.9987   24.6772   -4.5645 C   0  0  0  0  0  0  0  0  0  0  0  0
   16.3250   22.1031   -3.8427 H   0  0  0  0  0  0  0  0  0  0  0  0
   15.1543   21.5418   -5.0532 H   0  0  0  0  0  0  0  0  0  0  0  0
   14.0492   28.1865   -4.5579 C   0  0  0  0  0  0  0  0  0  0  0  0
   15.2210   29.0332   -4.0286 C   0  0  0  0  0  0  0  0  0  0  0  0
   15.1312   30.3351   -4.7299 C   0  0  0  0  0  0  0  0  0  0  0  0
   13.7645   30.9272   -4.7249 C   0  0  0  0  0  0  0  0  0  0  0  0
   12.6892   30.1399   -4.2551 N   0  0  0  0  0  0  0  0  0  0  0  0
   12.8439   28.7137   -3.8659 C   0  0  0  0  0  0  0  0  0  0  0  0
   11.3820   30.6387   -4.1152 C   0  0  0  0  0  0  0  0  0  0  0  0
   10.4669   29.8054   -3.6673 O   0  0  0  0  0  0  0  0  0  0  0  0
   10.8405   31.9419   -4.3816 C   0  0  0  0  0  0  0  0  0  0  0  0
   10.1083   32.3878   -5.3545 C   0  0  0  0  0  0  0  0  0  0  0  0
   14.2162   23.7625   -2.3507 C   0  0  0  0  0  0  0  0  0  0  0  0
   14.2318   22.4062   -2.5653 C   0  0  0  0  0  0  0  0  0  0  0  0
   14.0287   21.5121   -1.5422 C   0  0  0  0  0  0  0  0  0  0  0  0
   13.8010   21.9338   -0.2601 C   0  0  0  0  0  0  0  0  0  0  0  0
   13.7805   23.2907   -0.0209 C   0  0  0  0  0  0  0  0  0  0  0  0
   13.9830   24.1855   -1.0404 C   0  0  0  0  0  0  0  0  0  0  0  0
   13.5914   21.0486    0.7996 O   0  0  0  0  0  0  0  0  0  0  0  0
   12.3576   21.0518    1.4392 C   0  0  0  0  0  0  0  0  0  0  0  0
   12.3668   20.7040    2.7840 C   0  0  0  0  0  0  0  0  0  0  0  0
   11.1544   20.6991    3.4440 C   0  0  0  0  0  0  0  0  0  0  0  0
    9.9614   21.0198    2.8300 C   0  0  0  0  0  0  0  0  0  0  0  0
    9.9832   21.3619    1.4913 C   0  0  0  0  0  0  0  0  0  0  0  0
   11.1889   21.3761    0.7989 C   0  0  0  0  0  0  0  0  0  0  0  0
  1  2  1  0  0  0
  2  3  2  0  0  0
  3  4  1  0  0  0
  4  5  2  0  0  0
  5  6  1  0  0  0
  6  7  1  0  0  0
  7  8  1  0  0  0
  8  9  2  0  0  0
  9 23  1  0  0  0
 23 24  2  0  0  0
 24 25  1  0  0  0
 25 26  2  0  0  0
 26 29  1  0  0  0
 29 30  1  0  0  0
 30 31  2  0  0  0
 31 32  1  0  0  0
 32 33  2  0  0  0
 33 34  1  0  0  0
 34 35  2  0  0  0
 26 27  1  0  0  0
 27 28  2  0  0  0
  9 10  1  0  0  0
  7 13  1  0  0  0
 13 14  1  0  0  0
 14 15  1  0  0  0
 15 16  1  0  0  0
 16 17  1  0  0  0
 17 18  1  0  0  0
 17 19  1  0  0  0
 19 20  2  0  0  0
 19 21  1  0  0  0
 21 22  2  0  0  0
 10  2  1  0  0  0
 18 13  1  0  0  0
 10  6  2  0  0  0
 28 23  1  0  0  0
 35 30  1  0  0  0
  1 11  1  0  0  0
  1 12  1  0  0  0
M  END
> <minimizedAffinity>
19.95568

> <CNNscore>
0.4306929111

> <CNNaffinity>
7.1108841896

> <CNN_VS>
3.0626075268

> <CNNaffinity_variance>
0.5454875827

$$$$
[H]C([H])=C([H])C(=O)N1C([H])([H])C([H])([H])C([H])([H])[C@@]([H])(n2c([H])c(-c3c([H])c([H])c(Oc4c([H])c([H])c([H])c([H])c4[H])c([H])c3[H])c3c(N([H])[H])nc([H])nc32)C1([H])[H]


 35 39  0  0  0  0  0  0  0  0999 V2000
   14.1417   22.4336    0.6672 N   0  0  0  0  0  0  0  0  0  0  0  0
   13.2033   23.1171   -0.1507 C   0  0  0  0  0  0  0  0  0  0  0  0
   11.9070   22.7580   -0.1923 N   0  0  0  0  0  0  0  0  0  0  0  0
   10.9876   23.3602   -0.9665 C   0  0  0  0  0  0  0  0  0  0  0  0
   11.3927   24.3805   -1.7427 N   0  0  0  0  0  0  0  0  0  0  0  0
   12.6516   24.8226   -1.7830 C   0  0  0  0  0  0  0  0  0  0  0  0
   13.2689   25.8095   -2.4857 N   0  0  0  0  0  0  0  0  0  0  0  0
   14.5499   25.7989   -2.1329 C   0  0  0  0  0  0  0  0  0  0  0  0
   14.7828   24.7907   -1.1826 C   0  0  0  0  0  0  0  0  0  0  0  0
   13.5931   24.1829   -0.9691 C   0  0  0  0  0  0  0  0  0  0  0  0
   14.9109   21.8288    0.3067 H   0  0  0  0  0  0  0  0  0  0  0  0
   14.0710   22.5324    1.7033 H   0  0  0  0  0  0  0  0  0  0  0  0
   12.6355   26.6854   -3.4261 C   0  0  0  0  0  0  0  0  0  0  0  0
   13.4145   26.6599   -4.7538 C   0  0  0  0  0  0  0  0  0  0  0  0
   12.4781   27.1660   -5.7843 C   0  0  0  0  0  0  0  0  0  0  0  0
   11.7755   28.4200   -5.3939 C   0  0  0  0  0  0  0  0  0  0  0  0
   11.9036   28.8796   -4.0638 N   0  0  0  0  0  0  0  0  0  0  0  0
   12.6198   28.1127   -3.0111 C   0  0  0  0  0  0  0  0  0  0  0  0
   11.3650   30.1016   -3.6233 C   0  0  0  0  0  0  0  0  0  0  0  0
   11.5515   30.4182   -2.3594 O   0  0  0  0  0  0  0  0  0  0  0  0
   10.6196   31.1075   -4.3268 C   0  0  0  0  0  0  0  0  0  0  0  0
    9.4703   31.0662   -4.9260 C   0  0  0  0  0  0  0  0  0  0  0  0
   16.0543   24.5416   -0.5649 C   0  0  0  0  0  0  0  0  0  0  0  0
   17.2733   24.5280   -1.1972 C   0  0  0  0  0  0  0  0  0  0  0  0
   18.4392   24.2908   -0.5104 C   0  0  0  0  0  0  0  0  0  0  0  0
   18.4383   24.0565    0.8382 C   0  0  0  0  0  0  0  0  0  0  0  0
   17.2265   24.0648    1.4941 C   0  0  0  0  0  0  0  0  0  0  0  0
   16.0611   24.3015    0.8108 C   0  0  0  0  0  0  0  0  0  0  0  0
   19.6072   23.8124    1.5626 O   0  0  0  0  0  0  0  0  0  0  0  0
   19.7691   24.4286    2.7976 C   0  0  0  0  0  0  0  0  0  0  0  0
   20.1770   23.6066    3.8406 C   0  0  0  0  0  0  0  0  0  0  0  0
   20.3458   24.1931    5.0787 C   0  0  0  0  0  0  0  0  0  0  0  0
   20.1289   25.5354    5.3121 C   0  0  0  0  0  0  0  0  0  0  0  0
   19.7237   26.3283    4.2554 C   0  0  0  0  0  0  0  0  0  0  0  0
   19.5449   25.7670    2.9960 C   0  0  0  0  0  0  0  0  0  0  0  0
  1  2  1  0  0  0
  2  3  2  0  0  0
  3  4  1  0  0  0
  4  5  2  0  0  0
  5  6  1  0  0  0
  6  7  1  0  0  0
  7  8  1  0  0  0
  8  9  2  0  0  0
  9 23  1  0  0  0
 23 24  2  0  0  0
 24 25  1  0  0  0
 25 26  2  0  0  0
 26 29  1  0  0  0
 29 30  1  0  0  0
 30 31  2  0  0  0
 31 32  1  0  0  0
 32 33  2  0  0  0
 33 34  1  0  0  0
 34 35  2  0  0  0
 26 27  1  0  0  0
 27 28  2  0  0  0
  9 10  1  0  0  0
  7 13  1  0  0  0
 13 14  1  0  0  0
 14 15  1  0  0  0
 15 16  1  0  0  0
 16 17  1  0  0  0
 17 18  1  0  0  0
 17 19  1  0  0  0
 19 20  2  0  0  0
 19 21  1  0  0  0
 21 22  2  0  0  0
 10  2  1  0  0  0
 18 13  1  0  0  0
 10  6  2  0  0  0
 28 23  1  0  0  0
 35 30  1  0  0  0
  1 11  1  0  0  0
  1 12  1  0  0  0
M  END
> <minimizedAffinity>
47.00509

> <CNNscore>
0.4205406010

> <CNNaffinity>
7.0391716957

> <CNN_VS>
2.9602575302

> <CNNaffinity_variance>
1.0236192942

$$$$
[H]C([H])=C([H])C(=O)N1C([H])([H])C([H])([H])C([H])([H])[C@@]([H])(n2c([H])c(-c3c([H])c([H])c(Oc4c([H])c([H])c([H])c([H])c4[H])c([H])c3[H])c3c(N([H])[H])nc([H])nc32)C1([H])[H]


 35 39  0  0  0  0  0  0  0  0999 V2000
   14.7761   21.5002    1.1198 N   0  0  0  0  0  0  0  0  0  0  0  0
   13.4396   21.0760    1.3444 C   0  0  0  0  0  0  0  0  0  0  0  0
   13.1032   20.3338    2.4153 N   0  0  0  0  0  0  0  0  0  0  0  0
   11.8572   19.8910    2.6582 C   0  0  0  0  0  0  0  0  0  0  0  0
   10.8949   20.2116    1.7758 N   0  0  0  0  0  0  0  0  0  0  0  0
   11.1121   20.9418    0.6797 C   0  0  0  0  0  0  0  0  0  0  0  0
   10.3063   21.3662   -0.3300 N   0  0  0  0  0  0  0  0  0  0  0  0
   11.0654   22.0602   -1.1713 C   0  0  0  0  0  0  0  0  0  0  0  0
   12.3922   22.0956   -0.7108 C   0  0  0  0  0  0  0  0  0  0  0  0
   12.4155   21.3937    0.4456 C   0  0  0  0  0  0  0  0  0  0  0  0
   15.3882   21.1471    0.3530 H   0  0  0  0  0  0  0  0  0  0  0  0
   15.1903   22.2147    1.7572 H   0  0  0  0  0  0  0  0  0  0  0  0
    8.9028   21.1020   -0.4445 C   0  0  0  0  0  0  0  0  0  0  0  0
    8.1406   21.9176    0.6157 C   0  0  0  0  0  0  0  0  0  0  0  0
    6.7374   21.9853    0.1453 C   0  0  0  0  0  0  0  0  0  0  0  0
    6.1814   20.6698   -0.2778 C   0  0  0  0  0  0  0  0  0  0  0  0
    7.0595   19.5675   -0.3813 N   0  0  0  0  0  0  0  0  0  0  0  0
    8.5287   19.6862   -0.1900 C   0  0  0  0  0  0  0  0  0  0  0  0
    6.6179   18.2648   -0.6733 C   0  0  0  0  0  0  0  0  0  0  0  0
    7.5343   17.3225   -0.7430 O   0  0  0  0  0  0  0  0  0  0  0  0
    5.2987   17.7532   -0.9189 C   0  0  0  0  0  0  0  0  0  0  0  0
    4.8733   16.5549   -1.1734 C   0  0  0  0  0  0  0  0  0  0  0  0
   13.4562   22.8004   -1.3677 C   0  0  0  0  0  0  0  0  0  0  0  0
   14.3406   22.2698   -2.2744 C   0  0  0  0  0  0  0  0  0  0  0  0
   15.3203   23.0354   -2.8589 C   0  0  0  0  0  0  0  0  0  0  0  0
   15.4594   24.3644   -2.5627 C   0  0  0  0  0  0  0  0  0  0  0  0
   14.5834   24.9188   -1.6550 C   0  0  0  0  0  0  0  0  0  0  0  0
   13.6044   24.1568   -1.0702 C   0  0  0  0  0  0  0  0  0  0  0  0
   16.4453   25.1673   -3.1408 O   0  0  0  0  0  0  0  0  0  0  0  0
   16.1199   25.9240   -4.2600 C   0  0  0  0  0  0  0  0  0  0  0  0
   15.6789   25.2136   -5.3693 C   0  0  0  0  0  0  0  0  0  0  0  0
   15.3486   25.9408   -6.4953 C   0  0  0  0  0  0  0  0  0  0  0  0
   15.4388   27.3161   -6.5569 C   0  0  0  0  0  0  0  0  0  0  0  0
   15.8807   27.9957   -5.4377 C   0  0  0  0  0  0  0  0  0  0  0  0
   16.2209   27.2915   -4.2882 C   0  0  0  0  0  0  0  0  0  0  0  0
  1  2  1  0  0  0
  2  3  2  0  0  0
  3  4  1  0  0  0
  4  5  2  0  0  0
  5  6  1  0  0  0
  6  7  1  0  0  0
  7  8  1  0  0  0
  8  9  2  0  0  0
  9 23  1  0  0  0
 23 24  2  0  0  0
 24 25  1  0  0  0
 25 26  2  0  0  0
 26 29  1  0  0  0
 29 30  1  0  0  0
 30 31  2  0  0  0
 31 32  1  0  0  0
 32 33  2  0  0  0
 33 34  1  0  0  0
 34 35  2  0  0  0
 26 27  1  0  0  0
 27 28  2  0  0  0
  9 10  1  0  0  0
  7 13  1  0  0  0
 13 14  1  0  0  0
 14 15  1  0  0  0
 15 16  1  0  0  0
 16 17  1  0  0  0
 17 18  1  0  0  0
 17 19  1  0  0  0
 19 20  2  0  0  0
 19 21  1  0  0  0
 21 22  2  0  0  0
 10  2  1  0  0  0
 18 13  1  0  0  0
 10  6  2  0  0  0
 28 23  1  0  0  0
 35 30  1  0  0  0
  1 11  1  0  0  0
  1 12  1  0  0  0
M  END
> <minimizedAffinity>
-8.36757

> <CNNscore>
0.4105660021

> <CNNaffinity>
7.4570136070

> <CNN_VS>
3.0615961552

> <CNNaffinity_variance>
0.0445491113

$$$$
[H]c1c([H])c([H])c(C([H])([H])OC(=O)N2C([H])([H])C([H])([H])C([H])(c3c([H])n([H])c4c([H])c([N+](=O)[O-])c([H])c([H])c34)C([H])([H])C2([H])[H])c([H])c1[H]


 29 32  0  0  0  0  0  0  0  0999 V2000
   13.4492   24.8951   -3.1650 C   0  0  0  0  0  0  0  0  0  0  0  0
   14.3236   24.0705   -2.2944 C   0  0  0  0  0  0  0  0  0  0  0  0
   14.3368   24.3690   -0.8124 C   0  0  0  0  0  0  0  0  0  0  0  0
   12.9753   24.1478   -0.3396 N   0  0  0  0  0  0  0  0  0  0  0  0
   11.9344   24.7401   -1.1621 C   0  0  0  0  0  0  0  0  0  0  0  0
   12.5586   25.6797   -2.1707 C   0  0  0  0  0  0  0  0  0  0  0  0
   12.6437   23.3984    0.7856 C   0  0  0  0  0  0  0  0  0  0  0  0
   13.6133   22.8402    1.4003 O   0  0  0  0  0  0  0  0  0  0  0  0
   17.9001   27.6275   -3.8509 C   0  0  0  0  0  0  0  0  0  0  0  0
   17.5956   26.6659   -2.8656 C   0  0  0  0  0  0  0  0  0  0  0  0
   16.3925   26.0195   -2.8223 C   0  0  0  0  0  0  0  0  0  0  0  0
   15.4737   26.3602   -3.8038 C   0  0  0  0  0  0  0  0  0  0  0  0
   14.1584   25.9341   -3.9250 C   0  0  0  0  0  0  0  0  0  0  0  0
   13.6024   26.6022   -5.0024 C   0  0  0  0  0  0  0  0  0  0  0  0
   14.5628   27.4092   -5.5026 N   0  0  0  0  0  0  0  0  0  0  0  0
   15.7121   27.2771   -4.7779 C   0  0  0  0  0  0  0  0  0  0  0  0
   16.9551   27.9177   -4.7980 C   0  0  0  0  0  0  0  0  0  0  0  0
   14.4412   28.0255   -6.3253 H   0  0  0  0  0  0  0  0  0  0  0  0
   19.1372   29.6884   -4.0256 O   0  0  0  0  0  0  0  0  0  0  0  0
   19.1529   28.3343   -3.8197 N   0  0  0  0  0  0  0  0  0  0  0  0
   20.1864   27.7058   -3.6208 O   0  0  0  0  0  0  0  0  0  0  0  0
   11.3708   23.2347    1.2679 O   0  0  0  0  0  0  0  0  0  0  0  0
   10.7402   21.9618    1.3016 C   0  0  0  0  0  0  0  0  0  0  0  0
   10.7695   21.5261    2.7147 C   0  0  0  0  0  0  0  0  0  0  0  0
   10.2204   22.2578    3.7375 C   0  0  0  0  0  0  0  0  0  0  0  0
   10.2891   21.8168    5.0312 C   0  0  0  0  0  0  0  0  0  0  0  0
   10.9061   20.6398    5.3694 C   0  0  0  0  0  0  0  0  0  0  0  0
   11.4793   19.8766    4.3499 C   0  0  0  0  0  0  0  0  0  0  0  0
   11.3979   20.3337    3.0538 C   0  0  0  0  0  0  0  0  0  0  0  0
 19 20  1  0  0  0
 20 21  2  0  0  0
 20  9  1  0  0  0
  9 10  2  0  0  0
 10 11  1  0  0  0
 11 12  2  0  0  0
 12 13  1  0  0  0
 13 14  2  0  0  0
 14 15  1  0  0  0
 15 16  1  0  0  0
 16 17  2  0  0  0
 13  1  1  0  0  0
  1  2  1  0  0  0
  2  3  1  0  0  0
  3  4  1  0  0  0
  4  5  1  0  0  0
  5  6  1  0  0  0
  4  7  1  0  0  0
  7  8  2  0  0  0
  7 22  1  0  0  0
 22 23  1  0  0  0
 23 24  1  0  0  0
 24 25  2  0  0  0
 25 26  1  0  0  0
 26 27  2  0  0  0
 27 28  1  0  0  0
 28 29  2  0  0  0
 17  9  1  0  0  0
  6  1  1  0  0  0
 29 24  1  0  0  0
 16 12  1  0  0  0
 15 18  1  0  0  0
M  CHG 1  19  -1
M  CHG 1  20   1
M  END
> <minimizedAffinity>
-5.83342

> <CNNscore>
0.6488108635

> <CNNaffinity>
7.0574111938

> <CNN_VS>
4.5789251328

> <CNNaffinity_variance>
0.2204948962

$$$$
[H]c1c([H])c([H])c(C([H])([H])OC(=O)N2C([H])([H])C([H])([H])C([H])(c3c([H])n([H])c4c([H])c([N+](=O)[O-])c([H])c([H])c34)C([H])([H])C2([H])[H])c([H])c1[H]


 29 32  0  0  0  0  0  0  0  0999 V2000
   12.9388   24.6277   -1.0158 C   0  0  0  0  0  0  0  0  0  0  0  0
   11.5083   24.8263   -1.3574 C   0  0  0  0  0  0  0  0  0  0  0  0
   10.5293   23.7375   -0.9812 C   0  0  0  0  0  0  0  0  0  0  0  0
   10.5836   23.6242    0.4715 N   0  0  0  0  0  0  0  0  0  0  0  0
   11.9217   23.5859    1.0362 C   0  0  0  0  0  0  0  0  0  0  0  0
   12.9345   23.3997   -0.0725 C   0  0  0  0  0  0  0  0  0  0  0  0
    9.4668   23.5931    1.3019 C   0  0  0  0  0  0  0  0  0  0  0  0
    8.3324   23.7203    0.7306 O   0  0  0  0  0  0  0  0  0  0  0  0
   15.2429   26.0040   -5.5483 C   0  0  0  0  0  0  0  0  0  0  0  0
   14.3863   26.7637   -4.7252 C   0  0  0  0  0  0  0  0  0  0  0  0
   13.8730   26.2755   -3.5566 C   0  0  0  0  0  0  0  0  0  0  0  0
   14.2373   24.9813   -3.2161 C   0  0  0  0  0  0  0  0  0  0  0  0
   13.7808   24.2200   -2.1493 C   0  0  0  0  0  0  0  0  0  0  0  0
   14.3521   22.9640   -2.2601 C   0  0  0  0  0  0  0  0  0  0  0  0
   15.1225   22.9791   -3.3692 N   0  0  0  0  0  0  0  0  0  0  0  0
   15.0595   24.2039   -3.9685 C   0  0  0  0  0  0  0  0  0  0  0  0
   15.5724   24.7343   -5.1566 C   0  0  0  0  0  0  0  0  0  0  0  0
   15.6869   22.1778   -3.7022 H   0  0  0  0  0  0  0  0  0  0  0  0
   15.7501   25.6878   -7.8830 O   0  0  0  0  0  0  0  0  0  0  0  0
   15.7062   26.5310   -6.8043 N   0  0  0  0  0  0  0  0  0  0  0  0
   16.0527   27.7052   -6.8660 O   0  0  0  0  0  0  0  0  0  0  0  0
    9.5092   23.4288    2.6624 O   0  0  0  0  0  0  0  0  0  0  0  0
    8.7443   22.4287    3.3207 C   0  0  0  0  0  0  0  0  0  0  0  0
    9.6931   21.3491    3.6697 C   0  0  0  0  0  0  0  0  0  0  0  0
   10.8087   21.0602    2.9247 C   0  0  0  0  0  0  0  0  0  0  0  0
   11.6465   20.0390    3.2828 C   0  0  0  0  0  0  0  0  0  0  0  0
   11.4158   19.2586    4.3864 C   0  0  0  0  0  0  0  0  0  0  0  0
   10.2847   19.5256    5.1608 C   0  0  0  0  0  0  0  0  0  0  0  0
    9.4546   20.5587    4.7877 C   0  0  0  0  0  0  0  0  0  0  0  0
 19 20  1  0  0  0
 20 21  2  0  0  0
 20  9  1  0  0  0
  9 10  2  0  0  0
 10 11  1  0  0  0
 11 12  2  0  0  0
 12 13  1  0  0  0
 13 14  2  0  0  0
 14 15  1  0  0  0
 15 16  1  0  0  0
 16 17  2  0  0  0
 13  1  1  0  0  0
  1  2  1  0  0  0
  2  3  1  0  0  0
  3  4  1  0  0  0
  4  5  1  0  0  0
  5  6  1  0  0  0
  4  7  1  0  0  0
  7  8  2  0  0  0
  7 22  1  0  0  0
 22 23  1  0  0  0
 23 24  1  0  0  0
 24 25  2  0  0  0
 25 26  1  0  0  0
 26 27  2  0  0  0
 27 28  1  0  0  0
 28 29  2  0  0  0
 17  9  1  0  0  0
  6  1  1  0  0  0
 29 24  1  0  0  0
 16 12  1  0  0  0
 15 18  1  0  0  0
M  CHG 1  19  -1
M  CHG 1  20   1
M  END
> <minimizedAffinity>
-9.70934

> <CNNscore>
0.5465168953

> <CNNaffinity>
6.7938432693

> <CNN_VS>
3.7129502296

> <CNNaffinity_variance>
0.1088088974

$$$$
[H]c1c([H])c([H])c(C([H])([H])OC(=O)N2C([H])([H])C([H])([H])C([H])(c3c([H])n([H])c4c([H])c([N+](=O)[O-])c([H])c([H])c34)C([H])([H])C2([H])[H])c([H])c1[H]


 29 32  0  0  0  0  0  0  0  0999 V2000
   11.7438   24.2097   -1.0325 C   0  0  0  0  0  0  0  0  0  0  0  0
   11.1896   22.9089   -0.5817 C   0  0  0  0  0  0  0  0  0  0  0  0
   11.4507   22.4804    0.8445 C   0  0  0  0  0  0  0  0  0  0  0  0
   10.8374   23.4946    1.6939 N   0  0  0  0  0  0  0  0  0  0  0  0
   11.1202   24.8682    1.3144 C   0  0  0  0  0  0  0  0  0  0  0  0
   12.2191   24.8907    0.2743 C   0  0  0  0  0  0  0  0  0  0  0  0
   10.0028   23.2190    2.7733 C   0  0  0  0  0  0  0  0  0  0  0  0
    9.7360   21.9885    2.9833 O   0  0  0  0  0  0  0  0  0  0  0  0
   14.8451   26.4048   -4.6808 C   0  0  0  0  0  0  0  0  0  0  0  0
   13.6188   26.8723   -4.1650 C   0  0  0  0  0  0  0  0  0  0  0  0
   12.9279   26.1977   -3.1981 C   0  0  0  0  0  0  0  0  0  0  0  0
   13.4959   25.0164   -2.7448 C   0  0  0  0  0  0  0  0  0  0  0  0
   12.9575   24.0985   -1.8539 C   0  0  0  0  0  0  0  0  0  0  0  0
   13.8391   23.0347   -1.7692 C   0  0  0  0  0  0  0  0  0  0  0  0
   14.8709   23.3125   -2.5950 N   0  0  0  0  0  0  0  0  0  0  0  0
   14.6742   24.5186   -3.2034 C   0  0  0  0  0  0  0  0  0  0  0  0
   15.3597   25.2352   -4.1896 C   0  0  0  0  0  0  0  0  0  0  0  0
   15.6946   22.7006   -2.7309 H   0  0  0  0  0  0  0  0  0  0  0  0
   15.8541   28.4183   -5.5387 O   0  0  0  0  0  0  0  0  0  0  0  0
   15.5057   27.1100   -5.7467 N   0  0  0  0  0  0  0  0  0  0  0  0
   15.7254   26.5250   -6.8014 O   0  0  0  0  0  0  0  0  0  0  0  0
    9.4698   24.1652    3.6102 O   0  0  0  0  0  0  0  0  0  0  0  0
    8.1484   24.0550    4.1208 C   0  0  0  0  0  0  0  0  0  0  0  0
    7.5429   25.3977    3.9865 C   0  0  0  0  0  0  0  0  0  0  0  0
    8.2335   26.4900    3.5248 C   0  0  0  0  0  0  0  0  0  0  0  0
    7.6302   27.7151    3.4351 C   0  0  0  0  0  0  0  0  0  0  0  0
    6.3238   27.9139    3.8014 C   0  0  0  0  0  0  0  0  0  0  0  0
    5.5974   26.8216    4.2804 C   0  0  0  0  0  0  0  0  0  0  0  0
    6.2192   25.5958    4.3610 C   0  0  0  0  0  0  0  0  0  0  0  0
 19 20  1  0  0  0
 20 21  2  0  0  0
 20  9  1  0  0  0
  9 10  2  0  0  0
 10 11  1  0  0  0
 11 12  2  0  0  0
 12 13  1  0  0  0
 13 14  2  0  0  0
 14 15  1  0  0  0
 15 16  1  0  0  0
 16 17  2  0  0  0
 13  1  1  0  0  0
  1  2  1  0  0  0
  2  3  1  0  0  0
  3  4  1  0  0  0
  4  5  1  0  0  0
  5  6  1  0  0  0
  4  7  1  0  0  0
  7  8  2  0  0  0
  7 22  1  0  0  0
 22 23  1  0  0  0
 23 24  1  0  0  0
 24 25  2  0  0  0
 25 26  1  0  0  0
 26 27  2  0  0  0
 27 28  1  0  0  0
 28 29  2  0  0  0
 17  9  1  0  0  0
  6  1  1  0  0  0
 29 24  1  0  0  0
 16 12  1  0  0  0
 15 18  1  0  0  0
M  CHG 1  19  -1
M  CHG 1  20   1
M  END
> <minimizedAffinity>
-10.16554

> <CNNscore>
0.5372307897

> <CNNaffinity>
6.4717712402

> <CNN_VS>
3.4768347740

> <CNNaffinity_variance>
0.0355707929

$$$$
[H]c1c([H])c([H])c(C([H])([H])OC(=O)N2C([H])([H])C([H])([H])C([H])(c3c([H])n([H])c4c([H])c([N+](=O)[O-])c([H])c([H])c34)C([H])([H])C2([H])[H])c([H])c1[H]


 29 32  0  0  0  0  0  0  0  0999 V2000
   11.7041   24.2888   -1.0660 C   0  0  0  0  0  0  0  0  0  0  0  0
   11.1027   22.9983   -0.6472 C   0  0  0  0  0  0  0  0  0  0  0  0
   11.3563   22.5202    0.7644 C   0  0  0  0  0  0  0  0  0  0  0  0
   10.7885   23.5331    1.6463 N   0  0  0  0  0  0  0  0  0  0  0  0
   11.1221   24.9049    1.3030 C   0  0  0  0  0  0  0  0  0  0  0  0
   12.2141   24.9140    0.2556 C   0  0  0  0  0  0  0  0  0  0  0  0
    9.9509   23.2599    2.7240 C   0  0  0  0  0  0  0  0  0  0  0  0
    9.6379   22.0352    2.9018 O   0  0  0  0  0  0  0  0  0  0  0  0
   14.8424   26.4472   -4.7045 C   0  0  0  0  0  0  0  0  0  0  0  0
   13.6354   26.9437   -4.1707 C   0  0  0  0  0  0  0  0  0  0  0  0
   12.9317   26.2748   -3.2090 C   0  0  0  0  0  0  0  0  0  0  0  0
   13.4665   25.0692   -2.7799 C   0  0  0  0  0  0  0  0  0  0  0  0
   12.9071   24.1538   -1.8994 C   0  0  0  0  0  0  0  0  0  0  0  0
   13.7559   23.0620   -1.8397 C   0  0  0  0  0  0  0  0  0  0  0  0
   14.7892   23.3215   -2.6697 N   0  0  0  0  0  0  0  0  0  0  0  0
   14.6251   24.5430   -3.2566 C   0  0  0  0  0  0  0  0  0  0  0  0
   15.3245   25.2543   -4.2368 C   0  0  0  0  0  0  0  0  0  0  0  0
   15.5924   22.6868   -2.8225 H   0  0  0  0  0  0  0  0  0  0  0  0
   15.7682   26.4743   -6.9294 O   0  0  0  0  0  0  0  0  0  0  0  0
   15.5160   27.1492   -5.7644 N   0  0  0  0  0  0  0  0  0  0  0  0
   15.8481   28.3160   -5.5889 O   0  0  0  0  0  0  0  0  0  0  0  0
    9.4607   24.2021    3.5910 O   0  0  0  0  0  0  0  0  0  0  0  0
    8.1899   24.0610    4.2107 C   0  0  0  0  0  0  0  0  0  0  0  0
    7.5223   25.3746    4.0825 C   0  0  0  0  0  0  0  0  0  0  0  0
    6.2078   25.5844    4.4157 C   0  0  0  0  0  0  0  0  0  0  0  0
    5.6332   26.8170    4.2624 C   0  0  0  0  0  0  0  0  0  0  0  0
    6.3295   27.8908    3.7700 C   0  0  0  0  0  0  0  0  0  0  0  0
    7.6680   27.7058    3.4169 C   0  0  0  0  0  0  0  0  0  0  0  0
    8.2307   26.4600    3.5807 C   0  0  0  0  0  0  0  0  0  0  0  0
 19 20  1  0  0  0
 20 21  2  0  0  0
 20  9  1  0  0  0
  9 10  2  0  0  0
 10 11  1  0  0  0
 11 12  2  0  0  0
 12 13  1  0  0  0
 13 14  2  0  0  0
 14 15  1  0  0  0
 15 16  1  0  0  0
 16 17  2  0  0  0
 13  1  1  0  0  0
  1  2  1  0  0  0
  2  3  1  0  0  0
  3  4  1  0  0  0
  4  5  1  0  0  0
  5  6  1  0  0  0
  4  7  1  0  0  0
  7  8  2  0  0  0
  7 22  1  0  0  0
 22 23  1  0  0  0
 23 24  1  0  0  0
 24 25  2  0  0  0
 25 26  1  0  0  0
 26 27  2  0  0  0
 27 28  1  0  0  0
 28 29  2  0  0  0
 17  9  1  0  0  0
  6  1  1  0  0  0
 29 24  1  0  0  0
 16 12  1  0  0  0
 15 18  1  0  0  0
M  CHG 1  19  -1
M  CHG 1  20   1
M  END
> <minimizedAffinity>
-10.11838

> <CNNscore>
0.5224333405

> <CNNaffinity>
6.4581060410

> <CNN_VS>
3.3739299774

> <CNNaffinity_variance>
0.0414265804

$$$$
[H]c1c([H])c([H])c(C([H])([H])OC(=O)N2C([H])([H])C([H])([H])C([H])(c3c([H])n([H])c4c([H])c([N+](=O)[O-])c([H])c([H])c34)C([H])([H])C2([H])[H])c([H])c1[H]


 29 32  0  0  0  0  0  0  0  0999 V2000
   13.1573   24.5658   -2.6434 C   0  0  0  0  0  0  0  0  0  0  0  0
   13.9453   24.1116   -1.4708 C   0  0  0  0  0  0  0  0  0  0  0  0
   13.4439   24.4771   -0.0921 C   0  0  0  0  0  0  0  0  0  0  0  0
   12.1306   23.8576    0.0418 N   0  0  0  0  0  0  0  0  0  0  0  0
   11.2448   24.0413   -1.0950 C   0  0  0  0  0  0  0  0  0  0  0  0
   11.8297   25.0761   -2.0314 C   0  0  0  0  0  0  0  0  0  0  0  0
   11.7235   23.1025    1.1380 C   0  0  0  0  0  0  0  0  0  0  0  0
   12.5941   22.9172    2.0530 O   0  0  0  0  0  0  0  0  0  0  0  0
   17.4169   27.4955   -3.6534 C   0  0  0  0  0  0  0  0  0  0  0  0
   17.2941   26.3765   -2.8042 C   0  0  0  0  0  0  0  0  0  0  0  0
   16.1170   25.6989   -2.6535 C   0  0  0  0  0  0  0  0  0  0  0  0
   15.0358   26.1713   -3.3825 C   0  0  0  0  0  0  0  0  0  0  0  0
   13.7192   25.7350   -3.3343 C   0  0  0  0  0  0  0  0  0  0  0  0
   12.9782   26.5560   -4.1667 C   0  0  0  0  0  0  0  0  0  0  0  0
   13.8338   27.4606   -4.6897 N   0  0  0  0  0  0  0  0  0  0  0  0
   15.0955   27.2425   -4.2164 C   0  0  0  0  0  0  0  0  0  0  0  0
   16.3159   27.9117   -4.3527 C   0  0  0  0  0  0  0  0  0  0  0  0
   13.5662   28.2006   -5.3623 H   0  0  0  0  0  0  0  0  0  0  0  0
   19.8201   27.5440   -3.4795 O   0  0  0  0  0  0  0  0  0  0  0  0
   18.6565   28.2216   -3.7307 N   0  0  0  0  0  0  0  0  0  0  0  0
   18.6310   29.4156   -4.0073 O   0  0  0  0  0  0  0  0  0  0  0  0
   10.4716   22.5662    1.2957 O   0  0  0  0  0  0  0  0  0  0  0  0
   10.0724   21.9381    2.5061 C   0  0  0  0  0  0  0  0  0  0  0  0
    8.6486   21.5776    2.3316 C   0  0  0  0  0  0  0  0  0  0  0  0
    7.8233   21.2503    3.3779 C   0  0  0  0  0  0  0  0  0  0  0  0
    6.5163   20.9080    3.1601 C   0  0  0  0  0  0  0  0  0  0  0  0
    5.9716   20.8697    1.9023 C   0  0  0  0  0  0  0  0  0  0  0  0
    6.7893   21.1924    0.8171 C   0  0  0  0  0  0  0  0  0  0  0  0
    8.1008   21.5375    1.0549 C   0  0  0  0  0  0  0  0  0  0  0  0
 19 20  1  0  0  0
 20 21  2  0  0  0
 20  9  1  0  0  0
  9 10  2  0  0  0
 10 11  1  0  0  0
 11 12  2  0  0  0
 12 13  1  0  0  0
 13 14  2  0  0  0
 14 15  1  0  0  0
 15 16  1  0  0  0
 16 17  2  0  0  0
 13  1  1  0  0  0
  1  2  1  0  0  0
  2  3  1  0  0  0
  3  4  1  0  0  0
  4  5  1  0  0  0
  5  6  1  0  0  0
  4  7  1  0  0  0
  7  8  2  0  0  0
  7 22  1  0  0  0
 22 23  1  0  0  0
 23 24  1  0  0  0
 24 25  2  0  0  0
 25 26  1  0  0  0
 26 27  2  0  0  0
 27 28  1  0  0  0
 28 29  2  0  0  0
 17  9  1  0  0  0
  6  1  1  0  0  0
 29 24  1  0  0  0
 16 12  1  0  0  0
 15 18  1  0  0  0
M  CHG 1  19  -1
M  CHG 1  20   1
M  END
> <minimizedAffinity>
-5.54723

> <CNNscore>
0.5160276294

> <CNNaffinity>
6.6574454308

> <CNN_VS>
3.4354257584

> <CNNaffinity_variance>
0.2870495915

$$$$
[H]c1c([H])c([H])c(C([H])([H])OC(=O)N2C([H])([H])C([H])([H])C([H])(c3c([H])n([H])c4c([H])c([N+](=O)[O-])c([H])c([H])c34)C([H])([H])C2([H])[H])c([H])c1[H]


 29 32  0  0  0  0  0  0  0  0999 V2000
   13.4345   25.5439   -1.4802 C   0  0  0  0  0  0  0  0  0  0  0  0
   11.9625   25.5042   -1.6650 C   0  0  0  0  0  0  0  0  0  0  0  0
   11.2908   24.1516   -1.7356 C   0  0  0  0  0  0  0  0  0  0  0  0
   11.5534   23.4986   -0.4585 N   0  0  0  0  0  0  0  0  0  0  0  0
   12.9307   23.5714   -0.0018 C   0  0  0  0  0  0  0  0  0  0  0  0
   13.8094   24.0851   -1.1215 C   0  0  0  0  0  0  0  0  0  0  0  0
   10.5839   22.8750    0.3219 C   0  0  0  0  0  0  0  0  0  0  0  0
    9.3845   22.9335   -0.1110 O   0  0  0  0  0  0  0  0  0  0  0  0
   17.7865   27.5869   -3.6327 C   0  0  0  0  0  0  0  0  0  0  0  0
   17.3925   27.5722   -2.2789 C   0  0  0  0  0  0  0  0  0  0  0  0
   16.2320   26.9836   -1.8617 C   0  0  0  0  0  0  0  0  0  0  0  0
   15.4500   26.3966   -2.8453 C   0  0  0  0  0  0  0  0  0  0  0  0
   14.1911   25.8288   -2.7076 C   0  0  0  0  0  0  0  0  0  0  0  0
   13.7641   25.4528   -3.9695 C   0  0  0  0  0  0  0  0  0  0  0  0
   14.7432   25.7958   -4.8342 N   0  0  0  0  0  0  0  0  0  0  0  0
   15.7794   26.3788   -4.1635 C   0  0  0  0  0  0  0  0  0  0  0  0
   16.9762   26.9855   -4.5579 C   0  0  0  0  0  0  0  0  0  0  0  0
   14.7108   25.6253   -5.8546 H   0  0  0  0  0  0  0  0  0  0  0  0
   18.8860   29.6065   -4.3542 O   0  0  0  0  0  0  0  0  0  0  0  0
   18.9819   28.2771   -4.0384 N   0  0  0  0  0  0  0  0  0  0  0  0
   20.0372   27.6561   -4.0969 O   0  0  0  0  0  0  0  0  0  0  0  0
   10.8338   22.2098    1.4944 O   0  0  0  0  0  0  0  0  0  0  0  0
   11.4654   20.9372    1.5140 C   0  0  0  0  0  0  0  0  0  0  0  0
   11.2072   20.3711    2.8557 C   0  0  0  0  0  0  0  0  0  0  0  0
   11.7607   19.1942    3.2934 C   0  0  0  0  0  0  0  0  0  0  0  0
   11.4759   18.7055    4.5396 C   0  0  0  0  0  0  0  0  0  0  0  0
   10.6304   19.3543    5.4024 C   0  0  0  0  0  0  0  0  0  0  0  0
   10.0475   20.5518    4.9821 C   0  0  0  0  0  0  0  0  0  0  0  0
   10.3477   21.0305    3.7266 C   0  0  0  0  0  0  0  0  0  0  0  0
 19 20  1  0  0  0
 20 21  2  0  0  0
 20  9  1  0  0  0
  9 10  2  0  0  0
 10 11  1  0  0  0
 11 12  2  0  0  0
 12 13  1  0  0  0
 13 14  2  0  0  0
 14 15  1  0  0  0
 15 16  1  0  0  0
 16 17  2  0  0  0
 13  1  1  0  0  0
  1  2  1  0  0  0
  2  3  1  0  0  0
  3  4  1  0  0  0
  4  5  1  0  0  0
  5  6  1  0  0  0
  4  7  1  0  0  0
  7  8  2  0  0  0
  7 22  1  0  0  0
 22 23  1  0  0  0
 23 24  1  0  0  0
 24 25  2  0  0  0
 25 26  1  0  0  0
 26 27  2  0  0  0
 27 28  1  0  0  0
 28 29  2  0  0  0
 17  9  1  0  0  0
  6  1  1  0  0  0
 29 24  1  0  0  0
 16 12  1  0  0  0
 15 18  1  0  0  0
M  CHG 1  19  -1
M  CHG 1  20   1
M  END
> <minimizedAffinity>
-2.43024

> <CNNscore>
0.5145341754

> <CNNaffinity>
6.7324957848

> <CNN_VS>
3.4640991688

> <CNNaffinity_variance>
1.0234589577

$$$$
[H]c1c([H])c([H])c(C([H])([H])OC(=O)N2C([H])([H])C([H])([H])C([H])(c3c([H])n([H])c4c([H])c([N+](=O)[O-])c([H])c([H])c34)C([H])([H])C2([H])[H])c([H])c1[H]


 29 32  0  0  0  0  0  0  0  0999 V2000
   13.9274   23.6594   -0.0952 C   0  0  0  0  0  0  0  0  0  0  0  0
   12.8541   24.5210    0.4597 C   0  0  0  0  0  0  0  0  0  0  0  0
   11.5199   24.5418   -0.2509 C   0  0  0  0  0  0  0  0  0  0  0  0
   11.0080   23.1774   -0.1976 N   0  0  0  0  0  0  0  0  0  0  0  0
   11.9693   22.1454   -0.5466 C   0  0  0  0  0  0  0  0  0  0  0  0
   13.2029   22.7840   -1.1469 C   0  0  0  0  0  0  0  0  0  0  0  0
    9.7163   22.8350    0.1920 C   0  0  0  0  0  0  0  0  0  0  0  0
    8.9641   23.7959    0.5667 O   0  0  0  0  0  0  0  0  0  0  0  0
   15.0541   26.5907   -4.3243 C   0  0  0  0  0  0  0  0  0  0  0  0
   13.8293   25.9922   -3.9638 C   0  0  0  0  0  0  0  0  0  0  0  0
   13.6803   25.2667   -2.8155 C   0  0  0  0  0  0  0  0  0  0  0  0
   14.8051   25.1438   -2.0133 C   0  0  0  0  0  0  0  0  0  0  0  0
   14.9511   24.3850   -0.8605 C   0  0  0  0  0  0  0  0  0  0  0  0
   16.2687   24.4991   -0.4517 C   0  0  0  0  0  0  0  0  0  0  0  0
   16.8893   25.3002   -1.3444 N   0  0  0  0  0  0  0  0  0  0  0  0
   16.0095   25.6992   -2.3088 C   0  0  0  0  0  0  0  0  0  0  0  0
   16.1283   26.4400   -3.4890 C   0  0  0  0  0  0  0  0  0  0  0  0
   17.8850   25.5779   -1.2902 H   0  0  0  0  0  0  0  0  0  0  0  0
   15.7977   28.5140   -5.5717 O   0  0  0  0  0  0  0  0  0  0  0  0
   15.1862   27.2883   -5.5756 N   0  0  0  0  0  0  0  0  0  0  0  0
   14.7426   26.7719   -6.5951 O   0  0  0  0  0  0  0  0  0  0  0  0
    9.2115   21.5603    0.1891 O   0  0  0  0  0  0  0  0  0  0  0  0
    7.9406   21.2563    0.7471 C   0  0  0  0  0  0  0  0  0  0  0  0
    7.0987   20.7928   -0.3771 C   0  0  0  0  0  0  0  0  0  0  0  0
    5.8022   21.2024   -0.5628 C   0  0  0  0  0  0  0  0  0  0  0  0
    5.0605   20.7301   -1.6115 C   0  0  0  0  0  0  0  0  0  0  0  0
    5.5650   19.8316   -2.5162 C   0  0  0  0  0  0  0  0  0  0  0  0
    6.8801   19.3923   -2.3493 C   0  0  0  0  0  0  0  0  0  0  0  0
    7.6127   19.8803   -1.2907 C   0  0  0  0  0  0  0  0  0  0  0  0
 19 20  1  0  0  0
 20 21  2  0  0  0
 20  9  1  0  0  0
  9 10  2  0  0  0
 10 11  1  0  0  0
 11 12  2  0  0  0
 12 13  1  0  0  0
 13 14  2  0  0  0
 14 15  1  0  0  0
 15 16  1  0  0  0
 16 17  2  0  0  0
 13  1  1  0  0  0
  1  2  1  0  0  0
  2  3  1  0  0  0
  3  4  1  0  0  0
  4  5  1  0  0  0
  5  6  1  0  0  0
  4  7  1  0  0  0
  7  8  2  0  0  0
  7 22  1  0  0  0
 22 23  1  0  0  0
 23 24  1  0  0  0
 24 25  2  0  0  0
 25 26  1  0  0  0
 26 27  2  0  0  0
 27 28  1  0  0  0
 28 29  2  0  0  0
 17  9  1  0  0  0
  6  1  1  0  0  0
 29 24  1  0  0  0
 16 12  1  0  0  0
 15 18  1  0  0  0
M  CHG 1  19  -1
M  CHG 1  20   1
M  END
> <minimizedAffinity>
-9.33396

> <CNNscore>
0.5131293535

> <CNNaffinity>
6.7237410545

> <CNN_VS>
3.4501488209

> <CNNaffinity_variance>
0.1813963950

$$$$
[H]c1c([H])c([H])c(C([H])([H])OC(=O)N2C([H])([H])C([H])([H])C([H])(c3c([H])n([H])c4c([H])c([N+](=O)[O-])c([H])c([H])c34)C([H])([H])C2([H])[H])c([H])c1[H]


 29 32  0  0  0  0  0  0  0  0999 V2000
   11.9811   24.1537   -1.0565 C   0  0  0  0  0  0  0  0  0  0  0  0
   11.6664   22.7188   -0.8461 C   0  0  0  0  0  0  0  0  0  0  0  0
   11.7116   22.1803    0.5659 C   0  0  0  0  0  0  0  0  0  0  0  0
   10.7101   22.9261    1.3190 N   0  0  0  0  0  0  0  0  0  0  0  0
   10.7351   24.3649    1.1191 C   0  0  0  0  0  0  0  0  0  0  0  0
   11.9931   24.7510    0.3720 C   0  0  0  0  0  0  0  0  0  0  0  0
    9.7540   22.3460    2.1479 C   0  0  0  0  0  0  0  0  0  0  0  0
    9.7465   21.0705    2.1980 O   0  0  0  0  0  0  0  0  0  0  0  0
   14.9927   26.7677   -4.4980 C   0  0  0  0  0  0  0  0  0  0  0  0
   13.5889   26.7776   -4.3653 C   0  0  0  0  0  0  0  0  0  0  0  0
   12.9405   26.0545   -3.4040 C   0  0  0  0  0  0  0  0  0  0  0  0
   13.7384   25.2999   -2.5568 C   0  0  0  0  0  0  0  0  0  0  0  0
   13.3330   24.4073   -1.5745 C   0  0  0  0  0  0  0  0  0  0  0  0
   14.4719   23.8232   -1.0476 C   0  0  0  0  0  0  0  0  0  0  0  0
   15.5256   24.3518   -1.7065 N   0  0  0  0  0  0  0  0  0  0  0  0
   15.0941   25.2531   -2.6365 C   0  0  0  0  0  0  0  0  0  0  0  0
   15.7282   26.0084   -3.6282 C   0  0  0  0  0  0  0  0  0  0  0  0
   16.5150   24.1130   -1.5181 H   0  0  0  0  0  0  0  0  0  0  0  0
   15.9929   26.7948   -6.6905 O   0  0  0  0  0  0  0  0  0  0  0  0
   15.6307   27.4893   -5.5668 N   0  0  0  0  0  0  0  0  0  0  0  0
   15.8363   28.6906   -5.4347 O   0  0  0  0  0  0  0  0  0  0  0  0
    8.8474   23.0444    2.9029 O   0  0  0  0  0  0  0  0  0  0  0  0
    9.2431   23.8027    4.0375 C   0  0  0  0  0  0  0  0  0  0  0  0
    8.4368   25.0421    4.0048 C   0  0  0  0  0  0  0  0  0  0  0  0
    8.9871   26.2929    3.8789 C   0  0  0  0  0  0  0  0  0  0  0  0
    8.1964   27.4098    3.8704 C   0  0  0  0  0  0  0  0  0  0  0  0
    6.8323   27.3394    3.9907 C   0  0  0  0  0  0  0  0  0  0  0  0
    6.2442   26.0799    4.1262 C   0  0  0  0  0  0  0  0  0  0  0  0
    7.0546   24.9668    4.1294 C   0  0  0  0  0  0  0  0  0  0  0  0
 19 20  1  0  0  0
 20 21  2  0  0  0
 20  9  1  0  0  0
  9 10  2  0  0  0
 10 11  1  0  0  0
 11 12  2  0  0  0
 12 13  1  0  0  0
 13 14  2  0  0  0
 14 15  1  0  0  0
 15 16  1  0  0  0
 16 17  2  0  0  0
 13  1  1  0  0  0
  1  2  1  0  0  0
  2  3  1  0  0  0
  3  4  1  0  0  0
  4  5  1  0  0  0
  5  6  1  0  0  0
  4  7  1  0  0  0
  7  8  2  0  0  0
  7 22  1  0  0  0
 22 23  1  0  0  0
 23 24  1  0  0  0
 24 25  2  0  0  0
 25 26  1  0  0  0
 26 27  2  0  0  0
 27 28  1  0  0  0
 28 29  2  0  0  0
 17  9  1  0  0  0
  6  1  1  0  0  0
 29 24  1  0  0  0
 16 12  1  0  0  0
 15 18  1  0  0  0
M  CHG 1  19  -1
M  CHG 1  20   1
M  END
> <minimizedAffinity>
-9.96315

> <CNNscore>
0.4994805157

> <CNNaffinity>
6.5585265160

> <CNN_VS>
3.2758562565

> <CNNaffinity_variance>
0.0725345612

$$$$
[H]c1c([H])c([H])c(C([H])([H])OC(=O)N2C([H])([H])C([H])([H])C([H])(c3c([H])n([H])c4c([H])c([N+](=O)[O-])c([H])c([H])c34)C([H])([H])C2([H])[H])c([H])c1[H]


 29 32  0  0  0  0  0  0  0  0999 V2000
   12.9440   25.8133   -1.6099 C   0  0  0  0  0  0  0  0  0  0  0  0
   11.5921   25.2733   -1.8984 C   0  0  0  0  0  0  0  0  0  0  0  0
   11.1837   23.9821   -1.2264 C   0  0  0  0  0  0  0  0  0  0  0  0
   11.2153   24.2411    0.2082 N   0  0  0  0  0  0  0  0  0  0  0  0
   12.4029   24.9304    0.6831 C   0  0  0  0  0  0  0  0  0  0  0  0
   13.4429   24.9636   -0.4155 C   0  0  0  0  0  0  0  0  0  0  0  0
   10.1919   23.9098    1.0917 C   0  0  0  0  0  0  0  0  0  0  0  0
    9.1472   23.3863    0.5777 O   0  0  0  0  0  0  0  0  0  0  0  0
   15.4119   22.2958   -4.6568 C   0  0  0  0  0  0  0  0  0  0  0  0
   14.4823   22.0706   -3.6208 C   0  0  0  0  0  0  0  0  0  0  0  0
   13.9053   23.0930   -2.9214 C   0  0  0  0  0  0  0  0  0  0  0  0
   14.2840   24.3776   -3.2821 C   0  0  0  0  0  0  0  0  0  0  0  0
   13.9311   25.5732   -2.6721 C   0  0  0  0  0  0  0  0  0  0  0  0
   14.6149   26.5880   -3.3192 C   0  0  0  0  0  0  0  0  0  0  0  0
   15.3597   26.0068   -4.2843 N   0  0  0  0  0  0  0  0  0  0  0  0
   15.1728   24.6547   -4.2718 C   0  0  0  0  0  0  0  0  0  0  0  0
   15.7421   23.5864   -4.9723 C   0  0  0  0  0  0  0  0  0  0  0  0
   15.9707   26.5208   -4.9429 H   0  0  0  0  0  0  0  0  0  0  0  0
   17.2992   21.3807   -5.8438 O   0  0  0  0  0  0  0  0  0  0  0  0
   16.0473   21.1894   -5.3216 N   0  0  0  0  0  0  0  0  0  0  0  0
   15.4492   20.1228   -5.4070 O   0  0  0  0  0  0  0  0  0  0  0  0
   10.2398   24.0982    2.4489 O   0  0  0  0  0  0  0  0  0  0  0  0
    9.5471   25.1650    3.0822 C   0  0  0  0  0  0  0  0  0  0  0  0
    8.4675   24.5395    3.8764 C   0  0  0  0  0  0  0  0  0  0  0  0
    7.6295   25.2521    4.6968 C   0  0  0  0  0  0  0  0  0  0  0  0
    6.6560   24.6220    5.4233 C   0  0  0  0  0  0  0  0  0  0  0  0
    6.4724   23.2640    5.3745 C   0  0  0  0  0  0  0  0  0  0  0  0
    7.3142   22.5118    4.5524 C   0  0  0  0  0  0  0  0  0  0  0  0
    8.2861   23.1625    3.8260 C   0  0  0  0  0  0  0  0  0  0  0  0
 19 20  1  0  0  0
 20 21  2  0  0  0
 20  9  1  0  0  0
  9 10  2  0  0  0
 10 11  1  0  0  0
 11 12  2  0  0  0
 12 13  1  0  0  0
 13 14  2  0  0  0
 14 15  1  0  0  0
 15 16  1  0  0  0
 16 17  2  0  0  0
 13  1  1  0  0  0
  1  2  1  0  0  0
  2  3  1  0  0  0
  3  4  1  0  0  0
  4  5  1  0  0  0
  5  6  1  0  0  0
  4  7  1  0  0  0
  7  8  2  0  0  0
  7 22  1  0  0  0
 22 23  1  0  0  0
 23 24  1  0  0  0
 24 25  2  0  0  0
 25 26  1  0  0  0
 26 27  2  0  0  0
 27 28  1  0  0  0
 28 29  2  0  0  0
 17  9  1  0  0  0
  6  1  1  0  0  0
 29 24  1  0  0  0
 16 12  1  0  0  0
 15 18  1  0  0  0
M  CHG 1  19  -1
M  CHG 1  20   1
M  END
> <minimizedAffinity>
3.01157

> <CNNscore>
0.4817091227

> <CNNaffinity>
6.5855512619

> <CNN_VS>
3.1723201275

> <CNNaffinity_variance>
0.7759105563

$$$$
[H]c1c(N([H])C(=O)[C@]2([H])N(C(=O)c3c([H])c([H])c([H])c(C(F)(F)F)c3[H])C([H])([H])c3c([H])c([H])c([H])c([H])c3C2([H])[H])noc1C(C([H])([H])[H])(C([H])([H])[H])C([H])([H])[H]


 35 38  0  0  0  0  0  0  0  0999 V2000
   12.4508   23.9807   -0.2649 C   0  0  0  0  0  0  0  0  0  0  0  0
   11.4261   24.2620    0.8971 C   0  0  0  0  0  0  0  0  0  0  0  0
   10.1182   23.7076    0.5337 C   0  0  0  0  0  0  0  0  0  0  0  0
    8.9774   24.1957    1.2163 C   0  0  0  0  0  0  0  0  0  0  0  0
    7.7299   23.7169    0.9464 C   0  0  0  0  0  0  0  0  0  0  0  0
    7.6032   22.7177   -0.0358 C   0  0  0  0  0  0  0  0  0  0  0  0
    8.6983   22.2415   -0.7020 C   0  0  0  0  0  0  0  0  0  0  0  0
    9.9639   22.7326   -0.4233 C   0  0  0  0  0  0  0  0  0  0  0  0
   11.0803   22.1320   -1.1685 C   0  0  0  0  0  0  0  0  0  0  0  0
   12.3546   22.6036   -0.5613 N   0  0  0  0  0  0  0  0  0  0  0  0
   13.2827   21.6174   -0.3028 C   0  0  0  0  0  0  0  0  0  0  0  0
   12.9575   20.3707   -0.5767 O   0  0  0  0  0  0  0  0  0  0  0  0
   14.6004   21.7480    0.2507 C   0  0  0  0  0  0  0  0  0  0  0  0
   15.2503   20.5883    0.7429 C   0  0  0  0  0  0  0  0  0  0  0  0
   16.5306   20.5955    1.2309 C   0  0  0  0  0  0  0  0  0  0  0  0
   17.2542   21.7607    1.2589 C   0  0  0  0  0  0  0  0  0  0  0  0
   16.6747   22.9050    0.7924 C   0  0  0  0  0  0  0  0  0  0  0  0
   15.3616   22.8847    0.2962 C   0  0  0  0  0  0  0  0  0  0  0  0
   17.3856   24.2231    0.7772 C   0  0  0  0  0  0  0  0  0  0  0  0
   18.3464   24.2408    1.7689 F   0  0  0  0  0  0  0  0  0  0  0  0
   18.0059   24.4134   -0.4312 F   0  0  0  0  0  0  0  0  0  0  0  0
   16.4551   25.2286    0.9590 F   0  0  0  0  0  0  0  0  0  0  0  0
   12.9946   25.7466   -1.9067 N   0  0  0  0  0  0  0  0  0  0  0  0
   11.9790   24.9334   -1.3033 C   0  0  0  0  0  0  0  0  0  0  0  0
   10.8152   25.1071   -1.6825 O   0  0  0  0  0  0  0  0  0  0  0  0
   13.9877   25.6237   -1.6267 H   0  0  0  0  0  0  0  0  0  0  0  0
   12.0442   28.7457   -3.7277 C   0  0  0  0  0  0  0  0  0  0  0  0
   12.3256   28.0821   -2.5594 C   0  0  0  0  0  0  0  0  0  0  0  0
   12.6804   26.7817   -2.8266 C   0  0  0  0  0  0  0  0  0  0  0  0
   12.6028   26.7021   -4.1814 N   0  0  0  0  0  0  0  0  0  0  0  0
   12.2329   27.8520   -4.6898 O   0  0  0  0  0  0  0  0  0  0  0  0
   11.4624   30.7120   -2.4235 C   0  0  0  0  0  0  0  0  0  0  0  0
   11.6156   30.1623   -3.8393 C   0  0  0  0  0  0  0  0  0  0  0  0
   10.2943   30.3366   -4.5323 C   0  0  0  0  0  0  0  0  0  0  0  0
   12.6980   31.0022   -4.5165 C   0  0  0  0  0  0  0  0  0  0  0  0
 32 33  1  0  0  0
 33 34  1  0  0  0
 33 35  1  0  0  0
 33 27  1  0  0  0
 27 28  2  0  0  0
 28 29  1  0  0  0
 29 23  1  0  0  0
 23 24  1  0  0  0
 24 25  2  0  0  0
 24  1  1  0  0  0
  1  2  1  0  0  0
  2  3  1  0  0  0
  3  4  2  0  0  0
  4  5  1  0  0  0
  5  6  2  0  0  0
  6  7  1  0  0  0
  7  8  2  0  0  0
  8  9  1  0  0  0
  9 10  1  0  0  0
 10 11  1  0  0  0
 11 12  2  0  0  0
 11 13  1  0  0  0
 13 14  2  0  0  0
 14 15  1  0  0  0
 15 16  2  0  0  0
 16 17  1  0  0  0
 17 18  2  0  0  0
 17 19  1  0  0  0
 19 20  1  0  0  0
 19 21  1  0  0  0
 19 22  1  0  0  0
 29 30  2  0  0  0
 30 31  1  0  0  0
 31 27  1  0  0  0
 10  1  1  0  0  0
 18 13  1  0  0  0
  8  3  1  0  0  0
 23 26  1  0  0  0
M  END
> <minimizedAffinity>
15.50089

> <CNNscore>
0.5108444095

> <CNNaffinity>
7.0263280869

> <CNN_VS>
3.5893604755

> <CNNaffinity_variance>
1.8666059971

$$$$
[H]c1c(N([H])C(=O)[C@]2([H])N(C(=O)c3c([H])c([H])c([H])c(C(F)(F)F)c3[H])C([H])([H])c3c([H])c([H])c([H])c([H])c3C2([H])[H])noc1C(C([H])([H])[H])(C([H])([H])[H])C([H])([H])[H]


 35 38  0  0  0  0  0  0  0  0999 V2000
   12.8797   24.2322   -2.2385 C   0  0  0  0  0  0  0  0  0  0  0  0
   14.1925   23.5739   -2.8064 C   0  0  0  0  0  0  0  0  0  0  0  0
   15.3549   24.3458   -2.3556 C   0  0  0  0  0  0  0  0  0  0  0  0
   16.5696   24.1931   -3.0675 C   0  0  0  0  0  0  0  0  0  0  0  0
   17.6977   24.8635   -2.6982 C   0  0  0  0  0  0  0  0  0  0  0  0
   17.6240   25.7182   -1.5831 C   0  0  0  0  0  0  0  0  0  0  0  0
   16.4553   25.8739   -0.8906 C   0  0  0  0  0  0  0  0  0  0  0  0
   15.3118   25.1898   -1.2712 C   0  0  0  0  0  0  0  0  0  0  0  0
   14.1152   25.3983   -0.4422 C   0  0  0  0  0  0  0  0  0  0  0  0
   13.0843   24.4062   -0.8523 N   0  0  0  0  0  0  0  0  0  0  0  0
   12.4822   23.7226    0.1826 C   0  0  0  0  0  0  0  0  0  0  0  0
   12.8844   23.9747    1.4112 O   0  0  0  0  0  0  0  0  0  0  0  0
   11.4472   22.7303    0.1204 C   0  0  0  0  0  0  0  0  0  0  0  0
   11.7241   21.4966   -0.5206 C   0  0  0  0  0  0  0  0  0  0  0  0
   10.8274   20.4621   -0.5769 C   0  0  0  0  0  0  0  0  0  0  0  0
    9.5915   20.5849    0.0057 C   0  0  0  0  0  0  0  0  0  0  0  0
    9.2771   21.7522    0.6392 C   0  0  0  0  0  0  0  0  0  0  0  0
   10.2043   22.8053    0.6889 C   0  0  0  0  0  0  0  0  0  0  0  0
    7.9566   21.9786    1.3085 C   0  0  0  0  0  0  0  0  0  0  0  0
    7.6744   23.3303    1.3273 F   0  0  0  0  0  0  0  0  0  0  0  0
    6.9595   21.3368    0.6195 F   0  0  0  0  0  0  0  0  0  0  0  0
    8.0150   21.4582    2.5875 F   0  0  0  0  0  0  0  0  0  0  0  0
   11.7096   26.3486   -2.7497 N   0  0  0  0  0  0  0  0  0  0  0  0
   12.7884   25.4599   -3.0708 C   0  0  0  0  0  0  0  0  0  0  0  0
   13.5256   25.7807   -4.0100 O   0  0  0  0  0  0  0  0  0  0  0  0
   11.0741   26.1237   -1.9589 H   0  0  0  0  0  0  0  0  0  0  0  0
   10.3555   29.1486   -4.6313 C   0  0  0  0  0  0  0  0  0  0  0  0
   10.2072   28.0877   -3.7729 C   0  0  0  0  0  0  0  0  0  0  0  0
   11.4254   27.4991   -3.5320 C   0  0  0  0  0  0  0  0  0  0  0  0
   12.2909   28.2448   -4.2687 N   0  0  0  0  0  0  0  0  0  0  0  0
   11.6535   29.1999   -4.9004 O   0  0  0  0  0  0  0  0  0  0  0  0
    8.5764   29.2886   -6.2808 C   0  0  0  0  0  0  0  0  0  0  0  0
    9.2627   30.0202   -5.1302 C   0  0  0  0  0  0  0  0  0  0  0  0
    9.7436   31.3400   -5.6628 C   0  0  0  0  0  0  0  0  0  0  0  0
    8.2003   30.2257   -4.0510 C   0  0  0  0  0  0  0  0  0  0  0  0
 32 33  1  0  0  0
 33 34  1  0  0  0
 33 35  1  0  0  0
 33 27  1  0  0  0
 27 28  2  0  0  0
 28 29  1  0  0  0
 29 23  1  0  0  0
 23 24  1  0  0  0
 24 25  2  0  0  0
 24  1  1  0  0  0
  1  2  1  0  0  0
  2  3  1  0  0  0
  3  4  2  0  0  0
  4  5  1  0  0  0
  5  6  2  0  0  0
  6  7  1  0  0  0
  7  8  2  0  0  0
  8  9  1  0  0  0
  9 10  1  0  0  0
 10 11  1  0  0  0
 11 12  2  0  0  0
 11 13  1  0  0  0
 13 14  2  0  0  0
 14 15  1  0  0  0
 15 16  2  0  0  0
 16 17  1  0  0  0
 17 18  2  0  0  0
 17 19  1  0  0  0
 19 20  1  0  0  0
 19 21  1  0  0  0
 19 22  1  0  0  0
 29 30  2  0  0  0
 30 31  1  0  0  0
 31 27  1  0  0  0
 10  1  1  0  0  0
 18 13  1  0  0  0
  8  3  1  0  0  0
 23 26  1  0  0  0
M  END
> <minimizedAffinity>
23.78507

> <CNNscore>
0.4766508639

> <CNNaffinity>
6.8201231956

> <CNN_VS>
3.2508175373

> <CNNaffinity_variance>
0.5316898227

$$$$
[H]c1c(N([H])C(=O)[C@]2([H])N(C(=O)c3c([H])c([H])c([H])c(C(F)(F)F)c3[H])C([H])([H])c3c([H])c([H])c([H])c([H])c3C2([H])[H])noc1C(C([H])([H])[H])(C([H])([H])[H])C([H])([H])[H]


 35 38  0  0  0  0  0  0  0  0999 V2000
   11.5440   23.5850   -0.1992 C   0  0  0  0  0  0  0  0  0  0  0  0
   11.3591   24.9602   -0.9435 C   0  0  0  0  0  0  0  0  0  0  0  0
   12.3584   25.0710   -2.0108 C   0  0  0  0  0  0  0  0  0  0  0  0
   12.6460   26.3610   -2.5196 C   0  0  0  0  0  0  0  0  0  0  0  0
   13.5499   26.5427   -3.5237 C   0  0  0  0  0  0  0  0  0  0  0  0
   14.1956   25.4070   -4.0458 C   0  0  0  0  0  0  0  0  0  0  0  0
   13.9264   24.1575   -3.5598 C   0  0  0  0  0  0  0  0  0  0  0  0
   13.0065   23.9795   -2.5387 C   0  0  0  0  0  0  0  0  0  0  0  0
   12.7617   22.5945   -2.1094 C   0  0  0  0  0  0  0  0  0  0  0  0
   11.5842   22.5889   -1.1991 N   0  0  0  0  0  0  0  0  0  0  0  0
   10.6297   21.6342   -1.4789 C   0  0  0  0  0  0  0  0  0  0  0  0
   10.8201   20.8517   -2.5211 O   0  0  0  0  0  0  0  0  0  0  0  0
    9.4051   21.3588   -0.7830 C   0  0  0  0  0  0  0  0  0  0  0  0
    8.3789   20.6556   -1.4627 C   0  0  0  0  0  0  0  0  0  0  0  0
    7.2003   20.2880   -0.8683 C   0  0  0  0  0  0  0  0  0  0  0  0
    6.9642   20.5935    0.4480 C   0  0  0  0  0  0  0  0  0  0  0  0
    7.9230   21.2666    1.1483 C   0  0  0  0  0  0  0  0  0  0  0  0
    9.1259   21.6389    0.5274 C   0  0  0  0  0  0  0  0  0  0  0  0
    7.7593   21.6398    2.5894 C   0  0  0  0  0  0  0  0  0  0  0  0
    7.1860   22.8928    2.6795 F   0  0  0  0  0  0  0  0  0  0  0  0
    6.9389   20.7409    3.2218 F   0  0  0  0  0  0  0  0  0  0  0  0
    9.0002   21.6085    3.1971 F   0  0  0  0  0  0  0  0  0  0  0  0
   13.7644   24.6656   -0.0918 N   0  0  0  0  0  0  0  0  0  0  0  0
   12.7958   23.8342    0.5619 C   0  0  0  0  0  0  0  0  0  0  0  0
   13.0913   23.3903    1.6773 O   0  0  0  0  0  0  0  0  0  0  0  0
   13.5510   25.0705   -1.0246 H   0  0  0  0  0  0  0  0  0  0  0  0
   17.2056   24.6601    1.0795 C   0  0  0  0  0  0  0  0  0  0  0  0
   16.1803   24.1173    0.3458 C   0  0  0  0  0  0  0  0  0  0  0  0
   15.0528   24.8945    0.4599 C   0  0  0  0  0  0  0  0  0  0  0  0
   15.4454   25.9079    1.2763 N   0  0  0  0  0  0  0  0  0  0  0  0
   16.6994   25.7575    1.6265 O   0  0  0  0  0  0  0  0  0  0  0  0
   18.4380   22.5829    1.3489 C   0  0  0  0  0  0  0  0  0  0  0  0
   18.5728   24.0969    1.2087 C   0  0  0  0  0  0  0  0  0  0  0  0
   19.3146   24.5938    2.4168 C   0  0  0  0  0  0  0  0  0  0  0  0
   19.3816   24.3450   -0.0641 C   0  0  0  0  0  0  0  0  0  0  0  0
 32 33  1  0  0  0
 33 34  1  0  0  0
 33 35  1  0  0  0
 33 27  1  0  0  0
 27 28  2  0  0  0
 28 29  1  0  0  0
 29 23  1  0  0  0
 23 24  1  0  0  0
 24 25  2  0  0  0
 24  1  1  0  0  0
  1  2  1  0  0  0
  2  3  1  0  0  0
  3  4  2  0  0  0
  4  5  1  0  0  0
  5  6  2  0  0  0
  6  7  1  0  0  0
  7  8  2  0  0  0
  8  9  1  0  0  0
  9 10  1  0  0  0
 10 11  1  0  0  0
 11 12  2  0  0  0
 11 13  1  0  0  0
 13 14  2  0  0  0
 14 15  1  0  0  0
 15 16  2  0  0  0
 16 17  1  0  0  0
 17 18  2  0  0  0
 17 19  1  0  0  0
 19 20  1  0  0  0
 19 21  1  0  0  0
 19 22  1  0  0  0
 29 30  2  0  0  0
 30 31  1  0  0  0
 31 27  1  0  0  0
 10  1  1  0  0  0
 18 13  1  0  0  0
  8  3  1  0  0  0
 23 26  1  0  0  0
M  END
> <minimizedAffinity>
8.36281

> <CNNscore>
0.4756276309

> <CNNaffinity>
7.2089285851

> <CNN_VS>
3.4287655354

> <CNNaffinity_variance>
0.9101189375

$$$$
[H]c1c(N([H])C(=O)[C@]2([H])N(C(=O)c3c([H])c([H])c([H])c(C(F)(F)F)c3[H])C([H])([H])c3c([H])c([H])c([H])c([H])c3C2([H])[H])noc1C(C([H])([H])[H])(C([H])([H])[H])C([H])([H])[H]


 35 38  0  0  0  0  0  0  0  0999 V2000
   10.8640   23.9663    0.5093 C   0  0  0  0  0  0  0  0  0  0  0  0
   10.5444   22.8738   -0.5786 C   0  0  0  0  0  0  0  0  0  0  0  0
   11.6962   21.9770   -0.7167 C   0  0  0  0  0  0  0  0  0  0  0  0
   11.7964   21.2023   -1.8980 C   0  0  0  0  0  0  0  0  0  0  0  0
   12.8287   20.3332   -2.0914 C   0  0  0  0  0  0  0  0  0  0  0  0
   13.8003   20.2247   -1.0797 C   0  0  0  0  0  0  0  0  0  0  0  0
   13.7135   20.9699    0.0635 C   0  0  0  0  0  0  0  0  0  0  0  0
   12.6617   21.8520    0.2540 C   0  0  0  0  0  0  0  0  0  0  0  0
   12.6395   22.5817    1.5305 C   0  0  0  0  0  0  0  0  0  0  0  0
   11.3278   23.2748    1.6495 N   0  0  0  0  0  0  0  0  0  0  0  0
   10.6837   23.1101    2.8574 C   0  0  0  0  0  0  0  0  0  0  0  0
   11.2532   22.3456    3.7663 O   0  0  0  0  0  0  0  0  0  0  0  0
    9.4305   23.6609    3.2885 C   0  0  0  0  0  0  0  0  0  0  0  0
    8.4267   22.7798    3.7635 C   0  0  0  0  0  0  0  0  0  0  0  0
    7.2228   23.2096    4.2567 C   0  0  0  0  0  0  0  0  0  0  0  0
    6.9371   24.5502    4.3139 C   0  0  0  0  0  0  0  0  0  0  0  0
    7.8725   25.4405    3.8722 C   0  0  0  0  0  0  0  0  0  0  0  0
    9.1018   24.9873    3.3677 C   0  0  0  0  0  0  0  0  0  0  0  0
    7.6549   26.9220    3.8992 C   0  0  0  0  0  0  0  0  0  0  0  0
    8.8751   27.5683    3.8774 F   0  0  0  0  0  0  0  0  0  0  0  0
    6.9357   27.3158    2.7997 F   0  0  0  0  0  0  0  0  0  0  0  0
    6.9355   27.2418    5.0350 F   0  0  0  0  0  0  0  0  0  0  0  0
   11.6282   24.9490   -1.6260 N   0  0  0  0  0  0  0  0  0  0  0  0
   11.8443   24.8170   -0.2145 C   0  0  0  0  0  0  0  0  0  0  0  0
   12.8233   25.3998    0.2654 O   0  0  0  0  0  0  0  0  0  0  0  0
   10.8094   24.4864   -2.0680 H   0  0  0  0  0  0  0  0  0  0  0  0
   14.4066   26.2376   -3.5841 C   0  0  0  0  0  0  0  0  0  0  0  0
   13.8348   25.2757   -2.7891 C   0  0  0  0  0  0  0  0  0  0  0  0
   12.5473   25.6314   -2.4664 C   0  0  0  0  0  0  0  0  0  0  0  0
   12.3790   26.8246   -3.0956 N   0  0  0  0  0  0  0  0  0  0  0  0
   13.4683   27.1621   -3.7415 O   0  0  0  0  0  0  0  0  0  0  0  0
   16.2549   24.7547   -4.1233 C   0  0  0  0  0  0  0  0  0  0  0  0
   15.7892   26.2084   -4.1230 C   0  0  0  0  0  0  0  0  0  0  0  0
   16.7709   26.9925   -3.2995 C   0  0  0  0  0  0  0  0  0  0  0  0
   15.8111   26.6718   -5.5792 C   0  0  0  0  0  0  0  0  0  0  0  0
 32 33  1  0  0  0
 33 34  1  0  0  0
 33 35  1  0  0  0
 33 27  1  0  0  0
 27 28  2  0  0  0
 28 29  1  0  0  0
 29 23  1  0  0  0
 23 24  1  0  0  0
 24 25  2  0  0  0
 24  1  1  0  0  0
  1  2  1  0  0  0
  2  3  1  0  0  0
  3  4  2  0  0  0
  4  5  1  0  0  0
  5  6  2  0  0  0
  6  7  1  0  0  0
  7  8  2  0  0  0
  8  9  1  0  0  0
  9 10  1  0  0  0
 10 11  1  0  0  0
 11 12  2  0  0  0
 11 13  1  0  0  0
 13 14  2  0  0  0
 14 15  1  0  0  0
 15 16  2  0  0  0
 16 17  1  0  0  0
 17 18  2  0  0  0
 17 19  1  0  0  0
 19 20  1  0  0  0
 19 21  1  0  0  0
 19 22  1  0  0  0
 29 30  2  0  0  0
 30 31  1  0  0  0
 31 27  1  0  0  0
 10  1  1  0  0  0
 18 13  1  0  0  0
  8  3  1  0  0  0
 23 26  1  0  0  0
M  END
> <minimizedAffinity>
-6.98574

> <CNNscore>
0.4665978551

> <CNNaffinity>
7.1397957802

> <CNN_VS>
3.3314135075

> <CNNaffinity_variance>
0.3444780409

$$$$
[H]c1c(N([H])C(=O)[C@]2([H])N(C(=O)c3c([H])c([H])c([H])c(C(F)(F)F)c3[H])C([H])([H])c3c([H])c([H])c([H])c([H])c3C2([H])[H])noc1C(C([H])([H])[H])(C([H])([H])[H])C([H])([H])[H]


 35 38  0  0  0  0  0  0  0  0999 V2000
   12.3522   24.5181   -0.7124 C   0  0  0  0  0  0  0  0  0  0  0  0
   11.1616   24.4460    0.3155 C   0  0  0  0  0  0  0  0  0  0  0  0
   10.2150   23.4110   -0.1123 C   0  0  0  0  0  0  0  0  0  0  0  0
    8.8993   23.4582    0.4095 C   0  0  0  0  0  0  0  0  0  0  0  0
    7.9682   22.5213    0.0726 C   0  0  0  0  0  0  0  0  0  0  0  0
    8.3503   21.4981   -0.8142 C   0  0  0  0  0  0  0  0  0  0  0  0
    9.6175   21.4451   -1.3250 C   0  0  0  0  0  0  0  0  0  0  0  0
   10.5596   22.4008   -0.9789 C   0  0  0  0  0  0  0  0  0  0  0  0
   11.9031   22.2371   -1.5539 C   0  0  0  0  0  0  0  0  0  0  0  0
   12.8197   23.1963   -0.8795 N   0  0  0  0  0  0  0  0  0  0  0  0
   14.0114   22.6602   -0.4398 C   0  0  0  0  0  0  0  0  0  0  0  0
   14.2167   21.3715   -0.6188 O   0  0  0  0  0  0  0  0  0  0  0  0
   15.1030   23.3191    0.2190 C   0  0  0  0  0  0  0  0  0  0  0  0
   16.2727   22.5732    0.5105 C   0  0  0  0  0  0  0  0  0  0  0  0
   17.3920   23.1236    1.0776 C   0  0  0  0  0  0  0  0  0  0  0  0
   17.4240   24.4588    1.3908 C   0  0  0  0  0  0  0  0  0  0  0  0
   16.3239   25.2220    1.1262 C   0  0  0  0  0  0  0  0  0  0  0  0
   15.1826   24.6458    0.5461 C   0  0  0  0  0  0  0  0  0  0  0  0
   16.2655   26.6880    1.4273 C   0  0  0  0  0  0  0  0  0  0  0  0
   17.2891   27.0228    2.2916 F   0  0  0  0  0  0  0  0  0  0  0  0
   16.4159   27.4152    0.2742 F   0  0  0  0  0  0  0  0  0  0  0  0
   15.0295   26.9774    1.9737 F   0  0  0  0  0  0  0  0  0  0  0  0
   12.4769   26.1210   -2.5898 N   0  0  0  0  0  0  0  0  0  0  0  0
   11.6889   25.1564   -1.8790 C   0  0  0  0  0  0  0  0  0  0  0  0
   10.5376   24.9574   -2.2832 O   0  0  0  0  0  0  0  0  0  0  0  0
   13.4545   26.3090   -2.2916 H   0  0  0  0  0  0  0  0  0  0  0  0
   10.5575   28.1259   -4.9371 C   0  0  0  0  0  0  0  0  0  0  0  0
   10.7217   27.5323   -3.7103 C   0  0  0  0  0  0  0  0  0  0  0  0
   11.9385   26.8965   -3.6505 C   0  0  0  0  0  0  0  0  0  0  0  0
   12.4838   27.1361   -4.8724 N   0  0  0  0  0  0  0  0  0  0  0  0
   11.6692   27.8527   -5.6076 O   0  0  0  0  0  0  0  0  0  0  0  0
    8.2526   27.8929   -5.6714 C   0  0  0  0  0  0  0  0  0  0  0  0
    9.3663   28.8944   -5.3767 C   0  0  0  0  0  0  0  0  0  0  0  0
    9.5949   29.6908   -6.6297 C   0  0  0  0  0  0  0  0  0  0  0  0
    8.8564   29.7916   -4.2495 C   0  0  0  0  0  0  0  0  0  0  0  0
 32 33  1  0  0  0
 33 34  1  0  0  0
 33 35  1  0  0  0
 33 27  1  0  0  0
 27 28  2  0  0  0
 28 29  1  0  0  0
 29 23  1  0  0  0
 23 24  1  0  0  0
 24 25  2  0  0  0
 24  1  1  0  0  0
  1  2  1  0  0  0
  2  3  1  0  0  0
  3  4  2  0  0  0
  4  5  1  0  0  0
  5  6  2  0  0  0
  6  7  1  0  0  0
  7  8  2  0  0  0
  8  9  1  0  0  0
  9 10  1  0  0  0
 10 11  1  0  0  0
 11 12  2  0  0  0
 11 13  1  0  0  0
 13 14  2  0  0  0
 14 15  1  0  0  0
 15 16  2  0  0  0
 16 17  1  0  0  0
 17 18  2  0  0  0
 17 19  1  0  0  0
 19 20  1  0  0  0
 19 21  1  0  0  0
 19 22  1  0  0  0
 29 30  2  0  0  0
 30 31  1  0  0  0
 31 27  1  0  0  0
 10  1  1  0  0  0
 18 13  1  0  0  0
  8  3  1  0  0  0
 23 26  1  0  0  0
M  END
> <minimizedAffinity>
30.07044

> <CNNscore>
0.4655185342

> <CNNaffinity>
6.6895432472

> <CNN_VS>
3.1141064167

> <CNNaffinity_variance>
1.1606190205

$$$$
[H]c1c(N([H])C(=O)[C@]2([H])N(C(=O)c3c([H])c([H])c([H])c(C(F)(F)F)c3[H])C([H])([H])c3c([H])c([H])c([H])c([H])c3C2([H])[H])noc1C(C([H])([H])[H])(C([H])([H])[H])C([H])([H])[H]


 35 38  0  0  0  0  0  0  0  0999 V2000
   12.3363   23.8878    0.0993 C   0  0  0  0  0  0  0  0  0  0  0  0
   12.1684   25.4319   -0.1593 C   0  0  0  0  0  0  0  0  0  0  0  0
   12.4845   25.7249   -1.5608 C   0  0  0  0  0  0  0  0  0  0  0  0
   12.8024   27.0616   -1.9042 C   0  0  0  0  0  0  0  0  0  0  0  0
   13.0901   27.4152   -3.1889 C   0  0  0  0  0  0  0  0  0  0  0  0
   13.0637   26.4103   -4.1731 C   0  0  0  0  0  0  0  0  0  0  0  0
   12.7601   25.1165   -3.8513 C   0  0  0  0  0  0  0  0  0  0  0  0
   12.4688   24.7633   -2.5433 C   0  0  0  0  0  0  0  0  0  0  0  0
   12.1215   23.3543   -2.3052 C   0  0  0  0  0  0  0  0  0  0  0  0
   11.6071   23.2287   -0.9143 N   0  0  0  0  0  0  0  0  0  0  0  0
   10.4307   22.5215   -0.7845 C   0  0  0  0  0  0  0  0  0  0  0  0
    9.8597   22.0590   -1.8776 O   0  0  0  0  0  0  0  0  0  0  0  0
    9.6992   22.2080    0.4099 C   0  0  0  0  0  0  0  0  0  0  0  0
    8.2975   22.4185    0.4250 C   0  0  0  0  0  0  0  0  0  0  0  0
    7.5009   22.0917    1.4909 C   0  0  0  0  0  0  0  0  0  0  0  0
    8.0471   21.5284    2.6162 C   0  0  0  0  0  0  0  0  0  0  0  0
    9.3925   21.3014    2.6502 C   0  0  0  0  0  0  0  0  0  0  0  0
   10.1981   21.6420    1.5520 C   0  0  0  0  0  0  0  0  0  0  0  0
   10.0791   20.6868    3.8307 C   0  0  0  0  0  0  0  0  0  0  0  0
   10.9953   19.7497    3.3955 F   0  0  0  0  0  0  0  0  0  0  0  0
   10.7478   21.6485    4.5441 F   0  0  0  0  0  0  0  0  0  0  0  0
    9.1233   20.1149    4.6489 F   0  0  0  0  0  0  0  0  0  0  0  0
   14.4101   23.2024    1.2564 N   0  0  0  0  0  0  0  0  0  0  0  0
   13.8156   23.7490    0.0714 C   0  0  0  0  0  0  0  0  0  0  0  0
   14.5773   24.0684   -0.8486 O   0  0  0  0  0  0  0  0  0  0  0  0
   13.8051   22.9084    2.0485 H   0  0  0  0  0  0  0  0  0  0  0  0
   17.9908   23.6465    1.6982 C   0  0  0  0  0  0  0  0  0  0  0  0
   16.7095   24.1379    1.6638 C   0  0  0  0  0  0  0  0  0  0  0  0
   15.8181   23.1205    1.4217 C   0  0  0  0  0  0  0  0  0  0  0  0
   16.6101   22.0205    1.3186 N   0  0  0  0  0  0  0  0  0  0  0  0
   17.8697   22.3431    1.4829 O   0  0  0  0  0  0  0  0  0  0  0  0
   20.2386   24.0392    0.8620 C   0  0  0  0  0  0  0  0  0  0  0  0
   19.2208   24.4458    1.9245 C   0  0  0  0  0  0  0  0  0  0  0  0
   19.8539   24.2060    3.2655 C   0  0  0  0  0  0  0  0  0  0  0  0
   18.9441   25.9340    1.7139 C   0  0  0  0  0  0  0  0  0  0  0  0
 32 33  1  0  0  0
 33 34  1  0  0  0
 33 35  1  0  0  0
 33 27  1  0  0  0
 27 28  2  0  0  0
 28 29  1  0  0  0
 29 23  1  0  0  0
 23 24  1  0  0  0
 24 25  2  0  0  0
 24  1  1  0  0  0
  1  2  1  0  0  0
  2  3  1  0  0  0
  3  4  2  0  0  0
  4  5  1  0  0  0
  5  6  2  0  0  0
  6  7  1  0  0  0
  7  8  2  0  0  0
  8  9  1  0  0  0
  9 10  1  0  0  0
 10 11  1  0  0  0
 11 12  2  0  0  0
 11 13  1  0  0  0
 13 14  2  0  0  0
 14 15  1  0  0  0
 15 16  2  0  0  0
 16 17  1  0  0  0
 17 18  2  0  0  0
 17 19  1  0  0  0
 19 20  1  0  0  0
 19 21  1  0  0  0
 19 22  1  0  0  0
 29 30  2  0  0  0
 30 31  1  0  0  0
 31 27  1  0  0  0
 10  1  1  0  0  0
 18 13  1  0  0  0
  8  3  1  0  0  0
 23 26  1  0  0  0
M  END
> <minimizedAffinity>
20.67689

> <CNNscore>
0.4620209336

> <CNNaffinity>
6.8611631393

> <CNN_VS>
3.1700010300

> <CNNaffinity_variance>
1.1852462292

$$$$
[H]c1c(N([H])C(=O)[C@]2([H])N(C(=O)c3c([H])c([H])c([H])c(C(F)(F)F)c3[H])C([H])([H])c3c([H])c([H])c([H])c([H])c3C2([H])[H])noc1C(C([H])([H])[H])(C([H])([H])[H])C([H])([H])[H]


 35 38  0  0  0  0  0  0  0  0999 V2000
   11.2767   23.7688    1.3465 C   0  0  0  0  0  0  0  0  0  0  0  0
   11.0498   24.7755    2.5358 C   0  0  0  0  0  0  0  0  0  0  0  0
    9.6946   25.3285    2.4498 C   0  0  0  0  0  0  0  0  0  0  0  0
    9.4238   26.5328    3.1440 C   0  0  0  0  0  0  0  0  0  0  0  0
    8.1838   27.0989    3.1261 C   0  0  0  0  0  0  0  0  0  0  0  0
    7.1717   26.4516    2.3941 C   0  0  0  0  0  0  0  0  0  0  0  0
    7.4237   25.2897    1.7187 C   0  0  0  0  0  0  0  0  0  0  0  0
    8.6866   24.7192    1.7406 C   0  0  0  0  0  0  0  0  0  0  0  0
    8.8477   23.4523    1.0117 C   0  0  0  0  0  0  0  0  0  0  0  0
   10.1784   22.8815    1.3557 N   0  0  0  0  0  0  0  0  0  0  0  0
   10.1735   21.5474    1.7036 C   0  0  0  0  0  0  0  0  0  0  0  0
    9.0172   20.9174    1.7342 O   0  0  0  0  0  0  0  0  0  0  0  0
   11.2822   20.7091    2.0611 C   0  0  0  0  0  0  0  0  0  0  0  0
   11.0939   19.7194    3.0583 C   0  0  0  0  0  0  0  0  0  0  0  0
   12.0682   18.8285    3.4250 C   0  0  0  0  0  0  0  0  0  0  0  0
   13.2987   18.8605    2.8195 C   0  0  0  0  0  0  0  0  0  0  0  0
   13.5295   19.7926    1.8497 C   0  0  0  0  0  0  0  0  0  0  0  0
   12.5233   20.7009    1.4839 C   0  0  0  0  0  0  0  0  0  0  0  0
   14.8375   19.9024    1.1286 C   0  0  0  0  0  0  0  0  0  0  0  0
   15.4462   21.0979    1.4560 F   0  0  0  0  0  0  0  0  0  0  0  0
   15.6698   18.8766    1.4974 F   0  0  0  0  0  0  0  0  0  0  0  0
   14.6013   19.8126   -0.2301 F   0  0  0  0  0  0  0  0  0  0  0  0
   12.2894   24.3006   -0.8446 N   0  0  0  0  0  0  0  0  0  0  0  0
   11.3865   24.7016    0.1949 C   0  0  0  0  0  0  0  0  0  0  0  0
   10.8013   25.7812    0.0513 O   0  0  0  0  0  0  0  0  0  0  0  0
   12.7917   23.3940   -0.7702 H   0  0  0  0  0  0  0  0  0  0  0  0
   13.6156   26.1281   -3.6934 C   0  0  0  0  0  0  0  0  0  0  0  0
   13.6727   25.0969   -2.7891 C   0  0  0  0  0  0  0  0  0  0  0  0
   12.5868   25.1435   -1.9481 C   0  0  0  0  0  0  0  0  0  0  0  0
   11.8910   26.2262   -2.3855 N   0  0  0  0  0  0  0  0  0  0  0  0
   12.5016   26.7864   -3.4009 O   0  0  0  0  0  0  0  0  0  0  0  0
   15.6197   27.4118   -4.1850 C   0  0  0  0  0  0  0  0  0  0  0  0
   14.6170   26.4101   -4.7520 C   0  0  0  0  0  0  0  0  0  0  0  0
   14.0254   27.0214   -5.9901 C   0  0  0  0  0  0  0  0  0  0  0  0
   15.4095   25.1493   -5.0954 C   0  0  0  0  0  0  0  0  0  0  0  0
 32 33  1  0  0  0
 33 34  1  0  0  0
 33 35  1  0  0  0
 33 27  1  0  0  0
 27 28  2  0  0  0
 28 29  1  0  0  0
 29 23  1  0  0  0
 23 24  1  0  0  0
 24 25  2  0  0  0
 24  1  1  0  0  0
  1  2  1  0  0  0
  2  3  1  0  0  0
  3  4  2  0  0  0
  4  5  1  0  0  0
  5  6  2  0  0  0
  6  7  1  0  0  0
  7  8  2  0  0  0
  8  9  1  0  0  0
  9 10  1  0  0  0
 10 11  1  0  0  0
 11 12  2  0  0  0
 11 13  1  0  0  0
 13 14  2  0  0  0
 14 15  1  0  0  0
 15 16  2  0  0  0
 16 17  1  0  0  0
 17 18  2  0  0  0
 17 19  1  0  0  0
 19 20  1  0  0  0
 19 21  1  0  0  0
 19 22  1  0  0  0
 29 30  2  0  0  0
 30 31  1  0  0  0
 31 27  1  0  0  0
 10  1  1  0  0  0
 18 13  1  0  0  0
  8  3  1  0  0  0
 23 26  1  0  0  0
M  END
> <minimizedAffinity>
6.64507

> <CNNscore>
0.4600413144

> <CNNaffinity>
6.7576026917

> <CNN_VS>
3.1087763309

> <CNNaffinity_variance>
1.2586462498

$$$$
[H]c1c(N([H])C(=O)[C@]2([H])N(C(=O)c3c([H])c([H])c([H])c(C(F)(F)F)c3[H])C([H])([H])c3c([H])c([H])c([H])c([H])c3C2([H])[H])noc1C(C([H])([H])[H])(C([H])([H])[H])C([H])([H])[H]


 35 38  0  0  0  0  0  0  0  0999 V2000
   12.1962   23.9476   -1.6578 C   0  0  0  0  0  0  0  0  0  0  0  0
   10.6467   23.8762   -1.9286 C   0  0  0  0  0  0  0  0  0  0  0  0
    9.9243   24.2157   -0.6985 C   0  0  0  0  0  0  0  0  0  0  0  0
    8.5693   23.8177   -0.5931 C   0  0  0  0  0  0  0  0  0  0  0  0
    7.8270   24.1120    0.5118 C   0  0  0  0  0  0  0  0  0  0  0  0
    8.4462   24.8267    1.5534 C   0  0  0  0  0  0  0  0  0  0  0  0
    9.7546   25.2135    1.4621 C   0  0  0  0  0  0  0  0  0  0  0  0
   10.5040   24.9110    0.3363 C   0  0  0  0  0  0  0  0  0  0  0  0
   11.8906   25.4003    0.3193 C   0  0  0  0  0  0  0  0  0  0  0  0
   12.4407   25.1977   -1.0487 N   0  0  0  0  0  0  0  0  0  0  0  0
   13.0842   26.2899   -1.5910 C   0  0  0  0  0  0  0  0  0  0  0  0
   13.1261   27.4006   -0.8844 O   0  0  0  0  0  0  0  0  0  0  0  0
   13.7340   26.4071   -2.8653 C   0  0  0  0  0  0  0  0  0  0  0  0
   12.9824   26.1496   -4.0393 C   0  0  0  0  0  0  0  0  0  0  0  0
   13.4909   26.2959   -5.3032 C   0  0  0  0  0  0  0  0  0  0  0  0
   14.7852   26.7131   -5.4845 C   0  0  0  0  0  0  0  0  0  0  0  0
   15.5499   26.9781   -4.3856 C   0  0  0  0  0  0  0  0  0  0  0  0
   15.0175   26.8230   -3.0958 C   0  0  0  0  0  0  0  0  0  0  0  0
   16.9703   27.4430   -4.4820 C   0  0  0  0  0  0  0  0  0  0  0  0
   17.7375   26.7805   -3.5442 F   0  0  0  0  0  0  0  0  0  0  0  0
   17.4754   27.1690   -5.7274 F   0  0  0  0  0  0  0  0  0  0  0  0
   17.0017   28.8103   -4.2838 F   0  0  0  0  0  0  0  0  0  0  0  0
   11.5341   22.6094    0.3121 N   0  0  0  0  0  0  0  0  0  0  0  0
   12.4002   22.7345   -0.8240 C   0  0  0  0  0  0  0  0  0  0  0  0
   13.2399   21.8436   -0.9966 O   0  0  0  0  0  0  0  0  0  0  0  0
   10.8051   23.3291    0.4867 H   0  0  0  0  0  0  0  0  0  0  0  0
   11.6837   20.3736    3.1743 C   0  0  0  0  0  0  0  0  0  0  0  0
   11.2925   21.5473    2.5797 C   0  0  0  0  0  0  0  0  0  0  0  0
   11.6891   21.5672    1.2641 C   0  0  0  0  0  0  0  0  0  0  0  0
   12.3193   20.3736    1.1030 N   0  0  0  0  0  0  0  0  0  0  0  0
   12.3064   19.6915    2.2220 O   0  0  0  0  0  0  0  0  0  0  0  0
   10.5693   21.0792    5.2155 C   0  0  0  0  0  0  0  0  0  0  0  0
   11.4438   19.9959    4.5895 C   0  0  0  0  0  0  0  0  0  0  0  0
   12.7003   19.9069    5.4080 C   0  0  0  0  0  0  0  0  0  0  0  0
   10.6486   18.6935    4.6736 C   0  0  0  0  0  0  0  0  0  0  0  0
 32 33  1  0  0  0
 33 34  1  0  0  0
 33 35  1  0  0  0
 33 27  1  0  0  0
 27 28  2  0  0  0
 28 29  1  0  0  0
 29 23  1  0  0  0
 23 24  1  0  0  0
 24 25  2  0  0  0
 24  1  1  0  0  0
  1  2  1  0  0  0
  2  3  1  0  0  0
  3  4  2  0  0  0
  4  5  1  0  0  0
  5  6  2  0  0  0
  6  7  1  0  0  0
  7  8  2  0  0  0
  8  9  1  0  0  0
  9 10  1  0  0  0
 10 11  1  0  0  0
 11 12  2  0  0  0
 11 13  1  0  0  0
 13 14  2  0  0  0
 14 15  1  0  0  0
 15 16  2  0  0  0
 16 17  1  0  0  0
 17 18  2  0  0  0
 17 19  1  0  0  0
 19 20  1  0  0  0
 19 21  1  0  0  0
 19 22  1  0  0  0
 29 30  2  0  0  0
 30 31  1  0  0  0
 31 27  1  0  0  0
 10  1  1  0  0  0
 18 13  1  0  0  0
  8  3  1  0  0  0
 23 26  1  0  0  0
M  END
> <minimizedAffinity>
10.02319

> <CNNscore>
0.4477586746

> <CNNaffinity>
6.8657007217

> <CNN_VS>
3.0741770267

> <CNNaffinity_variance>
1.5859467983

$$$$
[H]c1c(N([H])C(=O)[C@]2([H])N(C(=O)c3c([H])c([H])c([H])c(C(F)(F)F)c3[H])C([H])([H])c3c([H])c([H])c([H])c([H])c3C2([H])[H])noc1C(C([H])([H])[H])(C([H])([H])[H])C([H])([H])[H]


 35 38  0  0  0  0  0  0  0  0999 V2000
   13.1484   23.8283   -0.2409 C   0  0  0  0  0  0  0  0  0  0  0  0
   12.0789   24.3770    0.7762 C   0  0  0  0  0  0  0  0  0  0  0  0
   10.7495   23.8966    0.3865 C   0  0  0  0  0  0  0  0  0  0  0  0
    9.6202   24.5863    0.8912 C   0  0  0  0  0  0  0  0  0  0  0  0
    8.3520   24.1890    0.5879 C   0  0  0  0  0  0  0  0  0  0  0  0
    8.1919   23.0675   -0.2463 C   0  0  0  0  0  0  0  0  0  0  0  0
    9.2758   22.3962   -0.7404 C   0  0  0  0  0  0  0  0  0  0  0  0
   10.5627   22.8053   -0.4286 C   0  0  0  0  0  0  0  0  0  0  0  0
   11.6606   21.9976   -0.9808 C   0  0  0  0  0  0  0  0  0  0  0  0
   12.9308   22.4369   -0.3416 N   0  0  0  0  0  0  0  0  0  0  0  0
   13.7308   21.4203    0.1354 C   0  0  0  0  0  0  0  0  0  0  0  0
   13.2979   20.1819    0.0184 O   0  0  0  0  0  0  0  0  0  0  0  0
   15.0124   21.5119    0.7748 C   0  0  0  0  0  0  0  0  0  0  0  0
   15.5348   20.3633    1.4208 C   0  0  0  0  0  0  0  0  0  0  0  0
   16.7744   20.3285    2.0036 C   0  0  0  0  0  0  0  0  0  0  0  0
   17.5818   21.4373    1.9797 C   0  0  0  0  0  0  0  0  0  0  0  0
   17.1266   22.5682    1.3661 C   0  0  0  0  0  0  0  0  0  0  0  0
   15.8539   22.5915    0.7738 C   0  0  0  0  0  0  0  0  0  0  0  0
   17.9363   23.8254    1.2841 C   0  0  0  0  0  0  0  0  0  0  0  0
   17.1028   24.8949    1.0222 F   0  0  0  0  0  0  0  0  0  0  0  0
   18.5763   24.0557    2.4751 F   0  0  0  0  0  0  0  0  0  0  0  0
   18.8880   23.6738    0.2936 F   0  0  0  0  0  0  0  0  0  0  0  0
   13.8782   24.6751   -2.4454 N   0  0  0  0  0  0  0  0  0  0  0  0
   12.8529   24.6506   -1.4430 C   0  0  0  0  0  0  0  0  0  0  0  0
   11.8361   25.3206   -1.6566 O   0  0  0  0  0  0  0  0  0  0  0  0
   14.7435   24.1155   -2.3120 H   0  0  0  0  0  0  0  0  0  0  0  0
   14.2135   26.5274   -5.5552 C   0  0  0  0  0  0  0  0  0  0  0  0
   14.6060   25.5313   -4.6961 C   0  0  0  0  0  0  0  0  0  0  0  0
   13.7886   25.5085   -3.5917 C   0  0  0  0  0  0  0  0  0  0  0  0
   12.9055   26.5145   -3.8279 N   0  0  0  0  0  0  0  0  0  0  0  0
   13.1654   27.0957   -4.9735 O   0  0  0  0  0  0  0  0  0  0  0  0
   15.8411   25.7415   -7.1797 C   0  0  0  0  0  0  0  0  0  0  0  0
   14.8615   26.8640   -6.8474 C   0  0  0  0  0  0  0  0  0  0  0  0
   15.6450   28.1451   -6.8099 C   0  0  0  0  0  0  0  0  0  0  0  0
   13.8322   26.8908   -7.9768 C   0  0  0  0  0  0  0  0  0  0  0  0
 32 33  1  0  0  0
 33 34  1  0  0  0
 33 35  1  0  0  0
 33 27  1  0  0  0
 27 28  2  0  0  0
 28 29  1  0  0  0
 29 23  1  0  0  0
 23 24  1  0  0  0
 24 25  2  0  0  0
 24  1  1  0  0  0
  1  2  1  0  0  0
  2  3  1  0  0  0
  3  4  2  0  0  0
  4  5  1  0  0  0
  5  6  2  0  0  0
  6  7  1  0  0  0
  7  8  2  0  0  0
  8  9  1  0  0  0
  9 10  1  0  0  0
 10 11  1  0  0  0
 11 12  2  0  0  0
 11 13  1  0  0  0
 13 14  2  0  0  0
 14 15  1  0  0  0
 15 16  2  0  0  0
 16 17  1  0  0  0
 17 18  2  0  0  0
 17 19  1  0  0  0
 19 20  1  0  0  0
 19 21  1  0  0  0
 19 22  1  0  0  0
 29 30  2  0  0  0
 30 31  1  0  0  0
 31 27  1  0  0  0
 10  1  1  0  0  0
 18 13  1  0  0  0
  8  3  1  0  0  0
 23 26  1  0  0  0
M  END
> <minimizedAffinity>
9.54490

> <CNNscore>
0.4443339705

> <CNNaffinity>
7.1332092285

> <CNN_VS>
3.1695272923

> <CNNaffinity_variance>
0.8957188725

$$$$
[H]OC(=O)c1c([H])c([H])c(N([H])C(=O)[C@]2([H])N([H])[C@@]([H])(C([H])([H])C(C([H])([H])[H])(C([H])([H])[H])C([H])([H])[H])[C@](C#N)(c3c([H])c([H])c(Cl)c([H])c3Cl)[C@@]2([H])c2c([H])c([H])c([H])c(Cl)c2F)c(OC([H])([H])[H])c1[H]


 45 48  0  0  0  0  0  0  0  0999 V2000
   11.5335   23.9917   -0.8848 C   0  0  0  0  0  0  0  0  0  0  0  0
   11.7510   25.0505    0.0877 N   0  0  0  0  0  0  0  0  0  0  0  0
   12.1413   24.4761    1.3534 C   0  0  0  0  0  0  0  0  0  0  0  0
   12.7981   23.1580    1.0381 C   0  0  0  0  0  0  0  0  0  0  0  0
   12.2556   22.8527   -0.3253 C   0  0  0  0  0  0  0  0  0  0  0  0
   12.3144   25.8300   -0.2232 H   0  0  0  0  0  0  0  0  0  0  0  0
   11.8836   21.4862   -0.5666 C   0  0  0  0  0  0  0  0  0  0  0  0
   10.6735   21.0098   -0.0524 C   0  0  0  0  0  0  0  0  0  0  0  0
   10.1386   19.7864   -0.3713 C   0  0  0  0  0  0  0  0  0  0  0  0
   10.8114   18.9513   -1.2510 C   0  0  0  0  0  0  0  0  0  0  0  0
   11.9968   19.3832   -1.7697 C   0  0  0  0  0  0  0  0  0  0  0  0
   12.8965   18.3697   -2.8878 Cl  0  0  0  0  0  0  0  0  0  0  0  0
   12.5169   20.6074   -1.4376 C   0  0  0  0  0  0  0  0  0  0  0  0
   13.7396   20.8837   -1.8604 F   0  0  0  0  0  0  0  0  0  0  0  0
   14.2542   23.4182    1.1127 C   0  0  0  0  0  0  0  0  0  0  0  0
   15.1827   22.4218    1.3111 C   0  0  0  0  0  0  0  0  0  0  0  0
   16.5741   22.6787    1.3114 C   0  0  0  0  0  0  0  0  0  0  0  0
   17.0448   23.9397    1.1144 C   0  0  0  0  0  0  0  0  0  0  0  0
   18.7668   24.3250    1.0976 Cl  0  0  0  0  0  0  0  0  0  0  0  0
   16.1460   24.9462    0.9188 C   0  0  0  0  0  0  0  0  0  0  0  0
   14.7751   24.6607    0.9251 C   0  0  0  0  0  0  0  0  0  0  0  0
   13.7608   26.0416    0.7802 Cl  0  0  0  0  0  0  0  0  0  0  0  0
   13.4182   24.4057   -2.5146 N   0  0  0  0  0  0  0  0  0  0  0  0
   12.0662   24.5946   -2.1595 C   0  0  0  0  0  0  0  0  0  0  0  0
   11.2596   25.2280   -2.8540 O   0  0  0  0  0  0  0  0  0  0  0  0
   13.9942   23.8773   -1.8243 H   0  0  0  0  0  0  0  0  0  0  0  0
   13.7563   26.1973   -4.0803 C   0  0  0  0  0  0  0  0  0  0  0  0
   14.3465   26.7337   -5.1861 C   0  0  0  0  0  0  0  0  0  0  0  0
   15.2442   26.0048   -5.9588 C   0  0  0  0  0  0  0  0  0  0  0  0
   15.5034   24.7250   -5.5557 C   0  0  0  0  0  0  0  0  0  0  0  0
   14.9306   24.1183   -4.4319 C   0  0  0  0  0  0  0  0  0  0  0  0
   14.0445   24.8729   -3.6875 C   0  0  0  0  0  0  0  0  0  0  0  0
   15.8899   26.6075   -7.1458 C   0  0  0  0  0  0  0  0  0  0  0  0
   16.2485   27.9258   -7.1741 O   0  0  0  0  0  0  0  0  0  0  0  0
   16.0839   25.8484   -8.1097 O   0  0  0  0  0  0  0  0  0  0  0  0
   15.5096   28.6267   -7.0175 H   0  0  0  0  0  0  0  0  0  0  0  0
   12.3845   28.1579   -3.7939 C   0  0  0  0  0  0  0  0  0  0  0  0
   12.8653   26.9271   -3.3121 O   0  0  0  0  0  0  0  0  0  0  0  0
   12.5366   22.1198    2.0471 C   0  0  0  0  0  0  0  0  0  0  0  0
   12.2976   21.2771    2.8187 N   0  0  0  0  0  0  0  0  0  0  0  0
   11.0056   24.4514    2.2998 C   0  0  0  0  0  0  0  0  0  0  0  0
    9.6826   24.2985    1.5177 C   0  0  0  0  0  0  0  0  0  0  0  0
    9.2072   22.8808    1.7595 C   0  0  0  0  0  0  0  0  0  0  0  0
    9.9264   24.4012    0.0117 C   0  0  0  0  0  0  0  0  0  0  0  0
    8.6602   25.2787    1.9512 C   0  0  0  0  0  0  0  0  0  0  0  0
 37 38  1  0  0  0
 38 27  1  0  0  0
 27 28  2  0  0  0
 28 29  1  0  0  0
 29 30  2  0  0  0
 30 31  1  0  0  0
 31 32  2  0  0  0
 32 23  1  0  0  0
 23 24  1  0  0  0
 24 25  2  0  0  0
 24  1  1  0  0  0
  1  2  1  0  0  0
  2  3  1  0  0  0
  3 41  1  0  0  0
 41 42  1  0  0  0
 42 43  1  0  0  0
 42 44  1  0  0  0
 42 45  1  0  0  0
  3  4  1  0  0  0
  4 39  1  0  0  0
 39 40  3  0  0  0
  4  5  1  0  0  0
  5  7  1  0  0  0
  7  8  2  0  0  0
  8  9  1  0  0  0
  9 10  2  0  0  0
 10 11  1  0  0  0
 11 12  1  0  0  0
 11 13  2  0  0  0
 13 14  1  0  0  0
  4 15  1  0  0  0
 15 16  2  0  0  0
 16 17  1  0  0  0
 17 18  2  0  0  0
 18 19  1  0  0  0
 18 20  1  0  0  0
 20 21  2  0  0  0
 21 22  1  0  0  0
 29 33  1  0  0  0
 33 34  1  0  0  0
 33 35  2  0  0  0
 32 27  1  0  0  0
  5  1  1  0  0  0
 13  7  1  0  0  0
 21 15  1  0  0  0
 23 26  1  0  0  0
  2  6  1  0  0  0
 34 36  1  0  0  0
M  END
> <minimizedAffinity>
8.67156

> <CNNscore>
0.4915617406

> <CNNaffinity>
8.0788497925

> <CNN_VS>
3.9712533951

> <CNNaffinity_variance>
0.6051796675

$$$$
[H]OC(=O)c1c([H])c([H])c(N([H])C(=O)[C@]2([H])N([H])[C@@]([H])(C([H])([H])C(C([H])([H])[H])(C([H])([H])[H])C([H])([H])[H])[C@](C#N)(c3c([H])c([H])c(Cl)c([H])c3Cl)[C@@]2([H])c2c([H])c([H])c([H])c(Cl)c2F)c(OC([H])([H])[H])c1[H]


 45 48  0  0  0  0  0  0  0  0999 V2000
   13.2513   25.2884    0.1081 C   0  0  0  0  0  0  0  0  0  0  0  0
   12.6460   25.5006   -1.1967 N   0  0  0  0  0  0  0  0  0  0  0  0
   13.6405   25.3269   -2.2286 C   0  0  0  0  0  0  0  0  0  0  0  0
   14.6774   24.3902   -1.6670 C   0  0  0  0  0  0  0  0  0  0  0  0
   14.4623   24.5293   -0.1903 C   0  0  0  0  0  0  0  0  0  0  0  0
   11.7680   25.0274   -1.3611 H   0  0  0  0  0  0  0  0  0  0  0  0
   15.6479   24.5839    0.6193 C   0  0  0  0  0  0  0  0  0  0  0  0
   16.4796   23.4615    0.6839 C   0  0  0  0  0  0  0  0  0  0  0  0
   17.7183   23.4635    1.2756 C   0  0  0  0  0  0  0  0  0  0  0  0
   18.2021   24.6291    1.8512 C   0  0  0  0  0  0  0  0  0  0  0  0
   17.4155   25.7428    1.8089 C   0  0  0  0  0  0  0  0  0  0  0  0
   17.9726   27.2486    2.5224 Cl  0  0  0  0  0  0  0  0  0  0  0  0
   16.1798   25.7212    1.2157 C   0  0  0  0  0  0  0  0  0  0  0  0
   15.4200   26.7953    1.3538 F   0  0  0  0  0  0  0  0  0  0  0  0
   14.3616   23.0639   -2.2456 C   0  0  0  0  0  0  0  0  0  0  0  0
   13.5058   22.1698   -1.6434 C   0  0  0  0  0  0  0  0  0  0  0  0
   13.1622   20.9356   -2.2439 C   0  0  0  0  0  0  0  0  0  0  0  0
   13.6771   20.5879   -3.4540 C   0  0  0  0  0  0  0  0  0  0  0  0
   13.2841   19.0671   -4.2584 Cl  0  0  0  0  0  0  0  0  0  0  0  0
   14.5303   21.4542   -4.0710 C   0  0  0  0  0  0  0  0  0  0  0  0
   14.8523   22.6679   -3.4508 C   0  0  0  0  0  0  0  0  0  0  0  0
   16.0248   23.6053   -4.2893 Cl  0  0  0  0  0  0  0  0  0  0  0  0
   12.2983   23.2181    1.1968 N   0  0  0  0  0  0  0  0  0  0  0  0
   12.1595   24.5837    0.8721 C   0  0  0  0  0  0  0  0  0  0  0  0
   11.1785   25.2667    1.1965 O   0  0  0  0  0  0  0  0  0  0  0  0
   13.1608   22.7561    0.8362 H   0  0  0  0  0  0  0  0  0  0  0  0
   10.0746   22.3347    1.4218 C   0  0  0  0  0  0  0  0  0  0  0  0
    9.1405   21.5754    2.0620 C   0  0  0  0  0  0  0  0  0  0  0  0
    9.4399   20.8848    3.2315 C   0  0  0  0  0  0  0  0  0  0  0  0
   10.7152   21.0068    3.7072 C   0  0  0  0  0  0  0  0  0  0  0  0
   11.7176   21.7695    3.0970 C   0  0  0  0  0  0  0  0  0  0  0  0
   11.3845   22.4407    1.9363 C   0  0  0  0  0  0  0  0  0  0  0  0
    8.4198   20.0507    3.9043 C   0  0  0  0  0  0  0  0  0  0  0  0
    7.1204   20.0286    3.4819 O   0  0  0  0  0  0  0  0  0  0  0  0
    8.8126   19.3770    4.8712 O   0  0  0  0  0  0  0  0  0  0  0  0
    6.6092   20.9230    3.4581 H   0  0  0  0  0  0  0  0  0  0  0  0
    8.4812   23.5440    0.0779 C   0  0  0  0  0  0  0  0  0  0  0  0
    9.7735   23.0184    0.2563 O   0  0  0  0  0  0  0  0  0  0  0  0
   16.0443   24.6951   -2.1175 C   0  0  0  0  0  0  0  0  0  0  0  0
   17.1159   24.9817   -2.4813 N   0  0  0  0  0  0  0  0  0  0  0  0
   14.1175   26.6322   -2.7336 C   0  0  0  0  0  0  0  0  0  0  0  0
   14.0078   26.6633   -4.2739 C   0  0  0  0  0  0  0  0  0  0  0  0
   12.6270   27.1991   -4.5910 C   0  0  0  0  0  0  0  0  0  0  0  0
   14.0437   25.2473   -4.8501 C   0  0  0  0  0  0  0  0  0  0  0  0
   15.0559   27.5076   -4.8922 C   0  0  0  0  0  0  0  0  0  0  0  0
 37 38  1  0  0  0
 38 27  1  0  0  0
 27 28  2  0  0  0
 28 29  1  0  0  0
 29 30  2  0  0  0
 30 31  1  0  0  0
 31 32  2  0  0  0
 32 23  1  0  0  0
 23 24  1  0  0  0
 24 25  2  0  0  0
 24  1  1  0  0  0
  1  2  1  0  0  0
  2  3  1  0  0  0
  3 41  1  0  0  0
 41 42  1  0  0  0
 42 43  1  0  0  0
 42 44  1  0  0  0
 42 45  1  0  0  0
  3  4  1  0  0  0
  4 39  1  0  0  0
 39 40  3  0  0  0
  4  5  1  0  0  0
  5  7  1  0  0  0
  7  8  2  0  0  0
  8  9  1  0  0  0
  9 10  2  0  0  0
 10 11  1  0  0  0
 11 12  1  0  0  0
 11 13  2  0  0  0
 13 14  1  0  0  0
  4 15  1  0  0  0
 15 16  2  0  0  0
 16 17  1  0  0  0
 17 18  2  0  0  0
 18 19  1  0  0  0
 18 20  1  0  0  0
 20 21  2  0  0  0
 21 22  1  0  0  0
 29 33  1  0  0  0
 33 34  1  0  0  0
 33 35  2  0  0  0
 32 27  1  0  0  0
  5  1  1  0  0  0
 13  7  1  0  0  0
 21 15  1  0  0  0
 23 26  1  0  0  0
  2  6  1  0  0  0
 34 36  1  0  0  0
M  END
> <minimizedAffinity>
14.25316

> <CNNscore>
0.4648092389

> <CNNaffinity>
8.1854600906

> <CNN_VS>
3.8046774864

> <CNNaffinity_variance>
0.8336368799

$$$$
[H]OC(=O)c1c([H])c([H])c(N([H])C(=O)[C@]2([H])N([H])[C@@]([H])(C([H])([H])C(C([H])([H])[H])(C([H])([H])[H])C([H])([H])[H])[C@](C#N)(c3c([H])c([H])c(Cl)c([H])c3Cl)[C@@]2([H])c2c([H])c([H])c([H])c(Cl)c2F)c(OC([H])([H])[H])c1[H]


 45 48  0  0  0  0  0  0  0  0999 V2000
   14.8321   23.0669   -1.3610 C   0  0  0  0  0  0  0  0  0  0  0  0
   15.7478   23.0374   -0.2320 N   0  0  0  0  0  0  0  0  0  0  0  0
   16.4365   24.3021   -0.1309 C   0  0  0  0  0  0  0  0  0  0  0  0
   15.5276   25.3322   -0.7479 C   0  0  0  0  0  0  0  0  0  0  0  0
   14.6402   24.4918   -1.6153 C   0  0  0  0  0  0  0  0  0  0  0  0
   15.3711   22.6818    0.6359 H   0  0  0  0  0  0  0  0  0  0  0  0
   14.3314   25.0279   -2.9119 C   0  0  0  0  0  0  0  0  0  0  0  0
   13.2986   25.9630   -3.0330 C   0  0  0  0  0  0  0  0  0  0  0  0
   13.0396   26.6684   -4.1817 C   0  0  0  0  0  0  0  0  0  0  0  0
   13.8291   26.4660   -5.3043 C   0  0  0  0  0  0  0  0  0  0  0  0
   14.8442   25.5585   -5.2224 C   0  0  0  0  0  0  0  0  0  0  0  0
   15.8773   25.2571   -6.6112 Cl  0  0  0  0  0  0  0  0  0  0  0  0
   15.0863   24.8613   -4.0671 C   0  0  0  0  0  0  0  0  0  0  0  0
   15.9859   23.8927   -4.1185 F   0  0  0  0  0  0  0  0  0  0  0  0
   14.8675   26.0063    0.3938 C   0  0  0  0  0  0  0  0  0  0  0  0
   15.5557   26.4495    1.5003 C   0  0  0  0  0  0  0  0  0  0  0  0
   14.9196   27.1523    2.5507 C   0  0  0  0  0  0  0  0  0  0  0  0
   13.5858   27.4142    2.4996 C   0  0  0  0  0  0  0  0  0  0  0  0
   12.7346   28.2904    3.7732 Cl  0  0  0  0  0  0  0  0  0  0  0  0
   12.8794   26.9833    1.4159 C   0  0  0  0  0  0  0  0  0  0  0  0
   13.5369   26.2891    0.3927 C   0  0  0  0  0  0  0  0  0  0  0  0
   12.5018   25.7094   -0.8519 Cl  0  0  0  0  0  0  0  0  0  0  0  0
   12.4520   22.9577   -0.5227 N   0  0  0  0  0  0  0  0  0  0  0  0
   13.6480   22.2858   -0.8512 C   0  0  0  0  0  0  0  0  0  0  0  0
   13.7890   21.0586   -0.7610 O   0  0  0  0  0  0  0  0  0  0  0  0
   12.4797   23.9959   -0.6168 H   0  0  0  0  0  0  0  0  0  0  0  0
   10.0516   23.0087   -0.4176 C   0  0  0  0  0  0  0  0  0  0  0  0
    8.8517   22.4771   -0.0480 C   0  0  0  0  0  0  0  0  0  0  0  0
    8.7716   21.2898    0.6718 C   0  0  0  0  0  0  0  0  0  0  0  0
    9.9543   20.6844    0.9914 C   0  0  0  0  0  0  0  0  0  0  0  0
   11.2161   21.1793    0.6417 C   0  0  0  0  0  0  0  0  0  0  0  0
   11.2570   22.3601   -0.0743 C   0  0  0  0  0  0  0  0  0  0  0  0
    7.4609   20.7167    1.0496 C   0  0  0  0  0  0  0  0  0  0  0  0
    7.0514   20.6630    2.3522 O   0  0  0  0  0  0  0  0  0  0  0  0
    6.7601   20.2884    0.1177 O   0  0  0  0  0  0  0  0  0  0  0  0
    7.6492   20.1571    3.0219 H   0  0  0  0  0  0  0  0  0  0  0  0
   10.8012   24.2047   -2.3708 C   0  0  0  0  0  0  0  0  0  0  0  0
   10.1271   24.1894   -1.1365 O   0  0  0  0  0  0  0  0  0  0  0  0
   16.2510   26.3960   -1.4617 C   0  0  0  0  0  0  0  0  0  0  0  0
   16.8174   27.2684   -1.9916 N   0  0  0  0  0  0  0  0  0  0  0  0
   17.8088   24.2061   -0.6730 C   0  0  0  0  0  0  0  0  0  0  0  0
   18.7790   23.7702    0.4468 C   0  0  0  0  0  0  0  0  0  0  0  0
   19.9417   23.0851   -0.2411 C   0  0  0  0  0  0  0  0  0  0  0  0
   18.1387   22.7036    1.3360 C   0  0  0  0  0  0  0  0  0  0  0  0
   19.2478   24.9170    1.2584 C   0  0  0  0  0  0  0  0  0  0  0  0
 37 38  1  0  0  0
 38 27  1  0  0  0
 27 28  2  0  0  0
 28 29  1  0  0  0
 29 30  2  0  0  0
 30 31  1  0  0  0
 31 32  2  0  0  0
 32 23  1  0  0  0
 23 24  1  0  0  0
 24 25  2  0  0  0
 24  1  1  0  0  0
  1  2  1  0  0  0
  2  3  1  0  0  0
  3 41  1  0  0  0
 41 42  1  0  0  0
 42 43  1  0  0  0
 42 44  1  0  0  0
 42 45  1  0  0  0
  3  4  1  0  0  0
  4 39  1  0  0  0
 39 40  3  0  0  0
  4  5  1  0  0  0
  5  7  1  0  0  0
  7  8  2  0  0  0
  8  9  1  0  0  0
  9 10  2  0  0  0
 10 11  1  0  0  0
 11 12  1  0  0  0
 11 13  2  0  0  0
 13 14  1  0  0  0
  4 15  1  0  0  0
 15 16  2  0  0  0
 16 17  1  0  0  0
 17 18  2  0  0  0
 18 19  1  0  0  0
 18 20  1  0  0  0
 20 21  2  0  0  0
 21 22  1  0  0  0
 29 33  1  0  0  0
 33 34  1  0  0  0
 33 35  2  0  0  0
 32 27  1  0  0  0
  5  1  1  0  0  0
 13  7  1  0  0  0
 21 15  1  0  0  0
 23 26  1  0  0  0
  2  6  1  0  0  0
 34 36  1  0  0  0
M  END
> <minimizedAffinity>
17.78132

> <CNNscore>
0.4545727670

> <CNNaffinity>
8.3299198151

> <CNN_VS>
3.7865548134

> <CNNaffinity_variance>
0.8175522685

$$$$
[H]OC(=O)c1c([H])c([H])c(N([H])C(=O)[C@]2([H])N([H])[C@@]([H])(C([H])([H])C(C([H])([H])[H])(C([H])([H])[H])C([H])([H])[H])[C@](C#N)(c3c([H])c([H])c(Cl)c([H])c3Cl)[C@@]2([H])c2c([H])c([H])c([H])c(Cl)c2F)c(OC([H])([H])[H])c1[H]


 45 48  0  0  0  0  0  0  0  0999 V2000
   12.5944   24.2787   -2.3781 C   0  0  0  0  0  0  0  0  0  0  0  0
   13.1278   22.9360   -2.2152 N   0  0  0  0  0  0  0  0  0  0  0  0
   14.4793   22.8847   -2.7200 C   0  0  0  0  0  0  0  0  0  0  0  0
   15.0322   24.2803   -2.5988 C   0  0  0  0  0  0  0  0  0  0  0  0
   13.7855   25.1093   -2.5308 C   0  0  0  0  0  0  0  0  0  0  0  0
   12.9906   22.5108   -1.3085 H   0  0  0  0  0  0  0  0  0  0  0  0
   13.8012   26.3377   -3.2755 C   0  0  0  0  0  0  0  0  0  0  0  0
   14.5811   26.4212   -4.4334 C   0  0  0  0  0  0  0  0  0  0  0  0
   14.5307   27.4745   -5.3122 C   0  0  0  0  0  0  0  0  0  0  0  0
   13.6673   28.5323   -5.0672 C   0  0  0  0  0  0  0  0  0  0  0  0
   12.8936   28.4851   -3.9448 C   0  0  0  0  0  0  0  0  0  0  0  0
   11.7820   29.7956   -3.5793 Cl  0  0  0  0  0  0  0  0  0  0  0  0
   12.9594   27.4258   -3.0770 C   0  0  0  0  0  0  0  0  0  0  0  0
   12.2936   27.5300   -1.9386 F   0  0  0  0  0  0  0  0  0  0  0  0
   15.8681   24.2657   -1.3763 C   0  0  0  0  0  0  0  0  0  0  0  0
   15.7578   23.2954   -0.4064 C   0  0  0  0  0  0  0  0  0  0  0  0
   16.6110   23.2583    0.7217 C   0  0  0  0  0  0  0  0  0  0  0  0
   17.5815   24.1972    0.8863 C   0  0  0  0  0  0  0  0  0  0  0  0
   18.6808   24.2033    2.2667 Cl  0  0  0  0  0  0  0  0  0  0  0  0
   17.7103   25.1719   -0.0584 C   0  0  0  0  0  0  0  0  0  0  0  0
   16.8499   25.1827   -1.1633 C   0  0  0  0  0  0  0  0  0  0  0  0
   17.0541   26.5317   -2.2099 Cl  0  0  0  0  0  0  0  0  0  0  0  0
   11.6040   23.3901   -0.2312 N   0  0  0  0  0  0  0  0  0  0  0  0
   11.7720   24.4653   -1.1287 C   0  0  0  0  0  0  0  0  0  0  0  0
   11.2877   25.5904   -0.9451 O   0  0  0  0  0  0  0  0  0  0  0  0
   12.0407   22.4892   -0.5229 H   0  0  0  0  0  0  0  0  0  0  0  0
   11.1129   22.3526    1.8802 C   0  0  0  0  0  0  0  0  0  0  0  0
   10.4928   22.3294    3.0942 C   0  0  0  0  0  0  0  0  0  0  0  0
    9.6380   23.3504    3.4954 C   0  0  0  0  0  0  0  0  0  0  0  0
    9.4494   24.3759    2.6120 C   0  0  0  0  0  0  0  0  0  0  0  0
   10.0560   24.4574    1.3532 C   0  0  0  0  0  0  0  0  0  0  0  0
   10.8999   23.4260    0.9891 C   0  0  0  0  0  0  0  0  0  0  0  0
    8.9868   23.3190    4.8235 C   0  0  0  0  0  0  0  0  0  0  0  0
    8.4946   22.1594    5.3527 O   0  0  0  0  0  0  0  0  0  0  0  0
    8.9134   24.4038    5.4244 O   0  0  0  0  0  0  0  0  0  0  0  0
    7.7820   21.6498    4.8103 H   0  0  0  0  0  0  0  0  0  0  0  0
   11.4256   20.1263    1.0122 C   0  0  0  0  0  0  0  0  0  0  0  0
   11.9655   21.3357    1.4856 O   0  0  0  0  0  0  0  0  0  0  0  0
   15.9484   24.6418   -3.6917 C   0  0  0  0  0  0  0  0  0  0  0  0
   16.6988   24.8889   -4.5511 N   0  0  0  0  0  0  0  0  0  0  0  0
   14.5244   22.2581   -4.0585 C   0  0  0  0  0  0  0  0  0  0  0  0
   14.8296   20.7509   -3.9151 C   0  0  0  0  0  0  0  0  0  0  0  0
   13.6704   20.0193   -4.5595 C   0  0  0  0  0  0  0  0  0  0  0  0
   14.8168   20.3312   -2.4447 C   0  0  0  0  0  0  0  0  0  0  0  0
   16.1113   20.3764   -4.5560 C   0  0  0  0  0  0  0  0  0  0  0  0
 37 38  1  0  0  0
 38 27  1  0  0  0
 27 28  2  0  0  0
 28 29  1  0  0  0
 29 30  2  0  0  0
 30 31  1  0  0  0
 31 32  2  0  0  0
 32 23  1  0  0  0
 23 24  1  0  0  0
 24 25  2  0  0  0
 24  1  1  0  0  0
  1  2  1  0  0  0
  2  3  1  0  0  0
  3 41  1  0  0  0
 41 42  1  0  0  0
 42 43  1  0  0  0
 42 44  1  0  0  0
 42 45  1  0  0  0
  3  4  1  0  0  0
  4 39  1  0  0  0
 39 40  3  0  0  0
  4  5  1  0  0  0
  5  7  1  0  0  0
  7  8  2  0  0  0
  8  9  1  0  0  0
  9 10  2  0  0  0
 10 11  1  0  0  0
 11 12  1  0  0  0
 11 13  2  0  0  0
 13 14  1  0  0  0
  4 15  1  0  0  0
 15 16  2  0  0  0
 16 17  1  0  0  0
 17 18  2  0  0  0
 18 19  1  0  0  0
 18 20  1  0  0  0
 20 21  2  0  0  0
 21 22  1  0  0  0
 29 33  1  0  0  0
 33 34  1  0  0  0
 33 35  2  0  0  0
 32 27  1  0  0  0
  5  1  1  0  0  0
 13  7  1  0  0  0
 21 15  1  0  0  0
 23 26  1  0  0  0
  2  6  1  0  0  0
 34 36  1  0  0  0
M  END
> <minimizedAffinity>
17.53381

> <CNNscore>
0.4479140341

> <CNNaffinity>
8.4498128891

> <CNN_VS>
3.7847898006

> <CNNaffinity_variance>
1.5044803619

$$$$
[H]OC(=O)c1c([H])c([H])c(N([H])C(=O)[C@]2([H])N([H])[C@@]([H])(C([H])([H])C(C([H])([H])[H])(C([H])([H])[H])C([H])([H])[H])[C@](C#N)(c3c([H])c([H])c(Cl)c([H])c3Cl)[C@@]2([H])c2c([H])c([H])c([H])c(Cl)c2F)c(OC([H])([H])[H])c1[H]


 45 48  0  0  0  0  0  0  0  0999 V2000
   15.1932   24.1679   -1.3269 C   0  0  0  0  0  0  0  0  0  0  0  0
   15.5316   25.5784   -1.2272 N   0  0  0  0  0  0  0  0  0  0  0  0
   15.7966   26.1095   -2.5433 C   0  0  0  0  0  0  0  0  0  0  0  0
   15.0149   25.2599   -3.5103 C   0  0  0  0  0  0  0  0  0  0  0  0
   14.7963   24.0039   -2.7224 C   0  0  0  0  0  0  0  0  0  0  0  0
   14.9217   26.1416   -0.6506 H   0  0  0  0  0  0  0  0  0  0  0  0
   14.9416   22.7706   -3.4448 C   0  0  0  0  0  0  0  0  0  0  0  0
   13.8819   21.8580   -3.4525 C   0  0  0  0  0  0  0  0  0  0  0  0
   13.8433   20.7412   -4.2498 C   0  0  0  0  0  0  0  0  0  0  0  0
   14.8994   20.4740   -5.1085 C   0  0  0  0  0  0  0  0  0  0  0  0
   15.9515   21.3421   -5.1248 C   0  0  0  0  0  0  0  0  0  0  0  0
   17.3194   21.0565   -6.1896 Cl  0  0  0  0  0  0  0  0  0  0  0  0
   15.9737   22.4511   -4.3192 C   0  0  0  0  0  0  0  0  0  0  0  0
   17.0940   23.1538   -4.2825 F   0  0  0  0  0  0  0  0  0  0  0  0
   13.8000   26.0450   -3.8282 C   0  0  0  0  0  0  0  0  0  0  0  0
   12.7028   26.0939   -2.9986 C   0  0  0  0  0  0  0  0  0  0  0  0
   11.5782   26.9033   -3.2849 C   0  0  0  0  0  0  0  0  0  0  0  0
   11.5452   27.6693   -4.4086 C   0  0  0  0  0  0  0  0  0  0  0  0
   10.1760   28.7040   -4.8198 Cl  0  0  0  0  0  0  0  0  0  0  0  0
   12.6180   27.6369   -5.2495 C   0  0  0  0  0  0  0  0  0  0  0  0
   13.7160   26.8249   -4.9395 C   0  0  0  0  0  0  0  0  0  0  0  0
   14.9424   26.7975   -6.1444 Cl  0  0  0  0  0  0  0  0  0  0  0  0
   13.1343   23.0128   -0.4289 N   0  0  0  0  0  0  0  0  0  0  0  0
   14.1244   24.0058   -0.2763 C   0  0  0  0  0  0  0  0  0  0  0  0
   14.1853   24.7655    0.7001 O   0  0  0  0  0  0  0  0  0  0  0  0
   13.1827   22.4625   -1.3133 H   0  0  0  0  0  0  0  0  0  0  0  0
   10.8859   22.2494   -0.0578 C   0  0  0  0  0  0  0  0  0  0  0  0
    9.8488   21.9138    0.7611 C   0  0  0  0  0  0  0  0  0  0  0  0
    9.9487   22.0200    2.1442 C   0  0  0  0  0  0  0  0  0  0  0  0
   11.1364   22.4789    2.6406 C   0  0  0  0  0  0  0  0  0  0  0  0
   12.2364   22.8390    1.8536 C   0  0  0  0  0  0  0  0  0  0  0  0
   12.1014   22.7192    0.4839 C   0  0  0  0  0  0  0  0  0  0  0  0
    8.8202   21.6347    3.0199 C   0  0  0  0  0  0  0  0  0  0  0  0
    7.8056   20.8368    2.5714 O   0  0  0  0  0  0  0  0  0  0  0  0
    8.8492   22.0786    4.1798 O   0  0  0  0  0  0  0  0  0  0  0  0
    7.2721   21.1565    1.7499 H   0  0  0  0  0  0  0  0  0  0  0  0
    9.8253   21.2721   -1.9885 C   0  0  0  0  0  0  0  0  0  0  0  0
   10.7836   22.1396   -1.4340 O   0  0  0  0  0  0  0  0  0  0  0  0
   15.6983   25.0629   -4.7982 C   0  0  0  0  0  0  0  0  0  0  0  0
   16.1992   24.9114   -5.8417 N   0  0  0  0  0  0  0  0  0  0  0  0
   17.2500   26.2366   -2.7835 C   0  0  0  0  0  0  0  0  0  0  0  0
   17.5649   27.6508   -3.3185 C   0  0  0  0  0  0  0  0  0  0  0  0
   19.0749   27.7681   -3.3466 C   0  0  0  0  0  0  0  0  0  0  0  0
   17.0857   28.7221   -2.3382 C   0  0  0  0  0  0  0  0  0  0  0  0
   16.9931   27.8793   -4.6655 C   0  0  0  0  0  0  0  0  0  0  0  0
 37 38  1  0  0  0
 38 27  1  0  0  0
 27 28  2  0  0  0
 28 29  1  0  0  0
 29 30  2  0  0  0
 30 31  1  0  0  0
 31 32  2  0  0  0
 32 23  1  0  0  0
 23 24  1  0  0  0
 24 25  2  0  0  0
 24  1  1  0  0  0
  1  2  1  0  0  0
  2  3  1  0  0  0
  3 41  1  0  0  0
 41 42  1  0  0  0
 42 43  1  0  0  0
 42 44  1  0  0  0
 42 45  1  0  0  0
  3  4  1  0  0  0
  4 39  1  0  0  0
 39 40  3  0  0  0
  4  5  1  0  0  0
  5  7  1  0  0  0
  7  8  2  0  0  0
  8  9  1  0  0  0
  9 10  2  0  0  0
 10 11  1  0  0  0
 11 12  1  0  0  0
 11 13  2  0  0  0
 13 14  1  0  0  0
  4 15  1  0  0  0
 15 16  2  0  0  0
 16 17  1  0  0  0
 17 18  2  0  0  0
 18 19  1  0  0  0
 18 20  1  0  0  0
 20 21  2  0  0  0
 21 22  1  0  0  0
 29 33  1  0  0  0
 33 34  1  0  0  0
 33 35  2  0  0  0
 32 27  1  0  0  0
  5  1  1  0  0  0
 13  7  1  0  0  0
 21 15  1  0  0  0
 23 26  1  0  0  0
  2  6  1  0  0  0
 34 36  1  0  0  0
M  END
> <minimizedAffinity>
15.91289

> <CNNscore>
0.4083845317

> <CNNaffinity>
8.1332492828

> <CNN_VS>
3.3214931488

> <CNNaffinity_variance>
1.2686901093

$$$$
[H]OC(=O)c1c([H])c([H])c(N([H])C(=O)[C@]2([H])N([H])[C@@]([H])(C([H])([H])C(C([H])([H])[H])(C([H])([H])[H])C([H])([H])[H])[C@](C#N)(c3c([H])c([H])c(Cl)c([H])c3Cl)[C@@]2([H])c2c([H])c([H])c([H])c(Cl)c2F)c(OC([H])([H])[H])c1[H]


 45 48  0  0  0  0  0  0  0  0999 V2000
   15.0277   24.6515   -0.9485 C   0  0  0  0  0  0  0  0  0  0  0  0
   15.5206   26.0107   -1.1023 N   0  0  0  0  0  0  0  0  0  0  0  0
   15.7568   26.2875   -2.4993 C   0  0  0  0  0  0  0  0  0  0  0  0
   14.8290   25.3892   -3.2740 C   0  0  0  0  0  0  0  0  0  0  0  0
   14.5278   24.3111   -2.2775 C   0  0  0  0  0  0  0  0  0  0  0  0
   15.0123   26.7266   -0.6016 H   0  0  0  0  0  0  0  0  0  0  0  0
   14.4942   22.9688   -2.7884 C   0  0  0  0  0  0  0  0  0  0  0  0
   15.3478   22.6196   -3.8397 C   0  0  0  0  0  0  0  0  0  0  0  0
   15.5267   21.3321   -4.2810 C   0  0  0  0  0  0  0  0  0  0  0  0
   14.8367   20.2951   -3.6706 C   0  0  0  0  0  0  0  0  0  0  0  0
   13.9929   20.6001   -2.6431 C   0  0  0  0  0  0  0  0  0  0  0  0
   13.0899   19.3302   -1.8314 Cl  0  0  0  0  0  0  0  0  0  0  0  0
   13.8250   21.8924   -2.2176 C   0  0  0  0  0  0  0  0  0  0  0  0
   12.8765   22.1201   -1.3239 F   0  0  0  0  0  0  0  0  0  0  0  0
   13.6873   26.2481   -3.6643 C   0  0  0  0  0  0  0  0  0  0  0  0
   12.5712   26.4124   -2.8758 C   0  0  0  0  0  0  0  0  0  0  0  0
   11.5203   27.2901   -3.2323 C   0  0  0  0  0  0  0  0  0  0  0  0
   11.5806   28.0091   -4.3855 C   0  0  0  0  0  0  0  0  0  0  0  0
   10.3069   29.1242   -4.8840 Cl  0  0  0  0  0  0  0  0  0  0  0  0
   12.6740   27.8626   -5.1868 C   0  0  0  0  0  0  0  0  0  0  0  0
   13.6974   26.9852   -4.8074 C   0  0  0  0  0  0  0  0  0  0  0  0
   14.9559   26.8173   -5.9671 Cl  0  0  0  0  0  0  0  0  0  0  0  0
   12.7956   24.0838    0.0884 N   0  0  0  0  0  0  0  0  0  0  0  0
   14.0166   24.7865    0.1612 C   0  0  0  0  0  0  0  0  0  0  0  0
   14.3292   25.5160    1.1121 O   0  0  0  0  0  0  0  0  0  0  0  0
   12.6479   23.5290   -0.7821 H   0  0  0  0  0  0  0  0  0  0  0  0
   11.6679   22.9273    1.8679 C   0  0  0  0  0  0  0  0  0  0  0  0
   10.7282   22.8593    2.8533 C   0  0  0  0  0  0  0  0  0  0  0  0
    9.8527   23.9116    3.0991 C   0  0  0  0  0  0  0  0  0  0  0  0
    9.9802   25.0151    2.3031 C   0  0  0  0  0  0  0  0  0  0  0  0
   10.9230   25.1455    1.2768 C   0  0  0  0  0  0  0  0  0  0  0  0
   11.7769   24.0808    1.0623 C   0  0  0  0  0  0  0  0  0  0  0  0
    8.8503   23.8292    4.1842 C   0  0  0  0  0  0  0  0  0  0  0  0
    7.7224   24.6005    4.1774 O   0  0  0  0  0  0  0  0  0  0  0  0
    9.0948   23.0228    5.0970 O   0  0  0  0  0  0  0  0  0  0  0  0
    7.8417   25.6234    4.1437 H   0  0  0  0  0  0  0  0  0  0  0  0
   12.0397   20.5654    1.5660 C   0  0  0  0  0  0  0  0  0  0  0  0
   12.5394   21.8787    1.6281 O   0  0  0  0  0  0  0  0  0  0  0  0
   15.4042   24.9087   -4.5400 C   0  0  0  0  0  0  0  0  0  0  0  0
   15.8972   24.5559   -5.5376 N   0  0  0  0  0  0  0  0  0  0  0  0
   17.1973   26.2048   -2.8225 C   0  0  0  0  0  0  0  0  0  0  0  0
   17.6714   27.5462   -3.4234 C   0  0  0  0  0  0  0  0  0  0  0  0
   16.9889   28.6356   -2.6223 C   0  0  0  0  0  0  0  0  0  0  0  0
   17.1651   27.7089   -4.8570 C   0  0  0  0  0  0  0  0  0  0  0  0
   19.1440   27.6946   -3.3675 C   0  0  0  0  0  0  0  0  0  0  0  0
 37 38  1  0  0  0
 38 27  1  0  0  0
 27 28  2  0  0  0
 28 29  1  0  0  0
 29 30  2  0  0  0
 30 31  1  0  0  0
 31 32  2  0  0  0
 32 23  1  0  0  0
 23 24  1  0  0  0
 24 25  2  0  0  0
 24  1  1  0  0  0
  1  2  1  0  0  0
  2  3  1  0  0  0
  3 41  1  0  0  0
 41 42  1  0  0  0
 42 43  1  0  0  0
 42 44  1  0  0  0
 42 45  1  0  0  0
  3  4  1  0  0  0
  4 39  1  0  0  0
 39 40  3  0  0  0
  4  5  1  0  0  0
  5  7  1  0  0  0
  7  8  2  0  0  0
  8  9  1  0  0  0
  9 10  2  0  0  0
 10 11  1  0  0  0
 11 12  1  0  0  0
 11 13  2  0  0  0
 13 14  1  0  0  0
  4 15  1  0  0  0
 15 16  2  0  0  0
 16 17  1  0  0  0
 17 18  2  0  0  0
 18 19  1  0  0  0
 18 20  1  0  0  0
 20 21  2  0  0  0
 21 22  1  0  0  0
 29 33  1  0  0  0
 33 34  1  0  0  0
 33 35  2  0  0  0
 32 27  1  0  0  0
  5  1  1  0  0  0
 13  7  1  0  0  0
 21 15  1  0  0  0
 23 26  1  0  0  0
  2  6  1  0  0  0
 34 36  1  0  0  0
M  END
> <minimizedAffinity>
11.68224

> <CNNscore>
0.4064720869

> <CNNaffinity>
8.2638721466

> <CNN_VS>
3.3590333462

> <CNNaffinity_variance>
1.0407536030

$$$$
[H]OC(=O)c1c([H])c([H])c(N([H])C(=O)[C@]2([H])N([H])[C@@]([H])(C([H])([H])C(C([H])([H])[H])(C([H])([H])[H])C([H])([H])[H])[C@](C#N)(c3c([H])c([H])c(Cl)c([H])c3Cl)[C@@]2([H])c2c([H])c([H])c([H])c(Cl)c2F)c(OC([H])([H])[H])c1[H]


 45 48  0  0  0  0  0  0  0  0999 V2000
   11.3457   23.6982    1.7542 C   0  0  0  0  0  0  0  0  0  0  0  0
   11.8764   22.3510    1.6222 N   0  0  0  0  0  0  0  0  0  0  0  0
   11.0074   21.4172    2.2981 C   0  0  0  0  0  0  0  0  0  0  0  0
    9.6334   22.0338    2.2925 C   0  0  0  0  0  0  0  0  0  0  0  0
    9.9398   23.4864    2.0866 C   0  0  0  0  0  0  0  0  0  0  0  0
   12.1640   22.0762    0.6929 H   0  0  0  0  0  0  0  0  0  0  0  0
    9.1640   24.4129    2.8636 C   0  0  0  0  0  0  0  0  0  0  0  0
    9.3760   24.4874    4.2439 C   0  0  0  0  0  0  0  0  0  0  0  0
    8.8253   25.4535    5.0488 C   0  0  0  0  0  0  0  0  0  0  0  0
    8.0076   26.4262    4.4925 C   0  0  0  0  0  0  0  0  0  0  0  0
    7.7769   26.3820    3.1488 C   0  0  0  0  0  0  0  0  0  0  0  0
    6.7485   27.5853    2.3864 Cl  0  0  0  0  0  0  0  0  0  0  0  0
    8.3335   25.4078    2.3611 C   0  0  0  0  0  0  0  0  0  0  0  0
    7.9369   25.3444    1.1006 F   0  0  0  0  0  0  0  0  0  0  0  0
    8.9071   21.3623    1.1902 C   0  0  0  0  0  0  0  0  0  0  0  0
    7.5386   21.2161    1.1761 C   0  0  0  0  0  0  0  0  0  0  0  0
    6.8551   20.6328    0.0831 C   0  0  0  0  0  0  0  0  0  0  0  0
    7.5410   20.1894   -1.0047 C   0  0  0  0  0  0  0  0  0  0  0  0
    6.7480   19.4586   -2.4016 Cl  0  0  0  0  0  0  0  0  0  0  0  0
    8.8983   20.3192   -1.0151 C   0  0  0  0  0  0  0  0  0  0  0  0
    9.5464   20.8996    0.0822 C   0  0  0  0  0  0  0  0  0  0  0  0
   11.2628   20.8934   -0.0212 Cl  0  0  0  0  0  0  0  0  0  0  0  0
   13.0003   24.4684    0.0081 N   0  0  0  0  0  0  0  0  0  0  0  0
   11.6583   24.3131    0.4139 C   0  0  0  0  0  0  0  0  0  0  0  0
   10.6907   24.6434   -0.2852 O   0  0  0  0  0  0  0  0  0  0  0  0
   13.7174   24.1760    0.7065 H   0  0  0  0  0  0  0  0  0  0  0  0
   14.7818   24.7234   -1.5846 C   0  0  0  0  0  0  0  0  0  0  0  0
   15.2768   25.1641   -2.7761 C   0  0  0  0  0  0  0  0  0  0  0  0
   14.4903   25.8810   -3.6714 C   0  0  0  0  0  0  0  0  0  0  0  0
   13.1985   26.1229   -3.2967 C   0  0  0  0  0  0  0  0  0  0  0  0
   12.6323   25.6979   -2.0892 C   0  0  0  0  0  0  0  0  0  0  0  0
   13.4429   24.9872   -1.2252 C   0  0  0  0  0  0  0  0  0  0  0  0
   15.0374   26.3367   -4.9683 C   0  0  0  0  0  0  0  0  0  0  0  0
   15.3727   25.4524   -5.9547 O   0  0  0  0  0  0  0  0  0  0  0  0
   15.1743   27.5637   -5.1054 O   0  0  0  0  0  0  0  0  0  0  0  0
   16.0686   24.7263   -5.7308 H   0  0  0  0  0  0  0  0  0  0  0  0
   16.3668   24.6990    0.2306 C   0  0  0  0  0  0  0  0  0  0  0  0
   15.5672   24.0076   -0.6973 O   0  0  0  0  0  0  0  0  0  0  0  0
    8.8565   21.7386    3.5064 C   0  0  0  0  0  0  0  0  0  0  0  0
    8.2007   21.5111    4.4450 N   0  0  0  0  0  0  0  0  0  0  0  0
   11.5633   21.0271    3.6114 C   0  0  0  0  0  0  0  0  0  0  0  0
   11.5124   19.4907    3.7600 C   0  0  0  0  0  0  0  0  0  0  0  0
   10.8828   18.9612    2.4881 C   0  0  0  0  0  0  0  0  0  0  0  0
   10.5650   19.0849    4.8897 C   0  0  0  0  0  0  0  0  0  0  0  0
   12.8565   18.9039    3.9669 C   0  0  0  0  0  0  0  0  0  0  0  0
 37 38  1  0  0  0
 38 27  1  0  0  0
 27 28  2  0  0  0
 28 29  1  0  0  0
 29 30  2  0  0  0
 30 31  1  0  0  0
 31 32  2  0  0  0
 32 23  1  0  0  0
 23 24  1  0  0  0
 24 25  2  0  0  0
 24  1  1  0  0  0
  1  2  1  0  0  0
  2  3  1  0  0  0
  3 41  1  0  0  0
 41 42  1  0  0  0
 42 43  1  0  0  0
 42 44  1  0  0  0
 42 45  1  0  0  0
  3  4  1  0  0  0
  4 39  1  0  0  0
 39 40  3  0  0  0
  4  5  1  0  0  0
  5  7  1  0  0  0
  7  8  2  0  0  0
  8  9  1  0  0  0
  9 10  2  0  0  0
 10 11  1  0  0  0
 11 12  1  0  0  0
 11 13  2  0  0  0
 13 14  1  0  0  0
  4 15  1  0  0  0
 15 16  2  0  0  0
 16 17  1  0  0  0
 17 18  2  0  0  0
 18 19  1  0  0  0
 18 20  1  0  0  0
 20 21  2  0  0  0
 21 22  1  0  0  0
 29 33  1  0  0  0
 33 34  1  0  0  0
 33 35  2  0  0  0
 32 27  1  0  0  0
  5  1  1  0  0  0
 13  7  1  0  0  0
 21 15  1  0  0  0
 23 26  1  0  0  0
  2  6  1  0  0  0
 34 36  1  0  0  0
M  END
> <minimizedAffinity>
-6.30662

> <CNNscore>
0.4055459797

> <CNNaffinity>
7.7832579613

> <CNN_VS>
3.1564688683

> <CNNaffinity_variance>
0.0601326711

$$$$
[H]OC(=O)c1c([H])c([H])c(N([H])C(=O)[C@]2([H])N([H])[C@@]([H])(C([H])([H])C(C([H])([H])[H])(C([H])([H])[H])C([H])([H])[H])[C@](C#N)(c3c([H])c([H])c(Cl)c([H])c3Cl)[C@@]2([H])c2c([H])c([H])c([H])c(Cl)c2F)c(OC([H])([H])[H])c1[H]


 45 48  0  0  0  0  0  0  0  0999 V2000
   11.5453   24.1345    2.0405 C   0  0  0  0  0  0  0  0  0  0  0  0
   12.2099   22.8496    1.8944 N   0  0  0  0  0  0  0  0  0  0  0  0
   11.2966   21.7870    2.2421 C   0  0  0  0  0  0  0  0  0  0  0  0
    9.9106   22.3137    1.9780 C   0  0  0  0  0  0  0  0  0  0  0  0
   10.1252   23.7967    2.0067 C   0  0  0  0  0  0  0  0  0  0  0  0
   12.7245   22.7111    1.0356 H   0  0  0  0  0  0  0  0  0  0  0  0
    9.1138   24.5695    2.6729 C   0  0  0  0  0  0  0  0  0  0  0  0
    7.7919   24.1132    2.6620 C   0  0  0  0  0  0  0  0  0  0  0  0
    6.7864   24.6714    3.4115 C   0  0  0  0  0  0  0  0  0  0  0  0
    7.0642   25.7505    4.2376 C   0  0  0  0  0  0  0  0  0  0  0  0
    8.3432   26.2236    4.2707 C   0  0  0  0  0  0  0  0  0  0  0  0
    8.7565   27.5892    5.2959 Cl  0  0  0  0  0  0  0  0  0  0  0  0
    9.3340   25.6548    3.5129 C   0  0  0  0  0  0  0  0  0  0  0  0
   10.5059   26.2678    3.4848 F   0  0  0  0  0  0  0  0  0  0  0  0
    9.5167   21.7413    0.6700 C   0  0  0  0  0  0  0  0  0  0  0  0
    8.2044   21.6069    0.2772 C   0  0  0  0  0  0  0  0  0  0  0  0
    7.8479   21.1214   -1.0031 C   0  0  0  0  0  0  0  0  0  0  0  0
    8.8070   20.7647   -1.8994 C   0  0  0  0  0  0  0  0  0  0  0  0
    8.4288   20.1581   -3.5129 Cl  0  0  0  0  0  0  0  0  0  0  0  0
   10.1153   20.8848   -1.5345 C   0  0  0  0  0  0  0  0  0  0  0  0
   10.4365   21.3674   -0.2597 C   0  0  0  0  0  0  0  0  0  0  0  0
   12.1177   21.3571    0.1013 Cl  0  0  0  0  0  0  0  0  0  0  0  0
   12.5481   24.2645   -0.2741 N   0  0  0  0  0  0  0  0  0  0  0  0
   12.0985   24.9298    0.8856 C   0  0  0  0  0  0  0  0  0  0  0  0
   12.1135   26.1615    1.0157 O   0  0  0  0  0  0  0  0  0  0  0  0
   12.5069   23.2231   -0.2389 H   0  0  0  0  0  0  0  0  0  0  0  0
   14.4455   24.8084   -1.6452 C   0  0  0  0  0  0  0  0  0  0  0  0
   15.0056   25.3461   -2.7659 C   0  0  0  0  0  0  0  0  0  0  0  0
   14.2328   25.9705   -3.7390 C   0  0  0  0  0  0  0  0  0  0  0  0
   12.8856   26.0197   -3.5150 C   0  0  0  0  0  0  0  0  0  0  0  0
   12.2513   25.4873   -2.3866 C   0  0  0  0  0  0  0  0  0  0  0  0
   13.0505   24.8732   -1.4416 C   0  0  0  0  0  0  0  0  0  0  0  0
   14.8541   26.5331   -4.9582 C   0  0  0  0  0  0  0  0  0  0  0  0
   15.1901   27.8546   -5.0463 O   0  0  0  0  0  0  0  0  0  0  0  0
   15.0495   25.7372   -5.8918 O   0  0  0  0  0  0  0  0  0  0  0  0
   14.4415   28.5494   -4.9100 H   0  0  0  0  0  0  0  0  0  0  0  0
   16.3964   24.8075   -0.2305 C   0  0  0  0  0  0  0  0  0  0  0  0
   15.2179   24.1852   -0.6800 O   0  0  0  0  0  0  0  0  0  0  0  0
    8.9074   21.8221    2.9352 C   0  0  0  0  0  0  0  0  0  0  0  0
    8.0778   21.4482    3.6664 N   0  0  0  0  0  0  0  0  0  0  0  0
   11.5718   21.2713    3.6002 C   0  0  0  0  0  0  0  0  0  0  0  0
   11.4516   19.7316    3.6040 C   0  0  0  0  0  0  0  0  0  0  0  0
   12.8580   19.1950    3.4346 C   0  0  0  0  0  0  0  0  0  0  0  0
   10.6735   19.2440    2.3812 C   0  0  0  0  0  0  0  0  0  0  0  0
   10.8394   19.2214    4.8525 C   0  0  0  0  0  0  0  0  0  0  0  0
 37 38  1  0  0  0
 38 27  1  0  0  0
 27 28  2  0  0  0
 28 29  1  0  0  0
 29 30  2  0  0  0
 30 31  1  0  0  0
 31 32  2  0  0  0
 32 23  1  0  0  0
 23 24  1  0  0  0
 24 25  2  0  0  0
 24  1  1  0  0  0
  1  2  1  0  0  0
  2  3  1  0  0  0
  3 41  1  0  0  0
 41 42  1  0  0  0
 42 43  1  0  0  0
 42 44  1  0  0  0
 42 45  1  0  0  0
  3  4  1  0  0  0
  4 39  1  0  0  0
 39 40  3  0  0  0
  4  5  1  0  0  0
  5  7  1  0  0  0
  7  8  2  0  0  0
  8  9  1  0  0  0
  9 10  2  0  0  0
 10 11  1  0  0  0
 11 12  1  0  0  0
 11 13  2  0  0  0
 13 14  1  0  0  0
  4 15  1  0  0  0
 15 16  2  0  0  0
 16 17  1  0  0  0
 17 18  2  0  0  0
 18 19  1  0  0  0
 18 20  1  0  0  0
 20 21  2  0  0  0
 21 22  1  0  0  0
 29 33  1  0  0  0
 33 34  1  0  0  0
 33 35  2  0  0  0
 32 27  1  0  0  0
  5  1  1  0  0  0
 13  7  1  0  0  0
 21 15  1  0  0  0
 23 26  1  0  0  0
  2  6  1  0  0  0
 34 36  1  0  0  0
M  END
> <minimizedAffinity>
-2.03245

> <CNNscore>
0.4032821059

> <CNNaffinity>
7.5519027710

> <CNN_VS>
3.0455472469

> <CNNaffinity_variance>
0.1948560327

$$$$
[H]OC(=O)c1c([H])c([H])c(N([H])C(=O)[C@]2([H])N([H])[C@@]([H])(C([H])([H])C(C([H])([H])[H])(C([H])([H])[H])C([H])([H])[H])[C@](C#N)(c3c([H])c([H])c(Cl)c([H])c3Cl)[C@@]2([H])c2c([H])c([H])c([H])c(Cl)c2F)c(OC([H])([H])[H])c1[H]


 45 48  0  0  0  0  0  0  0  0999 V2000
   14.6383   24.2821   -2.0345 C   0  0  0  0  0  0  0  0  0  0  0  0
   14.8406   25.2785   -0.9952 N   0  0  0  0  0  0  0  0  0  0  0  0
   15.6096   26.3812   -1.5213 C   0  0  0  0  0  0  0  0  0  0  0  0
   15.3445   26.4161   -3.0033 C   0  0  0  0  0  0  0  0  0  0  0  0
   14.8714   25.0198   -3.2728 C   0  0  0  0  0  0  0  0  0  0  0  0
   14.0207   25.5397   -0.4650 H   0  0  0  0  0  0  0  0  0  0  0  0
   15.3610   24.4072   -4.4765 C   0  0  0  0  0  0  0  0  0  0  0  0
   15.7042   23.0516   -4.4588 C   0  0  0  0  0  0  0  0  0  0  0  0
   16.0082   22.3272   -5.5845 C   0  0  0  0  0  0  0  0  0  0  0  0
   15.9822   22.9452   -6.8262 C   0  0  0  0  0  0  0  0  0  0  0  0
   15.6542   24.2682   -6.8802 C   0  0  0  0  0  0  0  0  0  0  0  0
   15.6061   25.1068   -8.4233 Cl  0  0  0  0  0  0  0  0  0  0  0  0
   15.3561   24.9761   -5.7447 C   0  0  0  0  0  0  0  0  0  0  0  0
   15.2012   26.2843   -5.8667 F   0  0  0  0  0  0  0  0  0  0  0  0
   14.3417   27.4887   -3.1968 C   0  0  0  0  0  0  0  0  0  0  0  0
   14.6851   28.7937   -3.4674 C   0  0  0  0  0  0  0  0  0  0  0  0
   13.7135   29.7915   -3.7170 C   0  0  0  0  0  0  0  0  0  0  0  0
   12.3879   29.4872   -3.6950 C   0  0  0  0  0  0  0  0  0  0  0  0
   11.1276   30.6833   -4.0034 Cl  0  0  0  0  0  0  0  0  0  0  0  0
   12.0200   28.2020   -3.4261 C   0  0  0  0  0  0  0  0  0  0  0  0
   13.0050   27.2370   -3.1819 C   0  0  0  0  0  0  0  0  0  0  0  0
   12.3923   25.6906   -2.7460 Cl  0  0  0  0  0  0  0  0  0  0  0  0
   12.8083   23.5853   -0.4390 N   0  0  0  0  0  0  0  0  0  0  0  0
   13.2356   23.7996   -1.7661 C   0  0  0  0  0  0  0  0  0  0  0  0
   12.5084   23.6281   -2.7540 O   0  0  0  0  0  0  0  0  0  0  0  0
   13.5317   23.7392    0.2961 H   0  0  0  0  0  0  0  0  0  0  0  0
   11.3639   21.8157    0.3078 C   0  0  0  0  0  0  0  0  0  0  0  0
   10.1582   21.3477    0.7393 C   0  0  0  0  0  0  0  0  0  0  0  0
    9.0526   22.1830    0.8580 C   0  0  0  0  0  0  0  0  0  0  0  0
    9.2345   23.4943    0.5190 C   0  0  0  0  0  0  0  0  0  0  0  0
   10.4452   24.0348    0.0702 C   0  0  0  0  0  0  0  0  0  0  0  0
   11.5221   23.1757   -0.0339 C   0  0  0  0  0  0  0  0  0  0  0  0
    7.7558   21.6633    1.3449 C   0  0  0  0  0  0  0  0  0  0  0  0
    7.6746   20.5114    2.0755 O   0  0  0  0  0  0  0  0  0  0  0  0
    6.7511   22.3319    1.0503 O   0  0  0  0  0  0  0  0  0  0  0  0
    8.0470   19.6487    1.6527 H   0  0  0  0  0  0  0  0  0  0  0  0
   13.3008   20.7867    1.3064 C   0  0  0  0  0  0  0  0  0  0  0  0
   12.4629   20.9816    0.1937 O   0  0  0  0  0  0  0  0  0  0  0  0
   16.5133   26.8296   -3.7955 C   0  0  0  0  0  0  0  0  0  0  0  0
   17.4616   27.1712   -4.3843 N   0  0  0  0  0  0  0  0  0  0  0  0
   17.0224   26.2974   -1.0932 C   0  0  0  0  0  0  0  0  0  0  0  0
   17.2961   24.9070   -0.4792 C   0  0  0  0  0  0  0  0  0  0  0  0
   16.0904   24.5748    0.3754 C   0  0  0  0  0  0  0  0  0  0  0  0
   18.4825   24.9621    0.4840 C   0  0  0  0  0  0  0  0  0  0  0  0
   17.5099   23.8703   -1.5153 C   0  0  0  0  0  0  0  0  0  0  0  0
 37 38  1  0  0  0
 38 27  1  0  0  0
 27 28  2  0  0  0
 28 29  1  0  0  0
 29 30  2  0  0  0
 30 31  1  0  0  0
 31 32  2  0  0  0
 32 23  1  0  0  0
 23 24  1  0  0  0
 24 25  2  0  0  0
 24  1  1  0  0  0
  1  2  1  0  0  0
  2  3  1  0  0  0
  3 41  1  0  0  0
 41 42  1  0  0  0
 42 43  1  0  0  0
 42 44  1  0  0  0
 42 45  1  0  0  0
  3  4  1  0  0  0
  4 39  1  0  0  0
 39 40  3  0  0  0
  4  5  1  0  0  0
  5  7  1  0  0  0
  7  8  2  0  0  0
  8  9  1  0  0  0
  9 10  2  0  0  0
 10 11  1  0  0  0
 11 12  1  0  0  0
 11 13  2  0  0  0
 13 14  1  0  0  0
  4 15  1  0  0  0
 15 16  2  0  0  0
 16 17  1  0  0  0
 17 18  2  0  0  0
 18 19  1  0  0  0
 18 20  1  0  0  0
 20 21  2  0  0  0
 21 22  1  0  0  0
 29 33  1  0  0  0
 33 34  1  0  0  0
 33 35  2  0  0  0
 32 27  1  0  0  0
  5  1  1  0  0  0
 13  7  1  0  0  0
 21 15  1  0  0  0
 23 26  1  0  0  0
  2  6  1  0  0  0
 34 36  1  0  0  0
M  END
> <minimizedAffinity>
22.75373

> <CNNscore>
0.4032453299

> <CNNaffinity>
7.9581398964

> <CNN_VS>
3.2090828419

> <CNNaffinity_variance>
0.6708348393

$$$$
[H]O[C@@]1([H])C([H])([H])[C@]2([H])[C@]1(C([H])([H])[H])C([H])([H])C([H])([H])[C@]1([H])[C@@]3(C([H])([H])[H])C([H])=C([H])C(=O)C([H])=C3C([H])([H])C([H])([H])[C@]12[H]


 21 24  0  0  0  0  0  0  0  0999 V2000
   13.1237   21.7867    1.1800 C   0  0  0  0  0  0  0  0  0  0  0  0
   12.5703   21.1535   -0.0554 C   0  0  0  0  0  0  0  0  0  0  0  0
   13.5931   20.7135   -1.0077 C   0  0  0  0  0  0  0  0  0  0  0  0
   14.3777   21.9355   -1.4380 C   0  0  0  0  0  0  0  0  0  0  0  0
   13.4872   23.0438   -1.9548 C   0  0  0  0  0  0  0  0  0  0  0  0
   12.3532   23.3651   -0.9678 C   0  0  0  0  0  0  0  0  0  0  0  0
   11.5012   24.4715   -1.4984 C   0  0  0  0  0  0  0  0  0  0  0  0
   12.3621   25.7493   -1.4848 C   0  0  0  0  0  0  0  0  0  0  0  0
   13.3961   25.4275   -2.5499 C   0  0  0  0  0  0  0  0  0  0  0  0
   13.5072   26.1746   -3.6067 C   0  0  0  0  0  0  0  0  0  0  0  0
   14.4602   25.9458   -4.6891 C   0  0  0  0  0  0  0  0  0  0  0  0
   14.5546   26.6719   -5.6925 O   0  0  0  0  0  0  0  0  0  0  0  0
   15.3255   24.7833   -4.5290 C   0  0  0  0  0  0  0  0  0  0  0  0
   15.1847   24.0548   -3.4442 C   0  0  0  0  0  0  0  0  0  0  0  0
   14.2580   24.2575   -2.3409 C   0  0  0  0  0  0  0  0  0  0  0  0
   15.1379   24.6282   -1.1197 C   0  0  0  0  0  0  0  0  0  0  0  0
   11.6385   22.0676   -0.8765 C   0  0  0  0  0  0  0  0  0  0  0  0
   10.6128   21.7500    0.0812 C   0  0  0  0  0  0  0  0  0  0  0  0
   11.3383   20.3888    0.2184 C   0  0  0  0  0  0  0  0  0  0  0  0
   11.1645   19.9242    1.5127 O   0  0  0  0  0  0  0  0  0  0  0  0
   11.5782   19.0240    1.6074 H   0  0  0  0  0  0  0  0  0  0  0  0
  2  1  1  0  0  0
  2  3  1  0  0  0
  3  4  1  0  0  0
  4  5  1  0  0  0
  5  6  1  0  0  0
  6  7  1  0  0  0
  7  8  1  0  0  0
  8  9  1  0  0  0
  9 10  2  0  0  0
 10 11  1  0  0  0
 11 12  2  0  0  0
 11 13  1  0  0  0
 13 14  2  0  0  0
 14 15  1  0  0  0
 15 16  1  0  0  0
  6 17  1  0  0  0
 17 18  1  0  0  0
 18 19  1  0  0  0
 19 20  1  0  0  0
 17  2  1  0  0  0
 19  2  1  0  0  0
 15  5  1  0  0  0
 15  9  1  0  0  0
 20 21  1  0  0  0
M  END
> <minimizedAffinity>
-10.45365

> <CNNscore>
0.9031300545

> <CNNaffinity>
7.1265816689

> <CNN_VS>
6.4362301826

> <CNNaffinity_variance>
0.2391079366

$$$$
[H]O[C@@]1([H])C([H])([H])[C@]2([H])[C@]1(C([H])([H])[H])C([H])([H])C([H])([H])[C@]1([H])[C@@]3(C([H])([H])[H])C([H])=C([H])C(=O)C([H])=C3C([H])([H])C([H])([H])[C@]12[H]


 21 24  0  0  0  0  0  0  0  0999 V2000
   12.7844   22.6302   -0.0971 C   0  0  0  0  0  0  0  0  0  0  0  0
   14.2374   22.7830    0.2173 C   0  0  0  0  0  0  0  0  0  0  0  0
   14.6272   24.1479    0.5802 C   0  0  0  0  0  0  0  0  0  0  0  0
   14.3234   25.0435   -0.6029 C   0  0  0  0  0  0  0  0  0  0  0  0
   14.9492   24.5418   -1.8855 C   0  0  0  0  0  0  0  0  0  0  0  0
   14.6124   23.0634   -2.1389 C   0  0  0  0  0  0  0  0  0  0  0  0
   15.2311   22.6019   -3.4179 C   0  0  0  0  0  0  0  0  0  0  0  0
   14.5047   23.3370   -4.5608 C   0  0  0  0  0  0  0  0  0  0  0  0
   14.9569   24.7691   -4.3335 C   0  0  0  0  0  0  0  0  0  0  0  0
   15.6195   25.4041   -5.2527 C   0  0  0  0  0  0  0  0  0  0  0  0
   16.1054   26.7754   -5.1287 C   0  0  0  0  0  0  0  0  0  0  0  0
   16.7364   27.3688   -6.0191 O   0  0  0  0  0  0  0  0  0  0  0  0
   15.8033   27.4371   -3.8651 C   0  0  0  0  0  0  0  0  0  0  0  0
   15.1278   26.7624   -2.9620 C   0  0  0  0  0  0  0  0  0  0  0  0
   14.6172   25.4030   -3.0535 C   0  0  0  0  0  0  0  0  0  0  0  0
   13.0730   25.5379   -3.0771 C   0  0  0  0  0  0  0  0  0  0  0  0
   15.1827   22.4007   -0.9397 C   0  0  0  0  0  0  0  0  0  0  0  0
   14.9604   21.0298   -0.5638 C   0  0  0  0  0  0  0  0  0  0  0  0
   14.7916   21.5827    0.8729 C   0  0  0  0  0  0  0  0  0  0  0  0
   13.8973   20.7730    1.5555 O   0  0  0  0  0  0  0  0  0  0  0  0
   13.8152   21.0798    2.4987 H   0  0  0  0  0  0  0  0  0  0  0  0
  2  1  1  0  0  0
  2  3  1  0  0  0
  3  4  1  0  0  0
  4  5  1  0  0  0
  5  6  1  0  0  0
  6  7  1  0  0  0
  7  8  1  0  0  0
  8  9  1  0  0  0
  9 10  2  0  0  0
 10 11  1  0  0  0
 11 12  2  0  0  0
 11 13  1  0  0  0
 13 14  2  0  0  0
 14 15  1  0  0  0
 15 16  1  0  0  0
  6 17  1  0  0  0
 17 18  1  0  0  0
 18 19  1  0  0  0
 19 20  1  0  0  0
 17  2  1  0  0  0
 19  2  1  0  0  0
 15  5  1  0  0  0
 15  9  1  0  0  0
 20 21  1  0  0  0
M  END
> <minimizedAffinity>
-4.36486

> <CNNscore>
0.6584990025

> <CNNaffinity>
6.6547098160

> <CNN_VS>
4.3821196556

> <CNNaffinity_variance>
0.3021089137

$$$$
[H]O[C@@]1([H])C([H])([H])[C@]2([H])[C@]1(C([H])([H])[H])C([H])([H])C([H])([H])[C@]1([H])[C@@]3(C([H])([H])[H])C([H])=C([H])C(=O)C([H])=C3C([H])([H])C([H])([H])[C@]12[H]


 21 24  0  0  0  0  0  0  0  0999 V2000
   11.6263   25.0692    1.3457 C   0  0  0  0  0  0  0  0  0  0  0  0
   11.2280   23.8190    0.6304 C   0  0  0  0  0  0  0  0  0  0  0  0
   12.2636   22.7826    0.6223 C   0  0  0  0  0  0  0  0  0  0  0  0
   13.4741   23.3469   -0.0923 C   0  0  0  0  0  0  0  0  0  0  0  0
   13.1360   23.8944   -1.4614 C   0  0  0  0  0  0  0  0  0  0  0  0
   11.9524   24.8737   -1.4027 C   0  0  0  0  0  0  0  0  0  0  0  0
   11.6525   25.4077   -2.7652 C   0  0  0  0  0  0  0  0  0  0  0  0
   12.8397   26.3026   -3.1698 C   0  0  0  0  0  0  0  0  0  0  0  0
   13.9509   25.2784   -3.3228 C   0  0  0  0  0  0  0  0  0  0  0  0
   14.5511   25.1237   -4.4642 C   0  0  0  0  0  0  0  0  0  0  0  0
   15.6217   24.1632   -4.7161 C   0  0  0  0  0  0  0  0  0  0  0  0
   16.1867   24.0295   -5.8142 O   0  0  0  0  0  0  0  0  0  0  0  0
   16.0085   23.3403   -3.5763 C   0  0  0  0  0  0  0  0  0  0  0  0
   15.3800   23.5298   -2.4378 C   0  0  0  0  0  0  0  0  0  0  0  0
   14.3201   24.4827   -2.1454 C   0  0  0  0  0  0  0  0  0  0  0  0
   14.9383   25.5041   -1.1565 C   0  0  0  0  0  0  0  0  0  0  0  0
   10.8668   24.0229   -0.8549 C   0  0  0  0  0  0  0  0  0  0  0  0
    9.5888   24.4996   -0.3972 C   0  0  0  0  0  0  0  0  0  0  0  0
    9.7907   23.5242    0.7885 C   0  0  0  0  0  0  0  0  0  0  0  0
    9.1628   24.0516    1.9061 O   0  0  0  0  0  0  0  0  0  0  0  0
    9.2349   23.4141    2.6669 H   0  0  0  0  0  0  0  0  0  0  0  0
  2  1  1  0  0  0
  2  3  1  0  0  0
  3  4  1  0  0  0
  4  5  1  0  0  0
  5  6  1  0  0  0
  6  7  1  0  0  0
  7  8  1  0  0  0
  8  9  1  0  0  0
  9 10  2  0  0  0
 10 11  1  0  0  0
 11 12  2  0  0  0
 11 13  1  0  0  0
 13 14  2  0  0  0
 14 15  1  0  0  0
 15 16  1  0  0  0
  6 17  1  0  0  0
 17 18  1  0  0  0
 18 19  1  0  0  0
 19 20  1  0  0  0
 17  2  1  0  0  0
 19  2  1  0  0  0
 15  5  1  0  0  0
 15  9  1  0  0  0
 20 21  1  0  0  0
M  END
> <minimizedAffinity>
-2.48222

> <CNNscore>
0.6368857026

> <CNNaffinity>
6.3996105194

> <CNN_VS>
4.0758204460

> <CNNaffinity_variance>
0.4849679470

$$$$
[H]O[C@@]1([H])C([H])([H])[C@]2([H])[C@]1(C([H])([H])[H])C([H])([H])C([H])([H])[C@]1([H])[C@@]3(C([H])([H])[H])C([H])=C([H])C(=O)C([H])=C3C([H])([H])C([H])([H])[C@]12[H]


 21 24  0  0  0  0  0  0  0  0999 V2000
   15.5870   26.4435   -2.8431 C   0  0  0  0  0  0  0  0  0  0  0  0
   14.5832   25.9282   -3.8231 C   0  0  0  0  0  0  0  0  0  0  0  0
   13.2214   26.4169   -3.5924 C   0  0  0  0  0  0  0  0  0  0  0  0
   12.7918   25.9507   -2.2169 C   0  0  0  0  0  0  0  0  0  0  0  0
   12.9524   24.4576   -2.0345 C   0  0  0  0  0  0  0  0  0  0  0  0
   14.3641   23.9888   -2.4226 C   0  0  0  0  0  0  0  0  0  0  0  0
   14.4961   22.5149   -2.2180 C   0  0  0  0  0  0  0  0  0  0  0  0
   14.4392   22.2641   -0.6988 C   0  0  0  0  0  0  0  0  0  0  0  0
   12.9998   22.6344   -0.3858 C   0  0  0  0  0  0  0  0  0  0  0  0
   12.1889   21.7550    0.1205 C   0  0  0  0  0  0  0  0  0  0  0  0
   10.7885   22.0080    0.4478 C   0  0  0  0  0  0  0  0  0  0  0  0
   10.0269   21.1555    0.9337 O   0  0  0  0  0  0  0  0  0  0  0  0
   10.3114   23.3567    0.1666 C   0  0  0  0  0  0  0  0  0  0  0  0
   11.1634   24.2185   -0.3421 C   0  0  0  0  0  0  0  0  0  0  0  0
   12.5655   24.0080   -0.6691 C   0  0  0  0  0  0  0  0  0  0  0  0
   13.3630   24.8878    0.3275 C   0  0  0  0  0  0  0  0  0  0  0  0
   14.4487   24.3922   -3.8483 C   0  0  0  0  0  0  0  0  0  0  0  0
   15.6464   24.3791   -4.6454 C   0  0  0  0  0  0  0  0  0  0  0  0
   15.1623   25.7537   -5.1692 C   0  0  0  0  0  0  0  0  0  0  0  0
   16.2722   26.5245   -5.4780 O   0  0  0  0  0  0  0  0  0  0  0  0
   15.9827   27.3935   -5.8672 H   0  0  0  0  0  0  0  0  0  0  0  0
  2  1  1  0  0  0
  2  3  1  0  0  0
  3  4  1  0  0  0
  4  5  1  0  0  0
  5  6  1  0  0  0
  6  7  1  0  0  0
  7  8  1  0  0  0
  8  9  1  0  0  0
  9 10  2  0  0  0
 10 11  1  0  0  0
 11 12  2  0  0  0
 11 13  1  0  0  0
 13 14  2  0  0  0
 14 15  1  0  0  0
 15 16  1  0  0  0
  6 17  1  0  0  0
 17 18  1  0  0  0
 18 19  1  0  0  0
 19 20  1  0  0  0
 17  2  1  0  0  0
 19  2  1  0  0  0
 15  5  1  0  0  0
 15  9  1  0  0  0
 20 21  1  0  0  0
M  END
> <minimizedAffinity>
-9.15188

> <CNNscore>
0.5197514296

> <CNNaffinity>
6.5827026367

> <CNN_VS>
3.4213690758

> <CNNaffinity_variance>
0.2535353303

$$$$
[H]O[C@@]1([H])C([H])([H])[C@]2([H])[C@]1(C([H])([H])[H])C([H])([H])C([H])([H])[C@]1([H])[C@@]3(C([H])([H])[H])C([H])=C([H])C(=O)C([H])=C3C([H])([H])C([H])([H])[C@]12[H]


 21 24  0  0  0  0  0  0  0  0999 V2000
   14.7789   24.7385   -4.7565 C   0  0  0  0  0  0  0  0  0  0  0  0
   15.0955   25.6252   -3.5959 C   0  0  0  0  0  0  0  0  0  0  0  0
   16.1443   25.1023   -2.7165 C   0  0  0  0  0  0  0  0  0  0  0  0
   15.6597   23.7807   -2.1574 C   0  0  0  0  0  0  0  0  0  0  0  0
   14.3011   23.8919   -1.5017 C   0  0  0  0  0  0  0  0  0  0  0  0
   13.2798   24.5721   -2.4278 C   0  0  0  0  0  0  0  0  0  0  0  0
   11.9465   24.6537   -1.7590 C   0  0  0  0  0  0  0  0  0  0  0  0
   11.4154   23.2127   -1.6353 C   0  0  0  0  0  0  0  0  0  0  0  0
   12.3869   22.6186   -0.6302 C   0  0  0  0  0  0  0  0  0  0  0  0
   11.9585   22.1551    0.5051 C   0  0  0  0  0  0  0  0  0  0  0  0
   12.8097   21.5740    1.5394 C   0  0  0  0  0  0  0  0  0  0  0  0
   12.3829   21.1333    2.6194 O   0  0  0  0  0  0  0  0  0  0  0  0
   14.2344   21.5349    1.2318 C   0  0  0  0  0  0  0  0  0  0  0  0
   14.6277   22.0101    0.0713 C   0  0  0  0  0  0  0  0  0  0  0  0
   13.8106   22.5839   -0.9872 C   0  0  0  0  0  0  0  0  0  0  0  0
   13.8972   21.5845   -2.1692 C   0  0  0  0  0  0  0  0  0  0  0  0
   13.9010   25.8997   -2.6601 C   0  0  0  0  0  0  0  0  0  0  0  0
   13.4611   26.8635   -3.6335 C   0  0  0  0  0  0  0  0  0  0  0  0
   14.9671   27.0546   -3.9396 C   0  0  0  0  0  0  0  0  0  0  0  0
   15.1066   27.3918   -5.2769 O   0  0  0  0  0  0  0  0  0  0  0  0
   16.0637   27.5716   -5.4822 H   0  0  0  0  0  0  0  0  0  0  0  0
  2  1  1  0  0  0
  2  3  1  0  0  0
  3  4  1  0  0  0
  4  5  1  0  0  0
  5  6  1  0  0  0
  6  7  1  0  0  0
  7  8  1  0  0  0
  8  9  1  0  0  0
  9 10  2  0  0  0
 10 11  1  0  0  0
 11 12  2  0  0  0
 11 13  1  0  0  0
 13 14  2  0  0  0
 14 15  1  0  0  0
 15 16  1  0  0  0
  6 17  1  0  0  0
 17 18  1  0  0  0
 18 19  1  0  0  0
 19 20  1  0  0  0
 17  2  1  0  0  0
 19  2  1  0  0  0
 15  5  1  0  0  0
 15  9  1  0  0  0
 20 21  1  0  0  0
M  END
> <minimizedAffinity>
-7.54105

> <CNNscore>
0.5101221204

> <CNNaffinity>
6.6414785385

> <CNN_VS>
3.3879652023

> <CNNaffinity_variance>
0.1606002599

$$$$
[H]O[C@@]1([H])C([H])([H])[C@]2([H])[C@]1(C([H])([H])[H])C([H])([H])C([H])([H])[C@]1([H])[C@@]3(C([H])([H])[H])C([H])=C([H])C(=O)C([H])=C3C([H])([H])C([H])([H])[C@]12[H]


 21 24  0  0  0  0  0  0  0  0999 V2000
   14.3505   27.0471   -3.8755 C   0  0  0  0  0  0  0  0  0  0  0  0
   15.6036   26.2923   -4.1809 C   0  0  0  0  0  0  0  0  0  0  0  0
   15.3759   25.0005   -4.8335 C   0  0  0  0  0  0  0  0  0  0  0  0
   14.5520   24.1475   -3.8913 C   0  0  0  0  0  0  0  0  0  0  0  0
   15.1683   24.0445   -2.5137 C   0  0  0  0  0  0  0  0  0  0  0  0
   15.5081   25.4301   -1.9408 C   0  0  0  0  0  0  0  0  0  0  0  0
   16.1005   25.2963   -0.5760 C   0  0  0  0  0  0  0  0  0  0  0  0
   14.9815   24.7879    0.3531 C   0  0  0  0  0  0  0  0  0  0  0  0
   14.7611   23.3832   -0.1810 C   0  0  0  0  0  0  0  0  0  0  0  0
   14.9416   22.3511    0.5866 C   0  0  0  0  0  0  0  0  0  0  0  0
   14.7654   20.9634    0.1675 C   0  0  0  0  0  0  0  0  0  0  0  0
   14.9405   19.9875    0.9157 O   0  0  0  0  0  0  0  0  0  0  0  0
   14.3599   20.7728   -1.2199 C   0  0  0  0  0  0  0  0  0  0  0  0
   14.1839   21.8424   -1.9632 C   0  0  0  0  0  0  0  0  0  0  0  0
   14.3370   23.2374   -1.5790 C   0  0  0  0  0  0  0  0  0  0  0  0
   12.9101   23.8416   -1.6240 C   0  0  0  0  0  0  0  0  0  0  0  0
   16.4639   25.9600   -2.9449 C   0  0  0  0  0  0  0  0  0  0  0  0
   16.9360   27.3177   -3.0064 C   0  0  0  0  0  0  0  0  0  0  0  0
   16.7194   27.1910   -4.5345 C   0  0  0  0  0  0  0  0  0  0  0  0
   16.3834   28.4381   -5.0378 O   0  0  0  0  0  0  0  0  0  0  0  0
   16.2919   28.3898   -6.0277 H   0  0  0  0  0  0  0  0  0  0  0  0
  2  1  1  0  0  0
  2  3  1  0  0  0
  3  4  1  0  0  0
  4  5  1  0  0  0
  5  6  1  0  0  0
  6  7  1  0  0  0
  7  8  1  0  0  0
  8  9  1  0  0  0
  9 10  2  0  0  0
 10 11  1  0  0  0
 11 12  2  0  0  0
 11 13  1  0  0  0
 13 14  2  0  0  0
 14 15  1  0  0  0
 15 16  1  0  0  0
  6 17  1  0  0  0
 17 18  1  0  0  0
 18 19  1  0  0  0
 19 20  1  0  0  0
 17  2  1  0  0  0
 19  2  1  0  0  0
 15  5  1  0  0  0
 15  9  1  0  0  0
 20 21  1  0  0  0
M  END
> <minimizedAffinity>
-9.14782

> <CNNscore>
0.4599629939

> <CNNaffinity>
6.6818094254

> <CNN_VS>
3.0733850002

> <CNNaffinity_variance>
0.2921453714

$$$$
[H]O[C@@]1([H])C([H])([H])[C@]2([H])[C@]1(C([H])([H])[H])C([H])([H])C([H])([H])[C@]1([H])[C@@]3(C([H])([H])[H])C([H])=C([H])C(=O)C([H])=C3C([H])([H])C([H])([H])[C@]12[H]


 21 24  0  0  0  0  0  0  0  0999 V2000
   11.6876   23.1874    2.0460 C   0  0  0  0  0  0  0  0  0  0  0  0
   11.9156   21.7121    1.9762 C   0  0  0  0  0  0  0  0  0  0  0  0
   12.6755   21.2826    0.7995 C   0  0  0  0  0  0  0  0  0  0  0  0
   11.8828   21.6767   -0.4295 C   0  0  0  0  0  0  0  0  0  0  0  0
   10.4601   21.1640   -0.3908 C   0  0  0  0  0  0  0  0  0  0  0  0
    9.7615   21.5326    0.9280 C   0  0  0  0  0  0  0  0  0  0  0  0
    8.3561   21.0263    0.9301 C   0  0  0  0  0  0  0  0  0  0  0  0
    7.5827   21.8395   -0.1257 C   0  0  0  0  0  0  0  0  0  0  0  0
    8.2321   21.3586   -1.4118 C   0  0  0  0  0  0  0  0  0  0  0  0
    7.5231   20.7698   -2.3272 C   0  0  0  0  0  0  0  0  0  0  0  0
    8.0526   20.2643   -3.5906 C   0  0  0  0  0  0  0  0  0  0  0  0
    7.3596   19.7050   -4.4566 O   0  0  0  0  0  0  0  0  0  0  0  0
    9.4838   20.4547   -3.7931 C   0  0  0  0  0  0  0  0  0  0  0  0
   10.1656   21.0581   -2.8452 C   0  0  0  0  0  0  0  0  0  0  0  0
    9.6726   21.5853   -1.5818 C   0  0  0  0  0  0  0  0  0  0  0  0
    9.8205   23.1250   -1.6862 C   0  0  0  0  0  0  0  0  0  0  0  0
   10.6245   20.8697    1.9372 C   0  0  0  0  0  0  0  0  0  0  0  0
   10.5439   21.0708    3.3596 C   0  0  0  0  0  0  0  0  0  0  0  0
   12.0912   21.1149    3.3142 C   0  0  0  0  0  0  0  0  0  0  0  0
   12.5388   21.9557    4.3212 O   0  0  0  0  0  0  0  0  0  0  0  0
   13.5338   21.9564    4.3438 H   0  0  0  0  0  0  0  0  0  0  0  0
  2  1  1  0  0  0
  2  3  1  0  0  0
  3  4  1  0  0  0
  4  5  1  0  0  0
  5  6  1  0  0  0
  6  7  1  0  0  0
  7  8  1  0  0  0
  8  9  1  0  0  0
  9 10  2  0  0  0
 10 11  1  0  0  0
 11 12  2  0  0  0
 11 13  1  0  0  0
 13 14  2  0  0  0
 14 15  1  0  0  0
 15 16  1  0  0  0
  6 17  1  0  0  0
 17 18  1  0  0  0
 18 19  1  0  0  0
 19 20  1  0  0  0
 17  2  1  0  0  0
 19  2  1  0  0  0
 15  5  1  0  0  0
 15  9  1  0  0  0
 20 21  1  0  0  0
M  END
> <minimizedAffinity>
10.50024

> <CNNscore>
0.4506922066

> <CNNaffinity>
5.3316931725

> <CNN_VS>
2.4029526711

> <CNNaffinity_variance>
0.4731647968

$$$$
[H]O[C@@]1([H])C([H])([H])[C@]2([H])[C@]1(C([H])([H])[H])C([H])([H])C([H])([H])[C@]1([H])[C@@]3(C([H])([H])[H])C([H])=C([H])C(=O)C([H])=C3C([H])([H])C([H])([H])[C@]12[H]


 21 24  0  0  0  0  0  0  0  0999 V2000
   12.2791   22.6850   -1.3432 C   0  0  0  0  0  0  0  0  0  0  0  0
   11.9408   24.0389   -0.8086 C   0  0  0  0  0  0  0  0  0  0  0  0
   11.5344   25.0001   -1.8369 C   0  0  0  0  0  0  0  0  0  0  0  0
   12.6959   25.1688   -2.7943 C   0  0  0  0  0  0  0  0  0  0  0  0
   13.9835   25.5279   -2.0861 C   0  0  0  0  0  0  0  0  0  0  0  0
   14.2829   24.5592   -0.9306 C   0  0  0  0  0  0  0  0  0  0  0  0
   15.5658   24.9303   -0.2613 C   0  0  0  0  0  0  0  0  0  0  0  0
   16.6973   24.6488   -1.2685 C   0  0  0  0  0  0  0  0  0  0  0  0
   16.4238   25.6996   -2.3306 C   0  0  0  0  0  0  0  0  0  0  0  0
   17.3157   26.6019   -2.6093 C   0  0  0  0  0  0  0  0  0  0  0  0
   17.1466   27.6575   -3.6039 C   0  0  0  0  0  0  0  0  0  0  0  0
   18.0114   28.5118   -3.8595 O   0  0  0  0  0  0  0  0  0  0  0  0
   15.8692   27.6598   -4.3066 C   0  0  0  0  0  0  0  0  0  0  0  0
   14.9947   26.7282   -3.9989 C   0  0  0  0  0  0  0  0  0  0  0  0
   15.1313   25.6553   -3.0255 C   0  0  0  0  0  0  0  0  0  0  0  0
   15.1721   24.3446   -3.8523 C   0  0  0  0  0  0  0  0  0  0  0  0
   13.0951   24.7335   -0.0580 C   0  0  0  0  0  0  0  0  0  0  0  0
   12.7610   23.9000    1.0661 C   0  0  0  0  0  0  0  0  0  0  0  0
   11.3117   23.9668    0.5244 C   0  0  0  0  0  0  0  0  0  0  0  0
   10.6644   22.7846    0.8479 O   0  0  0  0  0  0  0  0  0  0  0  0
    9.7141   22.8283    0.5553 H   0  0  0  0  0  0  0  0  0  0  0  0
  2  1  1  0  0  0
  2  3  1  0  0  0
  3  4  1  0  0  0
  4  5  1  0  0  0
  5  6  1  0  0  0
  6  7  1  0  0  0
  7  8  1  0  0  0
  8  9  1  0  0  0
  9 10  2  0  0  0
 10 11  1  0  0  0
 11 12  2  0  0  0
 11 13  1  0  0  0
 13 14  2  0  0  0
 14 15  1  0  0  0
 15 16  1  0  0  0
  6 17  1  0  0  0
 17 18  1  0  0  0
 18 19  1  0  0  0
 19 20  1  0  0  0
 17  2  1  0  0  0
 19  2  1  0  0  0
 15  5  1  0  0  0
 15  9  1  0  0  0
 20 21  1  0  0  0
M  END
> <minimizedAffinity>
-8.25225

> <CNNscore>
0.4096147120

> <CNNaffinity>
6.3186202049

> <CNN_VS>
2.5881998539

> <CNNaffinity_variance>
0.2723786235

$$$$
[H]O[C@@]1([H])C([H])([H])[C@]2([H])[C@]1(C([H])([H])[H])C([H])([H])C([H])([H])[C@]1([H])[C@@]3(C([H])([H])[H])C([H])=C([H])C(=O)C([H])=C3C([H])([H])C([H])([H])[C@]12[H]


 21 24  0  0  0  0  0  0  0  0999 V2000
   14.8071   23.6767   -3.2672 C   0  0  0  0  0  0  0  0  0  0  0  0
   14.6491   24.6876   -2.1779 C   0  0  0  0  0  0  0  0  0  0  0  0
   15.3140   24.3208   -0.9249 C   0  0  0  0  0  0  0  0  0  0  0  0
   14.6944   23.0280   -0.4361 C   0  0  0  0  0  0  0  0  0  0  0  0
   13.1872   23.1091   -0.3359 C   0  0  0  0  0  0  0  0  0  0  0  0
   12.5606   23.6296   -1.6396 C   0  0  0  0  0  0  0  0  0  0  0  0
   11.0730   23.6843   -1.5148 C   0  0  0  0  0  0  0  0  0  0  0  0
   10.5739   22.2289   -1.4323 C   0  0  0  0  0  0  0  0  0  0  0  0
   11.1228   21.7980   -0.0832 C   0  0  0  0  0  0  0  0  0  0  0  0
   10.3192   21.4155    0.8629 C   0  0  0  0  0  0  0  0  0  0  0  0
   10.7452   20.9921    2.1938 C   0  0  0  0  0  0  0  0  0  0  0  0
    9.9628   20.6272    3.0869 O   0  0  0  0  0  0  0  0  0  0  0  0
   12.1834   21.0197    2.4315 C   0  0  0  0  0  0  0  0  0  0  0  0
   12.9633   21.4092    1.4480 C   0  0  0  0  0  0  0  0  0  0  0  0
   12.5782   21.8252    0.1080 C   0  0  0  0  0  0  0  0  0  0  0  0
   13.1219   20.7275   -0.8421 C   0  0  0  0  0  0  0  0  0  0  0  0
   13.1866   24.9681   -1.7772 C   0  0  0  0  0  0  0  0  0  0  0  0
   13.1097   25.8048   -2.9451 C   0  0  0  0  0  0  0  0  0  0  0  0
   14.6167   26.0666   -2.7023 C   0  0  0  0  0  0  0  0  0  0  0  0
   15.2297   26.2855   -3.9260 O   0  0  0  0  0  0  0  0  0  0  0  0
   16.1897   26.5089   -3.7882 H   0  0  0  0  0  0  0  0  0  0  0  0
  2  1  1  0  0  0
  2  3  1  0  0  0
  3  4  1  0  0  0
  4  5  1  0  0  0
  5  6  1  0  0  0
  6  7  1  0  0  0
  7  8  1  0  0  0
  8  9  1  0  0  0
  9 10  2  0  0  0
 10 11  1  0  0  0
 11 12  2  0  0  0
 11 13  1  0  0  0
 13 14  2  0  0  0
 14 15  1  0  0  0
 15 16  1  0  0  0
  6 17  1  0  0  0
 17 18  1  0  0  0
 18 19  1  0  0  0
 19 20  1  0  0  0
 17  2  1  0  0  0
 19  2  1  0  0  0
 15  5  1  0  0  0
 15  9  1  0  0  0
 20 21  1  0  0  0
M  END
> <minimizedAffinity>
-8.00893

> <CNNscore>
0.3935393691

> <CNNaffinity>
6.4218187332

> <CNN_VS>
2.5272386074

> <CNNaffinity_variance>
0.1067613140

$$$$
[H]OC(=O)[C@@]([H])(N([H])C(=O)[C@]([H])(C([H])([H])S[H])C([H])([H])c1c([H])c([H])c([H])c([H])c1[H])C([H])([H])[H]


 21 21  0  0  0  0  0  0  0  0999 V2000
   14.3784   23.9854   -2.3033 C   0  0  0  0  0  0  0  0  0  0  0  0
   13.8612   22.3877   -0.4096 N   0  0  0  0  0  0  0  0  0  0  0  0
   14.1892   22.6096   -1.7760 C   0  0  0  0  0  0  0  0  0  0  0  0
   14.3194   21.5983   -2.5487 O   0  0  0  0  0  0  0  0  0  0  0  0
   13.7585   23.2167    0.2059 H   0  0  0  0  0  0  0  0  0  0  0  0
   14.9329   20.5368    0.8050 C   0  0  0  0  0  0  0  0  0  0  0  0
   13.6764   21.0628    0.1096 C   0  0  0  0  0  0  0  0  0  0  0  0
   12.5923   21.0117    1.1304 C   0  0  0  0  0  0  0  0  0  0  0  0
   12.8453   21.3272    2.4397 O   0  0  0  0  0  0  0  0  0  0  0  0
   11.4497   20.6704    0.7421 O   0  0  0  0  0  0  0  0  0  0  0  0
   12.9842   20.5542    3.1012 H   0  0  0  0  0  0  0  0  0  0  0  0
   13.0100   24.6300   -2.4057 C   0  0  0  0  0  0  0  0  0  0  0  0
   12.6858   25.3850   -0.7739 S   0  0  0  0  0  0  0  0  0  0  0  0
   11.9203   26.5423   -0.8833 H   0  0  0  0  0  0  0  0  0  0  0  0
   15.1122   24.0048   -3.6131 C   0  0  0  0  0  0  0  0  0  0  0  0
   15.4981   25.3366   -4.0953 C   0  0  0  0  0  0  0  0  0  0  0  0
   15.1704   25.8729   -5.3171 C   0  0  0  0  0  0  0  0  0  0  0  0
   15.5756   27.1535   -5.6920 C   0  0  0  0  0  0  0  0  0  0  0  0
   16.3256   27.9386   -4.8489 C   0  0  0  0  0  0  0  0  0  0  0  0
   16.6618   27.4130   -3.6201 C   0  0  0  0  0  0  0  0  0  0  0  0
   16.2610   26.1476   -3.2497 C   0  0  0  0  0  0  0  0  0  0  0  0
  6  7  1  0  0  0
  7  2  1  0  0  0
  2  3  1  0  0  0
  3  4  2  0  0  0
  3  1  1  0  0  0
  1 12  1  0  0  0
 12 13  1  0  0  0
  1 15  1  0  0  0
 15 16  1  0  0  0
 16 17  2  0  0  0
 17 18  1  0  0  0
 18 19  2  0  0  0
 19 20  1  0  0  0
 20 21  2  0  0  0
  7  8  1  0  0  0
  8  9  1  0  0  0
  8 10  2  0  0  0
 21 16  1  0  0  0
  2  5  1  0  0  0
 13 14  1  0  0  0
  9 11  1  0  0  0
M  END
> <minimizedAffinity>
-7.62683

> <CNNscore>
0.8679205179

> <CNNaffinity>
6.4176836014

> <CNN_VS>
5.5700392723

> <CNNaffinity_variance>
0.1182760149

$$$$
[H]OC(=O)[C@@]([H])(N([H])C(=O)[C@]([H])(C([H])([H])S[H])C([H])([H])c1c([H])c([H])c([H])c([H])c1[H])C([H])([H])[H]


 21 21  0  0  0  0  0  0  0  0999 V2000
   13.4548   24.1508   -1.0529 C   0  0  0  0  0  0  0  0  0  0  0  0
   12.4211   22.4481    0.5086 N   0  0  0  0  0  0  0  0  0  0  0  0
   12.4078   23.1478   -0.7300 C   0  0  0  0  0  0  0  0  0  0  0  0
   11.4732   22.8976   -1.5671 O   0  0  0  0  0  0  0  0  0  0  0  0
   13.1846   22.6608    1.1782 H   0  0  0  0  0  0  0  0  0  0  0  0
   11.4342   20.2879   -0.1311 C   0  0  0  0  0  0  0  0  0  0  0  0
   11.4144   21.4774    0.8301 C   0  0  0  0  0  0  0  0  0  0  0  0
   11.6079   20.9056    2.1923 C   0  0  0  0  0  0  0  0  0  0  0  0
   12.4534   21.5024    3.0906 O   0  0  0  0  0  0  0  0  0  0  0  0
   10.9693   19.8646    2.4772 O   0  0  0  0  0  0  0  0  0  0  0  0
   13.3926   21.1029    3.2037 H   0  0  0  0  0  0  0  0  0  0  0  0
   13.9531   24.7319    0.2559 C   0  0  0  0  0  0  0  0  0  0  0  0
   15.7729   24.5748    0.2160 S   0  0  0  0  0  0  0  0  0  0  0  0
   16.3963   25.6180    0.8945 H   0  0  0  0  0  0  0  0  0  0  0  0
   12.9644   25.2137   -1.9932 C   0  0  0  0  0  0  0  0  0  0  0  0
   13.7700   25.3969   -3.2067 C   0  0  0  0  0  0  0  0  0  0  0  0
   14.7553   24.5483   -3.6506 C   0  0  0  0  0  0  0  0  0  0  0  0
   15.4692   24.7974   -4.8223 C   0  0  0  0  0  0  0  0  0  0  0  0
   15.2156   25.9108   -5.5878 C   0  0  0  0  0  0  0  0  0  0  0  0
   14.2300   26.7709   -5.1541 C   0  0  0  0  0  0  0  0  0  0  0  0
   13.5243   26.5243   -3.9963 C   0  0  0  0  0  0  0  0  0  0  0  0
  6  7  1  0  0  0
  7  2  1  0  0  0
  2  3  1  0  0  0
  3  4  2  0  0  0
  3  1  1  0  0  0
  1 12  1  0  0  0
 12 13  1  0  0  0
  1 15  1  0  0  0
 15 16  1  0  0  0
 16 17  2  0  0  0
 17 18  1  0  0  0
 18 19  2  0  0  0
 19 20  1  0  0  0
 20 21  2  0  0  0
  7  8  1  0  0  0
  8  9  1  0  0  0
  8 10  2  0  0  0
 21 16  1  0  0  0
  2  5  1  0  0  0
 13 14  1  0  0  0
  9 11  1  0  0  0
M  END
> <minimizedAffinity>
-7.39674

> <CNNscore>
0.7625213265

> <CNNaffinity>
6.1682720184

> <CNN_VS>
4.7034387589

> <CNNaffinity_variance>
0.2816871405

$$$$
[H]OC(=O)[C@@]([H])(N([H])C(=O)[C@]([H])(C([H])([H])S[H])C([H])([H])c1c([H])c([H])c([H])c([H])c1[H])C([H])([H])[H]


 21 21  0  0  0  0  0  0  0  0999 V2000
   13.3893   24.0642   -1.1153 C   0  0  0  0  0  0  0  0  0  0  0  0
   11.1105   23.1541   -0.4948 N   0  0  0  0  0  0  0  0  0  0  0  0
   12.3868   22.9681   -1.0951 C   0  0  0  0  0  0  0  0  0  0  0  0
   12.6591   21.8341   -1.6210 O   0  0  0  0  0  0  0  0  0  0  0  0
   10.9028   24.0786   -0.0721 H   0  0  0  0  0  0  0  0  0  0  0  0
   10.0150   21.3966   -1.8217 C   0  0  0  0  0  0  0  0  0  0  0  0
   10.1351   22.1019   -0.4699 C   0  0  0  0  0  0  0  0  0  0  0  0
   10.4866   21.0408    0.5152 C   0  0  0  0  0  0  0  0  0  0  0  0
   11.0652   19.8676    0.1070 O   0  0  0  0  0  0  0  0  0  0  0  0
   10.2317   21.2667    1.7222 O   0  0  0  0  0  0  0  0  0  0  0  0
   10.4605   19.0436    0.0079 H   0  0  0  0  0  0  0  0  0  0  0  0
   13.7267   24.4043    0.3231 C   0  0  0  0  0  0  0  0  0  0  0  0
   15.5445   24.2791    0.4568 S   0  0  0  0  0  0  0  0  0  0  0  0
   16.0586   25.1896    1.3756 H   0  0  0  0  0  0  0  0  0  0  0  0
   12.9160   25.2640   -1.8841 C   0  0  0  0  0  0  0  0  0  0  0  0
   13.8623   25.7838   -2.8789 C   0  0  0  0  0  0  0  0  0  0  0  0
   15.2315   25.6972   -2.8048 C   0  0  0  0  0  0  0  0  0  0  0  0
   16.0574   26.2151   -3.8020 C   0  0  0  0  0  0  0  0  0  0  0  0
   15.5324   26.8388   -4.9089 C   0  0  0  0  0  0  0  0  0  0  0  0
   14.1602   26.9329   -4.9960 C   0  0  0  0  0  0  0  0  0  0  0  0
   13.3443   26.4208   -4.0106 C   0  0  0  0  0  0  0  0  0  0  0  0
  6  7  1  0  0  0
  7  2  1  0  0  0
  2  3  1  0  0  0
  3  4  2  0  0  0
  3  1  1  0  0  0
  1 12  1  0  0  0
 12 13  1  0  0  0
  1 15  1  0  0  0
 15 16  1  0  0  0
 16 17  2  0  0  0
 17 18  1  0  0  0
 18 19  2  0  0  0
 19 20  1  0  0  0
 20 21  2  0  0  0
  7  8  1  0  0  0
  8  9  1  0  0  0
  8 10  2  0  0  0
 21 16  1  0  0  0
  2  5  1  0  0  0
 13 14  1  0  0  0
  9 11  1  0  0  0
M  END
> <minimizedAffinity>
-6.20388

> <CNNscore>
0.7003158331

> <CNNaffinity>
6.0461440086

> <CNN_VS>
4.2342104912

> <CNNaffinity_variance>
0.0665456653

$$$$
[H]OC(=O)[C@@]([H])(N([H])C(=O)[C@]([H])(C([H])([H])S[H])C([H])([H])c1c([H])c([H])c([H])c([H])c1[H])C([H])([H])[H]


 21 21  0  0  0  0  0  0  0  0999 V2000
   13.0246   24.3477   -0.8495 C   0  0  0  0  0  0  0  0  0  0  0  0
   12.1307   22.3547    0.4291 N   0  0  0  0  0  0  0  0  0  0  0  0
   11.9001   23.4872   -0.4003 C   0  0  0  0  0  0  0  0  0  0  0  0
   10.7005   23.7546   -0.7556 O   0  0  0  0  0  0  0  0  0  0  0  0
   13.1083   22.1494    0.7098 H   0  0  0  0  0  0  0  0  0  0  0  0
   10.9964   20.1977    0.0969 C   0  0  0  0  0  0  0  0  0  0  0  0
   11.0515   21.5171    0.8684 C   0  0  0  0  0  0  0  0  0  0  0  0
   11.1851   21.1455    2.3051 C   0  0  0  0  0  0  0  0  0  0  0  0
   12.3510   21.3806    2.9856 O   0  0  0  0  0  0  0  0  0  0  0  0
   10.1932   20.6134    2.8580 O   0  0  0  0  0  0  0  0  0  0  0  0
   12.9980   20.5938    3.1147 H   0  0  0  0  0  0  0  0  0  0  0  0
   13.6792   24.9306    0.3876 C   0  0  0  0  0  0  0  0  0  0  0  0
   15.4190   24.3744    0.3460 S   0  0  0  0  0  0  0  0  0  0  0  0
   16.2759   25.3166    0.9075 H   0  0  0  0  0  0  0  0  0  0  0  0
   12.5861   25.4130   -1.8125 C   0  0  0  0  0  0  0  0  0  0  0  0
   13.4368   25.5745   -2.9979 C   0  0  0  0  0  0  0  0  0  0  0  0
   13.3572   26.6006   -3.9082 C   0  0  0  0  0  0  0  0  0  0  0  0
   14.2129   26.6792   -5.0064 C   0  0  0  0  0  0  0  0  0  0  0  0
   15.1788   25.7261   -5.2263 C   0  0  0  0  0  0  0  0  0  0  0  0
   15.2698   24.6908   -4.3212 C   0  0  0  0  0  0  0  0  0  0  0  0
   14.4242   24.6136   -3.2357 C   0  0  0  0  0  0  0  0  0  0  0  0
  6  7  1  0  0  0
  7  2  1  0  0  0
  2  3  1  0  0  0
  3  4  2  0  0  0
  3  1  1  0  0  0
  1 12  1  0  0  0
 12 13  1  0  0  0
  1 15  1  0  0  0
 15 16  1  0  0  0
 16 17  2  0  0  0
 17 18  1  0  0  0
 18 19  2  0  0  0
 19 20  1  0  0  0
 20 21  2  0  0  0
  7  8  1  0  0  0
  8  9  1  0  0  0
  8 10  2  0  0  0
 21 16  1  0  0  0
  2  5  1  0  0  0
 13 14  1  0  0  0
  9 11  1  0  0  0
M  END
> <minimizedAffinity>
-7.46397

> <CNNscore>
0.6494747400

> <CNNaffinity>
6.0939588547

> <CNN_VS>
3.9578723907

> <CNNaffinity_variance>
0.2587055862

$$$$
[H]OC(=O)[C@@]([H])(N([H])C(=O)[C@]([H])(C([H])([H])S[H])C([H])([H])c1c([H])c([H])c([H])c([H])c1[H])C([H])([H])[H]


 21 21  0  0  0  0  0  0  0  0999 V2000
   13.1985   22.5117   -1.2673 C   0  0  0  0  0  0  0  0  0  0  0  0
   11.3173   22.0726    0.3681 N   0  0  0  0  0  0  0  0  0  0  0  0
   12.5248   22.7474    0.0355 C   0  0  0  0  0  0  0  0  0  0  0  0
   13.0245   23.5659    0.8822 O   0  0  0  0  0  0  0  0  0  0  0  0
   10.9230   21.4115   -0.3277 H   0  0  0  0  0  0  0  0  0  0  0  0
    9.1470   22.0823    1.5254 C   0  0  0  0  0  0  0  0  0  0  0  0
   10.6586   22.2932    1.6237 C   0  0  0  0  0  0  0  0  0  0  0  0
   11.1355   21.3513    2.6750 C   0  0  0  0  0  0  0  0  0  0  0  0
   12.4493   21.3403    3.0642 O   0  0  0  0  0  0  0  0  0  0  0  0
   10.2897   20.5769    3.1825 O   0  0  0  0  0  0  0  0  0  0  0  0
   13.0595   20.6131    2.6726 H   0  0  0  0  0  0  0  0  0  0  0  0
   13.5894   21.0479   -1.3238 C   0  0  0  0  0  0  0  0  0  0  0  0
   14.7644   20.7872    0.0508 S   0  0  0  0  0  0  0  0  0  0  0  0
   14.6595   19.5057    0.5838 H   0  0  0  0  0  0  0  0  0  0  0  0
   14.3751   23.4199   -1.4803 C   0  0  0  0  0  0  0  0  0  0  0  0
   14.1853   24.4635   -2.4952 C   0  0  0  0  0  0  0  0  0  0  0  0
   13.2467   25.4658   -2.4487 C   0  0  0  0  0  0  0  0  0  0  0  0
   13.1403   26.4227   -3.4574 C   0  0  0  0  0  0  0  0  0  0  0  0
   13.9759   26.4031   -4.5488 C   0  0  0  0  0  0  0  0  0  0  0  0
   14.9221   25.4028   -4.6085 C   0  0  0  0  0  0  0  0  0  0  0  0
   15.0272   24.4574   -3.6114 C   0  0  0  0  0  0  0  0  0  0  0  0
  6  7  1  0  0  0
  7  2  1  0  0  0
  2  3  1  0  0  0
  3  4  2  0  0  0
  3  1  1  0  0  0
  1 12  1  0  0  0
 12 13  1  0  0  0
  1 15  1  0  0  0
 15 16  1  0  0  0
 16 17  2  0  0  0
 17 18  1  0  0  0
 18 19  2  0  0  0
 19 20  1  0  0  0
 20 21  2  0  0  0
  7  8  1  0  0  0
  8  9  1  0  0  0
  8 10  2  0  0  0
 21 16  1  0  0  0
  2  5  1  0  0  0
 13 14  1  0  0  0
  9 11  1  0  0  0
M  END
> <minimizedAffinity>
-7.14852

> <CNNscore>
0.6376337409

> <CNNaffinity>
5.9540467262

> <CNN_VS>
3.7965011597

> <CNNaffinity_variance>
0.3182660639

$$$$
[H]OC(=O)[C@@]([H])(N([H])C(=O)[C@]([H])(C([H])([H])S[H])C([H])([H])c1c([H])c([H])c([H])c([H])c1[H])C([H])([H])[H]


 21 21  0  0  0  0  0  0  0  0999 V2000
   14.6213   23.8586   -1.9121 C   0  0  0  0  0  0  0  0  0  0  0  0
   12.9341   22.3732   -0.7490 N   0  0  0  0  0  0  0  0  0  0  0  0
   13.9800   22.5357   -1.6996 C   0  0  0  0  0  0  0  0  0  0  0  0
   14.3617   21.5172   -2.3732 O   0  0  0  0  0  0  0  0  0  0  0  0
   12.6343   23.2073   -0.2097 H   0  0  0  0  0  0  0  0  0  0  0  0
   12.2286   20.7384    0.9480 C   0  0  0  0  0  0  0  0  0  0  0  0
   12.3080   21.0997   -0.5361 C   0  0  0  0  0  0  0  0  0  0  0  0
   10.9053   21.0787   -1.0377 C   0  0  0  0  0  0  0  0  0  0  0  0
    9.9592   20.2847   -0.4442 O   0  0  0  0  0  0  0  0  0  0  0  0
   10.6317   21.8124   -2.0173 O   0  0  0  0  0  0  0  0  0  0  0  0
    9.7317   19.3907   -0.8954 H   0  0  0  0  0  0  0  0  0  0  0  0
   14.3037   24.7217   -0.7068 C   0  0  0  0  0  0  0  0  0  0  0  0
   15.7217   24.5391    0.4307 S   0  0  0  0  0  0  0  0  0  0  0  0
   15.9557   25.7042    1.1554 H   0  0  0  0  0  0  0  0  0  0  0  0
   14.1960   24.5053   -3.1987 C   0  0  0  0  0  0  0  0  0  0  0  0
   15.0337   25.6258   -3.6436 C   0  0  0  0  0  0  0  0  0  0  0  0
   16.1246   26.1262   -2.9747 C   0  0  0  0  0  0  0  0  0  0  0  0
   16.8697   27.1934   -3.4752 C   0  0  0  0  0  0  0  0  0  0  0  0
   16.5415   27.7942   -4.6673 C   0  0  0  0  0  0  0  0  0  0  0  0
   15.4492   27.3025   -5.3488 C   0  0  0  0  0  0  0  0  0  0  0  0
   14.7131   26.2476   -4.8541 C   0  0  0  0  0  0  0  0  0  0  0  0
  6  7  1  0  0  0
  7  2  1  0  0  0
  2  3  1  0  0  0
  3  4  2  0  0  0
  3  1  1  0  0  0
  1 12  1  0  0  0
 12 13  1  0  0  0
  1 15  1  0  0  0
 15 16  1  0  0  0
 16 17  2  0  0  0
 17 18  1  0  0  0
 18 19  2  0  0  0
 19 20  1  0  0  0
 20 21  2  0  0  0
  7  8  1  0  0  0
  8  9  1  0  0  0
  8 10  2  0  0  0
 21 16  1  0  0  0
  2  5  1  0  0  0
 13 14  1  0  0  0
  9 11  1  0  0  0
M  END
> <minimizedAffinity>
-7.02550

> <CNNscore>
0.6358355284

> <CNNaffinity>
5.9989352226

> <CNN_VS>
3.8143360615

> <CNNaffinity_variance>
0.0683003888

$$$$
[H]OC(=O)[C@@]([H])(N([H])C(=O)[C@]([H])(C([H])([H])S[H])C([H])([H])c1c([H])c([H])c([H])c([H])c1[H])C([H])([H])[H]


 21 21  0  0  0  0  0  0  0  0999 V2000
   14.5515   24.1448   -1.9425 C   0  0  0  0  0  0  0  0  0  0  0  0
   15.2348   26.0063   -3.5154 N   0  0  0  0  0  0  0  0  0  0  0  0
   15.0455   24.6195   -3.2605 C   0  0  0  0  0  0  0  0  0  0  0  0
   15.3095   23.7822   -4.1910 O   0  0  0  0  0  0  0  0  0  0  0  0
   15.0169   26.6744   -2.7520 H   0  0  0  0  0  0  0  0  0  0  0  0
   14.5786   26.6427   -5.7988 C   0  0  0  0  0  0  0  0  0  0  0  0
   15.7114   26.4752   -4.7850 C   0  0  0  0  0  0  0  0  0  0  0  0
   16.3633   27.8105   -4.6757 C   0  0  0  0  0  0  0  0  0  0  0  0
   15.8890   28.8834   -5.3842 O   0  0  0  0  0  0  0  0  0  0  0  0
   17.3551   27.9079   -3.9145 O   0  0  0  0  0  0  0  0  0  0  0  0
   16.3764   29.1389   -6.2512 H   0  0  0  0  0  0  0  0  0  0  0  0
   15.5511   24.5859   -0.8914 C   0  0  0  0  0  0  0  0  0  0  0  0
   14.6168   24.7031    0.6742 S   0  0  0  0  0  0  0  0  0  0  0  0
   15.4083   24.3821    1.7732 H   0  0  0  0  0  0  0  0  0  0  0  0
   14.3187   22.6617   -1.9143 C   0  0  0  0  0  0  0  0  0  0  0  0
   13.0118   22.2424   -1.3935 C   0  0  0  0  0  0  0  0  0  0  0  0
   11.8822   23.0228   -1.3399 C   0  0  0  0  0  0  0  0  0  0  0  0
   10.6764   22.5396   -0.8329 C   0  0  0  0  0  0  0  0  0  0  0  0
   10.5665   21.2529   -0.3618 C   0  0  0  0  0  0  0  0  0  0  0  0
   11.6919   20.4589   -0.4093 C   0  0  0  0  0  0  0  0  0  0  0  0
   12.8834   20.9366   -0.9107 C   0  0  0  0  0  0  0  0  0  0  0  0
  6  7  1  0  0  0
  7  2  1  0  0  0
  2  3  1  0  0  0
  3  4  2  0  0  0
  3  1  1  0  0  0
  1 12  1  0  0  0
 12 13  1  0  0  0
  1 15  1  0  0  0
 15 16  1  0  0  0
 16 17  2  0  0  0
 17 18  1  0  0  0
 18 19  2  0  0  0
 19 20  1  0  0  0
 20 21  2  0  0  0
  7  8  1  0  0  0
  8  9  1  0  0  0
  8 10  2  0  0  0
 21 16  1  0  0  0
  2  5  1  0  0  0
 13 14  1  0  0  0
  9 11  1  0  0  0
M  END
> <minimizedAffinity>
-6.55652

> <CNNscore>
0.5897309780

> <CNNaffinity>
6.1799116135

> <CNN_VS>
3.6444852352

> <CNNaffinity_variance>
0.2055489719

$$$$
[H]OC(=O)[C@@]([H])(N([H])C(=O)[C@]([H])(C([H])([H])S[H])C([H])([H])c1c([H])c([H])c([H])c([H])c1[H])C([H])([H])[H]


 21 21  0  0  0  0  0  0  0  0999 V2000
   12.4327   23.4064   -1.2825 C   0  0  0  0  0  0  0  0  0  0  0  0
   10.6285   23.3360    0.4912 N   0  0  0  0  0  0  0  0  0  0  0  0
   11.7321   23.9989   -0.1143 C   0  0  0  0  0  0  0  0  0  0  0  0
   12.1140   25.1211    0.3668 O   0  0  0  0  0  0  0  0  0  0  0  0
   10.3292   22.4266    0.0910 H   0  0  0  0  0  0  0  0  0  0  0  0
    8.4330   23.9712    1.3999 C   0  0  0  0  0  0  0  0  0  0  0  0
    9.9448   23.8997    1.6198 C   0  0  0  0  0  0  0  0  0  0  0  0
   10.1408   23.0858    2.8523 C   0  0  0  0  0  0  0  0  0  0  0  0
   11.1007   22.1092    2.9034 O   0  0  0  0  0  0  0  0  0  0  0  0
    9.3958   23.3317    3.8307 O   0  0  0  0  0  0  0  0  0  0  0  0
   10.8027   21.1362    2.7660 H   0  0  0  0  0  0  0  0  0  0  0  0
   12.4388   21.9014   -1.0993 C   0  0  0  0  0  0  0  0  0  0  0  0
   13.9050   21.5246   -0.0765 S   0  0  0  0  0  0  0  0  0  0  0  0
   13.6898   20.4251    0.7494 H   0  0  0  0  0  0  0  0  0  0  0  0
   13.8166   23.9593   -1.4658 C   0  0  0  0  0  0  0  0  0  0  0  0
   14.0102   24.7769   -2.6696 C   0  0  0  0  0  0  0  0  0  0  0  0
   14.9446   24.5501   -3.6511 C   0  0  0  0  0  0  0  0  0  0  0  0
   15.0550   25.3773   -4.7683 C   0  0  0  0  0  0  0  0  0  0  0  0
   14.2279   26.4625   -4.9356 C   0  0  0  0  0  0  0  0  0  0  0  0
   13.2860   26.7020   -3.9584 C   0  0  0  0  0  0  0  0  0  0  0  0
   13.1769   25.8842   -2.8546 C   0  0  0  0  0  0  0  0  0  0  0  0
  6  7  1  0  0  0
  7  2  1  0  0  0
  2  3  1  0  0  0
  3  4  2  0  0  0
  3  1  1  0  0  0
  1 12  1  0  0  0
 12 13  1  0  0  0
  1 15  1  0  0  0
 15 16  1  0  0  0
 16 17  2  0  0  0
 17 18  1  0  0  0
 18 19  2  0  0  0
 19 20  1  0  0  0
 20 21  2  0  0  0
  7  8  1  0  0  0
  8  9  1  0  0  0
  8 10  2  0  0  0
 21 16  1  0  0  0
  2  5  1  0  0  0
 13 14  1  0  0  0
  9 11  1  0  0  0
M  END
> <minimizedAffinity>
-6.69325

> <CNNscore>
0.5871069431

> <CNNaffinity>
5.6067333221

> <CNN_VS>
3.2917521000

> <CNNaffinity_variance>
0.0909284279

$$$$
[H]OC(=O)[C@@]([H])(N([H])C(=O)[C@]([H])(C([H])([H])S[H])C([H])([H])c1c([H])c([H])c([H])c([H])c1[H])C([H])([H])[H]


 21 21  0  0  0  0  0  0  0  0999 V2000
   13.4036   23.9523   -0.9774 C   0  0  0  0  0  0  0  0  0  0  0  0
   12.1874   22.2922    0.4961 N   0  0  0  0  0  0  0  0  0  0  0  0
   12.5224   22.7694   -0.8016 C   0  0  0  0  0  0  0  0  0  0  0  0
   12.0492   22.1593   -1.8217 O   0  0  0  0  0  0  0  0  0  0  0  0
   12.5779   22.7964    1.3145 H   0  0  0  0  0  0  0  0  0  0  0  0
   11.6571   20.3931    1.9664 C   0  0  0  0  0  0  0  0  0  0  0  0
   11.3371   21.1505    0.6768 C   0  0  0  0  0  0  0  0  0  0  0  0
    9.9013   21.5362    0.7745 C   0  0  0  0  0  0  0  0  0  0  0  0
    9.2761   22.1828   -0.2594 O   0  0  0  0  0  0  0  0  0  0  0  0
    9.2967   21.2458    1.8341 O   0  0  0  0  0  0  0  0  0  0  0  0
    9.1614   23.2008   -0.1890 H   0  0  0  0  0  0  0  0  0  0  0  0
   13.7886   24.4471    0.4030 C   0  0  0  0  0  0  0  0  0  0  0  0
   15.6146   24.5040    0.4262 S   0  0  0  0  0  0  0  0  0  0  0  0
   16.0890   25.5353    1.2315 H   0  0  0  0  0  0  0  0  0  0  0  0
   12.7645   25.0290   -1.8062 C   0  0  0  0  0  0  0  0  0  0  0  0
   13.5096   25.4184   -3.0097 C   0  0  0  0  0  0  0  0  0  0  0  0
   13.2640   26.5291   -3.7804 C   0  0  0  0  0  0  0  0  0  0  0  0
   14.0284   26.8270   -4.9079 C   0  0  0  0  0  0  0  0  0  0  0  0
   15.0673   26.0159   -5.2988 C   0  0  0  0  0  0  0  0  0  0  0  0
   15.3247   24.8981   -4.5349 C   0  0  0  0  0  0  0  0  0  0  0  0
   14.5693   24.6040   -3.4205 C   0  0  0  0  0  0  0  0  0  0  0  0
  6  7  1  0  0  0
  7  2  1  0  0  0
  2  3  1  0  0  0
  3  4  2  0  0  0
  3  1  1  0  0  0
  1 12  1  0  0  0
 12 13  1  0  0  0
  1 15  1  0  0  0
 15 16  1  0  0  0
 16 17  2  0  0  0
 17 18  1  0  0  0
 18 19  2  0  0  0
 19 20  1  0  0  0
 20 21  2  0  0  0
  7  8  1  0  0  0
  8  9  1  0  0  0
  8 10  2  0  0  0
 21 16  1  0  0  0
  2  5  1  0  0  0
 13 14  1  0  0  0
  9 11  1  0  0  0
M  END
> <minimizedAffinity>
-7.10313

> <CNNscore>
0.5681014061

> <CNNaffinity>
5.9183101654

> <CNN_VS>
3.3622002602

> <CNNaffinity_variance>
0.1872921437

$$$$
[H]/C(C(=O)N1C([H])([H])C([H])([H])C([H])([H])[C@@]([H])(n2nc(-c3c([H])c([H])c(Oc4c([H])c([H])c([H])c([H])c4[H])c([H])c3[H])c3c(N([H])[H])nc([H])nc32)C1([H])[H])=C(/[H])C([H])([H])N(C([H])([H])[H])C([H])([H])[H]


 39 43  0  0  0  0  0  0  0  0999 V2000
   13.9477   23.4425   -1.7242 N   0  0  0  0  0  0  0  0  0  0  0  0
   12.6575   23.2159   -1.7021 N   0  0  0  0  0  0  0  0  0  0  0  0
   12.3208   22.3108   -0.7391 C   0  0  0  0  0  0  0  0  0  0  0  0
   13.4685   21.9419   -0.1103 C   0  0  0  0  0  0  0  0  0  0  0  0
   13.7770   21.0898    0.9388 C   0  0  0  0  0  0  0  0  0  0  0  0
   12.7723   20.3692    1.6421 N   0  0  0  0  0  0  0  0  0  0  0  0
   15.0765   20.9961    1.2989 N   0  0  0  0  0  0  0  0  0  0  0  0
   16.0669   21.6744    0.7046 C   0  0  0  0  0  0  0  0  0  0  0  0
   15.7339   22.4908   -0.3038 N   0  0  0  0  0  0  0  0  0  0  0  0
   14.4857   22.6670   -0.7487 C   0  0  0  0  0  0  0  0  0  0  0  0
   12.6878   19.3503    1.4563 H   0  0  0  0  0  0  0  0  0  0  0  0
   12.1119   20.7856    2.3326 H   0  0  0  0  0  0  0  0  0  0  0  0
   14.2475   27.3134   -4.8065 C   0  0  0  0  0  0  0  0  0  0  0  0
   15.0559   27.9014   -5.5841 O   0  0  0  0  0  0  0  0  0  0  0  0
   14.6863   26.2274   -4.0184 N   0  0  0  0  0  0  0  0  0  0  0  0
   16.0851   25.8130   -4.1206 C   0  0  0  0  0  0  0  0  0  0  0  0
   16.7125   25.7236   -2.7378 C   0  0  0  0  0  0  0  0  0  0  0  0
   15.8499   24.9508   -1.7930 C   0  0  0  0  0  0  0  0  0  0  0  0
   14.7041   24.3396   -2.5813 C   0  0  0  0  0  0  0  0  0  0  0  0
   13.8548   25.4735   -3.1022 C   0  0  0  0  0  0  0  0  0  0  0  0
   12.5285   28.7734   -3.9297 C   0  0  0  0  0  0  0  0  0  0  0  0
   12.8741   27.8047   -4.7692 C   0  0  0  0  0  0  0  0  0  0  0  0
   11.1754   29.3400   -3.8108 C   0  0  0  0  0  0  0  0  0  0  0  0
   12.5557   31.3108   -4.0072 C   0  0  0  0  0  0  0  0  0  0  0  0
   11.2093   30.8101   -3.8467 N   0  0  0  0  0  0  0  0  0  0  0  0
   10.3640   31.2804   -4.9409 C   0  0  0  0  0  0  0  0  0  0  0  0
   10.9735   21.8739   -0.4352 C   0  0  0  0  0  0  0  0  0  0  0  0
   10.5662   20.5834   -0.7801 C   0  0  0  0  0  0  0  0  0  0  0  0
    9.3090   20.1293   -0.4462 C   0  0  0  0  0  0  0  0  0  0  0  0
    8.4259   20.9517    0.2400 C   0  0  0  0  0  0  0  0  0  0  0  0
    8.8231   22.2135    0.5784 C   0  0  0  0  0  0  0  0  0  0  0  0
   10.0818   22.6531    0.2391 C   0  0  0  0  0  0  0  0  0  0  0  0
    7.1521   20.4554    0.5623 O   0  0  0  0  0  0  0  0  0  0  0  0
    6.4005   19.8770   -0.4559 C   0  0  0  0  0  0  0  0  0  0  0  0
    5.9023   18.5953   -0.3461 C   0  0  0  0  0  0  0  0  0  0  0  0
    5.1566   18.0110   -1.3471 C   0  0  0  0  0  0  0  0  0  0  0  0
    4.8733   18.6906   -2.5135 C   0  0  0  0  0  0  0  0  0  0  0  0
    5.3659   19.9770   -2.6378 C   0  0  0  0  0  0  0  0  0  0  0  0
    6.1123   20.5603   -1.6355 C   0  0  0  0  0  0  0  0  0  0  0  0
 24 25  1  0  0  0
 25 26  1  0  0  0
 25 23  1  0  0  0
 23 21  1  0  0  0
 21 22  2  0  0  0
 22 13  1  0  0  0
 13 14  2  0  0  0
 13 15  1  0  0  0
 15 16  1  0  0  0
 16 17  1  0  0  0
 17 18  1  0  0  0
 18 19  1  0  0  0
 19 20  1  0  0  0
 19  1  1  0  0  0
  1  2  1  0  0  0
  2  3  2  0  0  0
  3 27  1  0  0  0
 27 28  2  0  0  0
 28 29  1  0  0  0
 29 30  2  0  0  0
 30 33  1  0  0  0
 33 34  1  0  0  0
 34 35  2  0  0  0
 35 36  1  0  0  0
 36 37  2  0  0  0
 37 38  1  0  0  0
 38 39  2  0  0  0
 30 31  1  0  0  0
 31 32  2  0  0  0
  3  4  1  0  0  0
  4  5  2  0  0  0
  5  6  1  0  0  0
  5  7  1  0  0  0
  7  8  2  0  0  0
  8  9  1  0  0  0
  9 10  2  0  0  0
 20 15  1  0  0  0
 10  1  1  0  0  0
 32 27  1  0  0  0
 10  4  1  0  0  0
 39 34  1  0  0  0
  6 11  1  0  0  0
  6 12  1  0  0  0
M  END
> <minimizedAffinity>
2.63973

> <CNNscore>
0.4826377332

> <CNNaffinity>
7.8701043129

> <CNN_VS>
3.7984092236

> <CNNaffinity_variance>
0.4214871526

$$$$
[H]/C(C(=O)N1C([H])([H])C([H])([H])C([H])([H])[C@@]([H])(n2nc(-c3c([H])c([H])c(Oc4c([H])c([H])c([H])c([H])c4[H])c([H])c3[H])c3c(N([H])[H])nc([H])nc32)C1([H])[H])=C(/[H])C([H])([H])N(C([H])([H])[H])C([H])([H])[H]


 39 43  0  0  0  0  0  0  0  0999 V2000
   14.0853   23.7561   -1.8044 N   0  0  0  0  0  0  0  0  0  0  0  0
   13.1628   24.6779   -1.9303 N   0  0  0  0  0  0  0  0  0  0  0  0
   13.3776   25.4598   -3.0269 C   0  0  0  0  0  0  0  0  0  0  0  0
   14.5051   25.0045   -3.6350 C   0  0  0  0  0  0  0  0  0  0  0  0
   15.2126   25.3599   -4.7730 C   0  0  0  0  0  0  0  0  0  0  0  0
   14.7849   26.4157   -5.6248 N   0  0  0  0  0  0  0  0  0  0  0  0
   16.3145   24.6349   -5.0687 N   0  0  0  0  0  0  0  0  0  0  0  0
   16.7513   23.6055   -4.3313 C   0  0  0  0  0  0  0  0  0  0  0  0
   16.0430   23.2870   -3.2399 N   0  0  0  0  0  0  0  0  0  0  0  0
   14.9383   23.9284   -2.8460 C   0  0  0  0  0  0  0  0  0  0  0  0
   15.3106   27.3113   -5.5870 H   0  0  0  0  0  0  0  0  0  0  0  0
   13.9820   26.3602   -6.2871 H   0  0  0  0  0  0  0  0  0  0  0  0
   12.2166   20.9593    1.8372 C   0  0  0  0  0  0  0  0  0  0  0  0
   12.5649   20.1298    2.7286 O   0  0  0  0  0  0  0  0  0  0  0  0
   13.1667   21.4467    0.9136 N   0  0  0  0  0  0  0  0  0  0  0  0
   14.5442   20.9653    1.0120 C   0  0  0  0  0  0  0  0  0  0  0  0
   15.0265   20.4628   -0.3403 C   0  0  0  0  0  0  0  0  0  0  0  0
   14.7342   21.4464   -1.4271 C   0  0  0  0  0  0  0  0  0  0  0  0
   14.2139   22.7236   -0.7900 C   0  0  0  0  0  0  0  0  0  0  0  0
   12.8899   22.4011   -0.1407 C   0  0  0  0  0  0  0  0  0  0  0  0
   10.3919   22.3461    2.6133 C   0  0  0  0  0  0  0  0  0  0  0  0
   10.8179   21.3741    1.8156 C   0  0  0  0  0  0  0  0  0  0  0  0
    9.0066   22.8397    2.6715 C   0  0  0  0  0  0  0  0  0  0  0  0
    9.3747   22.9059    5.0564 C   0  0  0  0  0  0  0  0  0  0  0  0
    8.7508   23.5597    3.9283 N   0  0  0  0  0  0  0  0  0  0  0  0
    9.2453   24.9282    3.8035 C   0  0  0  0  0  0  0  0  0  0  0  0
   12.5202   26.5426   -3.4638 C   0  0  0  0  0  0  0  0  0  0  0  0
   12.9247   27.8668   -3.2821 C   0  0  0  0  0  0  0  0  0  0  0  0
   12.1509   28.9088   -3.7445 C   0  0  0  0  0  0  0  0  0  0  0  0
   10.9535   28.6559   -4.3998 C   0  0  0  0  0  0  0  0  0  0  0  0
   10.5573   27.3616   -4.5787 C   0  0  0  0  0  0  0  0  0  0  0  0
   11.3404   26.3312   -4.1123 C   0  0  0  0  0  0  0  0  0  0  0  0
   10.1904   29.7432   -4.8562 O   0  0  0  0  0  0  0  0  0  0  0  0
    8.8046   29.6474   -4.7751 C   0  0  0  0  0  0  0  0  0  0  0  0
    8.0663   29.0171   -5.7553 C   0  0  0  0  0  0  0  0  0  0  0  0
    6.6936   28.9156   -5.6869 C   0  0  0  0  0  0  0  0  0  0  0  0
    5.9922   29.4451   -4.6238 C   0  0  0  0  0  0  0  0  0  0  0  0
    6.7190   30.0800   -3.6331 C   0  0  0  0  0  0  0  0  0  0  0  0
    8.0927   30.1812   -3.7029 C   0  0  0  0  0  0  0  0  0  0  0  0
 24 25  1  0  0  0
 25 26  1  0  0  0
 25 23  1  0  0  0
 23 21  1  0  0  0
 21 22  2  0  0  0
 22 13  1  0  0  0
 13 14  2  0  0  0
 13 15  1  0  0  0
 15 16  1  0  0  0
 16 17  1  0  0  0
 17 18  1  0  0  0
 18 19  1  0  0  0
 19 20  1  0  0  0
 19  1  1  0  0  0
  1  2  1  0  0  0
  2  3  2  0  0  0
  3 27  1  0  0  0
 27 28  2  0  0  0
 28 29  1  0  0  0
 29 30  2  0  0  0
 30 33  1  0  0  0
 33 34  1  0  0  0
 34 35  2  0  0  0
 35 36  1  0  0  0
 36 37  2  0  0  0
 37 38  1  0  0  0
 38 39  2  0  0  0
 30 31  1  0  0  0
 31 32  2  0  0  0
  3  4  1  0  0  0
  4  5  2  0  0  0
  5  6  1  0  0  0
  5  7  1  0  0  0
  7  8  2  0  0  0
  8  9  1  0  0  0
  9 10  2  0  0  0
 20 15  1  0  0  0
 10  1  1  0  0  0
 32 27  1  0  0  0
 10  4  1  0  0  0
 39 34  1  0  0  0
  6 11  1  0  0  0
  6 12  1  0  0  0
M  END
> <minimizedAffinity>
13.87369

> <CNNscore>
0.4699310958

> <CNNaffinity>
7.4724707603

> <CNN_VS>
3.5115463734

> <CNNaffinity_variance>
0.8381065130

$$$$
[H]/C(C(=O)N1C([H])([H])C([H])([H])C([H])([H])[C@@]([H])(n2nc(-c3c([H])c([H])c(Oc4c([H])c([H])c([H])c([H])c4[H])c([H])c3[H])c3c(N([H])[H])nc([H])nc32)C1([H])[H])=C(/[H])C([H])([H])N(C([H])([H])[H])C([H])([H])[H]


 39 43  0  0  0  0  0  0  0  0999 V2000
   12.7492   25.0128   -1.1576 N   0  0  0  0  0  0  0  0  0  0  0  0
   11.5908   25.1814   -0.5691 N   0  0  0  0  0  0  0  0  0  0  0  0
   11.3840   24.2563    0.4115 C   0  0  0  0  0  0  0  0  0  0  0  0
   12.4799   23.4525    0.4483 C   0  0  0  0  0  0  0  0  0  0  0  0
   12.8708   22.3688    1.2194 C   0  0  0  0  0  0  0  0  0  0  0  0
   12.0588   21.8637    2.2725 N   0  0  0  0  0  0  0  0  0  0  0  0
   14.0811   21.8268    0.9575 N   0  0  0  0  0  0  0  0  0  0  0  0
   14.9107   22.2765    0.0068 C   0  0  0  0  0  0  0  0  0  0  0  0
   14.5033   23.3265   -0.7181 N   0  0  0  0  0  0  0  0  0  0  0  0
   13.3304   23.9460   -0.5522 C   0  0  0  0  0  0  0  0  0  0  0  0
   11.5559   20.9690    2.1094 H   0  0  0  0  0  0  0  0  0  0  0  0
   11.9291   22.3230    3.1990 H   0  0  0  0  0  0  0  0  0  0  0  0
   15.7793   25.4428   -5.0574 C   0  0  0  0  0  0  0  0  0  0  0  0
   16.2689   26.3081   -5.8419 O   0  0  0  0  0  0  0  0  0  0  0  0
   14.8223   25.8235   -4.0918 N   0  0  0  0  0  0  0  0  0  0  0  0
   14.4141   27.2265   -4.0312 C   0  0  0  0  0  0  0  0  0  0  0  0
   12.8974   27.3379   -4.0640 C   0  0  0  0  0  0  0  0  0  0  0  0
   12.2579   26.4089   -3.0830 C   0  0  0  0  0  0  0  0  0  0  0  0
   13.3505   25.7856   -2.2312 C   0  0  0  0  0  0  0  0  0  0  0  0
   14.2002   24.9283   -3.1375 C   0  0  0  0  0  0  0  0  0  0  0  0
   15.4174   23.0513   -4.9845 C   0  0  0  0  0  0  0  0  0  0  0  0
   16.2444   24.0672   -5.2002 C   0  0  0  0  0  0  0  0  0  0  0  0
   15.7829   21.6304   -5.0999 C   0  0  0  0  0  0  0  0  0  0  0  0
   14.0077   21.5208   -3.4676 C   0  0  0  0  0  0  0  0  0  0  0  0
   14.8062   20.7724   -4.4118 N   0  0  0  0  0  0  0  0  0  0  0  0
   13.9456   20.1367   -5.4058 C   0  0  0  0  0  0  0  0  0  0  0  0
   10.2191   24.1929    1.2702 C   0  0  0  0  0  0  0  0  0  0  0  0
   10.1805   24.9438    2.4470 C   0  0  0  0  0  0  0  0  0  0  0  0
    9.0581   24.9431    3.2460 C   0  0  0  0  0  0  0  0  0  0  0  0
    7.9454   24.1927    2.8911 C   0  0  0  0  0  0  0  0  0  0  0  0
    7.9814   23.4587    1.7404 C   0  0  0  0  0  0  0  0  0  0  0  0
    9.1089   23.4695    0.9520 C   0  0  0  0  0  0  0  0  0  0  0  0
    6.8196   24.2152    3.7306 O   0  0  0  0  0  0  0  0  0  0  0  0
    6.2813   25.4535    4.0670 C   0  0  0  0  0  0  0  0  0  0  0  0
    6.3750   26.5360    3.2169 C   0  0  0  0  0  0  0  0  0  0  0  0
    5.8462   27.7675    3.5381 C   0  0  0  0  0  0  0  0  0  0  0  0
    5.1934   27.9720    4.7359 C   0  0  0  0  0  0  0  0  0  0  0  0
    5.0914   26.8957    5.5984 C   0  0  0  0  0  0  0  0  0  0  0  0
    5.6213   25.6639    5.2759 C   0  0  0  0  0  0  0  0  0  0  0  0
 24 25  1  0  0  0
 25 26  1  0  0  0
 25 23  1  0  0  0
 23 21  1  0  0  0
 21 22  2  0  0  0
 22 13  1  0  0  0
 13 14  2  0  0  0
 13 15  1  0  0  0
 15 16  1  0  0  0
 16 17  1  0  0  0
 17 18  1  0  0  0
 18 19  1  0  0  0
 19 20  1  0  0  0
 19  1  1  0  0  0
  1  2  1  0  0  0
  2  3  2  0  0  0
  3 27  1  0  0  0
 27 28  2  0  0  0
 28 29  1  0  0  0
 29 30  2  0  0  0
 30 33  1  0  0  0
 33 34  1  0  0  0
 34 35  2  0  0  0
 35 36  1  0  0  0
 36 37  2  0  0  0
 37 38  1  0  0  0
 38 39  2  0  0  0
 30 31  1  0  0  0
 31 32  2  0  0  0
  3  4  1  0  0  0
  4  5  2  0  0  0
  5  6  1  0  0  0
  5  7  1  0  0  0
  7  8  2  0  0  0
  8  9  1  0  0  0
  9 10  2  0  0  0
 20 15  1  0  0  0
 10  1  1  0  0  0
 32 27  1  0  0  0
 10  4  1  0  0  0
 39 34  1  0  0  0
  6 11  1  0  0  0
  6 12  1  0  0  0
M  END
> <minimizedAffinity>
-0.27482

> <CNNscore>
0.4318496287

> <CNNaffinity>
7.7280197144

> <CNN_VS>
3.3373425007

> <CNNaffinity_variance>
0.7707167864

$$$$
[H]/C(C(=O)N1C([H])([H])C([H])([H])C([H])([H])[C@@]([H])(n2nc(-c3c([H])c([H])c(Oc4c([H])c([H])c([H])c([H])c4[H])c([H])c3[H])c3c(N([H])[H])nc([H])nc32)C1([H])[H])=C(/[H])C([H])([H])N(C([H])([H])[H])C([H])([H])[H]


 39 43  0  0  0  0  0  0  0  0999 V2000
   10.5171   28.8949   -4.3182 N   0  0  0  0  0  0  0  0  0  0  0  0
   11.0136   27.7098   -4.0620 N   0  0  0  0  0  0  0  0  0  0  0  0
   12.3689   27.7516   -3.9163 C   0  0  0  0  0  0  0  0  0  0  0  0
   12.7557   29.0436   -4.0889 C   0  0  0  0  0  0  0  0  0  0  0  0
   13.9683   29.7142   -4.0461 C   0  0  0  0  0  0  0  0  0  0  0  0
   15.1874   29.0445   -3.7484 N   0  0  0  0  0  0  0  0  0  0  0  0
   13.9460   31.0484   -4.2619 N   0  0  0  0  0  0  0  0  0  0  0  0
   12.8299   31.7462   -4.5101 C   0  0  0  0  0  0  0  0  0  0  0  0
   11.6753   31.0680   -4.5418 N   0  0  0  0  0  0  0  0  0  0  0  0
   11.5708   29.7501   -4.3437 C   0  0  0  0  0  0  0  0  0  0  0  0
   15.8465   28.8679   -4.5321 H   0  0  0  0  0  0  0  0  0  0  0  0
   15.4722   28.7164   -2.8010 H   0  0  0  0  0  0  0  0  0  0  0  0
    6.1257   30.4651   -2.6374 C   0  0  0  0  0  0  0  0  0  0  0  0
    4.9287   30.6459   -3.0094 O   0  0  0  0  0  0  0  0  0  0  0  0
    7.1036   30.0586   -3.5711 N   0  0  0  0  0  0  0  0  0  0  0  0
    6.6989   29.8626   -4.9627 C   0  0  0  0  0  0  0  0  0  0  0  0
    7.6231   30.6306   -5.8953 C   0  0  0  0  0  0  0  0  0  0  0  0
    9.0607   30.3800   -5.5718 C   0  0  0  0  0  0  0  0  0  0  0  0
    9.1316   29.2806   -4.5257 C   0  0  0  0  0  0  0  0  0  0  0  0
    8.4977   29.8126   -3.2633 C   0  0  0  0  0  0  0  0  0  0  0  0
    5.9670   29.8709   -0.2971 C   0  0  0  0  0  0  0  0  0  0  0  0
    6.4331   30.6932   -1.2294 C   0  0  0  0  0  0  0  0  0  0  0  0
    6.2158   30.0095    1.1468 C   0  0  0  0  0  0  0  0  0  0  0  0
    4.9561   28.6515    2.6950 C   0  0  0  0  0  0  0  0  0  0  0  0
    6.1134   28.7115    1.8311 N   0  0  0  0  0  0  0  0  0  0  0  0
    6.0505   27.6486    0.8315 C   0  0  0  0  0  0  0  0  0  0  0  0
   13.2115   26.6183   -3.5935 C   0  0  0  0  0  0  0  0  0  0  0  0
   14.3086   26.3143   -4.4023 C   0  0  0  0  0  0  0  0  0  0  0  0
   15.1559   25.2773   -4.0784 C   0  0  0  0  0  0  0  0  0  0  0  0
   14.9298   24.5169   -2.9392 C   0  0  0  0  0  0  0  0  0  0  0  0
   13.8579   24.8136   -2.1471 C   0  0  0  0  0  0  0  0  0  0  0  0
   13.0207   25.8524   -2.4826 C   0  0  0  0  0  0  0  0  0  0  0  0
   15.8139   23.4669   -2.6414 O   0  0  0  0  0  0  0  0  0  0  0  0
   15.4674   22.5935   -1.6151 C   0  0  0  0  0  0  0  0  0  0  0  0
   15.9953   22.7244   -0.3473 C   0  0  0  0  0  0  0  0  0  0  0  0
   15.6604   21.8662    0.6778 C   0  0  0  0  0  0  0  0  0  0  0  0
   14.7733   20.8292    0.4775 C   0  0  0  0  0  0  0  0  0  0  0  0
   14.2355   20.6855   -0.7887 C   0  0  0  0  0  0  0  0  0  0  0  0
   14.5717   21.5448   -1.8136 C   0  0  0  0  0  0  0  0  0  0  0  0
 24 25  1  0  0  0
 25 26  1  0  0  0
 25 23  1  0  0  0
 23 21  1  0  0  0
 21 22  2  0  0  0
 22 13  1  0  0  0
 13 14  2  0  0  0
 13 15  1  0  0  0
 15 16  1  0  0  0
 16 17  1  0  0  0
 17 18  1  0  0  0
 18 19  1  0  0  0
 19 20  1  0  0  0
 19  1  1  0  0  0
  1  2  1  0  0  0
  2  3  2  0  0  0
  3 27  1  0  0  0
 27 28  2  0  0  0
 28 29  1  0  0  0
 29 30  2  0  0  0
 30 33  1  0  0  0
 33 34  1  0  0  0
 34 35  2  0  0  0
 35 36  1  0  0  0
 36 37  2  0  0  0
 37 38  1  0  0  0
 38 39  2  0  0  0
 30 31  1  0  0  0
 31 32  2  0  0  0
  3  4  1  0  0  0
  4  5  2  0  0  0
  5  6  1  0  0  0
  5  7  1  0  0  0
  7  8  2  0  0  0
  8  9  1  0  0  0
  9 10  2  0  0  0
 20 15  1  0  0  0
 10  1  1  0  0  0
 32 27  1  0  0  0
 10  4  1  0  0  0
 39 34  1  0  0  0
  6 11  1  0  0  0
  6 12  1  0  0  0
M  END
> <minimizedAffinity>
30.82679

> <CNNscore>
0.4153916538

> <CNNaffinity>
6.7863912582

> <CNN_VS>
2.8190102577

> <CNNaffinity_variance>
1.1898788214

$$$$
[H]/C(C(=O)N1C([H])([H])C([H])([H])C([H])([H])[C@@]([H])(n2nc(-c3c([H])c([H])c(Oc4c([H])c([H])c([H])c([H])c4[H])c([H])c3[H])c3c(N([H])[H])nc([H])nc32)C1([H])[H])=C(/[H])C([H])([H])N(C([H])([H])[H])C([H])([H])[H]


 39 43  0  0  0  0  0  0  0  0999 V2000
   13.4720   24.9194   -0.5231 N   0  0  0  0  0  0  0  0  0  0  0  0
   12.5926   24.2770    0.2054 N   0  0  0  0  0  0  0  0  0  0  0  0
   11.3629   24.2634   -0.3841 C   0  0  0  0  0  0  0  0  0  0  0  0
   11.4694   24.9375   -1.5601 C   0  0  0  0  0  0  0  0  0  0  0  0
   10.5969   25.2436   -2.5930 C   0  0  0  0  0  0  0  0  0  0  0  0
    9.2414   24.8123   -2.5846 N   0  0  0  0  0  0  0  0  0  0  0  0
   11.0949   25.9416   -3.6380 N   0  0  0  0  0  0  0  0  0  0  0  0
   12.3689   26.3457   -3.7269 C   0  0  0  0  0  0  0  0  0  0  0  0
   13.1857   26.0309   -2.7131 N   0  0  0  0  0  0  0  0  0  0  0  0
   12.8099   25.3456   -1.6287 C   0  0  0  0  0  0  0  0  0  0  0  0
    8.5091   25.5213   -2.3823 H   0  0  0  0  0  0  0  0  0  0  0  0
    8.9245   23.8363   -2.7668 H   0  0  0  0  0  0  0  0  0  0  0  0
   17.8905   23.4476    1.1756 C   0  0  0  0  0  0  0  0  0  0  0  0
   19.0541   23.8836    1.4203 O   0  0  0  0  0  0  0  0  0  0  0  0
   16.9323   24.2885    0.5690 N   0  0  0  0  0  0  0  0  0  0  0  0
   17.3217   25.6567    0.2299 C   0  0  0  0  0  0  0  0  0  0  0  0
   16.9799   25.9595   -1.2212 C   0  0  0  0  0  0  0  0  0  0  0  0
   15.5780   25.5587   -1.5497 C   0  0  0  0  0  0  0  0  0  0  0  0
   14.8832   25.1480   -0.2627 C   0  0  0  0  0  0  0  0  0  0  0  0
   15.5718   23.9063    0.2496 C   0  0  0  0  0  0  0  0  0  0  0  0
   16.4551   21.4995    1.1819 C   0  0  0  0  0  0  0  0  0  0  0  0
   17.5997   22.0661    1.5443 C   0  0  0  0  0  0  0  0  0  0  0  0
   16.0630   20.1173    1.5009 C   0  0  0  0  0  0  0  0  0  0  0  0
   13.6566   20.2930    1.5807 C   0  0  0  0  0  0  0  0  0  0  0  0
   14.7894   19.7633    0.8557 N   0  0  0  0  0  0  0  0  0  0  0  0
   14.7913   20.2697   -0.5141 C   0  0  0  0  0  0  0  0  0  0  0  0
   10.1868   23.6058    0.1477 C   0  0  0  0  0  0  0  0  0  0  0  0
    9.3255   24.3018    0.9986 C   0  0  0  0  0  0  0  0  0  0  0  0
    8.1711   23.7132    1.4666 C   0  0  0  0  0  0  0  0  0  0  0  0
    7.8468   22.4147    1.0978 C   0  0  0  0  0  0  0  0  0  0  0  0
    8.6877   21.7334    0.2654 C   0  0  0  0  0  0  0  0  0  0  0  0
    9.8367   22.3341   -0.1947 C   0  0  0  0  0  0  0  0  0  0  0  0
    6.6626   21.8469    1.5955 O   0  0  0  0  0  0  0  0  0  0  0  0
    6.6465   21.4301    2.9230 C   0  0  0  0  0  0  0  0  0  0  0  0
    6.2796   20.1468    3.2719 C   0  0  0  0  0  0  0  0  0  0  0  0
    6.2595   19.7216    4.5827 C   0  0  0  0  0  0  0  0  0  0  0  0
    6.6097   20.5700    5.6123 C   0  0  0  0  0  0  0  0  0  0  0  0
    6.9802   21.8598    5.2777 C   0  0  0  0  0  0  0  0  0  0  0  0
    6.9996   22.2842    3.9657 C   0  0  0  0  0  0  0  0  0  0  0  0
 24 25  1  0  0  0
 25 26  1  0  0  0
 25 23  1  0  0  0
 23 21  1  0  0  0
 21 22  2  0  0  0
 22 13  1  0  0  0
 13 14  2  0  0  0
 13 15  1  0  0  0
 15 16  1  0  0  0
 16 17  1  0  0  0
 17 18  1  0  0  0
 18 19  1  0  0  0
 19 20  1  0  0  0
 19  1  1  0  0  0
  1  2  1  0  0  0
  2  3  2  0  0  0
  3 27  1  0  0  0
 27 28  2  0  0  0
 28 29  1  0  0  0
 29 30  2  0  0  0
 30 33  1  0  0  0
 33 34  1  0  0  0
 34 35  2  0  0  0
 35 36  1  0  0  0
 36 37  2  0  0  0
 37 38  1  0  0  0
 38 39  2  0  0  0
 30 31  1  0  0  0
 31 32  2  0  0  0
  3  4  1  0  0  0
  4  5  2  0  0  0
  5  6  1  0  0  0
  5  7  1  0  0  0
  7  8  2  0  0  0
  8  9  1  0  0  0
  9 10  2  0  0  0
 20 15  1  0  0  0
 10  1  1  0  0  0
 32 27  1  0  0  0
 10  4  1  0  0  0
 39 34  1  0  0  0
  6 11  1  0  0  0
  6 12  1  0  0  0
M  END
> <minimizedAffinity>
15.16289

> <CNNscore>
0.4034079015

> <CNNaffinity>
7.0428819656

> <CNN_VS>
2.8411543369

> <CNNaffinity_variance>
0.7076878548

$$$$
[H]/C(C(=O)N1C([H])([H])C([H])([H])C([H])([H])[C@@]([H])(n2nc(-c3c([H])c([H])c(Oc4c([H])c([H])c([H])c([H])c4[H])c([H])c3[H])c3c(N([H])[H])nc([H])nc32)C1([H])[H])=C(/[H])C([H])([H])N(C([H])([H])[H])C([H])([H])[H]


 39 43  0  0  0  0  0  0  0  0999 V2000
   10.4657   22.3877    1.2073 N   0  0  0  0  0  0  0  0  0  0  0  0
   11.4796   22.6436    0.4179 N   0  0  0  0  0  0  0  0  0  0  0  0
   11.1271   23.4783   -0.6014 C   0  0  0  0  0  0  0  0  0  0  0  0
    9.8083   23.7713   -0.4479 C   0  0  0  0  0  0  0  0  0  0  0  0
    8.8970   24.5605   -1.1324 C   0  0  0  0  0  0  0  0  0  0  0  0
    9.2705   25.3212   -2.2748 N   0  0  0  0  0  0  0  0  0  0  0  0
    7.6361   24.6123   -0.6481 N   0  0  0  0  0  0  0  0  0  0  0  0
    7.2275   23.9517    0.4432 C   0  0  0  0  0  0  0  0  0  0  0  0
    8.1339   23.2005    1.0822 N   0  0  0  0  0  0  0  0  0  0  0  0
    9.4083   23.0710    0.7000 C   0  0  0  0  0  0  0  0  0  0  0  0
    8.9631   24.9783   -3.2063 H   0  0  0  0  0  0  0  0  0  0  0  0
    9.8306   26.1999   -2.2498 H   0  0  0  0  0  0  0  0  0  0  0  0
   12.3285   18.8499    4.1380 C   0  0  0  0  0  0  0  0  0  0  0  0
   12.0473   18.1621    5.1636 O   0  0  0  0  0  0  0  0  0  0  0  0
   11.4528   19.8705    3.7080 N   0  0  0  0  0  0  0  0  0  0  0  0
   10.2321   20.1104    4.4768 C   0  0  0  0  0  0  0  0  0  0  0  0
   10.1094   21.5856    4.8273 C   0  0  0  0  0  0  0  0  0  0  0  0
   10.3319   22.4539    3.6313 C   0  0  0  0  0  0  0  0  0  0  0  0
   10.4232   21.5639    2.4035 C   0  0  0  0  0  0  0  0  0  0  0  0
   11.6623   20.7141    2.5490 C   0  0  0  0  0  0  0  0  0  0  0  0
   13.9652   19.2723    2.4065 C   0  0  0  0  0  0  0  0  0  0  0  0
   13.5729   18.5400    3.4420 C   0  0  0  0  0  0  0  0  0  0  0  0
   15.1985   19.0463    1.6359 C   0  0  0  0  0  0  0  0  0  0  0  0
   14.1532   20.2594   -0.1707 C   0  0  0  0  0  0  0  0  0  0  0  0
   15.3670   20.0670    0.5903 N   0  0  0  0  0  0  0  0  0  0  0  0
   15.7756   21.3239    1.2116 C   0  0  0  0  0  0  0  0  0  0  0  0
   12.0251   23.9793   -1.6217 C   0  0  0  0  0  0  0  0  0  0  0  0
   11.8739   25.2814   -2.1031 C   0  0  0  0  0  0  0  0  0  0  0  0
   12.7543   25.7960   -3.0296 C   0  0  0  0  0  0  0  0  0  0  0  0
   13.8081   25.0240   -3.4995 C   0  0  0  0  0  0  0  0  0  0  0  0
   13.9575   23.7510   -3.0291 C   0  0  0  0  0  0  0  0  0  0  0  0
   13.0710   23.2507   -2.1035 C   0  0  0  0  0  0  0  0  0  0  0  0
   14.6849   25.5814   -4.4446 O   0  0  0  0  0  0  0  0  0  0  0  0
   15.6972   26.4167   -3.9824 C   0  0  0  0  0  0  0  0  0  0  0  0
   16.0469   27.5682   -4.6569 C   0  0  0  0  0  0  0  0  0  0  0  0
   17.0475   28.4038   -4.2097 C   0  0  0  0  0  0  0  0  0  0  0  0
   17.7490   28.1214   -3.0562 C   0  0  0  0  0  0  0  0  0  0  0  0
   17.4094   26.9702   -2.3689 C   0  0  0  0  0  0  0  0  0  0  0  0
   16.4081   26.1348   -2.8176 C   0  0  0  0  0  0  0  0  0  0  0  0
 24 25  1  0  0  0
 25 26  1  0  0  0
 25 23  1  0  0  0
 23 21  1  0  0  0
 21 22  2  0  0  0
 22 13  1  0  0  0
 13 14  2  0  0  0
 13 15  1  0  0  0
 15 16  1  0  0  0
 16 17  1  0  0  0
 17 18  1  0  0  0
 18 19  1  0  0  0
 19 20  1  0  0  0
 19  1  1  0  0  0
  1  2  1  0  0  0
  2  3  2  0  0  0
  3 27  1  0  0  0
 27 28  2  0  0  0
 28 29  1  0  0  0
 29 30  2  0  0  0
 30 33  1  0  0  0
 33 34  1  0  0  0
 34 35  2  0  0  0
 35 36  1  0  0  0
 36 37  2  0  0  0
 37 38  1  0  0  0
 38 39  2  0  0  0
 30 31  1  0  0  0
 31 32  2  0  0  0
  3  4  1  0  0  0
  4  5  2  0  0  0
  5  6  1  0  0  0
  5  7  1  0  0  0
  7  8  2  0  0  0
  8  9  1  0  0  0
  9 10  2  0  0  0
 20 15  1  0  0  0
 10  1  1  0  0  0
 32 27  1  0  0  0
 10  4  1  0  0  0
 39 34  1  0  0  0
  6 11  1  0  0  0
  6 12  1  0  0  0
M  END
> <minimizedAffinity>
18.36641

> <CNNscore>
0.3907685280

> <CNNaffinity>
7.0379858017

> <CNN_VS>
2.7502233982

> <CNNaffinity_variance>
1.0344959497

$$$$
[H]/C(C(=O)N1C([H])([H])C([H])([H])C([H])([H])[C@@]([H])(n2nc(-c3c([H])c([H])c(Oc4c([H])c([H])c([H])c([H])c4[H])c([H])c3[H])c3c(N([H])[H])nc([H])nc32)C1([H])[H])=C(/[H])C([H])([H])N(C([H])([H])[H])C([H])([H])[H]


 39 43  0  0  0  0  0  0  0  0999 V2000
   13.5956   23.5768   -0.7803 N   0  0  0  0  0  0  0  0  0  0  0  0
   12.4034   23.9196   -0.3588 N   0  0  0  0  0  0  0  0  0  0  0  0
   11.9084   23.0208    0.5396 C   0  0  0  0  0  0  0  0  0  0  0  0
   12.8456   22.0487    0.6990 C   0  0  0  0  0  0  0  0  0  0  0  0
   12.9403   20.9004    1.4698 C   0  0  0  0  0  0  0  0  0  0  0  0
   11.9102   20.5128    2.3709 N   0  0  0  0  0  0  0  0  0  0  0  0
   14.0753   20.1742    1.3621 N   0  0  0  0  0  0  0  0  0  0  0  0
   15.0986   20.5020    0.5623 C   0  0  0  0  0  0  0  0  0  0  0  0
   14.9755   21.6190   -0.1667 N   0  0  0  0  0  0  0  0  0  0  0  0
   13.9037   22.4175   -0.1451 C   0  0  0  0  0  0  0  0  0  0  0  0
   11.3025   19.7155    2.0973 H   0  0  0  0  0  0  0  0  0  0  0  0
   11.7171   20.9682    3.2883 H   0  0  0  0  0  0  0  0  0  0  0  0
   14.3525   26.7820   -4.4856 C   0  0  0  0  0  0  0  0  0  0  0  0
   15.2502   27.1777   -5.2864 O   0  0  0  0  0  0  0  0  0  0  0  0
   14.6664   25.8457   -3.4766 N   0  0  0  0  0  0  0  0  0  0  0  0
   16.0424   25.3596   -3.3813 C   0  0  0  0  0  0  0  0  0  0  0  0
   16.5573   25.5051   -1.9573 C   0  0  0  0  0  0  0  0  0  0  0  0
   15.5822   24.9618   -0.9633 C   0  0  0  0  0  0  0  0  0  0  0  0
   14.4656   24.2632   -1.7204 C   0  0  0  0  0  0  0  0  0  0  0  0
   13.7256   25.3143   -2.5115 C   0  0  0  0  0  0  0  0  0  0  0  0
   12.6377   28.4154   -3.9889 C   0  0  0  0  0  0  0  0  0  0  0  0
   13.0111   27.3302   -4.6564 C   0  0  0  0  0  0  0  0  0  0  0  0
   11.3126   29.0482   -4.0868 C   0  0  0  0  0  0  0  0  0  0  0  0
   12.7110   30.9774   -3.6984 C   0  0  0  0  0  0  0  0  0  0  0  0
   11.3631   30.4563   -3.6646 N   0  0  0  0  0  0  0  0  0  0  0  0
   10.4963   31.2469   -4.5344 C   0  0  0  0  0  0  0  0  0  0  0  0
   10.6327   23.1303    1.2170 C   0  0  0  0  0  0  0  0  0  0  0  0
    9.4512   23.1687    0.4735 C   0  0  0  0  0  0  0  0  0  0  0  0
    8.2256   23.2124    1.1013 C   0  0  0  0  0  0  0  0  0  0  0  0
    8.1477   23.2193    2.4874 C   0  0  0  0  0  0  0  0  0  0  0  0
    9.3021   23.1811    3.2155 C   0  0  0  0  0  0  0  0  0  0  0  0
   10.5189   23.1369    2.5750 C   0  0  0  0  0  0  0  0  0  0  0  0
    6.8811   23.2657    3.0926 O   0  0  0  0  0  0  0  0  0  0  0  0
    6.4375   22.1313    3.7653 C   0  0  0  0  0  0  0  0  0  0  0  0
    5.6880   22.2239    4.9198 C   0  0  0  0  0  0  0  0  0  0  0  0
    5.2427   21.1083    5.5954 C   0  0  0  0  0  0  0  0  0  0  0  0
    5.5302   19.8382    5.1408 C   0  0  0  0  0  0  0  0  0  0  0  0
    6.2807   19.7295    3.9842 C   0  0  0  0  0  0  0  0  0  0  0  0
    6.7260   20.8467    3.3092 C   0  0  0  0  0  0  0  0  0  0  0  0
 24 25  1  0  0  0
 25 26  1  0  0  0
 25 23  1  0  0  0
 23 21  1  0  0  0
 21 22  2  0  0  0
 22 13  1  0  0  0
 13 14  2  0  0  0
 13 15  1  0  0  0
 15 16  1  0  0  0
 16 17  1  0  0  0
 17 18  1  0  0  0
 18 19  1  0  0  0
 19 20  1  0  0  0
 19  1  1  0  0  0
  1  2  1  0  0  0
  2  3  2  0  0  0
  3 27  1  0  0  0
 27 28  2  0  0  0
 28 29  1  0  0  0
 29 30  2  0  0  0
 30 33  1  0  0  0
 33 34  1  0  0  0
 34 35  2  0  0  0
 35 36  1  0  0  0
 36 37  2  0  0  0
 37 38  1  0  0  0
 38 39  2  0  0  0
 30 31  1  0  0  0
 31 32  2  0  0  0
  3  4  1  0  0  0
  4  5  2  0  0  0
  5  6  1  0  0  0
  5  7  1  0  0  0
  7  8  2  0  0  0
  8  9  1  0  0  0
  9 10  2  0  0  0
 20 15  1  0  0  0
 10  1  1  0  0  0
 32 27  1  0  0  0
 10  4  1  0  0  0
 39 34  1  0  0  0
  6 11  1  0  0  0
  6 12  1  0  0  0
M  END
> <minimizedAffinity>
1.02851

> <CNNscore>
0.3653129935

> <CNNaffinity>
7.5441217422

> <CNN_VS>
2.7559657097

> <CNNaffinity_variance>
0.2831323743

$$$$
[H]/C(C(=O)N1C([H])([H])C([H])([H])C([H])([H])[C@@]([H])(n2nc(-c3c([H])c([H])c(Oc4c([H])c([H])c([H])c([H])c4[H])c([H])c3[H])c3c(N([H])[H])nc([H])nc32)C1([H])[H])=C(/[H])C([H])([H])N(C([H])([H])[H])C([H])([H])[H]


 39 43  0  0  0  0  0  0  0  0999 V2000
   13.6704   24.7824   -2.9024 N   0  0  0  0  0  0  0  0  0  0  0  0
   12.5604   24.1932   -2.5317 N   0  0  0  0  0  0  0  0  0  0  0  0
   12.6870   23.6030   -1.3088 C   0  0  0  0  0  0  0  0  0  0  0  0
   13.9552   23.8338   -0.8764 C   0  0  0  0  0  0  0  0  0  0  0  0
   14.6697   23.5167    0.2685 C   0  0  0  0  0  0  0  0  0  0  0  0
   14.0813   22.8004    1.3474 N   0  0  0  0  0  0  0  0  0  0  0  0
   15.9481   23.9499    0.3405 N   0  0  0  0  0  0  0  0  0  0  0  0
   16.5512   24.6603   -0.6217 C   0  0  0  0  0  0  0  0  0  0  0  0
   15.8316   24.9516   -1.7133 N   0  0  0  0  0  0  0  0  0  0  0  0
   14.5612   24.5794   -1.8986 C   0  0  0  0  0  0  0  0  0  0  0  0
   14.3486   21.8037    1.4698 H   0  0  0  0  0  0  0  0  0  0  0  0
   13.4002   23.1997    2.0279 H   0  0  0  0  0  0  0  0  0  0  0  0
   16.1058   28.3035   -5.4015 C   0  0  0  0  0  0  0  0  0  0  0  0
   16.1129   28.9026   -6.5174 O   0  0  0  0  0  0  0  0  0  0  0  0
   15.2131   27.2328   -5.1785 N   0  0  0  0  0  0  0  0  0  0  0  0
   14.3148   26.8376   -6.2627 C   0  0  0  0  0  0  0  0  0  0  0  0
   14.4114   25.3398   -6.5101 C   0  0  0  0  0  0  0  0  0  0  0  0
   14.3081   24.5656   -5.2358 C   0  0  0  0  0  0  0  0  0  0  0  0
   13.9475   25.5291   -4.1179 C   0  0  0  0  0  0  0  0  0  0  0  0
   15.1072   26.4798   -3.9453 C   0  0  0  0  0  0  0  0  0  0  0  0
   18.3469   28.5489   -4.5226 C   0  0  0  0  0  0  0  0  0  0  0  0
   17.0445   28.7663   -4.3849 C   0  0  0  0  0  0  0  0  0  0  0  0
   19.3764   28.9714   -3.5594 C   0  0  0  0  0  0  0  0  0  0  0  0
   18.9347   26.8374   -2.5207 C   0  0  0  0  0  0  0  0  0  0  0  0
   19.9463   27.8163   -2.8491 N   0  0  0  0  0  0  0  0  0  0  0  0
   20.9828   27.2092   -3.6796 C   0  0  0  0  0  0  0  0  0  0  0  0
   11.6328   22.9024   -0.6043 C   0  0  0  0  0  0  0  0  0  0  0  0
   10.6329   23.6258    0.0494 C   0  0  0  0  0  0  0  0  0  0  0  0
    9.5895   22.9780    0.6739 C   0  0  0  0  0  0  0  0  0  0  0  0
    9.5174   21.5917    0.6622 C   0  0  0  0  0  0  0  0  0  0  0  0
   10.4940   20.8833    0.0228 C   0  0  0  0  0  0  0  0  0  0  0  0
   11.5296   21.5436   -0.5971 C   0  0  0  0  0  0  0  0  0  0  0  0
    8.4400   20.9658    1.3103 O   0  0  0  0  0  0  0  0  0  0  0  0
    7.2816   20.7344    0.5750 C   0  0  0  0  0  0  0  0  0  0  0  0
    6.0352   20.7569    1.1660 C   0  0  0  0  0  0  0  0  0  0  0  0
    4.8804   20.5293    0.4491 C   0  0  0  0  0  0  0  0  0  0  0  0
    4.9222   20.2671   -0.9044 C   0  0  0  0  0  0  0  0  0  0  0  0
    6.1650   20.2416   -1.5109 C   0  0  0  0  0  0  0  0  0  0  0  0
    7.3198   20.4691   -0.7923 C   0  0  0  0  0  0  0  0  0  0  0  0
 24 25  1  0  0  0
 25 26  1  0  0  0
 25 23  1  0  0  0
 23 21  1  0  0  0
 21 22  2  0  0  0
 22 13  1  0  0  0
 13 14  2  0  0  0
 13 15  1  0  0  0
 15 16  1  0  0  0
 16 17  1  0  0  0
 17 18  1  0  0  0
 18 19  1  0  0  0
 19 20  1  0  0  0
 19  1  1  0  0  0
  1  2  1  0  0  0
  2  3  2  0  0  0
  3 27  1  0  0  0
 27 28  2  0  0  0
 28 29  1  0  0  0
 29 30  2  0  0  0
 30 33  1  0  0  0
 33 34  1  0  0  0
 34 35  2  0  0  0
 35 36  1  0  0  0
 36 37  2  0  0  0
 37 38  1  0  0  0
 38 39  2  0  0  0
 30 31  1  0  0  0
 31 32  2  0  0  0
  3  4  1  0  0  0
  4  5  2  0  0  0
  5  6  1  0  0  0
  5  7  1  0  0  0
  7  8  2  0  0  0
  8  9  1  0  0  0
  9 10  2  0  0  0
 20 15  1  0  0  0
 10  1  1  0  0  0
 32 27  1  0  0  0
 10  4  1  0  0  0
 39 34  1  0  0  0
  6 11  1  0  0  0
  6 12  1  0  0  0
M  END
> <minimizedAffinity>
7.93217

> <CNNscore>
0.3630216420

> <CNNaffinity>
7.5239686966

> <CNN_VS>
2.7313635349

> <CNNaffinity_variance>
0.3960974813

$$$$
[H]/C(C(=O)N1C([H])([H])C([H])([H])C([H])([H])[C@@]([H])(n2nc(-c3c([H])c([H])c(Oc4c([H])c([H])c([H])c([H])c4[H])c([H])c3[H])c3c(N([H])[H])nc([H])nc32)C1([H])[H])=C(/[H])C([H])([H])N(C([H])([H])[H])C([H])([H])[H]


 39 43  0  0  0  0  0  0  0  0999 V2000
   10.3422   21.3067    0.3502 N   0  0  0  0  0  0  0  0  0  0  0  0
   11.0034   22.1169   -0.4390 N   0  0  0  0  0  0  0  0  0  0  0  0
   12.3477   22.0494   -0.2192 C   0  0  0  0  0  0  0  0  0  0  0  0
   12.5517   21.1386    0.7695 C   0  0  0  0  0  0  0  0  0  0  0  0
   13.6693   20.6261    1.4099 C   0  0  0  0  0  0  0  0  0  0  0  0
   14.9876   21.0289    1.0589 N   0  0  0  0  0  0  0  0  0  0  0  0
   13.4620   19.6914    2.3642 N   0  0  0  0  0  0  0  0  0  0  0  0
   12.2511   19.2403    2.7171 C   0  0  0  0  0  0  0  0  0  0  0  0
   11.1929   19.7546    2.0767 N   0  0  0  0  0  0  0  0  0  0  0  0
   11.2716   20.6818    1.1170 C   0  0  0  0  0  0  0  0  0  0  0  0
   15.4875   21.6678    1.7082 H   0  0  0  0  0  0  0  0  0  0  0  0
   15.4932   20.7312    0.1974 H   0  0  0  0  0  0  0  0  0  0  0  0
    6.0817   21.0846    2.8750 C   0  0  0  0  0  0  0  0  0  0  0  0
    4.8741   20.7235    2.7521 O   0  0  0  0  0  0  0  0  0  0  0  0
    6.9532   21.0311    1.7655 N   0  0  0  0  0  0  0  0  0  0  0  0
    6.4238   20.5595    0.4863 C   0  0  0  0  0  0  0  0  0  0  0  0
    6.7541   21.5499   -0.6200 C   0  0  0  0  0  0  0  0  0  0  0  0
    8.1962   21.9418   -0.5929 C   0  0  0  0  0  0  0  0  0  0  0  0
    8.9105   21.0693    0.4252 C   0  0  0  0  0  0  0  0  0  0  0  0
    8.3519   21.4080    1.7859 C   0  0  0  0  0  0  0  0  0  0  0  0
    7.1393   22.7105    4.3219 C   0  0  0  0  0  0  0  0  0  0  0  0
    6.5140   21.5468    4.1896 C   0  0  0  0  0  0  0  0  0  0  0  0
    7.6165   23.2685    5.5974 C   0  0  0  0  0  0  0  0  0  0  0  0
    9.9241   22.5798    5.4284 C   0  0  0  0  0  0  0  0  0  0  0  0
    9.0178   23.7038    5.4963 N   0  0  0  0  0  0  0  0  0  0  0  0
    9.1718   24.5463    4.3134 C   0  0  0  0  0  0  0  0  0  0  0  0
   13.3538   22.7919   -0.9505 C   0  0  0  0  0  0  0  0  0  0  0  0
   13.7977   24.0243   -0.4666 C   0  0  0  0  0  0  0  0  0  0  0  0
   14.7963   24.7171   -1.1156 C   0  0  0  0  0  0  0  0  0  0  0  0
   15.3772   24.1977   -2.2645 C   0  0  0  0  0  0  0  0  0  0  0  0
   14.9446   22.9924   -2.7383 C   0  0  0  0  0  0  0  0  0  0  0  0
   13.9471   22.3116   -2.0794 C   0  0  0  0  0  0  0  0  0  0  0  0
   16.3914   24.9325   -2.9001 O   0  0  0  0  0  0  0  0  0  0  0  0
   16.0321   25.7575   -3.9615 C   0  0  0  0  0  0  0  0  0  0  0  0
   15.3561   25.2673   -5.0596 C   0  0  0  0  0  0  0  0  0  0  0  0
   14.9946   26.0736   -6.1172 C   0  0  0  0  0  0  0  0  0  0  0  0
   15.2961   27.4196   -6.1223 C   0  0  0  0  0  0  0  0  0  0  0  0
   15.9735   27.9256   -5.0278 C   0  0  0  0  0  0  0  0  0  0  0  0
   16.3350   27.1175   -3.9703 C   0  0  0  0  0  0  0  0  0  0  0  0
 24 25  1  0  0  0
 25 26  1  0  0  0
 25 23  1  0  0  0
 23 21  1  0  0  0
 21 22  2  0  0  0
 22 13  1  0  0  0
 13 14  2  0  0  0
 13 15  1  0  0  0
 15 16  1  0  0  0
 16 17  1  0  0  0
 17 18  1  0  0  0
 18 19  1  0  0  0
 19 20  1  0  0  0
 19  1  1  0  0  0
  1  2  1  0  0  0
  2  3  2  0  0  0
  3 27  1  0  0  0
 27 28  2  0  0  0
 28 29  1  0  0  0
 29 30  2  0  0  0
 30 33  1  0  0  0
 33 34  1  0  0  0
 34 35  2  0  0  0
 35 36  1  0  0  0
 36 37  2  0  0  0
 37 38  1  0  0  0
 38 39  2  0  0  0
 30 31  1  0  0  0
 31 32  2  0  0  0
  3  4  1  0  0  0
  4  5  2  0  0  0
  5  6  1  0  0  0
  5  7  1  0  0  0
  7  8  2  0  0  0
  8  9  1  0  0  0
  9 10  2  0  0  0
 20 15  1  0  0  0
 10  1  1  0  0  0
 32 27  1  0  0  0
 10  4  1  0  0  0
 39 34  1  0  0  0
  6 11  1  0  0  0
  6 12  1  0  0  0
M  END
> <minimizedAffinity>
-6.68058

> <CNNscore>
0.3484546840

> <CNNaffinity>
7.4245705605

> <CNN_VS>
2.5871264935

> <CNNaffinity_variance>
0.2158116549

$$$$
[H]c1c(OC([H])([H])[H])c(OC([H])([H])[H])c(OC([H])([H])[H])c([H])c1C(=O)N1C([H])([H])C([H])([H])C([H])(c2nc3c([H])c([H])c([H])c([H])c3n2[H])C([H])([H])C1([H])[H]


 30 33  0  0  0  0  0  0  0  0999 V2000
   12.8826   26.8444   -4.0275 C   0  0  0  0  0  0  0  0  0  0  0  0
   13.7218   26.6030   -5.0180 O   0  0  0  0  0  0  0  0  0  0  0  0
   13.1145   26.0907   -2.8963 N   0  0  0  0  0  0  0  0  0  0  0  0
   12.4008   26.1186   -1.6584 C   0  0  0  0  0  0  0  0  0  0  0  0
   13.1389   25.2545   -0.6169 C   0  0  0  0  0  0  0  0  0  0  0  0
   13.2868   23.8334   -1.0377 C   0  0  0  0  0  0  0  0  0  0  0  0
   13.6919   23.7889   -2.5188 C   0  0  0  0  0  0  0  0  0  0  0  0
   14.2323   25.1145   -2.9392 C   0  0  0  0  0  0  0  0  0  0  0  0
   12.0485   23.0485   -0.8595 C   0  0  0  0  0  0  0  0  0  0  0  0
   11.6239   21.9634   -1.5361 N   0  0  0  0  0  0  0  0  0  0  0  0
   10.4357   21.5451   -1.0610 C   0  0  0  0  0  0  0  0  0  0  0  0
    9.5635   20.5088   -1.3716 C   0  0  0  0  0  0  0  0  0  0  0  0
    8.3782   20.3428   -0.6698 C   0  0  0  0  0  0  0  0  0  0  0  0
    8.0594   21.2152    0.3487 C   0  0  0  0  0  0  0  0  0  0  0  0
    8.9279   22.2417    0.6531 C   0  0  0  0  0  0  0  0  0  0  0  0
   10.1042   22.3958   -0.0531 C   0  0  0  0  0  0  0  0  0  0  0  0
   11.1030   23.2998    0.0471 N   0  0  0  0  0  0  0  0  0  0  0  0
   11.1173   24.0719    0.7358 H   0  0  0  0  0  0  0  0  0  0  0  0
   11.1997   30.1699   -4.1269 C   0  0  0  0  0  0  0  0  0  0  0  0
   12.0979   29.1699   -3.8692 C   0  0  0  0  0  0  0  0  0  0  0  0
   11.8910   27.8489   -4.3267 C   0  0  0  0  0  0  0  0  0  0  0  0
   10.7365   27.6725   -5.0335 C   0  0  0  0  0  0  0  0  0  0  0  0
    9.8135   28.6973   -5.2989 C   0  0  0  0  0  0  0  0  0  0  0  0
   10.0434   29.9671   -4.8412 C   0  0  0  0  0  0  0  0  0  0  0  0
   11.7768   31.6605   -2.3205 C   0  0  0  0  0  0  0  0  0  0  0  0
   11.4068   31.4860   -3.6707 O   0  0  0  0  0  0  0  0  0  0  0  0
    8.6562   28.4572   -6.0236 O   0  0  0  0  0  0  0  0  0  0  0  0
    7.4151   28.6428   -5.3701 C   0  0  0  0  0  0  0  0  0  0  0  0
    9.1257   30.9604   -5.1113 O   0  0  0  0  0  0  0  0  0  0  0  0
    9.4513   31.9351   -6.0864 C   0  0  0  0  0  0  0  0  0  0  0  0
 25 26  1  0  0  0
 26 19  1  0  0  0
 19 20  2  0  0  0
 20 21  1  0  0  0
 21 22  2  0  0  0
 22 23  1  0  0  0
 23 27  1  0  0  0
 27 28  1  0  0  0
 23 24  2  0  0  0
 24 29  1  0  0  0
 29 30  1  0  0  0
 21  1  1  0  0  0
  1  2  2  0  0  0
  1  3  1  0  0  0
  3  4  1  0  0  0
  4  5  1  0  0  0
  5  6  1  0  0  0
  6  7  1  0  0  0
  7  8  1  0  0  0
  6  9  1  0  0  0
  9 10  2  0  0  0
 10 11  1  0  0  0
 11 12  2  0  0  0
 12 13  1  0  0  0
 13 14  2  0  0  0
 14 15  1  0  0  0
 15 16  2  0  0  0
 16 17  1  0  0  0
 24 19  1  0  0  0
  8  3  1  0  0  0
 17  9  1  0  0  0
 16 11  1  0  0  0
 17 18  1  0  0  0
M  END
> <minimizedAffinity>
13.52302

> <CNNscore>
0.4903709292

> <CNNaffinity>
6.5956153870

> <CNN_VS>
3.2342979908

> <CNNaffinity_variance>
1.0037857294

$$$$
[H]c1c(OC([H])([H])[H])c(OC([H])([H])[H])c(OC([H])([H])[H])c([H])c1C(=O)N1C([H])([H])C([H])([H])C([H])(c2nc3c([H])c([H])c([H])c([H])c3n2[H])C([H])([H])C1([H])[H]


 30 33  0  0  0  0  0  0  0  0999 V2000
   13.0725   26.5354   -3.8540 C   0  0  0  0  0  0  0  0  0  0  0  0
   13.8507   26.2412   -4.8793 O   0  0  0  0  0  0  0  0  0  0  0  0
   13.3012   25.7645   -2.7337 N   0  0  0  0  0  0  0  0  0  0  0  0
   12.6442   25.8367   -1.4665 C   0  0  0  0  0  0  0  0  0  0  0  0
   13.3662   24.9219   -0.4574 C   0  0  0  0  0  0  0  0  0  0  0  0
   13.4004   23.4953   -0.8843 C   0  0  0  0  0  0  0  0  0  0  0  0
   13.7382   23.4281   -2.3813 C   0  0  0  0  0  0  0  0  0  0  0  0
   14.3480   24.7157   -2.8243 C   0  0  0  0  0  0  0  0  0  0  0  0
   12.1209   22.7948   -0.6536 C   0  0  0  0  0  0  0  0  0  0  0  0
   11.2970   22.8558    0.4109 N   0  0  0  0  0  0  0  0  0  0  0  0
   10.2268   22.0602    0.2266 C   0  0  0  0  0  0  0  0  0  0  0  0
    9.0970   21.7454    0.9721 C   0  0  0  0  0  0  0  0  0  0  0  0
    8.1477   20.8589    0.4842 C   0  0  0  0  0  0  0  0  0  0  0  0
    8.3250   20.2819   -0.7550 C   0  0  0  0  0  0  0  0  0  0  0  0
    9.4474   20.5974   -1.4908 C   0  0  0  0  0  0  0  0  0  0  0  0
   10.3844   21.4810   -0.9937 C   0  0  0  0  0  0  0  0  0  0  0  0
   11.5447   21.9460   -1.5061 N   0  0  0  0  0  0  0  0  0  0  0  0
   11.9193   21.6724   -2.4310 H   0  0  0  0  0  0  0  0  0  0  0  0
   10.1183   28.3333   -5.2474 C   0  0  0  0  0  0  0  0  0  0  0  0
   11.0436   27.3636   -4.9705 C   0  0  0  0  0  0  0  0  0  0  0  0
   12.1387   27.6051   -4.1105 C   0  0  0  0  0  0  0  0  0  0  0  0
   12.1820   28.8686   -3.5956 C   0  0  0  0  0  0  0  0  0  0  0  0
   11.2337   29.8652   -3.8787 C   0  0  0  0  0  0  0  0  0  0  0  0
   10.1839   29.5992   -4.7165 C   0  0  0  0  0  0  0  0  0  0  0  0
    7.7773   28.6366   -5.7426 C   0  0  0  0  0  0  0  0  0  0  0  0
    9.0274   28.0919   -6.1044 O   0  0  0  0  0  0  0  0  0  0  0  0
   11.3305   31.1325   -3.3250 O   0  0  0  0  0  0  0  0  0  0  0  0
   12.2341   32.0465   -3.9166 C   0  0  0  0  0  0  0  0  0  0  0  0
    9.2627   30.5903   -4.9830 O   0  0  0  0  0  0  0  0  0  0  0  0
    8.0769   30.6372   -4.2094 C   0  0  0  0  0  0  0  0  0  0  0  0
 25 26  1  0  0  0
 26 19  1  0  0  0
 19 20  2  0  0  0
 20 21  1  0  0  0
 21 22  2  0  0  0
 22 23  1  0  0  0
 23 27  1  0  0  0
 27 28  1  0  0  0
 23 24  2  0  0  0
 24 29  1  0  0  0
 29 30  1  0  0  0
 21  1  1  0  0  0
  1  2  2  0  0  0
  1  3  1  0  0  0
  3  4  1  0  0  0
  4  5  1  0  0  0
  5  6  1  0  0  0
  6  7  1  0  0  0
  7  8  1  0  0  0
  6  9  1  0  0  0
  9 10  2  0  0  0
 10 11  1  0  0  0
 11 12  2  0  0  0
 12 13  1  0  0  0
 13 14  2  0  0  0
 14 15  1  0  0  0
 15 16  2  0  0  0
 16 17  1  0  0  0
 24 19  1  0  0  0
  8  3  1  0  0  0
 17  9  1  0  0  0
 16 11  1  0  0  0
 17 18  1  0  0  0
M  END
> <minimizedAffinity>
13.08189

> <CNNscore>
0.4847452641

> <CNNaffinity>
6.6290373802

> <CNN_VS>
3.2133944035

> <CNNaffinity_variance>
1.1182061434

$$$$
[H]c1c(OC([H])([H])[H])c(OC([H])([H])[H])c(OC([H])([H])[H])c([H])c1C(=O)N1C([H])([H])C([H])([H])C([H])(c2nc3c([H])c([H])c([H])c([H])c3n2[H])C([H])([H])C1([H])[H]


 30 33  0  0  0  0  0  0  0  0999 V2000
   15.0243   22.8711   -3.2629 C   0  0  0  0  0  0  0  0  0  0  0  0
   15.0155   21.8997   -4.1573 O   0  0  0  0  0  0  0  0  0  0  0  0
   14.7606   22.4538   -1.9753 N   0  0  0  0  0  0  0  0  0  0  0  0
   14.7080   23.2457   -0.7868 C   0  0  0  0  0  0  0  0  0  0  0  0
   14.5823   22.3244    0.4428 C   0  0  0  0  0  0  0  0  0  0  0  0
   13.3688   21.4616    0.4033 C   0  0  0  0  0  0  0  0  0  0  0  0
   13.2000   20.8987   -1.0160 C   0  0  0  0  0  0  0  0  0  0  0  0
   14.4858   21.0101   -1.7645 C   0  0  0  0  0  0  0  0  0  0  0  0
   12.1365   22.1843    0.7780 C   0  0  0  0  0  0  0  0  0  0  0  0
   11.9693   23.1705    1.6807 N   0  0  0  0  0  0  0  0  0  0  0  0
   10.6815   23.5610    1.7212 C   0  0  0  0  0  0  0  0  0  0  0  0
    9.9646   24.5077    2.4429 C   0  0  0  0  0  0  0  0  0  0  0  0
    8.6010   24.6698    2.2443 C   0  0  0  0  0  0  0  0  0  0  0  0
    7.9469   23.8835    1.3203 C   0  0  0  0  0  0  0  0  0  0  0  0
    8.6626   22.9458    0.6067 C   0  0  0  0  0  0  0  0  0  0  0  0
   10.0191   22.7945    0.8140 C   0  0  0  0  0  0  0  0  0  0  0  0
   10.9287   21.9664    0.2556 N   0  0  0  0  0  0  0  0  0  0  0  0
   10.7037   21.2675   -0.4735 H   0  0  0  0  0  0  0  0  0  0  0  0
   16.3095   26.3643   -3.4799 C   0  0  0  0  0  0  0  0  0  0  0  0
   16.0020   25.1143   -3.0151 C   0  0  0  0  0  0  0  0  0  0  0  0
   15.3087   24.1750   -3.8115 C   0  0  0  0  0  0  0  0  0  0  0  0
   14.9842   24.6252   -5.0588 C   0  0  0  0  0  0  0  0  0  0  0  0
   15.2987   25.9076   -5.5375 C   0  0  0  0  0  0  0  0  0  0  0  0
   15.9714   26.7947   -4.7404 C   0  0  0  0  0  0  0  0  0  0  0  0
   18.1734   27.8730   -3.2203 C   0  0  0  0  0  0  0  0  0  0  0  0
   17.0004   27.2996   -2.6857 O   0  0  0  0  0  0  0  0  0  0  0  0
   14.9422   26.3089   -6.8157 O   0  0  0  0  0  0  0  0  0  0  0  0
   15.5997   25.6977   -7.9093 C   0  0  0  0  0  0  0  0  0  0  0  0
   16.2713   28.0495   -5.2275 O   0  0  0  0  0  0  0  0  0  0  0  0
   15.3213   29.0863   -5.0561 C   0  0  0  0  0  0  0  0  0  0  0  0
 25 26  1  0  0  0
 26 19  1  0  0  0
 19 20  2  0  0  0
 20 21  1  0  0  0
 21 22  2  0  0  0
 22 23  1  0  0  0
 23 27  1  0  0  0
 27 28  1  0  0  0
 23 24  2  0  0  0
 24 29  1  0  0  0
 29 30  1  0  0  0
 21  1  1  0  0  0
  1  2  2  0  0  0
  1  3  1  0  0  0
  3  4  1  0  0  0
  4  5  1  0  0  0
  5  6  1  0  0  0
  6  7  1  0  0  0
  7  8  1  0  0  0
  6  9  1  0  0  0
  9 10  2  0  0  0
 10 11  1  0  0  0
 11 12  2  0  0  0
 12 13  1  0  0  0
 13 14  2  0  0  0
 14 15  1  0  0  0
 15 16  2  0  0  0
 16 17  1  0  0  0
 24 19  1  0  0  0
  8  3  1  0  0  0
 17  9  1  0  0  0
 16 11  1  0  0  0
 17 18  1  0  0  0
M  END
> <minimizedAffinity>
-7.03327

> <CNNscore>
0.4425792098

> <CNNaffinity>
7.2918586731

> <CNN_VS>
3.2272250652

> <CNNaffinity_variance>
0.4461863637

$$$$
[H]c1c(OC([H])([H])[H])c(OC([H])([H])[H])c(OC([H])([H])[H])c([H])c1C(=O)N1C([H])([H])C([H])([H])C([H])(c2nc3c([H])c([H])c([H])c([H])c3n2[H])C([H])([H])C1([H])[H]


 30 33  0  0  0  0  0  0  0  0999 V2000
   14.9171   23.6281   -2.8158 C   0  0  0  0  0  0  0  0  0  0  0  0
   15.0527   22.7232   -3.7678 O   0  0  0  0  0  0  0  0  0  0  0  0
   14.6213   23.1016   -1.5761 N   0  0  0  0  0  0  0  0  0  0  0  0
   14.4251   23.8026   -0.3462 C   0  0  0  0  0  0  0  0  0  0  0  0
   14.3181   22.7921    0.8131 C   0  0  0  0  0  0  0  0  0  0  0  0
   13.1972   21.8262    0.6430 C   0  0  0  0  0  0  0  0  0  0  0  0
   13.1647   21.3480   -0.8164 C   0  0  0  0  0  0  0  0  0  0  0  0
   14.4746   21.6278   -1.4735 C   0  0  0  0  0  0  0  0  0  0  0  0
   11.8819   22.4052    0.9832 C   0  0  0  0  0  0  0  0  0  0  0  0
   10.7038   22.2764    0.3421 N   0  0  0  0  0  0  0  0  0  0  0  0
    9.7401   22.9661    0.9810 C   0  0  0  0  0  0  0  0  0  0  0  0
    8.3828   23.1798    0.7725 C   0  0  0  0  0  0  0  0  0  0  0  0
    7.6455   23.9686    1.6438 C   0  0  0  0  0  0  0  0  0  0  0  0
    8.2643   24.5486    2.7304 C   0  0  0  0  0  0  0  0  0  0  0  0
    9.6109   24.3336    2.9328 C   0  0  0  0  0  0  0  0  0  0  0  0
   10.3332   23.5466    2.0583 C   0  0  0  0  0  0  0  0  0  0  0  0
   11.6355   23.1883    2.0345 N   0  0  0  0  0  0  0  0  0  0  0  0
   12.3307   23.4877    2.7400 H   0  0  0  0  0  0  0  0  0  0  0  0
   14.0842   27.0466   -4.0491 C   0  0  0  0  0  0  0  0  0  0  0  0
   13.9731   25.7500   -3.6253 C   0  0  0  0  0  0  0  0  0  0  0  0
   15.1060   24.9869   -3.2629 C   0  0  0  0  0  0  0  0  0  0  0  0
   16.2924   25.6532   -3.3737 C   0  0  0  0  0  0  0  0  0  0  0  0
   16.4084   26.9836   -3.8085 C   0  0  0  0  0  0  0  0  0  0  0  0
   15.2909   27.6960   -4.1527 C   0  0  0  0  0  0  0  0  0  0  0  0
   11.7029   27.1558   -4.4167 C   0  0  0  0  0  0  0  0  0  0  0  0
   12.9548   27.8063   -4.4100 O   0  0  0  0  0  0  0  0  0  0  0  0
   17.6427   27.6081   -3.9010 O   0  0  0  0  0  0  0  0  0  0  0  0
   18.6143   27.3036   -2.9187 C   0  0  0  0  0  0  0  0  0  0  0  0
   15.4245   29.0011   -4.5777 O   0  0  0  0  0  0  0  0  0  0  0  0
   15.8462   29.2390   -5.9090 C   0  0  0  0  0  0  0  0  0  0  0  0
 25 26  1  0  0  0
 26 19  1  0  0  0
 19 20  2  0  0  0
 20 21  1  0  0  0
 21 22  2  0  0  0
 22 23  1  0  0  0
 23 27  1  0  0  0
 27 28  1  0  0  0
 23 24  2  0  0  0
 24 29  1  0  0  0
 29 30  1  0  0  0
 21  1  1  0  0  0
  1  2  2  0  0  0
  1  3  1  0  0  0
  3  4  1  0  0  0
  4  5  1  0  0  0
  5  6  1  0  0  0
  6  7  1  0  0  0
  7  8  1  0  0  0
  6  9  1  0  0  0
  9 10  2  0  0  0
 10 11  1  0  0  0
 11 12  2  0  0  0
 12 13  1  0  0  0
 13 14  2  0  0  0
 14 15  1  0  0  0
 15 16  2  0  0  0
 16 17  1  0  0  0
 24 19  1  0  0  0
  8  3  1  0  0  0
 17  9  1  0  0  0
 16 11  1  0  0  0
 17 18  1  0  0  0
M  END
> <minimizedAffinity>
-1.45224

> <CNNscore>
0.4363460541

> <CNNaffinity>
6.8515291214

> <CNN_VS>
2.9896376133

> <CNNaffinity_variance>
0.2537749708

$$$$
[H]c1c(OC([H])([H])[H])c(OC([H])([H])[H])c(OC([H])([H])[H])c([H])c1C(=O)N1C([H])([H])C([H])([H])C([H])(c2nc3c([H])c([H])c([H])c([H])c3n2[H])C([H])([H])C1([H])[H]


 30 33  0  0  0  0  0  0  0  0999 V2000
   14.5142   22.9387   -0.4168 C   0  0  0  0  0  0  0  0  0  0  0  0
   15.4108   22.5085    0.4518 O   0  0  0  0  0  0  0  0  0  0  0  0
   14.9462   22.9247   -1.7263 N   0  0  0  0  0  0  0  0  0  0  0  0
   14.2224   23.3121   -2.8961 C   0  0  0  0  0  0  0  0  0  0  0  0
   15.0322   22.9363   -4.1528 C   0  0  0  0  0  0  0  0  0  0  0  0
   16.3727   23.5841   -4.1980 C   0  0  0  0  0  0  0  0  0  0  0  0
   17.0131   23.5086   -2.8038 C   0  0  0  0  0  0  0  0  0  0  0  0
   16.3327   22.4621   -1.9866 C   0  0  0  0  0  0  0  0  0  0  0  0
   16.3144   24.9986   -4.6188 C   0  0  0  0  0  0  0  0  0  0  0  0
   16.9196   26.0734   -4.0765 N   0  0  0  0  0  0  0  0  0  0  0  0
   16.6073   27.1883   -4.7634 C   0  0  0  0  0  0  0  0  0  0  0  0
   16.9368   28.5339   -4.6539 C   0  0  0  0  0  0  0  0  0  0  0  0
   16.4326   29.4645   -5.5511 C   0  0  0  0  0  0  0  0  0  0  0  0
   15.5944   29.0518   -6.5646 C   0  0  0  0  0  0  0  0  0  0  0  0
   15.2706   27.7158   -6.6690 C   0  0  0  0  0  0  0  0  0  0  0  0
   15.7790   26.8001   -5.7696 C   0  0  0  0  0  0  0  0  0  0  0  0
   15.6183   25.4635   -5.6572 N   0  0  0  0  0  0  0  0  0  0  0  0
   15.0344   24.8955   -6.2952 H   0  0  0  0  0  0  0  0  0  0  0  0
   12.0973   24.8387    1.6926 C   0  0  0  0  0  0  0  0  0  0  0  0
   13.2533   24.4074    1.1005 C   0  0  0  0  0  0  0  0  0  0  0  0
   13.2613   23.3370    0.1779 C   0  0  0  0  0  0  0  0  0  0  0  0
   12.0335   22.7892   -0.0593 C   0  0  0  0  0  0  0  0  0  0  0  0
   10.8461   23.2303    0.5474 C   0  0  0  0  0  0  0  0  0  0  0  0
   10.8724   24.2704    1.4376 C   0  0  0  0  0  0  0  0  0  0  0  0
   12.2809   27.2081    2.1047 C   0  0  0  0  0  0  0  0  0  0  0  0
   12.0902   25.9055    2.6118 O   0  0  0  0  0  0  0  0  0  0  0  0
    9.6267   22.6335    0.2666 O   0  0  0  0  0  0  0  0  0  0  0  0
    9.6360   21.4112   -0.4459 C   0  0  0  0  0  0  0  0  0  0  0  0
    9.6965   24.6894    2.0236 O   0  0  0  0  0  0  0  0  0  0  0  0
    9.2456   26.0078    1.7677 C   0  0  0  0  0  0  0  0  0  0  0  0
 25 26  1  0  0  0
 26 19  1  0  0  0
 19 20  2  0  0  0
 20 21  1  0  0  0
 21 22  2  0  0  0
 22 23  1  0  0  0
 23 27  1  0  0  0
 27 28  1  0  0  0
 23 24  2  0  0  0
 24 29  1  0  0  0
 29 30  1  0  0  0
 21  1  1  0  0  0
  1  2  2  0  0  0
  1  3  1  0  0  0
  3  4  1  0  0  0
  4  5  1  0  0  0
  5  6  1  0  0  0
  6  7  1  0  0  0
  7  8  1  0  0  0
  6  9  1  0  0  0
  9 10  2  0  0  0
 10 11  1  0  0  0
 11 12  2  0  0  0
 12 13  1  0  0  0
 13 14  2  0  0  0
 14 15  1  0  0  0
 15 16  2  0  0  0
 16 17  1  0  0  0
 24 19  1  0  0  0
  8  3  1  0  0  0
 17  9  1  0  0  0
 16 11  1  0  0  0
 17 18  1  0  0  0
M  END
> <minimizedAffinity>
19.62477

> <CNNscore>
0.4296285808

> <CNNaffinity>
6.9795746803

> <CNN_VS>
2.9986248016

> <CNNaffinity_variance>
2.3426108360

$$$$
[H]c1c(OC([H])([H])[H])c(OC([H])([H])[H])c(OC([H])([H])[H])c([H])c1C(=O)N1C([H])([H])C([H])([H])C([H])(c2nc3c([H])c([H])c([H])c([H])c3n2[H])C([H])([H])C1([H])[H]


 30 33  0  0  0  0  0  0  0  0999 V2000
   10.5875   23.2353   -1.1421 C   0  0  0  0  0  0  0  0  0  0  0  0
    9.7583   22.7498   -2.0477 O   0  0  0  0  0  0  0  0  0  0  0  0
   10.1677   23.0573    0.1593 N   0  0  0  0  0  0  0  0  0  0  0  0
   10.8334   23.4523    1.3607 C   0  0  0  0  0  0  0  0  0  0  0  0
   10.0916   22.8671    2.5787 C   0  0  0  0  0  0  0  0  0  0  0  0
    8.6721   23.3099    2.6649 C   0  0  0  0  0  0  0  0  0  0  0  0
    8.0431   23.2522    1.2647 C   0  0  0  0  0  0  0  0  0  0  0  0
    8.8634   22.3813    0.3732 C   0  0  0  0  0  0  0  0  0  0  0  0
    8.5282   24.6810    3.1949 C   0  0  0  0  0  0  0  0  0  0  0  0
    9.3193   25.7548    3.0036 N   0  0  0  0  0  0  0  0  0  0  0  0
    8.8348   26.8227    3.6649 C   0  0  0  0  0  0  0  0  0  0  0  0
    9.2305   28.1461    3.8169 C   0  0  0  0  0  0  0  0  0  0  0  0
    8.4877   29.0256    4.5915 C   0  0  0  0  0  0  0  0  0  0  0  0
    7.3427   28.5837    5.2190 C   0  0  0  0  0  0  0  0  0  0  0  0
    6.9544   27.2699    5.0650 C   0  0  0  0  0  0  0  0  0  0  0  0
    7.7025   26.4050    4.2915 C   0  0  0  0  0  0  0  0  0  0  0  0
    7.5405   25.0986    3.9880 N   0  0  0  0  0  0  0  0  0  0  0  0
    6.7553   24.5184    4.3307 H   0  0  0  0  0  0  0  0  0  0  0  0
   12.7839   25.8499   -2.6391 C   0  0  0  0  0  0  0  0  0  0  0  0
   11.6982   25.2026   -2.1143 C   0  0  0  0  0  0  0  0  0  0  0  0
   11.7675   23.8547   -1.6953 C   0  0  0  0  0  0  0  0  0  0  0  0
   12.9928   23.2761   -1.8609 C   0  0  0  0  0  0  0  0  0  0  0  0
   14.1080   23.9386   -2.3994 C   0  0  0  0  0  0  0  0  0  0  0  0
   14.0079   25.2453   -2.7962 C   0  0  0  0  0  0  0  0  0  0  0  0
   12.4703   27.4424   -4.4233 C   0  0  0  0  0  0  0  0  0  0  0  0
   12.7141   27.1931   -3.0563 O   0  0  0  0  0  0  0  0  0  0  0  0
   15.3289   23.2976   -2.5434 O   0  0  0  0  0  0  0  0  0  0  0  0
   15.9537   22.7934   -1.3785 C   0  0  0  0  0  0  0  0  0  0  0  0
   15.1136   25.8792   -3.3229 O   0  0  0  0  0  0  0  0  0  0  0  0
   15.4019   27.1998   -2.8991 C   0  0  0  0  0  0  0  0  0  0  0  0
 25 26  1  0  0  0
 26 19  1  0  0  0
 19 20  2  0  0  0
 20 21  1  0  0  0
 21 22  2  0  0  0
 22 23  1  0  0  0
 23 27  1  0  0  0
 27 28  1  0  0  0
 23 24  2  0  0  0
 24 29  1  0  0  0
 29 30  1  0  0  0
 21  1  1  0  0  0
  1  2  2  0  0  0
  1  3  1  0  0  0
  3  4  1  0  0  0
  4  5  1  0  0  0
  5  6  1  0  0  0
  6  7  1  0  0  0
  7  8  1  0  0  0
  6  9  1  0  0  0
  9 10  2  0  0  0
 10 11  1  0  0  0
 11 12  2  0  0  0
 12 13  1  0  0  0
 13 14  2  0  0  0
 14 15  1  0  0  0
 15 16  2  0  0  0
 16 17  1  0  0  0
 24 19  1  0  0  0
  8  3  1  0  0  0
 17  9  1  0  0  0
 16 11  1  0  0  0
 17 18  1  0  0  0
M  END
> <minimizedAffinity>
9.38817

> <CNNscore>
0.3876350522

> <CNNaffinity>
5.9673252106

> <CNN_VS>
2.3131444454

> <CNNaffinity_variance>
1.2931125164

$$$$
[H]c1c(OC([H])([H])[H])c(OC([H])([H])[H])c(OC([H])([H])[H])c([H])c1C(=O)N1C([H])([H])C([H])([H])C([H])(c2nc3c([H])c([H])c([H])c([H])c3n2[H])C([H])([H])C1([H])[H]


 30 33  0  0  0  0  0  0  0  0999 V2000
   14.7357   22.7019   -2.9898 C   0  0  0  0  0  0  0  0  0  0  0  0
   14.8274   21.6684   -3.8064 O   0  0  0  0  0  0  0  0  0  0  0  0
   14.6437   22.3605   -1.6569 N   0  0  0  0  0  0  0  0  0  0  0  0
   14.5444   23.2332   -0.5295 C   0  0  0  0  0  0  0  0  0  0  0  0
   14.6701   22.4143    0.7705 C   0  0  0  0  0  0  0  0  0  0  0  0
   13.6231   21.3630    0.9010 C   0  0  0  0  0  0  0  0  0  0  0  0
   13.4487   20.6586   -0.4529 C   0  0  0  0  0  0  0  0  0  0  0  0
   14.6372   20.9151   -1.3176 C   0  0  0  0  0  0  0  0  0  0  0  0
   12.3163   21.9022    1.3285 C   0  0  0  0  0  0  0  0  0  0  0  0
   11.7954   21.9877    2.5682 N   0  0  0  0  0  0  0  0  0  0  0  0
   10.5714   22.5470    2.5290 C   0  0  0  0  0  0  0  0  0  0  0  0
    9.6078   22.8687    3.4773 C   0  0  0  0  0  0  0  0  0  0  0  0
    8.4092   23.4577    3.1012 C   0  0  0  0  0  0  0  0  0  0  0  0
    8.1686   23.7281    1.7711 C   0  0  0  0  0  0  0  0  0  0  0  0
    9.1277   23.4072    0.8342 C   0  0  0  0  0  0  0  0  0  0  0  0
   10.3162   22.8213    1.2217 C   0  0  0  0  0  0  0  0  0  0  0  0
   11.3945   22.4186    0.5145 N   0  0  0  0  0  0  0  0  0  0  0  0
   11.4777   22.5060   -0.5131 H   0  0  0  0  0  0  0  0  0  0  0  0
   15.5603   25.3134   -5.5199 C   0  0  0  0  0  0  0  0  0  0  0  0
   15.5115   24.1283   -4.8371 C   0  0  0  0  0  0  0  0  0  0  0  0
   14.7506   23.9821   -3.6552 C   0  0  0  0  0  0  0  0  0  0  0  0
   14.0853   25.1106   -3.2710 C   0  0  0  0  0  0  0  0  0  0  0  0
   14.1342   26.3277   -3.9702 C   0  0  0  0  0  0  0  0  0  0  0  0
   14.8813   26.4366   -5.1125 C   0  0  0  0  0  0  0  0  0  0  0  0
   15.6194   25.5518   -7.9193 C   0  0  0  0  0  0  0  0  0  0  0  0
   16.3186   25.4582   -6.6975 O   0  0  0  0  0  0  0  0  0  0  0  0
   13.4360   27.4418   -3.5304 O   0  0  0  0  0  0  0  0  0  0  0  0
   12.1670   27.6962   -4.1020 C   0  0  0  0  0  0  0  0  0  0  0  0
   14.9175   27.6398   -5.7853 O   0  0  0  0  0  0  0  0  0  0  0  0
   15.9474   28.5601   -5.4705 C   0  0  0  0  0  0  0  0  0  0  0  0
 25 26  1  0  0  0
 26 19  1  0  0  0
 19 20  2  0  0  0
 20 21  1  0  0  0
 21 22  2  0  0  0
 22 23  1  0  0  0
 23 27  1  0  0  0
 27 28  1  0  0  0
 23 24  2  0  0  0
 24 29  1  0  0  0
 29 30  1  0  0  0
 21  1  1  0  0  0
  1  2  2  0  0  0
  1  3  1  0  0  0
  3  4  1  0  0  0
  4  5  1  0  0  0
  5  6  1  0  0  0
  6  7  1  0  0  0
  7  8  1  0  0  0
  6  9  1  0  0  0
  9 10  2  0  0  0
 10 11  1  0  0  0
 11 12  2  0  0  0
 12 13  1  0  0  0
 13 14  2  0  0  0
 14 15  1  0  0  0
 15 16  2  0  0  0
 16 17  1  0  0  0
 24 19  1  0  0  0
  8  3  1  0  0  0
 17  9  1  0  0  0
 16 11  1  0  0  0
 17 18  1  0  0  0
M  END
> <minimizedAffinity>
-6.35921

> <CNNscore>
0.3701326251

> <CNNaffinity>
7.0016527176

> <CNN_VS>
2.5915400982

> <CNNaffinity_variance>
0.0838080049

$$$$
[H]c1c(OC([H])([H])[H])c(OC([H])([H])[H])c(OC([H])([H])[H])c([H])c1C(=O)N1C([H])([H])C([H])([H])C([H])(c2nc3c([H])c([H])c([H])c([H])c3n2[H])C([H])([H])C1([H])[H]


 30 33  0  0  0  0  0  0  0  0999 V2000
   10.7956   24.4516    1.8661 C   0  0  0  0  0  0  0  0  0  0  0  0
    9.9343   25.4432    1.7305 O   0  0  0  0  0  0  0  0  0  0  0  0
   12.0485   24.7199    1.3564 N   0  0  0  0  0  0  0  0  0  0  0  0
   13.1981   23.8708    1.3542 C   0  0  0  0  0  0  0  0  0  0  0  0
   14.4252   24.6639    0.8627 C   0  0  0  0  0  0  0  0  0  0  0  0
   14.2510   25.2164   -0.5095 C   0  0  0  0  0  0  0  0  0  0  0  0
   12.8376   25.8044   -0.6373 C   0  0  0  0  0  0  0  0  0  0  0  0
   12.2607   26.0432    0.7177 C   0  0  0  0  0  0  0  0  0  0  0  0
   14.4419   24.2028   -1.5666 C   0  0  0  0  0  0  0  0  0  0  0  0
   14.0662   22.9089   -1.5828 N   0  0  0  0  0  0  0  0  0  0  0  0
   14.4300   22.3256   -2.7403 C   0  0  0  0  0  0  0  0  0  0  0  0
   14.3028   21.0515   -3.2804 C   0  0  0  0  0  0  0  0  0  0  0  0
   14.8016   20.7613   -4.5422 C   0  0  0  0  0  0  0  0  0  0  0  0
   15.4314   21.7472   -5.2712 C   0  0  0  0  0  0  0  0  0  0  0  0
   15.5550   23.0095   -4.7310 C   0  0  0  0  0  0  0  0  0  0  0  0
   15.0544   23.2851   -3.4743 C   0  0  0  0  0  0  0  0  0  0  0  0
   15.0471   24.4163   -2.7358 N   0  0  0  0  0  0  0  0  0  0  0  0
   15.4572   25.3135   -3.0481 H   0  0  0  0  0  0  0  0  0  0  0  0
   10.4431   20.9009    2.9475 C   0  0  0  0  0  0  0  0  0  0  0  0
   10.9018   22.0419    2.3469 C   0  0  0  0  0  0  0  0  0  0  0  0
   10.2536   23.2856    2.5209 C   0  0  0  0  0  0  0  0  0  0  0  0
    9.1528   23.2387    3.3269 C   0  0  0  0  0  0  0  0  0  0  0  0
    8.6804   22.0688    3.9439 C   0  0  0  0  0  0  0  0  0  0  0  0
    9.3313   20.8791    3.7550 C   0  0  0  0  0  0  0  0  0  0  0  0
   11.8624   19.1704    3.8467 C   0  0  0  0  0  0  0  0  0  0  0  0
   11.0896   19.6620    2.7737 O   0  0  0  0  0  0  0  0  0  0  0  0
    7.5548   22.0831    4.7531 O   0  0  0  0  0  0  0  0  0  0  0  0
    7.2369   23.2874    5.4244 C   0  0  0  0  0  0  0  0  0  0  0  0
    8.8525   19.7408    4.3688 O   0  0  0  0  0  0  0  0  0  0  0  0
    7.4705   19.4473    4.2661 C   0  0  0  0  0  0  0  0  0  0  0  0
 25 26  1  0  0  0
 26 19  1  0  0  0
 19 20  2  0  0  0
 20 21  1  0  0  0
 21 22  2  0  0  0
 22 23  1  0  0  0
 23 27  1  0  0  0
 27 28  1  0  0  0
 23 24  2  0  0  0
 24 29  1  0  0  0
 29 30  1  0  0  0
 21  1  1  0  0  0
  1  2  2  0  0  0
  1  3  1  0  0  0
  3  4  1  0  0  0
  4  5  1  0  0  0
  5  6  1  0  0  0
  6  7  1  0  0  0
  7  8  1  0  0  0
  6  9  1  0  0  0
  9 10  2  0  0  0
 10 11  1  0  0  0
 11 12  2  0  0  0
 12 13  1  0  0  0
 13 14  2  0  0  0
 14 15  1  0  0  0
 15 16  2  0  0  0
 16 17  1  0  0  0
 24 19  1  0  0  0
  8  3  1  0  0  0
 17  9  1  0  0  0
 16 11  1  0  0  0
 17 18  1  0  0  0
M  END
> <minimizedAffinity>
3.00740

> <CNNscore>
0.3669302762

> <CNNaffinity>
6.2400770187

> <CNN_VS>
2.2896730900

> <CNNaffinity_variance>
0.9842217565

$$$$
[H]c1c(OC([H])([H])[H])c(OC([H])([H])[H])c(OC([H])([H])[H])c([H])c1C(=O)N1C([H])([H])C([H])([H])C([H])(c2nc3c([H])c([H])c([H])c([H])c3n2[H])C([H])([H])C1([H])[H]


 30 33  0  0  0  0  0  0  0  0999 V2000
   14.7889   22.8511   -2.6131 C   0  0  0  0  0  0  0  0  0  0  0  0
   14.7846   21.9649   -3.5920 O   0  0  0  0  0  0  0  0  0  0  0  0
   14.5926   22.3082   -1.3608 N   0  0  0  0  0  0  0  0  0  0  0  0
   14.5543   22.9867   -0.1035 C   0  0  0  0  0  0  0  0  0  0  0  0
   14.5139   21.9537    1.0400 C   0  0  0  0  0  0  0  0  0  0  0  0
   13.3357   21.0457    0.9642 C   0  0  0  0  0  0  0  0  0  0  0  0
   13.1348   20.6061   -0.4939 C   0  0  0  0  0  0  0  0  0  0  0  0
   14.3849   20.8408   -1.2737 C   0  0  0  0  0  0  0  0  0  0  0  0
   12.0907   21.6768    1.4466 C   0  0  0  0  0  0  0  0  0  0  0  0
   11.6536   21.8400    2.7107 N   0  0  0  0  0  0  0  0  0  0  0  0
   10.4632   22.4686    2.7218 C   0  0  0  0  0  0  0  0  0  0  0  0
    9.5803   22.8823    3.7120 C   0  0  0  0  0  0  0  0  0  0  0  0
    8.3958   23.5263    3.3843 C   0  0  0  0  0  0  0  0  0  0  0  0
    8.0886   23.7599    2.0610 C   0  0  0  0  0  0  0  0  0  0  0  0
    8.9677   23.3475    1.0824 C   0  0  0  0  0  0  0  0  0  0  0  0
   10.1430   22.7077    1.4219 C   0  0  0  0  0  0  0  0  0  0  0  0
   11.1507   22.2156    0.6687 N   0  0  0  0  0  0  0  0  0  0  0  0
   11.1745   22.2588   -0.3649 H   0  0  0  0  0  0  0  0  0  0  0  0
   16.4688   26.1447   -3.0945 C   0  0  0  0  0  0  0  0  0  0  0  0
   16.2056   24.8595   -2.7043 C   0  0  0  0  0  0  0  0  0  0  0  0
   14.9987   24.2103   -3.0495 C   0  0  0  0  0  0  0  0  0  0  0  0
   14.1426   24.9715   -3.7921 C   0  0  0  0  0  0  0  0  0  0  0  0
   14.4108   26.2904   -4.1934 C   0  0  0  0  0  0  0  0  0  0  0  0
   15.5901   26.8912   -3.8423 C   0  0  0  0  0  0  0  0  0  0  0  0
   18.0897   27.8698   -3.5572 C   0  0  0  0  0  0  0  0  0  0  0  0
   17.6717   26.7908   -2.7502 O   0  0  0  0  0  0  0  0  0  0  0  0
   13.5010   27.0148   -4.9481 O   0  0  0  0  0  0  0  0  0  0  0  0
   12.3381   27.4956   -4.3014 C   0  0  0  0  0  0  0  0  0  0  0  0
   15.8357   28.1869   -4.2452 O   0  0  0  0  0  0  0  0  0  0  0  0
   15.9567   28.4528   -5.6314 C   0  0  0  0  0  0  0  0  0  0  0  0
 25 26  1  0  0  0
 26 19  1  0  0  0
 19 20  2  0  0  0
 20 21  1  0  0  0
 21 22  2  0  0  0
 22 23  1  0  0  0
 23 27  1  0  0  0
 27 28  1  0  0  0
 23 24  2  0  0  0
 24 29  1  0  0  0
 29 30  1  0  0  0
 21  1  1  0  0  0
  1  2  2  0  0  0
  1  3  1  0  0  0
  3  4  1  0  0  0
  4  5  1  0  0  0
  5  6  1  0  0  0
  6  7  1  0  0  0
  7  8  1  0  0  0
  6  9  1  0  0  0
  9 10  2  0  0  0
 10 11  1  0  0  0
 11 12  2  0  0  0
 12 13  1  0  0  0
 13 14  2  0  0  0
 14 15  1  0  0  0
 15 16  2  0  0  0
 16 17  1  0  0  0
 24 19  1  0  0  0
  8  3  1  0  0  0
 17  9  1  0  0  0
 16 11  1  0  0  0
 17 18  1  0  0  0
M  END
> <minimizedAffinity>
-7.53405

> <CNNscore>
0.3417153656

> <CNNaffinity>
7.2005081177

> <CNN_VS>
2.4605243206

> <CNNaffinity_variance>
0.2738418281

$$$$
[H]OC(C([H])([H])[H])(C([H])([H])[H])C([H])([H])N([H])S(=O)(=O)c1c([H])c([H])c(C([H])([H])[H])c(-c2c([H])nc(N([H])[H])c(-c3c([H])c([H])nc(C([H])([H])[H])c3[H])c2[H])c1[H]


 34 36  0  0  0  0  0  0  0  0999 V2000
   14.7027   24.0082   -2.8643 C   0  0  0  0  0  0  0  0  0  0  0  0
   14.2434   23.8489   -1.5528 C   0  0  0  0  0  0  0  0  0  0  0  0
   14.0559   22.6111   -0.9875 C   0  0  0  0  0  0  0  0  0  0  0  0
   14.3260   21.4852   -1.7279 C   0  0  0  0  0  0  0  0  0  0  0  0
   14.7788   21.6301   -3.0218 C   0  0  0  0  0  0  0  0  0  0  0  0
   14.9702   22.8879   -3.5994 C   0  0  0  0  0  0  0  0  0  0  0  0
   15.4449   22.9689   -4.9912 C   0  0  0  0  0  0  0  0  0  0  0  0
   13.9614   27.4944   -4.0134 C   0  0  0  0  0  0  0  0  0  0  0  0
   13.8394   26.2208   -3.4929 C   0  0  0  0  0  0  0  0  0  0  0  0
   14.9064   25.3218   -3.4392 C   0  0  0  0  0  0  0  0  0  0  0  0
   16.1031   25.7838   -3.9414 C   0  0  0  0  0  0  0  0  0  0  0  0
   16.2296   27.0204   -4.4493 N   0  0  0  0  0  0  0  0  0  0  0  0
   15.1830   27.8919   -4.4982 C   0  0  0  0  0  0  0  0  0  0  0  0
   15.3405   29.1902   -5.0458 N   0  0  0  0  0  0  0  0  0  0  0  0
   16.1296   29.7698   -4.6899 H   0  0  0  0  0  0  0  0  0  0  0  0
   14.7321   29.6152   -5.7764 H   0  0  0  0  0  0  0  0  0  0  0  0
    9.3737   28.3959   -5.5280 C   0  0  0  0  0  0  0  0  0  0  0  0
   10.5965   28.8405   -4.7952 C   0  0  0  0  0  0  0  0  0  0  0  0
   11.7002   28.0163   -4.7270 C   0  0  0  0  0  0  0  0  0  0  0  0
   12.8374   28.4156   -4.0523 C   0  0  0  0  0  0  0  0  0  0  0  0
   12.8449   29.6527   -3.4503 C   0  0  0  0  0  0  0  0  0  0  0  0
   11.7090   30.4406   -3.5499 C   0  0  0  0  0  0  0  0  0  0  0  0
   10.6068   30.0420   -4.2094 N   0  0  0  0  0  0  0  0  0  0  0  0
   13.4736   22.4812    0.6737 S   0  0  0  0  0  0  0  0  0  0  0  0
   13.6138   23.8029    1.3586 O   0  0  0  0  0  0  0  0  0  0  0  0
   14.2869   21.4342    1.3635 O   0  0  0  0  0  0  0  0  0  0  0  0
   11.8218   21.9310    0.6788 N   0  0  0  0  0  0  0  0  0  0  0  0
   11.6805   21.4199    1.5757 H   0  0  0  0  0  0  0  0  0  0  0  0
   11.0016   23.1389    0.7818 C   0  0  0  0  0  0  0  0  0  0  0  0
   10.3181   23.3223   -0.5496 C   0  0  0  0  0  0  0  0  0  0  0  0
   10.4021   22.0196   -1.3064 C   0  0  0  0  0  0  0  0  0  0  0  0
   10.9185   24.4546   -1.3428 C   0  0  0  0  0  0  0  0  0  0  0  0
    8.9783   23.6219   -0.3417 O   0  0  0  0  0  0  0  0  0  0  0  0
    8.9321   24.1475    0.5165 H   0  0  0  0  0  0  0  0  0  0  0  0
 17 18  1  0  0  0
 18 19  2  0  0  0
 19 20  1  0  0  0
 20 21  2  0  0  0
 21 22  1  0  0  0
 22 23  2  0  0  0
 20  8  1  0  0  0
  8  9  2  0  0  0
  9 10  1  0  0  0
 10 11  2  0  0  0
 11 12  1  0  0  0
 12 13  2  0  0  0
 13 14  1  0  0  0
 10  1  1  0  0  0
  1  2  2  0  0  0
  2  3  1  0  0  0
  3  4  2  0  0  0
  4  5  1  0  0  0
  5  6  2  0  0  0
  6  7  1  0  0  0
  3 24  1  0  0  0
 24 25  2  0  0  0
 24 26  2  0  0  0
 24 27  1  0  0  0
 27 29  1  0  0  0
 29 30  1  0  0  0
 30 31  1  0  0  0
 30 32  1  0  0  0
 30 33  1  0  0  0
 23 18  1  0  0  0
 13  8  1  0  0  0
  6  1  1  0  0  0
 14 15  1  0  0  0
 14 16  1  0  0  0
 27 28  1  0  0  0
 33 34  1  0  0  0
M  END
> <minimizedAffinity>
8.61944

> <CNNscore>
0.5849907994

> <CNNaffinity>
7.4927253723

> <CNN_VS>
4.3831753731

> <CNNaffinity_variance>
0.7686887980

$$$$
[H]OC(C([H])([H])[H])(C([H])([H])[H])C([H])([H])N([H])S(=O)(=O)c1c([H])c([H])c(C([H])([H])[H])c(-c2c([H])nc(N([H])[H])c(-c3c([H])c([H])nc(C([H])([H])[H])c3[H])c2[H])c1[H]


 34 36  0  0  0  0  0  0  0  0999 V2000
   14.0217   23.9709   -2.4212 C   0  0  0  0  0  0  0  0  0  0  0  0
   13.8024   25.1917   -3.0676 C   0  0  0  0  0  0  0  0  0  0  0  0
   14.4146   25.5128   -4.2545 C   0  0  0  0  0  0  0  0  0  0  0  0
   15.2737   24.6102   -4.8343 C   0  0  0  0  0  0  0  0  0  0  0  0
   15.4979   23.4038   -4.2061 C   0  0  0  0  0  0  0  0  0  0  0  0
   14.8765   23.0747   -2.9985 C   0  0  0  0  0  0  0  0  0  0  0  0
   15.1713   21.7729   -2.3763 C   0  0  0  0  0  0  0  0  0  0  0  0
   11.5949   22.4017   -0.0398 C   0  0  0  0  0  0  0  0  0  0  0  0
   12.2692   22.7698   -1.1877 C   0  0  0  0  0  0  0  0  0  0  0  0
   13.3572   23.6448   -1.1764 C   0  0  0  0  0  0  0  0  0  0  0  0
   13.7245   24.1260    0.0610 C   0  0  0  0  0  0  0  0  0  0  0  0
   13.0738   23.7731    1.1814 N   0  0  0  0  0  0  0  0  0  0  0  0
   12.0125   22.9184    1.1619 C   0  0  0  0  0  0  0  0  0  0  0  0
   11.3378   22.5665    2.3582 N   0  0  0  0  0  0  0  0  0  0  0  0
   11.9166   22.2251    3.1542 H   0  0  0  0  0  0  0  0  0  0  0  0
   10.3088   22.6207    2.5094 H   0  0  0  0  0  0  0  0  0  0  0  0
    6.7556   21.7326    0.4958 C   0  0  0  0  0  0  0  0  0  0  0  0
    8.1044   21.1721    0.1857 C   0  0  0  0  0  0  0  0  0  0  0  0
    9.2153   21.9891    0.2093 C   0  0  0  0  0  0  0  0  0  0  0  0
   10.4686   21.4832   -0.0756 C   0  0  0  0  0  0  0  0  0  0  0  0
   10.5843   20.1472   -0.3834 C   0  0  0  0  0  0  0  0  0  0  0  0
    9.4358   19.3716   -0.3927 C   0  0  0  0  0  0  0  0  0  0  0  0
    8.2201   19.8744   -0.1136 N   0  0  0  0  0  0  0  0  0  0  0  0
   14.0932   27.0717   -5.0173 S   0  0  0  0  0  0  0  0  0  0  0  0
   12.8182   27.6389   -4.4804 O   0  0  0  0  0  0  0  0  0  0  0  0
   13.9986   26.8491   -6.4921 O   0  0  0  0  0  0  0  0  0  0  0  0
   15.4347   28.1483   -4.7481 N   0  0  0  0  0  0  0  0  0  0  0  0
   15.3520   28.4880   -3.7665 H   0  0  0  0  0  0  0  0  0  0  0  0
   16.6310   27.3054   -4.7725 C   0  0  0  0  0  0  0  0  0  0  0  0
   17.4851   27.7184   -3.6007 C   0  0  0  0  0  0  0  0  0  0  0  0
   16.7990   28.8634   -2.8971 C   0  0  0  0  0  0  0  0  0  0  0  0
   18.8819   28.0952   -4.0233 C   0  0  0  0  0  0  0  0  0  0  0  0
   17.5894   26.6577   -2.7107 O   0  0  0  0  0  0  0  0  0  0  0  0
   17.5678   25.8162   -3.2643 H   0  0  0  0  0  0  0  0  0  0  0  0
 17 18  1  0  0  0
 18 19  2  0  0  0
 19 20  1  0  0  0
 20 21  2  0  0  0
 21 22  1  0  0  0
 22 23  2  0  0  0
 20  8  1  0  0  0
  8  9  2  0  0  0
  9 10  1  0  0  0
 10 11  2  0  0  0
 11 12  1  0  0  0
 12 13  2  0  0  0
 13 14  1  0  0  0
 10  1  1  0  0  0
  1  2  2  0  0  0
  2  3  1  0  0  0
  3  4  2  0  0  0
  4  5  1  0  0  0
  5  6  2  0  0  0
  6  7  1  0  0  0
  3 24  1  0  0  0
 24 25  2  0  0  0
 24 26  2  0  0  0
 24 27  1  0  0  0
 27 29  1  0  0  0
 29 30  1  0  0  0
 30 31  1  0  0  0
 30 32  1  0  0  0
 30 33  1  0  0  0
 23 18  1  0  0  0
 13  8  1  0  0  0
  6  1  1  0  0  0
 14 15  1  0  0  0
 14 16  1  0  0  0
 27 28  1  0  0  0
 33 34  1  0  0  0
M  END
> <minimizedAffinity>
-6.47515

> <CNNscore>
0.5565854907

> <CNNaffinity>
7.4952278137

> <CNN_VS>
4.1717352867

> <CNNaffinity_variance>
0.5078007579

$$$$
[H]OC(C([H])([H])[H])(C([H])([H])[H])C([H])([H])N([H])S(=O)(=O)c1c([H])c([H])c(C([H])([H])[H])c(-c2c([H])nc(N([H])[H])c(-c3c([H])c([H])nc(C([H])([H])[H])c3[H])c2[H])c1[H]


 34 36  0  0  0  0  0  0  0  0999 V2000
   13.9740   26.4848   -4.2266 C   0  0  0  0  0  0  0  0  0  0  0  0
   13.7022   25.5077   -3.2634 C   0  0  0  0  0  0  0  0  0  0  0  0
   14.2725   24.2588   -3.3054 C   0  0  0  0  0  0  0  0  0  0  0  0
   15.1409   23.9495   -4.3247 C   0  0  0  0  0  0  0  0  0  0  0  0
   15.4161   24.9045   -5.2799 C   0  0  0  0  0  0  0  0  0  0  0  0
   14.8371   26.1756   -5.2398 C   0  0  0  0  0  0  0  0  0  0  0  0
   15.1664   27.1431   -6.3001 C   0  0  0  0  0  0  0  0  0  0  0  0
   11.3566   29.1612   -4.3222 C   0  0  0  0  0  0  0  0  0  0  0  0
   12.0020   27.9416   -4.3838 C   0  0  0  0  0  0  0  0  0  0  0  0
   13.3728   27.8006   -4.1587 C   0  0  0  0  0  0  0  0  0  0  0  0
   14.0533   28.9624   -3.8678 C   0  0  0  0  0  0  0  0  0  0  0  0
   13.4331   30.1518   -3.8064 N   0  0  0  0  0  0  0  0  0  0  0  0
   12.0946   30.2810   -4.0276 C   0  0  0  0  0  0  0  0  0  0  0  0
   11.4642   31.5494   -3.9635 N   0  0  0  0  0  0  0  0  0  0  0  0
   11.6321   32.1275   -3.1134 H   0  0  0  0  0  0  0  0  0  0  0  0
   10.8453   31.9537   -4.6971 H   0  0  0  0  0  0  0  0  0  0  0  0
    7.3318   27.3784   -6.5076 C   0  0  0  0  0  0  0  0  0  0  0  0
    7.9697   28.3989   -5.6237 C   0  0  0  0  0  0  0  0  0  0  0  0
    9.3241   28.3445   -5.3695 C   0  0  0  0  0  0  0  0  0  0  0  0
    9.9265   29.2823   -4.5536 C   0  0  0  0  0  0  0  0  0  0  0  0
    9.1461   30.2711   -4.0004 C   0  0  0  0  0  0  0  0  0  0  0  0
    7.7905   30.2791   -4.2889 C   0  0  0  0  0  0  0  0  0  0  0  0
    7.2141   29.3610   -5.0848 N   0  0  0  0  0  0  0  0  0  0  0  0
   13.8860   23.0722   -2.0572 S   0  0  0  0  0  0  0  0  0  0  0  0
   14.5938   21.7881   -2.3501 O   0  0  0  0  0  0  0  0  0  0  0  0
   12.4045   22.8761   -2.0547 O   0  0  0  0  0  0  0  0  0  0  0  0
   14.3211   23.6988   -0.4922 N   0  0  0  0  0  0  0  0  0  0  0  0
   15.3504   23.8594   -0.5109 H   0  0  0  0  0  0  0  0  0  0  0  0
   13.7172   25.0299   -0.4158 C   0  0  0  0  0  0  0  0  0  0  0  0
   12.4142   24.8807    0.3280 C   0  0  0  0  0  0  0  0  0  0  0  0
   12.2551   26.0690    1.2441 C   0  0  0  0  0  0  0  0  0  0  0  0
   12.3461   23.5857    1.0961 C   0  0  0  0  0  0  0  0  0  0  0  0
   11.3633   24.8842   -0.5796 O   0  0  0  0  0  0  0  0  0  0  0  0
   11.7106   24.4539   -1.4217 H   0  0  0  0  0  0  0  0  0  0  0  0
 17 18  1  0  0  0
 18 19  2  0  0  0
 19 20  1  0  0  0
 20 21  2  0  0  0
 21 22  1  0  0  0
 22 23  2  0  0  0
 20  8  1  0  0  0
  8  9  2  0  0  0
  9 10  1  0  0  0
 10 11  2  0  0  0
 11 12  1  0  0  0
 12 13  2  0  0  0
 13 14  1  0  0  0
 10  1  1  0  0  0
  1  2  2  0  0  0
  2  3  1  0  0  0
  3  4  2  0  0  0
  4  5  1  0  0  0
  5  6  2  0  0  0
  6  7  1  0  0  0
  3 24  1  0  0  0
 24 25  2  0  0  0
 24 26  2  0  0  0
 24 27  1  0  0  0
 27 29  1  0  0  0
 29 30  1  0  0  0
 30 31  1  0  0  0
 30 32  1  0  0  0
 30 33  1  0  0  0
 23 18  1  0  0  0
 13  8  1  0  0  0
  6  1  1  0  0  0
 14 15  1  0  0  0
 14 16  1  0  0  0
 27 28  1  0  0  0
 33 34  1  0  0  0
M  END
> <minimizedAffinity>
13.62356

> <CNNscore>
0.5537337065

> <CNNaffinity>
6.9884605408

> <CNN_VS>
3.8697462082

> <CNNaffinity_variance>
0.9432991147

$$$$
[H]OC(C([H])([H])[H])(C([H])([H])[H])C([H])([H])N([H])S(=O)(=O)c1c([H])c([H])c(C([H])([H])[H])c(-c2c([H])nc(N([H])[H])c(-c3c([H])c([H])nc(C([H])([H])[H])c3[H])c2[H])c1[H]


 34 36  0  0  0  0  0  0  0  0999 V2000
   12.4466   22.8644   -1.2758 C   0  0  0  0  0  0  0  0  0  0  0  0
   13.5760   22.3653   -0.6187 C   0  0  0  0  0  0  0  0  0  0  0  0
   13.5936   21.1232   -0.0325 C   0  0  0  0  0  0  0  0  0  0  0  0
   12.4679   20.3368   -0.0883 C   0  0  0  0  0  0  0  0  0  0  0  0
   11.3487   20.8183   -0.7330 C   0  0  0  0  0  0  0  0  0  0  0  0
   11.3280   22.0816   -1.3300 C   0  0  0  0  0  0  0  0  0  0  0  0
   10.0938   22.5377   -1.9916 C   0  0  0  0  0  0  0  0  0  0  0  0
   13.6042   25.7741   -3.3292 C   0  0  0  0  0  0  0  0  0  0  0  0
   13.5360   24.5504   -2.6922 C   0  0  0  0  0  0  0  0  0  0  0  0
   12.4511   24.1716   -1.8990 C   0  0  0  0  0  0  0  0  0  0  0  0
   11.4396   25.1001   -1.7870 C   0  0  0  0  0  0  0  0  0  0  0  0
   11.4987   26.2918   -2.4030 N   0  0  0  0  0  0  0  0  0  0  0  0
   12.5614   26.6540   -3.1753 C   0  0  0  0  0  0  0  0  0  0  0  0
   12.6031   27.9212   -3.8099 N   0  0  0  0  0  0  0  0  0  0  0  0
   11.7763   28.2020   -4.3781 H   0  0  0  0  0  0  0  0  0  0  0  0
   13.3930   28.5978   -3.7560 H   0  0  0  0  0  0  0  0  0  0  0  0
   15.6788   25.7824   -7.7845 C   0  0  0  0  0  0  0  0  0  0  0  0
   15.7404   26.1436   -6.3369 C   0  0  0  0  0  0  0  0  0  0  0  0
   14.6970   25.8153   -5.4969 C   0  0  0  0  0  0  0  0  0  0  0  0
   14.7415   26.1436   -4.1560 C   0  0  0  0  0  0  0  0  0  0  0  0
   15.8488   26.8050   -3.6771 C   0  0  0  0  0  0  0  0  0  0  0  0
   16.8685   27.1106   -4.5645 C   0  0  0  0  0  0  0  0  0  0  0  0
   16.8150   26.7861   -5.8686 N   0  0  0  0  0  0  0  0  0  0  0  0
   15.0530   20.5544    0.7811 S   0  0  0  0  0  0  0  0  0  0  0  0
   15.8962   19.7833   -0.1834 O   0  0  0  0  0  0  0  0  0  0  0  0
   14.6321   19.6937    1.9280 O   0  0  0  0  0  0  0  0  0  0  0  0
   15.9217   21.9072    1.4493 N   0  0  0  0  0  0  0  0  0  0  0  0
   16.6903   21.5105    2.0302 H   0  0  0  0  0  0  0  0  0  0  0  0
   16.5812   22.5549    0.3145 C   0  0  0  0  0  0  0  0  0  0  0  0
   16.5273   24.0411    0.5630 C   0  0  0  0  0  0  0  0  0  0  0  0
   16.4426   24.7399   -0.7716 C   0  0  0  0  0  0  0  0  0  0  0  0
   17.7123   24.5250    1.3589 C   0  0  0  0  0  0  0  0  0  0  0  0
   15.3836   24.3451    1.2894 O   0  0  0  0  0  0  0  0  0  0  0  0
   15.2072   23.5555    1.8897 H   0  0  0  0  0  0  0  0  0  0  0  0
 17 18  1  0  0  0
 18 19  2  0  0  0
 19 20  1  0  0  0
 20 21  2  0  0  0
 21 22  1  0  0  0
 22 23  2  0  0  0
 20  8  1  0  0  0
  8  9  2  0  0  0
  9 10  1  0  0  0
 10 11  2  0  0  0
 11 12  1  0  0  0
 12 13  2  0  0  0
 13 14  1  0  0  0
 10  1  1  0  0  0
  1  2  2  0  0  0
  2  3  1  0  0  0
  3  4  2  0  0  0
  4  5  1  0  0  0
  5  6  2  0  0  0
  6  7  1  0  0  0
  3 24  1  0  0  0
 24 25  2  0  0  0
 24 26  2  0  0  0
 24 27  1  0  0  0
 27 29  1  0  0  0
 29 30  1  0  0  0
 30 31  1  0  0  0
 30 32  1  0  0  0
 30 33  1  0  0  0
 23 18  1  0  0  0
 13  8  1  0  0  0
  6  1  1  0  0  0
 14 15  1  0  0  0
 14 16  1  0  0  0
 27 28  1  0  0  0
 33 34  1  0  0  0
M  END
> <minimizedAffinity>
2.23958

> <CNNscore>
0.5423634648

> <CNNaffinity>
7.5669541359

> <CNN_VS>
4.1040396690

> <CNNaffinity_variance>
0.6487048864

$$$$
[H]OC(C([H])([H])[H])(C([H])([H])[H])C([H])([H])N([H])S(=O)(=O)c1c([H])c([H])c(C([H])([H])[H])c(-c2c([H])nc(N([H])[H])c(-c3c([H])c([H])nc(C([H])([H])[H])c3[H])c2[H])c1[H]


 34 36  0  0  0  0  0  0  0  0999 V2000
   13.7893   26.4307   -3.9549 C   0  0  0  0  0  0  0  0  0  0  0  0
   13.3904   25.4823   -3.0073 C   0  0  0  0  0  0  0  0  0  0  0  0
   13.9499   24.2294   -2.9443 C   0  0  0  0  0  0  0  0  0  0  0  0
   14.9357   23.8868   -3.8385 C   0  0  0  0  0  0  0  0  0  0  0  0
   15.3367   24.8133   -4.7771 C   0  0  0  0  0  0  0  0  0  0  0  0
   14.7691   26.0884   -4.8437 C   0  0  0  0  0  0  0  0  0  0  0  0
   15.2370   27.0242   -5.8801 C   0  0  0  0  0  0  0  0  0  0  0  0
   11.1984   29.1090   -4.3248 C   0  0  0  0  0  0  0  0  0  0  0  0
   11.8357   27.8843   -4.2805 C   0  0  0  0  0  0  0  0  0  0  0  0
   13.1966   27.7514   -3.9979 C   0  0  0  0  0  0  0  0  0  0  0  0
   13.8758   28.9265   -3.7625 C   0  0  0  0  0  0  0  0  0  0  0  0
   13.2633   30.1208   -3.8040 N   0  0  0  0  0  0  0  0  0  0  0  0
   11.9345   30.2421   -4.0809 C   0  0  0  0  0  0  0  0  0  0  0  0
   11.3124   31.5154   -4.1255 N   0  0  0  0  0  0  0  0  0  0  0  0
   11.4549   32.1491   -3.3111 H   0  0  0  0  0  0  0  0  0  0  0  0
   10.7228   31.8723   -4.9063 H   0  0  0  0  0  0  0  0  0  0  0  0
    6.7480   30.5490   -2.8169 C   0  0  0  0  0  0  0  0  0  0  0  0
    7.6126   29.9329   -3.8669 C   0  0  0  0  0  0  0  0  0  0  0  0
    8.9673   29.7901   -3.6515 C   0  0  0  0  0  0  0  0  0  0  0  0
    9.7782   29.2220   -4.6146 C   0  0  0  0  0  0  0  0  0  0  0  0
    9.2051   28.8020   -5.7928 C   0  0  0  0  0  0  0  0  0  0  0  0
    7.8391   28.9693   -5.9571 C   0  0  0  0  0  0  0  0  0  0  0  0
    7.0587   29.5238   -5.0127 N   0  0  0  0  0  0  0  0  0  0  0  0
   13.3998   23.0801   -1.7228 S   0  0  0  0  0  0  0  0  0  0  0  0
   13.8545   21.7036   -2.0889 O   0  0  0  0  0  0  0  0  0  0  0  0
   11.9081   23.1515   -1.6656 O   0  0  0  0  0  0  0  0  0  0  0  0
   13.9944   23.5538   -0.1565 N   0  0  0  0  0  0  0  0  0  0  0  0
   13.5642   22.9038    0.5349 H   0  0  0  0  0  0  0  0  0  0  0  0
   15.4226   23.2336   -0.1608 C   0  0  0  0  0  0  0  0  0  0  0  0
   16.1573   24.4909    0.2298 C   0  0  0  0  0  0  0  0  0  0  0  0
   16.5432   25.2231   -1.0319 C   0  0  0  0  0  0  0  0  0  0  0  0
   17.3649   24.1989    1.0831 C   0  0  0  0  0  0  0  0  0  0  0  0
   15.3114   25.3078    0.9682 O   0  0  0  0  0  0  0  0  0  0  0  0
   14.7027   24.6952    1.4871 H   0  0  0  0  0  0  0  0  0  0  0  0
 17 18  1  0  0  0
 18 19  2  0  0  0
 19 20  1  0  0  0
 20 21  2  0  0  0
 21 22  1  0  0  0
 22 23  2  0  0  0
 20  8  1  0  0  0
  8  9  2  0  0  0
  9 10  1  0  0  0
 10 11  2  0  0  0
 11 12  1  0  0  0
 12 13  2  0  0  0
 13 14  1  0  0  0
 10  1  1  0  0  0
  1  2  2  0  0  0
  2  3  1  0  0  0
  3  4  2  0  0  0
  4  5  1  0  0  0
  5  6  2  0  0  0
  6  7  1  0  0  0
  3 24  1  0  0  0
 24 25  2  0  0  0
 24 26  2  0  0  0
 24 27  1  0  0  0
 27 29  1  0  0  0
 29 30  1  0  0  0
 30 31  1  0  0  0
 30 32  1  0  0  0
 30 33  1  0  0  0
 23 18  1  0  0  0
 13  8  1  0  0  0
  6  1  1  0  0  0
 14 15  1  0  0  0
 14 16  1  0  0  0
 27 28  1  0  0  0
 33 34  1  0  0  0
M  END
> <minimizedAffinity>
12.10157

> <CNNscore>
0.5305314660

> <CNNaffinity>
6.8328413963

> <CNN_VS>
3.6250374317

> <CNNaffinity_variance>
0.4725157320

$$$$
[H]OC(C([H])([H])[H])(C([H])([H])[H])C([H])([H])N([H])S(=O)(=O)c1c([H])c([H])c(C([H])([H])[H])c(-c2c([H])nc(N([H])[H])c(-c3c([H])c([H])nc(C([H])([H])[H])c3[H])c2[H])c1[H]


 34 36  0  0  0  0  0  0  0  0999 V2000
   14.1154   23.6667   -2.3212 C   0  0  0  0  0  0  0  0  0  0  0  0
   13.8065   24.9382   -2.8153 C   0  0  0  0  0  0  0  0  0  0  0  0
   14.2831   25.3914   -4.0212 C   0  0  0  0  0  0  0  0  0  0  0  0
   15.0919   24.5750   -4.7749 C   0  0  0  0  0  0  0  0  0  0  0  0
   15.4034   23.3197   -4.2979 C   0  0  0  0  0  0  0  0  0  0  0  0
   14.9200   22.8562   -3.0715 C   0  0  0  0  0  0  0  0  0  0  0  0
   15.3028   21.5086   -2.6173 C   0  0  0  0  0  0  0  0  0  0  0  0
   11.7219   23.1269    0.5077 C   0  0  0  0  0  0  0  0  0  0  0  0
   12.2925   23.5449   -0.6787 C   0  0  0  0  0  0  0  0  0  0  0  0
   13.5930   23.2013   -1.0532 C   0  0  0  0  0  0  0  0  0  0  0  0
   14.2831   22.4111   -0.1603 C   0  0  0  0  0  0  0  0  0  0  0  0
   13.7353   22.0010    0.9950 N   0  0  0  0  0  0  0  0  0  0  0  0
   12.4652   22.3410    1.3534 C   0  0  0  0  0  0  0  0  0  0  0  0
   11.9119   21.9007    2.5823 N   0  0  0  0  0  0  0  0  0  0  0  0
   11.9661   20.8827    2.7968 H   0  0  0  0  0  0  0  0  0  0  0  0
   11.4542   22.5108    3.2914 H   0  0  0  0  0  0  0  0  0  0  0  0
    8.7631   25.7795    3.3995 C   0  0  0  0  0  0  0  0  0  0  0  0
    8.9310   24.7952    2.2893 C   0  0  0  0  0  0  0  0  0  0  0  0
   10.1938   24.4017    1.8987 C   0  0  0  0  0  0  0  0  0  0  0  0
   10.3630   23.4919    0.8732 C   0  0  0  0  0  0  0  0  0  0  0  0
    9.2447   22.9875    0.2502 C   0  0  0  0  0  0  0  0  0  0  0  0
    7.9999   23.4168    0.6825 C   0  0  0  0  0  0  0  0  0  0  0  0
    7.8464   24.3032    1.6822 N   0  0  0  0  0  0  0  0  0  0  0  0
   13.8542   27.0078   -4.5859 S   0  0  0  0  0  0  0  0  0  0  0  0
   12.5862   27.4485   -3.9276 O   0  0  0  0  0  0  0  0  0  0  0  0
   13.6912   26.9461   -6.0701 O   0  0  0  0  0  0  0  0  0  0  0  0
   15.1601   28.1124   -4.2608 N   0  0  0  0  0  0  0  0  0  0  0  0
   15.1754   28.2609   -3.2296 H   0  0  0  0  0  0  0  0  0  0  0  0
   16.3877   27.3776   -4.5700 C   0  0  0  0  0  0  0  0  0  0  0  0
   17.3682   27.6720   -3.4631 C   0  0  0  0  0  0  0  0  0  0  0  0
   16.7885   28.7633   -2.5972 C   0  0  0  0  0  0  0  0  0  0  0  0
   18.7237   28.0596   -3.9961 C   0  0  0  0  0  0  0  0  0  0  0  0
   17.5352   26.5362   -2.6820 O   0  0  0  0  0  0  0  0  0  0  0  0
   17.4346   25.7466   -3.2995 H   0  0  0  0  0  0  0  0  0  0  0  0
 17 18  1  0  0  0
 18 19  2  0  0  0
 19 20  1  0  0  0
 20 21  2  0  0  0
 21 22  1  0  0  0
 22 23  2  0  0  0
 20  8  1  0  0  0
  8  9  2  0  0  0
  9 10  1  0  0  0
 10 11  2  0  0  0
 11 12  1  0  0  0
 12 13  2  0  0  0
 13 14  1  0  0  0
 10  1  1  0  0  0
  1  2  2  0  0  0
  2  3  1  0  0  0
  3  4  2  0  0  0
  4  5  1  0  0  0
  5  6  2  0  0  0
  6  7  1  0  0  0
  3 24  1  0  0  0
 24 25  2  0  0  0
 24 26  2  0  0  0
 24 27  1  0  0  0
 27 29  1  0  0  0
 29 30  1  0  0  0
 30 31  1  0  0  0
 30 32  1  0  0  0
 30 33  1  0  0  0
 23 18  1  0  0  0
 13  8  1  0  0  0
  6  1  1  0  0  0
 14 15  1  0  0  0
 14 16  1  0  0  0
 27 28  1  0  0  0
 33 34  1  0  0  0
M  END
> <minimizedAffinity>
-6.10909

> <CNNscore>
0.5001837015

> <CNNaffinity>
7.5124106407

> <CNN_VS>
3.7575852871

> <CNNaffinity_variance>
0.5413805842

$$$$
[H]OC(C([H])([H])[H])(C([H])([H])[H])C([H])([H])N([H])S(=O)(=O)c1c([H])c([H])c(C([H])([H])[H])c(-c2c([H])nc(N([H])[H])c(-c3c([H])c([H])nc(C([H])([H])[H])c3[H])c2[H])c1[H]


 34 36  0  0  0  0  0  0  0  0999 V2000
   11.8992   23.7395   -0.1298 C   0  0  0  0  0  0  0  0  0  0  0  0
   10.7640   22.9530    0.0922 C   0  0  0  0  0  0  0  0  0  0  0  0
    9.8361   23.2615    1.0568 C   0  0  0  0  0  0  0  0  0  0  0  0
   10.0208   24.3789    1.8354 C   0  0  0  0  0  0  0  0  0  0  0  0
   11.1361   25.1614    1.6259 C   0  0  0  0  0  0  0  0  0  0  0  0
   12.0817   24.8498    0.6454 C   0  0  0  0  0  0  0  0  0  0  0  0
   13.2563   25.7234    0.4841 C   0  0  0  0  0  0  0  0  0  0  0  0
   14.3363   24.1820   -2.9383 C   0  0  0  0  0  0  0  0  0  0  0  0
   13.4050   24.4223   -1.9469 C   0  0  0  0  0  0  0  0  0  0  0  0
   12.8602   23.4053   -1.1603 C   0  0  0  0  0  0  0  0  0  0  0  0
   13.3107   22.1324   -1.4331 C   0  0  0  0  0  0  0  0  0  0  0  0
   14.2156   21.8907   -2.3953 N   0  0  0  0  0  0  0  0  0  0  0  0
   14.7424   22.8890   -3.1589 C   0  0  0  0  0  0  0  0  0  0  0  0
   15.6917   22.6071   -4.1736 N   0  0  0  0  0  0  0  0  0  0  0  0
   16.5199   22.0322   -3.9111 H   0  0  0  0  0  0  0  0  0  0  0  0
   15.6312   22.9270   -5.1628 H   0  0  0  0  0  0  0  0  0  0  0  0
   17.4461   27.9773   -3.2175 C   0  0  0  0  0  0  0  0  0  0  0  0
   16.4195   27.1061   -3.8632 C   0  0  0  0  0  0  0  0  0  0  0  0
   15.8455   26.0715   -3.1547 C   0  0  0  0  0  0  0  0  0  0  0  0
   14.8947   25.2584   -3.7402 C   0  0  0  0  0  0  0  0  0  0  0  0
   14.5334   25.5030   -5.0450 C   0  0  0  0  0  0  0  0  0  0  0  0
   15.1415   26.5557   -5.7105 C   0  0  0  0  0  0  0  0  0  0  0  0
   16.0662   27.3415   -5.1308 N   0  0  0  0  0  0  0  0  0  0  0  0
    8.4253   22.2255    1.2844 S   0  0  0  0  0  0  0  0  0  0  0  0
    7.4075   22.9401    2.1146 O   0  0  0  0  0  0  0  0  0  0  0  0
    8.8810   20.9731    1.9606 O   0  0  0  0  0  0  0  0  0  0  0  0
    7.7765   21.7633   -0.2637 N   0  0  0  0  0  0  0  0  0  0  0  0
    8.5916   21.5953   -0.8905 H   0  0  0  0  0  0  0  0  0  0  0  0
    7.1605   20.4513   -0.0601 C   0  0  0  0  0  0  0  0  0  0  0  0
    7.7569   19.5206   -1.0855 C   0  0  0  0  0  0  0  0  0  0  0  0
    8.9452   20.2078   -1.7119 C   0  0  0  0  0  0  0  0  0  0  0  0
    6.7506   19.1094   -2.1296 C   0  0  0  0  0  0  0  0  0  0  0  0
    8.2013   18.3657   -0.4556 O   0  0  0  0  0  0  0  0  0  0  0  0
    7.5772   18.2033    0.3184 H   0  0  0  0  0  0  0  0  0  0  0  0
 17 18  1  0  0  0
 18 19  2  0  0  0
 19 20  1  0  0  0
 20 21  2  0  0  0
 21 22  1  0  0  0
 22 23  2  0  0  0
 20  8  1  0  0  0
  8  9  2  0  0  0
  9 10  1  0  0  0
 10 11  2  0  0  0
 11 12  1  0  0  0
 12 13  2  0  0  0
 13 14  1  0  0  0
 10  1  1  0  0  0
  1  2  2  0  0  0
  2  3  1  0  0  0
  3  4  2  0  0  0
  4  5  1  0  0  0
  5  6  2  0  0  0
  6  7  1  0  0  0
  3 24  1  0  0  0
 24 25  2  0  0  0
 24 26  2  0  0  0
 24 27  1  0  0  0
 27 29  1  0  0  0
 29 30  1  0  0  0
 30 31  1  0  0  0
 30 32  1  0  0  0
 30 33  1  0  0  0
 23 18  1  0  0  0
 13  8  1  0  0  0
  6  1  1  0  0  0
 14 15  1  0  0  0
 14 16  1  0  0  0
 27 28  1  0  0  0
 33 34  1  0  0  0
M  END
> <minimizedAffinity>
-7.98636

> <CNNscore>
0.4549225867

> <CNNaffinity>
7.3892507553

> <CNN_VS>
3.3615369797

> <CNNaffinity_variance>
0.1854602993

$$$$
[H]OC(C([H])([H])[H])(C([H])([H])[H])C([H])([H])N([H])S(=O)(=O)c1c([H])c([H])c(C([H])([H])[H])c(-c2c([H])nc(N([H])[H])c(-c3c([H])c([H])nc(C([H])([H])[H])c3[H])c2[H])c1[H]


 34 36  0  0  0  0  0  0  0  0999 V2000
   13.2100   24.4745   -1.8713 C   0  0  0  0  0  0  0  0  0  0  0  0
   12.6481   23.2175   -1.6254 C   0  0  0  0  0  0  0  0  0  0  0  0
   11.8021   22.9872   -0.5680 C   0  0  0  0  0  0  0  0  0  0  0  0
   11.4915   24.0209    0.2828 C   0  0  0  0  0  0  0  0  0  0  0  0
   12.0398   25.2642    0.0505 C   0  0  0  0  0  0  0  0  0  0  0  0
   12.9008   25.5011   -1.0243 C   0  0  0  0  0  0  0  0  0  0  0  0
   13.4601   26.8513   -1.2059 C   0  0  0  0  0  0  0  0  0  0  0  0
   15.7679   26.1181   -4.0574 C   0  0  0  0  0  0  0  0  0  0  0  0
   14.8947   25.8421   -3.0234 C   0  0  0  0  0  0  0  0  0  0  0  0
   14.0900   24.7012   -2.9989 C   0  0  0  0  0  0  0  0  0  0  0  0
   14.2189   23.8558   -4.0789 C   0  0  0  0  0  0  0  0  0  0  0  0
   15.0653   24.1173   -5.0880 N   0  0  0  0  0  0  0  0  0  0  0  0
   15.8472   25.2334   -5.1044 C   0  0  0  0  0  0  0  0  0  0  0  0
   16.7282   25.4904   -6.1851 N   0  0  0  0  0  0  0  0  0  0  0  0
   17.3791   24.7274   -6.4669 H   0  0  0  0  0  0  0  0  0  0  0  0
   16.7802   26.3805   -6.7232 H   0  0  0  0  0  0  0  0  0  0  0  0
   20.2784   28.0387   -3.7102 C   0  0  0  0  0  0  0  0  0  0  0  0
   18.8087   28.2327   -3.8898 C   0  0  0  0  0  0  0  0  0  0  0  0
   17.9623   27.1439   -3.8922 C   0  0  0  0  0  0  0  0  0  0  0  0
   16.6010   27.3095   -4.0574 C   0  0  0  0  0  0  0  0  0  0  0  0
   16.1083   28.5839   -4.2195 C   0  0  0  0  0  0  0  0  0  0  0  0
   17.0031   29.6423   -4.2091 C   0  0  0  0  0  0  0  0  0  0  0  0
   18.3270   29.4697   -4.0474 N   0  0  0  0  0  0  0  0  0  0  0  0
   11.1275   21.3759   -0.3152 S   0  0  0  0  0  0  0  0  0  0  0  0
   10.0516   21.1196   -1.3213 O   0  0  0  0  0  0  0  0  0  0  0  0
   10.5817   21.3209    1.0750 O   0  0  0  0  0  0  0  0  0  0  0  0
   12.3926   20.1840   -0.4150 N   0  0  0  0  0  0  0  0  0  0  0  0
   12.2142   19.6315   -1.2801 H   0  0  0  0  0  0  0  0  0  0  0  0
   13.6234   20.9325   -0.6739 C   0  0  0  0  0  0  0  0  0  0  0  0
   14.5213   20.7309    0.5204 C   0  0  0  0  0  0  0  0  0  0  0  0
   13.7228   20.0433    1.6003 C   0  0  0  0  0  0  0  0  0  0  0  0
   15.1049   22.0294    1.0154 C   0  0  0  0  0  0  0  0  0  0  0  0
   15.5799   19.9050    0.1661 O   0  0  0  0  0  0  0  0  0  0  0  0
   15.7810   20.0966   -0.8023 H   0  0  0  0  0  0  0  0  0  0  0  0
 17 18  1  0  0  0
 18 19  2  0  0  0
 19 20  1  0  0  0
 20 21  2  0  0  0
 21 22  1  0  0  0
 22 23  2  0  0  0
 20  8  1  0  0  0
  8  9  2  0  0  0
  9 10  1  0  0  0
 10 11  2  0  0  0
 11 12  1  0  0  0
 12 13  2  0  0  0
 13 14  1  0  0  0
 10  1  1  0  0  0
  1  2  2  0  0  0
  2  3  1  0  0  0
  3  4  2  0  0  0
  4  5  1  0  0  0
  5  6  2  0  0  0
  6  7  1  0  0  0
  3 24  1  0  0  0
 24 25  2  0  0  0
 24 26  2  0  0  0
 24 27  1  0  0  0
 27 29  1  0  0  0
 29 30  1  0  0  0
 30 31  1  0  0  0
 30 32  1  0  0  0
 30 33  1  0  0  0
 23 18  1  0  0  0
 13  8  1  0  0  0
  6  1  1  0  0  0
 14 15  1  0  0  0
 14 16  1  0  0  0
 27 28  1  0  0  0
 33 34  1  0  0  0
M  END
> <minimizedAffinity>
6.49865

> <CNNscore>
0.4427856505

> <CNNaffinity>
7.4031691551

> <CNN_VS>
3.2780170441

> <CNNaffinity_variance>
1.4346022606

$$$$
[H]OC(C([H])([H])[H])(C([H])([H])[H])C([H])([H])N([H])S(=O)(=O)c1c([H])c([H])c(C([H])([H])[H])c(-c2c([H])nc(N([H])[H])c(-c3c([H])c([H])nc(C([H])([H])[H])c3[H])c2[H])c1[H]


 34 36  0  0  0  0  0  0  0  0999 V2000
   11.7049   20.8919   -0.7883 C   0  0  0  0  0  0  0  0  0  0  0  0
   11.1096   21.7826    0.1109 C   0  0  0  0  0  0  0  0  0  0  0  0
   10.0418   21.4253    0.8977 C   0  0  0  0  0  0  0  0  0  0  0  0
    9.5343   20.1515    0.8053 C   0  0  0  0  0  0  0  0  0  0  0  0
   10.1129   19.2650   -0.0777 C   0  0  0  0  0  0  0  0  0  0  0  0
   11.1989   19.6259   -0.8795 C   0  0  0  0  0  0  0  0  0  0  0  0
   11.7600   18.6318   -1.8099 C   0  0  0  0  0  0  0  0  0  0  0  0
   14.0427   23.0680   -2.7433 C   0  0  0  0  0  0  0  0  0  0  0  0
   12.9817   22.6185   -1.9817 C   0  0  0  0  0  0  0  0  0  0  0  0
   12.8383   21.2829   -1.6006 C   0  0  0  0  0  0  0  0  0  0  0  0
   13.8285   20.4284   -2.0331 C   0  0  0  0  0  0  0  0  0  0  0  0
   14.8628   20.8577   -2.7740 N   0  0  0  0  0  0  0  0  0  0  0  0
   14.9954   22.1632   -3.1420 C   0  0  0  0  0  0  0  0  0  0  0  0
   16.0935   22.5904   -3.9305 N   0  0  0  0  0  0  0  0  0  0  0  0
   17.0483   22.3250   -3.6094 H   0  0  0  0  0  0  0  0  0  0  0  0
   16.0264   23.1490   -4.8069 H   0  0  0  0  0  0  0  0  0  0  0  0
   16.3249   27.3660   -2.0560 C   0  0  0  0  0  0  0  0  0  0  0  0
   15.2993   26.5560   -2.7784 C   0  0  0  0  0  0  0  0  0  0  0  0
   15.1195   25.2258   -2.4616 C   0  0  0  0  0  0  0  0  0  0  0  0
   14.1743   24.4654   -3.1222 C   0  0  0  0  0  0  0  0  0  0  0  0
   13.4168   25.0638   -4.1026 C   0  0  0  0  0  0  0  0  0  0  0  0
   13.6386   26.4033   -4.3807 C   0  0  0  0  0  0  0  0  0  0  0  0
   14.5616   27.1346   -3.7313 N   0  0  0  0  0  0  0  0  0  0  0  0
    9.3377   22.5992    2.0120 S   0  0  0  0  0  0  0  0  0  0  0  0
    8.5964   21.8810    3.0938 O   0  0  0  0  0  0  0  0  0  0  0  0
    8.4182   23.4794    1.2291 O   0  0  0  0  0  0  0  0  0  0  0  0
   10.5894   23.6188    2.6637 N   0  0  0  0  0  0  0  0  0  0  0  0
   10.1783   24.1059    3.4879 H   0  0  0  0  0  0  0  0  0  0  0  0
   11.5987   22.7093    3.2082 C   0  0  0  0  0  0  0  0  0  0  0  0
   10.9700   21.3404    3.2717 C   0  0  0  0  0  0  0  0  0  0  0  0
   11.9733   20.3879    3.8740 C   0  0  0  0  0  0  0  0  0  0  0  0
   10.5106   20.8653    1.9171 C   0  0  0  0  0  0  0  0  0  0  0  0
    9.8560   21.3835    4.0995 O   0  0  0  0  0  0  0  0  0  0  0  0
    9.4575   22.3029    3.9958 H   0  0  0  0  0  0  0  0  0  0  0  0
 17 18  1  0  0  0
 18 19  2  0  0  0
 19 20  1  0  0  0
 20 21  2  0  0  0
 21 22  1  0  0  0
 22 23  2  0  0  0
 20  8  1  0  0  0
  8  9  2  0  0  0
  9 10  1  0  0  0
 10 11  2  0  0  0
 11 12  1  0  0  0
 12 13  2  0  0  0
 13 14  1  0  0  0
 10  1  1  0  0  0
  1  2  2  0  0  0
  2  3  1  0  0  0
  3  4  2  0  0  0
  4  5  1  0  0  0
  5  6  2  0  0  0
  6  7  1  0  0  0
  3 24  1  0  0  0
 24 25  2  0  0  0
 24 26  2  0  0  0
 24 27  1  0  0  0
 27 29  1  0  0  0
 29 30  1  0  0  0
 30 31  1  0  0  0
 30 32  1  0  0  0
 30 33  1  0  0  0
 23 18  1  0  0  0
 13  8  1  0  0  0
  6  1  1  0  0  0
 14 15  1  0  0  0
 14 16  1  0  0  0
 27 28  1  0  0  0
 33 34  1  0  0  0
M  END
> <minimizedAffinity>
8.67159

> <CNNscore>
0.4156768024

> <CNNaffinity>
6.7504949570

> <CNN_VS>
2.8060240746

> <CNNaffinity_variance>
1.3549191952

$$$$
[H]Oc1c([H])c([H])c([H])c(C2([H])C([H])([H])C([H])([H])N([C@@]3([H])C([H])([H])C([H])([H])C([H])([H])C([H])([H])[C@@]3([H])O[H])C([H])([H])C2([H])[H])c1[H]


 22 24  0  0  0  0  0  0  0  0999 V2000
   13.7971   23.1700   -0.1156 N   0  0  0  0  0  0  0  0  0  0  0  0
   14.9504   23.8542    0.2535 C   0  0  0  0  0  0  0  0  0  0  0  0
   15.4928   24.9069   -0.6396 C   0  0  0  0  0  0  0  0  0  0  0  0
   15.3230   24.5497   -2.0778 C   0  0  0  0  0  0  0  0  0  0  0  0
   13.8502   24.2900   -2.3043 C   0  0  0  0  0  0  0  0  0  0  0  0
   13.3793   23.1257   -1.4476 C   0  0  0  0  0  0  0  0  0  0  0  0
   14.0692   20.8595    1.4847 O   0  0  0  0  0  0  0  0  0  0  0  0
   12.8364   21.4492    1.3669 C   0  0  0  0  0  0  0  0  0  0  0  0
   11.8911   20.6112    0.5046 C   0  0  0  0  0  0  0  0  0  0  0  0
   10.4910   20.9976    0.8864 C   0  0  0  0  0  0  0  0  0  0  0  0
   10.4614   22.4528    1.3590 C   0  0  0  0  0  0  0  0  0  0  0  0
   11.4334   23.2132    0.4804 C   0  0  0  0  0  0  0  0  0  0  0  0
   12.8465   22.8647    0.8935 C   0  0  0  0  0  0  0  0  0  0  0  0
   14.3980   20.9019    2.4362 H   0  0  0  0  0  0  0  0  0  0  0  0
   15.7134   25.6583   -2.9786 C   0  0  0  0  0  0  0  0  0  0  0  0
   16.7460   26.4981   -2.6510 C   0  0  0  0  0  0  0  0  0  0  0  0
   17.0903   27.5210   -3.5040 C   0  0  0  0  0  0  0  0  0  0  0  0
   16.3930   27.6987   -4.6894 C   0  0  0  0  0  0  0  0  0  0  0  0
   15.3379   26.8517   -5.0384 C   0  0  0  0  0  0  0  0  0  0  0  0
   14.6801   27.0777   -6.2330 O   0  0  0  0  0  0  0  0  0  0  0  0
   15.0242   25.8380   -4.1554 C   0  0  0  0  0  0  0  0  0  0  0  0
   15.0202   26.6152   -7.0801 H   0  0  0  0  0  0  0  0  0  0  0  0
  7  8  1  0  0  0
  8  9  1  0  0  0
  9 10  1  0  0  0
 10 11  1  0  0  0
 11 12  1  0  0  0
 12 13  1  0  0  0
 13  1  1  0  0  0
  1  2  1  0  0  0
  2  3  1  0  0  0
  3  4  1  0  0  0
  4  5  1  0  0  0
  5  6  1  0  0  0
  4 15  1  0  0  0
 15 16  2  0  0  0
 16 17  1  0  0  0
 17 18  2  0  0  0
 18 19  1  0  0  0
 19 20  1  0  0  0
 19 21  2  0  0  0
 13  8  1  0  0  0
  6  1  1  0  0  0
 21 15  1  0  0  0
  7 14  1  0  0  0
 20 22  1  0  0  0
M  END
> <minimizedAffinity>
-9.21410

> <CNNscore>
0.7709288001

> <CNNaffinity>
6.7519516945

> <CNN_VS>
5.2052741051

> <CNNaffinity_variance>
0.3670412898

$$$$
[H]Oc1c([H])c([H])c([H])c(C2([H])C([H])([H])C([H])([H])N([C@@]3([H])C([H])([H])C([H])([H])C([H])([H])C([H])([H])[C@@]3([H])O[H])C([H])([H])C2([H])[H])c1[H]


 22 24  0  0  0  0  0  0  0  0999 V2000
   12.5424   23.7802   -1.1282 N   0  0  0  0  0  0  0  0  0  0  0  0
   12.1261   25.0514   -1.5090 C   0  0  0  0  0  0  0  0  0  0  0  0
   12.7423   25.6978   -2.6933 C   0  0  0  0  0  0  0  0  0  0  0  0
   14.1950   25.3772   -2.8016 C   0  0  0  0  0  0  0  0  0  0  0  0
   14.3210   23.8701   -2.8241 C   0  0  0  0  0  0  0  0  0  0  0  0
   13.7787   23.2735   -1.5352 C   0  0  0  0  0  0  0  0  0  0  0  0
   11.1562   24.2175    1.2927 O   0  0  0  0  0  0  0  0  0  0  0  0
   11.2159   22.9479    0.7770 C   0  0  0  0  0  0  0  0  0  0  0  0
   12.1459   22.0506    1.5952 C   0  0  0  0  0  0  0  0  0  0  0  0
   11.7254   20.6322    1.3370 C   0  0  0  0  0  0  0  0  0  0  0  0
   11.1245   20.5127   -0.0654 C   0  0  0  0  0  0  0  0  0  0  0  0
   11.9355   21.4246   -0.9630 C   0  0  0  0  0  0  0  0  0  0  0  0
   11.5609   22.8614   -0.6726 C   0  0  0  0  0  0  0  0  0  0  0  0
   10.2061   24.5522    1.3137 H   0  0  0  0  0  0  0  0  0  0  0  0
   14.7861   25.8826   -4.0618 C   0  0  0  0  0  0  0  0  0  0  0  0
   15.0447   25.0327   -5.1057 C   0  0  0  0  0  0  0  0  0  0  0  0
   15.5942   25.5256   -6.2665 C   0  0  0  0  0  0  0  0  0  0  0  0
   15.8841   26.8773   -6.3763 C   0  0  0  0  0  0  0  0  0  0  0  0
   15.6268   27.7570   -5.3217 C   0  0  0  0  0  0  0  0  0  0  0  0
   15.9366   29.0938   -5.4895 O   0  0  0  0  0  0  0  0  0  0  0  0
   15.0752   27.2226   -4.1747 C   0  0  0  0  0  0  0  0  0  0  0  0
   15.2263   29.7215   -5.8748 H   0  0  0  0  0  0  0  0  0  0  0  0
  7  8  1  0  0  0
  8  9  1  0  0  0
  9 10  1  0  0  0
 10 11  1  0  0  0
 11 12  1  0  0  0
 12 13  1  0  0  0
 13  1  1  0  0  0
  1  2  1  0  0  0
  2  3  1  0  0  0
  3  4  1  0  0  0
  4  5  1  0  0  0
  5  6  1  0  0  0
  4 15  1  0  0  0
 15 16  2  0  0  0
 16 17  1  0  0  0
 17 18  2  0  0  0
 18 19  1  0  0  0
 19 20  1  0  0  0
 19 21  2  0  0  0
 13  8  1  0  0  0
  6  1  1  0  0  0
 21 15  1  0  0  0
  7 14  1  0  0  0
 20 22  1  0  0  0
M  END
> <minimizedAffinity>
-9.19607

> <CNNscore>
0.7415670156

> <CNNaffinity>
6.5283098221

> <CNN_VS>
4.8411793709

> <CNNaffinity_variance>
0.1674713194

$$$$
[H]Oc1c([H])c([H])c([H])c(C2([H])C([H])([H])C([H])([H])N([C@@]3([H])C([H])([H])C([H])([H])C([H])([H])C([H])([H])[C@@]3([H])O[H])C([H])([H])C2([H])[H])c1[H]


 22 24  0  0  0  0  0  0  0  0999 V2000
   13.0417   24.0458   -0.1208 N   0  0  0  0  0  0  0  0  0  0  0  0
   12.3081   24.9892   -0.8322 C   0  0  0  0  0  0  0  0  0  0  0  0
   12.7910   25.4405   -2.1601 C   0  0  0  0  0  0  0  0  0  0  0  0
   14.2789   25.5375   -2.2007 C   0  0  0  0  0  0  0  0  0  0  0  0
   14.8273   24.1843   -1.8061 C   0  0  0  0  0  0  0  0  0  0  0  0
   14.3943   23.8284   -0.3929 C   0  0  0  0  0  0  0  0  0  0  0  0
   14.3673   21.7569    0.8679 O   0  0  0  0  0  0  0  0  0  0  0  0
   13.0091   21.7137    0.6809 C   0  0  0  0  0  0  0  0  0  0  0  0
   12.6333   20.8461   -0.5213 C   0  0  0  0  0  0  0  0  0  0  0  0
   11.2134   20.4024   -0.3148 C   0  0  0  0  0  0  0  0  0  0  0  0
   10.4508   21.4529    0.4955 C   0  0  0  0  0  0  0  0  0  0  0  0
   10.9480   22.8053    0.0281 C   0  0  0  0  0  0  0  0  0  0  0  0
   12.3331   23.0413    0.5892 C   0  0  0  0  0  0  0  0  0  0  0  0
   14.5991   21.6507    1.8427 H   0  0  0  0  0  0  0  0  0  0  0  0
   14.7826   25.8315   -3.5619 C   0  0  0  0  0  0  0  0  0  0  0  0
   14.9526   24.8272   -4.4791 C   0  0  0  0  0  0  0  0  0  0  0  0
   15.4219   25.1249   -5.7375 C   0  0  0  0  0  0  0  0  0  0  0  0
   15.7207   26.4369   -6.0729 C   0  0  0  0  0  0  0  0  0  0  0  0
   15.5531   27.4724   -5.1498 C   0  0  0  0  0  0  0  0  0  0  0  0
   15.8674   28.7603   -5.5415 O   0  0  0  0  0  0  0  0  0  0  0  0
   15.0802   27.1315   -3.8985 C   0  0  0  0  0  0  0  0  0  0  0  0
   15.1390   29.3394   -5.9673 H   0  0  0  0  0  0  0  0  0  0  0  0
  7  8  1  0  0  0
  8  9  1  0  0  0
  9 10  1  0  0  0
 10 11  1  0  0  0
 11 12  1  0  0  0
 12 13  1  0  0  0
 13  1  1  0  0  0
  1  2  1  0  0  0
  2  3  1  0  0  0
  3  4  1  0  0  0
  4  5  1  0  0  0
  5  6  1  0  0  0
  4 15  1  0  0  0
 15 16  2  0  0  0
 16 17  1  0  0  0
 17 18  2  0  0  0
 18 19  1  0  0  0
 19 20  1  0  0  0
 19 21  2  0  0  0
 13  8  1  0  0  0
  6  1  1  0  0  0
 21 15  1  0  0  0
  7 14  1  0  0  0
 20 22  1  0  0  0
M  END
> <minimizedAffinity>
-8.81083

> <CNNscore>
0.7147210240

> <CNNaffinity>
6.8247098923

> <CNN_VS>
4.8777637482

> <CNNaffinity_variance>
0.2661532760

$$$$
[H]Oc1c([H])c([H])c([H])c(C2([H])C([H])([H])C([H])([H])N([C@@]3([H])C([H])([H])C([H])([H])C([H])([H])C([H])([H])[C@@]3([H])O[H])C([H])([H])C2([H])[H])c1[H]


 22 24  0  0  0  0  0  0  0  0999 V2000
   11.8087   23.2922    0.8070 N   0  0  0  0  0  0  0  0  0  0  0  0
   11.5937   24.5703    0.3027 C   0  0  0  0  0  0  0  0  0  0  0  0
   12.2194   24.9631   -0.9836 C   0  0  0  0  0  0  0  0  0  0  0  0
   13.5802   24.3718   -1.1367 C   0  0  0  0  0  0  0  0  0  0  0  0
   13.4374   22.8734   -0.9873 C   0  0  0  0  0  0  0  0  0  0  0  0
   12.9011   22.5270    0.3924 C   0  0  0  0  0  0  0  0  0  0  0  0
    9.7986   22.0540   -0.7422 O   0  0  0  0  0  0  0  0  0  0  0  0
    9.5256   22.3933    0.5585 C   0  0  0  0  0  0  0  0  0  0  0  0
    8.5762   23.5895    0.6413 C   0  0  0  0  0  0  0  0  0  0  0  0
    7.9085   23.5270    1.9852 C   0  0  0  0  0  0  0  0  0  0  0  0
    8.8389   22.8585    2.9998 C   0  0  0  0  0  0  0  0  0  0  0  0
   10.2422   23.3274    2.6751 C   0  0  0  0  0  0  0  0  0  0  0  0
   10.7197   22.6227    1.4243 C   0  0  0  0  0  0  0  0  0  0  0  0
    9.7581   21.0553   -0.8688 H   0  0  0  0  0  0  0  0  0  0  0  0
   14.1506   24.6232   -2.4800 C   0  0  0  0  0  0  0  0  0  0  0  0
   15.1163   23.7995   -2.9975 C   0  0  0  0  0  0  0  0  0  0  0  0
   15.6310   24.0533   -4.2477 C   0  0  0  0  0  0  0  0  0  0  0  0
   15.1724   25.1392   -4.9782 C   0  0  0  0  0  0  0  0  0  0  0  0
   14.1887   25.9886   -4.4654 C   0  0  0  0  0  0  0  0  0  0  0  0
   13.7709   27.0548   -5.2398 O   0  0  0  0  0  0  0  0  0  0  0  0
   13.6985   25.6992   -3.2078 C   0  0  0  0  0  0  0  0  0  0  0  0
   12.9864   26.9214   -5.8831 H   0  0  0  0  0  0  0  0  0  0  0  0
  7  8  1  0  0  0
  8  9  1  0  0  0
  9 10  1  0  0  0
 10 11  1  0  0  0
 11 12  1  0  0  0
 12 13  1  0  0  0
 13  1  1  0  0  0
  1  2  1  0  0  0
  2  3  1  0  0  0
  3  4  1  0  0  0
  4  5  1  0  0  0
  5  6  1  0  0  0
  4 15  1  0  0  0
 15 16  2  0  0  0
 16 17  1  0  0  0
 17 18  2  0  0  0
 18 19  1  0  0  0
 19 20  1  0  0  0
 19 21  2  0  0  0
 13  8  1  0  0  0
  6  1  1  0  0  0
 21 15  1  0  0  0
  7 14  1  0  0  0
 20 22  1  0  0  0
M  END
> <minimizedAffinity>
-8.63787

> <CNNscore>
0.6245958209

> <CNNaffinity>
6.2535195351

> <CNN_VS>
3.9059221745

> <CNNaffinity_variance>
0.2075082958

$$$$
[H]Oc1c([H])c([H])c([H])c(C2([H])C([H])([H])C([H])([H])N([C@@]3([H])C([H])([H])C([H])([H])C([H])([H])C([H])([H])[C@@]3([H])O[H])C([H])([H])C2([H])[H])c1[H]


 22 24  0  0  0  0  0  0  0  0999 V2000
   11.2286   23.1643    0.8048 N   0  0  0  0  0  0  0  0  0  0  0  0
   12.5339   22.6865    0.7568 C   0  0  0  0  0  0  0  0  0  0  0  0
   13.4840   23.2546   -0.2304 C   0  0  0  0  0  0  0  0  0  0  0  0
   12.8098   23.5748   -1.5218 C   0  0  0  0  0  0  0  0  0  0  0  0
   11.6615   24.5081   -1.2087 C   0  0  0  0  0  0  0  0  0  0  0  0
   10.6627   23.8287   -0.2856 C   0  0  0  0  0  0  0  0  0  0  0  0
    9.7730   21.0636    2.0057 O   0  0  0  0  0  0  0  0  0  0  0  0
    9.5456   22.3530    2.4146 C   0  0  0  0  0  0  0  0  0  0  0  0
    8.1916   22.8688    1.9247 C   0  0  0  0  0  0  0  0  0  0  0  0
    7.7902   23.9873    2.8430 C   0  0  0  0  0  0  0  0  0  0  0  0
    9.0368   24.6831    3.3942 C   0  0  0  0  0  0  0  0  0  0  0  0
   10.0477   24.7177    2.2665 C   0  0  0  0  0  0  0  0  0  0  0  0
   10.6217   23.3308    2.0772 C   0  0  0  0  0  0  0  0  0  0  0  0
   10.1519   20.5101    2.7575 H   0  0  0  0  0  0  0  0  0  0  0  0
   13.7076   24.2880   -2.4590 C   0  0  0  0  0  0  0  0  0  0  0  0
   14.9141   23.7484   -2.8223 C   0  0  0  0  0  0  0  0  0  0  0  0
   15.7311   24.4297   -3.6945 C   0  0  0  0  0  0  0  0  0  0  0  0
   15.3323   25.6572   -4.2018 C   0  0  0  0  0  0  0  0  0  0  0  0
   14.1057   26.2212   -3.8417 C   0  0  0  0  0  0  0  0  0  0  0  0
   13.7619   27.4472   -4.3798 O   0  0  0  0  0  0  0  0  0  0  0  0
   13.3157   25.5057   -2.9644 C   0  0  0  0  0  0  0  0  0  0  0  0
   13.2462   27.4725   -5.2633 H   0  0  0  0  0  0  0  0  0  0  0  0
  7  8  1  0  0  0
  8  9  1  0  0  0
  9 10  1  0  0  0
 10 11  1  0  0  0
 11 12  1  0  0  0
 12 13  1  0  0  0
 13  1  1  0  0  0
  1  2  1  0  0  0
  2  3  1  0  0  0
  3  4  1  0  0  0
  4  5  1  0  0  0
  5  6  1  0  0  0
  4 15  1  0  0  0
 15 16  2  0  0  0
 16 17  1  0  0  0
 17 18  2  0  0  0
 18 19  1  0  0  0
 19 20  1  0  0  0
 19 21  2  0  0  0
 13  8  1  0  0  0
  6  1  1  0  0  0
 21 15  1  0  0  0
  7 14  1  0  0  0
 20 22  1  0  0  0
M  END
> <minimizedAffinity>
-8.26695

> <CNNscore>
0.6133571267

> <CNNaffinity>
6.1814031601

> <CNN_VS>
3.7914075851

> <CNNaffinity_variance>
0.2504442632

$$$$
[H]Oc1c([H])c([H])c([H])c(C2([H])C([H])([H])C([H])([H])N([C@@]3([H])C([H])([H])C([H])([H])C([H])([H])C([H])([H])[C@@]3([H])O[H])C([H])([H])C2([H])[H])c1[H]


 22 24  0  0  0  0  0  0  0  0999 V2000
   13.4682   23.8329   -0.6308 N   0  0  0  0  0  0  0  0  0  0  0  0
   12.6651   24.8044   -1.2187 C   0  0  0  0  0  0  0  0  0  0  0  0
   13.0673   25.3966   -2.5178 C   0  0  0  0  0  0  0  0  0  0  0  0
   14.5466   25.5625   -2.6125 C   0  0  0  0  0  0  0  0  0  0  0  0
   15.1664   24.2042   -2.3703 C   0  0  0  0  0  0  0  0  0  0  0  0
   14.8142   23.7013   -0.9795 C   0  0  0  0  0  0  0  0  0  0  0  0
   13.0431   21.3974   -1.9952 O   0  0  0  0  0  0  0  0  0  0  0  0
   12.2789   21.6885   -0.8941 C   0  0  0  0  0  0  0  0  0  0  0  0
   10.8403   22.0341   -1.2821 C   0  0  0  0  0  0  0  0  0  0  0  0
    9.9867   21.7779   -0.0733 C   0  0  0  0  0  0  0  0  0  0  0  0
   10.8068   21.9946    1.2004 C   0  0  0  0  0  0  0  0  0  0  0  0
   11.7174   23.1753    0.9335 C   0  0  0  0  0  0  0  0  0  0  0  0
   12.8341   22.7372    0.0114 C   0  0  0  0  0  0  0  0  0  0  0  0
   13.6145   20.5840   -1.8310 H   0  0  0  0  0  0  0  0  0  0  0  0
   14.9743   26.0022   -3.9605 C   0  0  0  0  0  0  0  0  0  0  0  0
   15.0644   25.1071   -4.9946 C   0  0  0  0  0  0  0  0  0  0  0  0
   15.4641   25.5393   -6.2379 C   0  0  0  0  0  0  0  0  0  0  0  0
   15.7737   26.8758   -6.4402 C   0  0  0  0  0  0  0  0  0  0  0  0
   15.6871   27.8011   -5.3969 C   0  0  0  0  0  0  0  0  0  0  0  0
   16.0081   29.1200   -5.6587 O   0  0  0  0  0  0  0  0  0  0  0  0
   15.2824   27.3270   -4.1652 C   0  0  0  0  0  0  0  0  0  0  0  0
   15.2696   29.7565   -5.9695 H   0  0  0  0  0  0  0  0  0  0  0  0
  7  8  1  0  0  0
  8  9  1  0  0  0
  9 10  1  0  0  0
 10 11  1  0  0  0
 11 12  1  0  0  0
 12 13  1  0  0  0
 13  1  1  0  0  0
  1  2  1  0  0  0
  2  3  1  0  0  0
  3  4  1  0  0  0
  4  5  1  0  0  0
  5  6  1  0  0  0
  4 15  1  0  0  0
 15 16  2  0  0  0
 16 17  1  0  0  0
 17 18  2  0  0  0
 18 19  1  0  0  0
 19 20  1  0  0  0
 19 21  2  0  0  0
 13  8  1  0  0  0
  6  1  1  0  0  0
 21 15  1  0  0  0
  7 14  1  0  0  0
 20 22  1  0  0  0
M  END
> <minimizedAffinity>
-8.92852

> <CNNscore>
0.6112267375

> <CNNaffinity>
6.5454840660

> <CNN_VS>
4.0007748604

> <CNNaffinity_variance>
0.2367921621

$$$$
[H]Oc1c([H])c([H])c([H])c(C2([H])C([H])([H])C([H])([H])N([C@@]3([H])C([H])([H])C([H])([H])C([H])([H])C([H])([H])[C@@]3([H])O[H])C([H])([H])C2([H])[H])c1[H]


 22 24  0  0  0  0  0  0  0  0999 V2000
   10.8766   23.5902    0.6893 N   0  0  0  0  0  0  0  0  0  0  0  0
   10.3159   24.0134   -0.5111 C   0  0  0  0  0  0  0  0  0  0  0  0
   11.1928   24.2498   -1.6839 C   0  0  0  0  0  0  0  0  0  0  0  0
   12.5044   24.8349   -1.2812 C   0  0  0  0  0  0  0  0  0  0  0  0
   13.1212   23.8973   -0.2673 C   0  0  0  0  0  0  0  0  0  0  0  0
   12.2325   23.7859    0.9612 C   0  0  0  0  0  0  0  0  0  0  0  0
    8.3276   24.1529    1.7661 O   0  0  0  0  0  0  0  0  0  0  0  0
    9.0769   23.1438    2.3153 C   0  0  0  0  0  0  0  0  0  0  0  0
    9.6258   23.5331    3.6888 C   0  0  0  0  0  0  0  0  0  0  0  0
    9.9142   22.2556    4.4238 C   0  0  0  0  0  0  0  0  0  0  0  0
   10.2754   21.1507    3.4285 C   0  0  0  0  0  0  0  0  0  0  0  0
   11.0946   21.8042    2.3346 C   0  0  0  0  0  0  0  0  0  0  0  0
   10.1755   22.6194    1.4516 C   0  0  0  0  0  0  0  0  0  0  0  0
    7.4810   23.7901    1.3578 H   0  0  0  0  0  0  0  0  0  0  0  0
   13.4477   24.9275   -2.4191 C   0  0  0  0  0  0  0  0  0  0  0  0
   14.4348   23.9920   -2.5900 C   0  0  0  0  0  0  0  0  0  0  0  0
   15.2992   24.0992   -3.6547 C   0  0  0  0  0  0  0  0  0  0  0  0
   15.1693   25.1509   -4.5492 C   0  0  0  0  0  0  0  0  0  0  0  0
   14.1687   26.1129   -4.3895 C   0  0  0  0  0  0  0  0  0  0  0  0
   14.0881   27.1382   -5.3133 O   0  0  0  0  0  0  0  0  0  0  0  0
   13.3223   25.9692   -3.3085 C   0  0  0  0  0  0  0  0  0  0  0  0
   13.5045   27.0107   -6.1441 H   0  0  0  0  0  0  0  0  0  0  0  0
  7  8  1  0  0  0
  8  9  1  0  0  0
  9 10  1  0  0  0
 10 11  1  0  0  0
 11 12  1  0  0  0
 12 13  1  0  0  0
 13  1  1  0  0  0
  1  2  1  0  0  0
  2  3  1  0  0  0
  3  4  1  0  0  0
  4  5  1  0  0  0
  5  6  1  0  0  0
  4 15  1  0  0  0
 15 16  2  0  0  0
 16 17  1  0  0  0
 17 18  2  0  0  0
 18 19  1  0  0  0
 19 20  1  0  0  0
 19 21  2  0  0  0
 13  8  1  0  0  0
  6  1  1  0  0  0
 21 15  1  0  0  0
  7 14  1  0  0  0
 20 22  1  0  0  0
M  END
> <minimizedAffinity>
-8.21385

> <CNNscore>
0.6010943651

> <CNNaffinity>
6.0857472420

> <CNN_VS>
3.6581084728

> <CNNaffinity_variance>
0.2681989372

$$$$
[H]Oc1c([H])c([H])c([H])c(C2([H])C([H])([H])C([H])([H])N([C@@]3([H])C([H])([H])C([H])([H])C([H])([H])C([H])([H])[C@@]3([H])O[H])C([H])([H])C2([H])[H])c1[H]


 22 24  0  0  0  0  0  0  0  0999 V2000
   13.4209   23.8650   -0.5055 N   0  0  0  0  0  0  0  0  0  0  0  0
   14.7910   24.0946   -0.4385 C   0  0  0  0  0  0  0  0  0  0  0  0
   15.4276   25.0079   -1.4186 C   0  0  0  0  0  0  0  0  0  0  0  0
   14.8052   24.8866   -2.7687 C   0  0  0  0  0  0  0  0  0  0  0  0
   13.3237   25.1433   -2.6041 C   0  0  0  0  0  0  0  0  0  0  0  0
   12.7053   24.1061   -1.6805 C   0  0  0  0  0  0  0  0  0  0  0  0
   13.4240   21.4828    1.0107 O   0  0  0  0  0  0  0  0  0  0  0  0
   12.4109   22.3893    1.1929 C   0  0  0  0  0  0  0  0  0  0  0  0
   11.0923   21.8866    0.6030 C   0  0  0  0  0  0  0  0  0  0  0  0
    9.9881   22.6155    1.3136 C   0  0  0  0  0  0  0  0  0  0  0  0
   10.4755   23.9964    1.7580 C   0  0  0  0  0  0  0  0  0  0  0  0
   11.3772   24.5128    0.6557 C   0  0  0  0  0  0  0  0  0  0  0  0
   12.6959   23.7732    0.7115 C   0  0  0  0  0  0  0  0  0  0  0  0
   13.9715   21.3825    1.8505 H   0  0  0  0  0  0  0  0  0  0  0  0
   15.3208   25.9024   -3.7149 C   0  0  0  0  0  0  0  0  0  0  0  0
   14.8345   25.9805   -4.9940 C   0  0  0  0  0  0  0  0  0  0  0  0
   15.3291   26.9327   -5.8549 C   0  0  0  0  0  0  0  0  0  0  0  0
   16.3158   27.8080   -5.4267 C   0  0  0  0  0  0  0  0  0  0  0  0
   16.8224   27.7418   -4.1262 C   0  0  0  0  0  0  0  0  0  0  0  0
   17.8051   28.6410   -3.7563 O   0  0  0  0  0  0  0  0  0  0  0  0
   16.2995   26.7724   -3.2941 C   0  0  0  0  0  0  0  0  0  0  0  0
   17.5271   29.5379   -3.3496 H   0  0  0  0  0  0  0  0  0  0  0  0
  7  8  1  0  0  0
  8  9  1  0  0  0
  9 10  1  0  0  0
 10 11  1  0  0  0
 11 12  1  0  0  0
 12 13  1  0  0  0
 13  1  1  0  0  0
  1  2  1  0  0  0
  2  3  1  0  0  0
  3  4  1  0  0  0
  4  5  1  0  0  0
  5  6  1  0  0  0
  4 15  1  0  0  0
 15 16  2  0  0  0
 16 17  1  0  0  0
 17 18  2  0  0  0
 18 19  1  0  0  0
 19 20  1  0  0  0
 19 21  2  0  0  0
 13  8  1  0  0  0
  6  1  1  0  0  0
 21 15  1  0  0  0
  7 14  1  0  0  0
 20 22  1  0  0  0
M  END
> <minimizedAffinity>
-9.26417

> <CNNscore>
0.5925689936

> <CNNaffinity>
6.4655404091

> <CNN_VS>
3.8312788010

> <CNNaffinity_variance>
0.3395696580

$$$$
[H]Oc1c([H])c([H])c([H])c(C2([H])C([H])([H])C([H])([H])N([C@@]3([H])C([H])([H])C([H])([H])C([H])([H])C([H])([H])[C@@]3([H])O[H])C([H])([H])C2([H])[H])c1[H]


 22 24  0  0  0  0  0  0  0  0999 V2000
   12.7192   23.9074   -1.2903 N   0  0  0  0  0  0  0  0  0  0  0  0
   13.9861   23.4578   -1.6468 C   0  0  0  0  0  0  0  0  0  0  0  0
   14.8623   24.3227   -2.4741 C   0  0  0  0  0  0  0  0  0  0  0  0
   14.0810   25.0864   -3.4897 C   0  0  0  0  0  0  0  0  0  0  0  0
   13.0205   25.8668   -2.7454 C   0  0  0  0  0  0  0  0  0  0  0  0
   12.0838   24.9210   -2.0110 C   0  0  0  0  0  0  0  0  0  0  0  0
   11.8111   21.3248   -0.5980 O   0  0  0  0  0  0  0  0  0  0  0  0
   11.4123   22.3980    0.1574 C   0  0  0  0  0  0  0  0  0  0  0  0
    9.9395   22.7367   -0.0785 C   0  0  0  0  0  0  0  0  0  0  0  0
    9.4625   23.4857    1.1327 C   0  0  0  0  0  0  0  0  0  0  0  0
   10.6252   24.2575    1.7607 C   0  0  0  0  0  0  0  0  0  0  0  0
   11.4700   24.7756    0.6150 C   0  0  0  0  0  0  0  0  0  0  0  0
   12.2512   23.6248    0.0197 C   0  0  0  0  0  0  0  0  0  0  0  0
   12.3695   20.6887   -0.0514 H   0  0  0  0  0  0  0  0  0  0  0  0
   14.9179   26.0702   -4.2141 C   0  0  0  0  0  0  0  0  0  0  0  0
   14.7974   26.2302   -5.5701 C   0  0  0  0  0  0  0  0  0  0  0  0
   15.5858   27.1506   -6.2211 C   0  0  0  0  0  0  0  0  0  0  0  0
   16.4976   27.9114   -5.5049 C   0  0  0  0  0  0  0  0  0  0  0  0
   16.6329   27.7607   -4.1224 C   0  0  0  0  0  0  0  0  0  0  0  0
   17.5584   28.5472   -3.4623 O   0  0  0  0  0  0  0  0  0  0  0  0
   15.8235   26.8267   -3.5075 C   0  0  0  0  0  0  0  0  0  0  0  0
   17.2638   29.4564   -3.0966 H   0  0  0  0  0  0  0  0  0  0  0  0
  7  8  1  0  0  0
  8  9  1  0  0  0
  9 10  1  0  0  0
 10 11  1  0  0  0
 11 12  1  0  0  0
 12 13  1  0  0  0
 13  1  1  0  0  0
  1  2  1  0  0  0
  2  3  1  0  0  0
  3  4  1  0  0  0
  4  5  1  0  0  0
  5  6  1  0  0  0
  4 15  1  0  0  0
 15 16  2  0  0  0
 16 17  1  0  0  0
 17 18  2  0  0  0
 18 19  1  0  0  0
 19 20  1  0  0  0
 19 21  2  0  0  0
 13  8  1  0  0  0
  6  1  1  0  0  0
 21 15  1  0  0  0
  7 14  1  0  0  0
 20 22  1  0  0  0
M  END
> <minimizedAffinity>
-8.98231

> <CNNscore>
0.5486063957

> <CNNaffinity>
6.4179420471

> <CNN_VS>
3.5209240913

> <CNNaffinity_variance>
0.2572024465

$$$$
[H]OC(=O)C([H])([H])n1c([H])c(C(=O)OC2([H])C([H])([H])C3([H])N(C([H])([H])[H])C([H])(C([H])([H])C3([H])[H])C2([H])[H])c2c([H])c([H])c([H])c([H])c21


 26 29  0  0  0  0  0  0  0  0999 V2000
   15.1990   24.8409   -3.4345 C   0  0  0  0  0  0  0  0  0  0  0  0
   14.5514   24.9800   -4.6494 C   0  0  0  0  0  0  0  0  0  0  0  0
   14.9363   26.0889   -5.2550 N   0  0  0  0  0  0  0  0  0  0  0  0
   15.8295   26.6830   -4.4564 C   0  0  0  0  0  0  0  0  0  0  0  0
   16.5208   27.8775   -4.6619 C   0  0  0  0  0  0  0  0  0  0  0  0
   17.3992   28.2998   -3.7020 C   0  0  0  0  0  0  0  0  0  0  0  0
   17.5835   27.5338   -2.5476 C   0  0  0  0  0  0  0  0  0  0  0  0
   16.8893   26.3452   -2.3539 C   0  0  0  0  0  0  0  0  0  0  0  0
   16.0223   25.9418   -3.3168 C   0  0  0  0  0  0  0  0  0  0  0  0
   14.9939   23.7562   -2.4899 C   0  0  0  0  0  0  0  0  0  0  0  0
   14.7399   22.6241   -2.9050 O   0  0  0  0  0  0  0  0  0  0  0  0
   15.0725   23.9699   -1.1304 O   0  0  0  0  0  0  0  0  0  0  0  0
   10.5041   23.7721    1.7084 C   0  0  0  0  0  0  0  0  0  0  0  0
   11.6893   23.8401    0.9238 N   0  0  0  0  0  0  0  0  0  0  0  0
   12.0106   22.6004    0.2435 C   0  0  0  0  0  0  0  0  0  0  0  0
   11.2906   22.6216   -1.0680 C   0  0  0  0  0  0  0  0  0  0  0  0
   10.6455   24.0090   -1.1087 C   0  0  0  0  0  0  0  0  0  0  0  0
   11.5619   24.7666   -0.1716 C   0  0  0  0  0  0  0  0  0  0  0  0
   12.8981   24.9287   -0.8891 C   0  0  0  0  0  0  0  0  0  0  0  0
   13.9554   24.0747   -0.2898 C   0  0  0  0  0  0  0  0  0  0  0  0
   13.4924   22.6571   -0.0225 C   0  0  0  0  0  0  0  0  0  0  0  0
   14.4823   26.5813   -6.5416 C   0  0  0  0  0  0  0  0  0  0  0  0
   15.4045   26.0939   -7.6013 C   0  0  0  0  0  0  0  0  0  0  0  0
   15.0982   25.0042   -8.4063 O   0  0  0  0  0  0  0  0  0  0  0  0
   16.4979   26.6939   -7.7651 O   0  0  0  0  0  0  0  0  0  0  0  0
   15.7407   24.2389   -8.6060 H   0  0  0  0  0  0  0  0  0  0  0  0
 13 14  1  0  0  0
 14 15  1  0  0  0
 15 16  1  0  0  0
 16 17  1  0  0  0
 17 18  1  0  0  0
 18 19  1  0  0  0
 19 20  1  0  0  0
 20 21  1  0  0  0
 20 12  1  0  0  0
 12 10  1  0  0  0
 10 11  2  0  0  0
 10  1  1  0  0  0
  1  2  2  0  0  0
  2  3  1  0  0  0
  3 22  1  0  0  0
 22 23  1  0  0  0
 23 24  1  0  0  0
 23 25  2  0  0  0
  3  4  1  0  0  0
  4  5  2  0  0  0
  5  6  1  0  0  0
  6  7  2  0  0  0
  7  8  1  0  0  0
  8  9  2  0  0  0
 18 14  1  0  0  0
  9  1  1  0  0  0
 21 15  1  0  0  0
  9  4  1  0  0  0
 24 26  1  0  0  0
M  END
> <minimizedAffinity>
-8.17531

> <CNNscore>
0.5338377953

> <CNNaffinity>
6.7073106766

> <CNN_VS>
3.5806159973

> <CNNaffinity_variance>
0.2061003000

$$$$
[H]OC(=O)C([H])([H])n1c([H])c(C(=O)OC2([H])C([H])([H])C3([H])N(C([H])([H])[H])C([H])(C([H])([H])C3([H])[H])C2([H])[H])c2c([H])c([H])c([H])c([H])c21


 26 29  0  0  0  0  0  0  0  0999 V2000
   15.2376   25.2287   -1.9137 C   0  0  0  0  0  0  0  0  0  0  0  0
   13.9434   25.0689   -1.4509 C   0  0  0  0  0  0  0  0  0  0  0  0
   13.0763   25.5404   -2.3286 N   0  0  0  0  0  0  0  0  0  0  0  0
   13.7808   26.0087   -3.3645 C   0  0  0  0  0  0  0  0  0  0  0  0
   13.3126   26.6012   -4.5378 C   0  0  0  0  0  0  0  0  0  0  0  0
   14.2226   27.0078   -5.4748 C   0  0  0  0  0  0  0  0  0  0  0  0
   15.5879   26.8234   -5.2392 C   0  0  0  0  0  0  0  0  0  0  0  0
   16.0424   26.2318   -4.0664 C   0  0  0  0  0  0  0  0  0  0  0  0
   15.1254   25.8344   -3.1483 C   0  0  0  0  0  0  0  0  0  0  0  0
   16.4422   24.8528   -1.1936 C   0  0  0  0  0  0  0  0  0  0  0  0
   17.5001   25.4415   -1.4229 O   0  0  0  0  0  0  0  0  0  0  0  0
   16.4271   23.8409   -0.2576 O   0  0  0  0  0  0  0  0  0  0  0  0
   12.3557   20.7559    1.4380 C   0  0  0  0  0  0  0  0  0  0  0  0
   13.4278   21.5541    0.9497 N   0  0  0  0  0  0  0  0  0  0  0  0
   14.7359   20.9626    1.1545 C   0  0  0  0  0  0  0  0  0  0  0  0
   15.0118   20.0900   -0.0292 C   0  0  0  0  0  0  0  0  0  0  0  0
   13.8145   20.3346   -0.9509 C   0  0  0  0  0  0  0  0  0  0  0  0
   13.3814   21.7072   -0.4817 C   0  0  0  0  0  0  0  0  0  0  0  0
   14.4480   22.6939   -0.9457 C   0  0  0  0  0  0  0  0  0  0  0  0
   15.2593   23.2060    0.1883 C   0  0  0  0  0  0  0  0  0  0  0  0
   15.7076   22.1138    1.1378 C   0  0  0  0  0  0  0  0  0  0  0  0
   11.6312   25.5554   -2.2037 C   0  0  0  0  0  0  0  0  0  0  0  0
   11.2230   24.5718   -1.1661 C   0  0  0  0  0  0  0  0  0  0  0  0
   10.5576   23.3942   -1.4822 O   0  0  0  0  0  0  0  0  0  0  0  0
   11.4917   24.8247    0.0365 O   0  0  0  0  0  0  0  0  0  0  0  0
    9.7291   23.0542   -0.9961 H   0  0  0  0  0  0  0  0  0  0  0  0
 13 14  1  0  0  0
 14 15  1  0  0  0
 15 16  1  0  0  0
 16 17  1  0  0  0
 17 18  1  0  0  0
 18 19  1  0  0  0
 19 20  1  0  0  0
 20 21  1  0  0  0
 20 12  1  0  0  0
 12 10  1  0  0  0
 10 11  2  0  0  0
 10  1  1  0  0  0
  1  2  2  0  0  0
  2  3  1  0  0  0
  3 22  1  0  0  0
 22 23  1  0  0  0
 23 24  1  0  0  0
 23 25  2  0  0  0
  3  4  1  0  0  0
  4  5  2  0  0  0
  5  6  1  0  0  0
  6  7  2  0  0  0
  7  8  1  0  0  0
  8  9  2  0  0  0
 18 14  1  0  0  0
  9  1  1  0  0  0
 21 15  1  0  0  0
  9  4  1  0  0  0
 24 26  1  0  0  0
M  END
> <minimizedAffinity>
-5.51664

> <CNNscore>
0.5237191916

> <CNNaffinity>
6.5658965111

> <CNN_VS>
3.4386858940

> <CNNaffinity_variance>
0.1248542815

$$$$
[H]OC(=O)C([H])([H])n1c([H])c(C(=O)OC2([H])C([H])([H])C3([H])N(C([H])([H])[H])C([H])(C([H])([H])C3([H])[H])C2([H])[H])c2c([H])c([H])c([H])c([H])c21


 26 29  0  0  0  0  0  0  0  0999 V2000
   12.1762   24.7874   -0.5467 C   0  0  0  0  0  0  0  0  0  0  0  0
   13.4639   24.6496   -0.0593 C   0  0  0  0  0  0  0  0  0  0  0  0
   14.3419   25.1007   -0.9369 N   0  0  0  0  0  0  0  0  0  0  0  0
   13.6509   25.5348   -1.9965 C   0  0  0  0  0  0  0  0  0  0  0  0
   14.1337   26.1002   -3.1772 C   0  0  0  0  0  0  0  0  0  0  0  0
   13.2358   26.4793   -4.1371 C   0  0  0  0  0  0  0  0  0  0  0  0
   11.8681   26.2938   -3.9172 C   0  0  0  0  0  0  0  0  0  0  0  0
   11.3989   25.7294   -2.7367 C   0  0  0  0  0  0  0  0  0  0  0  0
   12.3041   25.3597   -1.7956 C   0  0  0  0  0  0  0  0  0  0  0  0
   10.9664   24.3663    0.1389 C   0  0  0  0  0  0  0  0  0  0  0  0
   10.0124   25.1412    0.2264 O   0  0  0  0  0  0  0  0  0  0  0  0
   10.8654   23.1121    0.7018 O   0  0  0  0  0  0  0  0  0  0  0  0
   15.0822   19.8472   -0.0256 C   0  0  0  0  0  0  0  0  0  0  0  0
   13.9502   20.6956    0.1292 N   0  0  0  0  0  0  0  0  0  0  0  0
   14.1472   22.0330   -0.3956 C   0  0  0  0  0  0  0  0  0  0  0  0
   13.7654   21.9963   -1.8418 C   0  0  0  0  0  0  0  0  0  0  0  0
   13.2360   20.5744   -2.0443 C   0  0  0  0  0  0  0  0  0  0  0  0
   12.8175   20.2322   -0.6303 C   0  0  0  0  0  0  0  0  0  0  0  0
   11.5852   21.0735   -0.3141 C   0  0  0  0  0  0  0  0  0  0  0  0
   11.8868   22.1525    0.6612 C   0  0  0  0  0  0  0  0  0  0  0  0
   13.1616   22.9048    0.3381 C   0  0  0  0  0  0  0  0  0  0  0  0
   15.7850   25.1244   -0.7919 C   0  0  0  0  0  0  0  0  0  0  0  0
   16.1336   24.8998    0.6360 C   0  0  0  0  0  0  0  0  0  0  0  0
   16.5671   25.9277    1.4634 O   0  0  0  0  0  0  0  0  0  0  0  0
   16.0315   23.7353    1.1006 O   0  0  0  0  0  0  0  0  0  0  0  0
   17.3755   25.8662    2.0807 H   0  0  0  0  0  0  0  0  0  0  0  0
 13 14  1  0  0  0
 14 15  1  0  0  0
 15 16  1  0  0  0
 16 17  1  0  0  0
 17 18  1  0  0  0
 18 19  1  0  0  0
 19 20  1  0  0  0
 20 21  1  0  0  0
 20 12  1  0  0  0
 12 10  1  0  0  0
 10 11  2  0  0  0
 10  1  1  0  0  0
  1  2  2  0  0  0
  2  3  1  0  0  0
  3 22  1  0  0  0
 22 23  1  0  0  0
 23 24  1  0  0  0
 23 25  2  0  0  0
  3  4  1  0  0  0
  4  5  2  0  0  0
  5  6  1  0  0  0
  6  7  2  0  0  0
  7  8  1  0  0  0
  8  9  2  0  0  0
 18 14  1  0  0  0
  9  1  1  0  0  0
 21 15  1  0  0  0
  9  4  1  0  0  0
 24 26  1  0  0  0
M  END
> <minimizedAffinity>
2.31468

> <CNNscore>
0.4736760855

> <CNNaffinity>
6.5591039658

> <CNN_VS>
3.1068906784

> <CNNaffinity_variance>
0.8024737239

$$$$
[H]OC(=O)C([H])([H])n1c([H])c(C(=O)OC2([H])C([H])([H])C3([H])N(C([H])([H])[H])C([H])(C([H])([H])C3([H])[H])C2([H])[H])c2c([H])c([H])c([H])c([H])c21


 26 29  0  0  0  0  0  0  0  0999 V2000
   13.0894   25.0034   -1.6814 C   0  0  0  0  0  0  0  0  0  0  0  0
   13.0691   26.1266   -2.4893 C   0  0  0  0  0  0  0  0  0  0  0  0
   13.8155   25.9384   -3.5627 N   0  0  0  0  0  0  0  0  0  0  0  0
   14.3275   24.7060   -3.4741 C   0  0  0  0  0  0  0  0  0  0  0  0
   15.1751   24.0503   -4.3677 C   0  0  0  0  0  0  0  0  0  0  0  0
   15.5771   22.7760   -4.0744 C   0  0  0  0  0  0  0  0  0  0  0  0
   15.1350   22.1645   -2.8979 C   0  0  0  0  0  0  0  0  0  0  0  0
   14.2905   22.8277   -2.0154 C   0  0  0  0  0  0  0  0  0  0  0  0
   13.9017   24.0911   -2.3228 C   0  0  0  0  0  0  0  0  0  0  0  0
   12.4069   24.8710   -0.4056 C   0  0  0  0  0  0  0  0  0  0  0  0
   13.0643   24.7490    0.6294 O   0  0  0  0  0  0  0  0  0  0  0  0
   11.0305   24.8733   -0.3295 O   0  0  0  0  0  0  0  0  0  0  0  0
    8.3741   20.1935   -0.2163 C   0  0  0  0  0  0  0  0  0  0  0  0
    9.1118   21.4096   -0.2610 N   0  0  0  0  0  0  0  0  0  0  0  0
    9.7459   21.7540    0.9968 C   0  0  0  0  0  0  0  0  0  0  0  0
   11.0855   21.0876    1.0086 C   0  0  0  0  0  0  0  0  0  0  0  0
   11.1885   20.4491   -0.3788 C   0  0  0  0  0  0  0  0  0  0  0  0
   10.2354   21.3294   -1.1587 C   0  0  0  0  0  0  0  0  0  0  0  0
   10.9024   22.6939   -1.2990 C   0  0  0  0  0  0  0  0  0  0  0  0
   10.2387   23.7235   -0.4588 C   0  0  0  0  0  0  0  0  0  0  0  0
    9.9534   23.2455    0.9503 C   0  0  0  0  0  0  0  0  0  0  0  0
   14.0460   26.8822   -4.6398 C   0  0  0  0  0  0  0  0  0  0  0  0
   15.4977   27.1967   -4.7077 C   0  0  0  0  0  0  0  0  0  0  0  0
   16.2670   27.3949   -3.5684 O   0  0  0  0  0  0  0  0  0  0  0  0
   16.0378   27.2868   -5.8402 O   0  0  0  0  0  0  0  0  0  0  0  0
   16.9159   28.1702   -3.4410 H   0  0  0  0  0  0  0  0  0  0  0  0
 13 14  1  0  0  0
 14 15  1  0  0  0
 15 16  1  0  0  0
 16 17  1  0  0  0
 17 18  1  0  0  0
 18 19  1  0  0  0
 19 20  1  0  0  0
 20 21  1  0  0  0
 20 12  1  0  0  0
 12 10  1  0  0  0
 10 11  2  0  0  0
 10  1  1  0  0  0
  1  2  2  0  0  0
  2  3  1  0  0  0
  3 22  1  0  0  0
 22 23  1  0  0  0
 23 24  1  0  0  0
 23 25  2  0  0  0
  3  4  1  0  0  0
  4  5  2  0  0  0
  5  6  1  0  0  0
  6  7  2  0  0  0
  7  8  1  0  0  0
  8  9  2  0  0  0
 18 14  1  0  0  0
  9  1  1  0  0  0
 21 15  1  0  0  0
  9  4  1  0  0  0
 24 26  1  0  0  0
M  END
> <minimizedAffinity>
-7.17375

> <CNNscore>
0.4707521200

> <CNNaffinity>
6.4372391701

> <CNN_VS>
3.0303440094

> <CNNaffinity_variance>
0.2077222615

$$$$
[H]OC(=O)C([H])([H])n1c([H])c(C(=O)OC2([H])C([H])([H])C3([H])N(C([H])([H])[H])C([H])(C([H])([H])C3([H])[H])C2([H])[H])c2c([H])c([H])c([H])c([H])c21


 26 29  0  0  0  0  0  0  0  0999 V2000
   13.9703   24.8603   -0.3355 C   0  0  0  0  0  0  0  0  0  0  0  0
   12.6297   24.6475   -0.0670 C   0  0  0  0  0  0  0  0  0  0  0  0
   11.8870   25.0204   -1.0937 N   0  0  0  0  0  0  0  0  0  0  0  0
   12.7195   25.4758   -2.0360 C   0  0  0  0  0  0  0  0  0  0  0  0
   12.4103   25.9779   -3.3007 C   0  0  0  0  0  0  0  0  0  0  0  0
   13.4332   26.3893   -4.1105 C   0  0  0  0  0  0  0  0  0  0  0  0
   14.7527   26.2992   -3.6584 C   0  0  0  0  0  0  0  0  0  0  0  0
   15.0486   25.7971   -2.3965 C   0  0  0  0  0  0  0  0  0  0  0  0
   14.0212   25.3935   -1.6070 C   0  0  0  0  0  0  0  0  0  0  0  0
   15.0656   24.5946    0.5814 C   0  0  0  0  0  0  0  0  0  0  0  0
   15.3466   25.4191    1.4530 O   0  0  0  0  0  0  0  0  0  0  0  0
   15.8051   23.4347    0.4922 O   0  0  0  0  0  0  0  0  0  0  0  0
   13.3532   19.1163   -1.5836 C   0  0  0  0  0  0  0  0  0  0  0  0
   13.9644   20.2681   -1.0137 N   0  0  0  0  0  0  0  0  0  0  0  0
   13.8977   21.4434   -1.8605 C   0  0  0  0  0  0  0  0  0  0  0  0
   12.6050   22.1313   -1.5536 C   0  0  0  0  0  0  0  0  0  0  0  0
   12.0217   21.3148   -0.3977 C   0  0  0  0  0  0  0  0  0  0  0  0
   13.2846   20.7095    0.1770 C   0  0  0  0  0  0  0  0  0  0  0  0
   14.0592   21.8426    0.8424 C   0  0  0  0  0  0  0  0  0  0  0  0
   15.2799   22.2030    0.0767 C   0  0  0  0  0  0  0  0  0  0  0  0
   15.0303   22.3299   -1.4123 C   0  0  0  0  0  0  0  0  0  0  0  0
   10.4413   24.9554   -1.1920 C   0  0  0  0  0  0  0  0  0  0  0  0
    9.9311   23.9665   -0.2058 C   0  0  0  0  0  0  0  0  0  0  0  0
    9.4371   22.7260   -0.5882 O   0  0  0  0  0  0  0  0  0  0  0  0
    9.9495   24.2740    1.0138 O   0  0  0  0  0  0  0  0  0  0  0  0
    8.5641   22.3255   -0.2478 H   0  0  0  0  0  0  0  0  0  0  0  0
 13 14  1  0  0  0
 14 15  1  0  0  0
 15 16  1  0  0  0
 16 17  1  0  0  0
 17 18  1  0  0  0
 18 19  1  0  0  0
 19 20  1  0  0  0
 20 21  1  0  0  0
 20 12  1  0  0  0
 12 10  1  0  0  0
 10 11  2  0  0  0
 10  1  1  0  0  0
  1  2  2  0  0  0
  2  3  1  0  0  0
  3 22  1  0  0  0
 22 23  1  0  0  0
 23 24  1  0  0  0
 23 25  2  0  0  0
  3  4  1  0  0  0
  4  5  2  0  0  0
  5  6  1  0  0  0
  6  7  2  0  0  0
  7  8  1  0  0  0
  8  9  2  0  0  0
 18 14  1  0  0  0
  9  1  1  0  0  0
 21 15  1  0  0  0
  9  4  1  0  0  0
 24 26  1  0  0  0
M  END
> <minimizedAffinity>
-0.74247

> <CNNscore>
0.4057930410

> <CNNaffinity>
6.4589409828

> <CNN_VS>
2.6209933758

> <CNNaffinity_variance>
0.3353119493

$$$$
[H]OC(=O)C([H])([H])n1c([H])c(C(=O)OC2([H])C([H])([H])C3([H])N(C([H])([H])[H])C([H])(C([H])([H])C3([H])[H])C2([H])[H])c2c([H])c([H])c([H])c([H])c21


 26 29  0  0  0  0  0  0  0  0999 V2000
   13.1277   24.6046   -0.7376 C   0  0  0  0  0  0  0  0  0  0  0  0
   13.3622   25.3628   -1.8711 C   0  0  0  0  0  0  0  0  0  0  0  0
   13.9967   24.6483   -2.7829 N   0  0  0  0  0  0  0  0  0  0  0  0
   14.1835   23.4288   -2.2666 C   0  0  0  0  0  0  0  0  0  0  0  0
   14.8045   22.3235   -2.8493 C   0  0  0  0  0  0  0  0  0  0  0  0
   14.8818   21.1614   -2.1318 C   0  0  0  0  0  0  0  0  0  0  0  0
   14.3431   21.1067   -0.8433 C   0  0  0  0  0  0  0  0  0  0  0  0
   13.7266   22.2144   -0.2731 C   0  0  0  0  0  0  0  0  0  0  0  0
   13.6588   23.3586   -0.9997 C   0  0  0  0  0  0  0  0  0  0  0  0
   12.4812   25.0788    0.4741 C   0  0  0  0  0  0  0  0  0  0  0  0
   12.5497   26.2713    0.7768 O   0  0  0  0  0  0  0  0  0  0  0  0
   11.7935   24.2157    1.3002 O   0  0  0  0  0  0  0  0  0  0  0  0
    7.3156   21.4272    0.2314 C   0  0  0  0  0  0  0  0  0  0  0  0
    8.5054   22.1401    0.5499 N   0  0  0  0  0  0  0  0  0  0  0  0
    8.2734   23.3514    1.3125 C   0  0  0  0  0  0  0  0  0  0  0  0
    8.2673   22.9643    2.7578 C   0  0  0  0  0  0  0  0  0  0  0  0
    8.6270   21.4766    2.7394 C   0  0  0  0  0  0  0  0  0  0  0  0
    9.3700   21.3890    1.4234 C   0  0  0  0  0  0  0  0  0  0  0  0
   10.6974   22.1163    1.6115 C   0  0  0  0  0  0  0  0  0  0  0  0
   10.7320   23.4051    0.8738 C   0  0  0  0  0  0  0  0  0  0  0  0
    9.4723   24.2269    1.0561 C   0  0  0  0  0  0  0  0  0  0  0  0
   14.4186   25.0913   -4.0982 C   0  0  0  0  0  0  0  0  0  0  0  0
   14.2025   26.5581   -4.2093 C   0  0  0  0  0  0  0  0  0  0  0  0
   12.9388   27.1105   -4.3742 O   0  0  0  0  0  0  0  0  0  0  0  0
   15.2046   27.3164   -4.1534 O   0  0  0  0  0  0  0  0  0  0  0  0
   12.7103   27.8272   -5.0617 H   0  0  0  0  0  0  0  0  0  0  0  0
 13 14  1  0  0  0
 14 15  1  0  0  0
 15 16  1  0  0  0
 16 17  1  0  0  0
 17 18  1  0  0  0
 18 19  1  0  0  0
 19 20  1  0  0  0
 20 21  1  0  0  0
 20 12  1  0  0  0
 12 10  1  0  0  0
 10 11  2  0  0  0
 10  1  1  0  0  0
  1  2  2  0  0  0
  2  3  1  0  0  0
  3 22  1  0  0  0
 22 23  1  0  0  0
 23 24  1  0  0  0
 23 25  2  0  0  0
  3  4  1  0  0  0
  4  5  2  0  0  0
  5  6  1  0  0  0
  6  7  2  0  0  0
  7  8  1  0  0  0
  8  9  2  0  0  0
 18 14  1  0  0  0
  9  1  1  0  0  0
 21 15  1  0  0  0
  9  4  1  0  0  0
 24 26  1  0  0  0
M  END
> <minimizedAffinity>
-5.62127

> <CNNscore>
0.4041143656

> <CNNaffinity>
6.1561484337

> <CNN_VS>
2.4877879620

> <CNNaffinity_variance>
0.1930264086

$$$$
[H]OC(=O)C([H])([H])n1c([H])c(C(=O)OC2([H])C([H])([H])C3([H])N(C([H])([H])[H])C([H])(C([H])([H])C3([H])[H])C2([H])[H])c2c([H])c([H])c([H])c([H])c21


 26 29  0  0  0  0  0  0  0  0999 V2000
   15.0986   24.8527   -3.8301 C   0  0  0  0  0  0  0  0  0  0  0  0
   14.7718   25.0830   -5.1548 C   0  0  0  0  0  0  0  0  0  0  0  0
   15.3540   26.1857   -5.5903 N   0  0  0  0  0  0  0  0  0  0  0  0
   16.0610   26.6857   -4.5710 C   0  0  0  0  0  0  0  0  0  0  0  0
   16.8484   27.8372   -4.5410 C   0  0  0  0  0  0  0  0  0  0  0  0
   17.4924   28.1605   -3.3782 C   0  0  0  0  0  0  0  0  0  0  0  0
   17.3491   27.3392   -2.2564 C   0  0  0  0  0  0  0  0  0  0  0  0
   16.5619   26.1943   -2.2983 C   0  0  0  0  0  0  0  0  0  0  0  0
   15.9308   25.8891   -3.4603 C   0  0  0  0  0  0  0  0  0  0  0  0
   14.6104   23.7485   -3.0218 C   0  0  0  0  0  0  0  0  0  0  0  0
   15.3330   22.7703   -2.8230 O   0  0  0  0  0  0  0  0  0  0  0  0
   13.3456   23.7702   -2.4740 O   0  0  0  0  0  0  0  0  0  0  0  0
   12.5499   20.8908    2.0032 C   0  0  0  0  0  0  0  0  0  0  0  0
   12.7863   21.6202    0.8043 N   0  0  0  0  0  0  0  0  0  0  0  0
   13.8757   22.5719    0.9056 C   0  0  0  0  0  0  0  0  0  0  0  0
   15.1322   21.8375    0.5586 C   0  0  0  0  0  0  0  0  0  0  0  0
   14.6415   20.4469    0.1483 C   0  0  0  0  0  0  0  0  0  0  0  0
   13.2230   20.7680   -0.2716 C   0  0  0  0  0  0  0  0  0  0  0  0
   13.3114   21.5581   -1.5733 C   0  0  0  0  0  0  0  0  0  0  0  0
   12.9545   22.9869   -1.3790 C   0  0  0  0  0  0  0  0  0  0  0  0
   13.6131   23.6026   -0.1614 C   0  0  0  0  0  0  0  0  0  0  0  0
   15.2522   26.7580   -6.9193 C   0  0  0  0  0  0  0  0  0  0  0  0
   15.5359   25.7013   -7.9262 C   0  0  0  0  0  0  0  0  0  0  0  0
   16.8267   25.4030   -8.3436 O   0  0  0  0  0  0  0  0  0  0  0  0
   14.5672   25.0630   -8.4127 O   0  0  0  0  0  0  0  0  0  0  0  0
   17.1042   25.2919   -9.3178 H   0  0  0  0  0  0  0  0  0  0  0  0
 13 14  1  0  0  0
 14 15  1  0  0  0
 15 16  1  0  0  0
 16 17  1  0  0  0
 17 18  1  0  0  0
 18 19  1  0  0  0
 19 20  1  0  0  0
 20 21  1  0  0  0
 20 12  1  0  0  0
 12 10  1  0  0  0
 10 11  2  0  0  0
 10  1  1  0  0  0
  1  2  2  0  0  0
  2  3  1  0  0  0
  3 22  1  0  0  0
 22 23  1  0  0  0
 23 24  1  0  0  0
 23 25  2  0  0  0
  3  4  1  0  0  0
  4  5  2  0  0  0
  5  6  1  0  0  0
  6  7  2  0  0  0
  7  8  1  0  0  0
  8  9  2  0  0  0
 18 14  1  0  0  0
  9  1  1  0  0  0
 21 15  1  0  0  0
  9  4  1  0  0  0
 24 26  1  0  0  0
M  END
> <minimizedAffinity>
-6.58944

> <CNNscore>
0.3956264257

> <CNNaffinity>
6.4401741028

> <CNN_VS>
2.5479030609

> <CNNaffinity_variance>
0.0804608837

$$$$
[H]OC(=O)C([H])([H])n1c([H])c(C(=O)OC2([H])C([H])([H])C3([H])N(C([H])([H])[H])C([H])(C([H])([H])C3([H])[H])C2([H])[H])c2c([H])c([H])c([H])c([H])c21


 26 29  0  0  0  0  0  0  0  0999 V2000
   13.1306   23.5855   -0.6189 C   0  0  0  0  0  0  0  0  0  0  0  0
   12.6142   22.3828   -0.1698 C   0  0  0  0  0  0  0  0  0  0  0  0
   13.5149   21.7290    0.5415 N   0  0  0  0  0  0  0  0  0  0  0  0
   14.6183   22.4842    0.5682 C   0  0  0  0  0  0  0  0  0  0  0  0
   15.8367   22.2218    1.1956 C   0  0  0  0  0  0  0  0  0  0  0  0
   16.8391   23.1470    1.0934 C   0  0  0  0  0  0  0  0  0  0  0  0
   16.6238   24.3233    0.3698 C   0  0  0  0  0  0  0  0  0  0  0  0
   15.4056   24.5738   -0.2509 C   0  0  0  0  0  0  0  0  0  0  0  0
   14.4227   23.6449   -0.1386 C   0  0  0  0  0  0  0  0  0  0  0  0
   12.4287   24.5436   -1.4556 C   0  0  0  0  0  0  0  0  0  0  0  0
   11.4490   25.1428   -1.0089 O   0  0  0  0  0  0  0  0  0  0  0  0
   12.8352   24.7935   -2.7489 O   0  0  0  0  0  0  0  0  0  0  0  0
   16.8288   27.8646   -4.6432 C   0  0  0  0  0  0  0  0  0  0  0  0
   15.7813   27.0235   -4.1739 N   0  0  0  0  0  0  0  0  0  0  0  0
   14.4782   27.3565   -4.7161 C   0  0  0  0  0  0  0  0  0  0  0  0
   14.3348   26.6066   -6.0029 C   0  0  0  0  0  0  0  0  0  0  0  0
   15.6018   25.7502   -6.0702 C   0  0  0  0  0  0  0  0  0  0  0  0
   15.9505   25.6580   -4.6000 C   0  0  0  0  0  0  0  0  0  0  0  0
   14.9008   24.7637   -3.9481 C   0  0  0  0  0  0  0  0  0  0  0  0
   13.9768   25.5371   -3.0795 C   0  0  0  0  0  0  0  0  0  0  0  0
   13.4783   26.8113   -3.7300 C   0  0  0  0  0  0  0  0  0  0  0  0
   13.3514   20.4352    1.1767 C   0  0  0  0  0  0  0  0  0  0  0  0
   12.2760   20.5285    2.1993 C   0  0  0  0  0  0  0  0  0  0  0  0
   12.3741   21.3653    3.3035 O   0  0  0  0  0  0  0  0  0  0  0  0
   11.2473   19.8197    2.0518 O   0  0  0  0  0  0  0  0  0  0  0  0
   12.1640   21.0819    4.2595 H   0  0  0  0  0  0  0  0  0  0  0  0
 13 14  1  0  0  0
 14 15  1  0  0  0
 15 16  1  0  0  0
 16 17  1  0  0  0
 17 18  1  0  0  0
 18 19  1  0  0  0
 19 20  1  0  0  0
 20 21  1  0  0  0
 20 12  1  0  0  0
 12 10  1  0  0  0
 10 11  2  0  0  0
 10  1  1  0  0  0
  1  2  2  0  0  0
  2  3  1  0  0  0
  3 22  1  0  0  0
 22 23  1  0  0  0
 23 24  1  0  0  0
 23 25  2  0  0  0
  3  4  1  0  0  0
  4  5  2  0  0  0
  5  6  1  0  0  0
  6  7  2  0  0  0
  7  8  1  0  0  0
  8  9  2  0  0  0
 18 14  1  0  0  0
  9  1  1  0  0  0
 21 15  1  0  0  0
  9  4  1  0  0  0
 24 26  1  0  0  0
M  END
> <minimizedAffinity>
-6.61729

> <CNNscore>
0.3769152164

> <CNNaffinity>
6.5657629967

> <CNN_VS>
2.4747359753

> <CNNaffinity_variance>
0.0726844743

$$$$
[H]OC(=O)C([H])([H])n1c([H])c(C(=O)OC2([H])C([H])([H])C3([H])N(C([H])([H])[H])C([H])(C([H])([H])C3([H])[H])C2([H])[H])c2c([H])c([H])c([H])c([H])c21


 26 29  0  0  0  0  0  0  0  0999 V2000
   14.5645   23.6845   -1.1616 C   0  0  0  0  0  0  0  0  0  0  0  0
   15.3524   24.6430   -0.5489 C   0  0  0  0  0  0  0  0  0  0  0  0
   16.0074   24.1203    0.4720 N   0  0  0  0  0  0  0  0  0  0  0  0
   15.6628   22.8299    0.5409 C   0  0  0  0  0  0  0  0  0  0  0  0
   16.0932   21.8622    1.4493 C   0  0  0  0  0  0  0  0  0  0  0  0
   15.6071   20.5891    1.3300 C   0  0  0  0  0  0  0  0  0  0  0  0
   14.6987   20.2879    0.3113 C   0  0  0  0  0  0  0  0  0  0  0  0
   14.2772   21.2604   -0.5880 C   0  0  0  0  0  0  0  0  0  0  0  0
   14.7702   22.5177   -0.4546 C   0  0  0  0  0  0  0  0  0  0  0  0
   13.6859   23.9154   -2.2955 C   0  0  0  0  0  0  0  0  0  0  0  0
   12.5478   24.3491   -2.1085 O   0  0  0  0  0  0  0  0  0  0  0  0
   14.0999   23.6521   -3.5837 O   0  0  0  0  0  0  0  0  0  0  0  0
   15.9529   27.5859   -6.7556 C   0  0  0  0  0  0  0  0  0  0  0  0
   15.4529   26.5759   -5.8868 N   0  0  0  0  0  0  0  0  0  0  0  0
   16.4720   25.9637   -5.0564 C   0  0  0  0  0  0  0  0  0  0  0  0
   16.5865   26.7964   -3.8186 C   0  0  0  0  0  0  0  0  0  0  0  0
   15.4787   27.8408   -3.9767 C   0  0  0  0  0  0  0  0  0  0  0  0
   14.5385   27.1063   -4.9085 C   0  0  0  0  0  0  0  0  0  0  0  0
   13.9063   25.9756   -4.1035 C   0  0  0  0  0  0  0  0  0  0  0  0
   14.4190   24.6452   -4.5205 C   0  0  0  0  0  0  0  0  0  0  0  0
   15.9257   24.6123   -4.6757 C   0  0  0  0  0  0  0  0  0  0  0  0
   16.9275   24.8058    1.3595 C   0  0  0  0  0  0  0  0  0  0  0  0
   18.3024   24.2897    1.1268 C   0  0  0  0  0  0  0  0  0  0  0  0
   19.2817   24.3200    2.1113 O   0  0  0  0  0  0  0  0  0  0  0  0
   18.5792   23.8136   -0.0041 O   0  0  0  0  0  0  0  0  0  0  0  0
   20.2354   24.6468    1.9631 H   0  0  0  0  0  0  0  0  0  0  0  0
 13 14  1  0  0  0
 14 15  1  0  0  0
 15 16  1  0  0  0
 16 17  1  0  0  0
 17 18  1  0  0  0
 18 19  1  0  0  0
 19 20  1  0  0  0
 20 21  1  0  0  0
 20 12  1  0  0  0
 12 10  1  0  0  0
 10 11  2  0  0  0
 10  1  1  0  0  0
  1  2  2  0  0  0
  2  3  1  0  0  0
  3 22  1  0  0  0
 22 23  1  0  0  0
 23 24  1  0  0  0
 23 25  2  0  0  0
  3  4  1  0  0  0
  4  5  2  0  0  0
  5  6  1  0  0  0
  6  7  2  0  0  0
  7  8  1  0  0  0
  8  9  2  0  0  0
 18 14  1  0  0  0
  9  1  1  0  0  0
 21 15  1  0  0  0
  9  4  1  0  0  0
 24 26  1  0  0  0
M  END
> <minimizedAffinity>
1.33051

> <CNNscore>
0.3729682863

> <CNNaffinity>
6.2332677841

> <CNN_VS>
2.3248112202

> <CNNaffinity_variance>
0.1566246748

$$$$
[H]N=C(N([H])[H])N([H])C([H])([H])C([H])([H])C([H])([H])[C@@]([H])(C(=O)c1nc2c([H])c([H])c([H])c([H])c2s1)N([H])C(=O)[C@@]([H])(N([H])C(=O)[C@@]1([H])N([H])C(=O)C([H])([H])C1([H])[H])C([H])([H])C([H])([H])C([H])([H])N=C(N([H])[H])N([H])[H]


 50 52  0  0  0  0  0  0  0  0999 V2000
   11.6274   23.3759   -0.7957 C   0  0  0  0  0  0  0  0  0  0  0  0
   10.7181   24.1008   -1.3887 O   0  0  0  0  0  0  0  0  0  0  0  0
   11.0936   22.2250   -0.2012 N   0  0  0  0  0  0  0  0  0  0  0  0
   11.6723   21.5404    0.3071 H   0  0  0  0  0  0  0  0  0  0  0  0
   12.9949   23.8517   -0.8532 C   0  0  0  0  0  0  0  0  0  0  0  0
   13.0297   24.7502   -2.0886 N   0  0  0  0  0  0  0  0  0  0  0  0
   14.0488   24.6641   -3.0235 C   0  0  0  0  0  0  0  0  0  0  0  0
   14.9800   23.8037   -2.8407 O   0  0  0  0  0  0  0  0  0  0  0  0
   12.2546   25.4228   -2.1894 H   0  0  0  0  0  0  0  0  0  0  0  0
   14.1555   25.4963   -4.2370 C   0  0  0  0  0  0  0  0  0  0  0  0
   15.1916   25.0391   -5.2104 C   0  0  0  0  0  0  0  0  0  0  0  0
   15.3020   26.2705   -6.1167 C   0  0  0  0  0  0  0  0  0  0  0  0
   15.2852   27.3580   -5.0845 C   0  0  0  0  0  0  0  0  0  0  0  0
   15.8371   28.4782   -5.2192 O   0  0  0  0  0  0  0  0  0  0  0  0
   14.5338   26.8642   -3.9563 N   0  0  0  0  0  0  0  0  0  0  0  0
   14.3439   27.4463   -3.1345 H   0  0  0  0  0  0  0  0  0  0  0  0
   13.5917   24.6984    0.1697 C   0  0  0  0  0  0  0  0  0  0  0  0
   14.9463   24.6751    0.6761 C   0  0  0  0  0  0  0  0  0  0  0  0
   15.9085   23.5922    0.3611 C   0  0  0  0  0  0  0  0  0  0  0  0
   14.5386   20.2298    1.2709 N   0  0  0  0  0  0  0  0  0  0  0  0
   14.9956   21.3728    0.5802 C   0  0  0  0  0  0  0  0  0  0  0  0
   14.9599   21.3636   -0.8393 N   0  0  0  0  0  0  0  0  0  0  0  0
   15.4432   22.4230    1.1740 N   0  0  0  0  0  0  0  0  0  0  0  0
   14.9001   19.3011    0.9579 H   0  0  0  0  0  0  0  0  0  0  0  0
   13.8728   20.2475    2.0622 H   0  0  0  0  0  0  0  0  0  0  0  0
   15.8540   21.1696   -1.3414 H   0  0  0  0  0  0  0  0  0  0  0  0
   14.0510   21.5494   -1.3265 H   0  0  0  0  0  0  0  0  0  0  0  0
    9.6264   21.8834   -0.2668 C   0  0  0  0  0  0  0  0  0  0  0  0
    9.0512   22.1060    1.0207 C   0  0  0  0  0  0  0  0  0  0  0  0
    8.7113   20.9465    1.6151 O   0  0  0  0  0  0  0  0  0  0  0  0
    8.7341   23.2435    1.8542 C   0  0  0  0  0  0  0  0  0  0  0  0
    7.6913   23.6912    2.4854 N   0  0  0  0  0  0  0  0  0  0  0  0
    7.6988   24.7871    3.1798 C   0  0  0  0  0  0  0  0  0  0  0  0
    6.6078   25.3335    3.8888 C   0  0  0  0  0  0  0  0  0  0  0  0
    6.7665   26.4945    4.5737 C   0  0  0  0  0  0  0  0  0  0  0  0
    7.9452   27.2100    4.6373 C   0  0  0  0  0  0  0  0  0  0  0  0
    9.0116   26.6812    3.9477 C   0  0  0  0  0  0  0  0  0  0  0  0
    8.8660   25.4859    3.2368 C   0  0  0  0  0  0  0  0  0  0  0  0
    9.8791   24.5046    2.2762 S   0  0  0  0  0  0  0  0  0  0  0  0
    9.5466   20.6959   -1.0940 C   0  0  0  0  0  0  0  0  0  0  0  0
    8.5257   20.4853   -2.1220 C   0  0  0  0  0  0  0  0  0  0  0  0
    7.3398   19.7149   -1.5171 C   0  0  0  0  0  0  0  0  0  0  0  0
    6.3658   20.6682   -1.0778 N   0  0  0  0  0  0  0  0  0  0  0  0
    6.1272   21.4922   -1.6488 H   0  0  0  0  0  0  0  0  0  0  0  0
    5.6928   20.5245    0.1929 C   0  0  0  0  0  0  0  0  0  0  0  0
    5.0606   19.2977    0.5101 N   0  0  0  0  0  0  0  0  0  0  0  0
    5.6433   21.4755    1.0608 N   0  0  0  0  0  0  0  0  0  0  0  0
    4.1033   19.2339    0.9547 H   0  0  0  0  0  0  0  0  0  0  0  0
    5.5337   18.3901    0.3079 H   0  0  0  0  0  0  0  0  0  0  0  0
    6.0768   22.4064    0.9174 H   0  0  0  0  0  0  0  0  0  0  0  0
 20 21  1  0  0  0
 21 22  1  0  0  0
 21 23  2  0  0  0
 23 19  1  0  0  0
 19 18  1  0  0  0
 18 17  1  0  0  0
 17  5  1  0  0  0
  5  6  1  0  0  0
  6  7  1  0  0  0
  7  8  2  0  0  0
  7 10  1  0  0  0
 10 11  1  0  0  0
 11 12  1  0  0  0
 12 13  1  0  0  0
 13 14  2  0  0  0
 13 15  1  0  0  0
  5  1  1  0  0  0
  1  2  2  0  0  0
  1  3  1  0  0  0
  3 28  1  0  0  0
 28 40  1  0  0  0
 40 41  1  0  0  0
 41 42  1  0  0  0
 42 43  1  0  0  0
 43 45  1  0  0  0
 45 46  1  0  0  0
 45 47  2  0  0  0
 28 29  1  0  0  0
 29 30  2  0  0  0
 29 31  1  0  0  0
 31 32  2  0  0  0
 32 33  1  0  0  0
 33 34  2  0  0  0
 34 35  1  0  0  0
 35 36  2  0  0  0
 36 37  1  0  0  0
 37 38  2  0  0  0
 38 39  1  0  0  0
 15 10  1  0  0  0
 39 31  1  0  0  0
 38 33  1  0  0  0
 20 24  1  0  0  0
 20 25  1  0  0  0
 22 26  1  0  0  0
 22 27  1  0  0  0
  6  9  1  0  0  0
 15 16  1  0  0  0
  3  4  1  0  0  0
 43 44  1  0  0  0
 46 48  1  0  0  0
 46 49  1  0  0  0
 47 50  1  0  0  0
M  END
> <minimizedAffinity>
-7.73768

> <CNNscore>
0.4182163477

> <CNNaffinity>
7.5840964317

> <CNN_VS>
3.1717932224

> <CNNaffinity_variance>
0.1494258046

$$$$
[H]N=C(N([H])[H])N([H])C([H])([H])C([H])([H])C([H])([H])[C@@]([H])(C(=O)c1nc2c([H])c([H])c([H])c([H])c2s1)N([H])C(=O)[C@@]([H])(N([H])C(=O)[C@@]1([H])N([H])C(=O)C([H])([H])C1([H])[H])C([H])([H])C([H])([H])C([H])([H])N=C(N([H])[H])N([H])[H]


 50 52  0  0  0  0  0  0  0  0999 V2000
   11.2742   22.2474    0.4368 C   0  0  0  0  0  0  0  0  0  0  0  0
   12.0023   22.5641    1.4729 O   0  0  0  0  0  0  0  0  0  0  0  0
   10.8354   23.3714   -0.2754 N   0  0  0  0  0  0  0  0  0  0  0  0
   10.2520   23.3022   -1.1220 H   0  0  0  0  0  0  0  0  0  0  0  0
   11.0526   20.8370    0.1892 C   0  0  0  0  0  0  0  0  0  0  0  0
    9.6580   20.7781   -0.4324 N   0  0  0  0  0  0  0  0  0  0  0  0
    8.5125   20.7768    0.3473 C   0  0  0  0  0  0  0  0  0  0  0  0
    8.6355   20.8298    1.6212 O   0  0  0  0  0  0  0  0  0  0  0  0
    9.6151   20.7401   -1.4620 H   0  0  0  0  0  0  0  0  0  0  0  0
    7.1341   20.7181   -0.1754 C   0  0  0  0  0  0  0  0  0  0  0  0
    6.3715   19.4995    0.2290 C   0  0  0  0  0  0  0  0  0  0  0  0
    5.1872   19.5626   -0.7423 C   0  0  0  0  0  0  0  0  0  0  0  0
    5.9027   19.9429   -2.0038 C   0  0  0  0  0  0  0  0  0  0  0  0
    5.5166   19.6440   -3.1610 O   0  0  0  0  0  0  0  0  0  0  0  0
    7.0752   20.6912   -1.6206 N   0  0  0  0  0  0  0  0  0  0  0  0
    7.7077   21.1013   -2.3149 H   0  0  0  0  0  0  0  0  0  0  0  0
   11.8479   20.0535   -0.7452 C   0  0  0  0  0  0  0  0  0  0  0  0
   13.1366   20.3760   -1.3170 C   0  0  0  0  0  0  0  0  0  0  0  0
   14.3851   20.4267   -0.5193 C   0  0  0  0  0  0  0  0  0  0  0  0
   15.7896   23.6560    0.7492 N   0  0  0  0  0  0  0  0  0  0  0  0
   15.4460   22.2995    0.5643 C   0  0  0  0  0  0  0  0  0  0  0  0
   15.9491   21.3435    1.4858 N   0  0  0  0  0  0  0  0  0  0  0  0
   14.6991   21.8866   -0.3987 N   0  0  0  0  0  0  0  0  0  0  0  0
   16.7972   23.8804    0.9092 H   0  0  0  0  0  0  0  0  0  0  0  0
   15.1157   24.4406    0.7376 H   0  0  0  0  0  0  0  0  0  0  0  0
   16.7769   20.7806    1.1908 H   0  0  0  0  0  0  0  0  0  0  0  0
   15.4789   21.2373    2.4163 H   0  0  0  0  0  0  0  0  0  0  0  0
   11.1919   24.7793    0.1299 C   0  0  0  0  0  0  0  0  0  0  0  0
   12.4944   25.0793   -0.3714 C   0  0  0  0  0  0  0  0  0  0  0  0
   13.3835   25.2325    0.6282 O   0  0  0  0  0  0  0  0  0  0  0  0
   13.1119   25.2651   -1.6650 C   0  0  0  0  0  0  0  0  0  0  0  0
   13.0641   26.1467   -2.6173 N   0  0  0  0  0  0  0  0  0  0  0  0
   13.7539   26.0470   -3.7116 C   0  0  0  0  0  0  0  0  0  0  0  0
   13.7521   26.9622   -4.7858 C   0  0  0  0  0  0  0  0  0  0  0  0
   14.5300   26.7232   -5.8721 C   0  0  0  0  0  0  0  0  0  0  0  0
   15.3505   25.6231   -6.0196 C   0  0  0  0  0  0  0  0  0  0  0  0
   15.3556   24.7281   -4.9749 C   0  0  0  0  0  0  0  0  0  0  0  0
   14.5606   24.9585   -3.8479 C   0  0  0  0  0  0  0  0  0  0  0  0
   14.2643   24.1485   -2.3754 S   0  0  0  0  0  0  0  0  0  0  0  0
   10.6938   24.9256    1.4832 C   0  0  0  0  0  0  0  0  0  0  0  0
    9.3359   24.5659    1.8958 C   0  0  0  0  0  0  0  0  0  0  0  0
    9.3391   24.1712    3.3824 C   0  0  0  0  0  0  0  0  0  0  0  0
    8.6308   22.9342    3.5172 N   0  0  0  0  0  0  0  0  0  0  0  0
    9.1067   22.0283    3.3956 H   0  0  0  0  0  0  0  0  0  0  0  0
    7.2158   22.9059    3.8093 C   0  0  0  0  0  0  0  0  0  0  0  0
    6.5733   21.6612    4.0170 N   0  0  0  0  0  0  0  0  0  0  0  0
    6.5048   23.9774    3.8909 N   0  0  0  0  0  0  0  0  0  0  0  0
    5.6317   21.4157    3.6032 H   0  0  0  0  0  0  0  0  0  0  0  0
    7.0233   20.9239    4.6023 H   0  0  0  0  0  0  0  0  0  0  0  0
    6.8874   24.9315    3.7550 H   0  0  0  0  0  0  0  0  0  0  0  0
 20 21  1  0  0  0
 21 22  1  0  0  0
 21 23  2  0  0  0
 23 19  1  0  0  0
 19 18  1  0  0  0
 18 17  1  0  0  0
 17  5  1  0  0  0
  5  6  1  0  0  0
  6  7  1  0  0  0
  7  8  2  0  0  0
  7 10  1  0  0  0
 10 11  1  0  0  0
 11 12  1  0  0  0
 12 13  1  0  0  0
 13 14  2  0  0  0
 13 15  1  0  0  0
  5  1  1  0  0  0
  1  2  2  0  0  0
  1  3  1  0  0  0
  3 28  1  0  0  0
 28 40  1  0  0  0
 40 41  1  0  0  0
 41 42  1  0  0  0
 42 43  1  0  0  0
 43 45  1  0  0  0
 45 46  1  0  0  0
 45 47  2  0  0  0
 28 29  1  0  0  0
 29 30  2  0  0  0
 29 31  1  0  0  0
 31 32  2  0  0  0
 32 33  1  0  0  0
 33 34  2  0  0  0
 34 35  1  0  0  0
 35 36  2  0  0  0
 36 37  1  0  0  0
 37 38  2  0  0  0
 38 39  1  0  0  0
 15 10  1  0  0  0
 39 31  1  0  0  0
 38 33  1  0  0  0
 20 24  1  0  0  0
 20 25  1  0  0  0
 22 26  1  0  0  0
 22 27  1  0  0  0
  6  9  1  0  0  0
 15 16  1  0  0  0
  3  4  1  0  0  0
 43 44  1  0  0  0
 46 48  1  0  0  0
 46 49  1  0  0  0
 47 50  1  0  0  0
M  END
> <minimizedAffinity>
-7.22309

> <CNNscore>
0.3910527527

> <CNNaffinity>
7.5236406326

> <CNN_VS>
2.9421403408

> <CNNaffinity_variance>
0.0238204245

$$$$
[H]N=C(N([H])[H])N([H])C([H])([H])C([H])([H])C([H])([H])[C@@]([H])(C(=O)c1nc2c([H])c([H])c([H])c([H])c2s1)N([H])C(=O)[C@@]([H])(N([H])C(=O)[C@@]1([H])N([H])C(=O)C([H])([H])C1([H])[H])C([H])([H])C([H])([H])C([H])([H])N=C(N([H])[H])N([H])[H]


 50 52  0  0  0  0  0  0  0  0999 V2000
   10.3958   21.7111    0.5845 C   0  0  0  0  0  0  0  0  0  0  0  0
   11.0521   21.7726    1.7112 O   0  0  0  0  0  0  0  0  0  0  0  0
    9.6623   22.8765    0.3256 N   0  0  0  0  0  0  0  0  0  0  0  0
    9.0889   22.9976   -0.5220 H   0  0  0  0  0  0  0  0  0  0  0  0
   10.5332   20.4984   -0.1966 C   0  0  0  0  0  0  0  0  0  0  0  0
    9.1675   20.3196   -0.8582 N   0  0  0  0  0  0  0  0  0  0  0  0
    8.0132   20.1475   -0.1112 C   0  0  0  0  0  0  0  0  0  0  0  0
    8.1025   20.1426    1.1666 O   0  0  0  0  0  0  0  0  0  0  0  0
    9.1510   20.3346   -1.8892 H   0  0  0  0  0  0  0  0  0  0  0  0
    6.6615   19.9652   -0.6736 C   0  0  0  0  0  0  0  0  0  0  0  0
    6.3021   18.5464   -0.9705 C   0  0  0  0  0  0  0  0  0  0  0  0
    5.0616   18.7392   -1.8502 C   0  0  0  0  0  0  0  0  0  0  0  0
    5.5265   19.8731   -2.7141 C   0  0  0  0  0  0  0  0  0  0  0  0
    5.1322   20.0840   -3.8878 O   0  0  0  0  0  0  0  0  0  0  0  0
    6.4795   20.6341   -1.9434 N   0  0  0  0  0  0  0  0  0  0  0  0
    6.9090   21.4912   -2.3056 H   0  0  0  0  0  0  0  0  0  0  0  0
   11.4481   20.3701   -1.3217 C   0  0  0  0  0  0  0  0  0  0  0  0
   12.8878   20.2344   -1.2968 C   0  0  0  0  0  0  0  0  0  0  0  0
   13.8109   21.3638   -1.5613 C   0  0  0  0  0  0  0  0  0  0  0  0
   16.0652   21.1686    1.4204 N   0  0  0  0  0  0  0  0  0  0  0  0
   14.9823   21.3974    0.5444 C   0  0  0  0  0  0  0  0  0  0  0  0
   13.8079   22.0020    1.0655 N   0  0  0  0  0  0  0  0  0  0  0  0
   15.0071   21.0847   -0.7036 N   0  0  0  0  0  0  0  0  0  0  0  0
   15.8571   20.7053    2.3331 H   0  0  0  0  0  0  0  0  0  0  0  0
   17.0469   21.4273    1.2225 H   0  0  0  0  0  0  0  0  0  0  0  0
   13.0030   21.3760    1.2878 H   0  0  0  0  0  0  0  0  0  0  0  0
   13.7899   23.0402    1.2065 H   0  0  0  0  0  0  0  0  0  0  0  0
    9.6610   24.0593    1.2607 C   0  0  0  0  0  0  0  0  0  0  0  0
   10.8815   24.7784    1.0838 C   0  0  0  0  0  0  0  0  0  0  0  0
   11.0860   25.6550    2.0853 O   0  0  0  0  0  0  0  0  0  0  0  0
   11.9540   24.8180    0.1155 C   0  0  0  0  0  0  0  0  0  0  0  0
   13.2510   24.7568    0.1387 N   0  0  0  0  0  0  0  0  0  0  0  0
   13.9835   24.8254   -0.9298 C   0  0  0  0  0  0  0  0  0  0  0  0
   15.3926   24.7669   -0.9811 C   0  0  0  0  0  0  0  0  0  0  0  0
   16.0246   24.8530   -2.1792 C   0  0  0  0  0  0  0  0  0  0  0  0
   15.3833   24.9979   -3.3928 C   0  0  0  0  0  0  0  0  0  0  0  0
   14.0096   25.0554   -3.3479 C   0  0  0  0  0  0  0  0  0  0  0  0
   13.3420   24.9681   -2.1224 C   0  0  0  0  0  0  0  0  0  0  0  0
   11.7133   24.9937   -1.6138 S   0  0  0  0  0  0  0  0  0  0  0  0
    9.0754   23.5719    2.4937 C   0  0  0  0  0  0  0  0  0  0  0  0
    7.7067   23.0635    2.6012 C   0  0  0  0  0  0  0  0  0  0  0  0
    7.6274   22.0425    3.7489 C   0  0  0  0  0  0  0  0  0  0  0  0
    6.2459   21.8148    4.0488 N   0  0  0  0  0  0  0  0  0  0  0  0
    5.6819   22.5206    4.5443 H   0  0  0  0  0  0  0  0  0  0  0  0
    5.5919   20.5780    3.6869 C   0  0  0  0  0  0  0  0  0  0  0  0
    5.4881   19.5400    4.6446 N   0  0  0  0  0  0  0  0  0  0  0  0
    5.0921   20.3767    2.5165 N   0  0  0  0  0  0  0  0  0  0  0  0
    5.6719   18.5227    4.4227 H   0  0  0  0  0  0  0  0  0  0  0  0
    5.2198   19.7533    5.6299 H   0  0  0  0  0  0  0  0  0  0  0  0
    5.1196   21.0772    1.7525 H   0  0  0  0  0  0  0  0  0  0  0  0
 20 21  1  0  0  0
 21 22  1  0  0  0
 21 23  2  0  0  0
 23 19  1  0  0  0
 19 18  1  0  0  0
 18 17  1  0  0  0
 17  5  1  0  0  0
  5  6  1  0  0  0
  6  7  1  0  0  0
  7  8  2  0  0  0
  7 10  1  0  0  0
 10 11  1  0  0  0
 11 12  1  0  0  0
 12 13  1  0  0  0
 13 14  2  0  0  0
 13 15  1  0  0  0
  5  1  1  0  0  0
  1  2  2  0  0  0
  1  3  1  0  0  0
  3 28  1  0  0  0
 28 40  1  0  0  0
 40 41  1  0  0  0
 41 42  1  0  0  0
 42 43  1  0  0  0
 43 45  1  0  0  0
 45 46  1  0  0  0
 45 47  2  0  0  0
 28 29  1  0  0  0
 29 30  2  0  0  0
 29 31  1  0  0  0
 31 32  2  0  0  0
 32 33  1  0  0  0
 33 34  2  0  0  0
 34 35  1  0  0  0
 35 36  2  0  0  0
 36 37  1  0  0  0
 37 38  2  0  0  0
 38 39  1  0  0  0
 15 10  1  0  0  0
 39 31  1  0  0  0
 38 33  1  0  0  0
 20 24  1  0  0  0
 20 25  1  0  0  0
 22 26  1  0  0  0
 22 27  1  0  0  0
  6  9  1  0  0  0
 15 16  1  0  0  0
  3  4  1  0  0  0
 43 44  1  0  0  0
 46 48  1  0  0  0
 46 49  1  0  0  0
 47 50  1  0  0  0
M  END
> <minimizedAffinity>
-5.22788

> <CNNscore>
0.3263351023

> <CNNaffinity>
7.3250298500

> <CNN_VS>
2.3904144764

> <CNNaffinity_variance>
0.2228598595

$$$$
[H]N=C(N([H])[H])N([H])C([H])([H])C([H])([H])C([H])([H])[C@@]([H])(C(=O)c1nc2c([H])c([H])c([H])c([H])c2s1)N([H])C(=O)[C@@]([H])(N([H])C(=O)[C@@]1([H])N([H])C(=O)C([H])([H])C1([H])[H])C([H])([H])C([H])([H])C([H])([H])N=C(N([H])[H])N([H])[H]


 50 52  0  0  0  0  0  0  0  0999 V2000
   13.1203   23.5080   -1.0244 C   0  0  0  0  0  0  0  0  0  0  0  0
   12.2785   23.4900   -2.0218 O   0  0  0  0  0  0  0  0  0  0  0  0
   12.5131   23.1880    0.1971 N   0  0  0  0  0  0  0  0  0  0  0  0
   13.0331   23.1537    1.0862 H   0  0  0  0  0  0  0  0  0  0  0  0
   14.4996   23.8324   -1.3276 C   0  0  0  0  0  0  0  0  0  0  0  0
   14.4091   24.7933   -2.5122 N   0  0  0  0  0  0  0  0  0  0  0  0
   15.4991   25.0473   -3.3291 C   0  0  0  0  0  0  0  0  0  0  0  0
   16.6066   24.4542   -3.0789 O   0  0  0  0  0  0  0  0  0  0  0  0
   13.4941   25.2415   -2.6713 H   0  0  0  0  0  0  0  0  0  0  0  0
   15.4933   25.9619   -4.4866 C   0  0  0  0  0  0  0  0  0  0  0  0
   14.1368   26.4373   -4.8916 C   0  0  0  0  0  0  0  0  0  0  0  0
   14.4356   27.0216   -6.2770 C   0  0  0  0  0  0  0  0  0  0  0  0
   15.3453   25.9599   -6.8187 C   0  0  0  0  0  0  0  0  0  0  0  0
   15.4707   25.6812   -8.0370 O   0  0  0  0  0  0  0  0  0  0  0  0
   16.0144   25.3556   -5.6924 N   0  0  0  0  0  0  0  0  0  0  0  0
   16.7254   24.6272   -5.8110 H   0  0  0  0  0  0  0  0  0  0  0  0
   15.3749   24.5460   -0.4088 C   0  0  0  0  0  0  0  0  0  0  0  0
   16.1861   24.0059    0.6599 C   0  0  0  0  0  0  0  0  0  0  0  0
   16.5175   22.5655    0.7744 C   0  0  0  0  0  0  0  0  0  0  0  0
   13.6381   20.3234    1.6065 N   0  0  0  0  0  0  0  0  0  0  0  0
   14.7437   20.9487    0.9908 C   0  0  0  0  0  0  0  0  0  0  0  0
   15.2089   20.4323   -0.2473 N   0  0  0  0  0  0  0  0  0  0  0  0
   15.3510   21.9642    1.4969 N   0  0  0  0  0  0  0  0  0  0  0  0
   13.6600   19.2827    1.6936 H   0  0  0  0  0  0  0  0  0  0  0  0
   12.8105   20.8220    1.9757 H   0  0  0  0  0  0  0  0  0  0  0  0
   16.0517   19.8172   -0.2255 H   0  0  0  0  0  0  0  0  0  0  0  0
   14.6980   20.6829   -1.1272 H   0  0  0  0  0  0  0  0  0  0  0  0
   11.0475   22.8530    0.3119 C   0  0  0  0  0  0  0  0  0  0  0  0
   10.6382   23.0662    1.6628 C   0  0  0  0  0  0  0  0  0  0  0  0
   11.3300   22.2868    2.5156 O   0  0  0  0  0  0  0  0  0  0  0  0
    9.6781   23.8931    2.3583 C   0  0  0  0  0  0  0  0  0  0  0  0
    9.5860   25.1385    2.7148 N   0  0  0  0  0  0  0  0  0  0  0  0
    8.5672   25.6184    3.3589 C   0  0  0  0  0  0  0  0  0  0  0  0
    8.3991   26.9554    3.7781 C   0  0  0  0  0  0  0  0  0  0  0  0
    7.2735   27.3122    4.4474 C   0  0  0  0  0  0  0  0  0  0  0  0
    6.2445   26.4482    4.7631 C   0  0  0  0  0  0  0  0  0  0  0  0
    6.4038   25.1438    4.3565 C   0  0  0  0  0  0  0  0  0  0  0  0
    7.5570   24.7585    3.6658 C   0  0  0  0  0  0  0  0  0  0  0  0
    8.1532   23.3057    2.9980 S   0  0  0  0  0  0  0  0  0  0  0  0
   10.8591   21.6734   -0.5090 C   0  0  0  0  0  0  0  0  0  0  0  0
   10.0528   20.5198   -0.1060 C   0  0  0  0  0  0  0  0  0  0  0  0
    8.5600   20.8681   -0.2320 C   0  0  0  0  0  0  0  0  0  0  0  0
    8.0811   20.3375   -1.4727 N   0  0  0  0  0  0  0  0  0  0  0  0
    8.3669   20.7444   -2.3753 H   0  0  0  0  0  0  0  0  0  0  0  0
    7.1619   19.2231   -1.5090 C   0  0  0  0  0  0  0  0  0  0  0  0
    6.0560   19.2622   -2.3926 N   0  0  0  0  0  0  0  0  0  0  0  0
    7.3073   18.1820   -0.7639 N   0  0  0  0  0  0  0  0  0  0  0  0
    5.0793   18.9655   -2.1165 H   0  0  0  0  0  0  0  0  0  0  0  0
    6.1735   19.5965   -3.3739 H   0  0  0  0  0  0  0  0  0  0  0  0
    8.0852   18.0639   -0.0885 H   0  0  0  0  0  0  0  0  0  0  0  0
 20 21  1  0  0  0
 21 22  1  0  0  0
 21 23  2  0  0  0
 23 19  1  0  0  0
 19 18  1  0  0  0
 18 17  1  0  0  0
 17  5  1  0  0  0
  5  6  1  0  0  0
  6  7  1  0  0  0
  7  8  2  0  0  0
  7 10  1  0  0  0
 10 11  1  0  0  0
 11 12  1  0  0  0
 12 13  1  0  0  0
 13 14  2  0  0  0
 13 15  1  0  0  0
  5  1  1  0  0  0
  1  2  2  0  0  0
  1  3  1  0  0  0
  3 28  1  0  0  0
 28 40  1  0  0  0
 40 41  1  0  0  0
 41 42  1  0  0  0
 42 43  1  0  0  0
 43 45  1  0  0  0
 45 46  1  0  0  0
 45 47  2  0  0  0
 28 29  1  0  0  0
 29 30  2  0  0  0
 29 31  1  0  0  0
 31 32  2  0  0  0
 32 33  1  0  0  0
 33 34  2  0  0  0
 34 35  1  0  0  0
 35 36  2  0  0  0
 36 37  1  0  0  0
 37 38  2  0  0  0
 38 39  1  0  0  0
 15 10  1  0  0  0
 39 31  1  0  0  0
 38 33  1  0  0  0
 20 24  1  0  0  0
 20 25  1  0  0  0
 22 26  1  0  0  0
 22 27  1  0  0  0
  6  9  1  0  0  0
 15 16  1  0  0  0
  3  4  1  0  0  0
 43 44  1  0  0  0
 46 48  1  0  0  0
 46 49  1  0  0  0
 47 50  1  0  0  0
M  END
> <minimizedAffinity>
-6.78268

> <CNNscore>
0.3186198771

> <CNNaffinity>
7.5788321495

> <CNN_VS>
2.4147665501

> <CNNaffinity_variance>
0.0201057997

$$$$
[H]N=C(N([H])[H])N([H])C([H])([H])C([H])([H])C([H])([H])[C@@]([H])(C(=O)c1nc2c([H])c([H])c([H])c([H])c2s1)N([H])C(=O)[C@@]([H])(N([H])C(=O)[C@@]1([H])N([H])C(=O)C([H])([H])C1([H])[H])C([H])([H])C([H])([H])C([H])([H])N=C(N([H])[H])N([H])[H]


 50 52  0  0  0  0  0  0  0  0999 V2000
   10.0946   21.4837    0.8239 C   0  0  0  0  0  0  0  0  0  0  0  0
   10.7193   21.5548    1.9678 O   0  0  0  0  0  0  0  0  0  0  0  0
    9.2801   22.5987    0.5861 N   0  0  0  0  0  0  0  0  0  0  0  0
    8.7179   22.7059   -0.2708 H   0  0  0  0  0  0  0  0  0  0  0  0
   10.3412   20.3131    0.0062 C   0  0  0  0  0  0  0  0  0  0  0  0
    9.0284   20.0942   -0.7443 N   0  0  0  0  0  0  0  0  0  0  0  0
    7.8120   20.0381   -0.0830 C   0  0  0  0  0  0  0  0  0  0  0  0
    7.7971   20.1777    1.1902 O   0  0  0  0  0  0  0  0  0  0  0  0
    9.0961   19.9912   -1.7681 H   0  0  0  0  0  0  0  0  0  0  0  0
    6.5049   19.8268   -0.7337 C   0  0  0  0  0  0  0  0  0  0  0  0
    6.2741   18.4331   -1.2180 C   0  0  0  0  0  0  0  0  0  0  0  0
    5.0612   18.6406   -2.1322 C   0  0  0  0  0  0  0  0  0  0  0  0
    5.4700   19.9046   -2.8274 C   0  0  0  0  0  0  0  0  0  0  0  0
    5.1110   20.2298   -3.9862 O   0  0  0  0  0  0  0  0  0  0  0  0
    6.3245   20.6329   -1.9214 N   0  0  0  0  0  0  0  0  0  0  0  0
    6.6988   21.5580   -2.1545 H   0  0  0  0  0  0  0  0  0  0  0  0
   11.3267   20.2778   -1.0648 C   0  0  0  0  0  0  0  0  0  0  0  0
   12.7672   20.2066   -0.9571 C   0  0  0  0  0  0  0  0  0  0  0  0
   13.6724   21.2309   -1.5306 C   0  0  0  0  0  0  0  0  0  0  0  0
   16.0082   21.2109    1.3941 N   0  0  0  0  0  0  0  0  0  0  0  0
   14.8747   21.2928    0.5569 C   0  0  0  0  0  0  0  0  0  0  0  0
   13.6154   21.5724    1.1503 N   0  0  0  0  0  0  0  0  0  0  0  0
   14.9267   21.1264   -0.7180 N   0  0  0  0  0  0  0  0  0  0  0  0
   15.9320   20.6199    2.2520 H   0  0  0  0  0  0  0  0  0  0  0  0
   16.9058   21.6938    1.2182 H   0  0  0  0  0  0  0  0  0  0  0  0
   12.9694   20.7682    1.3088 H   0  0  0  0  0  0  0  0  0  0  0  0
   13.3812   22.5617    1.4046 H   0  0  0  0  0  0  0  0  0  0  0  0
    9.1679   23.7444    1.5599 C   0  0  0  0  0  0  0  0  0  0  0  0
   10.3368   24.5555    1.4422 C   0  0  0  0  0  0  0  0  0  0  0  0
   10.3656   25.5171    2.3844 O   0  0  0  0  0  0  0  0  0  0  0  0
   11.4952   24.6211    0.5802 C   0  0  0  0  0  0  0  0  0  0  0  0
   12.7851   24.6357    0.7300 N   0  0  0  0  0  0  0  0  0  0  0  0
   13.6139   24.7070   -0.2656 C   0  0  0  0  0  0  0  0  0  0  0  0
   15.0224   24.7280   -0.1792 C   0  0  0  0  0  0  0  0  0  0  0  0
   15.7631   24.8062   -1.3139 C   0  0  0  0  0  0  0  0  0  0  0  0
   15.2368   24.8689   -2.5884 C   0  0  0  0  0  0  0  0  0  0  0  0
   13.8642   24.8487   -2.6776 C   0  0  0  0  0  0  0  0  0  0  0  0
   13.0855   24.7684   -1.5190 C   0  0  0  0  0  0  0  0  0  0  0  0
   11.4158   24.7187   -1.1701 S   0  0  0  0  0  0  0  0  0  0  0  0
    8.5876   23.1724    2.7586 C   0  0  0  0  0  0  0  0  0  0  0  0
    8.1898   23.9591    3.9275 C   0  0  0  0  0  0  0  0  0  0  0  0
    7.0872   24.9534    3.5256 C   0  0  0  0  0  0  0  0  0  0  0  0
    7.1616   26.0815    4.4043 N   0  0  0  0  0  0  0  0  0  0  0  0
    6.5843   26.1360    5.2561 H   0  0  0  0  0  0  0  0  0  0  0  0
    8.0343   27.1981    4.1220 C   0  0  0  0  0  0  0  0  0  0  0  0
    9.3789   27.1592    4.5647 N   0  0  0  0  0  0  0  0  0  0  0  0
    7.6375   28.2400    3.4762 N   0  0  0  0  0  0  0  0  0  0  0  0
    9.8678   27.9818    5.0144 H   0  0  0  0  0  0  0  0  0  0  0  0
    9.9466   26.2903    4.4586 H   0  0  0  0  0  0  0  0  0  0  0  0
    6.6734   28.3574    3.1132 H   0  0  0  0  0  0  0  0  0  0  0  0
 20 21  1  0  0  0
 21 22  1  0  0  0
 21 23  2  0  0  0
 23 19  1  0  0  0
 19 18  1  0  0  0
 18 17  1  0  0  0
 17  5  1  0  0  0
  5  6  1  0  0  0
  6  7  1  0  0  0
  7  8  2  0  0  0
  7 10  1  0  0  0
 10 11  1  0  0  0
 11 12  1  0  0  0
 12 13  1  0  0  0
 13 14  2  0  0  0
 13 15  1  0  0  0
  5  1  1  0  0  0
  1  2  2  0  0  0
  1  3  1  0  0  0
  3 28  1  0  0  0
 28 40  1  0  0  0
 40 41  1  0  0  0
 41 42  1  0  0  0
 42 43  1  0  0  0
 43 45  1  0  0  0
 45 46  1  0  0  0
 45 47  2  0  0  0
 28 29  1  0  0  0
 29 30  2  0  0  0
 29 31  1  0  0  0
 31 32  2  0  0  0
 32 33  1  0  0  0
 33 34  2  0  0  0
 34 35  1  0  0  0
 35 36  2  0  0  0
 36 37  1  0  0  0
 37 38  2  0  0  0
 38 39  1  0  0  0
 15 10  1  0  0  0
 39 31  1  0  0  0
 38 33  1  0  0  0
 20 24  1  0  0  0
 20 25  1  0  0  0
 22 26  1  0  0  0
 22 27  1  0  0  0
  6  9  1  0  0  0
 15 16  1  0  0  0
  3  4  1  0  0  0
 43 44  1  0  0  0
 46 48  1  0  0  0
 46 49  1  0  0  0
 47 50  1  0  0  0
M  END
> <minimizedAffinity>
-6.71404

> <CNNscore>
0.3012450039

> <CNNaffinity>
7.1528258324

> <CNN_VS>
2.1547529697

> <CNNaffinity_variance>
0.3248592019

$$$$
[H]N=C(N([H])[H])N([H])C([H])([H])C([H])([H])C([H])([H])[C@@]([H])(C(=O)c1nc2c([H])c([H])c([H])c([H])c2s1)N([H])C(=O)[C@@]([H])(N([H])C(=O)[C@@]1([H])N([H])C(=O)C([H])([H])C1([H])[H])C([H])([H])C([H])([H])C([H])([H])N=C(N([H])[H])N([H])[H]


 50 52  0  0  0  0  0  0  0  0999 V2000
   10.1059   22.1039   -0.7249 C   0  0  0  0  0  0  0  0  0  0  0  0
   10.6203   20.9070   -0.8068 O   0  0  0  0  0  0  0  0  0  0  0  0
   11.0825   23.1084   -0.7071 N   0  0  0  0  0  0  0  0  0  0  0  0
   10.8504   24.1107   -0.6480 H   0  0  0  0  0  0  0  0  0  0  0  0
    8.6609   22.2020   -0.6784 C   0  0  0  0  0  0  0  0  0  0  0  0
    8.1940   20.7700   -0.4213 N   0  0  0  0  0  0  0  0  0  0  0  0
    7.6558   19.9872   -1.4300 C   0  0  0  0  0  0  0  0  0  0  0  0
    7.5538   20.4842   -2.6062 O   0  0  0  0  0  0  0  0  0  0  0  0
    8.3015   20.4177    0.5419 H   0  0  0  0  0  0  0  0  0  0  0  0
    7.1798   18.6010   -1.2616 C   0  0  0  0  0  0  0  0  0  0  0  0
    5.8047   18.3518   -1.7881 C   0  0  0  0  0  0  0  0  0  0  0  0
    5.4878   16.9978   -1.1428 C   0  0  0  0  0  0  0  0  0  0  0  0
    6.0210   17.2345    0.2384 C   0  0  0  0  0  0  0  0  0  0  0  0
    5.5858   16.6771    1.2765 O   0  0  0  0  0  0  0  0  0  0  0  0
    7.0913   18.1950    0.1241 N   0  0  0  0  0  0  0  0  0  0  0  0
    7.6464   18.4874    0.9344 H   0  0  0  0  0  0  0  0  0  0  0  0
    7.9420   22.9558    0.3386 C   0  0  0  0  0  0  0  0  0  0  0  0
    8.4849   23.7596    1.4114 C   0  0  0  0  0  0  0  0  0  0  0  0
    7.6924   24.1692    2.5954 C   0  0  0  0  0  0  0  0  0  0  0  0
    6.1399   21.7339    4.9765 N   0  0  0  0  0  0  0  0  0  0  0  0
    6.6029   22.9004    4.3304 C   0  0  0  0  0  0  0  0  0  0  0  0
    6.3569   24.1563    4.9456 N   0  0  0  0  0  0  0  0  0  0  0  0
    7.2371   22.8814    3.2109 N   0  0  0  0  0  0  0  0  0  0  0  0
    5.1494   21.7277    5.3082 H   0  0  0  0  0  0  0  0  0  0  0  0
    6.7110   20.8881    5.1442 H   0  0  0  0  0  0  0  0  0  0  0  0
    5.5630   24.7248    4.5772 H   0  0  0  0  0  0  0  0  0  0  0  0
    6.9716   24.4647    5.7362 H   0  0  0  0  0  0  0  0  0  0  0  0
   12.5578   22.8077   -0.7870 C   0  0  0  0  0  0  0  0  0  0  0  0
   12.9775   22.2617    0.4634 C   0  0  0  0  0  0  0  0  0  0  0  0
   14.3121   22.3536    0.6176 O   0  0  0  0  0  0  0  0  0  0  0  0
   12.3525   21.6346    1.6059 C   0  0  0  0  0  0  0  0  0  0  0  0
   11.5127   21.9828    2.5333 N   0  0  0  0  0  0  0  0  0  0  0  0
   11.1178   21.1780    3.4711 C   0  0  0  0  0  0  0  0  0  0  0  0
   10.2116   21.4856    4.5083 C   0  0  0  0  0  0  0  0  0  0  0  0
    9.8917   20.5357    5.4234 C   0  0  0  0  0  0  0  0  0  0  0  0
   10.3951   19.2505    5.4251 C   0  0  0  0  0  0  0  0  0  0  0  0
   11.2789   18.9459    4.4159 C   0  0  0  0  0  0  0  0  0  0  0  0
   11.6198   19.9122    3.4644 C   0  0  0  0  0  0  0  0  0  0  0  0
   12.6349   19.9728    2.0940 S   0  0  0  0  0  0  0  0  0  0  0  0
   13.1347   23.9148   -1.5236 C   0  0  0  0  0  0  0  0  0  0  0  0
   12.6420   25.2912   -1.4454 C   0  0  0  0  0  0  0  0  0  0  0  0
   12.9917   26.0358   -2.7451 C   0  0  0  0  0  0  0  0  0  0  0  0
   13.8448   25.1924   -3.5269 N   0  0  0  0  0  0  0  0  0  0  0  0
   13.5364   24.2599   -3.8386 H   0  0  0  0  0  0  0  0  0  0  0  0
   15.1799   25.6062   -3.8934 C   0  0  0  0  0  0  0  0  0  0  0  0
   15.4306   26.9695   -4.1830 N   0  0  0  0  0  0  0  0  0  0  0  0
   16.1646   24.7784   -3.9680 N   0  0  0  0  0  0  0  0  0  0  0  0
   16.0187   27.2925   -5.0003 H   0  0  0  0  0  0  0  0  0  0  0  0
   15.0297   27.7213   -3.5811 H   0  0  0  0  0  0  0  0  0  0  0  0
   16.0771   23.7637   -3.7735 H   0  0  0  0  0  0  0  0  0  0  0  0
 20 21  1  0  0  0
 21 22  1  0  0  0
 21 23  2  0  0  0
 23 19  1  0  0  0
 19 18  1  0  0  0
 18 17  1  0  0  0
 17  5  1  0  0  0
  5  6  1  0  0  0
  6  7  1  0  0  0
  7  8  2  0  0  0
  7 10  1  0  0  0
 10 11  1  0  0  0
 11 12  1  0  0  0
 12 13  1  0  0  0
 13 14  2  0  0  0
 13 15  1  0  0  0
  5  1  1  0  0  0
  1  2  2  0  0  0
  1  3  1  0  0  0
  3 28  1  0  0  0
 28 40  1  0  0  0
 40 41  1  0  0  0
 41 42  1  0  0  0
 42 43  1  0  0  0
 43 45  1  0  0  0
 45 46  1  0  0  0
 45 47  2  0  0  0
 28 29  1  0  0  0
 29 30  2  0  0  0
 29 31  1  0  0  0
 31 32  2  0  0  0
 32 33  1  0  0  0
 33 34  2  0  0  0
 34 35  1  0  0  0
 35 36  2  0  0  0
 36 37  1  0  0  0
 37 38  2  0  0  0
 38 39  1  0  0  0
 15 10  1  0  0  0
 39 31  1  0  0  0
 38 33  1  0  0  0
 20 24  1  0  0  0
 20 25  1  0  0  0
 22 26  1  0  0  0
 22 27  1  0  0  0
  6  9  1  0  0  0
 15 16  1  0  0  0
  3  4  1  0  0  0
 43 44  1  0  0  0
 46 48  1  0  0  0
 46 49  1  0  0  0
 47 50  1  0  0  0
M  END
> <minimizedAffinity>
-5.17499

> <CNNscore>
0.2587227225

> <CNNaffinity>
7.0488448143

> <CNN_VS>
1.8236963749

> <CNNaffinity_variance>
0.1820603013

$$$$
[H]N=C(N([H])[H])N([H])C([H])([H])C([H])([H])C([H])([H])[C@@]([H])(C(=O)c1nc2c([H])c([H])c([H])c([H])c2s1)N([H])C(=O)[C@@]([H])(N([H])C(=O)[C@@]1([H])N([H])C(=O)C([H])([H])C1([H])[H])C([H])([H])C([H])([H])C([H])([H])N=C(N([H])[H])N([H])[H]


 50 52  0  0  0  0  0  0  0  0999 V2000
   13.0129   24.4087   -0.5741 C   0  0  0  0  0  0  0  0  0  0  0  0
   12.3658   25.3748   -1.1671 O   0  0  0  0  0  0  0  0  0  0  0  0
   12.1883   23.6423    0.2600 N   0  0  0  0  0  0  0  0  0  0  0  0
   12.5367   22.8383    0.8023 H   0  0  0  0  0  0  0  0  0  0  0  0
   14.4256   24.2789   -0.8693 C   0  0  0  0  0  0  0  0  0  0  0  0
   14.6305   25.1377   -2.1164 N   0  0  0  0  0  0  0  0  0  0  0  0
   15.7629   25.0172   -2.9058 C   0  0  0  0  0  0  0  0  0  0  0  0
   16.6543   24.1587   -2.5756 O   0  0  0  0  0  0  0  0  0  0  0  0
   13.8814   25.8105   -2.3390 H   0  0  0  0  0  0  0  0  0  0  0  0
   16.0356   25.8101   -4.1196 C   0  0  0  0  0  0  0  0  0  0  0  0
   16.0145   27.2885   -3.9096 C   0  0  0  0  0  0  0  0  0  0  0  0
   15.9527   27.7867   -5.3580 C   0  0  0  0  0  0  0  0  0  0  0  0
   14.9509   26.8250   -5.9235 C   0  0  0  0  0  0  0  0  0  0  0  0
   14.1799   27.0792   -6.8818 O   0  0  0  0  0  0  0  0  0  0  0  0
   15.0581   25.6021   -5.1657 N   0  0  0  0  0  0  0  0  0  0  0  0
   14.5016   24.7723   -5.3936 H   0  0  0  0  0  0  0  0  0  0  0  0
   15.4762   24.7560    0.0185 C   0  0  0  0  0  0  0  0  0  0  0  0
   16.3944   23.9788    0.8214 C   0  0  0  0  0  0  0  0  0  0  0  0
   16.5897   22.5202    0.6424 C   0  0  0  0  0  0  0  0  0  0  0  0
   13.5862   20.4731    1.5363 N   0  0  0  0  0  0  0  0  0  0  0  0
   14.6499   21.1068    0.8584 C   0  0  0  0  0  0  0  0  0  0  0  0
   14.8013   20.8689   -0.5332 N   0  0  0  0  0  0  0  0  0  0  0  0
   15.4894   21.8896    1.4400 N   0  0  0  0  0  0  0  0  0  0  0  0
   13.4589   19.4480    1.3816 H   0  0  0  0  0  0  0  0  0  0  0  0
   12.9261   20.9515    2.1729 H   0  0  0  0  0  0  0  0  0  0  0  0
   15.5270   20.1788   -0.8269 H   0  0  0  0  0  0  0  0  0  0  0  0
   14.1887   21.3868   -1.2075 H   0  0  0  0  0  0  0  0  0  0  0  0
   10.7157   23.9216    0.4243 C   0  0  0  0  0  0  0  0  0  0  0  0
   10.4217   23.9982    1.8191 C   0  0  0  0  0  0  0  0  0  0  0  0
   11.4061   23.4552    2.5603 O   0  0  0  0  0  0  0  0  0  0  0  0
    9.3485   24.5003    2.6470 C   0  0  0  0  0  0  0  0  0  0  0  0
    8.2998   24.0098    3.2353 N   0  0  0  0  0  0  0  0  0  0  0  0
    7.4795   24.7284    3.9380 C   0  0  0  0  0  0  0  0  0  0  0  0
    6.3238   24.2660    4.6029 C   0  0  0  0  0  0  0  0  0  0  0  0
    5.5575   25.1404    5.3033 C   0  0  0  0  0  0  0  0  0  0  0  0
    5.8226   26.4895    5.4241 C   0  0  0  0  0  0  0  0  0  0  0  0
    6.9483   26.9450    4.7778 C   0  0  0  0  0  0  0  0  0  0  0  0
    7.7493   26.0582    4.0517 C   0  0  0  0  0  0  0  0  0  0  0  0
    9.1795   26.1793    3.1288 S   0  0  0  0  0  0  0  0  0  0  0  0
   10.0589   23.1216   -0.5903 C   0  0  0  0  0  0  0  0  0  0  0  0
    9.2611   21.9292   -0.2986 C   0  0  0  0  0  0  0  0  0  0  0  0
   10.0529   20.9981    0.6351 C   0  0  0  0  0  0  0  0  0  0  0  0
    9.3953   20.9772    1.9069 N   0  0  0  0  0  0  0  0  0  0  0  0
    8.3873   21.1737    1.9921 H   0  0  0  0  0  0  0  0  0  0  0  0
   10.1221   20.6995    3.1246 C   0  0  0  0  0  0  0  0  0  0  0  0
    9.8093   21.4225    4.3014 N   0  0  0  0  0  0  0  0  0  0  0  0
   11.0531   19.8110    3.1872 N   0  0  0  0  0  0  0  0  0  0  0  0
   10.5416   21.8164    4.9546 H   0  0  0  0  0  0  0  0  0  0  0  0
    8.8158   21.5956    4.5685 H   0  0  0  0  0  0  0  0  0  0  0  0
   11.3499   19.2331    2.3791 H   0  0  0  0  0  0  0  0  0  0  0  0
 20 21  1  0  0  0
 21 22  1  0  0  0
 21 23  2  0  0  0
 23 19  1  0  0  0
 19 18  1  0  0  0
 18 17  1  0  0  0
 17  5  1  0  0  0
  5  6  1  0  0  0
  6  7  1  0  0  0
  7  8  2  0  0  0
  7 10  1  0  0  0
 10 11  1  0  0  0
 11 12  1  0  0  0
 12 13  1  0  0  0
 13 14  2  0  0  0
 13 15  1  0  0  0
  5  1  1  0  0  0
  1  2  2  0  0  0
  1  3  1  0  0  0
  3 28  1  0  0  0
 28 40  1  0  0  0
 40 41  1  0  0  0
 41 42  1  0  0  0
 42 43  1  0  0  0
 43 45  1  0  0  0
 45 46  1  0  0  0
 45 47  2  0  0  0
 28 29  1  0  0  0
 29 30  2  0  0  0
 29 31  1  0  0  0
 31 32  2  0  0  0
 32 33  1  0  0  0
 33 34  2  0  0  0
 34 35  1  0  0  0
 35 36  2  0  0  0
 36 37  1  0  0  0
 37 38  2  0  0  0
 38 39  1  0  0  0
 15 10  1  0  0  0
 39 31  1  0  0  0
 38 33  1  0  0  0
 20 24  1  0  0  0
 20 25  1  0  0  0
 22 26  1  0  0  0
 22 27  1  0  0  0
  6  9  1  0  0  0
 15 16  1  0  0  0
  3  4  1  0  0  0
 43 44  1  0  0  0
 46 48  1  0  0  0
 46 49  1  0  0  0
 47 50  1  0  0  0
M  END
> <minimizedAffinity>
-4.99450

> <CNNscore>
0.2317366451

> <CNNaffinity>
7.1058626175

> <CNN_VS>
1.6466888189

> <CNNaffinity_variance>
0.1960977614

$$$$
[H]N=C(N([H])[H])N([H])C([H])([H])C([H])([H])C([H])([H])[C@@]([H])(C(=O)c1nc2c([H])c([H])c([H])c([H])c2s1)N([H])C(=O)[C@@]([H])(N([H])C(=O)[C@@]1([H])N([H])C(=O)C([H])([H])C1([H])[H])C([H])([H])C([H])([H])C([H])([H])N=C(N([H])[H])N([H])[H]


 50 52  0  0  0  0  0  0  0  0999 V2000
   12.3060   21.3593   -1.1535 C   0  0  0  0  0  0  0  0  0  0  0  0
   11.5414   22.3197   -1.5971 O   0  0  0  0  0  0  0  0  0  0  0  0
   11.6709   20.5706   -0.1852 N   0  0  0  0  0  0  0  0  0  0  0  0
   12.1302   19.7674    0.2686 H   0  0  0  0  0  0  0  0  0  0  0  0
   13.6363   21.2571   -1.7190 C   0  0  0  0  0  0  0  0  0  0  0  0
   14.0221   22.7007   -2.0382 N   0  0  0  0  0  0  0  0  0  0  0  0
   14.7239   23.0301   -3.1866 C   0  0  0  0  0  0  0  0  0  0  0  0
   15.0509   22.0940   -3.9975 O   0  0  0  0  0  0  0  0  0  0  0  0
   13.7317   23.4158   -1.3543 H   0  0  0  0  0  0  0  0  0  0  0  0
   15.1359   24.3958   -3.5632 C   0  0  0  0  0  0  0  0  0  0  0  0
   14.0962   25.4417   -3.3280 C   0  0  0  0  0  0  0  0  0  0  0  0
   14.6705   26.6093   -4.1384 C   0  0  0  0  0  0  0  0  0  0  0  0
   15.1188   25.8790   -5.3688 C   0  0  0  0  0  0  0  0  0  0  0  0
   15.1875   26.3876   -6.5152 O   0  0  0  0  0  0  0  0  0  0  0  0
   15.4393   24.5297   -4.9713 N   0  0  0  0  0  0  0  0  0  0  0  0
   15.8138   23.8436   -5.6341 H   0  0  0  0  0  0  0  0  0  0  0  0
   14.7901   20.7803   -0.9700 C   0  0  0  0  0  0  0  0  0  0  0  0
   15.0976   20.9815    0.4288 C   0  0  0  0  0  0  0  0  0  0  0  0
   15.5897   22.2706    0.9710 C   0  0  0  0  0  0  0  0  0  0  0  0
   13.4607   25.3133    0.5023 N   0  0  0  0  0  0  0  0  0  0  0  0
   14.5327   24.3969    0.5601 C   0  0  0  0  0  0  0  0  0  0  0  0
   15.8255   24.8446    0.1799 N   0  0  0  0  0  0  0  0  0  0  0  0
   14.3959   23.1752    0.9405 N   0  0  0  0  0  0  0  0  0  0  0  0
   13.3501   25.8709   -0.3740 H   0  0  0  0  0  0  0  0  0  0  0  0
   12.7796   25.4710    1.2646 H   0  0  0  0  0  0  0  0  0  0  0  0
   16.1595   24.5928   -0.7762 H   0  0  0  0  0  0  0  0  0  0  0  0
   16.3912   25.4038    0.8621 H   0  0  0  0  0  0  0  0  0  0  0  0
   10.2542   20.8225    0.2654 C   0  0  0  0  0  0  0  0  0  0  0  0
   10.2774   21.2070    1.6400 C   0  0  0  0  0  0  0  0  0  0  0  0
   10.8074   20.2400    2.4128 O   0  0  0  0  0  0  0  0  0  0  0  0
    9.8813   22.3557    2.4229 C   0  0  0  0  0  0  0  0  0  0  0  0
    9.8449   23.6435    2.2599 N   0  0  0  0  0  0  0  0  0  0  0  0
    9.4273   24.4627    3.1751 C   0  0  0  0  0  0  0  0  0  0  0  0
    9.3603   25.8684    3.0695 C   0  0  0  0  0  0  0  0  0  0  0  0
    8.8992   26.5987    4.1166 C   0  0  0  0  0  0  0  0  0  0  0  0
    8.4757   26.0641    5.3166 C   0  0  0  0  0  0  0  0  0  0  0  0
    8.5391   24.6941    5.4242 C   0  0  0  0  0  0  0  0  0  0  0  0
    9.0115   23.9261    4.3554 C   0  0  0  0  0  0  0  0  0  0  0  0
    9.2545   22.2631    4.0594 S   0  0  0  0  0  0  0  0  0  0  0  0
    9.4620   19.7851   -0.3648 C   0  0  0  0  0  0  0  0  0  0  0  0
    8.2658   20.0467   -1.1673 C   0  0  0  0  0  0  0  0  0  0  0  0
    7.2344   18.9307   -0.9296 C   0  0  0  0  0  0  0  0  0  0  0  0
    6.0327   19.5317   -0.4346 N   0  0  0  0  0  0  0  0  0  0  0  0
    5.1820   18.9733   -0.2722 H   0  0  0  0  0  0  0  0  0  0  0  0
    5.9579   20.9488   -0.1620 C   0  0  0  0  0  0  0  0  0  0  0  0
    5.5289   21.8317   -1.1826 N   0  0  0  0  0  0  0  0  0  0  0  0
    6.2675   21.4500    0.9840 N   0  0  0  0  0  0  0  0  0  0  0  0
    5.9995   22.7559   -1.3887 H   0  0  0  0  0  0  0  0  0  0  0  0
    4.7104   21.5900   -1.7827 H   0  0  0  0  0  0  0  0  0  0  0  0
    6.5903   20.8830    1.7899 H   0  0  0  0  0  0  0  0  0  0  0  0
 20 21  1  0  0  0
 21 22  1  0  0  0
 21 23  2  0  0  0
 23 19  1  0  0  0
 19 18  1  0  0  0
 18 17  1  0  0  0
 17  5  1  0  0  0
  5  6  1  0  0  0
  6  7  1  0  0  0
  7  8  2  0  0  0
  7 10  1  0  0  0
 10 11  1  0  0  0
 11 12  1  0  0  0
 12 13  1  0  0  0
 13 14  2  0  0  0
 13 15  1  0  0  0
  5  1  1  0  0  0
  1  2  2  0  0  0
  1  3  1  0  0  0
  3 28  1  0  0  0
 28 40  1  0  0  0
 40 41  1  0  0  0
 41 42  1  0  0  0
 42 43  1  0  0  0
 43 45  1  0  0  0
 45 46  1  0  0  0
 45 47  2  0  0  0
 28 29  1  0  0  0
 29 30  2  0  0  0
 29 31  1  0  0  0
 31 32  2  0  0  0
 32 33  1  0  0  0
 33 34  2  0  0  0
 34 35  1  0  0  0
 35 36  2  0  0  0
 36 37  1  0  0  0
 37 38  2  0  0  0
 38 39  1  0  0  0
 15 10  1  0  0  0
 39 31  1  0  0  0
 38 33  1  0  0  0
 20 24  1  0  0  0
 20 25  1  0  0  0
 22 26  1  0  0  0
 22 27  1  0  0  0
  6  9  1  0  0  0
 15 16  1  0  0  0
  3  4  1  0  0  0
 43 44  1  0  0  0
 46 48  1  0  0  0
 46 49  1  0  0  0
 47 50  1  0  0  0
M  END
> <minimizedAffinity>
-8.35070

> <CNNscore>
0.1973099858

> <CNNaffinity>
7.1763205528

> <CNN_VS>
1.4159597158

> <CNNaffinity_variance>
0.0955011174

$$$$
[H]N=C(N([H])[H])N([H])C([H])([H])C([H])([H])C([H])([H])[C@@]([H])(C(=O)c1nc2c([H])c([H])c([H])c([H])c2s1)N([H])C(=O)[C@@]([H])(N([H])C(=O)[C@@]1([H])N([H])C(=O)C([H])([H])C1([H])[H])C([H])([H])C([H])([H])C([H])([H])N=C(N([H])[H])N([H])[H]


 50 52  0  0  0  0  0  0  0  0999 V2000
   11.2485   21.8083   -1.2656 C   0  0  0  0  0  0  0  0  0  0  0  0
   11.4004   20.5139   -1.1932 O   0  0  0  0  0  0  0  0  0  0  0  0
   12.4708   22.4931   -1.2759 N   0  0  0  0  0  0  0  0  0  0  0  0
   12.5340   23.5202   -1.3318 H   0  0  0  0  0  0  0  0  0  0  0  0
    9.8919   22.3132   -1.3330 C   0  0  0  0  0  0  0  0  0  0  0  0
    9.0368   21.1699   -0.7886 N   0  0  0  0  0  0  0  0  0  0  0  0
    8.3445   20.3137   -1.6297 C   0  0  0  0  0  0  0  0  0  0  0  0
    8.4320   20.4909   -2.8953 O   0  0  0  0  0  0  0  0  0  0  0  0
    9.0033   21.0695    0.2372 H   0  0  0  0  0  0  0  0  0  0  0  0
    7.4970   19.1918   -1.1830 C   0  0  0  0  0  0  0  0  0  0  0  0
    6.2088   19.0565   -1.9263 C   0  0  0  0  0  0  0  0  0  0  0  0
    5.4440   18.0952   -1.0093 C   0  0  0  0  0  0  0  0  0  0  0  0
    5.7905   18.6775    0.3283 C   0  0  0  0  0  0  0  0  0  0  0  0
    5.0612   18.6055    1.3484 O   0  0  0  0  0  0  0  0  0  0  0  0
    7.0812   19.3086    0.1978 N   0  0  0  0  0  0  0  0  0  0  0  0
    7.5555   19.7431    0.9956 H   0  0  0  0  0  0  0  0  0  0  0  0
    9.4229   23.4540   -0.5596 C   0  0  0  0  0  0  0  0  0  0  0  0
    9.7052   23.7794    0.8210 C   0  0  0  0  0  0  0  0  0  0  0  0
    8.6581   24.1977    1.7834 C   0  0  0  0  0  0  0  0  0  0  0  0
    9.3394   26.5824    4.5869 N   0  0  0  0  0  0  0  0  0  0  0  0
    8.7891   25.5931    3.7437 C   0  0  0  0  0  0  0  0  0  0  0  0
    7.6029   24.9334    4.1609 N   0  0  0  0  0  0  0  0  0  0  0  0
    9.3098   25.2597    2.6152 N   0  0  0  0  0  0  0  0  0  0  0  0
    9.4567   26.3437    5.5970 H   0  0  0  0  0  0  0  0  0  0  0  0
    9.6334   27.5239    4.2755 H   0  0  0  0  0  0  0  0  0  0  0  0
    7.7033   23.9823    4.5784 H   0  0  0  0  0  0  0  0  0  0  0  0
    6.6815   25.4168    4.0369 H   0  0  0  0  0  0  0  0  0  0  0  0
   13.7996   21.7829   -1.2198 C   0  0  0  0  0  0  0  0  0  0  0  0
   13.9913   21.2836    0.1038 C   0  0  0  0  0  0  0  0  0  0  0  0
   15.2844   20.9885    0.3362 O   0  0  0  0  0  0  0  0  0  0  0  0
   13.1673   21.0082    1.2590 C   0  0  0  0  0  0  0  0  0  0  0  0
   12.9107   19.9833    2.0141 N   0  0  0  0  0  0  0  0  0  0  0  0
   12.0922   20.0303    3.0196 C   0  0  0  0  0  0  0  0  0  0  0  0
   11.7652   18.9610    3.8805 C   0  0  0  0  0  0  0  0  0  0  0  0
   10.8866   19.1613    4.8954 C   0  0  0  0  0  0  0  0  0  0  0  0
   10.2648   20.3636    5.1656 C   0  0  0  0  0  0  0  0  0  0  0  0
   10.5804   21.4091    4.3290 C   0  0  0  0  0  0  0  0  0  0  0  0
   11.4837   21.2207    3.2784 C   0  0  0  0  0  0  0  0  0  0  0  0
   12.1409   22.1966    2.0423 S   0  0  0  0  0  0  0  0  0  0  0  0
   14.7009   22.5940   -2.0139 C   0  0  0  0  0  0  0  0  0  0  0  0
   14.9094   24.0275   -1.8016 C   0  0  0  0  0  0  0  0  0  0  0  0
   15.6575   24.6212   -3.0073 C   0  0  0  0  0  0  0  0  0  0  0  0
   14.6952   24.9303   -4.0215 N   0  0  0  0  0  0  0  0  0  0  0  0
   14.2034   24.1865   -4.5379 H   0  0  0  0  0  0  0  0  0  0  0  0
   14.3893   26.2974   -4.3760 C   0  0  0  0  0  0  0  0  0  0  0  0
   15.3945   27.1060   -4.9600 N   0  0  0  0  0  0  0  0  0  0  0  0
   13.2270   26.8187   -4.1824 N   0  0  0  0  0  0  0  0  0  0  0  0
   15.5710   28.1098   -4.6782 H   0  0  0  0  0  0  0  0  0  0  0  0
   16.0124   26.7245   -5.7091 H   0  0  0  0  0  0  0  0  0  0  0  0
   12.4304   26.3047   -3.7624 H   0  0  0  0  0  0  0  0  0  0  0  0
 20 21  1  0  0  0
 21 22  1  0  0  0
 21 23  2  0  0  0
 23 19  1  0  0  0
 19 18  1  0  0  0
 18 17  1  0  0  0
 17  5  1  0  0  0
  5  6  1  0  0  0
  6  7  1  0  0  0
  7  8  2  0  0  0
  7 10  1  0  0  0
 10 11  1  0  0  0
 11 12  1  0  0  0
 12 13  1  0  0  0
 13 14  2  0  0  0
 13 15  1  0  0  0
  5  1  1  0  0  0
  1  2  2  0  0  0
  1  3  1  0  0  0
  3 28  1  0  0  0
 28 40  1  0  0  0
 40 41  1  0  0  0
 41 42  1  0  0  0
 42 43  1  0  0  0
 43 45  1  0  0  0
 45 46  1  0  0  0
 45 47  2  0  0  0
 28 29  1  0  0  0
 29 30  2  0  0  0
 29 31  1  0  0  0
 31 32  2  0  0  0
 32 33  1  0  0  0
 33 34  2  0  0  0
 34 35  1  0  0  0
 35 36  2  0  0  0
 36 37  1  0  0  0
 37 38  2  0  0  0
 38 39  1  0  0  0
 15 10  1  0  0  0
 39 31  1  0  0  0
 38 33  1  0  0  0
 20 24  1  0  0  0
 20 25  1  0  0  0
 22 26  1  0  0  0
 22 27  1  0  0  0
  6  9  1  0  0  0
 15 16  1  0  0  0
  3  4  1  0  0  0
 43 44  1  0  0  0
 46 48  1  0  0  0
 46 49  1  0  0  0
 47 50  1  0  0  0
M  END
> <minimizedAffinity>
-6.45722

> <CNNscore>
0.1830292940

> <CNNaffinity>
7.1599717140

> <CNN_VS>
1.3104845285

> <CNNaffinity_variance>
0.0622809120

$$$$
[H]c1c([H])c(OC([H])([H])[H])c([H])c(C2([H])C(C(=O)OC(C([H])([H])[H])(C([H])([H])[H])C([H])([H])[H])=C(C([H])([H])[H])N=C(C([H])([H])[H])C2([H])C(=O)OC([H])([H])[H])c1[H]


 27 28  0  0  0  0  0  0  0  0999 V2000
   12.9094   22.5711   -1.0698 C   0  0  0  0  0  0  0  0  0  0  0  0
   13.1103   23.9468   -1.5576 C   0  0  0  0  0  0  0  0  0  0  0  0
   13.9851   24.0559   -2.7559 C   0  0  0  0  0  0  0  0  0  0  0  0
   14.5855   22.9870   -3.2624 C   0  0  0  0  0  0  0  0  0  0  0  0
   15.4605   23.1061   -4.4565 C   0  0  0  0  0  0  0  0  0  0  0  0
   14.3965   21.6912   -2.7187 N   0  0  0  0  0  0  0  0  0  0  0  0
   13.6449   21.5011   -1.7321 C   0  0  0  0  0  0  0  0  0  0  0  0
   13.5129   20.1043   -1.2176 C   0  0  0  0  0  0  0  0  0  0  0  0
   13.7116   24.7453   -0.4611 C   0  0  0  0  0  0  0  0  0  0  0  0
   12.9325   25.6389    0.2148 C   0  0  0  0  0  0  0  0  0  0  0  0
   13.4962   26.3824    1.2258 C   0  0  0  0  0  0  0  0  0  0  0  0
   14.8153   26.2433    1.5639 C   0  0  0  0  0  0  0  0  0  0  0  0
   15.6026   25.3429    0.8835 C   0  0  0  0  0  0  0  0  0  0  0  0
   15.0260   24.5930   -0.1392 C   0  0  0  0  0  0  0  0  0  0  0  0
   16.9394   25.1735    1.1954 O   0  0  0  0  0  0  0  0  0  0  0  0
   17.6059   23.9908    0.8438 C   0  0  0  0  0  0  0  0  0  0  0  0
   11.4428   22.1792   -1.1382 C   0  0  0  0  0  0  0  0  0  0  0  0
   10.9265   21.7750   -2.2053 O   0  0  0  0  0  0  0  0  0  0  0  0
    9.6554   23.2606    0.1577 C   0  0  0  0  0  0  0  0  0  0  0  0
   10.6619   22.2655   -0.0185 O   0  0  0  0  0  0  0  0  0  0  0  0
   14.1769   25.3708   -3.3840 C   0  0  0  0  0  0  0  0  0  0  0  0
   13.1901   25.8823   -4.0107 O   0  0  0  0  0  0  0  0  0  0  0  0
   15.3188   26.0879   -3.3529 O   0  0  0  0  0  0  0  0  0  0  0  0
   15.8288   26.9260   -4.3500 C   0  0  0  0  0  0  0  0  0  0  0  0
   14.9281   28.1547   -4.4183 C   0  0  0  0  0  0  0  0  0  0  0  0
   17.2069   27.4098   -3.9507 C   0  0  0  0  0  0  0  0  0  0  0  0
   15.8541   26.3091   -5.7106 C   0  0  0  0  0  0  0  0  0  0  0  0
 19 20  1  0  0  0
 20 17  1  0  0  0
 17 18  2  0  0  0
 17  1  1  0  0  0
  1  2  1  0  0  0
  2  3  1  0  0  0
  3 21  1  0  0  0
 21 22  2  0  0  0
 21 23  1  0  0  0
 23 24  1  0  0  0
 24 25  1  0  0  0
 24 26  1  0  0  0
 24 27  1  0  0  0
  3  4  2  0  0  0
  4  5  1  0  0  0
  4  6  1  0  0  0
  6  7  2  0  0  0
  7  8  1  0  0  0
  2  9  1  0  0  0
  9 10  2  0  0  0
 10 11  1  0  0  0
 11 12  2  0  0  0
 12 13  1  0  0  0
 13 15  1  0  0  0
 15 16  1  0  0  0
 13 14  2  0  0  0
  7  1  1  0  0  0
 14  9  1  0  0  0
M  END
> <minimizedAffinity>
-1.81291

> <CNNscore>
0.6899325252

> <CNNaffinity>
6.9814543724

> <CNN_VS>
4.8167324066

> <CNNaffinity_variance>
0.2069367170

$$$$
[H]c1c([H])c(OC([H])([H])[H])c([H])c(C2([H])C(C(=O)OC(C([H])([H])[H])(C([H])([H])[H])C([H])([H])[H])=C(C([H])([H])[H])N=C(C([H])([H])[H])C2([H])C(=O)OC([H])([H])[H])c1[H]


 27 28  0  0  0  0  0  0  0  0999 V2000
   14.4693   25.3986   -3.0680 C   0  0  0  0  0  0  0  0  0  0  0  0
   14.4714   24.1921   -2.2225 C   0  0  0  0  0  0  0  0  0  0  0  0
   13.1260   23.7630   -1.7546 C   0  0  0  0  0  0  0  0  0  0  0  0
   12.0464   24.4839   -2.0273 C   0  0  0  0  0  0  0  0  0  0  0  0
   10.7078   24.0499   -1.5526 C   0  0  0  0  0  0  0  0  0  0  0  0
   12.1109   25.6684   -2.8042 N   0  0  0  0  0  0  0  0  0  0  0  0
   13.1986   26.0831   -3.2721 C   0  0  0  0  0  0  0  0  0  0  0  0
   13.1756   27.3464   -4.0702 C   0  0  0  0  0  0  0  0  0  0  0  0
   15.3201   24.4586   -1.0349 C   0  0  0  0  0  0  0  0  0  0  0  0
   16.5489   23.8708   -0.9508 C   0  0  0  0  0  0  0  0  0  0  0  0
   17.3293   24.1150    0.1556 C   0  0  0  0  0  0  0  0  0  0  0  0
   16.8988   24.9310    1.1668 C   0  0  0  0  0  0  0  0  0  0  0  0
   15.6601   25.5246    1.0838 C   0  0  0  0  0  0  0  0  0  0  0  0
   14.8746   25.2735   -0.0389 C   0  0  0  0  0  0  0  0  0  0  0  0
   15.1896   26.3553    2.0847 O   0  0  0  0  0  0  0  0  0  0  0  0
   14.0241   27.1107    1.8906 C   0  0  0  0  0  0  0  0  0  0  0  0
   15.0096   25.0913   -4.4546 C   0  0  0  0  0  0  0  0  0  0  0  0
   15.1075   23.9132   -4.8684 O   0  0  0  0  0  0  0  0  0  0  0  0
   15.3752   26.0259   -6.6988 C   0  0  0  0  0  0  0  0  0  0  0  0
   15.3999   26.1135   -5.2755 O   0  0  0  0  0  0  0  0  0  0  0  0
   13.0003   22.5177   -0.9841 C   0  0  0  0  0  0  0  0  0  0  0  0
   13.0462   21.4138   -1.6223 O   0  0  0  0  0  0  0  0  0  0  0  0
   12.8392   22.4441    0.3531 O   0  0  0  0  0  0  0  0  0  0  0  0
   11.8915   21.6959    1.0595 C   0  0  0  0  0  0  0  0  0  0  0  0
   11.0345   22.6768    1.8526 C   0  0  0  0  0  0  0  0  0  0  0  0
   10.9709   20.9925    0.0848 C   0  0  0  0  0  0  0  0  0  0  0  0
   12.4817   20.7255    2.0302 C   0  0  0  0  0  0  0  0  0  0  0  0
 19 20  1  0  0  0
 20 17  1  0  0  0
 17 18  2  0  0  0
 17  1  1  0  0  0
  1  2  1  0  0  0
  2  3  1  0  0  0
  3 21  1  0  0  0
 21 22  2  0  0  0
 21 23  1  0  0  0
 23 24  1  0  0  0
 24 25  1  0  0  0
 24 26  1  0  0  0
 24 27  1  0  0  0
  3  4  2  0  0  0
  4  5  1  0  0  0
  4  6  1  0  0  0
  6  7  2  0  0  0
  7  8  1  0  0  0
  2  9  1  0  0  0
  9 10  2  0  0  0
 10 11  1  0  0  0
 11 12  2  0  0  0
 12 13  1  0  0  0
 13 15  1  0  0  0
 15 16  1  0  0  0
 13 14  2  0  0  0
  7  1  1  0  0  0
 14  9  1  0  0  0
M  END
> <minimizedAffinity>
-0.26363

> <CNNscore>
0.6348223686

> <CNNaffinity>
6.9361090660

> <CNN_VS>
4.4031972885

> <CNNaffinity_variance>
0.2375514507

$$$$
[H]c1c([H])c(OC([H])([H])[H])c([H])c(C2([H])C(C(=O)OC(C([H])([H])[H])(C([H])([H])[H])C([H])([H])[H])=C(C([H])([H])[H])N=C(C([H])([H])[H])C2([H])C(=O)OC([H])([H])[H])c1[H]


 27 28  0  0  0  0  0  0  0  0999 V2000
   12.8494   22.7269   -0.8472 C   0  0  0  0  0  0  0  0  0  0  0  0
   13.6449   23.7542   -1.5419 C   0  0  0  0  0  0  0  0  0  0  0  0
   14.4553   23.2432   -2.6801 C   0  0  0  0  0  0  0  0  0  0  0  0
   14.4973   21.9474   -2.9607 C   0  0  0  0  0  0  0  0  0  0  0  0
   15.3124   21.4459   -4.0964 C   0  0  0  0  0  0  0  0  0  0  0  0
   13.7495   20.9947   -2.2234 N   0  0  0  0  0  0  0  0  0  0  0  0
   13.0091   21.3416   -1.2718 C   0  0  0  0  0  0  0  0  0  0  0  0
   12.2657   20.2696   -0.5427 C   0  0  0  0  0  0  0  0  0  0  0  0
   14.5601   24.3789   -0.5552 C   0  0  0  0  0  0  0  0  0  0  0  0
   15.8299   23.8954   -0.4274 C   0  0  0  0  0  0  0  0  0  0  0  0
   16.6726   24.4730    0.4940 C   0  0  0  0  0  0  0  0  0  0  0  0
   16.2636   25.5166    1.2796 C   0  0  0  0  0  0  0  0  0  0  0  0
   14.9836   26.0055    1.1524 C   0  0  0  0  0  0  0  0  0  0  0  0
   14.1351   25.4165    0.2177 C   0  0  0  0  0  0  0  0  0  0  0  0
   14.5331   27.0585    1.9279 O   0  0  0  0  0  0  0  0  0  0  0  0
   13.1798   27.4258    1.9087 C   0  0  0  0  0  0  0  0  0  0  0  0
   11.3638   23.0299   -0.9481 C   0  0  0  0  0  0  0  0  0  0  0  0
   10.7562   22.9502   -2.0404 O   0  0  0  0  0  0  0  0  0  0  0  0
    9.3603   22.9107    0.4716 C   0  0  0  0  0  0  0  0  0  0  0  0
   10.6664   23.3978    0.1696 O   0  0  0  0  0  0  0  0  0  0  0  0
   15.2128   24.1963   -3.5034 C   0  0  0  0  0  0  0  0  0  0  0  0
   16.4528   24.3528   -3.2465 O   0  0  0  0  0  0  0  0  0  0  0  0
   14.7020   24.9256   -4.5166 O   0  0  0  0  0  0  0  0  0  0  0  0
   14.5278   26.3126   -4.5678 C   0  0  0  0  0  0  0  0  0  0  0  0
   15.6806   26.9462   -3.7962 C   0  0  0  0  0  0  0  0  0  0  0  0
   14.6425   26.7860   -6.0014 C   0  0  0  0  0  0  0  0  0  0  0  0
   13.2545   26.7902   -3.9491 C   0  0  0  0  0  0  0  0  0  0  0  0
 19 20  1  0  0  0
 20 17  1  0  0  0
 17 18  2  0  0  0
 17  1  1  0  0  0
  1  2  1  0  0  0
  2  3  1  0  0  0
  3 21  1  0  0  0
 21 22  2  0  0  0
 21 23  1  0  0  0
 23 24  1  0  0  0
 24 25  1  0  0  0
 24 26  1  0  0  0
 24 27  1  0  0  0
  3  4  2  0  0  0
  4  5  1  0  0  0
  4  6  1  0  0  0
  6  7  2  0  0  0
  7  8  1  0  0  0
  2  9  1  0  0  0
  9 10  2  0  0  0
 10 11  1  0  0  0
 11 12  2  0  0  0
 12 13  1  0  0  0
 13 15  1  0  0  0
 15 16  1  0  0  0
 13 14  2  0  0  0
  7  1  1  0  0  0
 14  9  1  0  0  0
M  END
> <minimizedAffinity>
-0.35243

> <CNNscore>
0.6323101521

> <CNNaffinity>
6.9215788841

> <CNN_VS>
4.3765845299

> <CNNaffinity_variance>
0.4979044497

$$$$
[H]c1c([H])c(OC([H])([H])[H])c([H])c(C2([H])C(C(=O)OC(C([H])([H])[H])(C([H])([H])[H])C([H])([H])[H])=C(C([H])([H])[H])N=C(C([H])([H])[H])C2([H])C(=O)OC([H])([H])[H])c1[H]


 27 28  0  0  0  0  0  0  0  0999 V2000
   12.7369   25.5904   -0.5552 C   0  0  0  0  0  0  0  0  0  0  0  0
   13.3523   24.7300   -1.5807 C   0  0  0  0  0  0  0  0  0  0  0  0
   14.5869   24.0277   -1.1382 C   0  0  0  0  0  0  0  0  0  0  0  0
   15.1067   24.2512    0.0615 C   0  0  0  0  0  0  0  0  0  0  0  0
   16.3419   23.5486    0.4932 C   0  0  0  0  0  0  0  0  0  0  0  0
   14.4984   25.1323    0.9913 N   0  0  0  0  0  0  0  0  0  0  0  0
   13.4340   25.7369    0.7165 C   0  0  0  0  0  0  0  0  0  0  0  0
   12.8688   26.6548    1.7516 C   0  0  0  0  0  0  0  0  0  0  0  0
   13.6854   25.5730   -2.7555 C   0  0  0  0  0  0  0  0  0  0  0  0
   12.6735   26.0783   -3.5191 C   0  0  0  0  0  0  0  0  0  0  0  0
   12.9872   26.8532   -4.6117 C   0  0  0  0  0  0  0  0  0  0  0  0
   14.2869   27.1248   -4.9447 C   0  0  0  0  0  0  0  0  0  0  0  0
   15.3086   26.6162   -4.1760 C   0  0  0  0  0  0  0  0  0  0  0  0
   14.9845   25.8322   -3.0710 C   0  0  0  0  0  0  0  0  0  0  0  0
   16.6342   26.8680   -4.4798 O   0  0  0  0  0  0  0  0  0  0  0  0
   17.2675   28.0204   -3.9923 C   0  0  0  0  0  0  0  0  0  0  0  0
   11.3353   25.1123   -0.2146 C   0  0  0  0  0  0  0  0  0  0  0  0
   10.5550   24.6993   -1.1029 O   0  0  0  0  0  0  0  0  0  0  0  0
   10.3871   23.9799    1.7507 C   0  0  0  0  0  0  0  0  0  0  0  0
   10.9069   25.1289    1.0844 O   0  0  0  0  0  0  0  0  0  0  0  0
   15.2301   23.0699   -2.0488 C   0  0  0  0  0  0  0  0  0  0  0  0
   16.2265   23.4755   -2.7349 O   0  0  0  0  0  0  0  0  0  0  0  0
   14.8517   21.7867   -2.2208 O   0  0  0  0  0  0  0  0  0  0  0  0
   14.0965   20.9945   -1.3497 C   0  0  0  0  0  0  0  0  0  0  0  0
   12.9703   21.8647   -0.8017 C   0  0  0  0  0  0  0  0  0  0  0  0
   13.4471   19.8666   -2.1232 C   0  0  0  0  0  0  0  0  0  0  0  0
   14.8668   20.4665   -0.1834 C   0  0  0  0  0  0  0  0  0  0  0  0
 19 20  1  0  0  0
 20 17  1  0  0  0
 17 18  2  0  0  0
 17  1  1  0  0  0
  1  2  1  0  0  0
  2  3  1  0  0  0
  3 21  1  0  0  0
 21 22  2  0  0  0
 21 23  1  0  0  0
 23 24  1  0  0  0
 24 25  1  0  0  0
 24 26  1  0  0  0
 24 27  1  0  0  0
  3  4  2  0  0  0
  4  5  1  0  0  0
  4  6  1  0  0  0
  6  7  2  0  0  0
  7  8  1  0  0  0
  2  9  1  0  0  0
  9 10  2  0  0  0
 10 11  1  0  0  0
 11 12  2  0  0  0
 12 13  1  0  0  0
 13 15  1  0  0  0
 15 16  1  0  0  0
 13 14  2  0  0  0
  7  1  1  0  0  0
 14  9  1  0  0  0
M  END
> <minimizedAffinity>
-1.58160

> <CNNscore>
0.6258777976

> <CNNaffinity>
6.7102875710

> <CNN_VS>
4.1998200417

> <CNNaffinity_variance>
0.2134081423

$$$$
[H]c1c([H])c(OC([H])([H])[H])c([H])c(C2([H])C(C(=O)OC(C([H])([H])[H])(C([H])([H])[H])C([H])([H])[H])=C(C([H])([H])[H])N=C(C([H])([H])[H])C2([H])C(=O)OC([H])([H])[H])c1[H]


 27 28  0  0  0  0  0  0  0  0999 V2000
   13.8333   23.0374   -1.8389 C   0  0  0  0  0  0  0  0  0  0  0  0
   15.0493   23.7834   -2.2071 C   0  0  0  0  0  0  0  0  0  0  0  0
   15.5041   24.7660   -1.1869 C   0  0  0  0  0  0  0  0  0  0  0  0
   14.7966   24.9842   -0.0863 C   0  0  0  0  0  0  0  0  0  0  0  0
   15.2564   25.9701    0.9248 C   0  0  0  0  0  0  0  0  0  0  0  0
   13.6025   24.2723    0.1924 N   0  0  0  0  0  0  0  0  0  0  0  0
   13.1660   23.3976   -0.5941 C   0  0  0  0  0  0  0  0  0  0  0  0
   11.8941   22.7044   -0.2264 C   0  0  0  0  0  0  0  0  0  0  0  0
   14.7835   24.5087   -3.4740 C   0  0  0  0  0  0  0  0  0  0  0  0
   15.4561   24.1420   -4.6034 C   0  0  0  0  0  0  0  0  0  0  0  0
   15.2119   24.8222   -5.7740 C   0  0  0  0  0  0  0  0  0  0  0  0
   14.3128   25.8531   -5.8264 C   0  0  0  0  0  0  0  0  0  0  0  0
   13.6336   26.2243   -4.6886 C   0  0  0  0  0  0  0  0  0  0  0  0
   13.8853   25.5318   -3.5064 C   0  0  0  0  0  0  0  0  0  0  0  0
   12.7175   27.2605   -4.7010 O   0  0  0  0  0  0  0  0  0  0  0  0
   12.5330   28.0582   -3.5625 C   0  0  0  0  0  0  0  0  0  0  0  0
   14.1164   21.5471   -1.7491 C   0  0  0  0  0  0  0  0  0  0  0  0
   13.4801   20.7210   -2.4427 O   0  0  0  0  0  0  0  0  0  0  0  0
   14.7920   20.4688    0.3544 C   0  0  0  0  0  0  0  0  0  0  0  0
   15.0831   21.0877   -0.8972 O   0  0  0  0  0  0  0  0  0  0  0  0
   16.7599   25.4969   -1.4080 C   0  0  0  0  0  0  0  0  0  0  0  0
   17.8558   24.8720   -1.2165 O   0  0  0  0  0  0  0  0  0  0  0  0
   16.8512   26.7843   -1.7998 O   0  0  0  0  0  0  0  0  0  0  0  0
   17.2069   27.2699   -3.0625 C   0  0  0  0  0  0  0  0  0  0  0  0
   17.2547   26.0783   -4.0130 C   0  0  0  0  0  0  0  0  0  0  0  0
   16.1255   28.1988   -3.5723 C   0  0  0  0  0  0  0  0  0  0  0  0
   18.5442   27.9348   -3.1052 C   0  0  0  0  0  0  0  0  0  0  0  0
 19 20  1  0  0  0
 20 17  1  0  0  0
 17 18  2  0  0  0
 17  1  1  0  0  0
  1  2  1  0  0  0
  2  3  1  0  0  0
  3 21  1  0  0  0
 21 22  2  0  0  0
 21 23  1  0  0  0
 23 24  1  0  0  0
 24 25  1  0  0  0
 24 26  1  0  0  0
 24 27  1  0  0  0
  3  4  2  0  0  0
  4  5  1  0  0  0
  4  6  1  0  0  0
  6  7  2  0  0  0
  7  8  1  0  0  0
  2  9  1  0  0  0
  9 10  2  0  0  0
 10 11  1  0  0  0
 11 12  2  0  0  0
 12 13  1  0  0  0
 13 15  1  0  0  0
 15 16  1  0  0  0
 13 14  2  0  0  0
  7  1  1  0  0  0
 14  9  1  0  0  0
M  END
> <minimizedAffinity>
-0.46019

> <CNNscore>
0.6088848114

> <CNNaffinity>
6.8899574280

> <CNN_VS>
4.1951904297

> <CNNaffinity_variance>
0.3564704061

$$$$
[H]c1c([H])c(OC([H])([H])[H])c([H])c(C2([H])C(C(=O)OC(C([H])([H])[H])(C([H])([H])[H])C([H])([H])[H])=C(C([H])([H])[H])N=C(C([H])([H])[H])C2([H])C(=O)OC([H])([H])[H])c1[H]


 27 28  0  0  0  0  0  0  0  0999 V2000
   15.4837   24.9023   -3.8535 C   0  0  0  0  0  0  0  0  0  0  0  0
   14.5130   24.4689   -2.8333 C   0  0  0  0  0  0  0  0  0  0  0  0
   13.3578   25.3882   -2.6496 C   0  0  0  0  0  0  0  0  0  0  0  0
   13.2882   26.5372   -3.3087 C   0  0  0  0  0  0  0  0  0  0  0  0
   12.1331   27.4506   -3.1159 C   0  0  0  0  0  0  0  0  0  0  0  0
   14.2806   26.9285   -4.2428 N   0  0  0  0  0  0  0  0  0  0  0  0
   15.2695   26.1966   -4.4888 C   0  0  0  0  0  0  0  0  0  0  0  0
   16.2727   26.6929   -5.4791 C   0  0  0  0  0  0  0  0  0  0  0  0
   15.2255   24.3431   -1.5379 C   0  0  0  0  0  0  0  0  0  0  0  0
   16.0704   25.3401   -1.1446 C   0  0  0  0  0  0  0  0  0  0  0  0
   16.7345   25.2157    0.0538 C   0  0  0  0  0  0  0  0  0  0  0  0
   16.5646   24.1178    0.8535 C   0  0  0  0  0  0  0  0  0  0  0  0
   15.7132   23.1115    0.4586 C   0  0  0  0  0  0  0  0  0  0  0  0
   15.0436   23.2432   -0.7559 C   0  0  0  0  0  0  0  0  0  0  0  0
   15.5149   21.9866    1.2386 O   0  0  0  0  0  0  0  0  0  0  0  0
   14.8444   20.8706    0.7173 C   0  0  0  0  0  0  0  0  0  0  0  0
   15.5745   23.8889   -4.9822 C   0  0  0  0  0  0  0  0  0  0  0  0
   15.4543   24.2361   -6.1795 O   0  0  0  0  0  0  0  0  0  0  0  0
   14.8393   21.7481   -4.0228 C   0  0  0  0  0  0  0  0  0  0  0  0
   15.7916   22.5689   -4.6964 O   0  0  0  0  0  0  0  0  0  0  0  0
   12.2800   25.0065   -1.7261 C   0  0  0  0  0  0  0  0  0  0  0  0
   12.0500   25.7696   -0.7296 O   0  0  0  0  0  0  0  0  0  0  0  0
   11.5072   23.9075   -1.8452 O   0  0  0  0  0  0  0  0  0  0  0  0
   11.2866   22.9104   -0.8893 C   0  0  0  0  0  0  0  0  0  0  0  0
   11.9958   23.3402    0.3906 C   0  0  0  0  0  0  0  0  0  0  0  0
    9.8086   22.8311   -0.5702 C   0  0  0  0  0  0  0  0  0  0  0  0
   11.8217   21.5693   -1.2729 C   0  0  0  0  0  0  0  0  0  0  0  0
 19 20  1  0  0  0
 20 17  1  0  0  0
 17 18  2  0  0  0
 17  1  1  0  0  0
  1  2  1  0  0  0
  2  3  1  0  0  0
  3 21  1  0  0  0
 21 22  2  0  0  0
 21 23  1  0  0  0
 23 24  1  0  0  0
 24 25  1  0  0  0
 24 26  1  0  0  0
 24 27  1  0  0  0
  3  4  2  0  0  0
  4  5  1  0  0  0
  4  6  1  0  0  0
  6  7  2  0  0  0
  7  8  1  0  0  0
  2  9  1  0  0  0
  9 10  2  0  0  0
 10 11  1  0  0  0
 11 12  2  0  0  0
 12 13  1  0  0  0
 13 15  1  0  0  0
 15 16  1  0  0  0
 13 14  2  0  0  0
  7  1  1  0  0  0
 14  9  1  0  0  0
M  END
> <minimizedAffinity>
-1.92737

> <CNNscore>
0.5787433982

> <CNNaffinity>
6.8989591599

> <CNN_VS>
3.9927270412

> <CNNaffinity_variance>
0.1790312082

$$$$
[H]c1c([H])c(OC([H])([H])[H])c([H])c(C2([H])C(C(=O)OC(C([H])([H])[H])(C([H])([H])[H])C([H])([H])[H])=C(C([H])([H])[H])N=C(C([H])([H])[H])C2([H])C(=O)OC([H])([H])[H])c1[H]


 27 28  0  0  0  0  0  0  0  0999 V2000
   13.2566   23.6861   -1.4594 C   0  0  0  0  0  0  0  0  0  0  0  0
   14.3413   24.1780   -2.3267 C   0  0  0  0  0  0  0  0  0  0  0  0
   15.5558   24.6342   -1.5986 C   0  0  0  0  0  0  0  0  0  0  0  0
   15.5874   24.6602   -0.2728 C   0  0  0  0  0  0  0  0  0  0  0  0
   16.8029   25.1211    0.4455 C   0  0  0  0  0  0  0  0  0  0  0  0
   14.4916   24.2225    0.5133 N   0  0  0  0  0  0  0  0  0  0  0  0
   13.4418   23.7855   -0.0170 C   0  0  0  0  0  0  0  0  0  0  0  0
   12.3326   23.3560    0.8877 C   0  0  0  0  0  0  0  0  0  0  0  0
   13.8178   25.3126   -3.1269 C   0  0  0  0  0  0  0  0  0  0  0  0
   12.8590   26.1199   -2.5873 C   0  0  0  0  0  0  0  0  0  0  0  0
   12.3713   27.1662   -3.3357 C   0  0  0  0  0  0  0  0  0  0  0  0
   12.8270   27.4107   -4.6031 C   0  0  0  0  0  0  0  0  0  0  0  0
   13.7938   26.5977   -5.1489 C   0  0  0  0  0  0  0  0  0  0  0  0
   14.2836   25.5399   -4.3862 C   0  0  0  0  0  0  0  0  0  0  0  0
   14.2799   26.8120   -6.4260 O   0  0  0  0  0  0  0  0  0  0  0  0
   15.2442   25.9524   -6.9719 C   0  0  0  0  0  0  0  0  0  0  0  0
   12.9527   22.2249   -1.7453 C   0  0  0  0  0  0  0  0  0  0  0  0
   13.8651   21.4123   -2.0203 O   0  0  0  0  0  0  0  0  0  0  0  0
   11.2514   20.6391   -0.9486 C   0  0  0  0  0  0  0  0  0  0  0  0
   11.6607   21.7774   -1.7044 O   0  0  0  0  0  0  0  0  0  0  0  0
   16.7350   25.0553   -2.3683 C   0  0  0  0  0  0  0  0  0  0  0  0
   17.2153   24.2358   -3.2204 O   0  0  0  0  0  0  0  0  0  0  0  0
   17.3570   26.2461   -2.2481 O   0  0  0  0  0  0  0  0  0  0  0  0
   17.4261   27.2734   -3.1950 C   0  0  0  0  0  0  0  0  0  0  0  0
   16.6057   28.4426   -2.6607 C   0  0  0  0  0  0  0  0  0  0  0  0
   18.8561   27.7559   -3.3169 C   0  0  0  0  0  0  0  0  0  0  0  0
   16.8713   26.9072   -4.5330 C   0  0  0  0  0  0  0  0  0  0  0  0
 19 20  1  0  0  0
 20 17  1  0  0  0
 17 18  2  0  0  0
 17  1  1  0  0  0
  1  2  1  0  0  0
  2  3  1  0  0  0
  3 21  1  0  0  0
 21 22  2  0  0  0
 21 23  1  0  0  0
 23 24  1  0  0  0
 24 25  1  0  0  0
 24 26  1  0  0  0
 24 27  1  0  0  0
  3  4  2  0  0  0
  4  5  1  0  0  0
  4  6  1  0  0  0
  6  7  2  0  0  0
  7  8  1  0  0  0
  2  9  1  0  0  0
  9 10  2  0  0  0
 10 11  1  0  0  0
 11 12  2  0  0  0
 12 13  1  0  0  0
 13 15  1  0  0  0
 15 16  1  0  0  0
 13 14  2  0  0  0
  7  1  1  0  0  0
 14  9  1  0  0  0
M  END
> <minimizedAffinity>
-3.70997

> <CNNscore>
0.5711723566

> <CNNaffinity>
6.8017258644

> <CNN_VS>
3.8849577904

> <CNNaffinity_variance>
0.1811092198

$$$$
[H]c1c([H])c(OC([H])([H])[H])c([H])c(C2([H])C(C(=O)OC(C([H])([H])[H])(C([H])([H])[H])C([H])([H])[H])=C(C([H])([H])[H])N=C(C([H])([H])[H])C2([H])C(=O)OC([H])([H])[H])c1[H]


 27 28  0  0  0  0  0  0  0  0999 V2000
   15.1841   24.3455   -0.2143 C   0  0  0  0  0  0  0  0  0  0  0  0
   14.1767   23.7369   -1.1005 C   0  0  0  0  0  0  0  0  0  0  0  0
   14.0409   22.2620   -0.9605 C   0  0  0  0  0  0  0  0  0  0  0  0
   14.8402   21.5764   -0.1540 C   0  0  0  0  0  0  0  0  0  0  0  0
   14.7001   20.1036   -0.0237 C   0  0  0  0  0  0  0  0  0  0  0  0
   15.8302   22.2103    0.6389 N   0  0  0  0  0  0  0  0  0  0  0  0
   15.9883   23.4547    0.6129 C   0  0  0  0  0  0  0  0  0  0  0  0
   17.0630   24.0371    1.4727 C   0  0  0  0  0  0  0  0  0  0  0  0
   14.5461   24.0448   -2.5042 C   0  0  0  0  0  0  0  0  0  0  0  0
   15.1796   23.0926   -3.2488 C   0  0  0  0  0  0  0  0  0  0  0  0
   15.5269   23.3851   -4.5475 C   0  0  0  0  0  0  0  0  0  0  0  0
   15.2505   24.6054   -5.1027 C   0  0  0  0  0  0  0  0  0  0  0  0
   14.6118   25.5668   -4.3535 C   0  0  0  0  0  0  0  0  0  0  0  0
   14.2628   25.2646   -3.0392 C   0  0  0  0  0  0  0  0  0  0  0  0
   14.3153   26.8116   -4.8786 O   0  0  0  0  0  0  0  0  0  0  0  0
   15.3397   27.6453   -5.3501 C   0  0  0  0  0  0  0  0  0  0  0  0
   14.5403   25.3386    0.7388 C   0  0  0  0  0  0  0  0  0  0  0  0
   15.2101   26.2463    1.2827 O   0  0  0  0  0  0  0  0  0  0  0  0
   12.1864   25.5258    0.0547 C   0  0  0  0  0  0  0  0  0  0  0  0
   13.2037   25.2488    1.0153 O   0  0  0  0  0  0  0  0  0  0  0  0
   12.9993   21.5638   -1.7273 C   0  0  0  0  0  0  0  0  0  0  0  0
   13.3579   20.5944   -2.4754 O   0  0  0  0  0  0  0  0  0  0  0  0
   11.6848   21.8650   -1.7056 O   0  0  0  0  0  0  0  0  0  0  0  0
   10.7058   21.3564   -0.8455 C   0  0  0  0  0  0  0  0  0  0  0  0
   10.2240   22.5086    0.0298 C   0  0  0  0  0  0  0  0  0  0  0  0
    9.5144   20.8870   -1.6535 C   0  0  0  0  0  0  0  0  0  0  0  0
   11.1941   20.2744    0.0617 C   0  0  0  0  0  0  0  0  0  0  0  0
 19 20  1  0  0  0
 20 17  1  0  0  0
 17 18  2  0  0  0
 17  1  1  0  0  0
  1  2  1  0  0  0
  2  3  1  0  0  0
  3 21  1  0  0  0
 21 22  2  0  0  0
 21 23  1  0  0  0
 23 24  1  0  0  0
 24 25  1  0  0  0
 24 26  1  0  0  0
 24 27  1  0  0  0
  3  4  2  0  0  0
  4  5  1  0  0  0
  4  6  1  0  0  0
  6  7  2  0  0  0
  7  8  1  0  0  0
  2  9  1  0  0  0
  9 10  2  0  0  0
 10 11  1  0  0  0
 11 12  2  0  0  0
 12 13  1  0  0  0
 13 15  1  0  0  0
 15 16  1  0  0  0
 13 14  2  0  0  0
  7  1  1  0  0  0
 14  9  1  0  0  0
M  END
> <minimizedAffinity>
-4.74579

> <CNNscore>
0.5487014055

> <CNNaffinity>
7.0021729469

> <CNN_VS>
3.8421020508

> <CNNaffinity_variance>
0.1594315171

$$$$
[H]c1c([H])c(OC([H])([H])[H])c([H])c(C2([H])C(C(=O)OC(C([H])([H])[H])(C([H])([H])[H])C([H])([H])[H])=C(C([H])([H])[H])N=C(C([H])([H])[H])C2([H])C(=O)OC([H])([H])[H])c1[H]


 27 28  0  0  0  0  0  0  0  0999 V2000
   13.7928   25.5563    0.0489 C   0  0  0  0  0  0  0  0  0  0  0  0
   13.4295   24.6889   -1.0852 C   0  0  0  0  0  0  0  0  0  0  0  0
   14.0061   23.3188   -1.0247 C   0  0  0  0  0  0  0  0  0  0  0  0
   14.8438   22.9729   -0.0562 C   0  0  0  0  0  0  0  0  0  0  0  0
   15.4178   21.6040   -0.0062 C   0  0  0  0  0  0  0  0  0  0  0  0
   15.2001   23.8682    0.9840 N   0  0  0  0  0  0  0  0  0  0  0  0
   14.7306   25.0307    1.0332 C   0  0  0  0  0  0  0  0  0  0  0  0
   15.1694   25.9106    2.1587 C   0  0  0  0  0  0  0  0  0  0  0  0
   13.8928   25.3401   -2.3353 C   0  0  0  0  0  0  0  0  0  0  0  0
   12.9768   25.6711   -3.2912 C   0  0  0  0  0  0  0  0  0  0  0  0
   13.4119   26.2681   -4.4518 C   0  0  0  0  0  0  0  0  0  0  0  0
   14.7377   26.5342   -4.6640 C   0  0  0  0  0  0  0  0  0  0  0  0
   15.6629   26.2012   -3.7014 C   0  0  0  0  0  0  0  0  0  0  0  0
   15.2162   25.5970   -2.5284 C   0  0  0  0  0  0  0  0  0  0  0  0
   17.0112   26.4539   -3.8785 O   0  0  0  0  0  0  0  0  0  0  0  0
   17.4955   27.7698   -3.8566 C   0  0  0  0  0  0  0  0  0  0  0  0
   12.5580   25.9789    0.8272 C   0  0  0  0  0  0  0  0  0  0  0  0
   12.5634   27.0007    1.5513 O   0  0  0  0  0  0  0  0  0  0  0  0
   10.6568   24.8324    1.8830 C   0  0  0  0  0  0  0  0  0  0  0  0
   11.4125   25.2360    0.7427 O   0  0  0  0  0  0  0  0  0  0  0  0
   13.6320   22.3394   -2.0548 C   0  0  0  0  0  0  0  0  0  0  0  0
   14.4570   22.1280   -3.0049 O   0  0  0  0  0  0  0  0  0  0  0  0
   12.4794   21.6393   -2.0795 O   0  0  0  0  0  0  0  0  0  0  0  0
   11.3372   21.8460   -1.2987 C   0  0  0  0  0  0  0  0  0  0  0  0
   10.3058   20.8020   -1.7133 C   0  0  0  0  0  0  0  0  0  0  0  0
   11.6645   21.5903    0.1573 C   0  0  0  0  0  0  0  0  0  0  0  0
   10.7132   23.1919   -1.4762 C   0  0  0  0  0  0  0  0  0  0  0  0
 19 20  1  0  0  0
 20 17  1  0  0  0
 17 18  2  0  0  0
 17  1  1  0  0  0
  1  2  1  0  0  0
  2  3  1  0  0  0
  3 21  1  0  0  0
 21 22  2  0  0  0
 21 23  1  0  0  0
 23 24  1  0  0  0
 24 25  1  0  0  0
 24 26  1  0  0  0
 24 27  1  0  0  0
  3  4  2  0  0  0
  4  5  1  0  0  0
  4  6  1  0  0  0
  6  7  2  0  0  0
  7  8  1  0  0  0
  2  9  1  0  0  0
  9 10  2  0  0  0
 10 11  1  0  0  0
 11 12  2  0  0  0
 12 13  1  0  0  0
 13 15  1  0  0  0
 15 16  1  0  0  0
 13 14  2  0  0  0
  7  1  1  0  0  0
 14  9  1  0  0  0
M  END
> <minimizedAffinity>
-1.03118

> <CNNscore>
0.5477979779

> <CNNaffinity>
6.5675492287

> <CNN_VS>
3.5976901054

> <CNNaffinity_variance>
0.1841631234

$$$$
[H]Oc1c([H])c(-n2c3c(c4c2C([H])([H])C(C([H])([H])[H])(C([H])([H])[H])C([H])([H])C4=O)C([H])([H])C([H])([H])N(C([H])([H])[H])C3([H])[H])c([H])c([H])c1F


 26 29  0  0  0  0  0  0  0  0999 V2000
   11.4559   25.4466    0.8845 C   0  0  0  0  0  0  0  0  0  0  0  0
   11.7747   24.3602    0.0042 N   0  0  0  0  0  0  0  0  0  0  0  0
   10.9995   24.2970   -1.1848 C   0  0  0  0  0  0  0  0  0  0  0  0
   11.5212   25.0764   -2.3367 C   0  0  0  0  0  0  0  0  0  0  0  0
   12.9809   25.2387   -2.3138 C   0  0  0  0  0  0  0  0  0  0  0  0
   13.7741   24.7853   -1.2863 C   0  0  0  0  0  0  0  0  0  0  0  0
   13.1623   24.0968   -0.1350 C   0  0  0  0  0  0  0  0  0  0  0  0
   15.0811   25.0783   -1.5426 N   0  0  0  0  0  0  0  0  0  0  0  0
   15.1112   25.7153   -2.7294 C   0  0  0  0  0  0  0  0  0  0  0  0
   16.2341   26.2769   -3.5310 C   0  0  0  0  0  0  0  0  0  0  0  0
   15.7815   27.3966   -4.4432 C   0  0  0  0  0  0  0  0  0  0  0  0
   15.2993   28.6041   -3.6836 C   0  0  0  0  0  0  0  0  0  0  0  0
   16.9641   27.7323   -5.3335 C   0  0  0  0  0  0  0  0  0  0  0  0
   14.6949   26.8588   -5.3788 C   0  0  0  0  0  0  0  0  0  0  0  0
   13.5523   26.4809   -4.5126 C   0  0  0  0  0  0  0  0  0  0  0  0
   12.3613   26.6971   -4.8386 O   0  0  0  0  0  0  0  0  0  0  0  0
   13.8397   25.8368   -3.2419 C   0  0  0  0  0  0  0  0  0  0  0  0
   16.1709   24.7540   -0.6908 C   0  0  0  0  0  0  0  0  0  0  0  0
   15.9937   24.7365    0.6737 C   0  0  0  0  0  0  0  0  0  0  0  0
   17.0299   24.4261    1.5246 C   0  0  0  0  0  0  0  0  0  0  0  0
   18.3033   24.1171    1.0203 C   0  0  0  0  0  0  0  0  0  0  0  0
   19.3261   23.8109    1.8521 F   0  0  0  0  0  0  0  0  0  0  0  0
   18.4839   24.1337   -0.3471 C   0  0  0  0  0  0  0  0  0  0  0  0
   19.7193   23.8369   -0.9017 O   0  0  0  0  0  0  0  0  0  0  0  0
   17.4429   24.4452   -1.1954 C   0  0  0  0  0  0  0  0  0  0  0  0
   19.9285   23.8274   -1.8669 H   0  0  0  0  0  0  0  0  0  0  0  0
  1  2  1  0  0  0
  2  3  1  0  0  0
  3  4  1  0  0  0
  4  5  1  0  0  0
  5  6  2  0  0  0
  6  7  1  0  0  0
  6  8  1  0  0  0
  8  9  1  0  0  0
  9 10  1  0  0  0
 10 11  1  0  0  0
 11 12  1  0  0  0
 11 13  1  0  0  0
 11 14  1  0  0  0
 14 15  1  0  0  0
 15 16  2  0  0  0
 15 17  1  0  0  0
  8 18  1  0  0  0
 18 19  2  0  0  0
 19 20  1  0  0  0
 20 21  2  0  0  0
 21 22  1  0  0  0
 21 23  1  0  0  0
 23 24  1  0  0  0
 23 25  2  0  0  0
  7  2  1  0  0  0
 17  9  2  0  0  0
 25 18  1  0  0  0
 17  5  1  0  0  0
 24 26  1  0  0  0
M  END
> <minimizedAffinity>
7.29382

> <CNNscore>
0.7003847361

> <CNNaffinity>
7.4164476395

> <CNN_VS>
5.1943669319

> <CNNaffinity_variance>
1.3611137867

$$$$
[H]Oc1c([H])c(-n2c3c(c4c2C([H])([H])C(C([H])([H])[H])(C([H])([H])[H])C([H])([H])C4=O)C([H])([H])C([H])([H])N(C([H])([H])[H])C3([H])[H])c([H])c([H])c1F


 26 29  0  0  0  0  0  0  0  0999 V2000
   10.4265   24.9245    0.9678 C   0  0  0  0  0  0  0  0  0  0  0  0
   10.5897   23.9599   -0.0810 N   0  0  0  0  0  0  0  0  0  0  0  0
   10.0013   24.3132   -1.3251 C   0  0  0  0  0  0  0  0  0  0  0  0
   10.8587   25.1083   -2.2411 C   0  0  0  0  0  0  0  0  0  0  0  0
   12.2945   24.8641   -2.0497 C   0  0  0  0  0  0  0  0  0  0  0  0
   12.7956   24.0442   -1.0662 C   0  0  0  0  0  0  0  0  0  0  0  0
   11.8743   23.3597   -0.1407 C   0  0  0  0  0  0  0  0  0  0  0  0
   14.1572   24.0131   -1.1347 N   0  0  0  0  0  0  0  0  0  0  0  0
   14.5134   24.8120   -2.1593 C   0  0  0  0  0  0  0  0  0  0  0  0
   15.8430   25.1784   -2.7220 C   0  0  0  0  0  0  0  0  0  0  0  0
   15.8165   26.5178   -3.4262 C   0  0  0  0  0  0  0  0  0  0  0  0
   15.5441   27.6618   -2.4857 C   0  0  0  0  0  0  0  0  0  0  0  0
   17.1603   26.6693   -4.1156 C   0  0  0  0  0  0  0  0  0  0  0  0
   14.7762   26.4619   -4.5486 C   0  0  0  0  0  0  0  0  0  0  0  0
   13.4638   26.2638   -3.8876 C   0  0  0  0  0  0  0  0  0  0  0  0
   12.4225   26.8461   -4.2726 O   0  0  0  0  0  0  0  0  0  0  0  0
   13.3982   25.3581   -2.7529 C   0  0  0  0  0  0  0  0  0  0  0  0
   14.9995   23.2656   -0.2685 C   0  0  0  0  0  0  0  0  0  0  0  0
   16.0796   23.8723    0.3303 C   0  0  0  0  0  0  0  0  0  0  0  0
   16.9136   23.1748    1.1741 C   0  0  0  0  0  0  0  0  0  0  0  0
   16.6834   21.8171    1.4483 C   0  0  0  0  0  0  0  0  0  0  0  0
   17.4999   21.1260    2.2773 F   0  0  0  0  0  0  0  0  0  0  0  0
   15.6013   21.2062    0.8495 C   0  0  0  0  0  0  0  0  0  0  0  0
   15.3250   19.8680    1.0833 O   0  0  0  0  0  0  0  0  0  0  0  0
   14.7688   21.9091    0.0050 C   0  0  0  0  0  0  0  0  0  0  0  0
   14.5727   19.3600    0.6941 H   0  0  0  0  0  0  0  0  0  0  0  0
  1  2  1  0  0  0
  2  3  1  0  0  0
  3  4  1  0  0  0
  4  5  1  0  0  0
  5  6  2  0  0  0
  6  7  1  0  0  0
  6  8  1  0  0  0
  8  9  1  0  0  0
  9 10  1  0  0  0
 10 11  1  0  0  0
 11 12  1  0  0  0
 11 13  1  0  0  0
 11 14  1  0  0  0
 14 15  1  0  0  0
 15 16  2  0  0  0
 15 17  1  0  0  0
  8 18  1  0  0  0
 18 19  2  0  0  0
 19 20  1  0  0  0
 20 21  2  0  0  0
 21 22  1  0  0  0
 21 23  1  0  0  0
 23 24  1  0  0  0
 23 25  2  0  0  0
  7  2  1  0  0  0
 17  9  2  0  0  0
 25 18  1  0  0  0
 17  5  1  0  0  0
 24 26  1  0  0  0
M  END
> <minimizedAffinity>
2.84737

> <CNNscore>
0.6373070478

> <CNNaffinity>
7.2807259560

> <CNN_VS>
4.6400580406

> <CNNaffinity_variance>
1.1723940372

$$$$
[H]Oc1c([H])c(-n2c3c(c4c2C([H])([H])C(C([H])([H])[H])(C([H])([H])[H])C([H])([H])C4=O)C([H])([H])C([H])([H])N(C([H])([H])[H])C3([H])[H])c([H])c([H])c1F


 26 29  0  0  0  0  0  0  0  0999 V2000
   15.0081   25.4474   -5.0207 C   0  0  0  0  0  0  0  0  0  0  0  0
   14.6183   26.3980   -4.0201 N   0  0  0  0  0  0  0  0  0  0  0  0
   13.3065   26.9245   -4.1638 C   0  0  0  0  0  0  0  0  0  0  0  0
   12.2237   26.1447   -3.5114 C   0  0  0  0  0  0  0  0  0  0  0  0
   12.6812   25.3836   -2.3413 C   0  0  0  0  0  0  0  0  0  0  0  0
   13.9956   25.3338   -1.9407 C   0  0  0  0  0  0  0  0  0  0  0  0
   15.0231   26.0699   -2.7000 C   0  0  0  0  0  0  0  0  0  0  0  0
   14.1146   24.5531   -0.8290 N   0  0  0  0  0  0  0  0  0  0  0  0
   12.8774   24.1117   -0.5297 C   0  0  0  0  0  0  0  0  0  0  0  0
   12.3692   23.2329    0.5605 C   0  0  0  0  0  0  0  0  0  0  0  0
   11.0875   22.5264    0.1749 C   0  0  0  0  0  0  0  0  0  0  0  0
   11.2812   21.5501   -0.9550 C   0  0  0  0  0  0  0  0  0  0  0  0
   10.5813   21.8366    1.4286 C   0  0  0  0  0  0  0  0  0  0  0  0
   10.0327   23.5798   -0.1760 C   0  0  0  0  0  0  0  0  0  0  0  0
   10.5420   24.2937   -1.3716 C   0  0  0  0  0  0  0  0  0  0  0  0
    9.7950   24.6384   -2.3176 O   0  0  0  0  0  0  0  0  0  0  0  0
   11.9617   24.5981   -1.4346 C   0  0  0  0  0  0  0  0  0  0  0  0
   15.3327   24.2842   -0.1489 C   0  0  0  0  0  0  0  0  0  0  0  0
   16.3796   25.1725   -0.2394 C   0  0  0  0  0  0  0  0  0  0  0  0
   17.5717   24.9398    0.4079 C   0  0  0  0  0  0  0  0  0  0  0  0
   17.7528   23.7829    1.1825 C   0  0  0  0  0  0  0  0  0  0  0  0
   18.9226   23.5487    1.8214 F   0  0  0  0  0  0  0  0  0  0  0  0
   16.7049   22.8906    1.2750 C   0  0  0  0  0  0  0  0  0  0  0  0
   16.8263   21.7314    2.0257 O   0  0  0  0  0  0  0  0  0  0  0  0
   15.5127   23.1280    0.6249 C   0  0  0  0  0  0  0  0  0  0  0  0
   16.1252   21.0454    2.1411 H   0  0  0  0  0  0  0  0  0  0  0  0
  1  2  1  0  0  0
  2  3  1  0  0  0
  3  4  1  0  0  0
  4  5  1  0  0  0
  5  6  2  0  0  0
  6  7  1  0  0  0
  6  8  1  0  0  0
  8  9  1  0  0  0
  9 10  1  0  0  0
 10 11  1  0  0  0
 11 12  1  0  0  0
 11 13  1  0  0  0
 11 14  1  0  0  0
 14 15  1  0  0  0
 15 16  2  0  0  0
 15 17  1  0  0  0
  8 18  1  0  0  0
 18 19  2  0  0  0
 19 20  1  0  0  0
 20 21  2  0  0  0
 21 22  1  0  0  0
 21 23  1  0  0  0
 23 24  1  0  0  0
 23 25  2  0  0  0
  7  2  1  0  0  0
 17  9  2  0  0  0
 25 18  1  0  0  0
 17  5  1  0  0  0
 24 26  1  0  0  0
M  END
> <minimizedAffinity>
0.42929

> <CNNscore>
0.6047472954

> <CNNaffinity>
7.3389244080

> <CNN_VS>
4.4381947517

> <CNNaffinity_variance>
0.7090057731

$$$$
[H]Oc1c([H])c(-n2c3c(c4c2C([H])([H])C(C([H])([H])[H])(C([H])([H])[H])C([H])([H])C4=O)C([H])([H])C([H])([H])N(C([H])([H])[H])C3([H])[H])c([H])c([H])c1F


 26 29  0  0  0  0  0  0  0  0999 V2000
   13.3672   20.0500   -3.4638 C   0  0  0  0  0  0  0  0  0  0  0  0
   12.6474   20.6037   -2.3537 N   0  0  0  0  0  0  0  0  0  0  0  0
   12.7845   19.8956   -1.1296 C   0  0  0  0  0  0  0  0  0  0  0  0
   13.9366   20.2930   -0.2804 C   0  0  0  0  0  0  0  0  0  0  0  0
   14.3432   21.6914   -0.4719 C   0  0  0  0  0  0  0  0  0  0  0  0
   13.7677   22.5234   -1.4031 C   0  0  0  0  0  0  0  0  0  0  0  0
   12.6854   22.0198   -2.2686 C   0  0  0  0  0  0  0  0  0  0  0  0
   14.3490   23.7558   -1.3491 N   0  0  0  0  0  0  0  0  0  0  0  0
   15.2891   23.7004   -0.3857 C   0  0  0  0  0  0  0  0  0  0  0  0
   16.2443   24.7181    0.1346 C   0  0  0  0  0  0  0  0  0  0  0  0
   17.4762   24.0862    0.7460 C   0  0  0  0  0  0  0  0  0  0  0  0
   18.3150   23.3529   -0.2670 C   0  0  0  0  0  0  0  0  0  0  0  0
   18.2541   25.2094    1.4073 C   0  0  0  0  0  0  0  0  0  0  0  0
   17.0390   23.1570    1.8821 C   0  0  0  0  0  0  0  0  0  0  0  0
   16.2353   22.0820    1.2520 C   0  0  0  0  0  0  0  0  0  0  0  0
   16.3188   20.8832    1.6088 O   0  0  0  0  0  0  0  0  0  0  0  0
   15.3214   22.4474    0.1826 C   0  0  0  0  0  0  0  0  0  0  0  0
   13.9975   24.8591   -2.1723 C   0  0  0  0  0  0  0  0  0  0  0  0
   12.7738   25.4688   -2.0169 C   0  0  0  0  0  0  0  0  0  0  0  0
   12.4047   26.5394   -2.7991 C   0  0  0  0  0  0  0  0  0  0  0  0
   13.2721   27.0414   -3.7825 C   0  0  0  0  0  0  0  0  0  0  0  0
   12.9148   28.0939   -4.5545 F   0  0  0  0  0  0  0  0  0  0  0  0
   14.4996   26.4321   -3.9405 C   0  0  0  0  0  0  0  0  0  0  0  0
   15.3968   26.8847   -4.8955 O   0  0  0  0  0  0  0  0  0  0  0  0
   14.8647   25.3600   -3.1547 C   0  0  0  0  0  0  0  0  0  0  0  0
   16.2912   26.5039   -5.0698 H   0  0  0  0  0  0  0  0  0  0  0  0
  1  2  1  0  0  0
  2  3  1  0  0  0
  3  4  1  0  0  0
  4  5  1  0  0  0
  5  6  2  0  0  0
  6  7  1  0  0  0
  6  8  1  0  0  0
  8  9  1  0  0  0
  9 10  1  0  0  0
 10 11  1  0  0  0
 11 12  1  0  0  0
 11 13  1  0  0  0
 11 14  1  0  0  0
 14 15  1  0  0  0
 15 16  2  0  0  0
 15 17  1  0  0  0
  8 18  1  0  0  0
 18 19  2  0  0  0
 19 20  1  0  0  0
 20 21  2  0  0  0
 21 22  1  0  0  0
 21 23  1  0  0  0
 23 24  1  0  0  0
 23 25  2  0  0  0
  7  2  1  0  0  0
 17  9  2  0  0  0
 25 18  1  0  0  0
 17  5  1  0  0  0
 24 26  1  0  0  0
M  END
> <minimizedAffinity>
10.76443

> <CNNscore>
0.5264095068

> <CNNaffinity>
7.1776075363

> <CNN_VS>
3.7783608437

> <CNNaffinity_variance>
1.3468250036

$$$$
[H]Oc1c([H])c(-n2c3c(c4c2C([H])([H])C(C([H])([H])[H])(C([H])([H])[H])C([H])([H])C4=O)C([H])([H])C([H])([H])N(C([H])([H])[H])C3([H])[H])c([H])c([H])c1F


 26 29  0  0  0  0  0  0  0  0999 V2000
   20.0599   26.8236   -4.1818 C   0  0  0  0  0  0  0  0  0  0  0  0
   19.4719   27.7080   -3.2180 N   0  0  0  0  0  0  0  0  0  0  0  0
   19.0272   28.9553   -3.7330 C   0  0  0  0  0  0  0  0  0  0  0  0
   17.6371   28.9782   -4.2560 C   0  0  0  0  0  0  0  0  0  0  0  0
   16.7582   27.9942   -3.6104 C   0  0  0  0  0  0  0  0  0  0  0  0
   17.1993   27.0882   -2.6748 C   0  0  0  0  0  0  0  0  0  0  0  0
   18.6187   27.0765   -2.2760 C   0  0  0  0  0  0  0  0  0  0  0  0
   16.1618   26.3084   -2.2562 N   0  0  0  0  0  0  0  0  0  0  0  0
   15.0691   26.7222   -2.9268 C   0  0  0  0  0  0  0  0  0  0  0  0
   13.6516   26.2651   -2.9016 C   0  0  0  0  0  0  0  0  0  0  0  0
   12.9303   26.5671   -4.1975 C   0  0  0  0  0  0  0  0  0  0  0  0
   13.4904   25.7989   -5.3652 C   0  0  0  0  0  0  0  0  0  0  0  0
   11.4670   26.2389   -3.9632 C   0  0  0  0  0  0  0  0  0  0  0  0
   12.9837   28.0767   -4.4489 C   0  0  0  0  0  0  0  0  0  0  0  0
   14.4157   28.4162   -4.6297 C   0  0  0  0  0  0  0  0  0  0  0  0
   14.8078   29.2416   -5.4879 O   0  0  0  0  0  0  0  0  0  0  0  0
   15.3888   27.7595   -3.7729 C   0  0  0  0  0  0  0  0  0  0  0  0
   16.2612   25.2685   -1.2933 C   0  0  0  0  0  0  0  0  0  0  0  0
   15.3071   24.2779   -1.2521 C   0  0  0  0  0  0  0  0  0  0  0  0
   15.3761   23.2575   -0.3312 C   0  0  0  0  0  0  0  0  0  0  0  0
   16.4282   23.1994    0.5967 C   0  0  0  0  0  0  0  0  0  0  0  0
   16.5016   22.1984    1.5046 F   0  0  0  0  0  0  0  0  0  0  0  0
   17.3863   24.1911    0.5578 C   0  0  0  0  0  0  0  0  0  0  0  0
   18.4478   24.1853    1.4493 O   0  0  0  0  0  0  0  0  0  0  0  0
   17.3128   25.2112   -0.3665 C   0  0  0  0  0  0  0  0  0  0  0  0
   19.1713   24.8566    1.4859 H   0  0  0  0  0  0  0  0  0  0  0  0
  1  2  1  0  0  0
  2  3  1  0  0  0
  3  4  1  0  0  0
  4  5  1  0  0  0
  5  6  2  0  0  0
  6  7  1  0  0  0
  6  8  1  0  0  0
  8  9  1  0  0  0
  9 10  1  0  0  0
 10 11  1  0  0  0
 11 12  1  0  0  0
 11 13  1  0  0  0
 11 14  1  0  0  0
 14 15  1  0  0  0
 15 16  2  0  0  0
 15 17  1  0  0  0
  8 18  1  0  0  0
 18 19  2  0  0  0
 19 20  1  0  0  0
 20 21  2  0  0  0
 21 22  1  0  0  0
 21 23  1  0  0  0
 23 24  1  0  0  0
 23 25  2  0  0  0
  7  2  1  0  0  0
 17  9  2  0  0  0
 25 18  1  0  0  0
 17  5  1  0  0  0
 24 26  1  0  0  0
M  END
> <minimizedAffinity>
25.10208

> <CNNscore>
0.5026488304

> <CNNaffinity>
6.8289308548

> <CNN_VS>
3.4325540066

> <CNNaffinity_variance>
1.1144149303

$$$$
[H]Oc1c([H])c(-n2c3c(c4c2C([H])([H])C(C([H])([H])[H])(C([H])([H])[H])C([H])([H])C4=O)C([H])([H])C([H])([H])N(C([H])([H])[H])C3([H])[H])c([H])c([H])c1F


 26 29  0  0  0  0  0  0  0  0999 V2000
    9.2462   20.9464   -2.7244 C   0  0  0  0  0  0  0  0  0  0  0  0
    9.1927   21.8998   -1.6543 N   0  0  0  0  0  0  0  0  0  0  0  0
    8.9491   21.3512   -0.3665 C   0  0  0  0  0  0  0  0  0  0  0  0
   10.1532   20.9204    0.3891 C   0  0  0  0  0  0  0  0  0  0  0  0
   11.3628   21.6727    0.0307 C   0  0  0  0  0  0  0  0  0  0  0  0
   11.3933   22.6229   -0.9627 C   0  0  0  0  0  0  0  0  0  0  0  0
   10.1689   22.9274   -1.7256 C   0  0  0  0  0  0  0  0  0  0  0  0
   12.6473   23.1488   -1.0658 N   0  0  0  0  0  0  0  0  0  0  0  0
   13.4055   22.5310   -0.1392 C   0  0  0  0  0  0  0  0  0  0  0  0
   14.8416   22.6732    0.2297 C   0  0  0  0  0  0  0  0  0  0  0  0
   15.3979   21.4137    0.8582 C   0  0  0  0  0  0  0  0  0  0  0  0
   15.4303   20.2530   -0.1005 C   0  0  0  0  0  0  0  0  0  0  0  0
   16.7869   21.7606    1.3625 C   0  0  0  0  0  0  0  0  0  0  0  0
   14.5729   21.0814    2.1049 C   0  0  0  0  0  0  0  0  0  0  0  0
   13.1999   20.7893    1.6273 C   0  0  0  0  0  0  0  0  0  0  0  0
   12.5028   19.8655    2.1092 O   0  0  0  0  0  0  0  0  0  0  0  0
   12.6560   21.6131    0.5606 C   0  0  0  0  0  0  0  0  0  0  0  0
   13.0349   24.1557   -1.9902 C   0  0  0  0  0  0  0  0  0  0  0  0
   12.3581   25.3533   -2.0241 C   0  0  0  0  0  0  0  0  0  0  0  0
   12.7100   26.3478   -2.9080 C   0  0  0  0  0  0  0  0  0  0  0  0
   13.7754   26.1661   -3.8043 C   0  0  0  0  0  0  0  0  0  0  0  0
   14.1261   27.1404   -4.6757 F   0  0  0  0  0  0  0  0  0  0  0  0
   14.4557   24.9665   -3.7726 C   0  0  0  0  0  0  0  0  0  0  0  0
   15.5159   24.7310   -4.6341 O   0  0  0  0  0  0  0  0  0  0  0  0
   14.0995   23.9734   -2.8854 C   0  0  0  0  0  0  0  0  0  0  0  0
   16.0513   23.9019   -4.6733 H   0  0  0  0  0  0  0  0  0  0  0  0
  1  2  1  0  0  0
  2  3  1  0  0  0
  3  4  1  0  0  0
  4  5  1  0  0  0
  5  6  2  0  0  0
  6  7  1  0  0  0
  6  8  1  0  0  0
  8  9  1  0  0  0
  9 10  1  0  0  0
 10 11  1  0  0  0
 11 12  1  0  0  0
 11 13  1  0  0  0
 11 14  1  0  0  0
 14 15  1  0  0  0
 15 16  2  0  0  0
 15 17  1  0  0  0
  8 18  1  0  0  0
 18 19  2  0  0  0
 19 20  1  0  0  0
 20 21  2  0  0  0
 21 22  1  0  0  0
 21 23  1  0  0  0
 23 24  1  0  0  0
 23 25  2  0  0  0
  7  2  1  0  0  0
 17  9  2  0  0  0
 25 18  1  0  0  0
 17  5  1  0  0  0
 24 26  1  0  0  0
M  END
> <minimizedAffinity>
-1.05175

> <CNNscore>
0.4919990301

> <CNNaffinity>
6.9459648132

> <CNN_VS>
3.4174079895

> <CNNaffinity_variance>
0.6363398433

$$$$
[H]Oc1c([H])c(-n2c3c(c4c2C([H])([H])C(C([H])([H])[H])(C([H])([H])[H])C([H])([H])C4=O)C([H])([H])C([H])([H])N(C([H])([H])[H])C3([H])[H])c([H])c([H])c1F


 26 29  0  0  0  0  0  0  0  0999 V2000
   12.3224   28.3176   -3.7308 C   0  0  0  0  0  0  0  0  0  0  0  0
   12.6671   27.0628   -4.3339 N   0  0  0  0  0  0  0  0  0  0  0  0
   13.9451   27.0196   -4.9531 C   0  0  0  0  0  0  0  0  0  0  0  0
   15.0772   26.6400   -4.0695 C   0  0  0  0  0  0  0  0  0  0  0  0
   14.6756   25.7775   -2.9505 C   0  0  0  0  0  0  0  0  0  0  0  0
   13.3702   25.4253   -2.7004 C   0  0  0  0  0  0  0  0  0  0  0  0
   12.2948   25.9197   -3.5797 C   0  0  0  0  0  0  0  0  0  0  0  0
   13.3070   24.6213   -1.6008 N   0  0  0  0  0  0  0  0  0  0  0  0
   14.5703   24.4672   -1.1588 C   0  0  0  0  0  0  0  0  0  0  0  0
   15.1386   23.7092   -0.0092 C   0  0  0  0  0  0  0  0  0  0  0  0
   16.4548   24.2884    0.4629 C   0  0  0  0  0  0  0  0  0  0  0  0
   16.3062   25.6721    1.0379 C   0  0  0  0  0  0  0  0  0  0  0  0
   17.0120   23.3153    1.4859 C   0  0  0  0  0  0  0  0  0  0  0  0
   17.4441   24.2761   -0.7060 C   0  0  0  0  0  0  0  0  0  0  0  0
   16.8831   25.1865   -1.7332 C   0  0  0  0  0  0  0  0  0  0  0  0
   17.5997   25.9667   -2.4035 O   0  0  0  0  0  0  0  0  0  0  0  0
   15.4477   25.1619   -1.9598 C   0  0  0  0  0  0  0  0  0  0  0  0
   12.1131   24.0732   -1.0599 C   0  0  0  0  0  0  0  0  0  0  0  0
   11.5057   24.6792    0.0158 C   0  0  0  0  0  0  0  0  0  0  0  0
   10.3485   24.1722    0.5618 C   0  0  0  0  0  0  0  0  0  0  0  0
    9.7531   23.0159    0.0327 C   0  0  0  0  0  0  0  0  0  0  0  0
    8.6152   22.5127    0.5652 F   0  0  0  0  0  0  0  0  0  0  0  0
   10.3598   22.4062   -1.0457 C   0  0  0  0  0  0  0  0  0  0  0  0
    9.8170   21.2620   -1.6097 O   0  0  0  0  0  0  0  0  0  0  0  0
   11.5187   22.9179   -1.5891 C   0  0  0  0  0  0  0  0  0  0  0  0
   10.1898   20.7685   -2.3797 H   0  0  0  0  0  0  0  0  0  0  0  0
  1  2  1  0  0  0
  2  3  1  0  0  0
  3  4  1  0  0  0
  4  5  1  0  0  0
  5  6  2  0  0  0
  6  7  1  0  0  0
  6  8  1  0  0  0
  8  9  1  0  0  0
  9 10  1  0  0  0
 10 11  1  0  0  0
 11 12  1  0  0  0
 11 13  1  0  0  0
 11 14  1  0  0  0
 14 15  1  0  0  0
 15 16  2  0  0  0
 15 17  1  0  0  0
  8 18  1  0  0  0
 18 19  2  0  0  0
 19 20  1  0  0  0
 20 21  2  0  0  0
 21 22  1  0  0  0
 21 23  1  0  0  0
 23 24  1  0  0  0
 23 25  2  0  0  0
  7  2  1  0  0  0
 17  9  2  0  0  0
 25 18  1  0  0  0
 17  5  1  0  0  0
 24 26  1  0  0  0
M  END
> <minimizedAffinity>
0.13973

> <CNNscore>
0.4688700140

> <CNNaffinity>
7.0510759354

> <CNN_VS>
3.3060381413

> <CNNaffinity_variance>
0.5065408945

$$$$
[H]Oc1c([H])c(-n2c3c(c4c2C([H])([H])C(C([H])([H])[H])(C([H])([H])[H])C([H])([H])C4=O)C([H])([H])C([H])([H])N(C([H])([H])[H])C3([H])[H])c([H])c([H])c1F


 26 29  0  0  0  0  0  0  0  0999 V2000
   16.9970   28.3969   -3.0630 C   0  0  0  0  0  0  0  0  0  0  0  0
   16.5311   27.5094   -4.0888 N   0  0  0  0  0  0  0  0  0  0  0  0
   17.0593   26.1915   -4.0347 C   0  0  0  0  0  0  0  0  0  0  0  0
   16.3083   25.2302   -3.1872 C   0  0  0  0  0  0  0  0  0  0  0  0
   14.8788   25.5488   -3.0758 C   0  0  0  0  0  0  0  0  0  0  0  0
   14.3104   26.6701   -3.6329 C   0  0  0  0  0  0  0  0  0  0  0  0
   15.1480   27.6208   -4.3868 C   0  0  0  0  0  0  0  0  0  0  0  0
   12.9736   26.6969   -3.3647 N   0  0  0  0  0  0  0  0  0  0  0  0
   12.7002   25.5946   -2.6400 C   0  0  0  0  0  0  0  0  0  0  0  0
   11.4323   25.0745   -2.0563 C   0  0  0  0  0  0  0  0  0  0  0  0
   11.6775   24.1864   -0.8556 C   0  0  0  0  0  0  0  0  0  0  0  0
   12.2776   24.9342    0.3055 C   0  0  0  0  0  0  0  0  0  0  0  0
   10.3376   23.5728   -0.4922 C   0  0  0  0  0  0  0  0  0  0  0  0
   12.5690   23.0172   -1.2836 C   0  0  0  0  0  0  0  0  0  0  0  0
   13.8657   23.6115   -1.6885 C   0  0  0  0  0  0  0  0  0  0  0  0
   14.9657   23.0795   -1.4083 O   0  0  0  0  0  0  0  0  0  0  0  0
   13.8443   24.8569   -2.4373 C   0  0  0  0  0  0  0  0  0  0  0  0
   12.0777   27.7145   -3.7895 C   0  0  0  0  0  0  0  0  0  0  0  0
   12.2043   28.9914   -3.2926 C   0  0  0  0  0  0  0  0  0  0  0  0
   11.3520   29.9983   -3.6850 C   0  0  0  0  0  0  0  0  0  0  0  0
   10.3243   29.7482   -4.6084 C   0  0  0  0  0  0  0  0  0  0  0  0
    9.4832   30.7343   -4.9981 F   0  0  0  0  0  0  0  0  0  0  0  0
   10.1951   28.4691   -5.1082 C   0  0  0  0  0  0  0  0  0  0  0  0
    9.1989   28.1637   -6.0227 O   0  0  0  0  0  0  0  0  0  0  0  0
   11.0512   27.4639   -4.7122 C   0  0  0  0  0  0  0  0  0  0  0  0
    9.0411   27.2758   -6.4255 H   0  0  0  0  0  0  0  0  0  0  0  0
  1  2  1  0  0  0
  2  3  1  0  0  0
  3  4  1  0  0  0
  4  5  1  0  0  0
  5  6  2  0  0  0
  6  7  1  0  0  0
  6  8  1  0  0  0
  8  9  1  0  0  0
  9 10  1  0  0  0
 10 11  1  0  0  0
 11 12  1  0  0  0
 11 13  1  0  0  0
 11 14  1  0  0  0
 14 15  1  0  0  0
 15 16  2  0  0  0
 15 17  1  0  0  0
  8 18  1  0  0  0
 18 19  2  0  0  0
 19 20  1  0  0  0
 20 21  2  0  0  0
 21 22  1  0  0  0
 21 23  1  0  0  0
 23 24  1  0  0  0
 23 25  2  0  0  0
  7  2  1  0  0  0
 17  9  2  0  0  0
 25 18  1  0  0  0
 17  5  1  0  0  0
 24 26  1  0  0  0
M  END
> <minimizedAffinity>
13.98231

> <CNNscore>
0.4574061930

> <CNNaffinity>
6.7410430908

> <CNN_VS>
3.0833947659

> <CNNaffinity_variance>
0.9957343936

$$$$
[H]Oc1c([H])c(-n2c3c(c4c2C([H])([H])C(C([H])([H])[H])(C([H])([H])[H])C([H])([H])C4=O)C([H])([H])C([H])([H])N(C([H])([H])[H])C3([H])[H])c([H])c([H])c1F


 26 29  0  0  0  0  0  0  0  0999 V2000
   18.6354   26.7431   -4.2015 C   0  0  0  0  0  0  0  0  0  0  0  0
   17.7610   27.4879   -3.3426 N   0  0  0  0  0  0  0  0  0  0  0  0
   16.5289   27.8836   -3.9293 C   0  0  0  0  0  0  0  0  0  0  0  0
   15.4187   26.9028   -3.8206 C   0  0  0  0  0  0  0  0  0  0  0  0
   15.5270   26.0324   -2.6423 C   0  0  0  0  0  0  0  0  0  0  0  0
   16.5923   26.0679   -1.7737 C   0  0  0  0  0  0  0  0  0  0  0  0
   17.6980   27.0153   -2.0059 C   0  0  0  0  0  0  0  0  0  0  0  0
   16.4148   25.1499   -0.7811 N   0  0  0  0  0  0  0  0  0  0  0  0
   15.2399   24.5369   -1.0239 C   0  0  0  0  0  0  0  0  0  0  0  0
   14.5109   23.4572   -0.3016 C   0  0  0  0  0  0  0  0  0  0  0  0
   13.5886   22.6796   -1.2155 C   0  0  0  0  0  0  0  0  0  0  0  0
   14.3347   21.9071   -2.2710 C   0  0  0  0  0  0  0  0  0  0  0  0
   12.7716   21.7618   -0.3244 C   0  0  0  0  0  0  0  0  0  0  0  0
   12.5858   23.6517   -1.8436 C   0  0  0  0  0  0  0  0  0  0  0  0
   13.3803   24.5850   -2.6780 C   0  0  0  0  0  0  0  0  0  0  0  0
   12.9896   24.9815   -3.8012 O   0  0  0  0  0  0  0  0  0  0  0  0
   14.6571   25.0483   -2.1610 C   0  0  0  0  0  0  0  0  0  0  0  0
   17.3233   24.9184    0.2864 C   0  0  0  0  0  0  0  0  0  0  0  0
   17.8382   23.6584    0.4882 C   0  0  0  0  0  0  0  0  0  0  0  0
   18.7202   23.4029    1.5133 C   0  0  0  0  0  0  0  0  0  0  0  0
   19.1208   24.4272    2.3861 C   0  0  0  0  0  0  0  0  0  0  0  0
   19.9879   24.1821    3.3959 F   0  0  0  0  0  0  0  0  0  0  0  0
   18.6063   25.6914    2.1862 C   0  0  0  0  0  0  0  0  0  0  0  0
   18.9661   26.7416    3.0166 O   0  0  0  0  0  0  0  0  0  0  0  0
   17.7231   25.9423    1.1579 C   0  0  0  0  0  0  0  0  0  0  0  0
   18.6429   27.6716    2.9397 H   0  0  0  0  0  0  0  0  0  0  0  0
  1  2  1  0  0  0
  2  3  1  0  0  0
  3  4  1  0  0  0
  4  5  1  0  0  0
  5  6  2  0  0  0
  6  7  1  0  0  0
  6  8  1  0  0  0
  8  9  1  0  0  0
  9 10  1  0  0  0
 10 11  1  0  0  0
 11 12  1  0  0  0
 11 13  1  0  0  0
 11 14  1  0  0  0
 14 15  1  0  0  0
 15 16  2  0  0  0
 15 17  1  0  0  0
  8 18  1  0  0  0
 18 19  2  0  0  0
 19 20  1  0  0  0
 20 21  2  0  0  0
 21 22  1  0  0  0
 21 23  1  0  0  0
 23 24  1  0  0  0
 23 25  2  0  0  0
  7  2  1  0  0  0
 17  9  2  0  0  0
 25 18  1  0  0  0
 17  5  1  0  0  0
 24 26  1  0  0  0
M  END
> <minimizedAffinity>
26.35050

> <CNNscore>
0.4526228905

> <CNNaffinity>
7.0839347839

> <CNN_VS>
3.2063510418

> <CNNaffinity_variance>
0.9033355713

$$$$
[H]O[C@]([H])(C([H])([H])N([H])C(=O)c1c(C([H])([H])[H])c(/C([H])=C2\C(=O)N([H])c3c([H])c([H])c(F)c([H])c32)n([H])c1C([H])([H])[H])C([H])([H])N1C([H])([H])C([H])([H])OC([H])([H])C1([H])[H]


 36 39  0  0  0  0  0  0  0  0999 V2000
   14.1344   20.3935    0.9845 C   0  0  0  0  0  0  0  0  0  0  0  0
   13.7465   21.5769    0.1578 C   0  0  0  0  0  0  0  0  0  0  0  0
   14.3827   22.0752   -0.8972 N   0  0  0  0  0  0  0  0  0  0  0  0
   13.7433   23.1345   -1.3681 C   0  0  0  0  0  0  0  0  0  0  0  0
   12.6049   23.3403   -0.5559 C   0  0  0  0  0  0  0  0  0  0  0  0
   11.6067   24.4236   -0.7710 C   0  0  0  0  0  0  0  0  0  0  0  0
   12.6075   22.3804    0.3841 C   0  0  0  0  0  0  0  0  0  0  0  0
   15.2911   21.6513   -1.2653 H   0  0  0  0  0  0  0  0  0  0  0  0
   14.0200   23.9981   -2.5006 C   0  0  0  0  0  0  0  0  0  0  0  0
   14.9893   24.8846   -2.5709 C   0  0  0  0  0  0  0  0  0  0  0  0
   15.9842   25.1902   -1.5601 C   0  0  0  0  0  0  0  0  0  0  0  0
   16.1149   24.6385   -0.4210 O   0  0  0  0  0  0  0  0  0  0  0  0
   16.7931   26.2326   -2.0977 N   0  0  0  0  0  0  0  0  0  0  0  0
   16.3465   26.5982   -3.4151 C   0  0  0  0  0  0  0  0  0  0  0  0
   16.7888   27.5300   -4.3318 C   0  0  0  0  0  0  0  0  0  0  0  0
   16.1646   27.6731   -5.5429 C   0  0  0  0  0  0  0  0  0  0  0  0
   15.0795   26.8762   -5.8520 C   0  0  0  0  0  0  0  0  0  0  0  0
   14.4623   27.0248   -7.0617 F   0  0  0  0  0  0  0  0  0  0  0  0
   14.6503   25.9505   -4.9261 C   0  0  0  0  0  0  0  0  0  0  0  0
   15.2657   25.7938   -3.7052 C   0  0  0  0  0  0  0  0  0  0  0  0
   17.5865   26.6637   -1.6106 H   0  0  0  0  0  0  0  0  0  0  0  0
   11.6333   22.1154    1.4462 C   0  0  0  0  0  0  0  0  0  0  0  0
   12.0828   22.2284    2.6417 O   0  0  0  0  0  0  0  0  0  0  0  0
   10.3002   21.7664    1.2779 N   0  0  0  0  0  0  0  0  0  0  0  0
    9.9504   21.7001    0.2557 H   0  0  0  0  0  0  0  0  0  0  0  0
    9.2935   21.5023    2.2610 C   0  0  0  0  0  0  0  0  0  0  0  0
    7.9272   21.9554    1.8959 C   0  0  0  0  0  0  0  0  0  0  0  0
    7.6485   23.2651    2.2118 O   0  0  0  0  0  0  0  0  0  0  0  0
    6.9902   23.3877    2.9342 H   0  0  0  0  0  0  0  0  0  0  0  0
    7.7432   21.7113    0.3973 C   0  0  0  0  0  0  0  0  0  0  0  0
    7.5081   20.3483    0.0887 N   0  0  0  0  0  0  0  0  0  0  0  0
    6.2815   19.8177    0.5005 C   0  0  0  0  0  0  0  0  0  0  0  0
    5.7074   18.7087   -0.3071 C   0  0  0  0  0  0  0  0  0  0  0  0
    6.5893   18.0730   -1.1416 O   0  0  0  0  0  0  0  0  0  0  0  0
    7.1378   19.0803   -1.9695 C   0  0  0  0  0  0  0  0  0  0  0  0
    8.1050   19.8311   -1.0811 C   0  0  0  0  0  0  0  0  0  0  0  0
  1  2  1  0  0  0
  2  3  1  0  0  0
  3  4  1  0  0  0
  4  9  1  0  0  0
  9 10  2  0  0  0
 10 11  1  0  0  0
 11 12  2  0  0  0
 11 13  1  0  0  0
 13 14  1  0  0  0
 14 15  2  0  0  0
 15 16  1  0  0  0
 16 17  2  0  0  0
 17 18  1  0  0  0
 17 19  1  0  0  0
 19 20  2  0  0  0
  4  5  2  0  0  0
  5  6  1  0  0  0
  5  7  1  0  0  0
  7 22  1  0  0  0
 22 23  2  0  0  0
 22 24  1  0  0  0
 24 26  1  0  0  0
 26 27  1  0  0  0
 27 28  1  0  0  0
 27 30  1  0  0  0
 30 31  1  0  0  0
 31 32  1  0  0  0
 32 33  1  0  0  0
 33 34  1  0  0  0
 34 35  1  0  0  0
 35 36  1  0  0  0
  7  2  2  0  0  0
 36 31  1  0  0  0
 20 10  1  0  0  0
 20 14  1  0  0  0
  3  8  1  0  0  0
 13 21  1  0  0  0
 24 25  1  0  0  0
 28 29  1  0  0  0
M  END
> <minimizedAffinity>
-9.46986

> <CNNscore>
0.5186072588

> <CNNaffinity>
7.4603867531

> <CNN_VS>
3.8690106869

> <CNNaffinity_variance>
0.1955192089

$$$$
[H]O[C@]([H])(C([H])([H])N([H])C(=O)c1c(C([H])([H])[H])c(/C([H])=C2\C(=O)N([H])c3c([H])c([H])c(F)c([H])c32)n([H])c1C([H])([H])[H])C([H])([H])N1C([H])([H])C([H])([H])OC([H])([H])C1([H])[H]


 36 39  0  0  0  0  0  0  0  0999 V2000
   15.0462   28.1698   -4.8561 C   0  0  0  0  0  0  0  0  0  0  0  0
   14.3841   27.1317   -4.0085 C   0  0  0  0  0  0  0  0  0  0  0  0
   14.9561   26.1120   -3.3769 N   0  0  0  0  0  0  0  0  0  0  0  0
   14.0487   25.3988   -2.7283 C   0  0  0  0  0  0  0  0  0  0  0  0
   12.7907   26.0014   -2.9570 C   0  0  0  0  0  0  0  0  0  0  0  0
   11.5094   25.5121   -2.3781 C   0  0  0  0  0  0  0  0  0  0  0  0
   12.9980   27.0689   -3.7460 C   0  0  0  0  0  0  0  0  0  0  0  0
   16.0066   25.9277   -3.4304 H   0  0  0  0  0  0  0  0  0  0  0  0
   14.1731   24.2236   -1.8868 C   0  0  0  0  0  0  0  0  0  0  0  0
   15.1177   24.0142   -0.9957 C   0  0  0  0  0  0  0  0  0  0  0  0
   16.2211   24.8916   -0.6528 C   0  0  0  0  0  0  0  0  0  0  0  0
   16.4669   26.0412   -1.1399 O   0  0  0  0  0  0  0  0  0  0  0  0
   16.9777   24.2114    0.3446 N   0  0  0  0  0  0  0  0  0  0  0  0
   16.3919   22.9332    0.6472 C   0  0  0  0  0  0  0  0  0  0  0  0
   16.7397   21.9241    1.5218 C   0  0  0  0  0  0  0  0  0  0  0  0
   15.9862   20.7835    1.6116 C   0  0  0  0  0  0  0  0  0  0  0  0
   14.8646   20.6399    0.8183 C   0  0  0  0  0  0  0  0  0  0  0  0
   14.1183   19.4997    0.9135 F   0  0  0  0  0  0  0  0  0  0  0  0
   14.5306   21.6566   -0.0496 C   0  0  0  0  0  0  0  0  0  0  0  0
   15.2764   22.8086   -0.1524 C   0  0  0  0  0  0  0  0  0  0  0  0
   17.8255   24.5836    0.7868 H   0  0  0  0  0  0  0  0  0  0  0  0
   12.0382   28.0571   -4.2458 C   0  0  0  0  0  0  0  0  0  0  0  0
   12.2299   29.2589   -3.8423 O   0  0  0  0  0  0  0  0  0  0  0  0
   10.9702   27.8151   -5.0990 N   0  0  0  0  0  0  0  0  0  0  0  0
   10.8510   26.7931   -5.4353 H   0  0  0  0  0  0  0  0  0  0  0  0
   10.0025   28.7252   -5.6327 C   0  0  0  0  0  0  0  0  0  0  0  0
    9.1826   29.4342   -4.6177 C   0  0  0  0  0  0  0  0  0  0  0  0
    9.4576   30.7759   -4.4866 O   0  0  0  0  0  0  0  0  0  0  0  0
    9.8867   31.0315   -3.6376 H   0  0  0  0  0  0  0  0  0  0  0  0
    7.7117   29.2180   -4.9769 C   0  0  0  0  0  0  0  0  0  0  0  0
    6.8361   29.5118   -3.9021 N   0  0  0  0  0  0  0  0  0  0  0  0
    6.1064   28.4390   -3.3802 C   0  0  0  0  0  0  0  0  0  0  0  0
    5.7252   28.5018   -1.9442 C   0  0  0  0  0  0  0  0  0  0  0  0
    5.7985   29.7447   -1.3714 O   0  0  0  0  0  0  0  0  0  0  0  0
    7.1272   30.1877   -1.5697 C   0  0  0  0  0  0  0  0  0  0  0  0
    7.1983   30.5636   -3.0333 C   0  0  0  0  0  0  0  0  0  0  0  0
  1  2  1  0  0  0
  2  3  1  0  0  0
  3  4  1  0  0  0
  4  9  1  0  0  0
  9 10  2  0  0  0
 10 11  1  0  0  0
 11 12  2  0  0  0
 11 13  1  0  0  0
 13 14  1  0  0  0
 14 15  2  0  0  0
 15 16  1  0  0  0
 16 17  2  0  0  0
 17 18  1  0  0  0
 17 19  1  0  0  0
 19 20  2  0  0  0
  4  5  2  0  0  0
  5  6  1  0  0  0
  5  7  1  0  0  0
  7 22  1  0  0  0
 22 23  2  0  0  0
 22 24  1  0  0  0
 24 26  1  0  0  0
 26 27  1  0  0  0
 27 28  1  0  0  0
 27 30  1  0  0  0
 30 31  1  0  0  0
 31 32  1  0  0  0
 32 33  1  0  0  0
 33 34  1  0  0  0
 34 35  1  0  0  0
 35 36  1  0  0  0
  7  2  2  0  0  0
 36 31  1  0  0  0
 20 10  1  0  0  0
 20 14  1  0  0  0
  3  8  1  0  0  0
 13 21  1  0  0  0
 24 25  1  0  0  0
 28 29  1  0  0  0
M  END
> <minimizedAffinity>
9.76423

> <CNNscore>
0.4881194830

> <CNNaffinity>
6.5875272751

> <CNN_VS>
3.2155003548

> <CNNaffinity_variance>
0.5667439699

$$$$
[H]O[C@]([H])(C([H])([H])N([H])C(=O)c1c(C([H])([H])[H])c(/C([H])=C2\C(=O)N([H])c3c([H])c([H])c(F)c([H])c32)n([H])c1C([H])([H])[H])C([H])([H])N1C([H])([H])C([H])([H])OC([H])([H])C1([H])[H]


 36 39  0  0  0  0  0  0  0  0999 V2000
   12.0575   21.2133   -0.2293 C   0  0  0  0  0  0  0  0  0  0  0  0
   12.7263   22.3835   -0.8756 C   0  0  0  0  0  0  0  0  0  0  0  0
   13.3303   22.4233   -2.0586 N   0  0  0  0  0  0  0  0  0  0  0  0
   13.8127   23.6335   -2.2939 C   0  0  0  0  0  0  0  0  0  0  0  0
   13.4985   24.4413   -1.1773 C   0  0  0  0  0  0  0  0  0  0  0  0
   13.8476   25.8839   -1.0619 C   0  0  0  0  0  0  0  0  0  0  0  0
   12.8292   23.6705   -0.3038 C   0  0  0  0  0  0  0  0  0  0  0  0
   13.4032   21.5640   -2.6885 H   0  0  0  0  0  0  0  0  0  0  0  0
   14.5216   24.1792   -3.4360 C   0  0  0  0  0  0  0  0  0  0  0  0
   14.2768   25.3374   -4.0095 C   0  0  0  0  0  0  0  0  0  0  0  0
   13.2712   26.3145   -3.6367 C   0  0  0  0  0  0  0  0  0  0  0  0
   12.4502   26.2387   -2.6675 O   0  0  0  0  0  0  0  0  0  0  0  0
   13.3864   27.3833   -4.5718 N   0  0  0  0  0  0  0  0  0  0  0  0
   14.4310   27.1187   -5.5243 C   0  0  0  0  0  0  0  0  0  0  0  0
   14.9220   27.8283   -6.6010 C   0  0  0  0  0  0  0  0  0  0  0  0
   15.9497   27.3312   -7.3585 C   0  0  0  0  0  0  0  0  0  0  0  0
   16.5022   26.1054   -7.0423 C   0  0  0  0  0  0  0  0  0  0  0  0
   17.5266   25.6163   -7.8023 F   0  0  0  0  0  0  0  0  0  0  0  0
   16.0009   25.4093   -5.9641 C   0  0  0  0  0  0  0  0  0  0  0  0
   14.9692   25.8940   -5.1929 C   0  0  0  0  0  0  0  0  0  0  0  0
   12.8029   28.2273   -4.5659 H   0  0  0  0  0  0  0  0  0  0  0  0
   12.2430   24.0255    0.9914 C   0  0  0  0  0  0  0  0  0  0  0  0
   13.0847   24.2122    1.9403 O   0  0  0  0  0  0  0  0  0  0  0  0
   10.8925   24.1783    1.2743 N   0  0  0  0  0  0  0  0  0  0  0  0
   10.2124   24.0330    0.4448 H   0  0  0  0  0  0  0  0  0  0  0  0
   10.2505   24.5296    2.5049 C   0  0  0  0  0  0  0  0  0  0  0  0
   10.0834   23.4100    3.4661 C   0  0  0  0  0  0  0  0  0  0  0  0
    8.8229   23.2939    4.0052 O   0  0  0  0  0  0  0  0  0  0  0  0
    8.7593   23.5093    4.9642 H   0  0  0  0  0  0  0  0  0  0  0  0
   10.4840   22.1199    2.7488 C   0  0  0  0  0  0  0  0  0  0  0  0
   10.9605   21.1240    3.6373 N   0  0  0  0  0  0  0  0  0  0  0  0
   10.0136   20.2178    4.1250 C   0  0  0  0  0  0  0  0  0  0  0  0
   10.4866   18.8517    4.4737 C   0  0  0  0  0  0  0  0  0  0  0  0
   11.8415   18.7232    4.6346 O   0  0  0  0  0  0  0  0  0  0  0  0
   12.4222   19.1746    3.4263 C   0  0  0  0  0  0  0  0  0  0  0  0
   12.2901   20.6810    3.4693 C   0  0  0  0  0  0  0  0  0  0  0  0
  1  2  1  0  0  0
  2  3  1  0  0  0
  3  4  1  0  0  0
  4  9  1  0  0  0
  9 10  2  0  0  0
 10 11  1  0  0  0
 11 12  2  0  0  0
 11 13  1  0  0  0
 13 14  1  0  0  0
 14 15  2  0  0  0
 15 16  1  0  0  0
 16 17  2  0  0  0
 17 18  1  0  0  0
 17 19  1  0  0  0
 19 20  2  0  0  0
  4  5  2  0  0  0
  5  6  1  0  0  0
  5  7  1  0  0  0
  7 22  1  0  0  0
 22 23  2  0  0  0
 22 24  1  0  0  0
 24 26  1  0  0  0
 26 27  1  0  0  0
 27 28  1  0  0  0
 27 30  1  0  0  0
 30 31  1  0  0  0
 31 32  1  0  0  0
 32 33  1  0  0  0
 33 34  1  0  0  0
 34 35  1  0  0  0
 35 36  1  0  0  0
  7  2  2  0  0  0
 36 31  1  0  0  0
 20 10  1  0  0  0
 20 14  1  0  0  0
  3  8  1  0  0  0
 13 21  1  0  0  0
 24 25  1  0  0  0
 28 29  1  0  0  0
M  END
> <minimizedAffinity>
0.74890

> <CNNscore>
0.4816027880

> <CNNaffinity>
6.7496666908

> <CNN_VS>
3.2506582737

> <CNNaffinity_variance>
0.3303714991

$$$$
[H]O[C@]([H])(C([H])([H])N([H])C(=O)c1c(C([H])([H])[H])c(/C([H])=C2\C(=O)N([H])c3c([H])c([H])c(F)c([H])c32)n([H])c1C([H])([H])[H])C([H])([H])N1C([H])([H])C([H])([H])OC([H])([H])C1([H])[H]


 36 39  0  0  0  0  0  0  0  0999 V2000
   14.8711   28.1266   -4.4621 C   0  0  0  0  0  0  0  0  0  0  0  0
   14.0511   27.1831   -3.6425 C   0  0  0  0  0  0  0  0  0  0  0  0
   14.4827   26.1975   -2.8626 N   0  0  0  0  0  0  0  0  0  0  0  0
   13.4625   25.5704   -2.2982 C   0  0  0  0  0  0  0  0  0  0  0  0
   12.2773   26.1964   -2.7468 C   0  0  0  0  0  0  0  0  0  0  0  0
   10.9071   25.7999   -2.3207 C   0  0  0  0  0  0  0  0  0  0  0  0
   12.6406   27.1899   -3.5751 C   0  0  0  0  0  0  0  0  0  0  0  0
   15.5210   25.9729   -2.7530 H   0  0  0  0  0  0  0  0  0  0  0  0
   13.4152   24.4622   -1.3630 C   0  0  0  0  0  0  0  0  0  0  0  0
   14.0053   23.2975   -1.5227 C   0  0  0  0  0  0  0  0  0  0  0  0
   14.8248   22.8663   -2.6397 C   0  0  0  0  0  0  0  0  0  0  0  0
   15.1418   23.5478   -3.6665 O   0  0  0  0  0  0  0  0  0  0  0  0
   15.2102   21.5239   -2.3579 N   0  0  0  0  0  0  0  0  0  0  0  0
   14.6645   21.0888   -1.1003 C   0  0  0  0  0  0  0  0  0  0  0  0
   14.7473   19.9022   -0.4009 C   0  0  0  0  0  0  0  0  0  0  0  0
   14.1146   19.7537    0.8052 C   0  0  0  0  0  0  0  0  0  0  0  0
   13.3849   20.8030    1.3291 C   0  0  0  0  0  0  0  0  0  0  0  0
   12.7570   20.6473    2.5323 F   0  0  0  0  0  0  0  0  0  0  0  0
   13.3122   21.9813    0.6186 C   0  0  0  0  0  0  0  0  0  0  0  0
   13.9414   22.1472   -0.5941 C   0  0  0  0  0  0  0  0  0  0  0  0
   15.7974   20.9464   -2.9697 H   0  0  0  0  0  0  0  0  0  0  0  0
   11.8056   28.1680   -4.2775 C   0  0  0  0  0  0  0  0  0  0  0  0
   12.2206   29.3800   -4.2248 O   0  0  0  0  0  0  0  0  0  0  0  0
   10.6378   27.9056   -4.9808 N   0  0  0  0  0  0  0  0  0  0  0  0
   10.3286   26.8690   -5.0213 H   0  0  0  0  0  0  0  0  0  0  0  0
    9.7795   28.8023   -5.6944 C   0  0  0  0  0  0  0  0  0  0  0  0
    9.8884   30.2274   -5.2913 C   0  0  0  0  0  0  0  0  0  0  0  0
    9.3030   31.1202   -6.1591 O   0  0  0  0  0  0  0  0  0  0  0  0
    9.9328   31.6962   -6.6508 H   0  0  0  0  0  0  0  0  0  0  0  0
    9.2848   30.3606   -3.8923 C   0  0  0  0  0  0  0  0  0  0  0  0
    8.1410   29.5443   -3.7088 N   0  0  0  0  0  0  0  0  0  0  0  0
    7.1775   30.0128   -2.8101 C   0  0  0  0  0  0  0  0  0  0  0  0
    5.7644   29.6166   -3.0502 C   0  0  0  0  0  0  0  0  0  0  0  0
    5.5891   28.5499   -3.8926 O   0  0  0  0  0  0  0  0  0  0  0  0
    6.2373   28.8968   -5.1011 C   0  0  0  0  0  0  0  0  0  0  0  0
    7.7144   28.7621   -4.8036 C   0  0  0  0  0  0  0  0  0  0  0  0
  1  2  1  0  0  0
  2  3  1  0  0  0
  3  4  1  0  0  0
  4  9  1  0  0  0
  9 10  2  0  0  0
 10 11  1  0  0  0
 11 12  2  0  0  0
 11 13  1  0  0  0
 13 14  1  0  0  0
 14 15  2  0  0  0
 15 16  1  0  0  0
 16 17  2  0  0  0
 17 18  1  0  0  0
 17 19  1  0  0  0
 19 20  2  0  0  0
  4  5  2  0  0  0
  5  6  1  0  0  0
  5  7  1  0  0  0
  7 22  1  0  0  0
 22 23  2  0  0  0
 22 24  1  0  0  0
 24 26  1  0  0  0
 26 27  1  0  0  0
 27 28  1  0  0  0
 27 30  1  0  0  0
 30 31  1  0  0  0
 31 32  1  0  0  0
 32 33  1  0  0  0
 33 34  1  0  0  0
 34 35  1  0  0  0
 35 36  1  0  0  0
  7  2  2  0  0  0
 36 31  1  0  0  0
 20 10  1  0  0  0
 20 14  1  0  0  0
  3  8  1  0  0  0
 13 21  1  0  0  0
 24 25  1  0  0  0
 28 29  1  0  0  0
M  END
> <minimizedAffinity>
15.55628

> <CNNscore>
0.4713581204

> <CNNaffinity>
6.7047700882

> <CNN_VS>
3.1603479385

> <CNNaffinity_variance>
0.7465650439

$$$$
[H]O[C@]([H])(C([H])([H])N([H])C(=O)c1c(C([H])([H])[H])c(/C([H])=C2\C(=O)N([H])c3c([H])c([H])c(F)c([H])c32)n([H])c1C([H])([H])[H])C([H])([H])N1C([H])([H])C([H])([H])OC([H])([H])C1([H])[H]


 36 39  0  0  0  0  0  0  0  0999 V2000
   14.1624   20.4108    0.9932 C   0  0  0  0  0  0  0  0  0  0  0  0
   13.7670   21.5891    0.1628 C   0  0  0  0  0  0  0  0  0  0  0  0
   14.4095   22.0991   -0.8827 N   0  0  0  0  0  0  0  0  0  0  0  0
   13.7597   23.1487   -1.3610 C   0  0  0  0  0  0  0  0  0  0  0  0
   12.6071   23.3350   -0.5642 C   0  0  0  0  0  0  0  0  0  0  0  0
   11.5947   24.4025   -0.7916 C   0  0  0  0  0  0  0  0  0  0  0  0
   12.6122   22.3738    0.3745 C   0  0  0  0  0  0  0  0  0  0  0  0
   15.3296   21.6904   -1.2389 H   0  0  0  0  0  0  0  0  0  0  0  0
   14.0380   24.0183   -2.4884 C   0  0  0  0  0  0  0  0  0  0  0  0
   15.0111   24.9010   -2.5550 C   0  0  0  0  0  0  0  0  0  0  0  0
   16.0093   25.1958   -1.5442 C   0  0  0  0  0  0  0  0  0  0  0  0
   16.1397   24.6361   -0.4089 O   0  0  0  0  0  0  0  0  0  0  0  0
   16.8217   26.2380   -2.0767 N   0  0  0  0  0  0  0  0  0  0  0  0
   16.3741   26.6141   -3.3908 C   0  0  0  0  0  0  0  0  0  0  0  0
   16.8188   27.5497   -4.3023 C   0  0  0  0  0  0  0  0  0  0  0  0
   16.1929   27.7033   -5.5113 C   0  0  0  0  0  0  0  0  0  0  0  0
   15.1037   26.9132   -5.8234 C   0  0  0  0  0  0  0  0  0  0  0  0
   14.4849   27.0723   -7.0309 F   0  0  0  0  0  0  0  0  0  0  0  0
   14.6723   25.9835   -4.9026 C   0  0  0  0  0  0  0  0  0  0  0  0
   15.2893   25.8163   -3.6839 C   0  0  0  0  0  0  0  0  0  0  0  0
   17.6180   26.6625   -1.5883 H   0  0  0  0  0  0  0  0  0  0  0  0
   11.6279   22.0916    1.4227 C   0  0  0  0  0  0  0  0  0  0  0  0
   12.0969   22.0434    2.6151 O   0  0  0  0  0  0  0  0  0  0  0  0
   10.2671   21.8819    1.2451 N   0  0  0  0  0  0  0  0  0  0  0  0
    9.9033   21.9501    0.2279 H   0  0  0  0  0  0  0  0  0  0  0  0
    9.2498   21.6114    2.2155 C   0  0  0  0  0  0  0  0  0  0  0  0
    8.2294   22.6795    2.3677 C   0  0  0  0  0  0  0  0  0  0  0  0
    7.0501   22.4526    1.6964 O   0  0  0  0  0  0  0  0  0  0  0  0
    6.8850   23.0511    0.9317 H   0  0  0  0  0  0  0  0  0  0  0  0
    7.9713   22.8638    3.8639 C   0  0  0  0  0  0  0  0  0  0  0  0
    7.9870   24.2246    4.2594 N   0  0  0  0  0  0  0  0  0  0  0  0
    9.1436   24.9496    3.9553 C   0  0  0  0  0  0  0  0  0  0  0  0
    8.9968   26.4114    3.7248 C   0  0  0  0  0  0  0  0  0  0  0  0
    7.8310   26.9641    4.1871 O   0  0  0  0  0  0  0  0  0  0  0  0
    6.7844   26.2396    3.5702 C   0  0  0  0  0  0  0  0  0  0  0  0
    6.7535   24.9099    4.2909 C   0  0  0  0  0  0  0  0  0  0  0  0
  1  2  1  0  0  0
  2  3  1  0  0  0
  3  4  1  0  0  0
  4  9  1  0  0  0
  9 10  2  0  0  0
 10 11  1  0  0  0
 11 12  2  0  0  0
 11 13  1  0  0  0
 13 14  1  0  0  0
 14 15  2  0  0  0
 15 16  1  0  0  0
 16 17  2  0  0  0
 17 18  1  0  0  0
 17 19  1  0  0  0
 19 20  2  0  0  0
  4  5  2  0  0  0
  5  6  1  0  0  0
  5  7  1  0  0  0
  7 22  1  0  0  0
 22 23  2  0  0  0
 22 24  1  0  0  0
 24 26  1  0  0  0
 26 27  1  0  0  0
 27 28  1  0  0  0
 27 30  1  0  0  0
 30 31  1  0  0  0
 31 32  1  0  0  0
 32 33  1  0  0  0
 33 34  1  0  0  0
 34 35  1  0  0  0
 35 36  1  0  0  0
  7  2  2  0  0  0
 36 31  1  0  0  0
 20 10  1  0  0  0
 20 14  1  0  0  0
  3  8  1  0  0  0
 13 21  1  0  0  0
 24 25  1  0  0  0
 28 29  1  0  0  0
M  END
> <minimizedAffinity>
-9.74329

> <CNNscore>
0.4712748528

> <CNNaffinity>
7.0895180702

> <CNN_VS>
3.3411116600

> <CNNaffinity_variance>
0.0687256679

$$$$
[H]O[C@]([H])(C([H])([H])N([H])C(=O)c1c(C([H])([H])[H])c(/C([H])=C2\C(=O)N([H])c3c([H])c([H])c(F)c([H])c32)n([H])c1C([H])([H])[H])C([H])([H])N1C([H])([H])C([H])([H])OC([H])([H])C1([H])[H]


 36 39  0  0  0  0  0  0  0  0999 V2000
   10.0355   23.4276    2.0596 C   0  0  0  0  0  0  0  0  0  0  0  0
   10.9546   23.3303    0.8848 C   0  0  0  0  0  0  0  0  0  0  0  0
   11.2520   24.2802    0.0044 N   0  0  0  0  0  0  0  0  0  0  0  0
   12.1000   23.8234   -0.9039 C   0  0  0  0  0  0  0  0  0  0  0  0
   12.3736   22.4728   -0.5894 C   0  0  0  0  0  0  0  0  0  0  0  0
   13.3057   21.6051   -1.3605 C   0  0  0  0  0  0  0  0  0  0  0  0
   11.6675   22.1695    0.5126 C   0  0  0  0  0  0  0  0  0  0  0  0
   10.8254   25.2579    0.0575 H   0  0  0  0  0  0  0  0  0  0  0  0
   12.7316   24.4699   -2.0388 C   0  0  0  0  0  0  0  0  0  0  0  0
   13.9613   24.9360   -2.0701 C   0  0  0  0  0  0  0  0  0  0  0  0
   14.9467   24.9053   -1.0057 C   0  0  0  0  0  0  0  0  0  0  0  0
   14.8078   24.4000    0.1538 O   0  0  0  0  0  0  0  0  0  0  0  0
   16.1083   25.5523   -1.5177 N   0  0  0  0  0  0  0  0  0  0  0  0
   15.8943   25.9915   -2.8704 C   0  0  0  0  0  0  0  0  0  0  0  0
   16.6939   26.6512   -3.7812 C   0  0  0  0  0  0  0  0  0  0  0  0
   16.2277   26.9537   -5.0335 C   0  0  0  0  0  0  0  0  0  0  0  0
   14.9426   26.5948   -5.3906 C   0  0  0  0  0  0  0  0  0  0  0  0
   14.4850   26.8998   -6.6411 F   0  0  0  0  0  0  0  0  0  0  0  0
   14.1570   25.9363   -4.4699 C   0  0  0  0  0  0  0  0  0  0  0  0
   14.6094   25.6250   -3.2080 C   0  0  0  0  0  0  0  0  0  0  0  0
   16.9791   25.6865   -0.9920 H   0  0  0  0  0  0  0  0  0  0  0  0
   11.6228   20.9184    1.2741 C   0  0  0  0  0  0  0  0  0  0  0  0
   11.0082   19.9503    0.7005 O   0  0  0  0  0  0  0  0  0  0  0  0
   12.1765   20.6920    2.5269 N   0  0  0  0  0  0  0  0  0  0  0  0
   12.7051   21.5252    2.9718 H   0  0  0  0  0  0  0  0  0  0  0  0
   12.1802   19.5021    3.3230 C   0  0  0  0  0  0  0  0  0  0  0  0
   11.0497   19.3843    4.2787 C   0  0  0  0  0  0  0  0  0  0  0  0
   11.0790   18.2617    5.0737 O   0  0  0  0  0  0  0  0  0  0  0  0
   10.3757   17.5989    4.8833 H   0  0  0  0  0  0  0  0  0  0  0  0
   11.0334   20.6512    5.1354 C   0  0  0  0  0  0  0  0  0  0  0  0
    9.7208   21.1002    5.4250 N   0  0  0  0  0  0  0  0  0  0  0  0
    9.5196   22.4841    5.4215 C   0  0  0  0  0  0  0  0  0  0  0  0
    8.1651   22.9801    5.0596 C   0  0  0  0  0  0  0  0  0  0  0  0
    7.1623   22.0481    5.1246 O   0  0  0  0  0  0  0  0  0  0  0  0
    7.5622   20.9855    4.2809 C   0  0  0  0  0  0  0  0  0  0  0  0
    8.6470   20.2643    5.0501 C   0  0  0  0  0  0  0  0  0  0  0  0
  1  2  1  0  0  0
  2  3  1  0  0  0
  3  4  1  0  0  0
  4  9  1  0  0  0
  9 10  2  0  0  0
 10 11  1  0  0  0
 11 12  2  0  0  0
 11 13  1  0  0  0
 13 14  1  0  0  0
 14 15  2  0  0  0
 15 16  1  0  0  0
 16 17  2  0  0  0
 17 18  1  0  0  0
 17 19  1  0  0  0
 19 20  2  0  0  0
  4  5  2  0  0  0
  5  6  1  0  0  0
  5  7  1  0  0  0
  7 22  1  0  0  0
 22 23  2  0  0  0
 22 24  1  0  0  0
 24 26  1  0  0  0
 26 27  1  0  0  0
 27 28  1  0  0  0
 27 30  1  0  0  0
 30 31  1  0  0  0
 31 32  1  0  0  0
 32 33  1  0  0  0
 33 34  1  0  0  0
 34 35  1  0  0  0
 35 36  1  0  0  0
  7  2  2  0  0  0
 36 31  1  0  0  0
 20 10  1  0  0  0
 20 14  1  0  0  0
  3  8  1  0  0  0
 13 21  1  0  0  0
 24 25  1  0  0  0
 28 29  1  0  0  0
M  END
> <minimizedAffinity>
-9.18930

> <CNNscore>
0.4476938248

> <CNNaffinity>
6.8727645874

> <CNN_VS>
3.0768942833

> <CNNaffinity_variance>
0.0890206546

$$$$
[H]O[C@]([H])(C([H])([H])N([H])C(=O)c1c(C([H])([H])[H])c(/C([H])=C2\C(=O)N([H])c3c([H])c([H])c(F)c([H])c32)n([H])c1C([H])([H])[H])C([H])([H])N1C([H])([H])C([H])([H])OC([H])([H])C1([H])[H]


 36 39  0  0  0  0  0  0  0  0999 V2000
   13.1357   27.2125   -0.6936 C   0  0  0  0  0  0  0  0  0  0  0  0
   12.9101   25.7525   -0.9215 C   0  0  0  0  0  0  0  0  0  0  0  0
   11.8510   25.0295   -0.5731 N   0  0  0  0  0  0  0  0  0  0  0  0
   12.0107   23.7663   -0.9356 C   0  0  0  0  0  0  0  0  0  0  0  0
   13.2708   23.6609   -1.5672 C   0  0  0  0  0  0  0  0  0  0  0  0
   13.8170   22.4013   -2.1428 C   0  0  0  0  0  0  0  0  0  0  0  0
   13.8245   24.8850   -1.5581 C   0  0  0  0  0  0  0  0  0  0  0  0
   11.0174   25.4544   -0.0580 H   0  0  0  0  0  0  0  0  0  0  0  0
   11.1417   22.6121   -0.8030 C   0  0  0  0  0  0  0  0  0  0  0  0
   10.1733   22.4776    0.0770 C   0  0  0  0  0  0  0  0  0  0  0  0
    9.7571   23.4318    1.0877 C   0  0  0  0  0  0  0  0  0  0  0  0
   10.2425   24.5895    1.2957 O   0  0  0  0  0  0  0  0  0  0  0  0
    8.6899   22.8161    1.8032 N   0  0  0  0  0  0  0  0  0  0  0  0
    8.4139   21.5048    1.2808 C   0  0  0  0  0  0  0  0  0  0  0  0
    7.4966   20.5320    1.6219 C   0  0  0  0  0  0  0  0  0  0  0  0
    7.4486   19.3441    0.9410 C   0  0  0  0  0  0  0  0  0  0  0  0
    8.3279   19.1156   -0.0995 C   0  0  0  0  0  0  0  0  0  0  0  0
    8.2739   17.9287   -0.7737 F   0  0  0  0  0  0  0  0  0  0  0  0
    9.2374   20.0970   -0.4279 C   0  0  0  0  0  0  0  0  0  0  0  0
    9.2992   21.2956    0.2456 C   0  0  0  0  0  0  0  0  0  0  0  0
    8.1869   23.2499    2.5852 H   0  0  0  0  0  0  0  0  0  0  0  0
   15.1024   25.3325   -2.1185 C   0  0  0  0  0  0  0  0  0  0  0  0
   16.1223   24.6312   -1.7838 O   0  0  0  0  0  0  0  0  0  0  0  0
   15.3016   26.4172   -2.9617 N   0  0  0  0  0  0  0  0  0  0  0  0
   14.4157   26.9738   -3.2394 H   0  0  0  0  0  0  0  0  0  0  0  0
   16.5109   26.9062   -3.5516 C   0  0  0  0  0  0  0  0  0  0  0  0
   16.4526   27.1119   -5.0212 C   0  0  0  0  0  0  0  0  0  0  0  0
   17.4842   26.5369   -5.7270 O   0  0  0  0  0  0  0  0  0  0  0  0
   18.1159   27.1741   -6.1333 H   0  0  0  0  0  0  0  0  0  0  0  0
   15.1037   26.5818   -5.5099 C   0  0  0  0  0  0  0  0  0  0  0  0
   15.1394   25.2007   -5.8259 N   0  0  0  0  0  0  0  0  0  0  0  0
   16.3965   24.6574   -6.1087 C   0  0  0  0  0  0  0  0  0  0  0  0
   16.6087   23.2189   -5.7971 C   0  0  0  0  0  0  0  0  0  0  0  0
   15.4668   22.4837   -5.6135 O   0  0  0  0  0  0  0  0  0  0  0  0
   14.7474   23.1316   -4.5822 C   0  0  0  0  0  0  0  0  0  0  0  0
   14.1668   24.3691   -5.2303 C   0  0  0  0  0  0  0  0  0  0  0  0
  1  2  1  0  0  0
  2  3  1  0  0  0
  3  4  1  0  0  0
  4  9  1  0  0  0
  9 10  2  0  0  0
 10 11  1  0  0  0
 11 12  2  0  0  0
 11 13  1  0  0  0
 13 14  1  0  0  0
 14 15  2  0  0  0
 15 16  1  0  0  0
 16 17  2  0  0  0
 17 18  1  0  0  0
 17 19  1  0  0  0
 19 20  2  0  0  0
  4  5  2  0  0  0
  5  6  1  0  0  0
  5  7  1  0  0  0
  7 22  1  0  0  0
 22 23  2  0  0  0
 22 24  1  0  0  0
 24 26  1  0  0  0
 26 27  1  0  0  0
 27 28  1  0  0  0
 27 30  1  0  0  0
 30 31  1  0  0  0
 31 32  1  0  0  0
 32 33  1  0  0  0
 33 34  1  0  0  0
 34 35  1  0  0  0
 35 36  1  0  0  0
  7  2  2  0  0  0
 36 31  1  0  0  0
 20 10  1  0  0  0
 20 14  1  0  0  0
  3  8  1  0  0  0
 13 21  1  0  0  0
 24 25  1  0  0  0
 28 29  1  0  0  0
M  END
> <minimizedAffinity>
12.99551

> <CNNscore>
0.4006770849

> <CNNaffinity>
6.9092497826

> <CNN_VS>
2.7683780193

> <CNNaffinity_variance>
1.0927023888

$$$$
[H]O[C@]([H])(C([H])([H])N([H])C(=O)c1c(C([H])([H])[H])c(/C([H])=C2\C(=O)N([H])c3c([H])c([H])c(F)c([H])c32)n([H])c1C([H])([H])[H])C([H])([H])N1C([H])([H])C([H])([H])OC([H])([H])C1([H])[H]


 36 39  0  0  0  0  0  0  0  0999 V2000
   12.7758   20.1376   -1.3182 C   0  0  0  0  0  0  0  0  0  0  0  0
   13.4341   21.4640   -1.1137 C   0  0  0  0  0  0  0  0  0  0  0  0
   14.1652   22.1516   -1.9847 N   0  0  0  0  0  0  0  0  0  0  0  0
   14.5891   23.2836   -1.4447 C   0  0  0  0  0  0  0  0  0  0  0  0
   14.0960   23.3345   -0.1210 C   0  0  0  0  0  0  0  0  0  0  0  0
   14.3321   24.4649    0.8184 C   0  0  0  0  0  0  0  0  0  0  0  0
   13.3846   22.2130    0.0824 C   0  0  0  0  0  0  0  0  0  0  0  0
   14.3671   21.7887   -2.9686 H   0  0  0  0  0  0  0  0  0  0  0  0
   15.3856   24.3675   -1.9883 C   0  0  0  0  0  0  0  0  0  0  0  0
   14.9488   25.3125   -2.7923 C   0  0  0  0  0  0  0  0  0  0  0  0
   13.6019   25.4880   -3.3022 C   0  0  0  0  0  0  0  0  0  0  0  0
   12.5850   24.7669   -3.0467 O   0  0  0  0  0  0  0  0  0  0  0  0
   13.6405   26.6346   -4.1469 N   0  0  0  0  0  0  0  0  0  0  0  0
   14.9651   27.1934   -4.1898 C   0  0  0  0  0  0  0  0  0  0  0  0
   15.5051   28.2800   -4.8469 C   0  0  0  0  0  0  0  0  0  0  0  0
   16.8310   28.5956   -4.7075 C   0  0  0  0  0  0  0  0  0  0  0  0
   17.6384   27.8183   -3.9001 C   0  0  0  0  0  0  0  0  0  0  0  0
   18.9594   28.1394   -3.7661 F   0  0  0  0  0  0  0  0  0  0  0  0
   17.0839   26.7371   -3.2507 C   0  0  0  0  0  0  0  0  0  0  0  0
   15.7543   26.4060   -3.3797 C   0  0  0  0  0  0  0  0  0  0  0  0
   12.8325   27.0104   -4.6555 H   0  0  0  0  0  0  0  0  0  0  0  0
   12.6318   21.7905    1.2665 C   0  0  0  0  0  0  0  0  0  0  0  0
   13.2350   20.9546    2.0289 O   0  0  0  0  0  0  0  0  0  0  0  0
   11.3584   22.2075    1.6296 N   0  0  0  0  0  0  0  0  0  0  0  0
   10.8879   22.9286    0.9736 H   0  0  0  0  0  0  0  0  0  0  0  0
   10.5687   21.8470    2.7681 C   0  0  0  0  0  0  0  0  0  0  0  0
    9.1503   22.2832    2.7102 C   0  0  0  0  0  0  0  0  0  0  0  0
    8.2287   21.2635    2.7706 O   0  0  0  0  0  0  0  0  0  0  0  0
    7.7270   21.1065    1.9376 H   0  0  0  0  0  0  0  0  0  0  0  0
    8.9257   23.2810    3.8475 C   0  0  0  0  0  0  0  0  0  0  0  0
    8.4258   24.5267    3.3930 N   0  0  0  0  0  0  0  0  0  0  0  0
    7.0895   24.8098    3.6925 C   0  0  0  0  0  0  0  0  0  0  0  0
    6.7099   26.2384    3.8549 C   0  0  0  0  0  0  0  0  0  0  0  0
    7.6008   27.1443    3.3408 O   0  0  0  0  0  0  0  0  0  0  0  0
    8.8405   26.8685    3.9637 C   0  0  0  0  0  0  0  0  0  0  0  0
    9.3360   25.6017    3.3017 C   0  0  0  0  0  0  0  0  0  0  0  0
  1  2  1  0  0  0
  2  3  1  0  0  0
  3  4  1  0  0  0
  4  9  1  0  0  0
  9 10  2  0  0  0
 10 11  1  0  0  0
 11 12  2  0  0  0
 11 13  1  0  0  0
 13 14  1  0  0  0
 14 15  2  0  0  0
 15 16  1  0  0  0
 16 17  2  0  0  0
 17 18  1  0  0  0
 17 19  1  0  0  0
 19 20  2  0  0  0
  4  5  2  0  0  0
  5  6  1  0  0  0
  5  7  1  0  0  0
  7 22  1  0  0  0
 22 23  2  0  0  0
 22 24  1  0  0  0
 24 26  1  0  0  0
 26 27  1  0  0  0
 27 28  1  0  0  0
 27 30  1  0  0  0
 30 31  1  0  0  0
 31 32  1  0  0  0
 32 33  1  0  0  0
 33 34  1  0  0  0
 34 35  1  0  0  0
 35 36  1  0  0  0
  7  2  2  0  0  0
 36 31  1  0  0  0
 20 10  1  0  0  0
 20 14  1  0  0  0
  3  8  1  0  0  0
 13 21  1  0  0  0
 24 25  1  0  0  0
 28 29  1  0  0  0
M  END
> <minimizedAffinity>
-7.85679

> <CNNscore>
0.3730372787

> <CNNaffinity>
6.8172378540

> <CNN_VS>
2.5430839062

> <CNNaffinity_variance>
0.3093899190

$$$$
[H]O[C@]([H])(C([H])([H])N([H])C(=O)c1c(C([H])([H])[H])c(/C([H])=C2\C(=O)N([H])c3c([H])c([H])c(F)c([H])c32)n([H])c1C([H])([H])[H])C([H])([H])N1C([H])([H])C([H])([H])OC([H])([H])C1([H])[H]


 36 39  0  0  0  0  0  0  0  0999 V2000
   14.7705   20.3406    0.9618 C   0  0  0  0  0  0  0  0  0  0  0  0
   14.2313   21.4173    0.0762 C   0  0  0  0  0  0  0  0  0  0  0  0
   14.8576   22.0458   -0.9131 N   0  0  0  0  0  0  0  0  0  0  0  0
   14.0619   22.9456   -1.4697 C   0  0  0  0  0  0  0  0  0  0  0  0
   12.8240   22.8982   -0.7890 C   0  0  0  0  0  0  0  0  0  0  0  0
   11.6469   23.7431   -1.1305 C   0  0  0  0  0  0  0  0  0  0  0  0
   12.9291   21.9565    0.1635 C   0  0  0  0  0  0  0  0  0  0  0  0
   15.8704   21.8286   -1.1732 H   0  0  0  0  0  0  0  0  0  0  0  0
   14.2696   23.8541   -2.5816 C   0  0  0  0  0  0  0  0  0  0  0  0
   15.1622   24.8192   -2.6277 C   0  0  0  0  0  0  0  0  0  0  0  0
   16.1252   25.1836   -1.6055 C   0  0  0  0  0  0  0  0  0  0  0  0
   16.2976   24.6194   -0.4781 O   0  0  0  0  0  0  0  0  0  0  0  0
   16.8465   26.3012   -2.1161 N   0  0  0  0  0  0  0  0  0  0  0  0
   16.3753   26.6578   -3.4273 C   0  0  0  0  0  0  0  0  0  0  0  0
   16.7417   27.6431   -4.3211 C   0  0  0  0  0  0  0  0  0  0  0  0
   16.1116   27.7610   -5.5319 C   0  0  0  0  0  0  0  0  0  0  0  0
   15.0974   26.8840   -5.8639 C   0  0  0  0  0  0  0  0  0  0  0  0
   14.4738   27.0078   -7.0730 F   0  0  0  0  0  0  0  0  0  0  0  0
   14.7435   25.9055   -4.9606 C   0  0  0  0  0  0  0  0  0  0  0  0
   15.3659   25.7733   -3.7404 C   0  0  0  0  0  0  0  0  0  0  0  0
   17.6000   26.7856   -1.6156 H   0  0  0  0  0  0  0  0  0  0  0  0
   11.9240   21.4833    1.1191 C   0  0  0  0  0  0  0  0  0  0  0  0
   11.2344   20.4738    0.7329 O   0  0  0  0  0  0  0  0  0  0  0  0
   11.6620   22.0139    2.3749 N   0  0  0  0  0  0  0  0  0  0  0  0
   12.2770   22.8522    2.6758 H   0  0  0  0  0  0  0  0  0  0  0  0
   10.7083   21.6021    3.3601 C   0  0  0  0  0  0  0  0  0  0  0  0
    9.3063   22.0048    3.0817 C   0  0  0  0  0  0  0  0  0  0  0  0
    8.4053   20.9663    3.0313 O   0  0  0  0  0  0  0  0  0  0  0  0
    8.0360   20.7790    2.1376 H   0  0  0  0  0  0  0  0  0  0  0  0
    8.8965   23.0229    4.1470 C   0  0  0  0  0  0  0  0  0  0  0  0
    8.3810   24.2203    3.5913 N   0  0  0  0  0  0  0  0  0  0  0  0
    7.0722   24.5608    3.9473 C   0  0  0  0  0  0  0  0  0  0  0  0
    6.7219   26.0059    3.9746 C   0  0  0  0  0  0  0  0  0  0  0  0
    7.5856   26.8317    3.3035 O   0  0  0  0  0  0  0  0  0  0  0  0
    8.8623   26.6022    3.8677 C   0  0  0  0  0  0  0  0  0  0  0  0
    9.2954   25.2606    3.3191 C   0  0  0  0  0  0  0  0  0  0  0  0
  1  2  1  0  0  0
  2  3  1  0  0  0
  3  4  1  0  0  0
  4  9  1  0  0  0
  9 10  2  0  0  0
 10 11  1  0  0  0
 11 12  2  0  0  0
 11 13  1  0  0  0
 13 14  1  0  0  0
 14 15  2  0  0  0
 15 16  1  0  0  0
 16 17  2  0  0  0
 17 18  1  0  0  0
 17 19  1  0  0  0
 19 20  2  0  0  0
  4  5  2  0  0  0
  5  6  1  0  0  0
  5  7  1  0  0  0
  7 22  1  0  0  0
 22 23  2  0  0  0
 22 24  1  0  0  0
 24 26  1  0  0  0
 26 27  1  0  0  0
 27 28  1  0  0  0
 27 30  1  0  0  0
 30 31  1  0  0  0
 31 32  1  0  0  0
 32 33  1  0  0  0
 33 34  1  0  0  0
 34 35  1  0  0  0
 35 36  1  0  0  0
  7  2  2  0  0  0
 36 31  1  0  0  0
 20 10  1  0  0  0
 20 14  1  0  0  0
  3  8  1  0  0  0
 13 21  1  0  0  0
 24 25  1  0  0  0
 28 29  1  0  0  0
M  END
> <minimizedAffinity>
-9.80126

> <CNNscore>
0.3646289408

> <CNNaffinity>
6.9953956604

> <CNN_VS>
2.5507237911

> <CNNaffinity_variance>
0.0404247120

$$$$
[H]c1nc([H])c2sc(C(=O)N([H])C([H])([H])[H])c([H])c2c1Oc1c([H])c([H])c(C(=O)N([H])C2(C#N)C([H])([H])C2([H])[H])c([H])c1[H]


 30 33  0  0  0  0  0  0  0  0999 V2000
   12.5460   23.0907   -1.4455 O   0  0  0  0  0  0  0  0  0  0  0  0
   15.0165   25.5862   -3.9898 C   0  0  0  0  0  0  0  0  0  0  0  0
   14.1551   24.7900   -3.2802 C   0  0  0  0  0  0  0  0  0  0  0  0
   14.4803   24.4558   -2.0226 C   0  0  0  0  0  0  0  0  0  0  0  0
   13.7439   23.6581   -1.1348 C   0  0  0  0  0  0  0  0  0  0  0  0
   14.2600   23.4378    0.1160 C   0  0  0  0  0  0  0  0  0  0  0  0
   15.4252   23.9178    0.5912 N   0  0  0  0  0  0  0  0  0  0  0  0
   16.1473   24.6893   -0.2538 C   0  0  0  0  0  0  0  0  0  0  0  0
   15.6651   24.9424   -1.5361 C   0  0  0  0  0  0  0  0  0  0  0  0
   16.2849   25.8453   -2.8398 S   0  0  0  0  0  0  0  0  0  0  0  0
   15.5316   25.8775   -7.7693 C   0  0  0  0  0  0  0  0  0  0  0  0
   15.5914   25.4365   -6.3841 N   0  0  0  0  0  0  0  0  0  0  0  0
   14.9063   26.0893   -5.3530 C   0  0  0  0  0  0  0  0  0  0  0  0
   14.2074   27.0876   -5.5789 O   0  0  0  0  0  0  0  0  0  0  0  0
   16.1795   24.5973   -6.1973 H   0  0  0  0  0  0  0  0  0  0  0  0
   11.4646   22.8453   -0.6953 C   0  0  0  0  0  0  0  0  0  0  0  0
   10.6446   23.8324   -0.1891 C   0  0  0  0  0  0  0  0  0  0  0  0
    9.5355   23.5356    0.5834 C   0  0  0  0  0  0  0  0  0  0  0  0
    9.1972   22.2226    0.8849 C   0  0  0  0  0  0  0  0  0  0  0  0
   10.0106   21.2358    0.3830 C   0  0  0  0  0  0  0  0  0  0  0  0
   11.1197   21.5464   -0.3902 C   0  0  0  0  0  0  0  0  0  0  0  0
    8.0224   21.9535    1.7011 C   0  0  0  0  0  0  0  0  0  0  0  0
    6.8932   22.2592    1.2500 O   0  0  0  0  0  0  0  0  0  0  0  0
    8.0542   21.3624    2.9896 N   0  0  0  0  0  0  0  0  0  0  0  0
    8.9840   21.1014    3.3812 H   0  0  0  0  0  0  0  0  0  0  0  0
    6.8710   21.1104    3.7702 C   0  0  0  0  0  0  0  0  0  0  0  0
    5.8332   20.2243    3.1232 C   0  0  0  0  0  0  0  0  0  0  0  0
    6.6186   19.7543    4.3376 C   0  0  0  0  0  0  0  0  0  0  0  0
    6.2711   22.2857    4.4461 C   0  0  0  0  0  0  0  0  0  0  0  0
    5.8251   23.2011    4.9756 N   0  0  0  0  0  0  0  0  0  0  0  0
 11 12  1  0  0  0
 12 13  1  0  0  0
 13 14  2  0  0  0
 13  2  1  0  0  0
  2  3  2  0  0  0
  3  4  1  0  0  0
  4  5  2  0  0  0
  5  1  1  0  0  0
  1 16  1  0  0  0
 16 17  2  0  0  0
 17 18  1  0  0  0
 18 19  2  0  0  0
 19 20  1  0  0  0
 20 21  2  0  0  0
 19 22  1  0  0  0
 22 23  2  0  0  0
 22 24  1  0  0  0
 24 26  1  0  0  0
 26 27  1  0  0  0
 27 28  1  0  0  0
 26 29  1  0  0  0
 29 30  3  0  0  0
  5  6  1  0  0  0
  6  7  2  0  0  0
  7  8  1  0  0  0
  8  9  2  0  0  0
  9 10  1  0  0  0
 10  2  1  0  0  0
  9  4  1  0  0  0
 21 16  1  0  0  0
 28 26  1  0  0  0
 12 15  1  0  0  0
 24 25  1  0  0  0
M  END
> <minimizedAffinity>
-7.58335

> <CNNscore>
0.5408247113

> <CNNaffinity>
7.1730909348

> <CNN_VS>
3.8793847561

> <CNNaffinity_variance>
0.2949851155

$$$$
[H]c1nc([H])c2sc(C(=O)N([H])C([H])([H])[H])c([H])c2c1Oc1c([H])c([H])c(C(=O)N([H])C2(C#N)C([H])([H])C2([H])[H])c([H])c1[H]


 30 33  0  0  0  0  0  0  0  0999 V2000
   14.9249   23.2674   -5.2776 O   0  0  0  0  0  0  0  0  0  0  0  0
   16.3589   26.8634   -3.3241 C   0  0  0  0  0  0  0  0  0  0  0  0
   15.9053   25.6725   -3.8296 C   0  0  0  0  0  0  0  0  0  0  0  0
   15.6780   25.5813   -5.1483 C   0  0  0  0  0  0  0  0  0  0  0  0
   15.2167   24.4634   -5.8587 C   0  0  0  0  0  0  0  0  0  0  0  0
   15.0507   24.5828   -7.2142 C   0  0  0  0  0  0  0  0  0  0  0  0
   15.2894   25.6850   -7.9505 N   0  0  0  0  0  0  0  0  0  0  0  0
   15.7350   26.7719   -7.2792 C   0  0  0  0  0  0  0  0  0  0  0  0
   15.9198   26.7008   -5.9002 C   0  0  0  0  0  0  0  0  0  0  0  0
   16.4533   27.8389   -4.7516 S   0  0  0  0  0  0  0  0  0  0  0  0
   16.8711   26.5488    0.4539 C   0  0  0  0  0  0  0  0  0  0  0  0
   16.5683   26.2638   -0.9404 N   0  0  0  0  0  0  0  0  0  0  0  0
   16.6806   27.2265   -1.9499 C   0  0  0  0  0  0  0  0  0  0  0  0
   17.0490   28.3823   -1.6960 O   0  0  0  0  0  0  0  0  0  0  0  0
   16.2590   25.2917   -1.1508 H   0  0  0  0  0  0  0  0  0  0  0  0
   14.3942   22.9719   -4.0845 C   0  0  0  0  0  0  0  0  0  0  0  0
   13.6526   23.8619   -3.3356 C   0  0  0  0  0  0  0  0  0  0  0  0
   13.1216   23.5162   -2.1053 C   0  0  0  0  0  0  0  0  0  0  0  0
   13.3131   22.2501   -1.5673 C   0  0  0  0  0  0  0  0  0  0  0  0
   14.0509   21.3599   -2.3094 C   0  0  0  0  0  0  0  0  0  0  0  0
   14.5779   21.7187   -3.5414 C   0  0  0  0  0  0  0  0  0  0  0  0
   12.7377   21.9270   -0.2699 C   0  0  0  0  0  0  0  0  0  0  0  0
   13.5010   21.5467    0.6492 O   0  0  0  0  0  0  0  0  0  0  0  0
   11.3571   22.0097    0.0428 N   0  0  0  0  0  0  0  0  0  0  0  0
   10.7072   22.3240   -0.7086 H   0  0  0  0  0  0  0  0  0  0  0  0
   10.8218   21.6819    1.3385 C   0  0  0  0  0  0  0  0  0  0  0  0
   10.3822   22.8538    2.1836 C   0  0  0  0  0  0  0  0  0  0  0  0
    9.3694   21.8685    1.6216 C   0  0  0  0  0  0  0  0  0  0  0  0
   11.5732   20.6701    2.1193 C   0  0  0  0  0  0  0  0  0  0  0  0
   12.1576   19.8761    2.7069 N   0  0  0  0  0  0  0  0  0  0  0  0
 11 12  1  0  0  0
 12 13  1  0  0  0
 13 14  2  0  0  0
 13  2  1  0  0  0
  2  3  2  0  0  0
  3  4  1  0  0  0
  4  5  2  0  0  0
  5  1  1  0  0  0
  1 16  1  0  0  0
 16 17  2  0  0  0
 17 18  1  0  0  0
 18 19  2  0  0  0
 19 20  1  0  0  0
 20 21  2  0  0  0
 19 22  1  0  0  0
 22 23  2  0  0  0
 22 24  1  0  0  0
 24 26  1  0  0  0
 26 27  1  0  0  0
 27 28  1  0  0  0
 26 29  1  0  0  0
 29 30  3  0  0  0
  5  6  1  0  0  0
  6  7  2  0  0  0
  7  8  1  0  0  0
  8  9  2  0  0  0
  9 10  1  0  0  0
 10  2  1  0  0  0
  9  4  1  0  0  0
 21 16  1  0  0  0
 28 26  1  0  0  0
 12 15  1  0  0  0
 24 25  1  0  0  0
M  END
> <minimizedAffinity>
8.07661

> <CNNscore>
0.5014197230

> <CNNaffinity>
7.0460824966

> <CNN_VS>
3.5330448151

> <CNNaffinity_variance>
1.0394836664

$$$$
[H]c1nc([H])c2sc(C(=O)N([H])C([H])([H])[H])c([H])c2c1Oc1c([H])c([H])c(C(=O)N([H])C2(C#N)C([H])([H])C2([H])[H])c([H])c1[H]


 30 33  0  0  0  0  0  0  0  0999 V2000
   15.5913   24.4781   -2.2849 O   0  0  0  0  0  0  0  0  0  0  0  0
   15.7406   26.1582   -6.2798 C   0  0  0  0  0  0  0  0  0  0  0  0
   15.6390   25.5269   -5.0670 C   0  0  0  0  0  0  0  0  0  0  0  0
   16.1024   26.1557   -3.9767 C   0  0  0  0  0  0  0  0  0  0  0  0
   16.0939   25.6880   -2.6545 C   0  0  0  0  0  0  0  0  0  0  0  0
   16.6216   26.4953   -1.6803 C   0  0  0  0  0  0  0  0  0  0  0  0
   17.1587   27.7166   -1.8644 N   0  0  0  0  0  0  0  0  0  0  0  0
   17.1742   28.1817   -3.1348 C   0  0  0  0  0  0  0  0  0  0  0  0
   16.6495   27.3984   -4.1605 C   0  0  0  0  0  0  0  0  0  0  0  0
   16.5016   27.6495   -5.8380 S   0  0  0  0  0  0  0  0  0  0  0  0
   13.5908   24.6025   -9.0353 C   0  0  0  0  0  0  0  0  0  0  0  0
   14.0785   25.0819   -7.7511 N   0  0  0  0  0  0  0  0  0  0  0  0
   15.3225   25.7051   -7.6003 C   0  0  0  0  0  0  0  0  0  0  0  0
   16.0748   25.8786   -8.5698 O   0  0  0  0  0  0  0  0  0  0  0  0
   13.4442   24.9347   -6.9381 H   0  0  0  0  0  0  0  0  0  0  0  0
   14.5352   24.1550   -1.5280 C   0  0  0  0  0  0  0  0  0  0  0  0
   13.2395   24.1152   -1.9997 C   0  0  0  0  0  0  0  0  0  0  0  0
   12.1750   23.7764   -1.1829 C   0  0  0  0  0  0  0  0  0  0  0  0
   12.3658   23.4595    0.1560 C   0  0  0  0  0  0  0  0  0  0  0  0
   13.6544   23.4975    0.6306 C   0  0  0  0  0  0  0  0  0  0  0  0
   14.7130   23.8388   -0.1984 C   0  0  0  0  0  0  0  0  0  0  0  0
   11.2189   23.1088    0.9809 C   0  0  0  0  0  0  0  0  0  0  0  0
   10.8084   21.9242    0.9687 O   0  0  0  0  0  0  0  0  0  0  0  0
   10.5162   24.0173    1.8125 N   0  0  0  0  0  0  0  0  0  0  0  0
   10.8430   25.0065    1.8358 H   0  0  0  0  0  0  0  0  0  0  0  0
    9.3843   23.6356    2.6163 C   0  0  0  0  0  0  0  0  0  0  0  0
    9.6978   22.8179    3.8467 C   0  0  0  0  0  0  0  0  0  0  0  0
    9.1790   24.2427    3.9631 C   0  0  0  0  0  0  0  0  0  0  0  0
    8.2033   23.1234    1.8809 C   0  0  0  0  0  0  0  0  0  0  0  0
    7.2810   22.7453    1.3120 N   0  0  0  0  0  0  0  0  0  0  0  0
 11 12  1  0  0  0
 12 13  1  0  0  0
 13 14  2  0  0  0
 13  2  1  0  0  0
  2  3  2  0  0  0
  3  4  1  0  0  0
  4  5  2  0  0  0
  5  1  1  0  0  0
  1 16  1  0  0  0
 16 17  2  0  0  0
 17 18  1  0  0  0
 18 19  2  0  0  0
 19 20  1  0  0  0
 20 21  2  0  0  0
 19 22  1  0  0  0
 22 23  2  0  0  0
 22 24  1  0  0  0
 24 26  1  0  0  0
 26 27  1  0  0  0
 27 28  1  0  0  0
 26 29  1  0  0  0
 29 30  3  0  0  0
  5  6  1  0  0  0
  6  7  2  0  0  0
  7  8  1  0  0  0
  8  9  2  0  0  0
  9 10  1  0  0  0
 10  2  1  0  0  0
  9  4  1  0  0  0
 21 16  1  0  0  0
 28 26  1  0  0  0
 12 15  1  0  0  0
 24 25  1  0  0  0
M  END
> <minimizedAffinity>
2.51618

> <CNNscore>
0.4826101363

> <CNNaffinity>
6.9714102745

> <CNN_VS>
3.3644733429

> <CNNaffinity_variance>
0.4735743105

$$$$
[H]c1nc([H])c2sc(C(=O)N([H])C([H])([H])[H])c([H])c2c1Oc1c([H])c([H])c(C(=O)N([H])C2(C#N)C([H])([H])C2([H])[H])c([H])c1[H]


 30 33  0  0  0  0  0  0  0  0999 V2000
   11.7051   23.9245   -0.9104 O   0  0  0  0  0  0  0  0  0  0  0  0
   14.7193   21.2698    0.7240 C   0  0  0  0  0  0  0  0  0  0  0  0
   13.8518   22.1995    0.2115 C   0  0  0  0  0  0  0  0  0  0  0  0
   12.6027   21.8135   -0.0881 C   0  0  0  0  0  0  0  0  0  0  0  0
   11.5705   22.6019   -0.6171 C   0  0  0  0  0  0  0  0  0  0  0  0
   10.3582   22.0065   -0.8517 C   0  0  0  0  0  0  0  0  0  0  0  0
   10.0485   20.7160   -0.6223 N   0  0  0  0  0  0  0  0  0  0  0  0
   11.0342   19.9424   -0.1119 C   0  0  0  0  0  0  0  0  0  0  0  0
   12.2844   20.5013    0.1441 C   0  0  0  0  0  0  0  0  0  0  0  0
   13.7283   19.8506    0.7692 S   0  0  0  0  0  0  0  0  0  0  0  0
   18.2651   22.6878    0.9497 C   0  0  0  0  0  0  0  0  0  0  0  0
   16.8708   22.4698    0.5958 N   0  0  0  0  0  0  0  0  0  0  0  0
   16.1111   21.4221    1.1284 C   0  0  0  0  0  0  0  0  0  0  0  0
   16.6009   20.6216    1.9380 O   0  0  0  0  0  0  0  0  0  0  0  0
   16.4619   23.1441   -0.0848 H   0  0  0  0  0  0  0  0  0  0  0  0
   12.6986   24.6011   -1.5002 C   0  0  0  0  0  0  0  0  0  0  0  0
   12.7031   24.9432   -2.8366 C   0  0  0  0  0  0  0  0  0  0  0  0
   13.7513   25.6433   -3.4076 C   0  0  0  0  0  0  0  0  0  0  0  0
   14.8515   26.0348   -2.6556 C   0  0  0  0  0  0  0  0  0  0  0  0
   14.8518   25.6966   -1.3241 C   0  0  0  0  0  0  0  0  0  0  0  0
   13.7949   24.9945   -0.7635 C   0  0  0  0  0  0  0  0  0  0  0  0
   15.9332   26.7697   -3.2950 C   0  0  0  0  0  0  0  0  0  0  0  0
   17.1021   26.6112   -2.8701 O   0  0  0  0  0  0  0  0  0  0  0  0
   15.7667   27.6671   -4.3802 N   0  0  0  0  0  0  0  0  0  0  0  0
   14.8022   27.8117   -4.7471 H   0  0  0  0  0  0  0  0  0  0  0  0
   16.8605   28.3782   -4.9893 C   0  0  0  0  0  0  0  0  0  0  0  0
   17.8731   28.9674   -4.0363 C   0  0  0  0  0  0  0  0  0  0  0  0
   18.2395   27.8111   -4.9535 C   0  0  0  0  0  0  0  0  0  0  0  0
   16.5044   29.3104   -6.0858 C   0  0  0  0  0  0  0  0  0  0  0  0
   16.2113   30.0360   -6.9253 N   0  0  0  0  0  0  0  0  0  0  0  0
 11 12  1  0  0  0
 12 13  1  0  0  0
 13 14  2  0  0  0
 13  2  1  0  0  0
  2  3  2  0  0  0
  3  4  1  0  0  0
  4  5  2  0  0  0
  5  1  1  0  0  0
  1 16  1  0  0  0
 16 17  2  0  0  0
 17 18  1  0  0  0
 18 19  2  0  0  0
 19 20  1  0  0  0
 20 21  2  0  0  0
 19 22  1  0  0  0
 22 23  2  0  0  0
 22 24  1  0  0  0
 24 26  1  0  0  0
 26 27  1  0  0  0
 27 28  1  0  0  0
 26 29  1  0  0  0
 29 30  3  0  0  0
  5  6  1  0  0  0
  6  7  2  0  0  0
  7  8  1  0  0  0
  8  9  2  0  0  0
  9 10  1  0  0  0
 10  2  1  0  0  0
  9  4  1  0  0  0
 21 16  1  0  0  0
 28 26  1  0  0  0
 12 15  1  0  0  0
 24 25  1  0  0  0
M  END
> <minimizedAffinity>
8.76750

> <CNNscore>
0.3887531757

> <CNNaffinity>
6.8141517639

> <CNN_VS>
2.6490230560

> <CNNaffinity_variance>
0.6760684252

$$$$
[H]c1nc([H])c2sc(C(=O)N([H])C([H])([H])[H])c([H])c2c1Oc1c([H])c([H])c(C(=O)N([H])C2(C#N)C([H])([H])C2([H])[H])c([H])c1[H]


 30 33  0  0  0  0  0  0  0  0999 V2000
   14.6515   23.2097   -1.8754 O   0  0  0  0  0  0  0  0  0  0  0  0
   13.4717   26.9767   -3.6704 C   0  0  0  0  0  0  0  0  0  0  0  0
   13.7826   25.8213   -3.0011 C   0  0  0  0  0  0  0  0  0  0  0  0
   14.5288   24.8993   -3.6271 C   0  0  0  0  0  0  0  0  0  0  0  0
   14.9537   23.6612   -3.1237 C   0  0  0  0  0  0  0  0  0  0  0  0
   15.7162   22.8612   -3.9349 C   0  0  0  0  0  0  0  0  0  0  0  0
   16.1081   23.1464   -5.1914 N   0  0  0  0  0  0  0  0  0  0  0  0
   15.7059   24.3377   -5.6913 C   0  0  0  0  0  0  0  0  0  0  0  0
   14.9291   25.1863   -4.9056 C   0  0  0  0  0  0  0  0  0  0  0  0
   14.2564   26.7238   -5.1931 S   0  0  0  0  0  0  0  0  0  0  0  0
   11.6641   30.3471   -3.7585 C   0  0  0  0  0  0  0  0  0  0  0  0
   12.4369   29.1698   -4.1237 N   0  0  0  0  0  0  0  0  0  0  0  0
   12.6883   28.1235   -3.2289 C   0  0  0  0  0  0  0  0  0  0  0  0
   12.2564   28.1550   -2.0676 O   0  0  0  0  0  0  0  0  0  0  0  0
   12.7986   29.1461   -5.1003 H   0  0  0  0  0  0  0  0  0  0  0  0
   13.5670   23.3884   -1.1108 C   0  0  0  0  0  0  0  0  0  0  0  0
   13.5765   24.0867    0.0788 C   0  0  0  0  0  0  0  0  0  0  0  0
   12.4321   24.2479    0.8401 C   0  0  0  0  0  0  0  0  0  0  0  0
   11.2164   23.7104    0.4372 C   0  0  0  0  0  0  0  0  0  0  0  0
   11.2017   23.0141   -0.7470 C   0  0  0  0  0  0  0  0  0  0  0  0
   12.3557   22.8595   -1.5010 C   0  0  0  0  0  0  0  0  0  0  0  0
   10.0363   23.9027    1.2674 C   0  0  0  0  0  0  0  0  0  0  0  0
    8.9524   23.3901    0.9008 O   0  0  0  0  0  0  0  0  0  0  0  0
   10.0149   24.6372    2.4802 N   0  0  0  0  0  0  0  0  0  0  0  0
   10.9065   25.0706    2.8011 H   0  0  0  0  0  0  0  0  0  0  0  0
    8.8280   24.8075    3.2772 C   0  0  0  0  0  0  0  0  0  0  0  0
    8.7030   26.1299    3.9956 C   0  0  0  0  0  0  0  0  0  0  0  0
    7.7679   25.7670    2.8526 C   0  0  0  0  0  0  0  0  0  0  0  0
    8.4447   23.6589    4.1327 C   0  0  0  0  0  0  0  0  0  0  0  0
    8.1667   22.7694    4.8025 N   0  0  0  0  0  0  0  0  0  0  0  0
 11 12  1  0  0  0
 12 13  1  0  0  0
 13 14  2  0  0  0
 13  2  1  0  0  0
  2  3  2  0  0  0
  3  4  1  0  0  0
  4  5  2  0  0  0
  5  1  1  0  0  0
  1 16  1  0  0  0
 16 17  2  0  0  0
 17 18  1  0  0  0
 18 19  2  0  0  0
 19 20  1  0  0  0
 20 21  2  0  0  0
 19 22  1  0  0  0
 22 23  2  0  0  0
 22 24  1  0  0  0
 24 26  1  0  0  0
 26 27  1  0  0  0
 27 28  1  0  0  0
 26 29  1  0  0  0
 29 30  3  0  0  0
  5  6  1  0  0  0
  6  7  2  0  0  0
  7  8  1  0  0  0
  8  9  2  0  0  0
  9 10  1  0  0  0
 10  2  1  0  0  0
  9  4  1  0  0  0
 21 16  1  0  0  0
 28 26  1  0  0  0
 12 15  1  0  0  0
 24 25  1  0  0  0
M  END
> <minimizedAffinity>
5.58542

> <CNNscore>
0.3812552392

> <CNNaffinity>
6.5692396164

> <CNN_VS>
2.5045571327

> <CNNaffinity_variance>
0.4396811426

$$$$
[H]c1nc([H])c2sc(C(=O)N([H])C([H])([H])[H])c([H])c2c1Oc1c([H])c([H])c(C(=O)N([H])C2(C#N)C([H])([H])C2([H])[H])c([H])c1[H]


 30 33  0  0  0  0  0  0  0  0999 V2000
   10.7768   21.0394    1.3354 O   0  0  0  0  0  0  0  0  0  0  0  0
    6.9446   20.7872    3.3491 C   0  0  0  0  0  0  0  0  0  0  0  0
    8.1958   20.7768    2.7886 C   0  0  0  0  0  0  0  0  0  0  0  0
    8.4544   21.6259    1.7831 C   0  0  0  0  0  0  0  0  0  0  0  0
    9.6587   21.7727    1.0796 C   0  0  0  0  0  0  0  0  0  0  0  0
    9.7122   22.7075    0.0783 C   0  0  0  0  0  0  0  0  0  0  0  0
    8.7074   23.5166   -0.3085 N   0  0  0  0  0  0  0  0  0  0  0  0
    7.5388   23.3868    0.3609 C   0  0  0  0  0  0  0  0  0  0  0  0
    7.4343   22.4504    1.3871 C   0  0  0  0  0  0  0  0  0  0  0  0
    6.1541   22.0185    2.4232 S   0  0  0  0  0  0  0  0  0  0  0  0
    5.9546   17.7113    5.3970 C   0  0  0  0  0  0  0  0  0  0  0  0
    6.4682   18.5846    4.3527 N   0  0  0  0  0  0  0  0  0  0  0  0
    6.4080   19.9802    4.4375 C   0  0  0  0  0  0  0  0  0  0  0  0
    5.9065   20.5420    5.4219 O   0  0  0  0  0  0  0  0  0  0  0  0
    6.8891   18.1097    3.5267 H   0  0  0  0  0  0  0  0  0  0  0  0
   12.0759   21.3362    1.2054 C   0  0  0  0  0  0  0  0  0  0  0  0
   13.0402   20.4134    0.8568 C   0  0  0  0  0  0  0  0  0  0  0  0
   14.3738   20.7619    0.7336 C   0  0  0  0  0  0  0  0  0  0  0  0
   14.8025   22.0640    0.9569 C   0  0  0  0  0  0  0  0  0  0  0  0
   13.8459   22.9869    1.3043 C   0  0  0  0  0  0  0  0  0  0  0  0
   12.5121   22.6249    1.4246 C   0  0  0  0  0  0  0  0  0  0  0  0
   16.2145   22.3887    0.8170 C   0  0  0  0  0  0  0  0  0  0  0  0
   17.0518   21.4558    0.8404 O   0  0  0  0  0  0  0  0  0  0  0  0
   16.7277   23.7004    0.6535 N   0  0  0  0  0  0  0  0  0  0  0  0
   16.0467   24.4889    0.6317 H   0  0  0  0  0  0  0  0  0  0  0  0
   18.1324   23.9856    0.5180 C   0  0  0  0  0  0  0  0  0  0  0  0
   18.9568   22.9189   -0.1627 C   0  0  0  0  0  0  0  0  0  0  0  0
   18.7169   24.2666   -0.8252 C   0  0  0  0  0  0  0  0  0  0  0  0
   18.8046   24.5437    1.7157 C   0  0  0  0  0  0  0  0  0  0  0  0
   19.3344   24.9891    2.6313 N   0  0  0  0  0  0  0  0  0  0  0  0
 11 12  1  0  0  0
 12 13  1  0  0  0
 13 14  2  0  0  0
 13  2  1  0  0  0
  2  3  2  0  0  0
  3  4  1  0  0  0
  4  5  2  0  0  0
  5  1  1  0  0  0
  1 16  1  0  0  0
 16 17  2  0  0  0
 17 18  1  0  0  0
 18 19  2  0  0  0
 19 20  1  0  0  0
 20 21  2  0  0  0
 19 22  1  0  0  0
 22 23  2  0  0  0
 22 24  1  0  0  0
 24 26  1  0  0  0
 26 27  1  0  0  0
 27 28  1  0  0  0
 26 29  1  0  0  0
 29 30  3  0  0  0
  5  6  1  0  0  0
  6  7  2  0  0  0
  7  8  1  0  0  0
  8  9  2  0  0  0
  9 10  1  0  0  0
 10  2  1  0  0  0
  9  4  1  0  0  0
 21 16  1  0  0  0
 28 26  1  0  0  0
 12 15  1  0  0  0
 24 25  1  0  0  0
M  END
> <minimizedAffinity>
10.33409

> <CNNscore>
0.3521629274

> <CNNaffinity>
6.3299269676

> <CNN_VS>
2.2291655540

> <CNNaffinity_variance>
1.0975165367

$$$$
[H]c1nc([H])c2sc(C(=O)N([H])C([H])([H])[H])c([H])c2c1Oc1c([H])c([H])c(C(=O)N([H])C2(C#N)C([H])([H])C2([H])[H])c([H])c1[H]


 30 33  0  0  0  0  0  0  0  0999 V2000
   15.2895   25.2043   -0.1489 O   0  0  0  0  0  0  0  0  0  0  0  0
   15.0309   22.7856   -3.7388 C   0  0  0  0  0  0  0  0  0  0  0  0
   15.0542   23.4579   -2.5442 C   0  0  0  0  0  0  0  0  0  0  0  0
   15.6199   24.6734   -2.5042 C   0  0  0  0  0  0  0  0  0  0  0  0
   15.7457   25.5190   -1.3924 C   0  0  0  0  0  0  0  0  0  0  0  0
   16.3628   26.7304   -1.5686 C   0  0  0  0  0  0  0  0  0  0  0  0
   16.8717   27.2031   -2.7225 N   0  0  0  0  0  0  0  0  0  0  0  0
   16.7579   26.3985   -3.8044 C   0  0  0  0  0  0  0  0  0  0  0  0
   16.1386   25.1572   -3.6764 C   0  0  0  0  0  0  0  0  0  0  0  0
   15.8231   23.9095   -4.7911 S   0  0  0  0  0  0  0  0  0  0  0  0
   13.9647   19.7274   -5.7748 C   0  0  0  0  0  0  0  0  0  0  0  0
   14.4898   21.0257   -5.3807 N   0  0  0  0  0  0  0  0  0  0  0  0
   14.4863   21.4711   -4.0540 C   0  0  0  0  0  0  0  0  0  0  0  0
   14.0284   20.7673   -3.1423 O   0  0  0  0  0  0  0  0  0  0  0  0
   14.8740   21.6150   -6.1490 H   0  0  0  0  0  0  0  0  0  0  0  0
   14.1441   24.6404    0.2544 C   0  0  0  0  0  0  0  0  0  0  0  0
   14.0349   23.3196    0.6370 C   0  0  0  0  0  0  0  0  0  0  0  0
   12.8307   22.7752    1.0473 C   0  0  0  0  0  0  0  0  0  0  0  0
   11.6718   23.5397    1.0923 C   0  0  0  0  0  0  0  0  0  0  0  0
   11.7753   24.8558    0.7123 C   0  0  0  0  0  0  0  0  0  0  0  0
   12.9884   25.3896    0.3029 C   0  0  0  0  0  0  0  0  0  0  0  0
   10.4253   22.9284    1.5297 C   0  0  0  0  0  0  0  0  0  0  0  0
    9.7326   22.3067    0.6897 O   0  0  0  0  0  0  0  0  0  0  0  0
    9.9230   22.9812    2.8547 N   0  0  0  0  0  0  0  0  0  0  0  0
   10.4852   23.4936    3.5669 H   0  0  0  0  0  0  0  0  0  0  0  0
    8.6845   22.3644    3.2528 C   0  0  0  0  0  0  0  0  0  0  0  0
    7.6519   23.2900    3.8510 C   0  0  0  0  0  0  0  0  0  0  0  0
    7.4296   22.6388    2.4948 C   0  0  0  0  0  0  0  0  0  0  0  0
    8.7997   21.0871    3.9966 C   0  0  0  0  0  0  0  0  0  0  0  0
    8.8787   20.1065    4.5877 N   0  0  0  0  0  0  0  0  0  0  0  0
 11 12  1  0  0  0
 12 13  1  0  0  0
 13 14  2  0  0  0
 13  2  1  0  0  0
  2  3  2  0  0  0
  3  4  1  0  0  0
  4  5  2  0  0  0
  5  1  1  0  0  0
  1 16  1  0  0  0
 16 17  2  0  0  0
 17 18  1  0  0  0
 18 19  2  0  0  0
 19 20  1  0  0  0
 20 21  2  0  0  0
 19 22  1  0  0  0
 22 23  2  0  0  0
 22 24  1  0  0  0
 24 26  1  0  0  0
 26 27  1  0  0  0
 27 28  1  0  0  0
 26 29  1  0  0  0
 29 30  3  0  0  0
  5  6  1  0  0  0
  6  7  2  0  0  0
  7  8  1  0  0  0
  8  9  2  0  0  0
  9 10  1  0  0  0
 10  2  1  0  0  0
  9  4  1  0  0  0
 21 16  1  0  0  0
 28 26  1  0  0  0
 12 15  1  0  0  0
 24 25  1  0  0  0
M  END
> <minimizedAffinity>
-0.28594

> <CNNscore>
0.3397929966

> <CNNaffinity>
6.6911635399

> <CNN_VS>
2.2736105919

> <CNNaffinity_variance>
0.5010921359

$$$$
[H]c1nc([H])c2sc(C(=O)N([H])C([H])([H])[H])c([H])c2c1Oc1c([H])c([H])c(C(=O)N([H])C2(C#N)C([H])([H])C2([H])[H])c([H])c1[H]


 30 33  0  0  0  0  0  0  0  0999 V2000
   13.1075   24.0816   -0.2426 O   0  0  0  0  0  0  0  0  0  0  0  0
   15.5270   25.5668   -3.5204 C   0  0  0  0  0  0  0  0  0  0  0  0
   14.7532   25.2150   -2.4447 C   0  0  0  0  0  0  0  0  0  0  0  0
   14.4454   23.9209   -2.2729 C   0  0  0  0  0  0  0  0  0  0  0  0
   13.6732   23.3572   -1.2468 C   0  0  0  0  0  0  0  0  0  0  0  0
   13.4778   22.0003   -1.2562 C   0  0  0  0  0  0  0  0  0  0  0  0
   13.9602   21.1339   -2.1675 N   0  0  0  0  0  0  0  0  0  0  0  0
   14.7072   21.6628   -3.1640 C   0  0  0  0  0  0  0  0  0  0  0  0
   14.9345   23.0368   -3.1983 C   0  0  0  0  0  0  0  0  0  0  0  0
   15.8032   24.0318   -4.2727 S   0  0  0  0  0  0  0  0  0  0  0  0
   17.8037   28.6190   -3.8881 C   0  0  0  0  0  0  0  0  0  0  0  0
   17.2620   27.3205   -3.5177 N   0  0  0  0  0  0  0  0  0  0  0  0
   15.9998   26.8818   -3.9337 C   0  0  0  0  0  0  0  0  0  0  0  0
   15.2770   27.5920   -4.6474 O   0  0  0  0  0  0  0  0  0  0  0  0
   17.8716   26.7258   -2.9179 H   0  0  0  0  0  0  0  0  0  0  0  0
   12.1694   23.7604    0.6571 C   0  0  0  0  0  0  0  0  0  0  0  0
   11.0921   24.5671    0.9601 C   0  0  0  0  0  0  0  0  0  0  0  0
   10.1440   24.1976    1.8980 C   0  0  0  0  0  0  0  0  0  0  0  0
   10.2361   22.9908    2.5796 C   0  0  0  0  0  0  0  0  0  0  0  0
   11.3072   22.1838    2.2814 C   0  0  0  0  0  0  0  0  0  0  0  0
   12.2509   22.5657    1.3391 C   0  0  0  0  0  0  0  0  0  0  0  0
    9.2178   22.6401    3.5588 C   0  0  0  0  0  0  0  0  0  0  0  0
    9.4067   22.9465    4.7598 O   0  0  0  0  0  0  0  0  0  0  0  0
    8.0069   21.9670    3.2567 N   0  0  0  0  0  0  0  0  0  0  0  0
    7.8322   21.7042    2.2635 H   0  0  0  0  0  0  0  0  0  0  0  0
    7.0205   21.6353    4.2516 C   0  0  0  0  0  0  0  0  0  0  0  0
    6.0563   20.5342    3.8796 C   0  0  0  0  0  0  0  0  0  0  0  0
    7.0908   20.3335    4.9760 C   0  0  0  0  0  0  0  0  0  0  0  0
    6.3472   22.7796    4.9115 C   0  0  0  0  0  0  0  0  0  0  0  0
    5.8106   23.6634    5.4097 N   0  0  0  0  0  0  0  0  0  0  0  0
 11 12  1  0  0  0
 12 13  1  0  0  0
 13 14  2  0  0  0
 13  2  1  0  0  0
  2  3  2  0  0  0
  3  4  1  0  0  0
  4  5  2  0  0  0
  5  1  1  0  0  0
  1 16  1  0  0  0
 16 17  2  0  0  0
 17 18  1  0  0  0
 18 19  2  0  0  0
 19 20  1  0  0  0
 20 21  2  0  0  0
 19 22  1  0  0  0
 22 23  2  0  0  0
 22 24  1  0  0  0
 24 26  1  0  0  0
 26 27  1  0  0  0
 27 28  1  0  0  0
 26 29  1  0  0  0
 29 30  3  0  0  0
  5  6  1  0  0  0
  6  7  2  0  0  0
  7  8  1  0  0  0
  8  9  2  0  0  0
  9 10  1  0  0  0
 10  2  1  0  0  0
  9  4  1  0  0  0
 21 16  1  0  0  0
 28 26  1  0  0  0
 12 15  1  0  0  0
 24 25  1  0  0  0
M  END
> <minimizedAffinity>
-6.64322

> <CNNscore>
0.2152441442

> <CNNaffinity>
6.6807518005

> <CNN_VS>
1.4379926920

> <CNNaffinity_variance>
0.2561532855

$$$$
[H]c1nc([H])c2sc(C(=O)N([H])C([H])([H])[H])c([H])c2c1Oc1c([H])c([H])c(C(=O)N([H])C2(C#N)C([H])([H])C2([H])[H])c([H])c1[H]


 30 33  0  0  0  0  0  0  0  0999 V2000
   13.7413   23.7643   -0.0904 O   0  0  0  0  0  0  0  0  0  0  0  0
   15.6373   25.5917   -3.5357 C   0  0  0  0  0  0  0  0  0  0  0  0
   15.0324   25.1277   -2.3962 C   0  0  0  0  0  0  0  0  0  0  0  0
   14.7779   23.8147   -2.2952 C   0  0  0  0  0  0  0  0  0  0  0  0
   14.1718   23.1438   -1.2231 C   0  0  0  0  0  0  0  0  0  0  0  0
   14.0038   21.7869   -1.3221 C   0  0  0  0  0  0  0  0  0  0  0  0
   14.3679   21.0145   -2.3637 N   0  0  0  0  0  0  0  0  0  0  0  0
   14.9541   21.6475   -3.4060 C   0  0  0  0  0  0  0  0  0  0  0  0
   15.1470   23.0262   -3.3531 C   0  0  0  0  0  0  0  0  0  0  0  0
   15.8332   24.1338   -4.4492 S   0  0  0  0  0  0  0  0  0  0  0  0
   17.8151   28.6859   -4.0994 C   0  0  0  0  0  0  0  0  0  0  0  0
   17.3552   27.3478   -3.7608 N   0  0  0  0  0  0  0  0  0  0  0  0
   16.0200   26.9509   -3.8963 C   0  0  0  0  0  0  0  0  0  0  0  0
   15.1574   27.7348   -4.3175 O   0  0  0  0  0  0  0  0  0  0  0  0
   18.0823   26.6911   -3.4070 H   0  0  0  0  0  0  0  0  0  0  0  0
   12.5370   23.7990    0.4936 C   0  0  0  0  0  0  0  0  0  0  0  0
   11.9882   22.7349    1.1788 C   0  0  0  0  0  0  0  0  0  0  0  0
   10.7385   22.8122    1.7682 C   0  0  0  0  0  0  0  0  0  0  0  0
    9.9774   23.9718    1.6953 C   0  0  0  0  0  0  0  0  0  0  0  0
   10.5196   25.0345    1.0142 C   0  0  0  0  0  0  0  0  0  0  0  0
   11.7734   24.9444    0.4276 C   0  0  0  0  0  0  0  0  0  0  0  0
    8.6675   24.0114    2.3289 C   0  0  0  0  0  0  0  0  0  0  0  0
    7.6555   23.7511    1.6358 O   0  0  0  0  0  0  0  0  0  0  0  0
    8.4408   24.3268    3.6926 N   0  0  0  0  0  0  0  0  0  0  0  0
    9.2699   24.5460    4.2845 H   0  0  0  0  0  0  0  0  0  0  0  0
    7.1297   24.3567    4.2869 C   0  0  0  0  0  0  0  0  0  0  0  0
    6.9420   25.3430    5.4151 C   0  0  0  0  0  0  0  0  0  0  0  0
    6.2372   25.5338    4.0812 C   0  0  0  0  0  0  0  0  0  0  0  0
    6.5130   23.0400    4.5764 C   0  0  0  0  0  0  0  0  0  0  0  0
    6.0431   22.0135    4.7832 N   0  0  0  0  0  0  0  0  0  0  0  0
 11 12  1  0  0  0
 12 13  1  0  0  0
 13 14  2  0  0  0
 13  2  1  0  0  0
  2  3  2  0  0  0
  3  4  1  0  0  0
  4  5  2  0  0  0
  5  1  1  0  0  0
  1 16  1  0  0  0
 16 17  2  0  0  0
 17 18  1  0  0  0
 18 19  2  0  0  0
 19 20  1  0  0  0
 20 21  2  0  0  0
 19 22  1  0  0  0
 22 23  2  0  0  0
 22 24  1  0  0  0
 24 26  1  0  0  0
 26 27  1  0  0  0
 27 28  1  0  0  0
 26 29  1  0  0  0
 29 30  3  0  0  0
  5  6  1  0  0  0
  6  7  2  0  0  0
  7  8  1  0  0  0
  8  9  2  0  0  0
  9 10  1  0  0  0
 10  2  1  0  0  0
  9  4  1  0  0  0
 21 16  1  0  0  0
 28 26  1  0  0  0
 12 15  1  0  0  0
 24 25  1  0  0  0
M  END
> <minimizedAffinity>
-5.65348

> <CNNscore>
0.1523153037

> <CNNaffinity>
6.3938679695

> <CNN_VS>
0.9738839269

> <CNNaffinity_variance>
0.0934245214

$$$$
[H]c1c([H])c([H])c(C([H])([H])n2c(C3([H])C([H])([H])C([H])([H])N(C(=O)c4c([H])c(OC([H])([H])[H])c(OC([H])([H])[H])c(OC([H])([H])[H])c4[H])C([H])([H])C3([H])[H])nc3c([H])c([H])c([H])c([H])c32)c([H])c1[H]


 36 40  0  0  0  0  0  0  0  0999 V2000
   13.8352   24.0071    0.4692 C   0  0  0  0  0  0  0  0  0  0  0  0
   14.6527   24.6463    1.2636 O   0  0  0  0  0  0  0  0  0  0  0  0
   13.6688   24.5895   -0.7650 N   0  0  0  0  0  0  0  0  0  0  0  0
   14.4896   25.7676   -1.1291 C   0  0  0  0  0  0  0  0  0  0  0  0
   14.6673   25.7551   -2.6502 C   0  0  0  0  0  0  0  0  0  0  0  0
   13.3287   26.0618   -3.3107 C   0  0  0  0  0  0  0  0  0  0  0  0
   12.2260   25.5672   -2.3682 C   0  0  0  0  0  0  0  0  0  0  0  0
   12.6931   24.2393   -1.7501 C   0  0  0  0  0  0  0  0  0  0  0  0
   13.2173   27.5036   -3.6168 C   0  0  0  0  0  0  0  0  0  0  0  0
   12.0482   28.1952   -3.3813 N   0  0  0  0  0  0  0  0  0  0  0  0
   12.1897   29.4720   -3.7425 C   0  0  0  0  0  0  0  0  0  0  0  0
   11.3410   30.5769   -3.7219 C   0  0  0  0  0  0  0  0  0  0  0  0
   11.7835   31.8019   -4.1782 C   0  0  0  0  0  0  0  0  0  0  0  0
   13.0760   31.9030   -4.6513 C   0  0  0  0  0  0  0  0  0  0  0  0
   13.9307   30.8520   -4.6876 C   0  0  0  0  0  0  0  0  0  0  0  0
   13.4694   29.6303   -4.2246 C   0  0  0  0  0  0  0  0  0  0  0  0
   14.0748   28.3934   -4.1313 N   0  0  0  0  0  0  0  0  0  0  0  0
   15.4013   28.1213   -4.5788 C   0  0  0  0  0  0  0  0  0  0  0  0
   15.5879   27.3250   -5.7773 C   0  0  0  0  0  0  0  0  0  0  0  0
   16.5768   27.4740   -6.6965 C   0  0  0  0  0  0  0  0  0  0  0  0
   16.6569   26.7071   -7.8350 C   0  0  0  0  0  0  0  0  0  0  0  0
   15.7188   25.7247   -8.1127 C   0  0  0  0  0  0  0  0  0  0  0  0
   14.7016   25.5540   -7.1897 C   0  0  0  0  0  0  0  0  0  0  0  0
   14.6511   26.3340   -6.0685 C   0  0  0  0  0  0  0  0  0  0  0  0
   13.4333   20.4843    1.4868 C   0  0  0  0  0  0  0  0  0  0  0  0
   14.0114   21.6232    1.0141 C   0  0  0  0  0  0  0  0  0  0  0  0
   13.2636   22.8199    1.0334 C   0  0  0  0  0  0  0  0  0  0  0  0
   11.9893   22.7621    1.5297 C   0  0  0  0  0  0  0  0  0  0  0  0
   11.4350   21.5734    2.0003 C   0  0  0  0  0  0  0  0  0  0  0  0
   12.1502   20.4102    1.9880 C   0  0  0  0  0  0  0  0  0  0  0  0
   15.4194   19.2445    0.8179 C   0  0  0  0  0  0  0  0  0  0  0  0
   14.1862   19.3206    1.4636 O   0  0  0  0  0  0  0  0  0  0  0  0
   10.1274   21.5549    2.4915 O   0  0  0  0  0  0  0  0  0  0  0  0
    9.1337   22.2827    1.7665 C   0  0  0  0  0  0  0  0  0  0  0  0
   11.6535   19.2076    2.4441 O   0  0  0  0  0  0  0  0  0  0  0  0
   11.8278   18.8798    3.8300 C   0  0  0  0  0  0  0  0  0  0  0  0
 31 32  1  0  0  0
 32 25  1  0  0  0
 25 26  2  0  0  0
 26 27  1  0  0  0
 27 28  2  0  0  0
 28 29  1  0  0  0
 29 33  1  0  0  0
 33 34  1  0  0  0
 29 30  2  0  0  0
 30 35  1  0  0  0
 35 36  1  0  0  0
 27  1  1  0  0  0
  1  2  2  0  0  0
  1  3  1  0  0  0
  3  4  1  0  0  0
  4  5  1  0  0  0
  5  6  1  0  0  0
  6  7  1  0  0  0
  7  8  1  0  0  0
  6  9  1  0  0  0
  9 10  2  0  0  0
 10 11  1  0  0  0
 11 12  2  0  0  0
 12 13  1  0  0  0
 13 14  2  0  0  0
 14 15  1  0  0  0
 15 16  2  0  0  0
 16 17  1  0  0  0
 17 18  1  0  0  0
 18 19  1  0  0  0
 19 20  2  0  0  0
 20 21  1  0  0  0
 21 22  2  0  0  0
 22 23  1  0  0  0
 23 24  2  0  0  0
 30 25  1  0  0  0
  8  3  1  0  0  0
 17  9  1  0  0  0
 24 19  1  0  0  0
 16 11  1  0  0  0
M  END
> <minimizedAffinity>
17.48476

> <CNNscore>
0.6083973050

> <CNNaffinity>
7.3866829872

> <CNN_VS>
4.4940381050

> <CNNaffinity_variance>
0.8026295900

$$$$
[H]c1c([H])c([H])c(C([H])([H])n2c(C3([H])C([H])([H])C([H])([H])N(C(=O)c4c([H])c(OC([H])([H])[H])c(OC([H])([H])[H])c(OC([H])([H])[H])c4[H])C([H])([H])C3([H])[H])nc3c([H])c([H])c([H])c([H])c32)c([H])c1[H]


 36 40  0  0  0  0  0  0  0  0999 V2000
   13.4848   24.4443   -3.2444 C   0  0  0  0  0  0  0  0  0  0  0  0
   12.2498   24.5801   -3.6497 O   0  0  0  0  0  0  0  0  0  0  0  0
   13.6516   23.5450   -2.2181 N   0  0  0  0  0  0  0  0  0  0  0  0
   12.4944   22.7413   -1.7609 C   0  0  0  0  0  0  0  0  0  0  0  0
   13.0374   21.4168   -1.2165 C   0  0  0  0  0  0  0  0  0  0  0  0
   13.7937   21.6833    0.0793 C   0  0  0  0  0  0  0  0  0  0  0  0
   14.3558   23.1068    0.0001 C   0  0  0  0  0  0  0  0  0  0  0  0
   14.8355   23.3460   -1.4409 C   0  0  0  0  0  0  0  0  0  0  0  0
   12.9120   21.4792    1.2481 C   0  0  0  0  0  0  0  0  0  0  0  0
   13.2121   22.0336    2.4741 N   0  0  0  0  0  0  0  0  0  0  0  0
   12.2770   21.7049    3.3675 C   0  0  0  0  0  0  0  0  0  0  0  0
   12.0971   21.9886    4.7198 C   0  0  0  0  0  0  0  0  0  0  0  0
   11.0017   21.4894    5.3950 C   0  0  0  0  0  0  0  0  0  0  0  0
   10.0983   20.7091    4.7027 C   0  0  0  0  0  0  0  0  0  0  0  0
   10.2388   20.4111    3.3882 C   0  0  0  0  0  0  0  0  0  0  0  0
   11.3439   20.9216    2.7266 C   0  0  0  0  0  0  0  0  0  0  0  0
   11.7689   20.8039    1.4186 N   0  0  0  0  0  0  0  0  0  0  0  0
   11.0982   20.0233    0.4314 C   0  0  0  0  0  0  0  0  0  0  0  0
   11.5638   20.0781   -0.9418 C   0  0  0  0  0  0  0  0  0  0  0  0
   12.7179   19.5467   -1.4219 C   0  0  0  0  0  0  0  0  0  0  0  0
   13.1124   19.6838   -2.7320 C   0  0  0  0  0  0  0  0  0  0  0  0
   12.3429   20.3826   -3.6495 C   0  0  0  0  0  0  0  0  0  0  0  0
   11.1616   20.9329   -3.1833 C   0  0  0  0  0  0  0  0  0  0  0  0
   10.7995   20.7784   -1.8745 C   0  0  0  0  0  0  0  0  0  0  0  0
   16.1074   26.9580   -3.8854 C   0  0  0  0  0  0  0  0  0  0  0  0
   15.2593   26.1358   -3.2076 C   0  0  0  0  0  0  0  0  0  0  0  0
   14.4339   25.2593   -3.9441 C   0  0  0  0  0  0  0  0  0  0  0  0
   14.5360   25.2905   -5.3086 C   0  0  0  0  0  0  0  0  0  0  0  0
   15.4156   26.1513   -5.9623 C   0  0  0  0  0  0  0  0  0  0  0  0
   16.2199   27.0020   -5.2596 C   0  0  0  0  0  0  0  0  0  0  0  0
   16.8759   29.1927   -3.2982 C   0  0  0  0  0  0  0  0  0  0  0  0
   16.9131   27.8077   -3.1434 O   0  0  0  0  0  0  0  0  0  0  0  0
   15.4837   26.1582   -7.3575 O   0  0  0  0  0  0  0  0  0  0  0  0
   16.5067   25.3762   -7.9779 C   0  0  0  0  0  0  0  0  0  0  0  0
   17.1102   27.8712   -5.8537 O   0  0  0  0  0  0  0  0  0  0  0  0
   16.5964   29.0692   -6.4531 C   0  0  0  0  0  0  0  0  0  0  0  0
 31 32  1  0  0  0
 32 25  1  0  0  0
 25 26  2  0  0  0
 26 27  1  0  0  0
 27 28  2  0  0  0
 28 29  1  0  0  0
 29 33  1  0  0  0
 33 34  1  0  0  0
 29 30  2  0  0  0
 30 35  1  0  0  0
 35 36  1  0  0  0
 27  1  1  0  0  0
  1  2  2  0  0  0
  1  3  1  0  0  0
  3  4  1  0  0  0
  4  5  1  0  0  0
  5  6  1  0  0  0
  6  7  1  0  0  0
  7  8  1  0  0  0
  6  9  1  0  0  0
  9 10  2  0  0  0
 10 11  1  0  0  0
 11 12  2  0  0  0
 12 13  1  0  0  0
 13 14  2  0  0  0
 14 15  1  0  0  0
 15 16  2  0  0  0
 16 17  1  0  0  0
 17 18  1  0  0  0
 18 19  1  0  0  0
 19 20  2  0  0  0
 20 21  1  0  0  0
 21 22  2  0  0  0
 22 23  1  0  0  0
 23 24  2  0  0  0
 30 25  1  0  0  0
  8  3  1  0  0  0
 17  9  1  0  0  0
 24 19  1  0  0  0
 16 11  1  0  0  0
M  END
> <minimizedAffinity>
17.22432

> <CNNscore>
0.5729896426

> <CNNaffinity>
7.4972891808

> <CNN_VS>
4.2958688736

> <CNNaffinity_variance>
1.1166298389

$$$$
[H]c1c([H])c([H])c(C([H])([H])n2c(C3([H])C([H])([H])C([H])([H])N(C(=O)c4c([H])c(OC([H])([H])[H])c(OC([H])([H])[H])c(OC([H])([H])[H])c4[H])C([H])([H])C3([H])[H])nc3c([H])c([H])c([H])c([H])c32)c([H])c1[H]


 36 40  0  0  0  0  0  0  0  0999 V2000
   14.7782   25.2750   -2.1958 C   0  0  0  0  0  0  0  0  0  0  0  0
   15.7596   24.5149   -1.7873 O   0  0  0  0  0  0  0  0  0  0  0  0
   13.7221   25.3612   -1.3199 N   0  0  0  0  0  0  0  0  0  0  0  0
   13.8290   24.7222    0.0122 C   0  0  0  0  0  0  0  0  0  0  0  0
   12.9555   25.5244    0.9813 C   0  0  0  0  0  0  0  0  0  0  0  0
   11.4895   25.3114    0.6237 C   0  0  0  0  0  0  0  0  0  0  0  0
   11.4189   25.0284   -0.8809 C   0  0  0  0  0  0  0  0  0  0  0  0
   12.4404   25.9390   -1.5815 C   0  0  0  0  0  0  0  0  0  0  0  0
   10.9071   24.2250    1.4395 C   0  0  0  0  0  0  0  0  0  0  0  0
   10.1956   24.4978    2.5883 N   0  0  0  0  0  0  0  0  0  0  0  0
    9.7792   23.3616    3.1508 C   0  0  0  0  0  0  0  0  0  0  0  0
    9.0424   23.0696    4.2968 C   0  0  0  0  0  0  0  0  0  0  0  0
    8.7655   21.7592    4.6300 C   0  0  0  0  0  0  0  0  0  0  0  0
    9.2333   20.7553    3.8068 C   0  0  0  0  0  0  0  0  0  0  0  0
    9.9528   20.9992    2.6846 C   0  0  0  0  0  0  0  0  0  0  0  0
   10.2204   22.3206    2.3655 C   0  0  0  0  0  0  0  0  0  0  0  0
   10.9130   22.8921    1.3172 N   0  0  0  0  0  0  0  0  0  0  0  0
   11.5759   22.1439    0.2999 C   0  0  0  0  0  0  0  0  0  0  0  0
   12.9563   21.7476    0.5071 C   0  0  0  0  0  0  0  0  0  0  0  0
   13.4139   20.4786    0.6658 C   0  0  0  0  0  0  0  0  0  0  0  0
   14.7362   20.1886    0.9068 C   0  0  0  0  0  0  0  0  0  0  0  0
   15.6903   21.1900    1.0031 C   0  0  0  0  0  0  0  0  0  0  0  0
   15.2474   22.4917    0.8443 C   0  0  0  0  0  0  0  0  0  0  0  0
   13.9256   22.7451    0.6065 C   0  0  0  0  0  0  0  0  0  0  0  0
   15.3708   25.6167   -5.8206 C   0  0  0  0  0  0  0  0  0  0  0  0
   15.1028   25.0431   -4.6149 C   0  0  0  0  0  0  0  0  0  0  0  0
   14.9851   25.8750   -3.4810 C   0  0  0  0  0  0  0  0  0  0  0  0
   15.1509   27.2213   -3.6638 C   0  0  0  0  0  0  0  0  0  0  0  0
   15.4281   27.7664   -4.9159 C   0  0  0  0  0  0  0  0  0  0  0  0
   15.5422   26.9709   -6.0199 C   0  0  0  0  0  0  0  0  0  0  0  0
   15.5114   23.3940   -6.8050 C   0  0  0  0  0  0  0  0  0  0  0  0
   15.4776   24.7826   -6.9228 O   0  0  0  0  0  0  0  0  0  0  0  0
   15.5985   29.1455   -5.0589 O   0  0  0  0  0  0  0  0  0  0  0  0
   16.9242   29.6333   -5.2765 C   0  0  0  0  0  0  0  0  0  0  0  0
   15.8112   27.4563   -7.2821 O   0  0  0  0  0  0  0  0  0  0  0  0
   16.2573   28.8140   -7.4096 C   0  0  0  0  0  0  0  0  0  0  0  0
 31 32  1  0  0  0
 32 25  1  0  0  0
 25 26  2  0  0  0
 26 27  1  0  0  0
 27 28  2  0  0  0
 28 29  1  0  0  0
 29 33  1  0  0  0
 33 34  1  0  0  0
 29 30  2  0  0  0
 30 35  1  0  0  0
 35 36  1  0  0  0
 27  1  1  0  0  0
  1  2  2  0  0  0
  1  3  1  0  0  0
  3  4  1  0  0  0
  4  5  1  0  0  0
  5  6  1  0  0  0
  6  7  1  0  0  0
  7  8  1  0  0  0
  6  9  1  0  0  0
  9 10  2  0  0  0
 10 11  1  0  0  0
 11 12  2  0  0  0
 12 13  1  0  0  0
 13 14  2  0  0  0
 14 15  1  0  0  0
 15 16  2  0  0  0
 16 17  1  0  0  0
 17 18  1  0  0  0
 18 19  1  0  0  0
 19 20  2  0  0  0
 20 21  1  0  0  0
 21 22  2  0  0  0
 22 23  1  0  0  0
 23 24  2  0  0  0
 30 25  1  0  0  0
  8  3  1  0  0  0
 17  9  1  0  0  0
 24 19  1  0  0  0
 16 11  1  0  0  0
M  END
> <minimizedAffinity>
4.09301

> <CNNscore>
0.4974055588

> <CNNaffinity>
7.5183501244

> <CNN_VS>
3.7396690845

> <CNNaffinity_variance>
0.3230111003

$$$$
[H]c1c([H])c([H])c(C([H])([H])n2c(C3([H])C([H])([H])C([H])([H])N(C(=O)c4c([H])c(OC([H])([H])[H])c(OC([H])([H])[H])c(OC([H])([H])[H])c4[H])C([H])([H])C3([H])[H])nc3c([H])c([H])c([H])c([H])c32)c([H])c1[H]


 36 40  0  0  0  0  0  0  0  0999 V2000
   13.4217   24.3252   -1.0101 C   0  0  0  0  0  0  0  0  0  0  0  0
   14.3655   23.8793   -0.2238 O   0  0  0  0  0  0  0  0  0  0  0  0
   12.1775   24.3860   -0.4284 N   0  0  0  0  0  0  0  0  0  0  0  0
   12.0339   24.0804    1.0138 C   0  0  0  0  0  0  0  0  0  0  0  0
   10.8398   24.8822    1.5398 C   0  0  0  0  0  0  0  0  0  0  0  0
    9.5569   24.3123    0.9468 C   0  0  0  0  0  0  0  0  0  0  0  0
    9.9091   23.7061   -0.4160 C   0  0  0  0  0  0  0  0  0  0  0  0
   10.9349   24.6296   -1.0931 C   0  0  0  0  0  0  0  0  0  0  0  0
    8.9471   23.3321    1.8700 C   0  0  0  0  0  0  0  0  0  0  0  0
    8.3913   23.7291    3.0675 N   0  0  0  0  0  0  0  0  0  0  0  0
    7.9142   22.6706    3.7252 C   0  0  0  0  0  0  0  0  0  0  0  0
    7.2719   22.5097    4.9512 C   0  0  0  0  0  0  0  0  0  0  0  0
    6.8903   21.2533    5.3763 C   0  0  0  0  0  0  0  0  0  0  0  0
    7.1593   20.1709    4.5636 C   0  0  0  0  0  0  0  0  0  0  0  0
    7.7818   20.2870    3.3655 C   0  0  0  0  0  0  0  0  0  0  0  0
    8.1568   21.5560    2.9547 C   0  0  0  0  0  0  0  0  0  0  0  0
    8.7959   22.0032    1.8159 N   0  0  0  0  0  0  0  0  0  0  0  0
    9.2655   21.1450    0.7782 C   0  0  0  0  0  0  0  0  0  0  0  0
   10.6821   20.8387    0.7084 C   0  0  0  0  0  0  0  0  0  0  0  0
   11.5267   20.6931    1.7622 C   0  0  0  0  0  0  0  0  0  0  0  0
   12.8715   20.4496    1.6105 C   0  0  0  0  0  0  0  0  0  0  0  0
   13.4491   20.3378    0.3550 C   0  0  0  0  0  0  0  0  0  0  0  0
   12.6077   20.4821   -0.7345 C   0  0  0  0  0  0  0  0  0  0  0  0
   11.2755   20.7243   -0.5483 C   0  0  0  0  0  0  0  0  0  0  0  0
   13.7332   26.1221   -4.2165 C   0  0  0  0  0  0  0  0  0  0  0  0
   13.3686   25.8437   -2.9343 C   0  0  0  0  0  0  0  0  0  0  0  0
   13.8593   24.6656   -2.3319 C   0  0  0  0  0  0  0  0  0  0  0  0
   14.6789   23.8655   -3.0814 C   0  0  0  0  0  0  0  0  0  0  0  0
   15.0239   24.1867   -4.3927 C   0  0  0  0  0  0  0  0  0  0  0  0
   14.5563   25.3249   -4.9846 C   0  0  0  0  0  0  0  0  0  0  0  0
   13.5188   28.5473   -4.2602 C   0  0  0  0  0  0  0  0  0  0  0  0
   13.2444   27.2866   -4.7883 O   0  0  0  0  0  0  0  0  0  0  0  0
   15.8568   23.3390   -5.1269 O   0  0  0  0  0  0  0  0  0  0  0  0
   15.6460   21.9305   -5.0062 C   0  0  0  0  0  0  0  0  0  0  0  0
   14.8682   25.6934   -6.2761 O   0  0  0  0  0  0  0  0  0  0  0  0
   16.0643   26.4541   -6.4980 C   0  0  0  0  0  0  0  0  0  0  0  0
 31 32  1  0  0  0
 32 25  1  0  0  0
 25 26  2  0  0  0
 26 27  1  0  0  0
 27 28  2  0  0  0
 28 29  1  0  0  0
 29 33  1  0  0  0
 33 34  1  0  0  0
 29 30  2  0  0  0
 30 35  1  0  0  0
 35 36  1  0  0  0
 27  1  1  0  0  0
  1  2  2  0  0  0
  1  3  1  0  0  0
  3  4  1  0  0  0
  4  5  1  0  0  0
  5  6  1  0  0  0
  6  7  1  0  0  0
  7  8  1  0  0  0
  6  9  1  0  0  0
  9 10  2  0  0  0
 10 11  1  0  0  0
 11 12  2  0  0  0
 12 13  1  0  0  0
 13 14  2  0  0  0
 14 15  1  0  0  0
 15 16  2  0  0  0
 16 17  1  0  0  0
 17 18  1  0  0  0
 18 19  1  0  0  0
 19 20  2  0  0  0
 20 21  1  0  0  0
 21 22  2  0  0  0
 22 23  1  0  0  0
 23 24  2  0  0  0
 30 25  1  0  0  0
  8  3  1  0  0  0
 17  9  1  0  0  0
 24 19  1  0  0  0
 16 11  1  0  0  0
M  END
> <minimizedAffinity>
-2.15469

> <CNNscore>
0.4928194880

> <CNNaffinity>
7.3284683228

> <CNN_VS>
3.6116120815

> <CNNaffinity_variance>
0.2597982883

$$$$
[H]c1c([H])c([H])c(C([H])([H])n2c(C3([H])C([H])([H])C([H])([H])N(C(=O)c4c([H])c(OC([H])([H])[H])c(OC([H])([H])[H])c(OC([H])([H])[H])c4[H])C([H])([H])C3([H])[H])nc3c([H])c([H])c([H])c([H])c32)c([H])c1[H]


 36 40  0  0  0  0  0  0  0  0999 V2000
   12.2626   22.0613    1.1726 C   0  0  0  0  0  0  0  0  0  0  0  0
   13.3131   21.6064    1.8030 O   0  0  0  0  0  0  0  0  0  0  0  0
   12.5433   22.7155   -0.0035 N   0  0  0  0  0  0  0  0  0  0  0  0
   13.9361   22.7392   -0.5073 C   0  0  0  0  0  0  0  0  0  0  0  0
   13.8739   22.8334   -2.0346 C   0  0  0  0  0  0  0  0  0  0  0  0
   13.3515   24.2097   -2.4281 C   0  0  0  0  0  0  0  0  0  0  0  0
   12.4373   24.6957   -1.2981 C   0  0  0  0  0  0  0  0  0  0  0  0
   11.6323   23.4887   -0.7892 C   0  0  0  0  0  0  0  0  0  0  0  0
   14.4725   25.1349   -2.6968 C   0  0  0  0  0  0  0  0  0  0  0  0
   15.5020   25.2904   -1.7933 N   0  0  0  0  0  0  0  0  0  0  0  0
   16.3854   26.1788   -2.2528 C   0  0  0  0  0  0  0  0  0  0  0  0
   17.5781   26.6963   -1.7517 C   0  0  0  0  0  0  0  0  0  0  0  0
   18.2884   27.6321   -2.4760 C   0  0  0  0  0  0  0  0  0  0  0  0
   17.7911   28.0384   -3.6975 C   0  0  0  0  0  0  0  0  0  0  0  0
   16.6355   27.5587   -4.2179 C   0  0  0  0  0  0  0  0  0  0  0  0
   15.9364   26.6194   -3.4772 C   0  0  0  0  0  0  0  0  0  0  0  0
   14.7524   25.9525   -3.7191 N   0  0  0  0  0  0  0  0  0  0  0  0
   13.9396   26.1668   -4.8712 C   0  0  0  0  0  0  0  0  0  0  0  0
   14.5360   26.0264   -6.1865 C   0  0  0  0  0  0  0  0  0  0  0  0
   14.1148   26.6278   -7.3293 C   0  0  0  0  0  0  0  0  0  0  0  0
   14.7071   26.4047   -8.5500 C   0  0  0  0  0  0  0  0  0  0  0  0
   15.7828   25.5404   -8.6847 C   0  0  0  0  0  0  0  0  0  0  0  0
   16.2301   24.9161   -7.5333 C   0  0  0  0  0  0  0  0  0  0  0  0
   15.6181   25.1597   -6.3357 C   0  0  0  0  0  0  0  0  0  0  0  0
    8.7369   21.1026    1.6798 C   0  0  0  0  0  0  0  0  0  0  0  0
    9.9394   21.2849    1.0672 C   0  0  0  0  0  0  0  0  0  0  0  0
   11.0147   21.7949    1.8256 C   0  0  0  0  0  0  0  0  0  0  0  0
   10.7808   22.0795    3.1438 C   0  0  0  0  0  0  0  0  0  0  0  0
    9.5323   21.8810    3.7302 C   0  0  0  0  0  0  0  0  0  0  0  0
    8.4855   21.3865    3.0062 C   0  0  0  0  0  0  0  0  0  0  0  0
    6.8063   21.4210    0.2304 C   0  0  0  0  0  0  0  0  0  0  0  0
    7.6948   20.5961    0.9186 O   0  0  0  0  0  0  0  0  0  0  0  0
    9.3323   22.1919    5.0774 O   0  0  0  0  0  0  0  0  0  0  0  0
    9.1424   23.5659    5.4222 C   0  0  0  0  0  0  0  0  0  0  0  0
    7.2315   21.1669    3.5356 O   0  0  0  0  0  0  0  0  0  0  0  0
    6.3741   22.2973    3.7487 C   0  0  0  0  0  0  0  0  0  0  0  0
 31 32  1  0  0  0
 32 25  1  0  0  0
 25 26  2  0  0  0
 26 27  1  0  0  0
 27 28  2  0  0  0
 28 29  1  0  0  0
 29 33  1  0  0  0
 33 34  1  0  0  0
 29 30  2  0  0  0
 30 35  1  0  0  0
 35 36  1  0  0  0
 27  1  1  0  0  0
  1  2  2  0  0  0
  1  3  1  0  0  0
  3  4  1  0  0  0
  4  5  1  0  0  0
  5  6  1  0  0  0
  6  7  1  0  0  0
  7  8  1  0  0  0
  6  9  1  0  0  0
  9 10  2  0  0  0
 10 11  1  0  0  0
 11 12  2  0  0  0
 12 13  1  0  0  0
 13 14  2  0  0  0
 14 15  1  0  0  0
 15 16  2  0  0  0
 16 17  1  0  0  0
 17 18  1  0  0  0
 18 19  1  0  0  0
 19 20  2  0  0  0
 20 21  1  0  0  0
 21 22  2  0  0  0
 22 23  1  0  0  0
 23 24  2  0  0  0
 30 25  1  0  0  0
  8  3  1  0  0  0
 17  9  1  0  0  0
 24 19  1  0  0  0
 16 11  1  0  0  0
M  END
> <minimizedAffinity>
1.11024

> <CNNscore>
0.4559232891

> <CNNaffinity>
7.4135103226

> <CNN_VS>
3.3799920082

> <CNNaffinity_variance>
0.9088500738

$$$$
[H]c1c([H])c([H])c(C([H])([H])n2c(C3([H])C([H])([H])C([H])([H])N(C(=O)c4c([H])c(OC([H])([H])[H])c(OC([H])([H])[H])c(OC([H])([H])[H])c4[H])C([H])([H])C3([H])[H])nc3c([H])c([H])c([H])c([H])c32)c([H])c1[H]


 36 40  0  0  0  0  0  0  0  0999 V2000
   13.1373   23.2680   -2.3083 C   0  0  0  0  0  0  0  0  0  0  0  0
   12.9367   22.1445   -2.9450 O   0  0  0  0  0  0  0  0  0  0  0  0
   12.7261   23.2603   -0.9964 N   0  0  0  0  0  0  0  0  0  0  0  0
   12.2315   21.9991   -0.3974 C   0  0  0  0  0  0  0  0  0  0  0  0
   12.5388   22.0477    1.1021 C   0  0  0  0  0  0  0  0  0  0  0  0
   11.6537   23.1005    1.7583 C   0  0  0  0  0  0  0  0  0  0  0  0
   11.3506   24.1699    0.7032 C   0  0  0  0  0  0  0  0  0  0  0  0
   12.6263   24.3906   -0.1261 C   0  0  0  0  0  0  0  0  0  0  0  0
   10.4322   22.4809    2.3140 C   0  0  0  0  0  0  0  0  0  0  0  0
    9.9605   22.8272    3.5622 N   0  0  0  0  0  0  0  0  0  0  0  0
    8.8565   22.1327    3.8445 C   0  0  0  0  0  0  0  0  0  0  0  0
    8.0006   22.0923    4.9433 C   0  0  0  0  0  0  0  0  0  0  0  0
    6.9114   21.2447    4.9450 C   0  0  0  0  0  0  0  0  0  0  0  0
    6.6945   20.4455    3.8410 C   0  0  0  0  0  0  0  0  0  0  0  0
    7.5040   20.4563    2.7542 C   0  0  0  0  0  0  0  0  0  0  0  0
    8.5919   21.3141    2.7699 C   0  0  0  0  0  0  0  0  0  0  0  0
    9.5859   21.5567    1.8435 N   0  0  0  0  0  0  0  0  0  0  0  0
    9.7006   20.8666    0.6006 C   0  0  0  0  0  0  0  0  0  0  0  0
    8.5148   20.6921   -0.2171 C   0  0  0  0  0  0  0  0  0  0  0  0
    8.4864   20.3381   -1.5282 C   0  0  0  0  0  0  0  0  0  0  0  0
    7.3188   20.2403   -2.2479 C   0  0  0  0  0  0  0  0  0  0  0  0
    6.0873   20.5018   -1.6673 C   0  0  0  0  0  0  0  0  0  0  0  0
    6.0911   20.8640   -0.3314 C   0  0  0  0  0  0  0  0  0  0  0  0
    7.2698   20.9526    0.3547 C   0  0  0  0  0  0  0  0  0  0  0  0
   13.6700   26.5126   -3.9803 C   0  0  0  0  0  0  0  0  0  0  0  0
   13.1234   25.5624   -3.1723 C   0  0  0  0  0  0  0  0  0  0  0  0
   13.7465   24.2985   -3.0967 C   0  0  0  0  0  0  0  0  0  0  0  0
   14.8730   24.1021   -3.8489 C   0  0  0  0  0  0  0  0  0  0  0  0
   15.3969   25.1018   -4.6661 C   0  0  0  0  0  0  0  0  0  0  0  0
   14.8031   26.3289   -4.7454 C   0  0  0  0  0  0  0  0  0  0  0  0
   11.6755   27.8817   -4.2574 C   0  0  0  0  0  0  0  0  0  0  0  0
   13.0456   27.7491   -4.0368 O   0  0  0  0  0  0  0  0  0  0  0  0
   16.5443   24.8585   -5.4249 O   0  0  0  0  0  0  0  0  0  0  0  0
   16.6149   23.6284   -6.1492 C   0  0  0  0  0  0  0  0  0  0  0  0
   15.2801   27.3547   -5.5336 O   0  0  0  0  0  0  0  0  0  0  0  0
   16.5664   27.9101   -5.2248 C   0  0  0  0  0  0  0  0  0  0  0  0
 31 32  1  0  0  0
 32 25  1  0  0  0
 25 26  2  0  0  0
 26 27  1  0  0  0
 27 28  2  0  0  0
 28 29  1  0  0  0
 29 33  1  0  0  0
 33 34  1  0  0  0
 29 30  2  0  0  0
 30 35  1  0  0  0
 35 36  1  0  0  0
 27  1  1  0  0  0
  1  2  2  0  0  0
  1  3  1  0  0  0
  3  4  1  0  0  0
  4  5  1  0  0  0
  5  6  1  0  0  0
  6  7  1  0  0  0
  7  8  1  0  0  0
  6  9  1  0  0  0
  9 10  2  0  0  0
 10 11  1  0  0  0
 11 12  2  0  0  0
 12 13  1  0  0  0
 13 14  2  0  0  0
 14 15  1  0  0  0
 15 16  2  0  0  0
 16 17  1  0  0  0
 17 18  1  0  0  0
 18 19  1  0  0  0
 19 20  2  0  0  0
 20 21  1  0  0  0
 21 22  2  0  0  0
 22 23  1  0  0  0
 23 24  2  0  0  0
 30 25  1  0  0  0
  8  3  1  0  0  0
 17  9  1  0  0  0
 24 19  1  0  0  0
 16 11  1  0  0  0
M  END
> <minimizedAffinity>
0.79996

> <CNNscore>
0.4498161077

> <CNNaffinity>
7.0909409523

> <CNN_VS>
3.1896195412

> <CNNaffinity_variance>
0.5050336719

$$$$
[H]c1c([H])c([H])c(C([H])([H])n2c(C3([H])C([H])([H])C([H])([H])N(C(=O)c4c([H])c(OC([H])([H])[H])c(OC([H])([H])[H])c(OC([H])([H])[H])c4[H])C([H])([H])C3([H])[H])nc3c([H])c([H])c([H])c([H])c32)c([H])c1[H]


 36 40  0  0  0  0  0  0  0  0999 V2000
   12.1847   22.2408    1.0448 C   0  0  0  0  0  0  0  0  0  0  0  0
   13.2944   21.8403    1.6070 O   0  0  0  0  0  0  0  0  0  0  0  0
   12.3560   22.8870   -0.1565 N   0  0  0  0  0  0  0  0  0  0  0  0
   13.7087   22.9604   -0.7557 C   0  0  0  0  0  0  0  0  0  0  0  0
   13.5380   23.0272   -2.2761 C   0  0  0  0  0  0  0  0  0  0  0  0
   12.9316   24.3740   -2.6508 C   0  0  0  0  0  0  0  0  0  0  0  0
   12.0773   24.8398   -1.4668 C   0  0  0  0  0  0  0  0  0  0  0  0
   11.3612   23.6088   -0.8875 C   0  0  0  0  0  0  0  0  0  0  0  0
   13.9911   25.3406   -3.0087 C   0  0  0  0  0  0  0  0  0  0  0  0
   15.2249   25.3074   -2.3946 N   0  0  0  0  0  0  0  0  0  0  0  0
   16.0042   26.2770   -2.8777 C   0  0  0  0  0  0  0  0  0  0  0  0
   17.3102   26.6832   -2.6117 C   0  0  0  0  0  0  0  0  0  0  0  0
   17.8567   27.7540   -3.2896 C   0  0  0  0  0  0  0  0  0  0  0  0
   17.0832   28.4060   -4.2282 C   0  0  0  0  0  0  0  0  0  0  0  0
   15.8099   28.0411   -4.5143 C   0  0  0  0  0  0  0  0  0  0  0  0
   15.2783   26.9634   -3.8247 C   0  0  0  0  0  0  0  0  0  0  0  0
   14.0397   26.3566   -3.8790 N   0  0  0  0  0  0  0  0  0  0  0  0
   12.9699   26.8048   -4.7088 C   0  0  0  0  0  0  0  0  0  0  0  0
   12.3040   28.0520   -4.3825 C   0  0  0  0  0  0  0  0  0  0  0  0
   11.0368   28.4011   -4.7251 C   0  0  0  0  0  0  0  0  0  0  0  0
   10.4932   29.6263   -4.4179 C   0  0  0  0  0  0  0  0  0  0  0  0
   11.2189   30.5878   -3.7316 C   0  0  0  0  0  0  0  0  0  0  0  0
   12.5130   30.2544   -3.3714 C   0  0  0  0  0  0  0  0  0  0  0  0
   13.0230   29.0279   -3.6930 C   0  0  0  0  0  0  0  0  0  0  0  0
    8.7630   21.0983    1.8153 C   0  0  0  0  0  0  0  0  0  0  0  0
    9.9132   21.3213    1.1210 C   0  0  0  0  0  0  0  0  0  0  0  0
   10.9971   21.9333    1.7861 C   0  0  0  0  0  0  0  0  0  0  0  0
   10.8239   22.2703    3.1013 C   0  0  0  0  0  0  0  0  0  0  0  0
    9.6275   22.0271    3.7730 C   0  0  0  0  0  0  0  0  0  0  0  0
    8.5731   21.4340    3.1398 C   0  0  0  0  0  0  0  0  0  0  0  0
    6.7062   21.2256    0.5181 C   0  0  0  0  0  0  0  0  0  0  0  0
    7.7119   20.4916    1.1452 O   0  0  0  0  0  0  0  0  0  0  0  0
    9.4882   22.3939    5.1137 O   0  0  0  0  0  0  0  0  0  0  0  0
    9.1513   23.7530    5.4004 C   0  0  0  0  0  0  0  0  0  0  0  0
    7.3690   21.1665    3.7560 O   0  0  0  0  0  0  0  0  0  0  0  0
    6.4283   22.2390    3.9084 C   0  0  0  0  0  0  0  0  0  0  0  0
 31 32  1  0  0  0
 32 25  1  0  0  0
 25 26  2  0  0  0
 26 27  1  0  0  0
 27 28  2  0  0  0
 28 29  1  0  0  0
 29 33  1  0  0  0
 33 34  1  0  0  0
 29 30  2  0  0  0
 30 35  1  0  0  0
 35 36  1  0  0  0
 27  1  1  0  0  0
  1  2  2  0  0  0
  1  3  1  0  0  0
  3  4  1  0  0  0
  4  5  1  0  0  0
  5  6  1  0  0  0
  6  7  1  0  0  0
  7  8  1  0  0  0
  6  9  1  0  0  0
  9 10  2  0  0  0
 10 11  1  0  0  0
 11 12  2  0  0  0
 12 13  1  0  0  0
 13 14  2  0  0  0
 14 15  1  0  0  0
 15 16  2  0  0  0
 16 17  1  0  0  0
 17 18  1  0  0  0
 18 19  1  0  0  0
 19 20  2  0  0  0
 20 21  1  0  0  0
 21 22  2  0  0  0
 22 23  1  0  0  0
 23 24  2  0  0  0
 30 25  1  0  0  0
  8  3  1  0  0  0
 17  9  1  0  0  0
 24 19  1  0  0  0
 16 11  1  0  0  0
M  END
> <minimizedAffinity>
5.73508

> <CNNscore>
0.4474228621

> <CNNaffinity>
7.4152650833

> <CNN_VS>
3.3177590370

> <CNNaffinity_variance>
1.3650947809

$$$$
[H]c1c([H])c([H])c(C([H])([H])n2c(C3([H])C([H])([H])C([H])([H])N(C(=O)c4c([H])c(OC([H])([H])[H])c(OC([H])([H])[H])c(OC([H])([H])[H])c4[H])C([H])([H])C3([H])[H])nc3c([H])c([H])c([H])c([H])c32)c([H])c1[H]


 36 40  0  0  0  0  0  0  0  0999 V2000
   13.1965   23.4263   -1.7106 C   0  0  0  0  0  0  0  0  0  0  0  0
   12.9138   22.1667   -1.9139 O   0  0  0  0  0  0  0  0  0  0  0  0
   12.7516   23.9230   -0.5083 N   0  0  0  0  0  0  0  0  0  0  0  0
   12.1310   23.0030    0.4729 C   0  0  0  0  0  0  0  0  0  0  0  0
   12.4014   23.5670    1.8708 C   0  0  0  0  0  0  0  0  0  0  0  0
   11.5964   24.8476    2.0558 C   0  0  0  0  0  0  0  0  0  0  0  0
   11.4178   25.4832    0.6727 C   0  0  0  0  0  0  0  0  0  0  0  0
   12.7296   25.2953   -0.1067 C   0  0  0  0  0  0  0  0  0  0  0  0
   10.3102   24.5618    2.7259 C   0  0  0  0  0  0  0  0  0  0  0  0
    9.2046   25.3587    2.5184 N   0  0  0  0  0  0  0  0  0  0  0  0
    8.1724   24.9065    3.2332 C   0  0  0  0  0  0  0  0  0  0  0  0
    6.8538   25.3281    3.3909 C   0  0  0  0  0  0  0  0  0  0  0  0
    5.9988   24.6384    4.2264 C   0  0  0  0  0  0  0  0  0  0  0  0
    6.4794   23.5314    4.8957 C   0  0  0  0  0  0  0  0  0  0  0  0
    7.7546   23.0908    4.7685 C   0  0  0  0  0  0  0  0  0  0  0  0
    8.5983   23.7950    3.9247 C   0  0  0  0  0  0  0  0  0  0  0  0
    9.9239   23.6120    3.5863 N   0  0  0  0  0  0  0  0  0  0  0  0
   10.7504   22.5867    4.1338 C   0  0  0  0  0  0  0  0  0  0  0  0
   11.0231   21.4051    3.3370 C   0  0  0  0  0  0  0  0  0  0  0  0
   10.4333   21.0756    2.1586 C   0  0  0  0  0  0  0  0  0  0  0  0
   10.7132   19.9091    1.4864 C   0  0  0  0  0  0  0  0  0  0  0  0
   11.6262   18.9906    1.9813 C   0  0  0  0  0  0  0  0  0  0  0  0
   12.2406   19.3051    3.1810 C   0  0  0  0  0  0  0  0  0  0  0  0
   11.9388   20.4729    3.8237 C   0  0  0  0  0  0  0  0  0  0  0  0
   14.1944   25.9230   -4.2361 C   0  0  0  0  0  0  0  0  0  0  0  0
   13.5543   25.3610   -3.1735 C   0  0  0  0  0  0  0  0  0  0  0  0
   13.9157   24.0550   -2.7793 C   0  0  0  0  0  0  0  0  0  0  0  0
   14.8965   23.4257   -3.4973 C   0  0  0  0  0  0  0  0  0  0  0  0
   15.5234   24.0368   -4.5813 C   0  0  0  0  0  0  0  0  0  0  0  0
   15.1829   25.3007   -4.9702 C   0  0  0  0  0  0  0  0  0  0  0  0
   12.9150   27.9618   -3.8684 C   0  0  0  0  0  0  0  0  0  0  0  0
   13.8282   27.2083   -4.6043 O   0  0  0  0  0  0  0  0  0  0  0  0
   16.5145   23.3571   -5.2935 O   0  0  0  0  0  0  0  0  0  0  0  0
   16.3659   21.9451   -5.4583 C   0  0  0  0  0  0  0  0  0  0  0  0
   15.7723   25.9543   -6.0316 O   0  0  0  0  0  0  0  0  0  0  0  0
   15.2945   25.6740   -7.3551 C   0  0  0  0  0  0  0  0  0  0  0  0
 31 32  1  0  0  0
 32 25  1  0  0  0
 25 26  2  0  0  0
 26 27  1  0  0  0
 27 28  2  0  0  0
 28 29  1  0  0  0
 29 33  1  0  0  0
 33 34  1  0  0  0
 29 30  2  0  0  0
 30 35  1  0  0  0
 35 36  1  0  0  0
 27  1  1  0  0  0
  1  2  2  0  0  0
  1  3  1  0  0  0
  3  4  1  0  0  0
  4  5  1  0  0  0
  5  6  1  0  0  0
  6  7  1  0  0  0
  7  8  1  0  0  0
  6  9  1  0  0  0
  9 10  2  0  0  0
 10 11  1  0  0  0
 11 12  2  0  0  0
 12 13  1  0  0  0
 13 14  2  0  0  0
 14 15  1  0  0  0
 15 16  2  0  0  0
 16 17  1  0  0  0
 17 18  1  0  0  0
 18 19  1  0  0  0
 19 20  2  0  0  0
 20 21  1  0  0  0
 21 22  2  0  0  0
 22 23  1  0  0  0
 23 24  2  0  0  0
 30 25  1  0  0  0
  8  3  1  0  0  0
 17  9  1  0  0  0
 24 19  1  0  0  0
 16 11  1  0  0  0
M  END
> <minimizedAffinity>
3.89263

> <CNNscore>
0.4377627969

> <CNNaffinity>
6.8448114395

> <CNN_VS>
2.9964036942

> <CNNaffinity_variance>
0.4362416267

$$$$
[H]c1c([H])c([H])c(C([H])([H])n2c(C3([H])C([H])([H])C([H])([H])N(C(=O)c4c([H])c(OC([H])([H])[H])c(OC([H])([H])[H])c(OC([H])([H])[H])c4[H])C([H])([H])C3([H])[H])nc3c([H])c([H])c([H])c([H])c32)c([H])c1[H]


 36 40  0  0  0  0  0  0  0  0999 V2000
   10.5437   23.5828    0.6898 C   0  0  0  0  0  0  0  0  0  0  0  0
    9.4393   23.9563    0.0993 O   0  0  0  0  0  0  0  0  0  0  0  0
   11.6916   24.0713    0.1122 N   0  0  0  0  0  0  0  0  0  0  0  0
   11.5882   25.0421   -1.0017 C   0  0  0  0  0  0  0  0  0  0  0  0
   12.8353   25.9299   -0.9587 C   0  0  0  0  0  0  0  0  0  0  0  0
   14.0518   25.0996   -1.3494 C   0  0  0  0  0  0  0  0  0  0  0  0
   13.7689   23.6490   -0.9437 C   0  0  0  0  0  0  0  0  0  0  0  0
   13.0327   23.6707    0.4058 C   0  0  0  0  0  0  0  0  0  0  0  0
   14.3406   25.2457   -2.7917 C   0  0  0  0  0  0  0  0  0  0  0  0
   15.3918   24.5759   -3.3807 N   0  0  0  0  0  0  0  0  0  0  0  0
   15.4538   24.8719   -4.6804 C   0  0  0  0  0  0  0  0  0  0  0  0
   16.3018   24.4836   -5.7156 C   0  0  0  0  0  0  0  0  0  0  0  0
   16.1119   24.9753   -6.9911 C   0  0  0  0  0  0  0  0  0  0  0  0
   15.0707   25.8536   -7.2123 C   0  0  0  0  0  0  0  0  0  0  0  0
   14.2254   26.2547   -6.2320 C   0  0  0  0  0  0  0  0  0  0  0  0
   14.4307   25.7500   -4.9581 C   0  0  0  0  0  0  0  0  0  0  0  0
   13.7639   25.9577   -3.7675 N   0  0  0  0  0  0  0  0  0  0  0  0
   12.6615   26.8501   -3.6183 C   0  0  0  0  0  0  0  0  0  0  0  0
   12.8900   28.2765   -3.7548 C   0  0  0  0  0  0  0  0  0  0  0  0
   11.9691   29.2593   -3.5792 C   0  0  0  0  0  0  0  0  0  0  0  0
   12.2539   30.5902   -3.7751 C   0  0  0  0  0  0  0  0  0  0  0  0
   13.5154   31.0094   -4.1690 C   0  0  0  0  0  0  0  0  0  0  0  0
   14.4710   30.0254   -4.3537 C   0  0  0  0  0  0  0  0  0  0  0  0
   14.1543   28.7114   -4.1511 C   0  0  0  0  0  0  0  0  0  0  0  0
    9.6441   22.4725    4.0906 C   0  0  0  0  0  0  0  0  0  0  0  0
    9.7568   23.2671    2.9904 C   0  0  0  0  0  0  0  0  0  0  0  0
   10.3521   22.7325    1.8278 C   0  0  0  0  0  0  0  0  0  0  0  0
   10.7857   21.4353    1.8779 C   0  0  0  0  0  0  0  0  0  0  0  0
   10.6539   20.6581    3.0271 C   0  0  0  0  0  0  0  0  0  0  0  0
   10.0779   21.1647    4.1568 C   0  0  0  0  0  0  0  0  0  0  0  0
    7.6732   22.9883    5.4243 C   0  0  0  0  0  0  0  0  0  0  0  0
    9.0520   23.0150    5.2207 O   0  0  0  0  0  0  0  0  0  0  0  0
   11.1170   19.3403    3.0400 O   0  0  0  0  0  0  0  0  0  0  0  0
   12.3894   19.0877    3.6402 C   0  0  0  0  0  0  0  0  0  0  0  0
    9.9186   20.4404    5.3191 O   0  0  0  0  0  0  0  0  0  0  0  0
    8.9261   19.4047    5.3464 C   0  0  0  0  0  0  0  0  0  0  0  0
 31 32  1  0  0  0
 32 25  1  0  0  0
 25 26  2  0  0  0
 26 27  1  0  0  0
 27 28  2  0  0  0
 28 29  1  0  0  0
 29 33  1  0  0  0
 33 34  1  0  0  0
 29 30  2  0  0  0
 30 35  1  0  0  0
 35 36  1  0  0  0
 27  1  1  0  0  0
  1  2  2  0  0  0
  1  3  1  0  0  0
  3  4  1  0  0  0
  4  5  1  0  0  0
  5  6  1  0  0  0
  6  7  1  0  0  0
  7  8  1  0  0  0
  6  9  1  0  0  0
  9 10  2  0  0  0
 10 11  1  0  0  0
 11 12  2  0  0  0
 12 13  1  0  0  0
 13 14  2  0  0  0
 14 15  1  0  0  0
 15 16  2  0  0  0
 16 17  1  0  0  0
 17 18  1  0  0  0
 18 19  1  0  0  0
 19 20  2  0  0  0
 20 21  1  0  0  0
 21 22  2  0  0  0
 22 23  1  0  0  0
 23 24  2  0  0  0
 30 25  1  0  0  0
  8  3  1  0  0  0
 17  9  1  0  0  0
 24 19  1  0  0  0
 16 11  1  0  0  0
M  END
> <minimizedAffinity>
8.68921

> <CNNscore>
0.4357874990

> <CNNaffinity>
7.2139220238

> <CNN_VS>
3.1437370777

> <CNNaffinity_variance>
0.5901272297

$$$$
[H]ON([H])C(=O)c1c([H])nc(N2C([H])([H])C([H])([H])N(S(=O)(=O)c3c([H])c([H])c([H])c([H])c3[H])C([H])([H])C2([H])[H])nc1[H]


 27 29  0  0  0  0  0  0  0  0999 V2000
   13.8158   23.6243   -1.3730 N   0  0  0  0  0  0  0  0  0  0  0  0
   14.4067   24.0125   -0.0933 C   0  0  0  0  0  0  0  0  0  0  0  0
   13.2743   23.9825    0.9150 C   0  0  0  0  0  0  0  0  0  0  0  0
   12.8958   22.6231    1.1405 N   0  0  0  0  0  0  0  0  0  0  0  0
   13.0209   21.8095   -0.0547 C   0  0  0  0  0  0  0  0  0  0  0  0
   12.8006   22.5924   -1.3204 C   0  0  0  0  0  0  0  0  0  0  0  0
   14.9068   25.4663   -4.9234 C   0  0  0  0  0  0  0  0  0  0  0  0
   13.9802   26.0543   -4.0854 C   0  0  0  0  0  0  0  0  0  0  0  0
   13.6717   25.3925   -2.9389 N   0  0  0  0  0  0  0  0  0  0  0  0
   14.2115   24.2202   -2.5878 C   0  0  0  0  0  0  0  0  0  0  0  0
   15.1106   23.6738   -3.4252 N   0  0  0  0  0  0  0  0  0  0  0  0
   15.4714   24.2607   -4.5768 C   0  0  0  0  0  0  0  0  0  0  0  0
   15.9937   25.9597   -8.4998 O   0  0  0  0  0  0  0  0  0  0  0  0
   15.6213   25.3443   -7.3452 N   0  0  0  0  0  0  0  0  0  0  0  0
   15.3076   26.0889   -6.1729 C   0  0  0  0  0  0  0  0  0  0  0  0
   15.3877   27.3435   -6.2432 O   0  0  0  0  0  0  0  0  0  0  0  0
   15.8556   26.9289   -8.4618 H   0  0  0  0  0  0  0  0  0  0  0  0
   15.5779   24.3075   -7.3634 H   0  0  0  0  0  0  0  0  0  0  0  0
   11.3147   22.4379    1.7581 S   0  0  0  0  0  0  0  0  0  0  0  0
   10.7273   23.8265    1.9365 O   0  0  0  0  0  0  0  0  0  0  0  0
   11.4359   21.8586    3.1536 O   0  0  0  0  0  0  0  0  0  0  0  0
   10.2877   21.4764    0.7542 C   0  0  0  0  0  0  0  0  0  0  0  0
   10.6490   20.2026    0.3757 C   0  0  0  0  0  0  0  0  0  0  0  0
    9.8373   19.4161   -0.4298 C   0  0  0  0  0  0  0  0  0  0  0  0
    8.6359   19.8895   -0.8787 C   0  0  0  0  0  0  0  0  0  0  0  0
    8.2528   21.1612   -0.5132 C   0  0  0  0  0  0  0  0  0  0  0  0
    9.0762   21.9495    0.2995 C   0  0  0  0  0  0  0  0  0  0  0  0
 13 14  1  0  0  0
 14 15  1  0  0  0
 15 16  2  0  0  0
 15  7  1  0  0  0
  7  8  2  0  0  0
  8  9  1  0  0  0
  9 10  2  0  0  0
 10 11  1  0  0  0
 11 12  2  0  0  0
 10  1  1  0  0  0
  1  2  1  0  0  0
  2  3  1  0  0  0
  3  4  1  0  0  0
  4  5  1  0  0  0
  5  6  1  0  0  0
  4 19  1  0  0  0
 19 20  2  0  0  0
 19 21  2  0  0  0
 19 22  1  0  0  0
 22 23  2  0  0  0
 23 24  1  0  0  0
 24 25  2  0  0  0
 25 26  1  0  0  0
 26 27  2  0  0  0
 12  7  1  0  0  0
  6  1  1  0  0  0
 27 22  1  0  0  0
 13 17  1  0  0  0
 14 18  1  0  0  0
M  END
> <minimizedAffinity>
-7.71414

> <CNNscore>
0.4038841724

> <CNNaffinity>
6.7188568115

> <CNN_VS>
2.7136399746

> <CNNaffinity_variance>
0.5737351775

$$$$
[H]ON([H])C(=O)c1c([H])nc(N2C([H])([H])C([H])([H])N(S(=O)(=O)c3c([H])c([H])c([H])c([H])c3[H])C([H])([H])C2([H])[H])nc1[H]


 27 29  0  0  0  0  0  0  0  0999 V2000
   13.5576   23.5759   -1.1891 N   0  0  0  0  0  0  0  0  0  0  0  0
   13.7386   24.1502    0.1430 C   0  0  0  0  0  0  0  0  0  0  0  0
   12.5112   23.7514    0.9394 C   0  0  0  0  0  0  0  0  0  0  0  0
   12.5635   22.3456    1.1909 N   0  0  0  0  0  0  0  0  0  0  0  0
   13.1691   21.6108    0.0957 C   0  0  0  0  0  0  0  0  0  0  0  0
   12.9452   22.2641   -1.2409 C   0  0  0  0  0  0  0  0  0  0  0  0
   14.8081   25.5016   -4.6411 C   0  0  0  0  0  0  0  0  0  0  0  0
   15.3882   24.3096   -4.2551 C   0  0  0  0  0  0  0  0  0  0  0  0
   14.9270   23.7361   -3.1122 N   0  0  0  0  0  0  0  0  0  0  0  0
   13.9560   24.2596   -2.3558 C   0  0  0  0  0  0  0  0  0  0  0  0
   13.4115   25.4211   -2.7590 N   0  0  0  0  0  0  0  0  0  0  0  0
   13.8080   26.0533   -3.8743 C   0  0  0  0  0  0  0  0  0  0  0  0
   16.0333   26.2055   -8.1367 O   0  0  0  0  0  0  0  0  0  0  0  0
   15.6478   25.5221   -7.0254 N   0  0  0  0  0  0  0  0  0  0  0  0
   15.2261   26.1978   -5.8454 C   0  0  0  0  0  0  0  0  0  0  0  0
   15.2227   27.4568   -5.8670 O   0  0  0  0  0  0  0  0  0  0  0  0
   15.8269   27.1610   -8.0717 H   0  0  0  0  0  0  0  0  0  0  0  0
   15.6771   24.4862   -7.0825 H   0  0  0  0  0  0  0  0  0  0  0  0
   11.0443   21.6470    1.5366 S   0  0  0  0  0  0  0  0  0  0  0  0
   11.2295   20.1404    1.5670 O   0  0  0  0  0  0  0  0  0  0  0  0
   10.1351   21.9273    0.3564 O   0  0  0  0  0  0  0  0  0  0  0  0
   10.3514   22.1965    3.0215 C   0  0  0  0  0  0  0  0  0  0  0  0
    9.7372   23.4258    3.1108 C   0  0  0  0  0  0  0  0  0  0  0  0
    9.1754   23.8835    4.2945 C   0  0  0  0  0  0  0  0  0  0  0  0
    9.2154   23.1159    5.4250 C   0  0  0  0  0  0  0  0  0  0  0  0
    9.8247   21.8822    5.3603 C   0  0  0  0  0  0  0  0  0  0  0  0
   10.3895   21.4263    4.1632 C   0  0  0  0  0  0  0  0  0  0  0  0
 13 14  1  0  0  0
 14 15  1  0  0  0
 15 16  2  0  0  0
 15  7  1  0  0  0
  7  8  2  0  0  0
  8  9  1  0  0  0
  9 10  2  0  0  0
 10 11  1  0  0  0
 11 12  2  0  0  0
 10  1  1  0  0  0
  1  2  1  0  0  0
  2  3  1  0  0  0
  3  4  1  0  0  0
  4  5  1  0  0  0
  5  6  1  0  0  0
  4 19  1  0  0  0
 19 20  2  0  0  0
 19 21  2  0  0  0
 19 22  1  0  0  0
 22 23  2  0  0  0
 23 24  1  0  0  0
 24 25  2  0  0  0
 25 26  1  0  0  0
 26 27  2  0  0  0
 12  7  1  0  0  0
  6  1  1  0  0  0
 27 22  1  0  0  0
 13 17  1  0  0  0
 14 18  1  0  0  0
M  END
> <minimizedAffinity>
-8.77982

> <CNNscore>
0.3731735945

> <CNNaffinity>
6.4008836746

> <CNN_VS>
2.3886408806

> <CNNaffinity_variance>
0.4537191391

$$$$
[H]ON([H])C(=O)c1c([H])nc(N2C([H])([H])C([H])([H])N(S(=O)(=O)c3c([H])c([H])c([H])c([H])c3[H])C([H])([H])C2([H])[H])nc1[H]


 27 29  0  0  0  0  0  0  0  0999 V2000
   13.4472   23.6587   -1.2330 N   0  0  0  0  0  0  0  0  0  0  0  0
   13.7111   24.1896    0.1033 C   0  0  0  0  0  0  0  0  0  0  0  0
   12.4715   23.8893    0.9237 C   0  0  0  0  0  0  0  0  0  0  0  0
   12.4012   22.4803    1.1511 N   0  0  0  0  0  0  0  0  0  0  0  0
   12.9114   21.7137    0.0293 C   0  0  0  0  0  0  0  0  0  0  0  0
   12.7167   22.4091   -1.2905 C   0  0  0  0  0  0  0  0  0  0  0  0
   14.7906   25.5283   -4.6808 C   0  0  0  0  0  0  0  0  0  0  0  0
   15.3076   24.3058   -4.3005 C   0  0  0  0  0  0  0  0  0  0  0  0
   14.8191   23.7532   -3.1586 N   0  0  0  0  0  0  0  0  0  0  0  0
   13.8789   24.3247   -2.3981 C   0  0  0  0  0  0  0  0  0  0  0  0
   13.3958   25.5148   -2.7958 N   0  0  0  0  0  0  0  0  0  0  0  0
   13.8229   26.1293   -3.9097 C   0  0  0  0  0  0  0  0  0  0  0  0
   16.0303   26.1800   -8.1814 O   0  0  0  0  0  0  0  0  0  0  0  0
   15.6110   25.5139   -7.0719 N   0  0  0  0  0  0  0  0  0  0  0  0
   15.2424   26.2059   -5.8835 C   0  0  0  0  0  0  0  0  0  0  0  0
   15.3187   27.4627   -5.8961 O   0  0  0  0  0  0  0  0  0  0  0  0
   15.8854   27.1462   -8.1078 H   0  0  0  0  0  0  0  0  0  0  0  0
   15.5741   24.4787   -7.1367 H   0  0  0  0  0  0  0  0  0  0  0  0
   10.8331   21.9163    1.5234 S   0  0  0  0  0  0  0  0  0  0  0  0
   10.9308   20.4212    1.7694 O   0  0  0  0  0  0  0  0  0  0  0  0
    9.9844   22.0749    0.2774 O   0  0  0  0  0  0  0  0  0  0  0  0
   10.1199   22.7034    2.8867 C   0  0  0  0  0  0  0  0  0  0  0  0
    9.9585   22.0466    4.0863 C   0  0  0  0  0  0  0  0  0  0  0  0
    9.3880   22.6625    5.1915 C   0  0  0  0  0  0  0  0  0  0  0  0
    8.9627   23.9598    5.1216 C   0  0  0  0  0  0  0  0  0  0  0  0
    9.1137   24.6376    3.9320 C   0  0  0  0  0  0  0  0  0  0  0  0
    9.6899   24.0107    2.8208 C   0  0  0  0  0  0  0  0  0  0  0  0
 13 14  1  0  0  0
 14 15  1  0  0  0
 15 16  2  0  0  0
 15  7  1  0  0  0
  7  8  2  0  0  0
  8  9  1  0  0  0
  9 10  2  0  0  0
 10 11  1  0  0  0
 11 12  2  0  0  0
 10  1  1  0  0  0
  1  2  1  0  0  0
  2  3  1  0  0  0
  3  4  1  0  0  0
  4  5  1  0  0  0
  5  6  1  0  0  0
  4 19  1  0  0  0
 19 20  2  0  0  0
 19 21  2  0  0  0
 19 22  1  0  0  0
 22 23  2  0  0  0
 23 24  1  0  0  0
 24 25  2  0  0  0
 25 26  1  0  0  0
 26 27  2  0  0  0
 12  7  1  0  0  0
  6  1  1  0  0  0
 27 22  1  0  0  0
 13 17  1  0  0  0
 14 18  1  0  0  0
M  END
> <minimizedAffinity>
-8.87573

> <CNNscore>
0.3687820435

> <CNNaffinity>
6.3775968552

> <CNN_VS>
2.3519432545

> <CNNaffinity_variance>
0.5028788447

$$$$
[H]ON([H])C(=O)c1c([H])nc(N2C([H])([H])C([H])([H])N(S(=O)(=O)c3c([H])c([H])c([H])c([H])c3[H])C([H])([H])C2([H])[H])nc1[H]


 27 29  0  0  0  0  0  0  0  0999 V2000
   13.3763   22.8804   -1.2974 N   0  0  0  0  0  0  0  0  0  0  0  0
   14.1292   22.6783   -0.0607 C   0  0  0  0  0  0  0  0  0  0  0  0
   13.1067   22.2979    0.9926 C   0  0  0  0  0  0  0  0  0  0  0  0
   12.6150   20.9876    0.7036 N   0  0  0  0  0  0  0  0  0  0  0  0
   12.5354   20.7297   -0.7223 C   0  0  0  0  0  0  0  0  0  0  0  0
   12.2708   21.9729   -1.5272 C   0  0  0  0  0  0  0  0  0  0  0  0
   14.4324   25.8080   -4.0364 C   0  0  0  0  0  0  0  0  0  0  0  0
   15.0866   24.5921   -4.0240 C   0  0  0  0  0  0  0  0  0  0  0  0
   14.6863   23.6811   -3.0979 N   0  0  0  0  0  0  0  0  0  0  0  0
   13.7073   23.8998   -2.2133 C   0  0  0  0  0  0  0  0  0  0  0  0
   13.0900   25.0937   -2.2513 N   0  0  0  0  0  0  0  0  0  0  0  0
   13.4231   26.0487   -3.1332 C   0  0  0  0  0  0  0  0  0  0  0  0
   16.0378   28.8337   -5.6124 O   0  0  0  0  0  0  0  0  0  0  0  0
   15.7343   27.8705   -4.7009 N   0  0  0  0  0  0  0  0  0  0  0  0
   14.7812   26.8515   -4.9846 C   0  0  0  0  0  0  0  0  0  0  0  0
   14.2264   26.8737   -6.1147 O   0  0  0  0  0  0  0  0  0  0  0  0
   15.6613   28.6371   -6.4954 H   0  0  0  0  0  0  0  0  0  0  0  0
   16.2320   27.9171   -3.7914 H   0  0  0  0  0  0  0  0  0  0  0  0
   11.0932   20.6497    1.4004 S   0  0  0  0  0  0  0  0  0  0  0  0
   11.3379   19.8597    2.6736 O   0  0  0  0  0  0  0  0  0  0  0  0
   10.3628   19.7076    0.4640 O   0  0  0  0  0  0  0  0  0  0  0  0
   10.1589   22.0631    1.7414 C   0  0  0  0  0  0  0  0  0  0  0  0
    9.3353   22.6212    0.7894 C   0  0  0  0  0  0  0  0  0  0  0  0
    8.5778   23.7557    1.0453 C   0  0  0  0  0  0  0  0  0  0  0  0
    8.6272   24.3627    2.2692 C   0  0  0  0  0  0  0  0  0  0  0  0
    9.4441   23.8226    3.2379 C   0  0  0  0  0  0  0  0  0  0  0  0
   10.2056   22.6781    2.9735 C   0  0  0  0  0  0  0  0  0  0  0  0
 13 14  1  0  0  0
 14 15  1  0  0  0
 15 16  2  0  0  0
 15  7  1  0  0  0
  7  8  2  0  0  0
  8  9  1  0  0  0
  9 10  2  0  0  0
 10 11  1  0  0  0
 11 12  2  0  0  0
 10  1  1  0  0  0
  1  2  1  0  0  0
  2  3  1  0  0  0
  3  4  1  0  0  0
  4  5  1  0  0  0
  5  6  1  0  0  0
  4 19  1  0  0  0
 19 20  2  0  0  0
 19 21  2  0  0  0
 19 22  1  0  0  0
 22 23  2  0  0  0
 23 24  1  0  0  0
 24 25  2  0  0  0
 25 26  1  0  0  0
 26 27  2  0  0  0
 12  7  1  0  0  0
  6  1  1  0  0  0
 27 22  1  0  0  0
 13 17  1  0  0  0
 14 18  1  0  0  0
M  END
> <minimizedAffinity>
-8.77132

> <CNNscore>
0.3574270904

> <CNNaffinity>
6.4885635376

> <CNN_VS>
2.3191883564

> <CNNaffinity_variance>
0.3816649020

$$$$
[H]ON([H])C(=O)c1c([H])nc(N2C([H])([H])C([H])([H])N(S(=O)(=O)c3c([H])c([H])c([H])c([H])c3[H])C([H])([H])C2([H])[H])nc1[H]


 27 29  0  0  0  0  0  0  0  0999 V2000
   12.9741   24.4041   -1.1518 N   0  0  0  0  0  0  0  0  0  0  0  0
   12.4355   25.2566   -0.0934 C   0  0  0  0  0  0  0  0  0  0  0  0
   11.2127   24.5359    0.4407 C   0  0  0  0  0  0  0  0  0  0  0  0
   11.6397   23.3749    1.1561 N   0  0  0  0  0  0  0  0  0  0  0  0
   12.8224   22.7700    0.5716 C   0  0  0  0  0  0  0  0  0  0  0  0
   12.9098   22.9763   -0.9161 C   0  0  0  0  0  0  0  0  0  0  0  0
   14.6683   25.8933   -4.6304 C   0  0  0  0  0  0  0  0  0  0  0  0
   15.1463   24.7295   -4.0614 C   0  0  0  0  0  0  0  0  0  0  0  0
   14.5416   24.3018   -2.9215 N   0  0  0  0  0  0  0  0  0  0  0  0
   13.5244   24.9409   -2.3336 C   0  0  0  0  0  0  0  0  0  0  0  0
   13.0821   26.0712   -2.9124 N   0  0  0  0  0  0  0  0  0  0  0  0
   13.6225   26.5626   -4.0382 C   0  0  0  0  0  0  0  0  0  0  0  0
   16.0830   26.1820   -8.1133 O   0  0  0  0  0  0  0  0  0  0  0  0
   15.5453   25.6394   -6.9877 N   0  0  0  0  0  0  0  0  0  0  0  0
   15.2425   26.4378   -5.8484 C   0  0  0  0  0  0  0  0  0  0  0  0
   15.4914   27.6700   -5.9201 O   0  0  0  0  0  0  0  0  0  0  0  0
   16.0706   27.1614   -8.0924 H   0  0  0  0  0  0  0  0  0  0  0  0
   15.3680   24.6169   -7.0028 H   0  0  0  0  0  0  0  0  0  0  0  0
   10.4361   22.1732    1.3074 S   0  0  0  0  0  0  0  0  0  0  0  0
   10.3751   21.4180   -0.0083 O   0  0  0  0  0  0  0  0  0  0  0  0
    9.1015   22.8797    1.4400 O   0  0  0  0  0  0  0  0  0  0  0  0
   10.7120   21.0781    2.6157 C   0  0  0  0  0  0  0  0  0  0  0  0
   11.6907   20.1120    2.5435 C   0  0  0  0  0  0  0  0  0  0  0  0
   11.9265   19.2241    3.5839 C   0  0  0  0  0  0  0  0  0  0  0  0
   11.1828   19.2829    4.7295 C   0  0  0  0  0  0  0  0  0  0  0  0
   10.1979   20.2410    4.8250 C   0  0  0  0  0  0  0  0  0  0  0  0
    9.9649   21.1336    3.7720 C   0  0  0  0  0  0  0  0  0  0  0  0
 13 14  1  0  0  0
 14 15  1  0  0  0
 15 16  2  0  0  0
 15  7  1  0  0  0
  7  8  2  0  0  0
  8  9  1  0  0  0
  9 10  2  0  0  0
 10 11  1  0  0  0
 11 12  2  0  0  0
 10  1  1  0  0  0
  1  2  1  0  0  0
  2  3  1  0  0  0
  3  4  1  0  0  0
  4  5  1  0  0  0
  5  6  1  0  0  0
  4 19  1  0  0  0
 19 20  2  0  0  0
 19 21  2  0  0  0
 19 22  1  0  0  0
 22 23  2  0  0  0
 23 24  1  0  0  0
 24 25  2  0  0  0
 25 26  1  0  0  0
 26 27  2  0  0  0
 12  7  1  0  0  0
  6  1  1  0  0  0
 27 22  1  0  0  0
 13 17  1  0  0  0
 14 18  1  0  0  0
M  END
> <minimizedAffinity>
-8.88534

> <CNNscore>
0.3467503786

> <CNNaffinity>
6.2300300598

> <CNN_VS>
2.1602652073

> <CNNaffinity_variance>
0.2588211894

$$$$
[H]ON([H])C(=O)c1c([H])nc(N2C([H])([H])C([H])([H])N(S(=O)(=O)c3c([H])c([H])c([H])c([H])c3[H])C([H])([H])C2([H])[H])nc1[H]


 27 29  0  0  0  0  0  0  0  0999 V2000
   12.2402   23.0605   -1.0576 N   0  0  0  0  0  0  0  0  0  0  0  0
   12.5986   21.6436   -1.0904 C   0  0  0  0  0  0  0  0  0  0  0  0
   12.5425   21.1659    0.3479 C   0  0  0  0  0  0  0  0  0  0  0  0
   11.1774   21.1374    0.7696 N   0  0  0  0  0  0  0  0  0  0  0  0
   10.3929   22.2029    0.1733 C   0  0  0  0  0  0  0  0  0  0  0  0
   11.2055   23.4355   -0.1157 C   0  0  0  0  0  0  0  0  0  0  0  0
   14.1609   25.7633   -3.5464 C   0  0  0  0  0  0  0  0  0  0  0  0
   14.6517   24.4819   -3.3930 C   0  0  0  0  0  0  0  0  0  0  0  0
   13.9696   23.6512   -2.5608 N   0  0  0  0  0  0  0  0  0  0  0  0
   12.8657   24.0069   -1.8946 C   0  0  0  0  0  0  0  0  0  0  0  0
   12.4133   25.2616   -2.0654 N   0  0  0  0  0  0  0  0  0  0  0  0
   13.0265   26.1449   -2.8683 C   0  0  0  0  0  0  0  0  0  0  0  0
   16.6077   28.2952   -4.8948 O   0  0  0  0  0  0  0  0  0  0  0  0
   16.0231   27.3938   -4.0604 N   0  0  0  0  0  0  0  0  0  0  0  0
   14.8131   26.7307   -4.4115 C   0  0  0  0  0  0  0  0  0  0  0  0
   14.3008   27.0097   -5.5274 O   0  0  0  0  0  0  0  0  0  0  0  0
   16.1983   28.2928   -5.7849 H   0  0  0  0  0  0  0  0  0  0  0  0
   16.5034   27.2154   -3.1578 H   0  0  0  0  0  0  0  0  0  0  0  0
   10.9746   21.1993    2.4639 S   0  0  0  0  0  0  0  0  0  0  0  0
   12.2373   21.8011    3.0544 O   0  0  0  0  0  0  0  0  0  0  0  0
   10.9230   19.7709    2.9688 O   0  0  0  0  0  0  0  0  0  0  0  0
    9.5889   22.1037    2.9626 C   0  0  0  0  0  0  0  0  0  0  0  0
    8.3216   21.5709    2.8813 C   0  0  0  0  0  0  0  0  0  0  0  0
    7.1975   22.2823    3.2770 C   0  0  0  0  0  0  0  0  0  0  0  0
    7.3162   23.5529    3.7671 C   0  0  0  0  0  0  0  0  0  0  0  0
    8.5738   24.1073    3.8579 C   0  0  0  0  0  0  0  0  0  0  0  0
    9.7038   23.3846    3.4571 C   0  0  0  0  0  0  0  0  0  0  0  0
 13 14  1  0  0  0
 14 15  1  0  0  0
 15 16  2  0  0  0
 15  7  1  0  0  0
  7  8  2  0  0  0
  8  9  1  0  0  0
  9 10  2  0  0  0
 10 11  1  0  0  0
 11 12  2  0  0  0
 10  1  1  0  0  0
  1  2  1  0  0  0
  2  3  1  0  0  0
  3  4  1  0  0  0
  4  5  1  0  0  0
  5  6  1  0  0  0
  4 19  1  0  0  0
 19 20  2  0  0  0
 19 21  2  0  0  0
 19 22  1  0  0  0
 22 23  2  0  0  0
 23 24  1  0  0  0
 24 25  2  0  0  0
 25 26  1  0  0  0
 26 27  2  0  0  0
 12  7  1  0  0  0
  6  1  1  0  0  0
 27 22  1  0  0  0
 13 17  1  0  0  0
 14 18  1  0  0  0
M  END
> <minimizedAffinity>
-7.94977

> <CNNscore>
0.3461819291

> <CNNaffinity>
6.3330316544

> <CNN_VS>
2.1923811436

> <CNNaffinity_variance>
0.5939381719

$$$$
[H]ON([H])C(=O)c1c([H])nc(N2C([H])([H])C([H])([H])N(S(=O)(=O)c3c([H])c([H])c([H])c([H])c3[H])C([H])([H])C2([H])[H])nc1[H]


 27 29  0  0  0  0  0  0  0  0999 V2000
   12.5710   23.5287   -0.2360 N   0  0  0  0  0  0  0  0  0  0  0  0
   12.6598   23.0513   -1.6149 C   0  0  0  0  0  0  0  0  0  0  0  0
   13.6049   24.0013   -2.3250 C   0  0  0  0  0  0  0  0  0  0  0  0
   14.9285   23.7878   -1.8303 N   0  0  0  0  0  0  0  0  0  0  0  0
   14.9416   23.4347   -0.4227 C   0  0  0  0  0  0  0  0  0  0  0  0
   13.7966   24.0404    0.3425 C   0  0  0  0  0  0  0  0  0  0  0  0
    9.0780   23.4090    1.9940 C   0  0  0  0  0  0  0  0  0  0  0  0
   10.3069   23.2810    2.6104 C   0  0  0  0  0  0  0  0  0  0  0  0
   11.4084   23.3299    1.8154 N   0  0  0  0  0  0  0  0  0  0  0  0
   11.3623   23.4930    0.4887 C   0  0  0  0  0  0  0  0  0  0  0  0
   10.1505   23.6146   -0.0812 N   0  0  0  0  0  0  0  0  0  0  0  0
    9.0133   23.5775    0.6303 C   0  0  0  0  0  0  0  0  0  0  0  0
    6.0235   22.1581    3.8163 O   0  0  0  0  0  0  0  0  0  0  0  0
    7.1843   22.1578    3.1070 N   0  0  0  0  0  0  0  0  0  0  0  0
    7.8385   23.3709    2.7502 C   0  0  0  0  0  0  0  0  0  0  0  0
    7.3017   24.4495    3.1163 O   0  0  0  0  0  0  0  0  0  0  0  0
    5.8094   23.0455    4.1721 H   0  0  0  0  0  0  0  0  0  0  0  0
    7.5667   21.2305    2.8405 H   0  0  0  0  0  0  0  0  0  0  0  0
   15.9779   25.1140   -2.0654 S   0  0  0  0  0  0  0  0  0  0  0  0
   17.3960   24.6216   -1.8380 O   0  0  0  0  0  0  0  0  0  0  0  0
   15.7051   26.1124   -0.9578 O   0  0  0  0  0  0  0  0  0  0  0  0
   15.8378   25.8391   -3.6279 C   0  0  0  0  0  0  0  0  0  0  0  0
   16.1310   27.1699   -3.8261 C   0  0  0  0  0  0  0  0  0  0  0  0
   16.0243   27.7692   -5.0735 C   0  0  0  0  0  0  0  0  0  0  0  0
   15.6187   27.0451   -6.1598 C   0  0  0  0  0  0  0  0  0  0  0  0
   15.3198   25.7117   -5.9862 C   0  0  0  0  0  0  0  0  0  0  0  0
   15.4294   25.1132   -4.7254 C   0  0  0  0  0  0  0  0  0  0  0  0
 13 14  1  0  0  0
 14 15  1  0  0  0
 15 16  2  0  0  0
 15  7  1  0  0  0
  7  8  2  0  0  0
  8  9  1  0  0  0
  9 10  2  0  0  0
 10 11  1  0  0  0
 11 12  2  0  0  0
 10  1  1  0  0  0
  1  2  1  0  0  0
  2  3  1  0  0  0
  3  4  1  0  0  0
  4  5  1  0  0  0
  5  6  1  0  0  0
  4 19  1  0  0  0
 19 20  2  0  0  0
 19 21  2  0  0  0
 19 22  1  0  0  0
 22 23  2  0  0  0
 23 24  1  0  0  0
 24 25  2  0  0  0
 25 26  1  0  0  0
 26 27  2  0  0  0
 12  7  1  0  0  0
  6  1  1  0  0  0
 27 22  1  0  0  0
 13 17  1  0  0  0
 14 18  1  0  0  0
M  END
> <minimizedAffinity>
-6.89979

> <CNNscore>
0.3395006061

> <CNNaffinity>
6.2278046608

> <CNN_VS>
2.1143434048

> <CNNaffinity_variance>
0.1359041929

$$$$
[H]ON([H])C(=O)c1c([H])nc(N2C([H])([H])C([H])([H])N(S(=O)(=O)c3c([H])c([H])c([H])c([H])c3[H])C([H])([H])C2([H])[H])nc1[H]


 27 29  0  0  0  0  0  0  0  0999 V2000
   13.7125   22.8059   -1.3108 N   0  0  0  0  0  0  0  0  0  0  0  0
   14.1706   23.0323    0.0589 C   0  0  0  0  0  0  0  0  0  0  0  0
   12.9943   22.6923    0.9536 C   0  0  0  0  0  0  0  0  0  0  0  0
   12.7846   21.2791    0.9196 N   0  0  0  0  0  0  0  0  0  0  0  0
   13.0858   20.7073   -0.3798 C   0  0  0  0  0  0  0  0  0  0  0  0
   12.8400   21.6672   -1.5119 C   0  0  0  0  0  0  0  0  0  0  0  0
   14.7738   25.3636   -4.3962 C   0  0  0  0  0  0  0  0  0  0  0  0
   13.8616   25.7617   -3.4392 C   0  0  0  0  0  0  0  0  0  0  0  0
   13.5622   24.8700   -2.4578 N   0  0  0  0  0  0  0  0  0  0  0  0
   14.0979   23.6474   -2.3742 C   0  0  0  0  0  0  0  0  0  0  0  0
   14.9829   23.2900   -3.3213 N   0  0  0  0  0  0  0  0  0  0  0  0
   15.3341   24.1093   -4.3244 C   0  0  0  0  0  0  0  0  0  0  0  0
   16.0202   26.6022   -7.7321 O   0  0  0  0  0  0  0  0  0  0  0  0
   15.6634   25.7542   -6.7300 N   0  0  0  0  0  0  0  0  0  0  0  0
   15.1641   26.2387   -5.4878 C   0  0  0  0  0  0  0  0  0  0  0  0
   15.0641   27.4862   -5.3490 O   0  0  0  0  0  0  0  0  0  0  0  0
   15.7392   27.5235   -7.5527 H   0  0  0  0  0  0  0  0  0  0  0  0
   15.7738   24.7394   -6.9176 H   0  0  0  0  0  0  0  0  0  0  0  0
   11.2077   20.8021    1.3683 S   0  0  0  0  0  0  0  0  0  0  0  0
   11.3260   19.9474    2.6176 O   0  0  0  0  0  0  0  0  0  0  0  0
   10.6856   19.8793    0.2849 O   0  0  0  0  0  0  0  0  0  0  0  0
   10.1364   22.1290    1.6483 C   0  0  0  0  0  0  0  0  0  0  0  0
    9.2789   22.5736    0.6668 C   0  0  0  0  0  0  0  0  0  0  0  0
    8.4118   23.6374    0.8736 C   0  0  0  0  0  0  0  0  0  0  0  0
    8.3823   24.2860    2.0766 C   0  0  0  0  0  0  0  0  0  0  0  0
    9.2311   23.8593    3.0741 C   0  0  0  0  0  0  0  0  0  0  0  0
   10.1033   22.7856    2.8592 C   0  0  0  0  0  0  0  0  0  0  0  0
 13 14  1  0  0  0
 14 15  1  0  0  0
 15 16  2  0  0  0
 15  7  1  0  0  0
  7  8  2  0  0  0
  8  9  1  0  0  0
  9 10  2  0  0  0
 10 11  1  0  0  0
 11 12  2  0  0  0
 10  1  1  0  0  0
  1  2  1  0  0  0
  2  3  1  0  0  0
  3  4  1  0  0  0
  4  5  1  0  0  0
  5  6  1  0  0  0
  4 19  1  0  0  0
 19 20  2  0  0  0
 19 21  2  0  0  0
 19 22  1  0  0  0
 22 23  2  0  0  0
 23 24  1  0  0  0
 24 25  2  0  0  0
 25 26  1  0  0  0
 26 27  2  0  0  0
 12  7  1  0  0  0
  6  1  1  0  0  0
 27 22  1  0  0  0
 13 17  1  0  0  0
 14 18  1  0  0  0
M  END
> <minimizedAffinity>
-8.78494

> <CNNscore>
0.3222351372

> <CNNaffinity>
6.4971380234

> <CNN_VS>
2.0936062336

> <CNNaffinity_variance>
0.2609956563

$$$$
[H]ON([H])C(=O)c1c([H])nc(N2C([H])([H])C([H])([H])N(S(=O)(=O)c3c([H])c([H])c([H])c([H])c3[H])C([H])([H])C2([H])[H])nc1[H]


 27 29  0  0  0  0  0  0  0  0999 V2000
   12.5683   24.0803   -1.2932 N   0  0  0  0  0  0  0  0  0  0  0  0
   11.4011   24.6579   -0.6290 C   0  0  0  0  0  0  0  0  0  0  0  0
   10.4800   23.4941   -0.3178 C   0  0  0  0  0  0  0  0  0  0  0  0
   11.0721   22.7028    0.7144 N   0  0  0  0  0  0  0  0  0  0  0  0
   12.5200   22.6684    0.6219 C   0  0  0  0  0  0  0  0  0  0  0  0
   13.0186   22.7981   -0.7916 C   0  0  0  0  0  0  0  0  0  0  0  0
   14.5529   25.9110   -4.4393 C   0  0  0  0  0  0  0  0  0  0  0  0
   14.9610   24.6751   -3.9785 C   0  0  0  0  0  0  0  0  0  0  0  0
   14.2627   24.1365   -2.9440 N   0  0  0  0  0  0  0  0  0  0  0  0
   13.2179   24.7337   -2.3602 C   0  0  0  0  0  0  0  0  0  0  0  0
   12.8454   25.9364   -2.8321 N   0  0  0  0  0  0  0  0  0  0  0  0
   13.4800   26.5385   -3.8498 C   0  0  0  0  0  0  0  0  0  0  0  0
   16.1960   26.5693   -7.7684 O   0  0  0  0  0  0  0  0  0  0  0  0
   15.5618   25.9167   -6.7572 N   0  0  0  0  0  0  0  0  0  0  0  0
   15.2292   26.5755   -5.5397 C   0  0  0  0  0  0  0  0  0  0  0  0
   15.5446   27.7897   -5.4315 O   0  0  0  0  0  0  0  0  0  0  0  0
   16.2322   27.5366   -7.6170 H   0  0  0  0  0  0  0  0  0  0  0  0
   15.3339   24.9172   -6.9191 H   0  0  0  0  0  0  0  0  0  0  0  0
   10.4953   21.0967    0.7726 S   0  0  0  0  0  0  0  0  0  0  0  0
   10.4926   20.6637    2.2278 O   0  0  0  0  0  0  0  0  0  0  0  0
   11.5211   20.2192    0.0829 O   0  0  0  0  0  0  0  0  0  0  0  0
    8.9217   20.9010    0.0854 C   0  0  0  0  0  0  0  0  0  0  0  0
    7.8081   21.4456    0.6852 C   0  0  0  0  0  0  0  0  0  0  0  0
    6.5368   21.2988    0.1479 C   0  0  0  0  0  0  0  0  0  0  0  0
    6.3489   20.5982   -1.0109 C   0  0  0  0  0  0  0  0  0  0  0  0
    7.4479   20.0441   -1.6293 C   0  0  0  0  0  0  0  0  0  0  0  0
    8.7276   20.1958   -1.0822 C   0  0  0  0  0  0  0  0  0  0  0  0
 13 14  1  0  0  0
 14 15  1  0  0  0
 15 16  2  0  0  0
 15  7  1  0  0  0
  7  8  2  0  0  0
  8  9  1  0  0  0
  9 10  2  0  0  0
 10 11  1  0  0  0
 11 12  2  0  0  0
 10  1  1  0  0  0
  1  2  1  0  0  0
  2  3  1  0  0  0
  3  4  1  0  0  0
  4  5  1  0  0  0
  5  6  1  0  0  0
  4 19  1  0  0  0
 19 20  2  0  0  0
 19 21  2  0  0  0
 19 22  1  0  0  0
 22 23  2  0  0  0
 23 24  1  0  0  0
 24 25  2  0  0  0
 25 26  1  0  0  0
 26 27  2  0  0  0
 12  7  1  0  0  0
  6  1  1  0  0  0
 27 22  1  0  0  0
 13 17  1  0  0  0
 14 18  1  0  0  0
M  END
> <minimizedAffinity>
-8.73171

> <CNNscore>
0.3126124740

> <CNNaffinity>
6.2648901939

> <CNN_VS>
1.9584828615

> <CNNaffinity_variance>
0.3556264639

$$$$
[H]OC([H])([H])C([H])([H])Oc1nc([H])c(-c2c(C([H])([H])[H])nc([H])c(N([H])C(=O)c3c([H])c([H])c([H])c(C(F)(F)F)c3[H])c2[H])c([H])c1N1C([H])([H])C([H])([H])OC([H])([H])C1([H])[H]


 38 41  0  0  0  0  0  0  0  0999 V2000
   16.6439   25.3631   -2.7928 C   0  0  0  0  0  0  0  0  0  0  0  0
   15.3373   25.9509   -3.1583 C   0  0  0  0  0  0  0  0  0  0  0  0
   15.2793   26.9007   -4.0960 N   0  0  0  0  0  0  0  0  0  0  0  0
   14.1451   27.4792   -4.4974 C   0  0  0  0  0  0  0  0  0  0  0  0
   12.9155   27.1101   -3.9384 C   0  0  0  0  0  0  0  0  0  0  0  0
   12.9819   26.1406   -2.9805 C   0  0  0  0  0  0  0  0  0  0  0  0
   14.1577   25.5427   -2.5682 C   0  0  0  0  0  0  0  0  0  0  0  0
   14.1584   24.5216   -1.5304 C   0  0  0  0  0  0  0  0  0  0  0  0
   15.3020   24.1847   -0.8433 C   0  0  0  0  0  0  0  0  0  0  0  0
   15.2181   23.2381    0.1047 N   0  0  0  0  0  0  0  0  0  0  0  0
   14.0892   22.5933    0.4335 C   0  0  0  0  0  0  0  0  0  0  0  0
   12.8931   22.9020   -0.2425 C   0  0  0  0  0  0  0  0  0  0  0  0
   12.9697   23.8631   -1.2069 C   0  0  0  0  0  0  0  0  0  0  0  0
   11.7048   22.2154    0.0943 N   0  0  0  0  0  0  0  0  0  0  0  0
   11.0566   21.2851   -0.7995 C   0  0  0  0  0  0  0  0  0  0  0  0
   10.4834   20.1527    0.0152 C   0  0  0  0  0  0  0  0  0  0  0  0
   11.2429   20.0742    1.2105 O   0  0  0  0  0  0  0  0  0  0  0  0
   10.6955   21.0703    2.0333 C   0  0  0  0  0  0  0  0  0  0  0  0
   11.0699   22.4187    1.4024 C   0  0  0  0  0  0  0  0  0  0  0  0
   13.9662   21.6249    1.3941 O   0  0  0  0  0  0  0  0  0  0  0  0
   14.4009   20.3141    1.2452 C   0  0  0  0  0  0  0  0  0  0  0  0
   15.0978   20.0226   -0.0717 C   0  0  0  0  0  0  0  0  0  0  0  0
   14.1174   19.9393   -1.0918 O   0  0  0  0  0  0  0  0  0  0  0  0
   14.4596   19.3480   -1.8234 H   0  0  0  0  0  0  0  0  0  0  0  0
   11.7586   27.7593   -4.4105 N   0  0  0  0  0  0  0  0  0  0  0  0
   11.4079   29.1009   -4.2047 C   0  0  0  0  0  0  0  0  0  0  0  0
   12.0523   29.9650   -3.5704 O   0  0  0  0  0  0  0  0  0  0  0  0
   11.0695   27.1889   -4.9898 H   0  0  0  0  0  0  0  0  0  0  0  0
   10.1410   29.5887   -4.7865 C   0  0  0  0  0  0  0  0  0  0  0  0
   10.0161   30.9377   -5.0024 C   0  0  0  0  0  0  0  0  0  0  0  0
    8.8630   31.5001   -5.5324 C   0  0  0  0  0  0  0  0  0  0  0  0
    7.8527   30.6342   -5.8254 C   0  0  0  0  0  0  0  0  0  0  0  0
    7.9011   29.2692   -5.6359 C   0  0  0  0  0  0  0  0  0  0  0  0
    9.0885   28.7739   -5.1038 C   0  0  0  0  0  0  0  0  0  0  0  0
    6.7533   28.4025   -5.9735 C   0  0  0  0  0  0  0  0  0  0  0  0
    7.2118   27.1504   -6.3735 F   0  0  0  0  0  0  0  0  0  0  0  0
    5.9495   28.2768   -4.8414 F   0  0  0  0  0  0  0  0  0  0  0  0
    5.9967   28.9400   -6.9942 F   0  0  0  0  0  0  0  0  0  0  0  0
  1  2  1  0  0  0
  2  3  2  0  0  0
  3  4  1  0  0  0
  4  5  2  0  0  0
  5 25  1  0  0  0
 25 26  1  0  0  0
 26 27  2  0  0  0
 26 29  1  0  0  0
 29 30  2  0  0  0
 30 31  1  0  0  0
 31 32  2  0  0  0
 32 33  1  0  0  0
 33 34  2  0  0  0
 33 35  1  0  0  0
 35 36  1  0  0  0
 35 37  1  0  0  0
 35 38  1  0  0  0
  5  6  1  0  0  0
  6  7  2  0  0  0
  7  8  1  0  0  0
  8  9  2  0  0  0
  9 10  1  0  0  0
 10 11  2  0  0  0
 11 20  1  0  0  0
 20 21  1  0  0  0
 21 22  1  0  0  0
 22 23  1  0  0  0
 11 12  1  0  0  0
 12 13  2  0  0  0
 12 14  1  0  0  0
 14 15  1  0  0  0
 15 16  1  0  0  0
 16 17  1  0  0  0
 17 18  1  0  0  0
 18 19  1  0  0  0
  7  2  1  0  0  0
 13  8  1  0  0  0
 19 14  1  0  0  0
 34 29  1  0  0  0
 25 28  1  0  0  0
 23 24  1  0  0  0
M  END
> <minimizedAffinity>
8.10923

> <CNNscore>
0.5567651391

> <CNNaffinity>
7.3196930885

> <CNN_VS>
4.0753498077

> <CNNaffinity_variance>
0.7104568481

$$$$
[H]OC([H])([H])C([H])([H])Oc1nc([H])c(-c2c(C([H])([H])[H])nc([H])c(N([H])C(=O)c3c([H])c([H])c([H])c(C(F)(F)F)c3[H])c2[H])c([H])c1N1C([H])([H])C([H])([H])OC([H])([H])C1([H])[H]


 38 41  0  0  0  0  0  0  0  0999 V2000
   14.0154   21.4327   -0.8990 C   0  0  0  0  0  0  0  0  0  0  0  0
   13.4532   22.7531   -1.2552 C   0  0  0  0  0  0  0  0  0  0  0  0
   14.0241   23.4746   -2.2238 N   0  0  0  0  0  0  0  0  0  0  0  0
   13.5795   24.6696   -2.6194 C   0  0  0  0  0  0  0  0  0  0  0  0
   12.4548   25.2501   -2.0204 C   0  0  0  0  0  0  0  0  0  0  0  0
   11.8774   24.5087   -1.0311 C   0  0  0  0  0  0  0  0  0  0  0  0
   12.3394   23.2711   -0.6248 C   0  0  0  0  0  0  0  0  0  0  0  0
   11.6819   22.5380    0.4476 C   0  0  0  0  0  0  0  0  0  0  0  0
   11.8958   21.1933    0.6458 C   0  0  0  0  0  0  0  0  0  0  0  0
   11.2576   20.5914    1.6617 N   0  0  0  0  0  0  0  0  0  0  0  0
   10.4207   21.2130    2.5051 C   0  0  0  0  0  0  0  0  0  0  0  0
   10.1684   22.5888    2.3421 C   0  0  0  0  0  0  0  0  0  0  0  0
   10.8134   23.2080    1.3124 C   0  0  0  0  0  0  0  0  0  0  0  0
    9.2777   23.2434    3.2225 N   0  0  0  0  0  0  0  0  0  0  0  0
    9.5019   23.3257    4.6464 C   0  0  0  0  0  0  0  0  0  0  0  0
    9.0262   24.6717    5.1329 C   0  0  0  0  0  0  0  0  0  0  0  0
    9.0859   25.5584    4.0275 O   0  0  0  0  0  0  0  0  0  0  0  0
    7.9093   25.2950    3.3099 C   0  0  0  0  0  0  0  0  0  0  0  0
    8.0626   23.8897    2.7116 C   0  0  0  0  0  0  0  0  0  0  0  0
    9.7543   20.6325    3.5513 O   0  0  0  0  0  0  0  0  0  0  0  0
    8.4126   20.2740    3.5232 C   0  0  0  0  0  0  0  0  0  0  0  0
    7.7228   20.5020    2.1901 C   0  0  0  0  0  0  0  0  0  0  0  0
    6.4921   19.7992    2.1933 O   0  0  0  0  0  0  0  0  0  0  0  0
    6.2465   19.5703    1.2503 H   0  0  0  0  0  0  0  0  0  0  0  0
   12.0393   26.5114   -2.4887 N   0  0  0  0  0  0  0  0  0  0  0  0
   12.6618   27.2839   -3.4792 C   0  0  0  0  0  0  0  0  0  0  0  0
   13.6924   26.9989   -4.1279 O   0  0  0  0  0  0  0  0  0  0  0  0
   11.1605   26.9361   -2.0608 H   0  0  0  0  0  0  0  0  0  0  0  0
   12.0638   28.5893   -3.8252 C   0  0  0  0  0  0  0  0  0  0  0  0
   12.8294   29.7117   -3.6358 C   0  0  0  0  0  0  0  0  0  0  0  0
   12.3582   30.9868   -3.9169 C   0  0  0  0  0  0  0  0  0  0  0  0
   11.0833   31.0646   -4.3912 C   0  0  0  0  0  0  0  0  0  0  0  0
   10.2523   29.9855   -4.6062 C   0  0  0  0  0  0  0  0  0  0  0  0
   10.7911   28.7374   -4.3056 C   0  0  0  0  0  0  0  0  0  0  0  0
    8.8767   30.1608   -5.1158 C   0  0  0  0  0  0  0  0  0  0  0  0
    8.5323   29.0783   -5.9204 F   0  0  0  0  0  0  0  0  0  0  0  0
    8.0109   30.2395   -4.0260 F   0  0  0  0  0  0  0  0  0  0  0  0
    8.7563   31.3167   -5.8592 F   0  0  0  0  0  0  0  0  0  0  0  0
  1  2  1  0  0  0
  2  3  2  0  0  0
  3  4  1  0  0  0
  4  5  2  0  0  0
  5 25  1  0  0  0
 25 26  1  0  0  0
 26 27  2  0  0  0
 26 29  1  0  0  0
 29 30  2  0  0  0
 30 31  1  0  0  0
 31 32  2  0  0  0
 32 33  1  0  0  0
 33 34  2  0  0  0
 33 35  1  0  0  0
 35 36  1  0  0  0
 35 37  1  0  0  0
 35 38  1  0  0  0
  5  6  1  0  0  0
  6  7  2  0  0  0
  7  8  1  0  0  0
  8  9  2  0  0  0
  9 10  1  0  0  0
 10 11  2  0  0  0
 11 20  1  0  0  0
 20 21  1  0  0  0
 21 22  1  0  0  0
 22 23  1  0  0  0
 11 12  1  0  0  0
 12 13  2  0  0  0
 12 14  1  0  0  0
 14 15  1  0  0  0
 15 16  1  0  0  0
 16 17  1  0  0  0
 17 18  1  0  0  0
 18 19  1  0  0  0
  7  2  1  0  0  0
 13  8  1  0  0  0
 19 14  1  0  0  0
 34 29  1  0  0  0
 25 28  1  0  0  0
 23 24  1  0  0  0
M  END
> <minimizedAffinity>
7.87716

> <CNNscore>
0.4644362330

> <CNNaffinity>
6.8809700012

> <CNN_VS>
3.1957716942

> <CNNaffinity_variance>
1.5021810532

$$$$
[H]OC([H])([H])C([H])([H])Oc1nc([H])c(-c2c(C([H])([H])[H])nc([H])c(N([H])C(=O)c3c([H])c([H])c([H])c(C(F)(F)F)c3[H])c2[H])c([H])c1N1C([H])([H])C([H])([H])OC([H])([H])C1([H])[H]


 38 41  0  0  0  0  0  0  0  0999 V2000
    9.3896   19.9519   -1.4642 C   0  0  0  0  0  0  0  0  0  0  0  0
   10.7024   20.5852   -1.2160 C   0  0  0  0  0  0  0  0  0  0  0  0
   11.6500   20.5316   -2.1562 N   0  0  0  0  0  0  0  0  0  0  0  0
   12.8585   21.0836   -2.0244 C   0  0  0  0  0  0  0  0  0  0  0  0
   13.2092   21.7698   -0.8553 C   0  0  0  0  0  0  0  0  0  0  0  0
   12.2375   21.8197    0.1013 C   0  0  0  0  0  0  0  0  0  0  0  0
   10.9869   21.2483   -0.0389 C   0  0  0  0  0  0  0  0  0  0  0  0
    9.9998   21.3284    1.0283 C   0  0  0  0  0  0  0  0  0  0  0  0
    9.2889   20.2263    1.4445 C   0  0  0  0  0  0  0  0  0  0  0  0
    8.4021   20.3810    2.4402 N   0  0  0  0  0  0  0  0  0  0  0  0
    8.1590   21.5428    3.0642 C   0  0  0  0  0  0  0  0  0  0  0  0
    8.8604   22.6994    2.6729 C   0  0  0  0  0  0  0  0  0  0  0  0
    9.7637   22.5505    1.6622 C   0  0  0  0  0  0  0  0  0  0  0  0
    8.5973   23.9271    3.3213 N   0  0  0  0  0  0  0  0  0  0  0  0
    7.8829   25.0106    2.6885 C   0  0  0  0  0  0  0  0  0  0  0  0
    7.0228   25.6912    3.7237 C   0  0  0  0  0  0  0  0  0  0  0  0
    6.7578   24.7356    4.7378 O   0  0  0  0  0  0  0  0  0  0  0  0
    7.9081   24.7565    5.5409 C   0  0  0  0  0  0  0  0  0  0  0  0
    9.0432   24.1534    4.7016 C   0  0  0  0  0  0  0  0  0  0  0  0
    7.2642   21.7374    4.0827 O   0  0  0  0  0  0  0  0  0  0  0  0
    7.0361   20.8298    5.1092 C   0  0  0  0  0  0  0  0  0  0  0  0
    5.7220   20.0761    5.0093 C   0  0  0  0  0  0  0  0  0  0  0  0
    5.1593   20.3185    3.7313 O   0  0  0  0  0  0  0  0  0  0  0  0
    4.1648   20.2211    3.7908 H   0  0  0  0  0  0  0  0  0  0  0  0
   14.4994   22.3295   -0.7850 N   0  0  0  0  0  0  0  0  0  0  0  0
   14.8336   23.6841   -0.9215 C   0  0  0  0  0  0  0  0  0  0  0  0
   14.0548   24.6408   -1.1276 O   0  0  0  0  0  0  0  0  0  0  0  0
   15.3181   21.6711   -0.6054 H   0  0  0  0  0  0  0  0  0  0  0  0
   16.2563   24.0664   -0.8165 C   0  0  0  0  0  0  0  0  0  0  0  0
   16.9005   24.4481   -1.9660 C   0  0  0  0  0  0  0  0  0  0  0  0
   18.2395   24.8138   -1.9790 C   0  0  0  0  0  0  0  0  0  0  0  0
   18.8857   24.7692   -0.7803 C   0  0  0  0  0  0  0  0  0  0  0  0
   18.3094   24.3954    0.4153 C   0  0  0  0  0  0  0  0  0  0  0  0
   16.9635   24.0444    0.3547 C   0  0  0  0  0  0  0  0  0  0  0  0
   19.0876   24.3665    1.6708 C   0  0  0  0  0  0  0  0  0  0  0  0
   19.2113   25.6575    2.1766 F   0  0  0  0  0  0  0  0  0  0  0  0
   18.4152   23.5580    2.5861 F   0  0  0  0  0  0  0  0  0  0  0  0
   20.3511   23.8500    1.4709 F   0  0  0  0  0  0  0  0  0  0  0  0
  1  2  1  0  0  0
  2  3  2  0  0  0
  3  4  1  0  0  0
  4  5  2  0  0  0
  5 25  1  0  0  0
 25 26  1  0  0  0
 26 27  2  0  0  0
 26 29  1  0  0  0
 29 30  2  0  0  0
 30 31  1  0  0  0
 31 32  2  0  0  0
 32 33  1  0  0  0
 33 34  2  0  0  0
 33 35  1  0  0  0
 35 36  1  0  0  0
 35 37  1  0  0  0
 35 38  1  0  0  0
  5  6  1  0  0  0
  6  7  2  0  0  0
  7  8  1  0  0  0
  8  9  2  0  0  0
  9 10  1  0  0  0
 10 11  2  0  0  0
 11 20  1  0  0  0
 20 21  1  0  0  0
 21 22  1  0  0  0
 22 23  1  0  0  0
 11 12  1  0  0  0
 12 13  2  0  0  0
 12 14  1  0  0  0
 14 15  1  0  0  0
 15 16  1  0  0  0
 16 17  1  0  0  0
 17 18  1  0  0  0
 18 19  1  0  0  0
  7  2  1  0  0  0
 13  8  1  0  0  0
 19 14  1  0  0  0
 34 29  1  0  0  0
 25 28  1  0  0  0
 23 24  1  0  0  0
M  END
> <minimizedAffinity>
9.38065

> <CNNscore>
0.4259942770

> <CNNaffinity>
6.7599821091

> <CNN_VS>
2.8797137737

> <CNNaffinity_variance>
1.2849227190

$$$$
[H]OC([H])([H])C([H])([H])Oc1nc([H])c(-c2c(C([H])([H])[H])nc([H])c(N([H])C(=O)c3c([H])c([H])c([H])c(C(F)(F)F)c3[H])c2[H])c([H])c1N1C([H])([H])C([H])([H])OC([H])([H])C1([H])[H]


 38 41  0  0  0  0  0  0  0  0999 V2000
   15.4526   22.1488   -2.5470 C   0  0  0  0  0  0  0  0  0  0  0  0
   14.6724   23.3773   -2.8087 C   0  0  0  0  0  0  0  0  0  0  0  0
   15.0558   24.2086   -3.7817 N   0  0  0  0  0  0  0  0  0  0  0  0
   14.4076   25.3327   -4.0957 C   0  0  0  0  0  0  0  0  0  0  0  0
   13.2542   25.7134   -3.3991 C   0  0  0  0  0  0  0  0  0  0  0  0
   12.8689   24.8608   -2.4059 C   0  0  0  0  0  0  0  0  0  0  0  0
   13.5415   23.6971   -2.0842 C   0  0  0  0  0  0  0  0  0  0  0  0
   13.0821   22.8376   -1.0024 C   0  0  0  0  0  0  0  0  0  0  0  0
   13.9294   21.9670   -0.3564 C   0  0  0  0  0  0  0  0  0  0  0  0
   13.4305   21.2139    0.6364 N   0  0  0  0  0  0  0  0  0  0  0  0
   12.1548   21.2513    1.0478 C   0  0  0  0  0  0  0  0  0  0  0  0
   11.2487   22.1252    0.4166 C   0  0  0  0  0  0  0  0  0  0  0  0
   11.7478   22.8943   -0.5929 C   0  0  0  0  0  0  0  0  0  0  0  0
    9.9011   22.1577    0.8408 N   0  0  0  0  0  0  0  0  0  0  0  0
    8.8631   21.3732    0.2150 C   0  0  0  0  0  0  0  0  0  0  0  0
    7.9008   20.9090    1.2796 C   0  0  0  0  0  0  0  0  0  0  0  0
    8.6165   20.8818    2.5039 O   0  0  0  0  0  0  0  0  0  0  0  0
    8.6051   22.2154    2.9399 C   0  0  0  0  0  0  0  0  0  0  0  0
    9.4932   23.0050    1.9682 C   0  0  0  0  0  0  0  0  0  0  0  0
   11.6119   20.5000    2.0560 O   0  0  0  0  0  0  0  0  0  0  0  0
   11.8977   20.6746    3.4041 C   0  0  0  0  0  0  0  0  0  0  0  0
   11.4748   19.5218    4.2968 C   0  0  0  0  0  0  0  0  0  0  0  0
   11.8036   18.3052    3.6482 O   0  0  0  0  0  0  0  0  0  0  0  0
   11.1820   17.5887    3.9678 H   0  0  0  0  0  0  0  0  0  0  0  0
   12.6195   26.9097   -3.7847 N   0  0  0  0  0  0  0  0  0  0  0  0
   12.4936   28.0763   -3.0174 C   0  0  0  0  0  0  0  0  0  0  0  0
   12.9194   28.2715   -1.8577 O   0  0  0  0  0  0  0  0  0  0  0  0
   12.1888   26.9528   -4.7586 H   0  0  0  0  0  0  0  0  0  0  0  0
   11.7840   29.2284   -3.6096 C   0  0  0  0  0  0  0  0  0  0  0  0
   12.4018   30.4522   -3.5594 C   0  0  0  0  0  0  0  0  0  0  0  0
   11.8160   31.6001   -4.0748 C   0  0  0  0  0  0  0  0  0  0  0  0
   10.5832   31.4458   -4.6341 C   0  0  0  0  0  0  0  0  0  0  0  0
    9.8978   30.2524   -4.7206 C   0  0  0  0  0  0  0  0  0  0  0  0
   10.5461   29.1422   -4.1863 C   0  0  0  0  0  0  0  0  0  0  0  0
    8.5573   30.1758   -5.3369 C   0  0  0  0  0  0  0  0  0  0  0  0
    7.5831   30.1641   -4.3426 F   0  0  0  0  0  0  0  0  0  0  0  0
    8.3870   31.2892   -6.1584 F   0  0  0  0  0  0  0  0  0  0  0  0
    8.4172   29.0369   -6.1027 F   0  0  0  0  0  0  0  0  0  0  0  0
  1  2  1  0  0  0
  2  3  2  0  0  0
  3  4  1  0  0  0
  4  5  2  0  0  0
  5 25  1  0  0  0
 25 26  1  0  0  0
 26 27  2  0  0  0
 26 29  1  0  0  0
 29 30  2  0  0  0
 30 31  1  0  0  0
 31 32  2  0  0  0
 32 33  1  0  0  0
 33 34  2  0  0  0
 33 35  1  0  0  0
 35 36  1  0  0  0
 35 37  1  0  0  0
 35 38  1  0  0  0
  5  6  1  0  0  0
  6  7  2  0  0  0
  7  8  1  0  0  0
  8  9  2  0  0  0
  9 10  1  0  0  0
 10 11  2  0  0  0
 11 20  1  0  0  0
 20 21  1  0  0  0
 21 22  1  0  0  0
 22 23  1  0  0  0
 11 12  1  0  0  0
 12 13  2  0  0  0
 12 14  1  0  0  0
 14 15  1  0  0  0
 15 16  1  0  0  0
 16 17  1  0  0  0
 17 18  1  0  0  0
 18 19  1  0  0  0
  7  2  1  0  0  0
 13  8  1  0  0  0
 19 14  1  0  0  0
 34 29  1  0  0  0
 25 28  1  0  0  0
 23 24  1  0  0  0
M  END
> <minimizedAffinity>
11.98856

> <CNNscore>
0.4168224037

> <CNNaffinity>
6.7001008987

> <CNN_VS>
2.7927522659

> <CNNaffinity_variance>
0.9181917310

$$$$
[H]OC([H])([H])C([H])([H])Oc1nc([H])c(-c2c(C([H])([H])[H])nc([H])c(N([H])C(=O)c3c([H])c([H])c([H])c(C(F)(F)F)c3[H])c2[H])c([H])c1N1C([H])([H])C([H])([H])OC([H])([H])C1([H])[H]


 38 41  0  0  0  0  0  0  0  0999 V2000
   13.7017   19.6544   -0.0848 C   0  0  0  0  0  0  0  0  0  0  0  0
   13.6505   21.0274   -0.6312 C   0  0  0  0  0  0  0  0  0  0  0  0
   14.4975   21.3846   -1.6007 N   0  0  0  0  0  0  0  0  0  0  0  0
   14.5162   22.5963   -2.1608 C   0  0  0  0  0  0  0  0  0  0  0  0
   13.6206   23.5904   -1.7481 C   0  0  0  0  0  0  0  0  0  0  0  0
   12.7593   23.2196   -0.7569 C   0  0  0  0  0  0  0  0  0  0  0  0
   12.7417   21.9637   -0.1801 C   0  0  0  0  0  0  0  0  0  0  0  0
   11.8027   21.6381    0.8839 C   0  0  0  0  0  0  0  0  0  0  0  0
   11.6958   20.3647    1.3940 C   0  0  0  0  0  0  0  0  0  0  0  0
   10.8112   20.1473    2.3799 N   0  0  0  0  0  0  0  0  0  0  0  0
   10.0188   21.0913    2.9083 C   0  0  0  0  0  0  0  0  0  0  0  0
   10.0903   22.4095    2.4186 C   0  0  0  0  0  0  0  0  0  0  0  0
   10.9871   22.6390    1.4171 C   0  0  0  0  0  0  0  0  0  0  0  0
    9.2479   23.4033    2.9660 N   0  0  0  0  0  0  0  0  0  0  0  0
    9.4380   23.9509    4.2883 C   0  0  0  0  0  0  0  0  0  0  0  0
    9.0919   25.4185    4.2574 C   0  0  0  0  0  0  0  0  0  0  0  0
    9.2762   25.8613    2.9226 O   0  0  0  0  0  0  0  0  0  0  0  0
    8.0999   25.4719    2.2643 C   0  0  0  0  0  0  0  0  0  0  0  0
    8.1225   23.9388    2.1901 C   0  0  0  0  0  0  0  0  0  0  0  0
    9.1073   20.9065    3.9137 O   0  0  0  0  0  0  0  0  0  0  0  0
    9.4346   20.5157    5.2058 C   0  0  0  0  0  0  0  0  0  0  0  0
    9.7631   19.0414    5.3586 C   0  0  0  0  0  0  0  0  0  0  0  0
   11.1118   18.8377    4.9737 O   0  0  0  0  0  0  0  0  0  0  0  0
   11.2188   17.8960    4.6517 H   0  0  0  0  0  0  0  0  0  0  0  0
   13.6942   24.8448   -2.3836 N   0  0  0  0  0  0  0  0  0  0  0  0
   14.7365   25.3124   -3.1962 C   0  0  0  0  0  0  0  0  0  0  0  0
   15.7858   24.7073   -3.5076 O   0  0  0  0  0  0  0  0  0  0  0  0
   12.8805   25.5197   -2.2479 H   0  0  0  0  0  0  0  0  0  0  0  0
   14.6206   26.6688   -3.7691 C   0  0  0  0  0  0  0  0  0  0  0  0
   15.6162   27.0918   -4.6128 C   0  0  0  0  0  0  0  0  0  0  0  0
   15.6096   28.3524   -5.1939 C   0  0  0  0  0  0  0  0  0  0  0  0
   14.5553   29.1546   -4.8759 C   0  0  0  0  0  0  0  0  0  0  0  0
   13.5193   28.8033   -4.0365 C   0  0  0  0  0  0  0  0  0  0  0  0
   13.5890   27.5239   -3.4918 C   0  0  0  0  0  0  0  0  0  0  0  0
   12.4169   29.7405   -3.7378 C   0  0  0  0  0  0  0  0  0  0  0  0
   11.2040   29.1777   -4.1251 F   0  0  0  0  0  0  0  0  0  0  0  0
   12.4109   29.9892   -2.3661 F   0  0  0  0  0  0  0  0  0  0  0  0
   12.5776   30.9385   -4.4027 F   0  0  0  0  0  0  0  0  0  0  0  0
  1  2  1  0  0  0
  2  3  2  0  0  0
  3  4  1  0  0  0
  4  5  2  0  0  0
  5 25  1  0  0  0
 25 26  1  0  0  0
 26 27  2  0  0  0
 26 29  1  0  0  0
 29 30  2  0  0  0
 30 31  1  0  0  0
 31 32  2  0  0  0
 32 33  1  0  0  0
 33 34  2  0  0  0
 33 35  1  0  0  0
 35 36  1  0  0  0
 35 37  1  0  0  0
 35 38  1  0  0  0
  5  6  1  0  0  0
  6  7  2  0  0  0
  7  8  1  0  0  0
  8  9  2  0  0  0
  9 10  1  0  0  0
 10 11  2  0  0  0
 11 20  1  0  0  0
 20 21  1  0  0  0
 21 22  1  0  0  0
 22 23  1  0  0  0
 11 12  1  0  0  0
 12 13  2  0  0  0
 12 14  1  0  0  0
 14 15  1  0  0  0
 15 16  1  0  0  0
 16 17  1  0  0  0
 17 18  1  0  0  0
 18 19  1  0  0  0
  7  2  1  0  0  0
 13  8  1  0  0  0
 19 14  1  0  0  0
 34 29  1  0  0  0
 25 28  1  0  0  0
 23 24  1  0  0  0
M  END
> <minimizedAffinity>
4.36754

> <CNNscore>
0.4036824107

> <CNNaffinity>
6.8394761086

> <CNN_VS>
2.7609763145

> <CNNaffinity_variance>
0.4752830863

$$$$
[H]OC([H])([H])C([H])([H])Oc1nc([H])c(-c2c(C([H])([H])[H])nc([H])c(N([H])C(=O)c3c([H])c([H])c([H])c(C(F)(F)F)c3[H])c2[H])c([H])c1N1C([H])([H])C([H])([H])OC([H])([H])C1([H])[H]


 38 41  0  0  0  0  0  0  0  0999 V2000
   16.7588   22.6664   -0.8550 C   0  0  0  0  0  0  0  0  0  0  0  0
   15.4218   22.9790   -0.3062 C   0  0  0  0  0  0  0  0  0  0  0  0
   15.1065   22.5838    0.9304 N   0  0  0  0  0  0  0  0  0  0  0  0
   13.9300   22.8306    1.5111 C   0  0  0  0  0  0  0  0  0  0  0  0
   12.9306   23.5390    0.8329 C   0  0  0  0  0  0  0  0  0  0  0  0
   13.2586   23.9384   -0.4300 C   0  0  0  0  0  0  0  0  0  0  0  0
   14.4781   23.6825   -1.0277 C   0  0  0  0  0  0  0  0  0  0  0  0
   14.7581   24.1276   -2.3854 C   0  0  0  0  0  0  0  0  0  0  0  0
   14.4746   23.3435   -3.4800 C   0  0  0  0  0  0  0  0  0  0  0  0
   14.7557   23.8291   -4.6994 N   0  0  0  0  0  0  0  0  0  0  0  0
   15.2962   25.0347   -4.9285 C   0  0  0  0  0  0  0  0  0  0  0  0
   15.6057   25.8732   -3.8404 C   0  0  0  0  0  0  0  0  0  0  0  0
   15.3227   25.3875   -2.5979 C   0  0  0  0  0  0  0  0  0  0  0  0
   16.1862   27.1393   -4.0789 N   0  0  0  0  0  0  0  0  0  0  0  0
   15.4781   28.3793   -3.8654 C   0  0  0  0  0  0  0  0  0  0  0  0
   16.4483   29.4037   -3.3325 C   0  0  0  0  0  0  0  0  0  0  0  0
   17.4954   28.6918   -2.6933 O   0  0  0  0  0  0  0  0  0  0  0  0
   18.3382   28.2998   -3.7444 C   0  0  0  0  0  0  0  0  0  0  0  0
   17.5699   27.2484   -4.5573 C   0  0  0  0  0  0  0  0  0  0  0  0
   15.5950   25.5625   -6.1564 O   0  0  0  0  0  0  0  0  0  0  0  0
   15.0945   25.0804   -7.3592 C   0  0  0  0  0  0  0  0  0  0  0  0
   15.6123   25.7958   -8.5941 C   0  0  0  0  0  0  0  0  0  0  0  0
   16.9260   25.3371   -8.8633 O   0  0  0  0  0  0  0  0  0  0  0  0
   17.4263   26.0537   -9.3513 H   0  0  0  0  0  0  0  0  0  0  0  0
   11.7149   23.7658    1.5062 N   0  0  0  0  0  0  0  0  0  0  0  0
   10.4473   23.3040    1.1250 C   0  0  0  0  0  0  0  0  0  0  0  0
   10.1620   22.6087    0.1253 O   0  0  0  0  0  0  0  0  0  0  0  0
   11.7426   24.3418    2.4025 H   0  0  0  0  0  0  0  0  0  0  0  0
    9.2912   23.6570    1.9736 C   0  0  0  0  0  0  0  0  0  0  0  0
    8.3032   22.7179    2.1282 C   0  0  0  0  0  0  0  0  0  0  0  0
    7.1694   22.9536    2.8935 C   0  0  0  0  0  0  0  0  0  0  0  0
    7.0879   24.1787    3.4843 C   0  0  0  0  0  0  0  0  0  0  0  0
    8.0361   25.1738    3.3753 C   0  0  0  0  0  0  0  0  0  0  0  0
    9.1479   24.8676    2.5952 C   0  0  0  0  0  0  0  0  0  0  0  0
    7.8636   26.4801    4.0437 C   0  0  0  0  0  0  0  0  0  0  0  0
    6.6166   27.0101    3.7243 F   0  0  0  0  0  0  0  0  0  0  0  0
    7.9606   26.2854    5.4207 F   0  0  0  0  0  0  0  0  0  0  0  0
    8.8355   27.3790    3.6557 F   0  0  0  0  0  0  0  0  0  0  0  0
  1  2  1  0  0  0
  2  3  2  0  0  0
  3  4  1  0  0  0
  4  5  2  0  0  0
  5 25  1  0  0  0
 25 26  1  0  0  0
 26 27  2  0  0  0
 26 29  1  0  0  0
 29 30  2  0  0  0
 30 31  1  0  0  0
 31 32  2  0  0  0
 32 33  1  0  0  0
 33 34  2  0  0  0
 33 35  1  0  0  0
 35 36  1  0  0  0
 35 37  1  0  0  0
 35 38  1  0  0  0
  5  6  1  0  0  0
  6  7  2  0  0  0
  7  8  1  0  0  0
  8  9  2  0  0  0
  9 10  1  0  0  0
 10 11  2  0  0  0
 11 20  1  0  0  0
 20 21  1  0  0  0
 21 22  1  0  0  0
 22 23  1  0  0  0
 11 12  1  0  0  0
 12 13  2  0  0  0
 12 14  1  0  0  0
 14 15  1  0  0  0
 15 16  1  0  0  0
 16 17  1  0  0  0
 17 18  1  0  0  0
 18 19  1  0  0  0
  7  2  1  0  0  0
 13  8  1  0  0  0
 19 14  1  0  0  0
 34 29  1  0  0  0
 25 28  1  0  0  0
 23 24  1  0  0  0
M  END
> <minimizedAffinity>
4.00971

> <CNNscore>
0.3966167569

> <CNNaffinity>
7.0530953407

> <CNN_VS>
2.7973759174

> <CNNaffinity_variance>
0.5480082631

$$$$
[H]OC([H])([H])C([H])([H])Oc1nc([H])c(-c2c(C([H])([H])[H])nc([H])c(N([H])C(=O)c3c([H])c([H])c([H])c(C(F)(F)F)c3[H])c2[H])c([H])c1N1C([H])([H])C([H])([H])OC([H])([H])C1([H])[H]


 38 41  0  0  0  0  0  0  0  0999 V2000
   16.4668   22.2343   -1.2546 C   0  0  0  0  0  0  0  0  0  0  0  0
   15.1106   22.4626   -0.7117 C   0  0  0  0  0  0  0  0  0  0  0  0
   14.7747   21.9367    0.4696 N   0  0  0  0  0  0  0  0  0  0  0  0
   13.5795   22.0995    1.0417 C   0  0  0  0  0  0  0  0  0  0  0  0
   12.5811   22.8539    0.4135 C   0  0  0  0  0  0  0  0  0  0  0  0
   12.9301   23.3870   -0.7931 C   0  0  0  0  0  0  0  0  0  0  0  0
   14.1689   23.2177   -1.3819 C   0  0  0  0  0  0  0  0  0  0  0  0
   14.4712   23.8050   -2.6795 C   0  0  0  0  0  0  0  0  0  0  0  0
   14.1334   23.1784   -3.8570 C   0  0  0  0  0  0  0  0  0  0  0  0
   14.4400   23.7891   -5.0123 N   0  0  0  0  0  0  0  0  0  0  0  0
   15.0558   24.9770   -5.1011 C   0  0  0  0  0  0  0  0  0  0  0  0
   15.4230   25.6566   -3.9237 C   0  0  0  0  0  0  0  0  0  0  0  0
   15.1145   25.0431   -2.7455 C   0  0  0  0  0  0  0  0  0  0  0  0
   16.0825   26.9031   -4.0151 N   0  0  0  0  0  0  0  0  0  0  0  0
   15.4380   28.1560   -3.7000 C   0  0  0  0  0  0  0  0  0  0  0  0
   16.4439   29.0628   -3.0364 C   0  0  0  0  0  0  0  0  0  0  0  0
   17.4246   28.2299   -2.4395 O   0  0  0  0  0  0  0  0  0  0  0  0
   18.2825   27.8939   -3.4977 C   0  0  0  0  0  0  0  0  0  0  0  0
   17.4870   26.9759   -4.4363 C   0  0  0  0  0  0  0  0  0  0  0  0
   15.3827   25.6294   -6.2601 O   0  0  0  0  0  0  0  0  0  0  0  0
   15.2136   25.0984   -7.5324 C   0  0  0  0  0  0  0  0  0  0  0  0
   16.1083   25.7064   -8.5977 C   0  0  0  0  0  0  0  0  0  0  0  0
   17.3998   25.1344   -8.4819 O   0  0  0  0  0  0  0  0  0  0  0  0
   18.0752   25.7838   -8.8341 H   0  0  0  0  0  0  0  0  0  0  0  0
   11.3449   22.9865    1.0747 N   0  0  0  0  0  0  0  0  0  0  0  0
   10.8435   24.1423    1.6896 C   0  0  0  0  0  0  0  0  0  0  0  0
   11.3947   25.2625    1.7635 O   0  0  0  0  0  0  0  0  0  0  0  0
   10.7098   22.1318    1.1179 H   0  0  0  0  0  0  0  0  0  0  0  0
    9.5169   24.0704    2.3349 C   0  0  0  0  0  0  0  0  0  0  0  0
    9.1042   25.1549    3.0667 C   0  0  0  0  0  0  0  0  0  0  0  0
    7.8816   25.1845    3.7232 C   0  0  0  0  0  0  0  0  0  0  0  0
    7.1090   24.0685    3.6039 C   0  0  0  0  0  0  0  0  0  0  0  0
    7.4539   22.9406    2.8897 C   0  0  0  0  0  0  0  0  0  0  0  0
    8.6921   22.9816    2.2546 C   0  0  0  0  0  0  0  0  0  0  0  0
    6.5579   21.7680    2.8199 C   0  0  0  0  0  0  0  0  0  0  0  0
    7.3082   20.5981    2.8997 F   0  0  0  0  0  0  0  0  0  0  0  0
    5.6632   21.8344    3.8870 F   0  0  0  0  0  0  0  0  0  0  0  0
    5.8395   21.7497    1.6424 F   0  0  0  0  0  0  0  0  0  0  0  0
  1  2  1  0  0  0
  2  3  2  0  0  0
  3  4  1  0  0  0
  4  5  2  0  0  0
  5 25  1  0  0  0
 25 26  1  0  0  0
 26 27  2  0  0  0
 26 29  1  0  0  0
 29 30  2  0  0  0
 30 31  1  0  0  0
 31 32  2  0  0  0
 32 33  1  0  0  0
 33 34  2  0  0  0
 33 35  1  0  0  0
 35 36  1  0  0  0
 35 37  1  0  0  0
 35 38  1  0  0  0
  5  6  1  0  0  0
  6  7  2  0  0  0
  7  8  1  0  0  0
  8  9  2  0  0  0
  9 10  1  0  0  0
 10 11  2  0  0  0
 11 20  1  0  0  0
 20 21  1  0  0  0
 21 22  1  0  0  0
 22 23  1  0  0  0
 11 12  1  0  0  0
 12 13  2  0  0  0
 12 14  1  0  0  0
 14 15  1  0  0  0
 15 16  1  0  0  0
 16 17  1  0  0  0
 17 18  1  0  0  0
 18 19  1  0  0  0
  7  2  1  0  0  0
 13  8  1  0  0  0
 19 14  1  0  0  0
 34 29  1  0  0  0
 25 28  1  0  0  0
 23 24  1  0  0  0
M  END
> <minimizedAffinity>
7.12447

> <CNNscore>
0.3827945888

> <CNNaffinity>
6.9794807434

> <CNN_VS>
2.6717073917

> <CNNaffinity_variance>
0.8723554611

$$$$
[H]OC([H])([H])C([H])([H])Oc1nc([H])c(-c2c(C([H])([H])[H])nc([H])c(N([H])C(=O)c3c([H])c([H])c([H])c(C(F)(F)F)c3[H])c2[H])c([H])c1N1C([H])([H])C([H])([H])OC([H])([H])C1([H])[H]


 38 41  0  0  0  0  0  0  0  0999 V2000
   15.3465   21.3590   -3.4140 C   0  0  0  0  0  0  0  0  0  0  0  0
   14.4410   21.5368   -2.2587 C   0  0  0  0  0  0  0  0  0  0  0  0
   14.1205   20.4833   -1.5023 N   0  0  0  0  0  0  0  0  0  0  0  0
   13.3208   20.5514   -0.4354 C   0  0  0  0  0  0  0  0  0  0  0  0
   12.7562   21.7700   -0.0396 C   0  0  0  0  0  0  0  0  0  0  0  0
   13.0865   22.8416   -0.8171 C   0  0  0  0  0  0  0  0  0  0  0  0
   13.9158   22.7680   -1.9203 C   0  0  0  0  0  0  0  0  0  0  0  0
   14.2173   23.9504   -2.7145 C   0  0  0  0  0  0  0  0  0  0  0  0
   15.3502   24.0345   -3.4909 C   0  0  0  0  0  0  0  0  0  0  0  0
   15.5525   25.1559   -4.2002 N   0  0  0  0  0  0  0  0  0  0  0  0
   14.7213   26.2082   -4.2071 C   0  0  0  0  0  0  0  0  0  0  0  0
   13.5494   26.1704   -3.4272 C   0  0  0  0  0  0  0  0  0  0  0  0
   13.3361   25.0341   -2.7039 C   0  0  0  0  0  0  0  0  0  0  0  0
   12.6780   27.2828   -3.4239 N   0  0  0  0  0  0  0  0  0  0  0  0
   12.9154   28.4623   -2.6257 C   0  0  0  0  0  0  0  0  0  0  0  0
   12.4680   29.6721   -3.4073 C   0  0  0  0  0  0  0  0  0  0  0  0
   12.5344   29.3274   -4.7815 O   0  0  0  0  0  0  0  0  0  0  0  0
   11.3474   28.6173   -5.0170 C   0  0  0  0  0  0  0  0  0  0  0  0
   11.4705   27.2882   -4.2589 C   0  0  0  0  0  0  0  0  0  0  0  0
   14.8945   27.3660   -4.9179 O   0  0  0  0  0  0  0  0  0  0  0  0
   16.0550   28.1291   -4.9014 C   0  0  0  0  0  0  0  0  0  0  0  0
   16.7945   28.1307   -3.5755 C   0  0  0  0  0  0  0  0  0  0  0  0
   18.1631   27.8573   -3.8222 O   0  0  0  0  0  0  0  0  0  0  0  0
   18.5615   27.4339   -3.0075 H   0  0  0  0  0  0  0  0  0  0  0  0
   11.9244   21.7696    1.0965 N   0  0  0  0  0  0  0  0  0  0  0  0
   11.0523   22.7918    1.4966 C   0  0  0  0  0  0  0  0  0  0  0  0
   10.8505   23.8848    0.9233 O   0  0  0  0  0  0  0  0  0  0  0  0
   11.9429   20.9100    1.7263 H   0  0  0  0  0  0  0  0  0  0  0  0
   10.2643   22.5944    2.7302 C   0  0  0  0  0  0  0  0  0  0  0  0
   10.7365   21.6941    3.6513 C   0  0  0  0  0  0  0  0  0  0  0  0
   10.0659   21.4254    4.8365 C   0  0  0  0  0  0  0  0  0  0  0  0
    8.9026   22.1060    5.0358 C   0  0  0  0  0  0  0  0  0  0  0  0
    8.3628   23.0231    4.1588 C   0  0  0  0  0  0  0  0  0  0  0  0
    9.0896   23.2453    2.9924 C   0  0  0  0  0  0  0  0  0  0  0  0
    7.0882   23.7111    4.4501 C   0  0  0  0  0  0  0  0  0  0  0  0
    6.7480   24.5404    3.3851 F   0  0  0  0  0  0  0  0  0  0  0  0
    6.1003   22.7455    4.6372 F   0  0  0  0  0  0  0  0  0  0  0  0
    7.1774   24.4782    5.5932 F   0  0  0  0  0  0  0  0  0  0  0  0
  1  2  1  0  0  0
  2  3  2  0  0  0
  3  4  1  0  0  0
  4  5  2  0  0  0
  5 25  1  0  0  0
 25 26  1  0  0  0
 26 27  2  0  0  0
 26 29  1  0  0  0
 29 30  2  0  0  0
 30 31  1  0  0  0
 31 32  2  0  0  0
 32 33  1  0  0  0
 33 34  2  0  0  0
 33 35  1  0  0  0
 35 36  1  0  0  0
 35 37  1  0  0  0
 35 38  1  0  0  0
  5  6  1  0  0  0
  6  7  2  0  0  0
  7  8  1  0  0  0
  8  9  2  0  0  0
  9 10  1  0  0  0
 10 11  2  0  0  0
 11 20  1  0  0  0
 20 21  1  0  0  0
 21 22  1  0  0  0
 22 23  1  0  0  0
 11 12  1  0  0  0
 12 13  2  0  0  0
 12 14  1  0  0  0
 14 15  1  0  0  0
 15 16  1  0  0  0
 16 17  1  0  0  0
 17 18  1  0  0  0
 18 19  1  0  0  0
  7  2  1  0  0  0
 13  8  1  0  0  0
 19 14  1  0  0  0
 34 29  1  0  0  0
 25 28  1  0  0  0
 23 24  1  0  0  0
M  END
> <minimizedAffinity>
9.34320

> <CNNscore>
0.3746196330

> <CNNaffinity>
6.8424873352

> <CNN_VS>
2.5633301735

> <CNNaffinity_variance>
0.4582711756

$$$$
[H]OC([H])([H])C([H])([H])Oc1nc([H])c(-c2c(C([H])([H])[H])nc([H])c(N([H])C(=O)c3c([H])c([H])c([H])c(C(F)(F)F)c3[H])c2[H])c([H])c1N1C([H])([H])C([H])([H])OC([H])([H])C1([H])[H]


 38 41  0  0  0  0  0  0  0  0999 V2000
   12.1503   26.9255    1.4302 C   0  0  0  0  0  0  0  0  0  0  0  0
   11.2273   25.7708    1.4017 C   0  0  0  0  0  0  0  0  0  0  0  0
   10.4362   25.5314    2.4513 N   0  0  0  0  0  0  0  0  0  0  0  0
    9.5656   24.5210    2.5094 C   0  0  0  0  0  0  0  0  0  0  0  0
    9.4310   23.6285    1.4389 C   0  0  0  0  0  0  0  0  0  0  0  0
   10.2426   23.8779    0.3707 C   0  0  0  0  0  0  0  0  0  0  0  0
   11.1420   24.9257    0.3133 C   0  0  0  0  0  0  0  0  0  0  0  0
   11.9882   25.1271   -0.8543 C   0  0  0  0  0  0  0  0  0  0  0  0
   11.6633   26.0306   -1.8399 C   0  0  0  0  0  0  0  0  0  0  0  0
   12.5000   26.1633   -2.8811 N   0  0  0  0  0  0  0  0  0  0  0  0
   13.6401   25.4732   -3.0294 C   0  0  0  0  0  0  0  0  0  0  0  0
   14.0149   24.5355   -2.0480 C   0  0  0  0  0  0  0  0  0  0  0  0
   13.1705   24.3950   -0.9864 C   0  0  0  0  0  0  0  0  0  0  0  0
   15.2101   23.7987   -2.2081 N   0  0  0  0  0  0  0  0  0  0  0  0
   15.2706   22.5500   -2.9302 C   0  0  0  0  0  0  0  0  0  0  0  0
   16.5812   22.4853   -3.6737 C   0  0  0  0  0  0  0  0  0  0  0  0
   17.0031   23.8221   -3.8900 O   0  0  0  0  0  0  0  0  0  0  0  0
   17.6001   24.1962   -2.6766 C   0  0  0  0  0  0  0  0  0  0  0  0
   16.4718   24.2894   -1.6399 C   0  0  0  0  0  0  0  0  0  0  0  0
   14.5170   25.5831   -4.0756 O   0  0  0  0  0  0  0  0  0  0  0  0
   15.1837   26.7521   -4.4195 C   0  0  0  0  0  0  0  0  0  0  0  0
   14.5945   27.4927   -5.6067 C   0  0  0  0  0  0  0  0  0  0  0  0
   13.3488   26.9012   -5.9339 O   0  0  0  0  0  0  0  0  0  0  0  0
   13.1637   27.0512   -6.9061 H   0  0  0  0  0  0  0  0  0  0  0  0
    8.4917   22.5873    1.5667 N   0  0  0  0  0  0  0  0  0  0  0  0
    7.7323   22.0132    0.5376 C   0  0  0  0  0  0  0  0  0  0  0  0
    7.7483   22.3146   -0.6762 O   0  0  0  0  0  0  0  0  0  0  0  0
    8.3319   22.1779    2.5376 H   0  0  0  0  0  0  0  0  0  0  0  0
    6.7947   20.9260    0.8847 C   0  0  0  0  0  0  0  0  0  0  0  0
    6.0029   21.0960    1.9919 C   0  0  0  0  0  0  0  0  0  0  0  0
    5.0983   20.1305    2.4118 C   0  0  0  0  0  0  0  0  0  0  0  0
    5.0414   18.9945    1.6618 C   0  0  0  0  0  0  0  0  0  0  0  0
    5.8040   18.7488    0.5395 C   0  0  0  0  0  0  0  0  0  0  0  0
    6.6873   19.7612    0.1746 C   0  0  0  0  0  0  0  0  0  0  0  0
    5.6849   17.4823   -0.2118 C   0  0  0  0  0  0  0  0  0  0  0  0
    5.0629   16.5223    0.5815 F   0  0  0  0  0  0  0  0  0  0  0  0
    4.9255   17.7200   -1.3565 F   0  0  0  0  0  0  0  0  0  0  0  0
    6.9207   17.0029   -0.5940 F   0  0  0  0  0  0  0  0  0  0  0  0
  1  2  1  0  0  0
  2  3  2  0  0  0
  3  4  1  0  0  0
  4  5  2  0  0  0
  5 25  1  0  0  0
 25 26  1  0  0  0
 26 27  2  0  0  0
 26 29  1  0  0  0
 29 30  2  0  0  0
 30 31  1  0  0  0
 31 32  2  0  0  0
 32 33  1  0  0  0
 33 34  2  0  0  0
 33 35  1  0  0  0
 35 36  1  0  0  0
 35 37  1  0  0  0
 35 38  1  0  0  0
  5  6  1  0  0  0
  6  7  2  0  0  0
  7  8  1  0  0  0
  8  9  2  0  0  0
  9 10  1  0  0  0
 10 11  2  0  0  0
 11 20  1  0  0  0
 20 21  1  0  0  0
 21 22  1  0  0  0
 22 23  1  0  0  0
 11 12  1  0  0  0
 12 13  2  0  0  0
 12 14  1  0  0  0
 14 15  1  0  0  0
 15 16  1  0  0  0
 16 17  1  0  0  0
 17 18  1  0  0  0
 18 19  1  0  0  0
  7  2  1  0  0  0
 13  8  1  0  0  0
 19 14  1  0  0  0
 34 29  1  0  0  0
 25 28  1  0  0  0
 23 24  1  0  0  0
M  END
> <minimizedAffinity>
7.57091

> <CNNscore>
0.3742945194

> <CNNaffinity>
6.5823163986

> <CNN_VS>
2.4637248516

> <CNNaffinity_variance>
0.6571477652

$$$$
[H]C1=C2C([H])([H])C([H])([H])[C@@]3([H])[C@]4([H])C([H])([H])C([H])([H])C(=O)[C@@]4(C([H])([H])[H])C([H])([H])C([H])([H])[C@]3([H])[C@@]2(C([H])([H])[H])C([H])([H])C([H])([H])C1=O


 21 24  0  0  0  0  0  0  0  0999 V2000
   15.6438   26.3382   -2.8299 C   0  0  0  0  0  0  0  0  0  0  0  0
   14.4575   25.8663   -3.6303 C   0  0  0  0  0  0  0  0  0  0  0  0
   13.1791   26.3786   -3.0629 C   0  0  0  0  0  0  0  0  0  0  0  0
   12.5072   25.5305   -2.0677 C   0  0  0  0  0  0  0  0  0  0  0  0
   13.0052   24.1709   -1.8089 C   0  0  0  0  0  0  0  0  0  0  0  0
   14.4030   23.8704   -2.3122 C   0  0  0  0  0  0  0  0  0  0  0  0
   14.6671   22.3909   -2.3340 C   0  0  0  0  0  0  0  0  0  0  0  0
   14.2930   21.6661   -1.0901 C   0  0  0  0  0  0  0  0  0  0  0  0
   13.1512   22.2685   -0.3539 C   0  0  0  0  0  0  0  0  0  0  0  0
   12.3819   21.3968    0.3144 C   0  0  0  0  0  0  0  0  0  0  0  0
   11.2347   21.8221    1.0783 C   0  0  0  0  0  0  0  0  0  0  0  0
   10.3634   21.0455    1.4981 O   0  0  0  0  0  0  0  0  0  0  0  0
   11.1042   23.2673    1.3692 C   0  0  0  0  0  0  0  0  0  0  0  0
   11.4779   23.9996    0.0956 C   0  0  0  0  0  0  0  0  0  0  0  0
   12.8800   23.7276   -0.3555 C   0  0  0  0  0  0  0  0  0  0  0  0
   13.8301   24.4784    0.5396 C   0  0  0  0  0  0  0  0  0  0  0  0
   14.3881   24.3575   -3.7324 C   0  0  0  0  0  0  0  0  0  0  0  0
   15.5929   24.0385   -4.5359 C   0  0  0  0  0  0  0  0  0  0  0  0
   15.5921   25.1645   -5.5789 C   0  0  0  0  0  0  0  0  0  0  0  0
   14.6878   26.2059   -5.0442 C   0  0  0  0  0  0  0  0  0  0  0  0
   14.2267   27.1468   -5.6364 O   0  0  0  0  0  0  0  0  0  0  0  0
  2  1  1  0  0  0
  2  3  1  0  0  0
  3  4  1  0  0  0
  4  5  1  0  0  0
  5  6  1  0  0  0
  6  7  1  0  0  0
  7  8  1  0  0  0
  8  9  1  0  0  0
  9 10  2  0  0  0
 10 11  1  0  0  0
 11 12  2  0  0  0
 11 13  1  0  0  0
 13 14  1  0  0  0
 14 15  1  0  0  0
 15 16  1  0  0  0
  6 17  1  0  0  0
 17 18  1  0  0  0
 18 19  1  0  0  0
 19 20  1  0  0  0
 20 21  2  0  0  0
 17  2  1  0  0  0
 20  2  1  0  0  0
 15  5  1  0  0  0
 15  9  1  0  0  0
M  END
> <minimizedAffinity>
-10.61790

> <CNNscore>
0.7964889407

> <CNNaffinity>
7.2847108841

> <CNN_VS>
5.8021917343

> <CNNaffinity_variance>
0.3496946692

$$$$
[H]C1=C2C([H])([H])C([H])([H])[C@@]3([H])[C@]4([H])C([H])([H])C([H])([H])C(=O)[C@@]4(C([H])([H])[H])C([H])([H])C([H])([H])[C@]3([H])[C@@]2(C([H])([H])[H])C([H])([H])C([H])([H])C1=O


 21 24  0  0  0  0  0  0  0  0999 V2000
   14.4542   24.0540   -6.4273 C   0  0  0  0  0  0  0  0  0  0  0  0
   15.3314   25.1724   -5.9269 C   0  0  0  0  0  0  0  0  0  0  0  0
   16.4284   24.6580   -5.0605 C   0  0  0  0  0  0  0  0  0  0  0  0
   16.1562   24.5843   -3.6177 C   0  0  0  0  0  0  0  0  0  0  0  0
   14.9211   25.1705   -3.0752 C   0  0  0  0  0  0  0  0  0  0  0  0
   13.8346   25.4793   -4.0859 C   0  0  0  0  0  0  0  0  0  0  0  0
   12.7942   26.3947   -3.5038 C   0  0  0  0  0  0  0  0  0  0  0  0
   12.2900   26.0015   -2.1607 C   0  0  0  0  0  0  0  0  0  0  0  0
   13.2834   25.2783   -1.3247 C   0  0  0  0  0  0  0  0  0  0  0  0
   13.1706   25.4814   -0.0041 C   0  0  0  0  0  0  0  0  0  0  0  0
   14.0585   24.8521    0.9425 C   0  0  0  0  0  0  0  0  0  0  0  0
   14.1530   25.1982    2.1300 O   0  0  0  0  0  0  0  0  0  0  0  0
   14.8962   23.7334    0.4555 C   0  0  0  0  0  0  0  0  0  0  0  0
   15.4139   24.1440   -0.9089 C   0  0  0  0  0  0  0  0  0  0  0  0
   14.3246   24.3948   -1.9059 C   0  0  0  0  0  0  0  0  0  0  0  0
   13.7585   23.0709   -2.3468 C   0  0  0  0  0  0  0  0  0  0  0  0
   14.5531   26.2281   -5.1711 C   0  0  0  0  0  0  0  0  0  0  0  0
   13.6938   26.8081   -6.2314 C   0  0  0  0  0  0  0  0  0  0  0  0
   14.6527   26.8639   -7.4286 C   0  0  0  0  0  0  0  0  0  0  0  0
   15.7765   25.9656   -7.0846 C   0  0  0  0  0  0  0  0  0  0  0  0
   16.8448   25.8894   -7.6337 O   0  0  0  0  0  0  0  0  0  0  0  0
  2  1  1  0  0  0
  2  3  1  0  0  0
  3  4  1  0  0  0
  4  5  1  0  0  0
  5  6  1  0  0  0
  6  7  1  0  0  0
  7  8  1  0  0  0
  8  9  1  0  0  0
  9 10  2  0  0  0
 10 11  1  0  0  0
 11 12  2  0  0  0
 11 13  1  0  0  0
 13 14  1  0  0  0
 14 15  1  0  0  0
 15 16  1  0  0  0
  6 17  1  0  0  0
 17 18  1  0  0  0
 18 19  1  0  0  0
 19 20  1  0  0  0
 20 21  2  0  0  0
 17  2  1  0  0  0
 20  2  1  0  0  0
 15  5  1  0  0  0
 15  9  1  0  0  0
M  END
> <minimizedAffinity>
4.84419

> <CNNscore>
0.7344067097

> <CNNaffinity>
6.7167787552

> <CNN_VS>
4.9328474998

> <CNNaffinity_variance>
0.6798979044

$$$$
[H]C1=C2C([H])([H])C([H])([H])[C@@]3([H])[C@]4([H])C([H])([H])C([H])([H])C(=O)[C@@]4(C([H])([H])[H])C([H])([H])C([H])([H])[C@]3([H])[C@@]2(C([H])([H])[H])C([H])([H])C([H])([H])C1=O


 21 24  0  0  0  0  0  0  0  0999 V2000
   12.5532   22.4376    1.3979 C   0  0  0  0  0  0  0  0  0  0  0  0
   11.9183   21.8319    0.1729 C   0  0  0  0  0  0  0  0  0  0  0  0
   12.9110   21.0697   -0.6348 C   0  0  0  0  0  0  0  0  0  0  0  0
   13.6149   21.8093   -1.6924 C   0  0  0  0  0  0  0  0  0  0  0  0
   13.1997   23.1801   -2.0273 C   0  0  0  0  0  0  0  0  0  0  0  0
   12.3209   23.8744   -1.0061 C   0  0  0  0  0  0  0  0  0  0  0  0
   11.6606   25.0903   -1.5933 C   0  0  0  0  0  0  0  0  0  0  0  0
   12.5684   25.9999   -2.3424 C   0  0  0  0  0  0  0  0  0  0  0  0
   13.7166   25.3156   -2.9918 C   0  0  0  0  0  0  0  0  0  0  0  0
   14.1413   25.8765   -4.1334 C   0  0  0  0  0  0  0  0  0  0  0  0
   15.2458   25.3329   -4.8851 C   0  0  0  0  0  0  0  0  0  0  0  0
   15.5091   25.6604   -6.0522 O   0  0  0  0  0  0  0  0  0  0  0  0
   16.1030   24.3306   -4.2134 C   0  0  0  0  0  0  0  0  0  0  0  0
   15.1717   23.4018   -3.4597 C   0  0  0  0  0  0  0  0  0  0  0  0
   14.3496   24.1007   -2.4209 C   0  0  0  0  0  0  0  0  0  0  0  0
   15.2315   24.4248   -1.2440 C   0  0  0  0  0  0  0  0  0  0  0  0
   11.2491   22.8663   -0.7069 C   0  0  0  0  0  0  0  0  0  0  0  0
   10.1383   23.3423    0.1523 C   0  0  0  0  0  0  0  0  0  0  0  0
    9.6512   22.0392    0.8007 C   0  0  0  0  0  0  0  0  0  0  0  0
   10.7394   21.0583    0.5964 C   0  0  0  0  0  0  0  0  0  0  0  0
   10.6841   19.8651    0.7439 O   0  0  0  0  0  0  0  0  0  0  0  0
  2  1  1  0  0  0
  2  3  1  0  0  0
  3  4  1  0  0  0
  4  5  1  0  0  0
  5  6  1  0  0  0
  6  7  1  0  0  0
  7  8  1  0  0  0
  8  9  1  0  0  0
  9 10  2  0  0  0
 10 11  1  0  0  0
 11 12  2  0  0  0
 11 13  1  0  0  0
 13 14  1  0  0  0
 14 15  1  0  0  0
 15 16  1  0  0  0
  6 17  1  0  0  0
 17 18  1  0  0  0
 18 19  1  0  0  0
 19 20  1  0  0  0
 20 21  2  0  0  0
 17  2  1  0  0  0
 20  2  1  0  0  0
 15  5  1  0  0  0
 15  9  1  0  0  0
M  END
> <minimizedAffinity>
-9.69843

> <CNNscore>
0.6551852226

> <CNNaffinity>
7.0416588783

> <CNN_VS>
4.6135907173

> <CNNaffinity_variance>
0.2374931276

$$$$
[H]C1=C2C([H])([H])C([H])([H])[C@@]3([H])[C@]4([H])C([H])([H])C([H])([H])C(=O)[C@@]4(C([H])([H])[H])C([H])([H])C([H])([H])[C@]3([H])[C@@]2(C([H])([H])[H])C([H])([H])C([H])([H])C1=O


 21 24  0  0  0  0  0  0  0  0999 V2000
   14.4070   24.2456    0.6311 C   0  0  0  0  0  0  0  0  0  0  0  0
   13.5697   23.3613   -0.2564 C   0  0  0  0  0  0  0  0  0  0  0  0
   14.4196   22.4971   -1.1220 C   0  0  0  0  0  0  0  0  0  0  0  0
   14.7793   23.0303   -2.4440 C   0  0  0  0  0  0  0  0  0  0  0  0
   14.1603   24.2752   -2.9242 C   0  0  0  0  0  0  0  0  0  0  0  0
   13.4770   25.1245   -1.8710 C   0  0  0  0  0  0  0  0  0  0  0  0
   12.5779   26.1519   -2.4997 C   0  0  0  0  0  0  0  0  0  0  0  0
   13.1893   26.9271   -3.6123 C   0  0  0  0  0  0  0  0  0  0  0  0
   14.2185   26.1805   -4.3815 C   0  0  0  0  0  0  0  0  0  0  0  0
   14.3068   26.5070   -5.6791 C   0  0  0  0  0  0  0  0  0  0  0  0
   15.2557   25.8737   -6.5618 C   0  0  0  0  0  0  0  0  0  0  0  0
   15.2056   25.9587   -7.7983 O   0  0  0  0  0  0  0  0  0  0  0  0
   16.3430   25.0828   -5.9432 C   0  0  0  0  0  0  0  0  0  0  0  0
   15.7120   24.2887   -4.8166 C   0  0  0  0  0  0  0  0  0  0  0  0
   15.0873   25.1491   -3.7617 C   0  0  0  0  0  0  0  0  0  0  0  0
   16.1809   25.7611   -2.9267 C   0  0  0  0  0  0  0  0  0  0  0  0
   12.6126   24.1490   -1.1254 C   0  0  0  0  0  0  0  0  0  0  0  0
   11.6895   24.7390   -0.1260 C   0  0  0  0  0  0  0  0  0  0  0  0
   11.5017   23.5802    0.8627 C   0  0  0  0  0  0  0  0  0  0  0  0
   12.6067   22.6357    0.5884 C   0  0  0  0  0  0  0  0  0  0  0  0
   12.7090   21.4999    0.9732 O   0  0  0  0  0  0  0  0  0  0  0  0
  2  1  1  0  0  0
  2  3  1  0  0  0
  3  4  1  0  0  0
  4  5  1  0  0  0
  5  6  1  0  0  0
  6  7  1  0  0  0
  7  8  1  0  0  0
  8  9  1  0  0  0
  9 10  2  0  0  0
 10 11  1  0  0  0
 11 12  2  0  0  0
 11 13  1  0  0  0
 13 14  1  0  0  0
 14 15  1  0  0  0
 15 16  1  0  0  0
  6 17  1  0  0  0
 17 18  1  0  0  0
 18 19  1  0  0  0
 19 20  1  0  0  0
 20 21  2  0  0  0
 17  2  1  0  0  0
 20  2  1  0  0  0
 15  5  1  0  0  0
 15  9  1  0  0  0
M  END
> <minimizedAffinity>
-9.35088

> <CNNscore>
0.6510546803

> <CNNaffinity>
6.8692574501

> <CNN_VS>
4.4722623825

> <CNNaffinity_variance>
0.4568601549

$$$$
[H]C1=C2C([H])([H])C([H])([H])[C@@]3([H])[C@]4([H])C([H])([H])C([H])([H])C(=O)[C@@]4(C([H])([H])[H])C([H])([H])C([H])([H])[C@]3([H])[C@@]2(C([H])([H])[H])C([H])([H])C([H])([H])C1=O


 21 24  0  0  0  0  0  0  0  0999 V2000
   16.2575   26.8113   -3.1391 C   0  0  0  0  0  0  0  0  0  0  0  0
   15.0217   26.5425   -3.9584 C   0  0  0  0  0  0  0  0  0  0  0  0
   13.7914   27.0001   -3.2545 C   0  0  0  0  0  0  0  0  0  0  0  0
   13.1124   26.0176   -2.3972 C   0  0  0  0  0  0  0  0  0  0  0  0
   13.5498   24.6133   -2.4052 C   0  0  0  0  0  0  0  0  0  0  0  0
   14.9122   24.3471   -3.0137 C   0  0  0  0  0  0  0  0  0  0  0  0
   15.1003   22.8853   -3.3087 C   0  0  0  0  0  0  0  0  0  0  0  0
   14.7335   21.9665   -2.1979 C   0  0  0  0  0  0  0  0  0  0  0  0
   13.6499   22.4766   -1.3179 C   0  0  0  0  0  0  0  0  0  0  0  0
   12.8613   21.5337   -0.7821 C   0  0  0  0  0  0  0  0  0  0  0  0
   11.7643   21.8649    0.0940 C   0  0  0  0  0  0  0  0  0  0  0  0
   10.8699   21.0643    0.4068 O   0  0  0  0  0  0  0  0  0  0  0  0
   11.7172   23.2389    0.6418 C   0  0  0  0  0  0  0  0  0  0  0  0
   12.0829   24.1704   -0.4969 C   0  0  0  0  0  0  0  0  0  0  0  0
   13.4530   23.9228   -1.0493 C   0  0  0  0  0  0  0  0  0  0  0  0
   14.4704   24.4591   -0.0772 C   0  0  0  0  0  0  0  0  0  0  0  0
   14.8726   25.0808   -4.3232 C   0  0  0  0  0  0  0  0  0  0  0  0
   16.0310   24.8586   -5.2217 C   0  0  0  0  0  0  0  0  0  0  0  0
   16.0509   26.1521   -6.0477 C   0  0  0  0  0  0  0  0  0  0  0  0
   15.2196   27.1194   -5.2983 C   0  0  0  0  0  0  0  0  0  0  0  0
   14.7863   28.1703   -5.6940 O   0  0  0  0  0  0  0  0  0  0  0  0
  2  1  1  0  0  0
  2  3  1  0  0  0
  3  4  1  0  0  0
  4  5  1  0  0  0
  5  6  1  0  0  0
  6  7  1  0  0  0
  7  8  1  0  0  0
  8  9  1  0  0  0
  9 10  2  0  0  0
 10 11  1  0  0  0
 11 12  2  0  0  0
 11 13  1  0  0  0
 13 14  1  0  0  0
 14 15  1  0  0  0
 15 16  1  0  0  0
  6 17  1  0  0  0
 17 18  1  0  0  0
 18 19  1  0  0  0
 19 20  1  0  0  0
 20 21  2  0  0  0
 17  2  1  0  0  0
 20  2  1  0  0  0
 15  5  1  0  0  0
 15  9  1  0  0  0
M  END
> <minimizedAffinity>
-8.07170

> <CNNscore>
0.6333631873

> <CNNaffinity>
6.9365754128

> <CNN_VS>
4.3933715820

> <CNNaffinity_variance>
0.3590648770

$$$$
[H]C1=C2C([H])([H])C([H])([H])[C@@]3([H])[C@]4([H])C([H])([H])C([H])([H])C(=O)[C@@]4(C([H])([H])[H])C([H])([H])C([H])([H])[C@]3([H])[C@@]2(C([H])([H])[H])C([H])([H])C([H])([H])C1=O


 21 24  0  0  0  0  0  0  0  0999 V2000
   11.5859   22.6246   -0.9159 C   0  0  0  0  0  0  0  0  0  0  0  0
   12.8848   22.7804   -0.1680 C   0  0  0  0  0  0  0  0  0  0  0  0
   13.0884   24.1852    0.2831 C   0  0  0  0  0  0  0  0  0  0  0  0
   13.8162   25.0775   -0.6309 C   0  0  0  0  0  0  0  0  0  0  0  0
   14.4556   24.5273   -1.8358 C   0  0  0  0  0  0  0  0  0  0  0  0
   14.0039   23.1415   -2.2516 C   0  0  0  0  0  0  0  0  0  0  0  0
   14.9568   22.5328   -3.2419 C   0  0  0  0  0  0  0  0  0  0  0  0
   15.3404   23.4192   -4.3733 C   0  0  0  0  0  0  0  0  0  0  0  0
   15.3444   24.8671   -4.0386 C   0  0  0  0  0  0  0  0  0  0  0  0
   16.2470   25.6021   -4.7043 C   0  0  0  0  0  0  0  0  0  0  0  0
   16.3779   27.0231   -4.4936 C   0  0  0  0  0  0  0  0  0  0  0  0
   17.3458   27.6895   -4.8905 O   0  0  0  0  0  0  0  0  0  0  0  0
   15.2894   27.7092   -3.7623 C   0  0  0  0  0  0  0  0  0  0  0  0
   14.9095   26.8055   -2.6061 C   0  0  0  0  0  0  0  0  0  0  0  0
   14.4180   25.4594   -3.0418 C   0  0  0  0  0  0  0  0  0  0  0  0
   13.0225   25.6077   -3.5878 C   0  0  0  0  0  0  0  0  0  0  0  0
   14.0818   22.3407   -0.9839 C   0  0  0  0  0  0  0  0  0  0  0  0
   13.8496   20.8831   -1.1271 C   0  0  0  0  0  0  0  0  0  0  0  0
   13.3281   20.5016    0.2651 C   0  0  0  0  0  0  0  0  0  0  0  0
   12.9253   21.7731    0.9049 C   0  0  0  0  0  0  0  0  0  0  0  0
   12.6776   21.9589    2.0680 O   0  0  0  0  0  0  0  0  0  0  0  0
  2  1  1  0  0  0
  2  3  1  0  0  0
  3  4  1  0  0  0
  4  5  1  0  0  0
  5  6  1  0  0  0
  6  7  1  0  0  0
  7  8  1  0  0  0
  8  9  1  0  0  0
  9 10  2  0  0  0
 10 11  1  0  0  0
 11 12  2  0  0  0
 11 13  1  0  0  0
 13 14  1  0  0  0
 14 15  1  0  0  0
 15 16  1  0  0  0
  6 17  1  0  0  0
 17 18  1  0  0  0
 18 19  1  0  0  0
 19 20  1  0  0  0
 20 21  2  0  0  0
 17  2  1  0  0  0
 20  2  1  0  0  0
 15  5  1  0  0  0
 15  9  1  0  0  0
M  END
> <minimizedAffinity>
-4.83623

> <CNNscore>
0.5700709820

> <CNNaffinity>
6.7874641418

> <CNN_VS>
3.8693363667

> <CNNaffinity_variance>
0.3812076747

$$$$
[H]C1=C2C([H])([H])C([H])([H])[C@@]3([H])[C@]4([H])C([H])([H])C([H])([H])C(=O)[C@@]4(C([H])([H])[H])C([H])([H])C([H])([H])[C@]3([H])[C@@]2(C([H])([H])[H])C([H])([H])C([H])([H])C1=O


 21 24  0  0  0  0  0  0  0  0999 V2000
   14.1344   26.9885   -4.0115 C   0  0  0  0  0  0  0  0  0  0  0  0
   15.3629   26.1858   -4.3538 C   0  0  0  0  0  0  0  0  0  0  0  0
   15.0041   24.8511   -4.9092 C   0  0  0  0  0  0  0  0  0  0  0  0
   14.8752   23.7452   -3.9492 C   0  0  0  0  0  0  0  0  0  0  0  0
   15.2690   23.9443   -2.5461 C   0  0  0  0  0  0  0  0  0  0  0  0
   15.4276   25.3844   -2.1005 C   0  0  0  0  0  0  0  0  0  0  0  0
   16.1750   25.4722   -0.7993 C   0  0  0  0  0  0  0  0  0  0  0  0
   15.6974   24.5488    0.2647 C   0  0  0  0  0  0  0  0  0  0  0  0
   15.1173   23.2793   -0.2456 C   0  0  0  0  0  0  0  0  0  0  0  0
   15.2868   22.2153    0.5527 C   0  0  0  0  0  0  0  0  0  0  0  0
   14.7829   20.9104    0.2009 C   0  0  0  0  0  0  0  0  0  0  0  0
   15.1257   19.8649    0.7738 O   0  0  0  0  0  0  0  0  0  0  0  0
   13.8038   20.8307   -0.9060 C   0  0  0  0  0  0  0  0  0  0  0  0
   14.3008   21.7665   -1.9902 C   0  0  0  0  0  0  0  0  0  0  0  0
   14.4015   23.1924   -1.5428 C   0  0  0  0  0  0  0  0  0  0  0  0
   13.0143   23.7726   -1.4610 C   0  0  0  0  0  0  0  0  0  0  0  0
   16.2854   26.0004   -3.1679 C   0  0  0  0  0  0  0  0  0  0  0  0
   16.7459   27.3852   -2.9051 C   0  0  0  0  0  0  0  0  0  0  0  0
   16.9544   27.9303   -4.3246 C   0  0  0  0  0  0  0  0  0  0  0  0
   16.2255   27.0058   -5.2204 C   0  0  0  0  0  0  0  0  0  0  0  0
   16.3120   26.9301   -6.4185 O   0  0  0  0  0  0  0  0  0  0  0  0
  2  1  1  0  0  0
  2  3  1  0  0  0
  3  4  1  0  0  0
  4  5  1  0  0  0
  5  6  1  0  0  0
  6  7  1  0  0  0
  7  8  1  0  0  0
  8  9  1  0  0  0
  9 10  2  0  0  0
 10 11  1  0  0  0
 11 12  2  0  0  0
 11 13  1  0  0  0
 13 14  1  0  0  0
 14 15  1  0  0  0
 15 16  1  0  0  0
  6 17  1  0  0  0
 17 18  1  0  0  0
 18 19  1  0  0  0
 19 20  1  0  0  0
 20 21  2  0  0  0
 17  2  1  0  0  0
 20  2  1  0  0  0
 15  5  1  0  0  0
 15  9  1  0  0  0
M  END
> <minimizedAffinity>
-9.32293

> <CNNscore>
0.5606397390

> <CNNaffinity>
6.9739732742

> <CNN_VS>
3.9098865986

> <CNNaffinity_variance>
0.3321380019

$$$$
[H]C1=C2C([H])([H])C([H])([H])[C@@]3([H])[C@]4([H])C([H])([H])C([H])([H])C(=O)[C@@]4(C([H])([H])[H])C([H])([H])C([H])([H])[C@]3([H])[C@@]2(C([H])([H])[H])C([H])([H])C([H])([H])C1=O


 21 24  0  0  0  0  0  0  0  0999 V2000
   14.1098   26.9319   -2.9779 C   0  0  0  0  0  0  0  0  0  0  0  0
   14.9742   25.7200   -3.2117 C   0  0  0  0  0  0  0  0  0  0  0  0
   14.2281   24.6492   -3.9296 C   0  0  0  0  0  0  0  0  0  0  0  0
   13.5266   23.6583   -3.1006 C   0  0  0  0  0  0  0  0  0  0  0  0
   13.7274   23.6494   -1.6435 C   0  0  0  0  0  0  0  0  0  0  0  0
   14.3504   24.8987   -1.0529 C   0  0  0  0  0  0  0  0  0  0  0  0
   14.8465   24.6510    0.3441 C   0  0  0  0  0  0  0  0  0  0  0  0
   13.8812   23.9624    1.2423 C   0  0  0  0  0  0  0  0  0  0  0  0
   12.9516   23.0374    0.5431 C   0  0  0  0  0  0  0  0  0  0  0  0
   12.5642   21.9719    1.2591 C   0  0  0  0  0  0  0  0  0  0  0  0
   11.6638   20.9802    0.7238 C   0  0  0  0  0  0  0  0  0  0  0  0
   11.4784   19.8695    1.2440 O   0  0  0  0  0  0  0  0  0  0  0  0
   10.9281   21.3214   -0.5141 C   0  0  0  0  0  0  0  0  0  0  0  0
   11.9192   22.0144   -1.4282 C   0  0  0  0  0  0  0  0  0  0  0  0
   12.4839   23.2734   -0.8455 C   0  0  0  0  0  0  0  0  0  0  0  0
   11.4333   24.3501   -0.9110 C   0  0  0  0  0  0  0  0  0  0  0  0
   15.5435   25.1554   -1.9277 C   0  0  0  0  0  0  0  0  0  0  0  0
   16.4500   26.2399   -1.4792 C   0  0  0  0  0  0  0  0  0  0  0  0
   17.0847   26.6962   -2.8000 C   0  0  0  0  0  0  0  0  0  0  0  0
   16.2167   26.1570   -3.8696 C   0  0  0  0  0  0  0  0  0  0  0  0
   16.4654   26.0849   -5.0450 O   0  0  0  0  0  0  0  0  0  0  0  0
  2  1  1  0  0  0
  2  3  1  0  0  0
  3  4  1  0  0  0
  4  5  1  0  0  0
  5  6  1  0  0  0
  6  7  1  0  0  0
  7  8  1  0  0  0
  8  9  1  0  0  0
  9 10  2  0  0  0
 10 11  1  0  0  0
 11 12  2  0  0  0
 11 13  1  0  0  0
 13 14  1  0  0  0
 14 15  1  0  0  0
 15 16  1  0  0  0
  6 17  1  0  0  0
 17 18  1  0  0  0
 18 19  1  0  0  0
 19 20  1  0  0  0
 20 21  2  0  0  0
 17  2  1  0  0  0
 20  2  1  0  0  0
 15  5  1  0  0  0
 15  9  1  0  0  0
M  END
> <minimizedAffinity>
-2.82732

> <CNNscore>
0.5586776137

> <CNNaffinity>
6.6596460342

> <CNN_VS>
3.7205951214

> <CNNaffinity_variance>
0.2925625443

$$$$
[H]C1=C2C([H])([H])C([H])([H])[C@@]3([H])[C@]4([H])C([H])([H])C([H])([H])C(=O)[C@@]4(C([H])([H])[H])C([H])([H])C([H])([H])[C@]3([H])[C@@]2(C([H])([H])[H])C([H])([H])C([H])([H])C1=O


 21 24  0  0  0  0  0  0  0  0999 V2000
   15.0839   23.9601   -3.8102 C   0  0  0  0  0  0  0  0  0  0  0  0
   15.1778   24.9978   -2.7215 C   0  0  0  0  0  0  0  0  0  0  0  0
   15.8101   24.4422   -1.4926 C   0  0  0  0  0  0  0  0  0  0  0  0
   14.9095   23.8568   -0.4889 C   0  0  0  0  0  0  0  0  0  0  0  0
   13.4533   23.9978   -0.6414 C   0  0  0  0  0  0  0  0  0  0  0  0
   12.9681   24.4112   -2.0165 C   0  0  0  0  0  0  0  0  0  0  0  0
   11.5409   24.8808   -1.9715 C   0  0  0  0  0  0  0  0  0  0  0  0
   10.6075   23.9884   -1.2333 C   0  0  0  0  0  0  0  0  0  0  0  0
   11.2400   23.2298   -0.1229 C   0  0  0  0  0  0  0  0  0  0  0  0
   10.4363   22.9701    0.9187 C   0  0  0  0  0  0  0  0  0  0  0  0
   10.8985   22.2433    2.0757 C   0  0  0  0  0  0  0  0  0  0  0  0
   10.2800   22.1978    3.1499 O   0  0  0  0  0  0  0  0  0  0  0  0
   12.1827   21.5170    1.9591 C   0  0  0  0  0  0  0  0  0  0  0  0
   13.1318   22.4349    1.2143 C   0  0  0  0  0  0  0  0  0  0  0  0
   12.6568   22.7896   -0.1613 C   0  0  0  0  0  0  0  0  0  0  0  0
   12.8529   21.5992   -1.0624 C   0  0  0  0  0  0  0  0  0  0  0  0
   13.8309   25.5897   -2.3648 C   0  0  0  0  0  0  0  0  0  0  0  0
   13.4637   26.3128   -3.6062 C   0  0  0  0  0  0  0  0  0  0  0  0
   14.8045   26.9285   -4.0291 C   0  0  0  0  0  0  0  0  0  0  0  0
   15.8407   26.1905   -3.2742 C   0  0  0  0  0  0  0  0  0  0  0  0
   16.9968   26.4943   -3.1332 O   0  0  0  0  0  0  0  0  0  0  0  0
  2  1  1  0  0  0
  2  3  1  0  0  0
  3  4  1  0  0  0
  4  5  1  0  0  0
  5  6  1  0  0  0
  6  7  1  0  0  0
  7  8  1  0  0  0
  8  9  1  0  0  0
  9 10  2  0  0  0
 10 11  1  0  0  0
 11 12  2  0  0  0
 11 13  1  0  0  0
 13 14  1  0  0  0
 14 15  1  0  0  0
 15 16  1  0  0  0
  6 17  1  0  0  0
 17 18  1  0  0  0
 18 19  1  0  0  0
 19 20  1  0  0  0
 20 21  2  0  0  0
 17  2  1  0  0  0
 20  2  1  0  0  0
 15  5  1  0  0  0
 15  9  1  0  0  0
M  END
> <minimizedAffinity>
-9.10046

> <CNNscore>
0.3645241261

> <CNNaffinity>
6.5879678726

> <CNN_VS>
2.4014732838

> <CNNaffinity_variance>
0.1368517429

$$$$
[H]Oc1c([H])c([H])c(C([H])([H])[C@@]([H])(C(=O)N([H])[C@]([H])(C(=O)N([H])[C@]([H])(C(=O)N([H])[C@]([H])(C(=O)N([H])[C@]([H])(C(=O)N([H])[C@]([H])(C(=O)N([H])[C@]([H])(C(=O)N([H])[H])C([H])([H])c2c([H])c([H])c([H])c([H])c2[H])C([H])([H])C([H])([H])C([H])([H])C([H])([H])N([H])[H])C([H])([H])C([H])(C([H])([H])[H])C([H])([H])[H])C([H])([H])C([H])([H])C(=O)N([H])[H])C([H])([H])C([H])(C([H])([H])[H])C([H])([H])[H])C([H])(C([H])([H])[H])C([H])([H])[H])N([H])[H])c([H])c1[H]


 80 81  0  0  0  0  0  0  0  0999 V2000
    7.8992   22.3628    4.1307 C   0  0  0  0  0  0  0  0  0  0  0  0
    7.1608   21.8138    5.2306 N   0  0  0  0  0  0  0  0  0  0  0  0
    5.8147   21.4559    5.1030 C   0  0  0  0  0  0  0  0  0  0  0  0
    5.2513   21.6209    3.9808 O   0  0  0  0  0  0  0  0  0  0  0  0
    7.6606   21.6813    6.1201 H   0  0  0  0  0  0  0  0  0  0  0  0
    5.0517   20.8972    6.2777 C   0  0  0  0  0  0  0  0  0  0  0  0
    5.3225   19.4347    6.2416 N   0  0  0  0  0  0  0  0  0  0  0  0
    4.3674   18.5827    5.6563 C   0  0  0  0  0  0  0  0  0  0  0  0
    3.3244   19.1435    5.1779 O   0  0  0  0  0  0  0  0  0  0  0  0
    6.1860   19.0698    6.6381 H   0  0  0  0  0  0  0  0  0  0  0  0
    4.4456   17.1118    5.5347 C   0  0  0  0  0  0  0  0  0  0  0  0
    4.7420   16.8351    4.1498 N   0  0  0  0  0  0  0  0  0  0  0  0
    3.7459   16.5407    3.1976 C   0  0  0  0  0  0  0  0  0  0  0  0
    2.5345   16.4979    3.4985 O   0  0  0  0  0  0  0  0  0  0  0  0
    5.7403   16.8552    3.8479 H   0  0  0  0  0  0  0  0  0  0  0  0
    4.1347   16.2687    1.7761 C   0  0  0  0  0  0  0  0  0  0  0  0
    5.0505   15.1613    1.6828 N   0  0  0  0  0  0  0  0  0  0  0  0
    5.9419   15.4121    2.1546 H   0  0  0  0  0  0  0  0  0  0  0  0
    4.5905   14.3268    2.1102 H   0  0  0  0  0  0  0  0  0  0  0  0
    2.9151   16.1233    0.9186 C   0  0  0  0  0  0  0  0  0  0  0  0
    2.7475   17.3140    0.0181 C   0  0  0  0  0  0  0  0  0  0  0  0
    2.2271   18.4990    0.5456 C   0  0  0  0  0  0  0  0  0  0  0  0
    2.0620   19.5955   -0.2464 C   0  0  0  0  0  0  0  0  0  0  0  0
    2.4063   19.5584   -1.5924 C   0  0  0  0  0  0  0  0  0  0  0  0
    2.2512   20.6541   -2.4298 O   0  0  0  0  0  0  0  0  0  0  0  0
    2.9193   18.4043   -2.1310 C   0  0  0  0  0  0  0  0  0  0  0  0
    3.0808   17.2988   -1.3116 C   0  0  0  0  0  0  0  0  0  0  0  0
    3.0542   21.2926   -2.4881 H   0  0  0  0  0  0  0  0  0  0  0  0
    5.4482   16.5394    6.4785 C   0  0  0  0  0  0  0  0  0  0  0  0
    6.5174   15.7524    5.7877 C   0  0  0  0  0  0  0  0  0  0  0  0
    4.6904   15.6461    7.4646 C   0  0  0  0  0  0  0  0  0  0  0  0
    5.5320   21.3711    7.5911 C   0  0  0  0  0  0  0  0  0  0  0  0
    4.8705   22.5648    8.1797 C   0  0  0  0  0  0  0  0  0  0  0  0
    3.4960   22.7144    7.4872 C   0  0  0  0  0  0  0  0  0  0  0  0
    5.5926   23.8559    7.7972 C   0  0  0  0  0  0  0  0  0  0  0  0
    7.8648   21.8068    1.6550 N   0  0  0  0  0  0  0  0  0  0  0  0
    8.0915   21.4327    3.0172 C   0  0  0  0  0  0  0  0  0  0  0  0
    8.4707   20.2627    3.2482 O   0  0  0  0  0  0  0  0  0  0  0  0
    7.5474   22.7620    1.3892 H   0  0  0  0  0  0  0  0  0  0  0  0
    8.0685   20.8456    0.5761 C   0  0  0  0  0  0  0  0  0  0  0  0
    9.5207   20.7183    0.2557 C   0  0  0  0  0  0  0  0  0  0  0  0
   10.0212   19.5838    0.1997 O   0  0  0  0  0  0  0  0  0  0  0  0
   10.2724   21.8812    0.0261 N   0  0  0  0  0  0  0  0  0  0  0  0
    9.8377   22.8131    0.0770 H   0  0  0  0  0  0  0  0  0  0  0  0
   11.7140   21.7707   -0.2975 C   0  0  0  0  0  0  0  0  0  0  0  0
   12.2742   23.0805   -0.5214 C   0  0  0  0  0  0  0  0  0  0  0  0
   11.4846   24.0905   -0.5688 O   0  0  0  0  0  0  0  0  0  0  0  0
   13.6407   23.3778   -0.6907 N   0  0  0  0  0  0  0  0  0  0  0  0
   14.3433   22.6311   -0.6761 H   0  0  0  0  0  0  0  0  0  0  0  0
   14.1101   24.7650   -0.8949 C   0  0  0  0  0  0  0  0  0  0  0  0
   13.8747   25.4872    0.3583 C   0  0  0  0  0  0  0  0  0  0  0  0
   12.7039   26.2390    0.5709 N   0  0  0  0  0  0  0  0  0  0  0  0
   14.7179   25.4609    1.2839 O   0  0  0  0  0  0  0  0  0  0  0  0
   12.2873   26.3119    1.5326 H   0  0  0  0  0  0  0  0  0  0  0  0
   12.1978   26.7459   -0.1754 H   0  0  0  0  0  0  0  0  0  0  0  0
   13.1332   25.2717   -1.9725 C   0  0  0  0  0  0  0  0  0  0  0  0
   13.8068   25.5235   -3.2511 C   0  0  0  0  0  0  0  0  0  0  0  0
   14.8173   24.7446   -3.7718 C   0  0  0  0  0  0  0  0  0  0  0  0
   15.4449   25.0067   -4.9661 C   0  0  0  0  0  0  0  0  0  0  0  0
   15.0749   26.0960   -5.7118 C   0  0  0  0  0  0  0  0  0  0  0  0
   14.0693   26.9085   -5.2367 C   0  0  0  0  0  0  0  0  0  0  0  0
   13.4538   26.6284   -4.0399 C   0  0  0  0  0  0  0  0  0  0  0  0
   11.9137   20.6820   -1.2920 C   0  0  0  0  0  0  0  0  0  0  0  0
   13.2003   19.9596   -1.2718 C   0  0  0  0  0  0  0  0  0  0  0  0
   14.4407   20.6906   -0.9512 C   0  0  0  0  0  0  0  0  0  0  0  0
   15.0326   20.3005    0.3918 C   0  0  0  0  0  0  0  0  0  0  0  0
   15.0996   21.4788    1.2307 N   0  0  0  0  0  0  0  0  0  0  0  0
   15.6807   21.3307    2.0770 H   0  0  0  0  0  0  0  0  0  0  0  0
   14.1374   21.8198    1.4257 H   0  0  0  0  0  0  0  0  0  0  0  0
    7.4003   21.3203   -0.6963 C   0  0  0  0  0  0  0  0  0  0  0  0
    6.4864   19.7981   -2.3594 C   0  0  0  0  0  0  0  0  0  0  0  0
    6.1838   20.5250   -1.0634 C   0  0  0  0  0  0  0  0  0  0  0  0
    5.8320   19.4754   -0.0528 C   0  0  0  0  0  0  0  0  0  0  0  0
    9.0790   23.1838    4.5050 C   0  0  0  0  0  0  0  0  0  0  0  0
   10.2760   22.5819    5.0785 C   0  0  0  0  0  0  0  0  0  0  0  0
   10.2072   21.7088    6.2292 C   0  0  0  0  0  0  0  0  0  0  0  0
   10.2320   22.2205    7.5691 N   0  0  0  0  0  0  0  0  0  0  0  0
   10.1210   20.4729    6.1358 O   0  0  0  0  0  0  0  0  0  0  0  0
    9.5661   21.7919    8.2444 H   0  0  0  0  0  0  0  0  0  0  0  0
   10.8555   22.9701    7.9063 H   0  0  0  0  0  0  0  0  0  0  0  0
 71 72  1  0  0  0
 72 73  1  0  0  0
 72 70  1  0  0  0
 70 40  1  0  0  0
 40 36  1  0  0  0
 36 37  1  0  0  0
 37 38  2  0  0  0
 37  1  1  0  0  0
  1 74  1  0  0  0
 74 75  1  0  0  0
 75 76  1  0  0  0
 76 77  1  0  0  0
 76 78  2  0  0  0
  1  2  1  0  0  0
  2  3  1  0  0  0
  3  4  2  0  0  0
  3  6  1  0  0  0
  6 32  1  0  0  0
 32 33  1  0  0  0
 33 34  1  0  0  0
 33 35  1  0  0  0
  6  7  1  0  0  0
  7  8  1  0  0  0
  8  9  2  0  0  0
  8 11  1  0  0  0
 11 12  1  0  0  0
 12 13  1  0  0  0
 13 14  2  0  0  0
 13 16  1  0  0  0
 16 17  1  0  0  0
 16 20  1  0  0  0
 20 21  1  0  0  0
 21 22  2  0  0  0
 22 23  1  0  0  0
 23 24  2  0  0  0
 24 25  1  0  0  0
 24 26  1  0  0  0
 26 27  2  0  0  0
 11 29  1  0  0  0
 29 30  1  0  0  0
 29 31  1  0  0  0
 40 41  1  0  0  0
 41 42  2  0  0  0
 41 43  1  0  0  0
 43 45  1  0  0  0
 45 63  1  0  0  0
 63 64  1  0  0  0
 64 65  1  0  0  0
 65 66  1  0  0  0
 66 67  1  0  0  0
 45 46  1  0  0  0
 46 47  2  0  0  0
 46 48  1  0  0  0
 48 50  1  0  0  0
 50 56  1  0  0  0
 56 57  1  0  0  0
 57 58  2  0  0  0
 58 59  1  0  0  0
 59 60  2  0  0  0
 60 61  1  0  0  0
 61 62  2  0  0  0
 50 51  1  0  0  0
 51 52  1  0  0  0
 51 53  2  0  0  0
 27 21  1  0  0  0
 62 57  1  0  0  0
 36 39  1  0  0  0
 77 79  1  0  0  0
 77 80  1  0  0  0
  2  5  1  0  0  0
  7 10  1  0  0  0
 12 15  1  0  0  0
 17 18  1  0  0  0
 17 19  1  0  0  0
 25 28  1  0  0  0
 43 44  1  0  0  0
 67 68  1  0  0  0
 67 69  1  0  0  0
 48 49  1  0  0  0
 52 54  1  0  0  0
 52 55  1  0  0  0
M  END
> <minimizedAffinity>
-6.29598

> <CNNscore>
0.1518967450

> <CNNaffinity>
7.8125038147

> <CNN_VS>
1.1866939068

> <CNNaffinity_variance>
0.6528055072

$$$$
[H]Oc1c([H])c([H])c(C([H])([H])[C@@]([H])(C(=O)N([H])[C@]([H])(C(=O)N([H])[C@]([H])(C(=O)N([H])[C@]([H])(C(=O)N([H])[C@]([H])(C(=O)N([H])[C@]([H])(C(=O)N([H])[C@]([H])(C(=O)N([H])[H])C([H])([H])c2c([H])c([H])c([H])c([H])c2[H])C([H])([H])C([H])([H])C([H])([H])C([H])([H])N([H])[H])C([H])([H])C([H])(C([H])([H])[H])C([H])([H])[H])C([H])([H])C([H])([H])C(=O)N([H])[H])C([H])([H])C([H])(C([H])([H])[H])C([H])([H])[H])C([H])(C([H])([H])[H])C([H])([H])[H])N([H])[H])c([H])c1[H]


 80 81  0  0  0  0  0  0  0  0999 V2000
    6.9853   20.1793   -1.4949 C   0  0  0  0  0  0  0  0  0  0  0  0
    7.8707   21.0168   -0.7392 N   0  0  0  0  0  0  0  0  0  0  0  0
    7.8354   21.0466    0.6587 C   0  0  0  0  0  0  0  0  0  0  0  0
    7.0003   20.3052    1.2562 O   0  0  0  0  0  0  0  0  0  0  0  0
    8.5446   21.5914   -1.2630 H   0  0  0  0  0  0  0  0  0  0  0  0
    8.7632   21.9485    1.4334 C   0  0  0  0  0  0  0  0  0  0  0  0
   10.1293   21.4791    1.0773 N   0  0  0  0  0  0  0  0  0  0  0  0
   10.7918   22.0820   -0.0082 C   0  0  0  0  0  0  0  0  0  0  0  0
   10.1616   23.0160   -0.6095 O   0  0  0  0  0  0  0  0  0  0  0  0
   10.5648   20.7334    1.6161 H   0  0  0  0  0  0  0  0  0  0  0  0
   12.1375   21.7508   -0.5221 C   0  0  0  0  0  0  0  0  0  0  0  0
   12.9409   22.9366   -0.3471 N   0  0  0  0  0  0  0  0  0  0  0  0
   13.7777   23.4506   -1.3577 C   0  0  0  0  0  0  0  0  0  0  0  0
   13.8779   22.9034   -2.4759 O   0  0  0  0  0  0  0  0  0  0  0  0
   12.8953   23.4294    0.5712 H   0  0  0  0  0  0  0  0  0  0  0  0
   14.5782   24.6909   -1.0995 C   0  0  0  0  0  0  0  0  0  0  0  0
   14.7617   24.9156    0.3111 N   0  0  0  0  0  0  0  0  0  0  0  0
   13.8394   25.1029    0.7519 H   0  0  0  0  0  0  0  0  0  0  0  0
   15.2355   24.0754    0.7115 H   0  0  0  0  0  0  0  0  0  0  0  0
   15.8552   24.6619   -1.8820 C   0  0  0  0  0  0  0  0  0  0  0  0
   15.9046   25.7925   -2.8699 C   0  0  0  0  0  0  0  0  0  0  0  0
   14.9432   25.8548   -3.8824 C   0  0  0  0  0  0  0  0  0  0  0  0
   14.9627   26.8674   -4.7941 C   0  0  0  0  0  0  0  0  0  0  0  0
   15.9371   27.8568   -4.7367 C   0  0  0  0  0  0  0  0  0  0  0  0
   15.9895   28.9022   -5.6481 O   0  0  0  0  0  0  0  0  0  0  0  0
   16.8910   27.8147   -3.7501 C   0  0  0  0  0  0  0  0  0  0  0  0
   16.8565   26.7784   -2.8312 C   0  0  0  0  0  0  0  0  0  0  0  0
   15.4586   29.7452   -5.3963 H   0  0  0  0  0  0  0  0  0  0  0  0
   12.7010   20.5503    0.1596 C   0  0  0  0  0  0  0  0  0  0  0  0
   12.9859   20.7827    1.6103 C   0  0  0  0  0  0  0  0  0  0  0  0
   13.9890   20.1691   -0.5757 C   0  0  0  0  0  0  0  0  0  0  0  0
    8.6999   23.3684    1.0329 C   0  0  0  0  0  0  0  0  0  0  0  0
    8.4269   24.3742    2.0926 C   0  0  0  0  0  0  0  0  0  0  0  0
    9.7941   24.9042    2.5836 C   0  0  0  0  0  0  0  0  0  0  0  0
    7.8365   23.7279    3.3450 C   0  0  0  0  0  0  0  0  0  0  0  0
    4.8343   19.2119   -0.5586 N   0  0  0  0  0  0  0  0  0  0  0  0
    5.5776   20.3011   -1.1135 C   0  0  0  0  0  0  0  0  0  0  0  0
    4.9875   21.3936   -1.2701 O   0  0  0  0  0  0  0  0  0  0  0  0
    5.2599   18.2748   -0.4017 H   0  0  0  0  0  0  0  0  0  0  0  0
    3.4314   19.3786   -0.1933 C   0  0  0  0  0  0  0  0  0  0  0  0
    3.2531   19.2303    1.2811 C   0  0  0  0  0  0  0  0  0  0  0  0
    2.1283   18.9407    1.7190 O   0  0  0  0  0  0  0  0  0  0  0  0
    4.3595   19.4198    2.1238 N   0  0  0  0  0  0  0  0  0  0  0  0
    5.2844   19.6591    1.7401 H   0  0  0  0  0  0  0  0  0  0  0  0
    4.1992   19.2715    3.5892 C   0  0  0  0  0  0  0  0  0  0  0  0
    5.1151   20.1456    4.2796 C   0  0  0  0  0  0  0  0  0  0  0  0
    5.3731   21.2954    3.7725 O   0  0  0  0  0  0  0  0  0  0  0  0
    5.7703   19.8641    5.4944 N   0  0  0  0  0  0  0  0  0  0  0  0
    5.6303   18.9651    5.9672 H   0  0  0  0  0  0  0  0  0  0  0  0
    6.6776   20.8448    6.1282 C   0  0  0  0  0  0  0  0  0  0  0  0
    7.8152   20.0931    6.6652 C   0  0  0  0  0  0  0  0  0  0  0  0
    8.2074   18.8553    6.1222 N   0  0  0  0  0  0  0  0  0  0  0  0
    8.4752   20.5312    7.6352 O   0  0  0  0  0  0  0  0  0  0  0  0
    9.2205   18.5773    6.1119 H   0  0  0  0  0  0  0  0  0  0  0  0
    7.5509   18.1683    5.7133 H   0  0  0  0  0  0  0  0  0  0  0  0
    5.8120   21.3685    7.2896 C   0  0  0  0  0  0  0  0  0  0  0  0
    5.7816   22.8345    7.3354 C   0  0  0  0  0  0  0  0  0  0  0  0
    6.2467   23.5960    8.3854 C   0  0  0  0  0  0  0  0  0  0  0  0
    6.1959   24.9692    8.4137 C   0  0  0  0  0  0  0  0  0  0  0  0
    5.6584   25.6585    7.3575 C   0  0  0  0  0  0  0  0  0  0  0  0
    5.1784   24.9452    6.2815 C   0  0  0  0  0  0  0  0  0  0  0  0
    5.2393   23.5719    6.2726 C   0  0  0  0  0  0  0  0  0  0  0  0
    4.1281   17.8255    3.9334 C   0  0  0  0  0  0  0  0  0  0  0  0
    3.0382   17.3835    4.8245 C   0  0  0  0  0  0  0  0  0  0  0  0
    2.0926   18.3774    5.3664 C   0  0  0  0  0  0  0  0  0  0  0  0
    2.0737   18.4167    6.8845 C   0  0  0  0  0  0  0  0  0  0  0  0
    2.3182   17.0811    7.3876 N   0  0  0  0  0  0  0  0  0  0  0  0
    2.1130   16.9952    8.4007 H   0  0  0  0  0  0  0  0  0  0  0  0
    3.2751   16.7793    7.1169 H   0  0  0  0  0  0  0  0  0  0  0  0
    2.5816   18.2983   -0.8273 C   0  0  0  0  0  0  0  0  0  0  0  0
    2.0912   20.1697   -2.3022 C   0  0  0  0  0  0  0  0  0  0  0  0
    2.0841   18.6570   -2.1951 C   0  0  0  0  0  0  0  0  0  0  0  0
    2.9573   18.1429   -3.2996 C   0  0  0  0  0  0  0  0  0  0  0  0
    7.4755   18.7997   -1.7447 C   0  0  0  0  0  0  0  0  0  0  0  0
    7.4654   17.7855   -0.6981 C   0  0  0  0  0  0  0  0  0  0  0  0
    6.4843   16.7232   -0.6830 C   0  0  0  0  0  0  0  0  0  0  0  0
    6.4244   15.7643    0.3823 N   0  0  0  0  0  0  0  0  0  0  0  0
    5.6370   16.5728   -1.5792 O   0  0  0  0  0  0  0  0  0  0  0  0
    5.4768   15.5175    0.7348 H   0  0  0  0  0  0  0  0  0  0  0  0
    7.2415   15.3070    0.8154 H   0  0  0  0  0  0  0  0  0  0  0  0
 71 72  1  0  0  0
 72 73  1  0  0  0
 72 70  1  0  0  0
 70 40  1  0  0  0
 40 36  1  0  0  0
 36 37  1  0  0  0
 37 38  2  0  0  0
 37  1  1  0  0  0
  1 74  1  0  0  0
 74 75  1  0  0  0
 75 76  1  0  0  0
 76 77  1  0  0  0
 76 78  2  0  0  0
  1  2  1  0  0  0
  2  3  1  0  0  0
  3  4  2  0  0  0
  3  6  1  0  0  0
  6 32  1  0  0  0
 32 33  1  0  0  0
 33 34  1  0  0  0
 33 35  1  0  0  0
  6  7  1  0  0  0
  7  8  1  0  0  0
  8  9  2  0  0  0
  8 11  1  0  0  0
 11 12  1  0  0  0
 12 13  1  0  0  0
 13 14  2  0  0  0
 13 16  1  0  0  0
 16 17  1  0  0  0
 16 20  1  0  0  0
 20 21  1  0  0  0
 21 22  2  0  0  0
 22 23  1  0  0  0
 23 24  2  0  0  0
 24 25  1  0  0  0
 24 26  1  0  0  0
 26 27  2  0  0  0
 11 29  1  0  0  0
 29 30  1  0  0  0
 29 31  1  0  0  0
 40 41  1  0  0  0
 41 42  2  0  0  0
 41 43  1  0  0  0
 43 45  1  0  0  0
 45 63  1  0  0  0
 63 64  1  0  0  0
 64 65  1  0  0  0
 65 66  1  0  0  0
 66 67  1  0  0  0
 45 46  1  0  0  0
 46 47  2  0  0  0
 46 48  1  0  0  0
 48 50  1  0  0  0
 50 56  1  0  0  0
 56 57  1  0  0  0
 57 58  2  0  0  0
 58 59  1  0  0  0
 59 60  2  0  0  0
 60 61  1  0  0  0
 61 62  2  0  0  0
 50 51  1  0  0  0
 51 52  1  0  0  0
 51 53  2  0  0  0
 27 21  1  0  0  0
 62 57  1  0  0  0
 36 39  1  0  0  0
 77 79  1  0  0  0
 77 80  1  0  0  0
  2  5  1  0  0  0
  7 10  1  0  0  0
 12 15  1  0  0  0
 17 18  1  0  0  0
 17 19  1  0  0  0
 25 28  1  0  0  0
 43 44  1  0  0  0
 67 68  1  0  0  0
 67 69  1  0  0  0
 48 49  1  0  0  0
 52 54  1  0  0  0
 52 55  1  0  0  0
M  END
> <minimizedAffinity>
-7.26496

> <CNNscore>
0.1426520348

> <CNNaffinity>
7.6759519577

> <CNN_VS>
1.0949901342

> <CNNaffinity_variance>
0.6480076313

$$$$
[H]Oc1c([H])c([H])c(C([H])([H])[C@@]([H])(C(=O)N([H])[C@]([H])(C(=O)N([H])[C@]([H])(C(=O)N([H])[C@]([H])(C(=O)N([H])[C@]([H])(C(=O)N([H])[C@]([H])(C(=O)N([H])[C@]([H])(C(=O)N([H])[H])C([H])([H])c2c([H])c([H])c([H])c([H])c2[H])C([H])([H])C([H])([H])C([H])([H])C([H])([H])N([H])[H])C([H])([H])C([H])(C([H])([H])[H])C([H])([H])[H])C([H])([H])C([H])([H])C(=O)N([H])[H])C([H])([H])C([H])(C([H])([H])[H])C([H])([H])[H])C([H])(C([H])([H])[H])C([H])([H])[H])N([H])[H])c([H])c1[H]


 80 81  0  0  0  0  0  0  0  0999 V2000
    9.5321   22.0894    4.3604 C   0  0  0  0  0  0  0  0  0  0  0  0
    9.1026   20.9717    5.1495 N   0  0  0  0  0  0  0  0  0  0  0  0
    7.7657   20.5613    5.1714 C   0  0  0  0  0  0  0  0  0  0  0  0
    6.9283   21.1987    4.4668 O   0  0  0  0  0  0  0  0  0  0  0  0
    9.8177   20.4716    5.6947 H   0  0  0  0  0  0  0  0  0  0  0  0
    7.3322   19.3944    6.0226 C   0  0  0  0  0  0  0  0  0  0  0  0
    6.2772   18.7157    5.2226 N   0  0  0  0  0  0  0  0  0  0  0  0
    4.9270   18.9868    5.5125 C   0  0  0  0  0  0  0  0  0  0  0  0
    4.7054   19.8234    6.4517 O   0  0  0  0  0  0  0  0  0  0  0  0
    6.5409   18.0682    4.4829 H   0  0  0  0  0  0  0  0  0  0  0  0
    3.7420   18.4090    4.8442 C   0  0  0  0  0  0  0  0  0  0  0  0
    4.1808   17.9860    3.5363 N   0  0  0  0  0  0  0  0  0  0  0  0
    4.2534   18.8598    2.4332 C   0  0  0  0  0  0  0  0  0  0  0  0
    3.9361   20.0646    2.5213 O   0  0  0  0  0  0  0  0  0  0  0  0
    4.4541   16.9873    3.4094 H   0  0  0  0  0  0  0  0  0  0  0  0
    4.7239   18.3443    1.1071 C   0  0  0  0  0  0  0  0  0  0  0  0
    5.9032   17.5296    1.2467 N   0  0  0  0  0  0  0  0  0  0  0  0
    6.6876   18.1171    1.5925 H   0  0  0  0  0  0  0  0  0  0  0  0
    5.6751   16.7421    1.8937 H   0  0  0  0  0  0  0  0  0  0  0  0
    3.6015   17.6702    0.3795 C   0  0  0  0  0  0  0  0  0  0  0  0
    3.2723   18.3992   -0.8921 C   0  0  0  0  0  0  0  0  0  0  0  0
    2.6303   19.6386   -0.8200 C   0  0  0  0  0  0  0  0  0  0  0  0
    2.3174   20.3232   -1.9559 C   0  0  0  0  0  0  0  0  0  0  0  0
    2.6287   19.8043   -3.2070 C   0  0  0  0  0  0  0  0  0  0  0  0
    2.3247   20.4717   -4.3852 O   0  0  0  0  0  0  0  0  0  0  0  0
    3.2594   18.5883   -3.3006 C   0  0  0  0  0  0  0  0  0  0  0  0
    3.5705   17.9056   -2.1358 C   0  0  0  0  0  0  0  0  0  0  0  0
    3.0455   21.1140   -4.7370 H   0  0  0  0  0  0  0  0  0  0  0  0
    3.1445   17.3067    5.6514 C   0  0  0  0  0  0  0  0  0  0  0  0
    2.0649   17.7781    6.5744 C   0  0  0  0  0  0  0  0  0  0  0  0
    4.2778   16.6603    6.4530 C   0  0  0  0  0  0  0  0  0  0  0  0
    8.3874   18.3865    6.2492 C   0  0  0  0  0  0  0  0  0  0  0  0
    8.0388   17.1910    7.0605 C   0  0  0  0  0  0  0  0  0  0  0  0
    9.1207   17.0501    8.1563 C   0  0  0  0  0  0  0  0  0  0  0  0
    8.1904   15.9003    6.2568 C   0  0  0  0  0  0  0  0  0  0  0  0
   11.1463   22.3282    2.4170 N   0  0  0  0  0  0  0  0  0  0  0  0
   10.8550   21.9214    3.7574 C   0  0  0  0  0  0  0  0  0  0  0  0
   11.7781   21.4060    4.4270 O   0  0  0  0  0  0  0  0  0  0  0  0
   10.4271   22.7623    1.8021 H   0  0  0  0  0  0  0  0  0  0  0  0
   12.4803   22.1403    1.8561 C   0  0  0  0  0  0  0  0  0  0  0  0
   12.7053   23.0764    0.7156 C   0  0  0  0  0  0  0  0  0  0  0  0
   13.3924   24.0925    0.9056 O   0  0  0  0  0  0  0  0  0  0  0  0
   12.1369   22.7786   -0.5327 N   0  0  0  0  0  0  0  0  0  0  0  0
   11.5703   21.9299   -0.6693 H   0  0  0  0  0  0  0  0  0  0  0  0
   12.3552   23.6959   -1.6756 C   0  0  0  0  0  0  0  0  0  0  0  0
   13.7646   23.8084   -1.9594 C   0  0  0  0  0  0  0  0  0  0  0  0
   14.3750   22.8011   -2.4679 O   0  0  0  0  0  0  0  0  0  0  0  0
   14.5647   24.9463   -1.7376 N   0  0  0  0  0  0  0  0  0  0  0  0
   14.1628   25.7952   -1.3260 H   0  0  0  0  0  0  0  0  0  0  0  0
   16.0018   24.9601   -2.0855 C   0  0  0  0  0  0  0  0  0  0  0  0
   16.7478   24.7761   -0.8377 C   0  0  0  0  0  0  0  0  0  0  0  0
   16.0945   24.6071    0.3975 N   0  0  0  0  0  0  0  0  0  0  0  0
   18.0001   24.7687   -0.8321 O   0  0  0  0  0  0  0  0  0  0  0  0
   16.5163   23.9976    1.1421 H   0  0  0  0  0  0  0  0  0  0  0  0
   15.1931   25.0521    0.6414 H   0  0  0  0  0  0  0  0  0  0  0  0
   16.1891   26.4035   -2.5894 C   0  0  0  0  0  0  0  0  0  0  0  0
   15.9844   26.5114   -4.0379 C   0  0  0  0  0  0  0  0  0  0  0  0
   16.1621   27.6645   -4.7713 C   0  0  0  0  0  0  0  0  0  0  0  0
   15.9512   27.7471   -6.1269 C   0  0  0  0  0  0  0  0  0  0  0  0
   15.5388   26.6425   -6.8264 C   0  0  0  0  0  0  0  0  0  0  0  0
   15.3457   25.4633   -6.1411 C   0  0  0  0  0  0  0  0  0  0  0  0
   15.5630   25.4017   -4.7852 C   0  0  0  0  0  0  0  0  0  0  0  0
   11.5196   24.9141   -1.4963 C   0  0  0  0  0  0  0  0  0  0  0  0
   10.3877   24.8388   -0.5526 C   0  0  0  0  0  0  0  0  0  0  0  0
    9.5121   23.6519   -0.5593 C   0  0  0  0  0  0  0  0  0  0  0  0
    8.5186   23.6372    0.5892 C   0  0  0  0  0  0  0  0  0  0  0  0
    7.4523   22.7109    0.2703 N   0  0  0  0  0  0  0  0  0  0  0  0
    6.6402   22.8060    0.9085 H   0  0  0  0  0  0  0  0  0  0  0  0
    7.8379   21.7479    0.2078 H   0  0  0  0  0  0  0  0  0  0  0  0
   12.6297   20.7456    1.2873 C   0  0  0  0  0  0  0  0  0  0  0  0
   14.9100   20.1571    0.6774 C   0  0  0  0  0  0  0  0  0  0  0  0
   13.5889   20.6702    0.1378 C   0  0  0  0  0  0  0  0  0  0  0  0
   13.1601   19.7132   -0.9331 C   0  0  0  0  0  0  0  0  0  0  0  0
    9.2470   23.4252    4.9439 C   0  0  0  0  0  0  0  0  0  0  0  0
    8.7566   24.5264    4.1246 C   0  0  0  0  0  0  0  0  0  0  0  0
    7.3425   24.7949    3.9856 C   0  0  0  0  0  0  0  0  0  0  0  0
    6.3595   24.0888    4.7557 N   0  0  0  0  0  0  0  0  0  0  0  0
    6.8899   25.6456    3.2013 O   0  0  0  0  0  0  0  0  0  0  0  0
    5.5817   24.6558    5.1514 H   0  0  0  0  0  0  0  0  0  0  0  0
    6.3674   23.0738    4.9401 H   0  0  0  0  0  0  0  0  0  0  0  0
 71 72  1  0  0  0
 72 73  1  0  0  0
 72 70  1  0  0  0
 70 40  1  0  0  0
 40 36  1  0  0  0
 36 37  1  0  0  0
 37 38  2  0  0  0
 37  1  1  0  0  0
  1 74  1  0  0  0
 74 75  1  0  0  0
 75 76  1  0  0  0
 76 77  1  0  0  0
 76 78  2  0  0  0
  1  2  1  0  0  0
  2  3  1  0  0  0
  3  4  2  0  0  0
  3  6  1  0  0  0
  6 32  1  0  0  0
 32 33  1  0  0  0
 33 34  1  0  0  0
 33 35  1  0  0  0
  6  7  1  0  0  0
  7  8  1  0  0  0
  8  9  2  0  0  0
  8 11  1  0  0  0
 11 12  1  0  0  0
 12 13  1  0  0  0
 13 14  2  0  0  0
 13 16  1  0  0  0
 16 17  1  0  0  0
 16 20  1  0  0  0
 20 21  1  0  0  0
 21 22  2  0  0  0
 22 23  1  0  0  0
 23 24  2  0  0  0
 24 25  1  0  0  0
 24 26  1  0  0  0
 26 27  2  0  0  0
 11 29  1  0  0  0
 29 30  1  0  0  0
 29 31  1  0  0  0
 40 41  1  0  0  0
 41 42  2  0  0  0
 41 43  1  0  0  0
 43 45  1  0  0  0
 45 63  1  0  0  0
 63 64  1  0  0  0
 64 65  1  0  0  0
 65 66  1  0  0  0
 66 67  1  0  0  0
 45 46  1  0  0  0
 46 47  2  0  0  0
 46 48  1  0  0  0
 48 50  1  0  0  0
 50 56  1  0  0  0
 56 57  1  0  0  0
 57 58  2  0  0  0
 58 59  1  0  0  0
 59 60  2  0  0  0
 60 61  1  0  0  0
 61 62  2  0  0  0
 50 51  1  0  0  0
 51 52  1  0  0  0
 51 53  2  0  0  0
 27 21  1  0  0  0
 62 57  1  0  0  0
 36 39  1  0  0  0
 77 79  1  0  0  0
 77 80  1  0  0  0
  2  5  1  0  0  0
  7 10  1  0  0  0
 12 15  1  0  0  0
 17 18  1  0  0  0
 17 19  1  0  0  0
 25 28  1  0  0  0
 43 44  1  0  0  0
 67 68  1  0  0  0
 67 69  1  0  0  0
 48 49  1  0  0  0
 52 54  1  0  0  0
 52 55  1  0  0  0
M  END
> <minimizedAffinity>
-6.27516

> <CNNscore>
0.1351354122

> <CNNaffinity>
7.5843911171

> <CNN_VS>
1.0249198675

> <CNNaffinity_variance>
0.1873309612

$$$$
[H]Oc1c([H])c([H])c(C([H])([H])[C@@]([H])(C(=O)N([H])[C@]([H])(C(=O)N([H])[C@]([H])(C(=O)N([H])[C@]([H])(C(=O)N([H])[C@]([H])(C(=O)N([H])[C@]([H])(C(=O)N([H])[C@]([H])(C(=O)N([H])[H])C([H])([H])c2c([H])c([H])c([H])c([H])c2[H])C([H])([H])C([H])([H])C([H])([H])C([H])([H])N([H])[H])C([H])([H])C([H])(C([H])([H])[H])C([H])([H])[H])C([H])([H])C([H])([H])C(=O)N([H])[H])C([H])([H])C([H])(C([H])([H])[H])C([H])([H])[H])C([H])(C([H])([H])[H])C([H])([H])[H])N([H])[H])c([H])c1[H]


 80 81  0  0  0  0  0  0  0  0999 V2000
    7.1857   20.2706   -1.2404 C   0  0  0  0  0  0  0  0  0  0  0  0
    8.1386   21.3169   -1.0085 N   0  0  0  0  0  0  0  0  0  0  0  0
    8.8800   21.3827    0.1758 C   0  0  0  0  0  0  0  0  0  0  0  0
    8.6983   20.4855    1.0509 O   0  0  0  0  0  0  0  0  0  0  0  0
    8.2673   22.0165   -1.7519 H   0  0  0  0  0  0  0  0  0  0  0  0
    9.8639   22.5020    0.4071 C   0  0  0  0  0  0  0  0  0  0  0  0
   11.1869   21.8276    0.4995 N   0  0  0  0  0  0  0  0  0  0  0  0
   11.8474   21.4649   -0.6891 C   0  0  0  0  0  0  0  0  0  0  0  0
   11.2542   21.7610   -1.7807 O   0  0  0  0  0  0  0  0  0  0  0  0
   11.5949   21.6365    1.4122 H   0  0  0  0  0  0  0  0  0  0  0  0
   13.1528   20.7819   -0.8066 C   0  0  0  0  0  0  0  0  0  0  0  0
   13.8173   21.3713   -1.9438 N   0  0  0  0  0  0  0  0  0  0  0  0
   14.4086   22.6498   -1.9073 C   0  0  0  0  0  0  0  0  0  0  0  0
   14.3902   23.3584   -0.8790 O   0  0  0  0  0  0  0  0  0  0  0  0
   13.8571   20.8206   -2.8289 H   0  0  0  0  0  0  0  0  0  0  0  0
   15.0846   23.1906   -3.1306 C   0  0  0  0  0  0  0  0  0  0  0  0
   15.2329   22.1767   -4.1425 N   0  0  0  0  0  0  0  0  0  0  0  0
   15.8738   21.4360   -3.7951 H   0  0  0  0  0  0  0  0  0  0  0  0
   14.2823   21.8105   -4.3724 H   0  0  0  0  0  0  0  0  0  0  0  0
   14.3904   24.4292   -3.6077 C   0  0  0  0  0  0  0  0  0  0  0  0
   15.3471   25.5849   -3.6833 C   0  0  0  0  0  0  0  0  0  0  0  0
   16.3060   25.7422   -2.6787 C   0  0  0  0  0  0  0  0  0  0  0  0
   17.1867   26.7812   -2.7190 C   0  0  0  0  0  0  0  0  0  0  0  0
   17.1496   27.7046   -3.7570 C   0  0  0  0  0  0  0  0  0  0  0  0
   18.0289   28.7758   -3.8308 O   0  0  0  0  0  0  0  0  0  0  0  0
   16.2156   27.5688   -4.7542 C   0  0  0  0  0  0  0  0  0  0  0  0
   15.3279   26.5066   -4.6981 C   0  0  0  0  0  0  0  0  0  0  0  0
   18.9071   28.6025   -4.3354 H   0  0  0  0  0  0  0  0  0  0  0  0
   13.9388   20.8875    0.4562 C   0  0  0  0  0  0  0  0  0  0  0  0
   15.2738   20.2163    0.3708 C   0  0  0  0  0  0  0  0  0  0  0  0
   13.1013   20.2545    1.5708 C   0  0  0  0  0  0  0  0  0  0  0  0
    9.9676   23.4570   -0.7144 C   0  0  0  0  0  0  0  0  0  0  0  0
   10.6301   24.7615   -0.4526 C   0  0  0  0  0  0  0  0  0  0  0  0
   11.6161   25.0158   -1.6163 C   0  0  0  0  0  0  0  0  0  0  0  0
   11.5464   24.6938    0.7683 C   0  0  0  0  0  0  0  0  0  0  0  0
    6.0881   19.4566    0.8978 N   0  0  0  0  0  0  0  0  0  0  0  0
    6.0733   20.2548   -0.2895 C   0  0  0  0  0  0  0  0  0  0  0  0
    5.0643   20.9623   -0.5073 O   0  0  0  0  0  0  0  0  0  0  0  0
    6.8930   18.8433    1.1420 H   0  0  0  0  0  0  0  0  0  0  0  0
    4.9555   19.4713    1.8178 C   0  0  0  0  0  0  0  0  0  0  0  0
    5.2231   20.3903    2.9630 C   0  0  0  0  0  0  0  0  0  0  0  0
    4.3984   20.4440    3.8891 O   0  0  0  0  0  0  0  0  0  0  0  0
    6.3962   21.1611    2.9584 N   0  0  0  0  0  0  0  0  0  0  0  0
    7.0678   21.1014    2.1804 H   0  0  0  0  0  0  0  0  0  0  0  0
    6.6779   22.0746    4.0904 C   0  0  0  0  0  0  0  0  0  0  0  0
    7.0066   23.3893    3.5971 C   0  0  0  0  0  0  0  0  0  0  0  0
    7.3407   23.5217    2.3657 O   0  0  0  0  0  0  0  0  0  0  0  0
    6.9908   24.5817    4.3468 N   0  0  0  0  0  0  0  0  0  0  0  0
    6.7440   24.5698    5.3420 H   0  0  0  0  0  0  0  0  0  0  0  0
    7.3274   25.8844    3.7336 C   0  0  0  0  0  0  0  0  0  0  0  0
    8.7266   26.1668    4.0653 C   0  0  0  0  0  0  0  0  0  0  0  0
    9.0838   26.8693    5.2314 N   0  0  0  0  0  0  0  0  0  0  0  0
    9.6544   25.7926    3.3118 O   0  0  0  0  0  0  0  0  0  0  0  0
    9.9793   26.6449    5.7330 H   0  0  0  0  0  0  0  0  0  0  0  0
    8.5106   27.6197    5.6538 H   0  0  0  0  0  0  0  0  0  0  0  0
    6.4095   26.8450    4.5128 C   0  0  0  0  0  0  0  0  0  0  0  0
    5.8997   27.9279    3.6647 C   0  0  0  0  0  0  0  0  0  0  0  0
    4.5685   28.1391    3.3782 C   0  0  0  0  0  0  0  0  0  0  0  0
    4.1132   29.1527    2.5692 C   0  0  0  0  0  0  0  0  0  0  0  0
    5.0018   30.0240    1.9940 C   0  0  0  0  0  0  0  0  0  0  0  0
    6.3453   29.8575    2.2475 C   0  0  0  0  0  0  0  0  0  0  0  0
    6.7800   28.8376    3.0603 C   0  0  0  0  0  0  0  0  0  0  0  0
    7.5662   21.3890    5.0677 C   0  0  0  0  0  0  0  0  0  0  0  0
    8.6773   20.5769    4.5351 C   0  0  0  0  0  0  0  0  0  0  0  0
    9.7145   20.0708    5.4537 C   0  0  0  0  0  0  0  0  0  0  0  0
   11.0830   19.9596    4.8048 C   0  0  0  0  0  0  0  0  0  0  0  0
   11.4299   18.5586    4.6876 N   0  0  0  0  0  0  0  0  0  0  0  0
   12.4291   18.4161    4.4485 H   0  0  0  0  0  0  0  0  0  0  0  0
   10.7636   18.0901    4.0422 H   0  0  0  0  0  0  0  0  0  0  0  0
    4.7408   18.1009    2.4237 C   0  0  0  0  0  0  0  0  0  0  0  0
    2.7063   18.4502    1.1366 C   0  0  0  0  0  0  0  0  0  0  0  0
    3.4002   17.5112    2.1042 C   0  0  0  0  0  0  0  0  0  0  0  0
    3.4834   16.1774    1.4254 C   0  0  0  0  0  0  0  0  0  0  0  0
    7.7666   18.9480   -1.5856 C   0  0  0  0  0  0  0  0  0  0  0  0
    7.6530   17.8069   -0.6861 C   0  0  0  0  0  0  0  0  0  0  0  0
    6.5573   16.8688   -0.7883 C   0  0  0  0  0  0  0  0  0  0  0  0
    6.6241   15.5613   -0.2018 N   0  0  0  0  0  0  0  0  0  0  0  0
    5.4972   17.1296   -1.3814 O   0  0  0  0  0  0  0  0  0  0  0  0
    5.7711   15.2277    0.2924 H   0  0  0  0  0  0  0  0  0  0  0  0
    7.4445   14.9367   -0.2370 H   0  0  0  0  0  0  0  0  0  0  0  0
 71 72  1  0  0  0
 72 73  1  0  0  0
 72 70  1  0  0  0
 70 40  1  0  0  0
 40 36  1  0  0  0
 36 37  1  0  0  0
 37 38  2  0  0  0
 37  1  1  0  0  0
  1 74  1  0  0  0
 74 75  1  0  0  0
 75 76  1  0  0  0
 76 77  1  0  0  0
 76 78  2  0  0  0
  1  2  1  0  0  0
  2  3  1  0  0  0
  3  4  2  0  0  0
  3  6  1  0  0  0
  6 32  1  0  0  0
 32 33  1  0  0  0
 33 34  1  0  0  0
 33 35  1  0  0  0
  6  7  1  0  0  0
  7  8  1  0  0  0
  8  9  2  0  0  0
  8 11  1  0  0  0
 11 12  1  0  0  0
 12 13  1  0  0  0
 13 14  2  0  0  0
 13 16  1  0  0  0
 16 17  1  0  0  0
 16 20  1  0  0  0
 20 21  1  0  0  0
 21 22  2  0  0  0
 22 23  1  0  0  0
 23 24  2  0  0  0
 24 25  1  0  0  0
 24 26  1  0  0  0
 26 27  2  0  0  0
 11 29  1  0  0  0
 29 30  1  0  0  0
 29 31  1  0  0  0
 40 41  1  0  0  0
 41 42  2  0  0  0
 41 43  1  0  0  0
 43 45  1  0  0  0
 45 63  1  0  0  0
 63 64  1  0  0  0
 64 65  1  0  0  0
 65 66  1  0  0  0
 66 67  1  0  0  0
 45 46  1  0  0  0
 46 47  2  0  0  0
 46 48  1  0  0  0
 48 50  1  0  0  0
 50 56  1  0  0  0
 56 57  1  0  0  0
 57 58  2  0  0  0
 58 59  1  0  0  0
 59 60  2  0  0  0
 60 61  1  0  0  0
 61 62  2  0  0  0
 50 51  1  0  0  0
 51 52  1  0  0  0
 51 53  2  0  0  0
 27 21  1  0  0  0
 62 57  1  0  0  0
 36 39  1  0  0  0
 77 79  1  0  0  0
 77 80  1  0  0  0
  2  5  1  0  0  0
  7 10  1  0  0  0
 12 15  1  0  0  0
 17 18  1  0  0  0
 17 19  1  0  0  0
 25 28  1  0  0  0
 43 44  1  0  0  0
 67 68  1  0  0  0
 67 69  1  0  0  0
 48 49  1  0  0  0
 52 54  1  0  0  0
 52 55  1  0  0  0
M  END
> <minimizedAffinity>
-8.92345

> <CNNscore>
0.0921908319

> <CNNaffinity>
8.0247697830

> <CNN_VS>
0.7398102283

> <CNNaffinity_variance>
0.6135262847

$$$$
[H]Oc1c([H])c([H])c(C([H])([H])[C@@]([H])(C(=O)N([H])[C@]([H])(C(=O)N([H])[C@]([H])(C(=O)N([H])[C@]([H])(C(=O)N([H])[C@]([H])(C(=O)N([H])[C@]([H])(C(=O)N([H])[C@]([H])(C(=O)N([H])[H])C([H])([H])c2c([H])c([H])c([H])c([H])c2[H])C([H])([H])C([H])([H])C([H])([H])C([H])([H])N([H])[H])C([H])([H])C([H])(C([H])([H])[H])C([H])([H])[H])C([H])([H])C([H])([H])C(=O)N([H])[H])C([H])([H])C([H])(C([H])([H])[H])C([H])([H])[H])C([H])(C([H])([H])[H])C([H])([H])[H])N([H])[H])c([H])c1[H]


 80 81  0  0  0  0  0  0  0  0999 V2000
    7.2209   20.3536   -1.1669 C   0  0  0  0  0  0  0  0  0  0  0  0
    8.2083   21.1473   -0.4950 N   0  0  0  0  0  0  0  0  0  0  0  0
    8.1624   21.3575    0.8871 C   0  0  0  0  0  0  0  0  0  0  0  0
    7.2237   20.8217    1.5470 O   0  0  0  0  0  0  0  0  0  0  0  0
    8.9630   21.5512   -1.0660 H   0  0  0  0  0  0  0  0  0  0  0  0
    9.2008   22.2109    1.5711 C   0  0  0  0  0  0  0  0  0  0  0  0
   10.5010   21.7211    1.0389 N   0  0  0  0  0  0  0  0  0  0  0  0
   11.0804   22.3895   -0.0558 C   0  0  0  0  0  0  0  0  0  0  0  0
   10.4387   23.3959   -0.5102 O   0  0  0  0  0  0  0  0  0  0  0  0
   10.9519   20.9152    1.4669 H   0  0  0  0  0  0  0  0  0  0  0  0
   12.3511   22.0519   -0.7309 C   0  0  0  0  0  0  0  0  0  0  0  0
   13.2372   23.1687   -0.5081 N   0  0  0  0  0  0  0  0  0  0  0  0
   14.1922   23.5893   -1.4550 C   0  0  0  0  0  0  0  0  0  0  0  0
   14.3329   23.0129   -2.5541 O   0  0  0  0  0  0  0  0  0  0  0  0
   13.1619   23.6822    0.3968 H   0  0  0  0  0  0  0  0  0  0  0  0
   15.0736   24.7624   -1.1502 C   0  0  0  0  0  0  0  0  0  0  0  0
   15.4038   24.8237    0.2502 N   0  0  0  0  0  0  0  0  0  0  0  0
   14.5388   24.9964    0.7997 H   0  0  0  0  0  0  0  0  0  0  0  0
   15.8726   23.9272    0.5095 H   0  0  0  0  0  0  0  0  0  0  0  0
   16.2657   24.7709   -2.0572 C   0  0  0  0  0  0  0  0  0  0  0  0
   16.1878   25.9091   -3.0346 C   0  0  0  0  0  0  0  0  0  0  0  0
   17.0546   26.9953   -2.8856 C   0  0  0  0  0  0  0  0  0  0  0  0
   17.0072   28.0432   -3.7554 C   0  0  0  0  0  0  0  0  0  0  0  0
   16.0973   28.0542   -4.8060 C   0  0  0  0  0  0  0  0  0  0  0  0
   16.0188   29.1039   -5.7103 O   0  0  0  0  0  0  0  0  0  0  0  0
   15.2366   26.9972   -4.9706 C   0  0  0  0  0  0  0  0  0  0  0  0
   15.2984   25.9398   -4.0774 C   0  0  0  0  0  0  0  0  0  0  0  0
   16.6155   29.0255   -6.5432 H   0  0  0  0  0  0  0  0  0  0  0  0
   12.9010   20.7554   -0.2408 C   0  0  0  0  0  0  0  0  0  0  0  0
   14.1060   20.9244    0.6305 C   0  0  0  0  0  0  0  0  0  0  0  0
   13.2540   19.9139   -1.4706 C   0  0  0  0  0  0  0  0  0  0  0  0
    9.1292   23.6444    1.2241 C   0  0  0  0  0  0  0  0  0  0  0  0
    9.1482   24.6273    2.3388 C   0  0  0  0  0  0  0  0  0  0  0  0
    9.6716   23.8881    3.5920 C   0  0  0  0  0  0  0  0  0  0  0  0
    7.7360   25.0438    2.7476 C   0  0  0  0  0  0  0  0  0  0  0  0
    4.9299   19.7005   -0.2924 N   0  0  0  0  0  0  0  0  0  0  0  0
    5.8421   20.6792   -0.7993 C   0  0  0  0  0  0  0  0  0  0  0  0
    5.4304   21.8543   -0.9250 O   0  0  0  0  0  0  0  0  0  0  0  0
    5.2032   18.7043   -0.1631 H   0  0  0  0  0  0  0  0  0  0  0  0
    3.5632   20.0702    0.0607 C   0  0  0  0  0  0  0  0  0  0  0  0
    3.2318   19.5972    1.4370 C   0  0  0  0  0  0  0  0  0  0  0  0
    2.0945   19.1508    1.6558 O   0  0  0  0  0  0  0  0  0  0  0  0
    4.2139   19.6694    2.4372 N   0  0  0  0  0  0  0  0  0  0  0  0
    5.1517   20.0428    2.2346 H   0  0  0  0  0  0  0  0  0  0  0  0
    3.9014   19.1995    3.8071 C   0  0  0  0  0  0  0  0  0  0  0  0
    4.5604   20.0347    4.7807 C   0  0  0  0  0  0  0  0  0  0  0  0
    4.4889   21.3091    4.6513 O   0  0  0  0  0  0  0  0  0  0  0  0
    5.2903   19.5844    5.8981 N   0  0  0  0  0  0  0  0  0  0  0  0
    5.4071   18.5813    6.0760 H   0  0  0  0  0  0  0  0  0  0  0  0
    5.9111   20.5320    6.8484 C   0  0  0  0  0  0  0  0  0  0  0  0
    4.8203   21.2047    7.5590 C   0  0  0  0  0  0  0  0  0  0  0  0
    4.6237   22.5954    7.4675 N   0  0  0  0  0  0  0  0  0  0  0  0
    4.0262   20.5573    8.2792 O   0  0  0  0  0  0  0  0  0  0  0  0
    3.6541   22.9981    7.5060 H   0  0  0  0  0  0  0  0  0  0  0  0
    5.3893   23.2825    7.3592 H   0  0  0  0  0  0  0  0  0  0  0  0
    6.5967   21.5288    5.8953 C   0  0  0  0  0  0  0  0  0  0  0  0
    8.0529   21.3528    5.8696 C   0  0  0  0  0  0  0  0  0  0  0  0
    8.9298   21.9436    6.7532 C   0  0  0  0  0  0  0  0  0  0  0  0
   10.2931   21.7761    6.7027 C   0  0  0  0  0  0  0  0  0  0  0  0
   10.8523   20.9851    5.7326 C   0  0  0  0  0  0  0  0  0  0  0  0
   10.0201   20.3707    4.8231 C   0  0  0  0  0  0  0  0  0  0  0  0
    8.6590   20.5507    4.8915 C   0  0  0  0  0  0  0  0  0  0  0  0
    4.0384   17.7189    3.8635 C   0  0  0  0  0  0  0  0  0  0  0  0
    3.0455   16.9660    4.6539 C   0  0  0  0  0  0  0  0  0  0  0  0
    2.0607   17.6976    5.4728 C   0  0  0  0  0  0  0  0  0  0  0  0
    2.1047   17.3151    6.9418 C   0  0  0  0  0  0  0  0  0  0  0  0
    3.3531   17.7827    7.5071 N   0  0  0  0  0  0  0  0  0  0  0  0
    3.5412   17.3773    8.4431 H   0  0  0  0  0  0  0  0  0  0  0  0
    3.3791   18.8211    7.4767 H   0  0  0  0  0  0  0  0  0  0  0  0
    2.5713   19.3958   -0.8626 C   0  0  0  0  0  0  0  0  0  0  0  0
    2.4057   21.6882   -1.6597 C   0  0  0  0  0  0  0  0  0  0  0  0
    2.1877   20.2371   -2.0425 C   0  0  0  0  0  0  0  0  0  0  0  0
    3.0301   19.9803   -3.2554 C   0  0  0  0  0  0  0  0  0  0  0  0
    7.5401   18.9077   -1.2828 C   0  0  0  0  0  0  0  0  0  0  0  0
    7.1022   17.9471   -0.2779 C   0  0  0  0  0  0  0  0  0  0  0  0
    6.4477   16.7114   -0.6466 C   0  0  0  0  0  0  0  0  0  0  0  0
    6.9835   15.4328   -0.2779 N   0  0  0  0  0  0  0  0  0  0  0  0
    5.3900   16.6748   -1.2973 O   0  0  0  0  0  0  0  0  0  0  0  0
    6.3032   14.7227    0.0627 H   0  0  0  0  0  0  0  0  0  0  0  0
    7.9800   15.1704   -0.3282 H   0  0  0  0  0  0  0  0  0  0  0  0
 71 72  1  0  0  0
 72 73  1  0  0  0
 72 70  1  0  0  0
 70 40  1  0  0  0
 40 36  1  0  0  0
 36 37  1  0  0  0
 37 38  2  0  0  0
 37  1  1  0  0  0
  1 74  1  0  0  0
 74 75  1  0  0  0
 75 76  1  0  0  0
 76 77  1  0  0  0
 76 78  2  0  0  0
  1  2  1  0  0  0
  2  3  1  0  0  0
  3  4  2  0  0  0
  3  6  1  0  0  0
  6 32  1  0  0  0
 32 33  1  0  0  0
 33 34  1  0  0  0
 33 35  1  0  0  0
  6  7  1  0  0  0
  7  8  1  0  0  0
  8  9  2  0  0  0
  8 11  1  0  0  0
 11 12  1  0  0  0
 12 13  1  0  0  0
 13 14  2  0  0  0
 13 16  1  0  0  0
 16 17  1  0  0  0
 16 20  1  0  0  0
 20 21  1  0  0  0
 21 22  2  0  0  0
 22 23  1  0  0  0
 23 24  2  0  0  0
 24 25  1  0  0  0
 24 26  1  0  0  0
 26 27  2  0  0  0
 11 29  1  0  0  0
 29 30  1  0  0  0
 29 31  1  0  0  0
 40 41  1  0  0  0
 41 42  2  0  0  0
 41 43  1  0  0  0
 43 45  1  0  0  0
 45 63  1  0  0  0
 63 64  1  0  0  0
 64 65  1  0  0  0
 65 66  1  0  0  0
 66 67  1  0  0  0
 45 46  1  0  0  0
 46 47  2  0  0  0
 46 48  1  0  0  0
 48 50  1  0  0  0
 50 56  1  0  0  0
 56 57  1  0  0  0
 57 58  2  0  0  0
 58 59  1  0  0  0
 59 60  2  0  0  0
 60 61  1  0  0  0
 61 62  2  0  0  0
 50 51  1  0  0  0
 51 52  1  0  0  0
 51 53  2  0  0  0
 27 21  1  0  0  0
 62 57  1  0  0  0
 36 39  1  0  0  0
 77 79  1  0  0  0
 77 80  1  0  0  0
  2  5  1  0  0  0
  7 10  1  0  0  0
 12 15  1  0  0  0
 17 18  1  0  0  0
 17 19  1  0  0  0
 25 28  1  0  0  0
 43 44  1  0  0  0
 67 68  1  0  0  0
 67 69  1  0  0  0
 48 49  1  0  0  0
 52 54  1  0  0  0
 52 55  1  0  0  0
M  END
> <minimizedAffinity>
-7.00328

> <CNNscore>
0.0813474357

> <CNNaffinity>
7.7297973633

> <CNN_VS>
0.6287992001

> <CNNaffinity_variance>
0.5525273681

$$$$
[H]Oc1c([H])c([H])c(C([H])([H])[C@@]([H])(C(=O)N([H])[C@]([H])(C(=O)N([H])[C@]([H])(C(=O)N([H])[C@]([H])(C(=O)N([H])[C@]([H])(C(=O)N([H])[C@]([H])(C(=O)N([H])[C@]([H])(C(=O)N([H])[H])C([H])([H])c2c([H])c([H])c([H])c([H])c2[H])C([H])([H])C([H])([H])C([H])([H])C([H])([H])N([H])[H])C([H])([H])C([H])(C([H])([H])[H])C([H])([H])[H])C([H])([H])C([H])([H])C(=O)N([H])[H])C([H])([H])C([H])(C([H])([H])[H])C([H])([H])[H])C([H])(C([H])([H])[H])C([H])([H])[H])N([H])[H])c([H])c1[H]


 80 81  0  0  0  0  0  0  0  0999 V2000
    7.0647   23.6089    3.1696 C   0  0  0  0  0  0  0  0  0  0  0  0
    6.9773   22.3459    3.8431 N   0  0  0  0  0  0  0  0  0  0  0  0
    6.2414   21.2819    3.3113 C   0  0  0  0  0  0  0  0  0  0  0  0
    5.6497   21.4523    2.2046 O   0  0  0  0  0  0  0  0  0  0  0  0
    7.4861   22.2444    4.7316 H   0  0  0  0  0  0  0  0  0  0  0  0
    6.1476   19.9677    4.0452 C   0  0  0  0  0  0  0  0  0  0  0  0
    5.0805   20.1784    5.0603 N   0  0  0  0  0  0  0  0  0  0  0  0
    5.3408   19.8320    6.3993 C   0  0  0  0  0  0  0  0  0  0  0  0
    6.5033   19.3657    6.6489 O   0  0  0  0  0  0  0  0  0  0  0  0
    4.1825   20.5654    4.7779 H   0  0  0  0  0  0  0  0  0  0  0  0
    4.4139   19.9534    7.5442 C   0  0  0  0  0  0  0  0  0  0  0  0
    3.7237   21.2093    7.3750 N   0  0  0  0  0  0  0  0  0  0  0  0
    4.2428   22.4363    7.8341 C   0  0  0  0  0  0  0  0  0  0  0  0
    5.3411   22.5110    8.4240 O   0  0  0  0  0  0  0  0  0  0  0  0
    2.7998   21.2003    6.8908 H   0  0  0  0  0  0  0  0  0  0  0  0
    3.4663   23.6993    7.6157 C   0  0  0  0  0  0  0  0  0  0  0  0
    2.1319   23.5962    8.1472 N   0  0  0  0  0  0  0  0  0  0  0  0
    1.6068   22.8715    7.6188 H   0  0  0  0  0  0  0  0  0  0  0  0
    2.2075   23.3757    9.1652 H   0  0  0  0  0  0  0  0  0  0  0  0
    4.2343   24.8803    8.1248 C   0  0  0  0  0  0  0  0  0  0  0  0
    4.4180   25.9071    7.0438 C   0  0  0  0  0  0  0  0  0  0  0  0
    3.6258   25.8354    5.8946 C   0  0  0  0  0  0  0  0  0  0  0  0
    3.7700   26.7514    4.8962 C   0  0  0  0  0  0  0  0  0  0  0  0
    4.7063   27.7734    4.9990 C   0  0  0  0  0  0  0  0  0  0  0  0
    4.8825   28.7232    4.0025 O   0  0  0  0  0  0  0  0  0  0  0  0
    5.4949   27.8623    6.1195 C   0  0  0  0  0  0  0  0  0  0  0  0
    5.3351   26.9229    7.1252 C   0  0  0  0  0  0  0  0  0  0  0  0
    4.3044   29.5691    4.0804 H   0  0  0  0  0  0  0  0  0  0  0  0
    3.4953   18.7819    7.6284 C   0  0  0  0  0  0  0  0  0  0  0  0
    2.2602   19.0646    8.4250 C   0  0  0  0  0  0  0  0  0  0  0  0
    4.2796   17.6302    8.2635 C   0  0  0  0  0  0  0  0  0  0  0  0
    5.6990   18.8379    3.2068 C   0  0  0  0  0  0  0  0  0  0  0  0
    4.2410   18.5554    3.1499 C   0  0  0  0  0  0  0  0  0  0  0  0
    4.0349   17.1090    3.6566 C   0  0  0  0  0  0  0  0  0  0  0  0
    3.7345   18.4927    1.7096 C   0  0  0  0  0  0  0  0  0  0  0  0
    9.3515   24.0817    2.1763 N   0  0  0  0  0  0  0  0  0  0  0  0
    8.0027   23.6227    2.0462 C   0  0  0  0  0  0  0  0  0  0  0  0
    7.6270   23.2187    0.9228 O   0  0  0  0  0  0  0  0  0  0  0  0
    9.7316   24.4328    3.0796 H   0  0  0  0  0  0  0  0  0  0  0  0
   10.2521   24.0785    1.0281 C   0  0  0  0  0  0  0  0  0  0  0  0
   10.4288   22.6917    0.5053 C   0  0  0  0  0  0  0  0  0  0  0  0
   10.9478   21.8387    1.2426 O   0  0  0  0  0  0  0  0  0  0  0  0
   10.0020   22.3955   -0.7987 N   0  0  0  0  0  0  0  0  0  0  0  0
    9.5733   23.1179   -1.3940 H   0  0  0  0  0  0  0  0  0  0  0  0
   10.1665   21.0223   -1.3301 C   0  0  0  0  0  0  0  0  0  0  0  0
    8.8760   20.4184   -1.5528 C   0  0  0  0  0  0  0  0  0  0  0  0
    8.4874   20.2180   -2.7588 O   0  0  0  0  0  0  0  0  0  0  0  0
    7.9728   20.0052   -0.5540 N   0  0  0  0  0  0  0  0  0  0  0  0
    8.1964   20.1344    0.4383 H   0  0  0  0  0  0  0  0  0  0  0  0
    6.6789   19.3758   -0.8949 C   0  0  0  0  0  0  0  0  0  0  0  0
    6.8684   17.9258   -0.8012 C   0  0  0  0  0  0  0  0  0  0  0  0
    5.7941   17.0278   -0.9446 N   0  0  0  0  0  0  0  0  0  0  0  0
    8.0012   17.4379   -0.5837 O   0  0  0  0  0  0  0  0  0  0  0  0
    5.9456   16.0843   -1.3813 H   0  0  0  0  0  0  0  0  0  0  0  0
    4.8255   17.2310   -0.6436 H   0  0  0  0  0  0  0  0  0  0  0  0
    6.5130   19.7790   -2.3721 C   0  0  0  0  0  0  0  0  0  0  0  0
    5.1236   20.1202   -2.6966 C   0  0  0  0  0  0  0  0  0  0  0  0
    4.2232   19.2616   -3.2890 C   0  0  0  0  0  0  0  0  0  0  0  0
    2.9289   19.6064   -3.5972 C   0  0  0  0  0  0  0  0  0  0  0  0
    2.4687   20.8670   -3.3167 C   0  0  0  0  0  0  0  0  0  0  0  0
    3.3284   21.7653   -2.7242 C   0  0  0  0  0  0  0  0  0  0  0  0
    4.6191   21.4001   -2.4234 C   0  0  0  0  0  0  0  0  0  0  0  0
   11.2093   20.3107   -0.5423 C   0  0  0  0  0  0  0  0  0  0  0  0
   12.5750   20.2582   -1.0986 C   0  0  0  0  0  0  0  0  0  0  0  0
   13.4722   21.4178   -0.9366 C   0  0  0  0  0  0  0  0  0  0  0  0
   14.5681   21.1852    0.0887 C   0  0  0  0  0  0  0  0  0  0  0  0
   13.9545   20.8932    1.3675 N   0  0  0  0  0  0  0  0  0  0  0  0
   14.6333   20.9305    2.1508 H   0  0  0  0  0  0  0  0  0  0  0  0
   13.4248   20.0015    1.3014 H   0  0  0  0  0  0  0  0  0  0  0  0
   11.6324   24.5523    1.4298 C   0  0  0  0  0  0  0  0  0  0  0  0
   13.7846   24.8856    0.3459 C   0  0  0  0  0  0  0  0  0  0  0  0
   12.3336   25.3260    0.3543 C   0  0  0  0  0  0  0  0  0  0  0  0
   11.7944   25.0590   -1.0185 C   0  0  0  0  0  0  0  0  0  0  0  0
    7.0923   24.8003    4.0560 C   0  0  0  0  0  0  0  0  0  0  0  0
    8.0347   24.9058    5.1628 C   0  0  0  0  0  0  0  0  0  0  0  0
    8.7018   26.1508    5.4728 C   0  0  0  0  0  0  0  0  0  0  0  0
    9.3593   26.9284    4.4624 N   0  0  0  0  0  0  0  0  0  0  0  0
    8.7479   26.6256    6.6200 O   0  0  0  0  0  0  0  0  0  0  0  0
    9.2146   27.9584    4.4988 H   0  0  0  0  0  0  0  0  0  0  0  0
    9.9583   26.5450    3.7150 H   0  0  0  0  0  0  0  0  0  0  0  0
 71 72  1  0  0  0
 72 73  1  0  0  0
 72 70  1  0  0  0
 70 40  1  0  0  0
 40 36  1  0  0  0
 36 37  1  0  0  0
 37 38  2  0  0  0
 37  1  1  0  0  0
  1 74  1  0  0  0
 74 75  1  0  0  0
 75 76  1  0  0  0
 76 77  1  0  0  0
 76 78  2  0  0  0
  1  2  1  0  0  0
  2  3  1  0  0  0
  3  4  2  0  0  0
  3  6  1  0  0  0
  6 32  1  0  0  0
 32 33  1  0  0  0
 33 34  1  0  0  0
 33 35  1  0  0  0
  6  7  1  0  0  0
  7  8  1  0  0  0
  8  9  2  0  0  0
  8 11  1  0  0  0
 11 12  1  0  0  0
 12 13  1  0  0  0
 13 14  2  0  0  0
 13 16  1  0  0  0
 16 17  1  0  0  0
 16 20  1  0  0  0
 20 21  1  0  0  0
 21 22  2  0  0  0
 22 23  1  0  0  0
 23 24  2  0  0  0
 24 25  1  0  0  0
 24 26  1  0  0  0
 26 27  2  0  0  0
 11 29  1  0  0  0
 29 30  1  0  0  0
 29 31  1  0  0  0
 40 41  1  0  0  0
 41 42  2  0  0  0
 41 43  1  0  0  0
 43 45  1  0  0  0
 45 63  1  0  0  0
 63 64  1  0  0  0
 64 65  1  0  0  0
 65 66  1  0  0  0
 66 67  1  0  0  0
 45 46  1  0  0  0
 46 47  2  0  0  0
 46 48  1  0  0  0
 48 50  1  0  0  0
 50 56  1  0  0  0
 56 57  1  0  0  0
 57 58  2  0  0  0
 58 59  1  0  0  0
 59 60  2  0  0  0
 60 61  1  0  0  0
 61 62  2  0  0  0
 50 51  1  0  0  0
 51 52  1  0  0  0
 51 53  2  0  0  0
 27 21  1  0  0  0
 62 57  1  0  0  0
 36 39  1  0  0  0
 77 79  1  0  0  0
 77 80  1  0  0  0
  2  5  1  0  0  0
  7 10  1  0  0  0
 12 15  1  0  0  0
 17 18  1  0  0  0
 17 19  1  0  0  0
 25 28  1  0  0  0
 43 44  1  0  0  0
 67 68  1  0  0  0
 67 69  1  0  0  0
 48 49  1  0  0  0
 52 54  1  0  0  0
 52 55  1  0  0  0
M  END
> <minimizedAffinity>
-6.61924

> <CNNscore>
0.0694119558

> <CNNaffinity>
7.0353178978

> <CNN_VS>
0.4883351624

> <CNNaffinity_variance>
1.2150723934

$$$$
[H]Oc1c([H])c([H])c(C([H])([H])[C@@]([H])(C(=O)N([H])[C@]([H])(C(=O)N([H])[C@]([H])(C(=O)N([H])[C@]([H])(C(=O)N([H])[C@]([H])(C(=O)N([H])[C@]([H])(C(=O)N([H])[C@]([H])(C(=O)N([H])[H])C([H])([H])c2c([H])c([H])c([H])c([H])c2[H])C([H])([H])C([H])([H])C([H])([H])C([H])([H])N([H])[H])C([H])([H])C([H])(C([H])([H])[H])C([H])([H])[H])C([H])([H])C([H])([H])C(=O)N([H])[H])C([H])([H])C([H])(C([H])([H])[H])C([H])([H])[H])C([H])(C([H])([H])[H])C([H])([H])[H])N([H])[H])c([H])c1[H]


 80 81  0  0  0  0  0  0  0  0999 V2000
    5.8612   20.9414   -0.2394 C   0  0  0  0  0  0  0  0  0  0  0  0
    6.7669   21.9825    0.1509 N   0  0  0  0  0  0  0  0  0  0  0  0
    7.5217   21.8943    1.3251 C   0  0  0  0  0  0  0  0  0  0  0  0
    7.3955   20.8609    2.0462 O   0  0  0  0  0  0  0  0  0  0  0  0
    6.8513   22.7975   -0.4715 H   0  0  0  0  0  0  0  0  0  0  0  0
    8.4549   23.0091    1.7262 C   0  0  0  0  0  0  0  0  0  0  0  0
    9.6300   22.3199    2.3243 N   0  0  0  0  0  0  0  0  0  0  0  0
   10.1286   21.1627    1.6974 C   0  0  0  0  0  0  0  0  0  0  0  0
    9.5298   20.7919    0.6320 O   0  0  0  0  0  0  0  0  0  0  0  0
   10.0552   22.6882    3.1725 H   0  0  0  0  0  0  0  0  0  0  0  0
   11.2708   20.3354    2.1395 C   0  0  0  0  0  0  0  0  0  0  0  0
   12.4624   21.0703    1.7899 N   0  0  0  0  0  0  0  0  0  0  0  0
   13.0080   21.0710    0.4907 C   0  0  0  0  0  0  0  0  0  0  0  0
   12.4898   20.4265   -0.4452 O   0  0  0  0  0  0  0  0  0  0  0  0
   12.9355   21.6228    2.5377 H   0  0  0  0  0  0  0  0  0  0  0  0
   14.2472   21.8643    0.2061 C   0  0  0  0  0  0  0  0  0  0  0  0
   15.2718   21.6109    1.1859 N   0  0  0  0  0  0  0  0  0  0  0  0
   14.9509   21.9506    2.1141 H   0  0  0  0  0  0  0  0  0  0  0  0
   15.4750   20.5865    1.1810 H   0  0  0  0  0  0  0  0  0  0  0  0
   14.6919   21.6509   -1.2082 C   0  0  0  0  0  0  0  0  0  0  0  0
   14.6230   22.9311   -1.9911 C   0  0  0  0  0  0  0  0  0  0  0  0
   14.0173   24.0507   -1.4139 C   0  0  0  0  0  0  0  0  0  0  0  0
   13.9384   25.2256   -2.0995 C   0  0  0  0  0  0  0  0  0  0  0  0
   14.4567   25.3349   -3.3845 C   0  0  0  0  0  0  0  0  0  0  0  0
   14.3935   26.5140   -4.1136 O   0  0  0  0  0  0  0  0  0  0  0  0
   15.0559   24.2473   -3.9703 C   0  0  0  0  0  0  0  0  0  0  0  0
   15.1279   23.0604   -3.2592 C   0  0  0  0  0  0  0  0  0  0  0  0
   15.1860   27.1577   -3.9970 H   0  0  0  0  0  0  0  0  0  0  0  0
   11.1808   20.0141    3.5928 C   0  0  0  0  0  0  0  0  0  0  0  0
   11.6117   21.1481    4.4693 C   0  0  0  0  0  0  0  0  0  0  0  0
   12.0628   18.7881    3.8459 C   0  0  0  0  0  0  0  0  0  0  0  0
    8.9756   23.7989    0.5924 C   0  0  0  0  0  0  0  0  0  0  0  0
   10.4108   23.6403    0.2406 C   0  0  0  0  0  0  0  0  0  0  0  0
   11.1691   24.8366    0.8613 C   0  0  0  0  0  0  0  0  0  0  0  0
   10.6475   23.8209   -1.2581 C   0  0  0  0  0  0  0  0  0  0  0  0
    5.1072   19.5445    1.7405 N   0  0  0  0  0  0  0  0  0  0  0  0
    4.8804   20.5874    0.7876 C   0  0  0  0  0  0  0  0  0  0  0  0
    3.7981   21.2126    0.8498 O   0  0  0  0  0  0  0  0  0  0  0  0
    5.9834   18.9823    1.7471 H   0  0  0  0  0  0  0  0  0  0  0  0
    4.1002   19.2249    2.7470 C   0  0  0  0  0  0  0  0  0  0  0  0
    4.4953   19.7765    4.0764 C   0  0  0  0  0  0  0  0  0  0  0  0
    3.6535   19.7936    4.9884 O   0  0  0  0  0  0  0  0  0  0  0  0
    5.8029   20.2550    4.2543 N   0  0  0  0  0  0  0  0  0  0  0  0
    6.4863   20.2313    3.4847 H   0  0  0  0  0  0  0  0  0  0  0  0
    6.2113   20.8012    5.5696 C   0  0  0  0  0  0  0  0  0  0  0  0
    6.7153   22.1435    5.4146 C   0  0  0  0  0  0  0  0  0  0  0  0
    7.9312   22.3076    5.0399 O   0  0  0  0  0  0  0  0  0  0  0  0
    5.9877   23.3302    5.6302 N   0  0  0  0  0  0  0  0  0  0  0  0
    5.0109   23.2950    5.9399 H   0  0  0  0  0  0  0  0  0  0  0  0
    6.5993   24.6602    5.4212 C   0  0  0  0  0  0  0  0  0  0  0  0
    7.0749   25.1245    6.7273 C   0  0  0  0  0  0  0  0  0  0  0  0
    8.3021   24.6927    7.2646 N   0  0  0  0  0  0  0  0  0  0  0  0
    6.3954   25.9225    7.4127 O   0  0  0  0  0  0  0  0  0  0  0  0
    8.8746   25.3371    7.8652 H   0  0  0  0  0  0  0  0  0  0  0  0
    8.7040   23.7525    7.1078 H   0  0  0  0  0  0  0  0  0  0  0  0
    5.3834   25.5004    4.9876 C   0  0  0  0  0  0  0  0  0  0  0  0
    5.7838   26.7548    4.3411 C   0  0  0  0  0  0  0  0  0  0  0  0
    5.2886   27.9984    4.6681 C   0  0  0  0  0  0  0  0  0  0  0  0
    5.6677   29.1605    4.0396 C   0  0  0  0  0  0  0  0  0  0  0  0
    6.5875   29.1232    3.0237 C   0  0  0  0  0  0  0  0  0  0  0  0
    7.1144   27.9047    2.6567 C   0  0  0  0  0  0  0  0  0  0  0  0
    6.7224   26.7541    3.2987 C   0  0  0  0  0  0  0  0  0  0  0  0
    7.0007   19.7766    6.3052 C   0  0  0  0  0  0  0  0  0  0  0  0
    7.8405   18.8568    5.5139 C   0  0  0  0  0  0  0  0  0  0  0  0
    9.0114   18.2171    6.1426 C   0  0  0  0  0  0  0  0  0  0  0  0
    8.6443   17.0356    7.0233 C   0  0  0  0  0  0  0  0  0  0  0  0
    9.6530   16.8910    8.0521 N   0  0  0  0  0  0  0  0  0  0  0  0
    9.5792   15.9872    8.5556 H   0  0  0  0  0  0  0  0  0  0  0  0
    9.6407   17.7275    8.6686 H   0  0  0  0  0  0  0  0  0  0  0  0
    3.9869   17.7271    2.9334 C   0  0  0  0  0  0  0  0  0  0  0  0
    5.6401   16.3042    4.0104 C   0  0  0  0  0  0  0  0  0  0  0  0
    5.2786   16.9994    2.7121 C   0  0  0  0  0  0  0  0  0  0  0  0
    5.1883   15.9327    1.6630 C   0  0  0  0  0  0  0  0  0  0  0  0
    6.4774   19.8052   -0.9709 C   0  0  0  0  0  0  0  0  0  0  0  0
    5.6894   18.9406   -1.8403 C   0  0  0  0  0  0  0  0  0  0  0  0
    4.5738   19.4512   -2.6057 C   0  0  0  0  0  0  0  0  0  0  0  0
    4.7617   20.1299   -3.8555 N   0  0  0  0  0  0  0  0  0  0  0  0
    3.3926   19.3361   -2.2379 O   0  0  0  0  0  0  0  0  0  0  0  0
    4.1029   19.8847   -4.6230 H   0  0  0  0  0  0  0  0  0  0  0  0
    5.4909   20.8350   -4.0437 H   0  0  0  0  0  0  0  0  0  0  0  0
 71 72  1  0  0  0
 72 73  1  0  0  0
 72 70  1  0  0  0
 70 40  1  0  0  0
 40 36  1  0  0  0
 36 37  1  0  0  0
 37 38  2  0  0  0
 37  1  1  0  0  0
  1 74  1  0  0  0
 74 75  1  0  0  0
 75 76  1  0  0  0
 76 77  1  0  0  0
 76 78  2  0  0  0
  1  2  1  0  0  0
  2  3  1  0  0  0
  3  4  2  0  0  0
  3  6  1  0  0  0
  6 32  1  0  0  0
 32 33  1  0  0  0
 33 34  1  0  0  0
 33 35  1  0  0  0
  6  7  1  0  0  0
  7  8  1  0  0  0
  8  9  2  0  0  0
  8 11  1  0  0  0
 11 12  1  0  0  0
 12 13  1  0  0  0
 13 14  2  0  0  0
 13 16  1  0  0  0
 16 17  1  0  0  0
 16 20  1  0  0  0
 20 21  1  0  0  0
 21 22  2  0  0  0
 22 23  1  0  0  0
 23 24  2  0  0  0
 24 25  1  0  0  0
 24 26  1  0  0  0
 26 27  2  0  0  0
 11 29  1  0  0  0
 29 30  1  0  0  0
 29 31  1  0  0  0
 40 41  1  0  0  0
 41 42  2  0  0  0
 41 43  1  0  0  0
 43 45  1  0  0  0
 45 63  1  0  0  0
 63 64  1  0  0  0
 64 65  1  0  0  0
 65 66  1  0  0  0
 66 67  1  0  0  0
 45 46  1  0  0  0
 46 47  2  0  0  0
 46 48  1  0  0  0
 48 50  1  0  0  0
 50 56  1  0  0  0
 56 57  1  0  0  0
 57 58  2  0  0  0
 58 59  1  0  0  0
 59 60  2  0  0  0
 60 61  1  0  0  0
 61 62  2  0  0  0
 50 51  1  0  0  0
 51 52  1  0  0  0
 51 53  2  0  0  0
 27 21  1  0  0  0
 62 57  1  0  0  0
 36 39  1  0  0  0
 77 79  1  0  0  0
 77 80  1  0  0  0
  2  5  1  0  0  0
  7 10  1  0  0  0
 12 15  1  0  0  0
 17 18  1  0  0  0
 17 19  1  0  0  0
 25 28  1  0  0  0
 43 44  1  0  0  0
 67 68  1  0  0  0
 67 69  1  0  0  0
 48 49  1  0  0  0
 52 54  1  0  0  0
 52 55  1  0  0  0
M  END
> <minimizedAffinity>
-8.40517

> <CNNscore>
0.0648561269

> <CNNaffinity>
7.4438924789

> <CNN_VS>
0.4827820361

> <CNNaffinity_variance>
1.6125633717

$$$$
[H]Oc1c([H])c([H])c(C([H])([H])[C@@]([H])(C(=O)N([H])[C@]([H])(C(=O)N([H])[C@]([H])(C(=O)N([H])[C@]([H])(C(=O)N([H])[C@]([H])(C(=O)N([H])[C@]([H])(C(=O)N([H])[C@]([H])(C(=O)N([H])[H])C([H])([H])c2c([H])c([H])c([H])c([H])c2[H])C([H])([H])C([H])([H])C([H])([H])C([H])([H])N([H])[H])C([H])([H])C([H])(C([H])([H])[H])C([H])([H])[H])C([H])([H])C([H])([H])C(=O)N([H])[H])C([H])([H])C([H])(C([H])([H])[H])C([H])([H])[H])C([H])(C([H])([H])[H])C([H])([H])[H])N([H])[H])c([H])c1[H]


 80 81  0  0  0  0  0  0  0  0999 V2000
    5.1000   21.4303   -0.6145 C   0  0  0  0  0  0  0  0  0  0  0  0
    6.2160   22.1646   -0.0933 N   0  0  0  0  0  0  0  0  0  0  0  0
    7.4088   21.5279    0.2648 C   0  0  0  0  0  0  0  0  0  0  0  0
    7.4910   20.2733    0.1127 O   0  0  0  0  0  0  0  0  0  0  0  0
    6.1131   23.1842   -0.0008 H   0  0  0  0  0  0  0  0  0  0  0  0
    8.5639   22.3169    0.8283 C   0  0  0  0  0  0  0  0  0  0  0  0
    9.6752   21.3335    0.9355 N   0  0  0  0  0  0  0  0  0  0  0  0
   10.2667   21.1135    2.1934 C   0  0  0  0  0  0  0  0  0  0  0  0
    9.7847   21.7791    3.1711 O   0  0  0  0  0  0  0  0  0  0  0  0
    9.9935   20.8369    0.1060 H   0  0  0  0  0  0  0  0  0  0  0  0
   11.3817   20.1936    2.5017 C   0  0  0  0  0  0  0  0  0  0  0  0
   12.5877   20.8626    2.0773 N   0  0  0  0  0  0  0  0  0  0  0  0
   12.9835   20.9444    0.7274 C   0  0  0  0  0  0  0  0  0  0  0  0
   12.3091   20.4349   -0.1921 O   0  0  0  0  0  0  0  0  0  0  0  0
   13.1884   21.3022    2.8082 H   0  0  0  0  0  0  0  0  0  0  0  0
   14.2491   21.6613    0.3667 C   0  0  0  0  0  0  0  0  0  0  0  0
   15.3219   21.3211    1.2652 N   0  0  0  0  0  0  0  0  0  0  0  0
   15.0913   21.6612    2.2198 H   0  0  0  0  0  0  0  0  0  0  0  0
   15.4558   20.2860    1.2286 H   0  0  0  0  0  0  0  0  0  0  0  0
   14.5765   21.4496   -1.0795 C   0  0  0  0  0  0  0  0  0  0  0  0
   14.6532   22.7602   -1.8096 C   0  0  0  0  0  0  0  0  0  0  0  0
   14.3398   23.9391   -1.1274 C   0  0  0  0  0  0  0  0  0  0  0  0
   14.3988   25.1431   -1.7629 C   0  0  0  0  0  0  0  0  0  0  0  0
   14.7702   25.2238   -3.0997 C   0  0  0  0  0  0  0  0  0  0  0  0
   14.8401   26.4313   -3.7802 O   0  0  0  0  0  0  0  0  0  0  0  0
   15.0821   24.0778   -3.7887 C   0  0  0  0  0  0  0  0  0  0  0  0
   15.0173   22.8621   -3.1274 C   0  0  0  0  0  0  0  0  0  0  0  0
   15.7465   26.9142   -3.7470 H   0  0  0  0  0  0  0  0  0  0  0  0
   11.3931   19.8150    3.9439 C   0  0  0  0  0  0  0  0  0  0  0  0
   11.9032   20.9077    4.8303 C   0  0  0  0  0  0  0  0  0  0  0  0
   12.2732   18.5697    4.0832 C   0  0  0  0  0  0  0  0  0  0  0  0
    9.0514   23.3920   -0.0589 C   0  0  0  0  0  0  0  0  0  0  0  0
   10.5163   23.4844   -0.2927 C   0  0  0  0  0  0  0  0  0  0  0  0
   11.0900   24.4474    0.7725 C   0  0  0  0  0  0  0  0  0  0  0  0
   10.8338   24.1945   -1.6078 C   0  0  0  0  0  0  0  0  0  0  0  0
    4.8619   19.7312    1.2552 N   0  0  0  0  0  0  0  0  0  0  0  0
    4.3092   20.7417    0.4065 C   0  0  0  0  0  0  0  0  0  0  0  0
    3.1027   21.0380    0.5573 O   0  0  0  0  0  0  0  0  0  0  0  0
    5.8569   19.4332    1.1849 H   0  0  0  0  0  0  0  0  0  0  0  0
    4.0354   19.0700    2.2598 C   0  0  0  0  0  0  0  0  0  0  0  0
    4.4681   19.4610    3.6337 C   0  0  0  0  0  0  0  0  0  0  0  0
    3.9803   20.4820    4.1439 O   0  0  0  0  0  0  0  0  0  0  0  0
    5.4082   18.6635    4.3048 N   0  0  0  0  0  0  0  0  0  0  0  0
    5.8004   17.8200    3.8637 H   0  0  0  0  0  0  0  0  0  0  0  0
    5.8441   19.0363    5.6710 C   0  0  0  0  0  0  0  0  0  0  0  0
    6.9600   19.9474    5.6045 C   0  0  0  0  0  0  0  0  0  0  0  0
    7.8342   19.7875    4.6794 O   0  0  0  0  0  0  0  0  0  0  0  0
    7.1938   21.0334    6.4707 N   0  0  0  0  0  0  0  0  0  0  0  0
    6.5513   21.2317    7.2449 H   0  0  0  0  0  0  0  0  0  0  0  0
    8.3643   21.9204    6.2992 C   0  0  0  0  0  0  0  0  0  0  0  0
    9.3290   21.5656    7.3436 C   0  0  0  0  0  0  0  0  0  0  0  0
    9.8901   22.5367    8.1940 N   0  0  0  0  0  0  0  0  0  0  0  0
    9.6901   20.3779    7.5091 O   0  0  0  0  0  0  0  0  0  0  0  0
   10.1311   22.2964    9.1880 H   0  0  0  0  0  0  0  0  0  0  0  0
   10.0914   23.5102    7.9079 H   0  0  0  0  0  0  0  0  0  0  0  0
    7.7585   23.3029    6.6058 C   0  0  0  0  0  0  0  0  0  0  0  0
    7.8165   24.1986    5.4456 C   0  0  0  0  0  0  0  0  0  0  0  0
    6.7266   24.8311    4.8880 C   0  0  0  0  0  0  0  0  0  0  0  0
    6.8013   25.6562    3.7913 C   0  0  0  0  0  0  0  0  0  0  0  0
    8.0101   25.8881    3.1875 C   0  0  0  0  0  0  0  0  0  0  0  0
    9.1323   25.2798    3.7050 C   0  0  0  0  0  0  0  0  0  0  0  0
    9.0360   24.4586    4.8032 C   0  0  0  0  0  0  0  0  0  0  0  0
    5.9144   17.8139    6.5166 C   0  0  0  0  0  0  0  0  0  0  0  0
    6.7204   16.6811    6.0221 C   0  0  0  0  0  0  0  0  0  0  0  0
    7.7717   16.1056    6.8819 C   0  0  0  0  0  0  0  0  0  0  0  0
    8.7042   17.1525    7.4657 C   0  0  0  0  0  0  0  0  0  0  0  0
    9.5358   17.6789    6.4036 N   0  0  0  0  0  0  0  0  0  0  0  0
   10.3307   18.2398    6.7632 H   0  0  0  0  0  0  0  0  0  0  0  0
    8.9400   18.1746    5.7112 H   0  0  0  0  0  0  0  0  0  0  0  0
    4.1992   17.5673    2.1823 C   0  0  0  0  0  0  0  0  0  0  0  0
    5.7829   15.9121    1.3637 C   0  0  0  0  0  0  0  0  0  0  0  0
    4.9443   17.1108    0.9643 C   0  0  0  0  0  0  0  0  0  0  0  0
    4.0467   16.6575   -0.1471 C   0  0  0  0  0  0  0  0  0  0  0  0
    5.3699   20.6626   -1.8571 C   0  0  0  0  0  0  0  0  0  0  0  0
    4.2876   20.1193   -2.6681 C   0  0  0  0  0  0  0  0  0  0  0  0
    3.3059   20.9776   -3.2931 C   0  0  0  0  0  0  0  0  0  0  0  0
    2.3270   20.4655   -4.2083 N   0  0  0  0  0  0  0  0  0  0  0  0
    3.2438   22.2002   -3.0807 O   0  0  0  0  0  0  0  0  0  0  0  0
    1.3566   20.8267   -4.1035 H   0  0  0  0  0  0  0  0  0  0  0  0
    2.5146   19.7770   -4.9533 H   0  0  0  0  0  0  0  0  0  0  0  0
 71 72  1  0  0  0
 72 73  1  0  0  0
 72 70  1  0  0  0
 70 40  1  0  0  0
 40 36  1  0  0  0
 36 37  1  0  0  0
 37 38  2  0  0  0
 37  1  1  0  0  0
  1 74  1  0  0  0
 74 75  1  0  0  0
 75 76  1  0  0  0
 76 77  1  0  0  0
 76 78  2  0  0  0
  1  2  1  0  0  0
  2  3  1  0  0  0
  3  4  2  0  0  0
  3  6  1  0  0  0
  6 32  1  0  0  0
 32 33  1  0  0  0
 33 34  1  0  0  0
 33 35  1  0  0  0
  6  7  1  0  0  0
  7  8  1  0  0  0
  8  9  2  0  0  0
  8 11  1  0  0  0
 11 12  1  0  0  0
 12 13  1  0  0  0
 13 14  2  0  0  0
 13 16  1  0  0  0
 16 17  1  0  0  0
 16 20  1  0  0  0
 20 21  1  0  0  0
 21 22  2  0  0  0
 22 23  1  0  0  0
 23 24  2  0  0  0
 24 25  1  0  0  0
 24 26  1  0  0  0
 26 27  2  0  0  0
 11 29  1  0  0  0
 29 30  1  0  0  0
 29 31  1  0  0  0
 40 41  1  0  0  0
 41 42  2  0  0  0
 41 43  1  0  0  0
 43 45  1  0  0  0
 45 63  1  0  0  0
 63 64  1  0  0  0
 64 65  1  0  0  0
 65 66  1  0  0  0
 66 67  1  0  0  0
 45 46  1  0  0  0
 46 47  2  0  0  0
 46 48  1  0  0  0
 48 50  1  0  0  0
 50 56  1  0  0  0
 56 57  1  0  0  0
 57 58  2  0  0  0
 58 59  1  0  0  0
 59 60  2  0  0  0
 60 61  1  0  0  0
 61 62  2  0  0  0
 50 51  1  0  0  0
 51 52  1  0  0  0
 51 53  2  0  0  0
 27 21  1  0  0  0
 62 57  1  0  0  0
 36 39  1  0  0  0
 77 79  1  0  0  0
 77 80  1  0  0  0
  2  5  1  0  0  0
  7 10  1  0  0  0
 12 15  1  0  0  0
 17 18  1  0  0  0
 17 19  1  0  0  0
 25 28  1  0  0  0
 43 44  1  0  0  0
 67 68  1  0  0  0
 67 69  1  0  0  0
 48 49  1  0  0  0
 52 54  1  0  0  0
 52 55  1  0  0  0
M  END
> <minimizedAffinity>
-7.84972

> <CNNscore>
0.0617341399

> <CNNaffinity>
7.5956330299

> <CNN_VS>
0.4689098597

> <CNNaffinity_variance>
1.2260030508

$$$$
[H]Oc1c([H])c([H])c(C([H])([H])[C@@]([H])(C(=O)N([H])[C@]([H])(C(=O)N([H])[C@]([H])(C(=O)N([H])[C@]([H])(C(=O)N([H])[C@]([H])(C(=O)N([H])[C@]([H])(C(=O)N([H])[C@]([H])(C(=O)N([H])[H])C([H])([H])c2c([H])c([H])c([H])c([H])c2[H])C([H])([H])C([H])([H])C([H])([H])C([H])([H])N([H])[H])C([H])([H])C([H])(C([H])([H])[H])C([H])([H])[H])C([H])([H])C([H])([H])C(=O)N([H])[H])C([H])([H])C([H])(C([H])([H])[H])C([H])([H])[H])C([H])(C([H])([H])[H])C([H])([H])[H])N([H])[H])c([H])c1[H]


 80 81  0  0  0  0  0  0  0  0999 V2000
    8.2940   23.4381    5.1236 C   0  0  0  0  0  0  0  0  0  0  0  0
    6.9958   23.0619    5.6026 N   0  0  0  0  0  0  0  0  0  0  0  0
    6.1394   23.9906    6.2031 C   0  0  0  0  0  0  0  0  0  0  0  0
    6.5325   25.1895    6.3128 O   0  0  0  0  0  0  0  0  0  0  0  0
    6.7090   22.0815    5.4794 H   0  0  0  0  0  0  0  0  0  0  0  0
    4.7853   23.5697    6.7165 C   0  0  0  0  0  0  0  0  0  0  0  0
    4.8056   22.0832    6.6580 N   0  0  0  0  0  0  0  0  0  0  0  0
    3.7001   21.4115    6.1035 C   0  0  0  0  0  0  0  0  0  0  0  0
    2.7488   22.1457    5.6708 O   0  0  0  0  0  0  0  0  0  0  0  0
    5.6098   21.5733    7.0174 H   0  0  0  0  0  0  0  0  0  0  0  0
    3.5260   19.9501    5.9670 C   0  0  0  0  0  0  0  0  0  0  0  0
    3.5749   19.6668    4.5529 N   0  0  0  0  0  0  0  0  0  0  0  0
    4.6711   20.0161    3.7394 C   0  0  0  0  0  0  0  0  0  0  0  0
    5.6754   20.6008    4.1972 O   0  0  0  0  0  0  0  0  0  0  0  0
    2.7584   19.1822    4.1208 H   0  0  0  0  0  0  0  0  0  0  0  0
    4.6477   19.6830    2.2785 C   0  0  0  0  0  0  0  0  0  0  0  0
    3.3028   19.6626    1.7640 N   0  0  0  0  0  0  0  0  0  0  0  0
    2.7735   18.8913    2.2169 H   0  0  0  0  0  0  0  0  0  0  0  0
    2.8771   20.5998    1.9400 H   0  0  0  0  0  0  0  0  0  0  0  0
    5.5750   20.5834    1.5214 C   0  0  0  0  0  0  0  0  0  0  0  0
    5.3569   20.4553    0.0407 C   0  0  0  0  0  0  0  0  0  0  0  0
    5.8111   19.3094   -0.6180 C   0  0  0  0  0  0  0  0  0  0  0  0
    5.6292   19.1648   -1.9608 C   0  0  0  0  0  0  0  0  0  0  0  0
    4.9904   20.1520   -2.7018 C   0  0  0  0  0  0  0  0  0  0  0  0
    4.7884   20.0406   -4.0703 O   0  0  0  0  0  0  0  0  0  0  0  0
    4.5364   21.2858   -2.0745 C   0  0  0  0  0  0  0  0  0  0  0  0
    4.7293   21.4166   -0.7088 C   0  0  0  0  0  0  0  0  0  0  0  0
    3.9112   19.5908   -4.3602 H   0  0  0  0  0  0  0  0  0  0  0  0
    4.5491   19.2035    6.7540 C   0  0  0  0  0  0  0  0  0  0  0  0
    4.7180   17.7881    6.2979 C   0  0  0  0  0  0  0  0  0  0  0  0
    4.1108   19.2355    8.2209 C   0  0  0  0  0  0  0  0  0  0  0  0
    4.5384   23.9214    8.1293 C   0  0  0  0  0  0  0  0  0  0  0  0
    3.4207   24.8556    8.4240 C   0  0  0  0  0  0  0  0  0  0  0  0
    2.1169   24.0242    8.4234 C   0  0  0  0  0  0  0  0  0  0  0  0
    3.1989   25.8475    7.2831 C   0  0  0  0  0  0  0  0  0  0  0  0
    9.7087   23.3158    3.0204 N   0  0  0  0  0  0  0  0  0  0  0  0
    8.4344   23.3762    3.6681 C   0  0  0  0  0  0  0  0  0  0  0  0
    7.4106   23.3728    2.9484 O   0  0  0  0  0  0  0  0  0  0  0  0
   10.6017   23.3163    3.5555 H   0  0  0  0  0  0  0  0  0  0  0  0
    9.8012   23.2560    1.5653 C   0  0  0  0  0  0  0  0  0  0  0  0
   10.8561   22.2866    1.1471 C   0  0  0  0  0  0  0  0  0  0  0  0
   10.6065   21.4963    0.2231 O   0  0  0  0  0  0  0  0  0  0  0  0
   12.0945   22.3000    1.8078 N   0  0  0  0  0  0  0  0  0  0  0  0
   12.2815   22.9643    2.5719 H   0  0  0  0  0  0  0  0  0  0  0  0
   13.1532   21.3468    1.4009 C   0  0  0  0  0  0  0  0  0  0  0  0
   13.8436   21.8401    0.2348 C   0  0  0  0  0  0  0  0  0  0  0  0
   13.9358   21.0817   -0.7957 O   0  0  0  0  0  0  0  0  0  0  0  0
   14.4388   23.1098    0.1015 N   0  0  0  0  0  0  0  0  0  0  0  0
   14.4212   23.7790    0.8782 H   0  0  0  0  0  0  0  0  0  0  0  0
   15.1066   23.5223   -1.1517 C   0  0  0  0  0  0  0  0  0  0  0  0
   15.9816   24.6503   -0.8211 C   0  0  0  0  0  0  0  0  0  0  0  0
   15.9636   25.2535    0.4504 N   0  0  0  0  0  0  0  0  0  0  0  0
   16.7752   25.1188   -1.6692 O   0  0  0  0  0  0  0  0  0  0  0  0
   16.8446   25.6516    0.8616 H   0  0  0  0  0  0  0  0  0  0  0  0
   15.1171   25.3388    1.0389 H   0  0  0  0  0  0  0  0  0  0  0  0
   13.9165   24.0227   -1.9917 C   0  0  0  0  0  0  0  0  0  0  0  0
   14.3527   24.6573   -3.2403 C   0  0  0  0  0  0  0  0  0  0  0  0
   13.9384   25.8972   -3.6761 C   0  0  0  0  0  0  0  0  0  0  0  0
   14.3492   26.4678   -4.8570 C   0  0  0  0  0  0  0  0  0  0  0  0
   15.2193   25.7974   -5.6775 C   0  0  0  0  0  0  0  0  0  0  0  0
   15.6647   24.5533   -5.2891 C   0  0  0  0  0  0  0  0  0  0  0  0
   15.2421   24.0006   -4.1035 C   0  0  0  0  0  0  0  0  0  0  0  0
   12.6073   19.9628    1.4283 C   0  0  0  0  0  0  0  0  0  0  0  0
   12.1790   19.4181    2.7311 C   0  0  0  0  0  0  0  0  0  0  0  0
   11.7751   20.3409    3.8086 C   0  0  0  0  0  0  0  0  0  0  0  0
   10.7497   19.7407    4.7545 C   0  0  0  0  0  0  0  0  0  0  0  0
   11.0201   18.3253    4.8966 N   0  0  0  0  0  0  0  0  0  0  0  0
   10.2419   17.8170    5.3569 H   0  0  0  0  0  0  0  0  0  0  0  0
   11.9457   18.1939    5.3506 H   0  0  0  0  0  0  0  0  0  0  0  0
   10.2187   24.5968    1.0005 C   0  0  0  0  0  0  0  0  0  0  0  0
   10.9048   24.6147   -1.3334 C   0  0  0  0  0  0  0  0  0  0  0  0
   11.4094   24.5169    0.0933 C   0  0  0  0  0  0  0  0  0  0  0  0
   12.3801   25.6427    0.2851 C   0  0  0  0  0  0  0  0  0  0  0  0
    9.4382   22.9124    5.9114 C   0  0  0  0  0  0  0  0  0  0  0  0
    9.2881   22.5242    7.3081 C   0  0  0  0  0  0  0  0  0  0  0  0
    8.8641   21.1933    7.6824 C   0  0  0  0  0  0  0  0  0  0  0  0
    9.7948   20.2066    8.1494 N   0  0  0  0  0  0  0  0  0  0  0  0
    7.6802   20.8205    7.6273 O   0  0  0  0  0  0  0  0  0  0  0  0
    9.4954   19.6314    8.9634 H   0  0  0  0  0  0  0  0  0  0  0  0
   10.7248   20.0277    7.7401 H   0  0  0  0  0  0  0  0  0  0  0  0
 71 72  1  0  0  0
 72 73  1  0  0  0
 72 70  1  0  0  0
 70 40  1  0  0  0
 40 36  1  0  0  0
 36 37  1  0  0  0
 37 38  2  0  0  0
 37  1  1  0  0  0
  1 74  1  0  0  0
 74 75  1  0  0  0
 75 76  1  0  0  0
 76 77  1  0  0  0
 76 78  2  0  0  0
  1  2  1  0  0  0
  2  3  1  0  0  0
  3  4  2  0  0  0
  3  6  1  0  0  0
  6 32  1  0  0  0
 32 33  1  0  0  0
 33 34  1  0  0  0
 33 35  1  0  0  0
  6  7  1  0  0  0
  7  8  1  0  0  0
  8  9  2  0  0  0
  8 11  1  0  0  0
 11 12  1  0  0  0
 12 13  1  0  0  0
 13 14  2  0  0  0
 13 16  1  0  0  0
 16 17  1  0  0  0
 16 20  1  0  0  0
 20 21  1  0  0  0
 21 22  2  0  0  0
 22 23  1  0  0  0
 23 24  2  0  0  0
 24 25  1  0  0  0
 24 26  1  0  0  0
 26 27  2  0  0  0
 11 29  1  0  0  0
 29 30  1  0  0  0
 29 31  1  0  0  0
 40 41  1  0  0  0
 41 42  2  0  0  0
 41 43  1  0  0  0
 43 45  1  0  0  0
 45 63  1  0  0  0
 63 64  1  0  0  0
 64 65  1  0  0  0
 65 66  1  0  0  0
 66 67  1  0  0  0
 45 46  1  0  0  0
 46 47  2  0  0  0
 46 48  1  0  0  0
 48 50  1  0  0  0
 50 56  1  0  0  0
 56 57  1  0  0  0
 57 58  2  0  0  0
 58 59  1  0  0  0
 59 60  2  0  0  0
 60 61  1  0  0  0
 61 62  2  0  0  0
 50 51  1  0  0  0
 51 52  1  0  0  0
 51 53  2  0  0  0
 27 21  1  0  0  0
 62 57  1  0  0  0
 36 39  1  0  0  0
 77 79  1  0  0  0
 77 80  1  0  0  0
  2  5  1  0  0  0
  7 10  1  0  0  0
 12 15  1  0  0  0
 17 18  1  0  0  0
 17 19  1  0  0  0
 25 28  1  0  0  0
 43 44  1  0  0  0
 67 68  1  0  0  0
 67 69  1  0  0  0
 48 49  1  0  0  0
 52 54  1  0  0  0
 52 55  1  0  0  0
M  END
> <minimizedAffinity>
-7.22072

> <CNNscore>
0.0599540547

> <CNNaffinity>
7.3046593666

> <CNN_VS>
0.4379439354

> <CNNaffinity_variance>
0.7711318135

$$$$
[H]c1nc(C([H])([H])[H])oc1-c1c(N([H])[H])nc([H])c(-c2c([H])c(S(=O)(=O)N([H])C([H])([H])C(C([H])([H])[H])(C([H])([H])[H])C([H])([H])[H])c([H])c([H])c2C([H])([H])[H])c1[H]


 32 34  0  0  0  0  0  0  0  0999 V2000
   14.6421   23.7436   -2.4018 C   0  0  0  0  0  0  0  0  0  0  0  0
   13.8595   23.6550   -1.2563 C   0  0  0  0  0  0  0  0  0  0  0  0
   13.0535   22.5858   -0.9488 C   0  0  0  0  0  0  0  0  0  0  0  0
   13.0366   21.5442   -1.8512 C   0  0  0  0  0  0  0  0  0  0  0  0
   13.7989   21.5928   -3.0015 C   0  0  0  0  0  0  0  0  0  0  0  0
   14.6078   22.7007   -3.2797 C   0  0  0  0  0  0  0  0  0  0  0  0
   15.3771   22.6810   -4.5426 C   0  0  0  0  0  0  0  0  0  0  0  0
   16.1492   26.7474   -4.0251 C   0  0  0  0  0  0  0  0  0  0  0  0
   15.3643   25.6347   -3.8043 C   0  0  0  0  0  0  0  0  0  0  0  0
   15.4823   24.9005   -2.6474 C   0  0  0  0  0  0  0  0  0  0  0  0
   16.3963   25.2922   -1.7109 C   0  0  0  0  0  0  0  0  0  0  0  0
   17.1512   26.3783   -1.9444 N   0  0  0  0  0  0  0  0  0  0  0  0
   17.0565   27.0999   -3.0479 C   0  0  0  0  0  0  0  0  0  0  0  0
   17.9082   28.2565   -3.2208 N   0  0  0  0  0  0  0  0  0  0  0  0
   17.6079   29.2025   -2.9018 H   0  0  0  0  0  0  0  0  0  0  0  0
   18.8259   28.0848   -3.6772 H   0  0  0  0  0  0  0  0  0  0  0  0
   16.0049   30.6045   -7.1537 C   0  0  0  0  0  0  0  0  0  0  0  0
   15.9681   29.2054   -6.6151 C   0  0  0  0  0  0  0  0  0  0  0  0
   15.7629   28.1013   -7.3667 N   0  0  0  0  0  0  0  0  0  0  0  0
   15.8016   27.0395   -6.5126 C   0  0  0  0  0  0  0  0  0  0  0  0
   16.0322   27.5324   -5.2473 C   0  0  0  0  0  0  0  0  0  0  0  0
   16.1215   28.8164   -5.3706 O   0  0  0  0  0  0  0  0  0  0  0  0
   12.0864   22.5202    0.5060 S   0  0  0  0  0  0  0  0  0  0  0  0
   10.9031   21.6416    0.2117 O   0  0  0  0  0  0  0  0  0  0  0  0
   11.5471   23.8747    0.8658 O   0  0  0  0  0  0  0  0  0  0  0  0
   12.9488   21.8054    1.8111 N   0  0  0  0  0  0  0  0  0  0  0  0
   13.7700   22.4200    2.0060 H   0  0  0  0  0  0  0  0  0  0  0  0
   13.4851   20.5012    1.4604 C   0  0  0  0  0  0  0  0  0  0  0  0
   14.9015   20.7343    0.9667 C   0  0  0  0  0  0  0  0  0  0  0  0
   15.9130   19.9800    1.7942 C   0  0  0  0  0  0  0  0  0  0  0  0
   15.1741   22.2172    1.1087 C   0  0  0  0  0  0  0  0  0  0  0  0
   15.0481   20.3498   -0.4888 C   0  0  0  0  0  0  0  0  0  0  0  0
 17 18  1  0  0  0
 18 19  2  0  0  0
 19 20  1  0  0  0
 20 21  2  0  0  0
 21 22  1  0  0  0
 21  8  1  0  0  0
  8  9  2  0  0  0
  9 10  1  0  0  0
 10 11  2  0  0  0
 11 12  1  0  0  0
 12 13  2  0  0  0
 13 14  1  0  0  0
 10  1  1  0  0  0
  1  2  2  0  0  0
  2  3  1  0  0  0
  3  4  2  0  0  0
  4  5  1  0  0  0
  5  6  2  0  0  0
  6  7  1  0  0  0
  3 23  1  0  0  0
 23 24  2  0  0  0
 23 25  2  0  0  0
 23 26  1  0  0  0
 26 28  1  0  0  0
 28 29  1  0  0  0
 29 30  1  0  0  0
 29 31  1  0  0  0
 29 32  1  0  0  0
 22 18  1  0  0  0
 13  8  1  0  0  0
  6  1  1  0  0  0
 14 15  1  0  0  0
 14 16  1  0  0  0
 26 27  1  0  0  0
M  END
> <minimizedAffinity>
2.62117

> <CNNscore>
0.5320001841

> <CNNaffinity>
7.6876854897

> <CNN_VS>
4.0898499489

> <CNNaffinity_variance>
0.6539117098

$$$$
[H]c1nc(C([H])([H])[H])oc1-c1c(N([H])[H])nc([H])c(-c2c([H])c(S(=O)(=O)N([H])C([H])([H])C(C([H])([H])[H])(C([H])([H])[H])C([H])([H])[H])c([H])c([H])c2C([H])([H])[H])c1[H]


 32 34  0  0  0  0  0  0  0  0999 V2000
   14.0332   23.6006   -2.3329 C   0  0  0  0  0  0  0  0  0  0  0  0
   13.2958   23.6054   -1.1544 C   0  0  0  0  0  0  0  0  0  0  0  0
   13.0418   22.4896   -0.3943 C   0  0  0  0  0  0  0  0  0  0  0  0
   13.5632   21.2984   -0.8507 C   0  0  0  0  0  0  0  0  0  0  0  0
   14.3012   21.2502   -2.0168 C   0  0  0  0  0  0  0  0  0  0  0  0
   14.5381   22.4097   -2.7643 C   0  0  0  0  0  0  0  0  0  0  0  0
   15.3213   22.2671   -4.0106 C   0  0  0  0  0  0  0  0  0  0  0  0
   13.5148   26.9315   -3.9346 C   0  0  0  0  0  0  0  0  0  0  0  0
   13.2773   25.7569   -3.2514 C   0  0  0  0  0  0  0  0  0  0  0  0
   14.2736   24.8261   -3.0712 C   0  0  0  0  0  0  0  0  0  0  0  0
   15.5136   25.0834   -3.5829 C   0  0  0  0  0  0  0  0  0  0  0  0
   15.7249   26.2327   -4.2452 N   0  0  0  0  0  0  0  0  0  0  0  0
   14.7841   27.1424   -4.4314 C   0  0  0  0  0  0  0  0  0  0  0  0
   15.0956   28.3546   -5.1570 N   0  0  0  0  0  0  0  0  0  0  0  0
   15.4403   29.2067   -4.6650 H   0  0  0  0  0  0  0  0  0  0  0  0
   14.9554   28.3207   -6.1862 H   0  0  0  0  0  0  0  0  0  0  0  0
    9.3177   29.1177   -5.4483 C   0  0  0  0  0  0  0  0  0  0  0  0
   10.6423   28.8827   -4.7857 C   0  0  0  0  0  0  0  0  0  0  0  0
   11.2974   29.7988   -4.0388 N   0  0  0  0  0  0  0  0  0  0  0  0
   12.4505   29.2036   -3.6207 C   0  0  0  0  0  0  0  0  0  0  0  0
   12.4664   27.9244   -4.1312 C   0  0  0  0  0  0  0  0  0  0  0  0
   11.3738   27.7927   -4.8100 O   0  0  0  0  0  0  0  0  0  0  0  0
   12.1077   22.5458    1.0823 S   0  0  0  0  0  0  0  0  0  0  0  0
   12.3607   23.8851    1.7156 O   0  0  0  0  0  0  0  0  0  0  0  0
   12.5689   21.5047    2.0613 O   0  0  0  0  0  0  0  0  0  0  0  0
   10.4200   22.4318    0.7717 N   0  0  0  0  0  0  0  0  0  0  0  0
   10.2620   22.8036   -0.1911 H   0  0  0  0  0  0  0  0  0  0  0  0
    9.6430   23.2700    1.6691 C   0  0  0  0  0  0  0  0  0  0  0  0
    8.6692   22.3513    2.3846 C   0  0  0  0  0  0  0  0  0  0  0  0
    9.3378   21.5902    3.5028 C   0  0  0  0  0  0  0  0  0  0  0  0
    8.1722   21.3568    1.3562 C   0  0  0  0  0  0  0  0  0  0  0  0
    7.4859   23.1196    2.9300 C   0  0  0  0  0  0  0  0  0  0  0  0
 17 18  1  0  0  0
 18 19  2  0  0  0
 19 20  1  0  0  0
 20 21  2  0  0  0
 21 22  1  0  0  0
 21  8  1  0  0  0
  8  9  2  0  0  0
  9 10  1  0  0  0
 10 11  2  0  0  0
 11 12  1  0  0  0
 12 13  2  0  0  0
 13 14  1  0  0  0
 10  1  1  0  0  0
  1  2  2  0  0  0
  2  3  1  0  0  0
  3  4  2  0  0  0
  4  5  1  0  0  0
  5  6  2  0  0  0
  6  7  1  0  0  0
  3 23  1  0  0  0
 23 24  2  0  0  0
 23 25  2  0  0  0
 23 26  1  0  0  0
 26 28  1  0  0  0
 28 29  1  0  0  0
 29 30  1  0  0  0
 29 31  1  0  0  0
 29 32  1  0  0  0
 22 18  1  0  0  0
 13  8  1  0  0  0
  6  1  1  0  0  0
 14 15  1  0  0  0
 14 16  1  0  0  0
 26 27  1  0  0  0
M  END
> <minimizedAffinity>
4.14292

> <CNNscore>
0.4761466980

> <CNNaffinity>
7.4011139870

> <CNN_VS>
3.5240159035

> <CNNaffinity_variance>
0.9884001017

$$$$
[H]c1nc(C([H])([H])[H])oc1-c1c(N([H])[H])nc([H])c(-c2c([H])c(S(=O)(=O)N([H])C([H])([H])C(C([H])([H])[H])(C([H])([H])[H])C([H])([H])[H])c([H])c([H])c2C([H])([H])[H])c1[H]


 32 34  0  0  0  0  0  0  0  0999 V2000
   14.0233   22.7311   -1.7015 C   0  0  0  0  0  0  0  0  0  0  0  0
   13.0859   23.4412   -0.9602 C   0  0  0  0  0  0  0  0  0  0  0  0
   12.1918   22.8686   -0.0884 C   0  0  0  0  0  0  0  0  0  0  0  0
   12.2472   21.4978    0.0429 C   0  0  0  0  0  0  0  0  0  0  0  0
   13.1633   20.7552   -0.6756 C   0  0  0  0  0  0  0  0  0  0  0  0
   14.0582   21.3759   -1.5549 C   0  0  0  0  0  0  0  0  0  0  0  0
   14.9932   20.5055   -2.3001 C   0  0  0  0  0  0  0  0  0  0  0  0
   15.4233   24.5215   -4.6618 C   0  0  0  0  0  0  0  0  0  0  0  0
   14.5487   23.8553   -3.8287 C   0  0  0  0  0  0  0  0  0  0  0  0
   14.9472   23.4112   -2.5895 C   0  0  0  0  0  0  0  0  0  0  0  0
   16.2334   23.6412   -2.1914 C   0  0  0  0  0  0  0  0  0  0  0  0
   17.0698   24.2915   -3.0170 N   0  0  0  0  0  0  0  0  0  0  0  0
   16.7108   24.7278   -4.2120 C   0  0  0  0  0  0  0  0  0  0  0  0
   17.6747   25.4199   -5.0395 N   0  0  0  0  0  0  0  0  0  0  0  0
   17.7824   26.4559   -4.9941 H   0  0  0  0  0  0  0  0  0  0  0  0
   18.2447   24.8250   -5.6729 H   0  0  0  0  0  0  0  0  0  0  0  0
   13.1850   24.7848   -9.0898 C   0  0  0  0  0  0  0  0  0  0  0  0
   14.0414   25.1182   -7.9049 C   0  0  0  0  0  0  0  0  0  0  0  0
   14.8055   26.2281   -7.8010 N   0  0  0  0  0  0  0  0  0  0  0  0
   15.4222   26.1607   -6.5871 C   0  0  0  0  0  0  0  0  0  0  0  0
   15.0115   24.9963   -5.9766 C   0  0  0  0  0  0  0  0  0  0  0  0
   14.1978   24.4232   -6.8020 O   0  0  0  0  0  0  0  0  0  0  0  0
   11.0301   23.8047    0.8228 S   0  0  0  0  0  0  0  0  0  0  0  0
    9.7149   23.6999    0.1031 O   0  0  0  0  0  0  0  0  0  0  0  0
   11.4001   25.2599    0.8489 O   0  0  0  0  0  0  0  0  0  0  0  0
   10.8048   23.1715    2.4058 N   0  0  0  0  0  0  0  0  0  0  0  0
   11.3723   23.7620    3.0534 H   0  0  0  0  0  0  0  0  0  0  0  0
   11.3168   21.8171    2.5289 C   0  0  0  0  0  0  0  0  0  0  0  0
   10.3779   21.0834    3.4693 C   0  0  0  0  0  0  0  0  0  0  0  0
   11.1297   20.3746    4.5689 C   0  0  0  0  0  0  0  0  0  0  0  0
    9.6512   20.0466    2.6383 C   0  0  0  0  0  0  0  0  0  0  0  0
    9.3590   22.0230    4.0748 C   0  0  0  0  0  0  0  0  0  0  0  0
 17 18  1  0  0  0
 18 19  2  0  0  0
 19 20  1  0  0  0
 20 21  2  0  0  0
 21 22  1  0  0  0
 21  8  1  0  0  0
  8  9  2  0  0  0
  9 10  1  0  0  0
 10 11  2  0  0  0
 11 12  1  0  0  0
 12 13  2  0  0  0
 13 14  1  0  0  0
 10  1  1  0  0  0
  1  2  2  0  0  0
  2  3  1  0  0  0
  3  4  2  0  0  0
  4  5  1  0  0  0
  5  6  2  0  0  0
  6  7  1  0  0  0
  3 23  1  0  0  0
 23 24  2  0  0  0
 23 25  2  0  0  0
 23 26  1  0  0  0
 26 28  1  0  0  0
 28 29  1  0  0  0
 29 30  1  0  0  0
 29 31  1  0  0  0
 29 32  1  0  0  0
 22 18  1  0  0  0
 13  8  1  0  0  0
  6  1  1  0  0  0
 14 15  1  0  0  0
 14 16  1  0  0  0
 26 27  1  0  0  0
M  END
> <minimizedAffinity>
17.26059

> <CNNscore>
0.4319013953

> <CNNaffinity>
7.0969567299

> <CNN_VS>
3.0651855469

> <CNNaffinity_variance>
1.3543379307

$$$$
[H]c1nc(C([H])([H])[H])oc1-c1c(N([H])[H])nc([H])c(-c2c([H])c(S(=O)(=O)N([H])C([H])([H])C(C([H])([H])[H])(C([H])([H])[H])C([H])([H])[H])c([H])c([H])c2C([H])([H])[H])c1[H]


 32 34  0  0  0  0  0  0  0  0999 V2000
   13.6664   25.0486   -2.3996 C   0  0  0  0  0  0  0  0  0  0  0  0
   14.1267   23.7802   -2.0653 C   0  0  0  0  0  0  0  0  0  0  0  0
   13.4443   22.8927   -1.2690 C   0  0  0  0  0  0  0  0  0  0  0  0
   12.2248   23.3104   -0.7813 C   0  0  0  0  0  0  0  0  0  0  0  0
   11.7315   24.5628   -1.0894 C   0  0  0  0  0  0  0  0  0  0  0  0
   12.4574   25.4392   -1.9044 C   0  0  0  0  0  0  0  0  0  0  0  0
   11.8663   26.7687   -2.1691 C   0  0  0  0  0  0  0  0  0  0  0  0
   15.3853   26.4452   -5.4036 C   0  0  0  0  0  0  0  0  0  0  0  0
   14.6696   25.6016   -4.5796 C   0  0  0  0  0  0  0  0  0  0  0  0
   14.4387   25.9225   -3.2624 C   0  0  0  0  0  0  0  0  0  0  0  0
   14.9327   27.0998   -2.7766 C   0  0  0  0  0  0  0  0  0  0  0  0
   15.6272   27.9076   -3.5946 N   0  0  0  0  0  0  0  0  0  0  0  0
   15.8622   27.6214   -4.8635 C   0  0  0  0  0  0  0  0  0  0  0  0
   16.6199   28.5475   -5.6766 N   0  0  0  0  0  0  0  0  0  0  0  0
   16.1486   29.3039   -6.2176 H   0  0  0  0  0  0  0  0  0  0  0  0
   17.6502   28.4113   -5.6858 H   0  0  0  0  0  0  0  0  0  0  0  0
   17.4012   24.4657   -9.4906 C   0  0  0  0  0  0  0  0  0  0  0  0
   16.5071   25.2575   -8.5838 C   0  0  0  0  0  0  0  0  0  0  0  0
   15.4798   26.0283   -9.0044 N   0  0  0  0  0  0  0  0  0  0  0  0
   14.9229   26.5741   -7.8862 C   0  0  0  0  0  0  0  0  0  0  0  0
   15.6356   26.1148   -6.8007 C   0  0  0  0  0  0  0  0  0  0  0  0
   16.5577   25.3421   -7.2746 O   0  0  0  0  0  0  0  0  0  0  0  0
   14.0651   21.3065   -0.8761 S   0  0  0  0  0  0  0  0  0  0  0  0
   15.2283   21.5044    0.0548 O   0  0  0  0  0  0  0  0  0  0  0  0
   14.5945   20.6087   -2.0959 O   0  0  0  0  0  0  0  0  0  0  0  0
   12.8970   20.3538   -0.0480 N   0  0  0  0  0  0  0  0  0  0  0  0
   13.3463   19.4345    0.1600 H   0  0  0  0  0  0  0  0  0  0  0  0
   11.7396   20.0673   -0.8787 C   0  0  0  0  0  0  0  0  0  0  0  0
   10.5205   20.2071    0.0149 C   0  0  0  0  0  0  0  0  0  0  0  0
    9.6527   21.3691   -0.4015 C   0  0  0  0  0  0  0  0  0  0  0  0
   11.0343   20.4686    1.4154 C   0  0  0  0  0  0  0  0  0  0  0  0
    9.6978   18.9379    0.0275 C   0  0  0  0  0  0  0  0  0  0  0  0
 17 18  1  0  0  0
 18 19  2  0  0  0
 19 20  1  0  0  0
 20 21  2  0  0  0
 21 22  1  0  0  0
 21  8  1  0  0  0
  8  9  2  0  0  0
  9 10  1  0  0  0
 10 11  2  0  0  0
 11 12  1  0  0  0
 12 13  2  0  0  0
 13 14  1  0  0  0
 10  1  1  0  0  0
  1  2  2  0  0  0
  2  3  1  0  0  0
  3  4  2  0  0  0
  4  5  1  0  0  0
  5  6  2  0  0  0
  6  7  1  0  0  0
  3 23  1  0  0  0
 23 24  2  0  0  0
 23 25  2  0  0  0
 23 26  1  0  0  0
 26 28  1  0  0  0
 28 29  1  0  0  0
 29 30  1  0  0  0
 29 31  1  0  0  0
 29 32  1  0  0  0
 22 18  1  0  0  0
 13  8  1  0  0  0
  6  1  1  0  0  0
 14 15  1  0  0  0
 14 16  1  0  0  0
 26 27  1  0  0  0
M  END
> <minimizedAffinity>
6.80181

> <CNNscore>
0.4267485440

> <CNNaffinity>
7.1676940918

> <CNN_VS>
3.0588030815

> <CNNaffinity_variance>
1.0257498026

$$$$
[H]c1nc(C([H])([H])[H])oc1-c1c(N([H])[H])nc([H])c(-c2c([H])c(S(=O)(=O)N([H])C([H])([H])C(C([H])([H])[H])(C([H])([H])[H])C([H])([H])[H])c([H])c([H])c2C([H])([H])[H])c1[H]


 32 34  0  0  0  0  0  0  0  0999 V2000
   12.8875   25.1157   -1.7742 C   0  0  0  0  0  0  0  0  0  0  0  0
   13.7283   24.0767   -2.1564 C   0  0  0  0  0  0  0  0  0  0  0  0
   14.5114   24.0884   -3.2851 C   0  0  0  0  0  0  0  0  0  0  0  0
   14.4416   25.2157   -4.0748 C   0  0  0  0  0  0  0  0  0  0  0  0
   13.6188   26.2700   -3.7309 C   0  0  0  0  0  0  0  0  0  0  0  0
   12.8353   26.2202   -2.5721 C   0  0  0  0  0  0  0  0  0  0  0  0
   11.9673   27.3832   -2.2876 C   0  0  0  0  0  0  0  0  0  0  0  0
   10.4835   23.9246    0.8202 C   0  0  0  0  0  0  0  0  0  0  0  0
   11.2108   24.0105   -0.3487 C   0  0  0  0  0  0  0  0  0  0  0  0
   12.1039   25.0356   -0.5559 C   0  0  0  0  0  0  0  0  0  0  0  0
   12.2623   25.9766    0.4215 C   0  0  0  0  0  0  0  0  0  0  0  0
   11.5449   25.8757    1.5525 N   0  0  0  0  0  0  0  0  0  0  0  0
   10.6807   24.9004    1.7749 C   0  0  0  0  0  0  0  0  0  0  0  0
    9.9477   24.8655    3.0216 N   0  0  0  0  0  0  0  0  0  0  0  0
   10.3185   24.3585    3.8537 H   0  0  0  0  0  0  0  0  0  0  0  0
    9.0403   25.3719    3.0332 H   0  0  0  0  0  0  0  0  0  0  0  0
    7.3219   20.8286    3.0799 C   0  0  0  0  0  0  0  0  0  0  0  0
    8.1577   21.4914    2.0259 C   0  0  0  0  0  0  0  0  0  0  0  0
    8.2035   21.1063    0.7313 N   0  0  0  0  0  0  0  0  0  0  0  0
    9.0702   21.9531    0.1065 C   0  0  0  0  0  0  0  0  0  0  0  0
    9.5346   22.8426    1.0499 C   0  0  0  0  0  0  0  0  0  0  0  0
    8.9611   22.5207    2.1632 O   0  0  0  0  0  0  0  0  0  0  0  0
   15.5541   22.7558   -3.7246 S   0  0  0  0  0  0  0  0  0  0  0  0
   16.9707   23.2230   -3.5411 O   0  0  0  0  0  0  0  0  0  0  0  0
   15.3970   22.3931   -5.1733 O   0  0  0  0  0  0  0  0  0  0  0  0
   15.3200   21.3989   -2.6942 N   0  0  0  0  0  0  0  0  0  0  0  0
   15.2479   20.5584   -3.3096 H   0  0  0  0  0  0  0  0  0  0  0  0
   14.0679   21.4807   -1.9613 C   0  0  0  0  0  0  0  0  0  0  0  0
   14.4025   21.2235   -0.5032 C   0  0  0  0  0  0  0  0  0  0  0  0
   13.1757   20.8577    0.2955 C   0  0  0  0  0  0  0  0  0  0  0  0
   14.9679   22.5154    0.0488 C   0  0  0  0  0  0  0  0  0  0  0  0
   15.4442   20.1361   -0.3602 C   0  0  0  0  0  0  0  0  0  0  0  0
 17 18  1  0  0  0
 18 19  2  0  0  0
 19 20  1  0  0  0
 20 21  2  0  0  0
 21 22  1  0  0  0
 21  8  1  0  0  0
  8  9  2  0  0  0
  9 10  1  0  0  0
 10 11  2  0  0  0
 11 12  1  0  0  0
 12 13  2  0  0  0
 13 14  1  0  0  0
 10  1  1  0  0  0
  1  2  2  0  0  0
  2  3  1  0  0  0
  3  4  2  0  0  0
  4  5  1  0  0  0
  5  6  2  0  0  0
  6  7  1  0  0  0
  3 23  1  0  0  0
 23 24  2  0  0  0
 23 25  2  0  0  0
 23 26  1  0  0  0
 26 28  1  0  0  0
 28 29  1  0  0  0
 29 30  1  0  0  0
 29 31  1  0  0  0
 29 32  1  0  0  0
 22 18  1  0  0  0
 13  8  1  0  0  0
  6  1  1  0  0  0
 14 15  1  0  0  0
 14 16  1  0  0  0
 26 27  1  0  0  0
M  END
> <minimizedAffinity>
2.20678

> <CNNscore>
0.4038920701

> <CNNaffinity>
6.8966560364

> <CNN_VS>
2.7855045795

> <CNNaffinity_variance>
0.3353269398

$$$$
[H]c1nc(C([H])([H])[H])oc1-c1c(N([H])[H])nc([H])c(-c2c([H])c(S(=O)(=O)N([H])C([H])([H])C(C([H])([H])[H])(C([H])([H])[H])C([H])([H])[H])c([H])c([H])c2C([H])([H])[H])c1[H]


 32 34  0  0  0  0  0  0  0  0999 V2000
   14.2168   23.2713   -2.0852 C   0  0  0  0  0  0  0  0  0  0  0  0
   13.9985   24.5924   -2.4588 C   0  0  0  0  0  0  0  0  0  0  0  0
   14.5007   25.1682   -3.6006 C   0  0  0  0  0  0  0  0  0  0  0  0
   15.2687   24.3627   -4.4134 C   0  0  0  0  0  0  0  0  0  0  0  0
   15.5098   23.0449   -4.0785 C   0  0  0  0  0  0  0  0  0  0  0  0
   14.9804   22.4945   -2.9055 C   0  0  0  0  0  0  0  0  0  0  0  0
   15.3029   21.0814   -2.6116 C   0  0  0  0  0  0  0  0  0  0  0  0
   11.7451   21.9250    0.3657 C   0  0  0  0  0  0  0  0  0  0  0  0
   12.2906   22.4600   -0.7827 C   0  0  0  0  0  0  0  0  0  0  0  0
   13.6362   22.7306   -0.8706 C   0  0  0  0  0  0  0  0  0  0  0  0
   14.4326   22.4594    0.2055 C   0  0  0  0  0  0  0  0  0  0  0  0
   13.8825   21.9387    1.3147 N   0  0  0  0  0  0  0  0  0  0  0  0
   12.5928   21.6701    1.4235 C   0  0  0  0  0  0  0  0  0  0  0  0
   12.0809   21.1094    2.6550 N   0  0  0  0  0  0  0  0  0  0  0  0
   12.0294   20.0783    2.8002 H   0  0  0  0  0  0  0  0  0  0  0  0
   11.7724   21.7923    3.3751 H   0  0  0  0  0  0  0  0  0  0  0  0
    7.3127   19.7779   -0.2904 C   0  0  0  0  0  0  0  0  0  0  0  0
    8.3887   20.7058    0.1892 C   0  0  0  0  0  0  0  0  0  0  0  0
    8.1882   21.7327    1.0446 N   0  0  0  0  0  0  0  0  0  0  0  0
    9.4021   22.3255    1.2280 C   0  0  0  0  0  0  0  0  0  0  0  0
   10.3208   21.6345    0.4694 C   0  0  0  0  0  0  0  0  0  0  0  0
    9.6642   20.6900   -0.1212 O   0  0  0  0  0  0  0  0  0  0  0  0
   14.1985   26.8361   -4.0282 S   0  0  0  0  0  0  0  0  0  0  0  0
   15.3703   27.6385   -3.5366 O   0  0  0  0  0  0  0  0  0  0  0  0
   12.9800   27.3677   -3.3298 O   0  0  0  0  0  0  0  0  0  0  0  0
   14.1052   27.0486   -5.7323 N   0  0  0  0  0  0  0  0  0  0  0  0
   13.0949   26.9960   -5.9907 H   0  0  0  0  0  0  0  0  0  0  0  0
   14.7703   25.9759   -6.4524 C   0  0  0  0  0  0  0  0  0  0  0  0
   16.0324   26.5725   -7.0487 C   0  0  0  0  0  0  0  0  0  0  0  0
   16.5015   25.7966   -8.2548 C   0  0  0  0  0  0  0  0  0  0  0  0
   17.1010   26.4902   -5.9788 C   0  0  0  0  0  0  0  0  0  0  0  0
   15.8314   28.0237   -7.4251 C   0  0  0  0  0  0  0  0  0  0  0  0
 17 18  1  0  0  0
 18 19  2  0  0  0
 19 20  1  0  0  0
 20 21  2  0  0  0
 21 22  1  0  0  0
 21  8  1  0  0  0
  8  9  2  0  0  0
  9 10  1  0  0  0
 10 11  2  0  0  0
 11 12  1  0  0  0
 12 13  2  0  0  0
 13 14  1  0  0  0
 10  1  1  0  0  0
  1  2  2  0  0  0
  2  3  1  0  0  0
  3  4  2  0  0  0
  4  5  1  0  0  0
  5  6  2  0  0  0
  6  7  1  0  0  0
  3 23  1  0  0  0
 23 24  2  0  0  0
 23 25  2  0  0  0
 23 26  1  0  0  0
 26 28  1  0  0  0
 28 29  1  0  0  0
 29 30  1  0  0  0
 29 31  1  0  0  0
 29 32  1  0  0  0
 22 18  1  0  0  0
 13  8  1  0  0  0
  6  1  1  0  0  0
 14 15  1  0  0  0
 14 16  1  0  0  0
 26 27  1  0  0  0
M  END
> <minimizedAffinity>
-0.84539

> <CNNscore>
0.4035195112

> <CNNaffinity>
7.2272238731

> <CNN_VS>
2.9163258076

> <CNNaffinity_variance>
0.5265421271

$$$$
[H]c1nc(C([H])([H])[H])oc1-c1c(N([H])[H])nc([H])c(-c2c([H])c(S(=O)(=O)N([H])C([H])([H])C(C([H])([H])[H])(C([H])([H])[H])C([H])([H])[H])c([H])c([H])c2C([H])([H])[H])c1[H]


 32 34  0  0  0  0  0  0  0  0999 V2000
   12.7938   24.1817   -0.8077 C   0  0  0  0  0  0  0  0  0  0  0  0
   12.8116   23.2479    0.2219 C   0  0  0  0  0  0  0  0  0  0  0  0
   11.6910   22.6507    0.7465 C   0  0  0  0  0  0  0  0  0  0  0  0
   10.4807   23.0180    0.1991 C   0  0  0  0  0  0  0  0  0  0  0  0
   10.4192   23.9424   -0.8248 C   0  0  0  0  0  0  0  0  0  0  0  0
   11.5842   24.5294   -1.3323 C   0  0  0  0  0  0  0  0  0  0  0  0
   11.4281   25.5242   -2.4154 C   0  0  0  0  0  0  0  0  0  0  0  0
   15.2862   25.7476   -3.1022 C   0  0  0  0  0  0  0  0  0  0  0  0
   14.1224   25.1822   -2.6238 C   0  0  0  0  0  0  0  0  0  0  0  0
   14.0239   24.7552   -1.3202 C   0  0  0  0  0  0  0  0  0  0  0  0
   15.1048   24.9003   -0.4978 C   0  0  0  0  0  0  0  0  0  0  0  0
   16.2289   25.4530   -0.9823 N   0  0  0  0  0  0  0  0  0  0  0  0
   16.3482   25.8708   -2.2308 C   0  0  0  0  0  0  0  0  0  0  0  0
   17.5955   26.4554   -2.6727 N   0  0  0  0  0  0  0  0  0  0  0  0
   17.7683   27.4810   -2.6007 H   0  0  0  0  0  0  0  0  0  0  0  0
   18.2980   25.7953   -3.0611 H   0  0  0  0  0  0  0  0  0  0  0  0
   15.5931   25.7319   -8.0613 C   0  0  0  0  0  0  0  0  0  0  0  0
   15.5354   26.2049   -6.6394 C   0  0  0  0  0  0  0  0  0  0  0  0
   15.5957   27.5009   -6.2612 N   0  0  0  0  0  0  0  0  0  0  0  0
   15.5119   27.5108   -4.9005 C   0  0  0  0  0  0  0  0  0  0  0  0
   15.4013   26.2033   -4.4816 C   0  0  0  0  0  0  0  0  0  0  0  0
   15.4209   25.4782   -5.5520 O   0  0  0  0  0  0  0  0  0  0  0  0
   11.7642   21.4804    2.0430 S   0  0  0  0  0  0  0  0  0  0  0  0
   10.8125   20.3712    1.6924 O   0  0  0  0  0  0  0  0  0  0  0  0
   11.2900   22.0704    3.3399 O   0  0  0  0  0  0  0  0  0  0  0  0
   13.3323   20.7892    2.1878 N   0  0  0  0  0  0  0  0  0  0  0  0
   14.0132   21.5805    2.2047 H   0  0  0  0  0  0  0  0  0  0  0  0
   13.6772   19.9742    1.0352 C   0  0  0  0  0  0  0  0  0  0  0  0
   14.8875   20.6258    0.3912 C   0  0  0  0  0  0  0  0  0  0  0  0
   14.6010   21.0597   -1.0253 C   0  0  0  0  0  0  0  0  0  0  0  0
   15.9817   19.5791    0.3613 C   0  0  0  0  0  0  0  0  0  0  0  0
   15.3698   21.8110    1.1976 C   0  0  0  0  0  0  0  0  0  0  0  0
 17 18  1  0  0  0
 18 19  2  0  0  0
 19 20  1  0  0  0
 20 21  2  0  0  0
 21 22  1  0  0  0
 21  8  1  0  0  0
  8  9  2  0  0  0
  9 10  1  0  0  0
 10 11  2  0  0  0
 11 12  1  0  0  0
 12 13  2  0  0  0
 13 14  1  0  0  0
 10  1  1  0  0  0
  1  2  2  0  0  0
  2  3  1  0  0  0
  3  4  2  0  0  0
  4  5  1  0  0  0
  5  6  2  0  0  0
  6  7  1  0  0  0
  3 23  1  0  0  0
 23 24  2  0  0  0
 23 25  2  0  0  0
 23 26  1  0  0  0
 26 28  1  0  0  0
 28 29  1  0  0  0
 29 30  1  0  0  0
 29 31  1  0  0  0
 29 32  1  0  0  0
 22 18  1  0  0  0
 13  8  1  0  0  0
  6  1  1  0  0  0
 14 15  1  0  0  0
 14 16  1  0  0  0
 26 27  1  0  0  0
M  END
> <minimizedAffinity>
-5.75186

> <CNNscore>
0.4010757506

> <CNNaffinity>
7.7790613174

> <CNN_VS>
3.1199929714

> <CNNaffinity_variance>
0.2860853076

$$$$
[H]c1nc(C([H])([H])[H])oc1-c1c(N([H])[H])nc([H])c(-c2c([H])c(S(=O)(=O)N([H])C([H])([H])C(C([H])([H])[H])(C([H])([H])[H])C([H])([H])[H])c([H])c([H])c2C([H])([H])[H])c1[H]


 32 34  0  0  0  0  0  0  0  0999 V2000
   13.6881   22.8128    0.2925 C   0  0  0  0  0  0  0  0  0  0  0  0
   12.3830   23.2042    0.5683 C   0  0  0  0  0  0  0  0  0  0  0  0
   11.4616   22.4239    1.2237 C   0  0  0  0  0  0  0  0  0  0  0  0
   11.8828   21.1744    1.6246 C   0  0  0  0  0  0  0  0  0  0  0  0
   13.1709   20.7470    1.3700 C   0  0  0  0  0  0  0  0  0  0  0  0
   14.0809   21.5718    0.6986 C   0  0  0  0  0  0  0  0  0  0  0  0
   15.4340   21.0298    0.4491 C   0  0  0  0  0  0  0  0  0  0  0  0
   15.1988   25.0513   -2.2835 C   0  0  0  0  0  0  0  0  0  0  0  0
   14.3321   24.1876   -1.6465 C   0  0  0  0  0  0  0  0  0  0  0  0
   14.6087   23.7026   -0.3896 C   0  0  0  0  0  0  0  0  0  0  0  0
   15.7647   24.0919    0.2252 C   0  0  0  0  0  0  0  0  0  0  0  0
   16.5957   24.9334   -0.4115 N   0  0  0  0  0  0  0  0  0  0  0  0
   16.3522   25.4129   -1.6191 C   0  0  0  0  0  0  0  0  0  0  0  0
   17.3008   26.3153   -2.2344 N   0  0  0  0  0  0  0  0  0  0  0  0
   17.2272   27.3475   -2.1071 H   0  0  0  0  0  0  0  0  0  0  0  0
   18.0499   25.8735   -2.8033 H   0  0  0  0  0  0  0  0  0  0  0  0
   15.5195   25.9474   -7.1601 C   0  0  0  0  0  0  0  0  0  0  0  0
   15.0482   25.9659   -5.7366 C   0  0  0  0  0  0  0  0  0  0  0  0
   13.9754   26.6589   -5.2948 N   0  0  0  0  0  0  0  0  0  0  0  0
   13.8829   26.4163   -3.9564 C   0  0  0  0  0  0  0  0  0  0  0  0
   14.9155   25.5711   -3.6151 C   0  0  0  0  0  0  0  0  0  0  0  0
   15.5691   25.3402   -4.7066 O   0  0  0  0  0  0  0  0  0  0  0  0
    9.8298   22.9607    1.5477 S   0  0  0  0  0  0  0  0  0  0  0  0
    9.8810   24.4525    1.7227 O   0  0  0  0  0  0  0  0  0  0  0  0
    9.3105   22.3866    2.8345 O   0  0  0  0  0  0  0  0  0  0  0  0
    8.7782   22.6311    0.2275 N   0  0  0  0  0  0  0  0  0  0  0  0
    7.9459   23.2517    0.3391 H   0  0  0  0  0  0  0  0  0  0  0  0
    8.2802   21.2662    0.2550 C   0  0  0  0  0  0  0  0  0  0  0  0
    8.9692   20.5312   -0.8804 C   0  0  0  0  0  0  0  0  0  0  0  0
    9.7759   21.4687   -1.7448 C   0  0  0  0  0  0  0  0  0  0  0  0
    7.8757   19.9163   -1.7287 C   0  0  0  0  0  0  0  0  0  0  0  0
    9.8613   19.4258   -0.3604 C   0  0  0  0  0  0  0  0  0  0  0  0
 17 18  1  0  0  0
 18 19  2  0  0  0
 19 20  1  0  0  0
 20 21  2  0  0  0
 21 22  1  0  0  0
 21  8  1  0  0  0
  8  9  2  0  0  0
  9 10  1  0  0  0
 10 11  2  0  0  0
 11 12  1  0  0  0
 12 13  2  0  0  0
 13 14  1  0  0  0
 10  1  1  0  0  0
  1  2  2  0  0  0
  2  3  1  0  0  0
  3  4  2  0  0  0
  4  5  1  0  0  0
  5  6  2  0  0  0
  6  7  1  0  0  0
  3 23  1  0  0  0
 23 24  2  0  0  0
 23 25  2  0  0  0
 23 26  1  0  0  0
 26 28  1  0  0  0
 28 29  1  0  0  0
 29 30  1  0  0  0
 29 31  1  0  0  0
 29 32  1  0  0  0
 22 18  1  0  0  0
 13  8  1  0  0  0
  6  1  1  0  0  0
 14 15  1  0  0  0
 14 16  1  0  0  0
 26 27  1  0  0  0
M  END
> <minimizedAffinity>
-8.43219

> <CNNscore>
0.3053825498

> <CNNaffinity>
7.6540093422

> <CNN_VS>
2.3374009132

> <CNNaffinity_variance>
0.1262688339

$$$$
[H]c1nc(C([H])([H])[H])oc1-c1c(N([H])[H])nc([H])c(-c2c([H])c(S(=O)(=O)N([H])C([H])([H])C(C([H])([H])[H])(C([H])([H])[H])C([H])([H])[H])c([H])c([H])c2C([H])([H])[H])c1[H]


 32 34  0  0  0  0  0  0  0  0999 V2000
   14.7795   25.0027   -1.2305 C   0  0  0  0  0  0  0  0  0  0  0  0
   15.1424   26.0440   -2.0771 C   0  0  0  0  0  0  0  0  0  0  0  0
   16.4393   26.4140   -2.3391 C   0  0  0  0  0  0  0  0  0  0  0  0
   17.4284   25.6900   -1.7093 C   0  0  0  0  0  0  0  0  0  0  0  0
   17.1106   24.6482   -0.8605 C   0  0  0  0  0  0  0  0  0  0  0  0
   15.7762   24.3016   -0.6186 C   0  0  0  0  0  0  0  0  0  0  0  0
   15.5226   23.1862    0.3187 C   0  0  0  0  0  0  0  0  0  0  0  0
   11.6386   23.7576    0.3548 C   0  0  0  0  0  0  0  0  0  0  0  0
   12.9681   24.0612    0.1466 C   0  0  0  0  0  0  0  0  0  0  0  0
   13.3857   24.6608   -1.0184 C   0  0  0  0  0  0  0  0  0  0  0  0
   12.4568   24.9545   -1.9759 C   0  0  0  0  0  0  0  0  0  0  0  0
   11.1673   24.6510   -1.7545 N   0  0  0  0  0  0  0  0  0  0  0  0
   10.7415   24.0748   -0.6437 C   0  0  0  0  0  0  0  0  0  0  0  0
    9.3337   23.7814   -0.4851 N   0  0  0  0  0  0  0  0  0  0  0  0
    8.6821   24.4715   -0.0536 H   0  0  0  0  0  0  0  0  0  0  0  0
    9.0191   22.8510   -0.8247 H   0  0  0  0  0  0  0  0  0  0  0  0
    9.1484   22.8737    4.5624 C   0  0  0  0  0  0  0  0  0  0  0  0
   10.1062   22.7306    3.4174 C   0  0  0  0  0  0  0  0  0  0  0  0
   10.9698   21.7022    3.2663 N   0  0  0  0  0  0  0  0  0  0  0  0
   11.6560   21.9400    2.1125 C   0  0  0  0  0  0  0  0  0  0  0  0
   11.1854   23.1223    1.5855 C   0  0  0  0  0  0  0  0  0  0  0  0
   10.2724   23.5423    2.3990 O   0  0  0  0  0  0  0  0  0  0  0  0
   16.8463   27.7324   -3.4125 S   0  0  0  0  0  0  0  0  0  0  0  0
   18.2125   27.4448   -3.9688 O   0  0  0  0  0  0  0  0  0  0  0  0
   16.9414   29.0336   -2.6690 O   0  0  0  0  0  0  0  0  0  0  0  0
   15.7578   27.8303   -4.7404 N   0  0  0  0  0  0  0  0  0  0  0  0
   14.9168   27.2659   -4.4868 H   0  0  0  0  0  0  0  0  0  0  0  0
   16.3096   27.2288   -5.9427 C   0  0  0  0  0  0  0  0  0  0  0  0
   15.3189   26.1694   -6.3903 C   0  0  0  0  0  0  0  0  0  0  0  0
   13.8925   26.6341   -6.2284 C   0  0  0  0  0  0  0  0  0  0  0  0
   15.5361   24.9649   -5.4984 C   0  0  0  0  0  0  0  0  0  0  0  0
   15.5599   25.7611   -7.8267 C   0  0  0  0  0  0  0  0  0  0  0  0
 17 18  1  0  0  0
 18 19  2  0  0  0
 19 20  1  0  0  0
 20 21  2  0  0  0
 21 22  1  0  0  0
 21  8  1  0  0  0
  8  9  2  0  0  0
  9 10  1  0  0  0
 10 11  2  0  0  0
 11 12  1  0  0  0
 12 13  2  0  0  0
 13 14  1  0  0  0
 10  1  1  0  0  0
  1  2  2  0  0  0
  2  3  1  0  0  0
  3  4  2  0  0  0
  4  5  1  0  0  0
  5  6  2  0  0  0
  6  7  1  0  0  0
  3 23  1  0  0  0
 23 24  2  0  0  0
 23 25  2  0  0  0
 23 26  1  0  0  0
 26 28  1  0  0  0
 28 29  1  0  0  0
 29 30  1  0  0  0
 29 31  1  0  0  0
 29 32  1  0  0  0
 22 18  1  0  0  0
 13  8  1  0  0  0
  6  1  1  0  0  0
 14 15  1  0  0  0
 14 16  1  0  0  0
 26 27  1  0  0  0
M  END
> <minimizedAffinity>
-4.99721

> <CNNscore>
0.3026805222

> <CNNaffinity>
7.1152944565

> <CNN_VS>
2.1536610126

> <CNNaffinity_variance>
0.1526473761

$$$$
[H]Oc1c([H])c([H])c(C([H])([H])[C@@]2([H])C(=O)N([H])[C@@]([H])(C([H])([H])c3c([H])c([H])c(O[H])c([H])c3[H])C(=O)N([H])[C@@]([H])(C([H])([H])c3c([H])n([H])c4c([H])c([H])c([H])c([H])c34)C(=O)N([H])[C@@]([H])(C([H])(C([H])([H])[H])C([H])([H])[H])C(=O)N([H])[C@@]([H])(C([H])(C([H])([H])[H])C([H])([H])[H])C(=O)N([H])[C@@]([H])(C([H])([H])c3c([H])nc([H])n3[H])C(=O)N2[H])c([H])c1[H]


 72 77  0  0  0  0  0  0  0  0999 V2000
   16.0839   21.7140   -2.1215 C   0  0  0  0  0  0  0  0  0  0  0  0
   15.1067   21.7928   -1.0900 N   0  0  0  0  0  0  0  0  0  0  0  0
   15.0555   21.5949    0.2840 C   0  0  0  0  0  0  0  0  0  0  0  0
   15.1534   22.6833    1.0385 O   0  0  0  0  0  0  0  0  0  0  0  0
   14.9078   20.4253    1.1477 C   0  0  0  0  0  0  0  0  0  0  0  0
   13.7245   20.4432    2.0221 N   0  0  0  0  0  0  0  0  0  0  0  0
   12.6169   21.2222    2.0913 C   0  0  0  0  0  0  0  0  0  0  0  0
   12.4357   21.9119    3.1711 O   0  0  0  0  0  0  0  0  0  0  0  0
   11.4836   21.4684    1.1181 C   0  0  0  0  0  0  0  0  0  0  0  0
   11.6513   22.7374    0.4460 N   0  0  0  0  0  0  0  0  0  0  0  0
   11.2870   24.0360    0.7379 C   0  0  0  0  0  0  0  0  0  0  0  0
   12.1895   24.8342    1.2345 O   0  0  0  0  0  0  0  0  0  0  0  0
    9.9750   24.7176    0.5733 C   0  0  0  0  0  0  0  0  0  0  0  0
    9.7186   25.1714   -0.7761 N   0  0  0  0  0  0  0  0  0  0  0  0
   10.5265   25.0835   -1.9170 C   0  0  0  0  0  0  0  0  0  0  0  0
   10.1103   24.3446   -2.8830 O   0  0  0  0  0  0  0  0  0  0  0  0
   11.8280   25.7293   -2.1999 C   0  0  0  0  0  0  0  0  0  0  0  0
   12.6718   24.8859   -2.9776 N   0  0  0  0  0  0  0  0  0  0  0  0
   14.0960   24.8846   -3.0263 C   0  0  0  0  0  0  0  0  0  0  0  0
   14.5966   24.7162   -4.1913 O   0  0  0  0  0  0  0  0  0  0  0  0
   15.0019   25.0512   -1.9076 C   0  0  0  0  0  0  0  0  0  0  0  0
   16.2317   24.3147   -1.9237 N   0  0  0  0  0  0  0  0  0  0  0  0
   16.6109   23.1009   -2.4570 C   0  0  0  0  0  0  0  0  0  0  0  0
   17.5097   23.0802   -3.3397 O   0  0  0  0  0  0  0  0  0  0  0  0
   14.1594   22.1228   -1.5171 H   0  0  0  0  0  0  0  0  0  0  0  0
   13.8132   19.6530    2.7519 H   0  0  0  0  0  0  0  0  0  0  0  0
   12.1997   22.6153   -0.4700 H   0  0  0  0  0  0  0  0  0  0  0  0
    8.7658   25.6402   -0.8986 H   0  0  0  0  0  0  0  0  0  0  0  0
   12.1885   24.1701   -3.5982 H   0  0  0  0  0  0  0  0  0  0  0  0
   17.0299   24.8401   -1.4032 H   0  0  0  0  0  0  0  0  0  0  0  0
   14.0333   20.7985   -3.3039 C   0  0  0  0  0  0  0  0  0  0  0  0
   15.4860   21.1719   -3.4055 C   0  0  0  0  0  0  0  0  0  0  0  0
   15.6993   22.0918   -4.5875 C   0  0  0  0  0  0  0  0  0  0  0  0
   15.1394   19.0724    0.5816 C   0  0  0  0  0  0  0  0  0  0  0  0
   14.3635   18.7712   -0.6648 C   0  0  0  0  0  0  0  0  0  0  0  0
   16.6281   18.9076    0.2501 C   0  0  0  0  0  0  0  0  0  0  0  0
   11.4058   20.3398    0.1176 C   0  0  0  0  0  0  0  0  0  0  0  0
   10.4390   20.4912   -0.9554 C   0  0  0  0  0  0  0  0  0  0  0  0
   10.5632   21.1613   -2.1616 C   0  0  0  0  0  0  0  0  0  0  0  0
    9.4326   21.0576   -2.8814 N   0  0  0  0  0  0  0  0  0  0  0  0
    8.5705   20.3258   -2.1573 C   0  0  0  0  0  0  0  0  0  0  0  0
    7.2717   19.9082   -2.4046 C   0  0  0  0  0  0  0  0  0  0  0  0
    6.5513   19.1473   -1.5106 C   0  0  0  0  0  0  0  0  0  0  0  0
    7.1778   18.7937   -0.3098 C   0  0  0  0  0  0  0  0  0  0  0  0
    8.4569   19.1929   -0.0423 C   0  0  0  0  0  0  0  0  0  0  0  0
    9.1533   19.9520   -0.9527 C   0  0  0  0  0  0  0  0  0  0  0  0
    9.2215   21.4574   -3.8329 H   0  0  0  0  0  0  0  0  0  0  0  0
    8.8511   23.8797    1.1617 C   0  0  0  0  0  0  0  0  0  0  0  0
    8.1459   24.5954    2.2762 C   0  0  0  0  0  0  0  0  0  0  0  0
    8.4464   25.9025    2.5946 C   0  0  0  0  0  0  0  0  0  0  0  0
    7.8414   26.5948    3.6162 C   0  0  0  0  0  0  0  0  0  0  0  0
    6.8831   25.9129    4.3448 C   0  0  0  0  0  0  0  0  0  0  0  0
    6.2607   26.5865    5.3760 O   0  0  0  0  0  0  0  0  0  0  0  0
    6.5676   24.5903    4.0356 C   0  0  0  0  0  0  0  0  0  0  0  0
    7.1947   23.9406    3.0107 C   0  0  0  0  0  0  0  0  0  0  0  0
    5.4131   27.1000    5.1528 H   0  0  0  0  0  0  0  0  0  0  0  0
   11.5523   27.0789   -2.8900 C   0  0  0  0  0  0  0  0  0  0  0  0
   12.6411   27.5441   -3.7348 C   0  0  0  0  0  0  0  0  0  0  0  0
   13.0246   26.8241   -4.8391 C   0  0  0  0  0  0  0  0  0  0  0  0
   14.0803   27.2795   -5.6331 C   0  0  0  0  0  0  0  0  0  0  0  0
   14.7475   28.4392   -5.3317 C   0  0  0  0  0  0  0  0  0  0  0  0
   15.8038   28.8848   -6.1355 O   0  0  0  0  0  0  0  0  0  0  0  0
   14.3647   29.1682   -4.2199 C   0  0  0  0  0  0  0  0  0  0  0  0
   13.3117   28.7076   -3.4337 C   0  0  0  0  0  0  0  0  0  0  0  0
   16.2713   29.7445   -5.8815 H   0  0  0  0  0  0  0  0  0  0  0  0
   15.3210   26.5506   -1.7993 C   0  0  0  0  0  0  0  0  0  0  0  0
   16.4012   26.9590   -2.7204 C   0  0  0  0  0  0  0  0  0  0  0  0
   17.3142   27.9805   -2.6422 C   0  0  0  0  0  0  0  0  0  0  0  0
   18.1066   27.9562   -3.7281 N   0  0  0  0  0  0  0  0  0  0  0  0
   17.6938   26.9265   -4.4823 C   0  0  0  0  0  0  0  0  0  0  0  0
   16.6699   26.3206   -3.8865 N   0  0  0  0  0  0  0  0  0  0  0  0
   16.1615   25.4761   -4.2785 H   0  0  0  0  0  0  0  0  0  0  0  0
 31 32  1  0  0  0
 32 33  1  0  0  0
 32  1  1  0  0  0
  1  2  1  0  0  0
  2  3  1  0  0  0
  3  4  2  0  0  0
  3  5  1  0  0  0
  5  6  1  0  0  0
  6  7  1  0  0  0
  7  8  2  0  0  0
  7  9  1  0  0  0
  9 37  1  0  0  0
 37 38  1  0  0  0
 38 39  2  0  0  0
 39 40  1  0  0  0
 40 41  1  0  0  0
 41 42  2  0  0  0
 42 43  1  0  0  0
 43 44  2  0  0  0
 44 45  1  0  0  0
 45 46  2  0  0  0
  9 10  1  0  0  0
 10 11  1  0  0  0
 11 12  2  0  0  0
 11 13  1  0  0  0
 13 48  1  0  0  0
 48 49  1  0  0  0
 49 50  2  0  0  0
 50 51  1  0  0  0
 51 52  2  0  0  0
 52 53  1  0  0  0
 52 54  1  0  0  0
 54 55  2  0  0  0
 13 14  1  0  0  0
 14 15  1  0  0  0
 15 16  2  0  0  0
 15 17  1  0  0  0
 17 57  1  0  0  0
 57 58  1  0  0  0
 58 59  2  0  0  0
 59 60  1  0  0  0
 60 61  2  0  0  0
 61 62  1  0  0  0
 61 63  1  0  0  0
 63 64  2  0  0  0
 17 18  1  0  0  0
 18 19  1  0  0  0
 19 20  2  0  0  0
 19 21  1  0  0  0
 21 66  1  0  0  0
 66 67  1  0  0  0
 67 68  2  0  0  0
 68 69  1  0  0  0
 69 70  2  0  0  0
 70 71  1  0  0  0
 21 22  1  0  0  0
 22 23  1  0  0  0
 23 24  2  0  0  0
  5 34  1  0  0  0
 34 35  1  0  0  0
 34 36  1  0  0  0
 23  1  1  0  0  0
 46 38  1  0  0  0
 55 49  1  0  0  0
 64 58  1  0  0  0
 71 67  1  0  0  0
 46 41  1  0  0  0
  2 25  1  0  0  0
  6 26  1  0  0  0
 40 47  1  0  0  0
 10 27  1  0  0  0
 53 56  1  0  0  0
 14 28  1  0  0  0
 62 65  1  0  0  0
 18 29  1  0  0  0
 71 72  1  0  0  0
 22 30  1  0  0  0
M  END
> <minimizedAffinity>
35.47999

> <CNNscore>
0.4488039017

> <CNNaffinity>
8.2175922394

> <CNN_VS>
3.6880874634

> <CNNaffinity_variance>
1.5886011124

$$$$
[H]Oc1c([H])c([H])c(C([H])([H])[C@@]2([H])C(=O)N([H])[C@@]([H])(C([H])([H])c3c([H])c([H])c(O[H])c([H])c3[H])C(=O)N([H])[C@@]([H])(C([H])([H])c3c([H])n([H])c4c([H])c([H])c([H])c([H])c34)C(=O)N([H])[C@@]([H])(C([H])(C([H])([H])[H])C([H])([H])[H])C(=O)N([H])[C@@]([H])(C([H])(C([H])([H])[H])C([H])([H])[H])C(=O)N([H])[C@@]([H])(C([H])([H])c3c([H])nc([H])n3[H])C(=O)N2[H])c([H])c1[H]


 72 77  0  0  0  0  0  0  0  0999 V2000
   14.8180   20.3937    1.3936 C   0  0  0  0  0  0  0  0  0  0  0  0
   13.5190   20.8311    1.7764 N   0  0  0  0  0  0  0  0  0  0  0  0
   12.7898   20.9552    2.9522 C   0  0  0  0  0  0  0  0  0  0  0  0
   12.7678   22.1621    3.5055 O   0  0  0  0  0  0  0  0  0  0  0  0
   11.9961   20.0395    3.7691 C   0  0  0  0  0  0  0  0  0  0  0  0
   10.5805   20.4103    3.9223 N   0  0  0  0  0  0  0  0  0  0  0  0
    9.7771   21.3252    3.3254 C   0  0  0  0  0  0  0  0  0  0  0  0
    9.2747   22.2574    4.0691 O   0  0  0  0  0  0  0  0  0  0  0  0
    9.3175   21.4952    1.8931 C   0  0  0  0  0  0  0  0  0  0  0  0
   10.0614   22.5471    1.2371 N   0  0  0  0  0  0  0  0  0  0  0  0
    9.9074   23.9148    1.1358 C   0  0  0  0  0  0  0  0  0  0  0  0
   10.6282   24.6767    1.9091 O   0  0  0  0  0  0  0  0  0  0  0  0
    9.0163   24.7103    0.2492 C   0  0  0  0  0  0  0  0  0  0  0  0
    9.5290   24.8797   -1.0929 N   0  0  0  0  0  0  0  0  0  0  0  0
   10.7321   24.4314   -1.6530 C   0  0  0  0  0  0  0  0  0  0  0  0
   10.6594   23.5567   -2.5921 O   0  0  0  0  0  0  0  0  0  0  0  0
   12.1231   24.8183   -1.3270 C   0  0  0  0  0  0  0  0  0  0  0  0
   13.0166   23.7174   -1.4602 N   0  0  0  0  0  0  0  0  0  0  0  0
   14.2570   23.5159   -0.7883 C   0  0  0  0  0  0  0  0  0  0  0  0
   15.1903   23.0253   -1.5125 O   0  0  0  0  0  0  0  0  0  0  0  0
   14.5477   23.8073    0.6012 C   0  0  0  0  0  0  0  0  0  0  0  0
   15.4404   22.9291    1.2991 N   0  0  0  0  0  0  0  0  0  0  0  0
   15.7388   21.5872    1.1903 C   0  0  0  0  0  0  0  0  0  0  0  0
   16.9144   21.2496    0.8880 O   0  0  0  0  0  0  0  0  0  0  0  0
   12.9828   21.1798    0.8936 H   0  0  0  0  0  0  0  0  0  0  0  0
   10.1373   19.7994    4.6938 H   0  0  0  0  0  0  0  0  0  0  0  0
   10.9299   22.1509    0.7439 H   0  0  0  0  0  0  0  0  0  0  0  0
    8.8773   25.4315   -1.7359 H   0  0  0  0  0  0  0  0  0  0  0  0
   12.7308   22.9514   -2.1404 H   0  0  0  0  0  0  0  0  0  0  0  0
   15.9991   23.4469    2.0761 H   0  0  0  0  0  0  0  0  0  0  0  0
   13.7893   20.2117   -0.9194 C   0  0  0  0  0  0  0  0  0  0  0  0
   14.7828   19.6618    0.0658 C   0  0  0  0  0  0  0  0  0  0  0  0
   16.1454   19.5550   -0.5829 C   0  0  0  0  0  0  0  0  0  0  0  0
   12.1522   18.5756    3.5765 C   0  0  0  0  0  0  0  0  0  0  0  0
   13.3546   17.9785    4.2427 C   0  0  0  0  0  0  0  0  0  0  0  0
   10.9143   17.8552    4.1261 C   0  0  0  0  0  0  0  0  0  0  0  0
    9.4622   20.1915    1.1445 C   0  0  0  0  0  0  0  0  0  0  0  0
    9.1150   20.2124   -0.2654 C   0  0  0  0  0  0  0  0  0  0  0  0
    9.7709   20.8215   -1.3227 C   0  0  0  0  0  0  0  0  0  0  0  0
    9.1217   20.5961   -2.4780 N   0  0  0  0  0  0  0  0  0  0  0  0
    8.0476   19.8451   -2.1861 C   0  0  0  0  0  0  0  0  0  0  0  0
    7.0381   19.3212   -2.9791 C   0  0  0  0  0  0  0  0  0  0  0  0
    6.0091   18.5609   -2.4688 C   0  0  0  0  0  0  0  0  0  0  0  0
    6.0041   18.3211   -1.0897 C   0  0  0  0  0  0  0  0  0  0  0  0
    6.9874   18.8264   -0.2867 C   0  0  0  0  0  0  0  0  0  0  0  0
    8.0031   19.5823   -0.8225 C   0  0  0  0  0  0  0  0  0  0  0  0
    9.3722   20.9259   -3.4467 H   0  0  0  0  0  0  0  0  0  0  0  0
    7.5912   24.1828    0.2984 C   0  0  0  0  0  0  0  0  0  0  0  0
    7.2240   23.6940    1.6687 C   0  0  0  0  0  0  0  0  0  0  0  0
    6.7133   22.4292    1.8677 C   0  0  0  0  0  0  0  0  0  0  0  0
    6.3463   21.9422    3.0994 C   0  0  0  0  0  0  0  0  0  0  0  0
    6.5115   22.7940    4.1771 C   0  0  0  0  0  0  0  0  0  0  0  0
    6.1505   22.3282    5.4250 O   0  0  0  0  0  0  0  0  0  0  0  0
    7.0267   24.0766    3.9928 C   0  0  0  0  0  0  0  0  0  0  0  0
    7.3785   24.5194    2.7495 C   0  0  0  0  0  0  0  0  0  0  0  0
    6.8642   21.8527    5.9695 H   0  0  0  0  0  0  0  0  0  0  0  0
   12.5144   26.0031   -2.2309 C   0  0  0  0  0  0  0  0  0  0  0  0
   13.4549   25.6569   -3.2850 C   0  0  0  0  0  0  0  0  0  0  0  0
   13.7096   26.5347   -4.3094 C   0  0  0  0  0  0  0  0  0  0  0  0
   14.6073   26.1811   -5.3201 C   0  0  0  0  0  0  0  0  0  0  0  0
   15.2449   24.9670   -5.3118 C   0  0  0  0  0  0  0  0  0  0  0  0
   16.1424   24.6248   -6.3306 O   0  0  0  0  0  0  0  0  0  0  0  0
   14.9916   24.0791   -4.2815 C   0  0  0  0  0  0  0  0  0  0  0  0
   14.0956   24.4389   -3.2780 C   0  0  0  0  0  0  0  0  0  0  0  0
   16.5934   23.7209   -6.2900 H   0  0  0  0  0  0  0  0  0  0  0  0
   15.1092   25.2366    0.6589 C   0  0  0  0  0  0  0  0  0  0  0  0
   16.0481   25.5122   -0.4477 C   0  0  0  0  0  0  0  0  0  0  0  0
   17.1806   24.8524   -0.8542 C   0  0  0  0  0  0  0  0  0  0  0  0
   17.7071   25.4821   -1.9191 N   0  0  0  0  0  0  0  0  0  0  0  0
   16.9104   26.5296   -2.1791 C   0  0  0  0  0  0  0  0  0  0  0  0
   15.9108   26.5572   -1.3013 N   0  0  0  0  0  0  0  0  0  0  0  0
   15.1418   27.2878   -1.2902 H   0  0  0  0  0  0  0  0  0  0  0  0
 31 32  1  0  0  0
 32 33  1  0  0  0
 32  1  1  0  0  0
  1  2  1  0  0  0
  2  3  1  0  0  0
  3  4  2  0  0  0
  3  5  1  0  0  0
  5  6  1  0  0  0
  6  7  1  0  0  0
  7  8  2  0  0  0
  7  9  1  0  0  0
  9 37  1  0  0  0
 37 38  1  0  0  0
 38 39  2  0  0  0
 39 40  1  0  0  0
 40 41  1  0  0  0
 41 42  2  0  0  0
 42 43  1  0  0  0
 43 44  2  0  0  0
 44 45  1  0  0  0
 45 46  2  0  0  0
  9 10  1  0  0  0
 10 11  1  0  0  0
 11 12  2  0  0  0
 11 13  1  0  0  0
 13 48  1  0  0  0
 48 49  1  0  0  0
 49 50  2  0  0  0
 50 51  1  0  0  0
 51 52  2  0  0  0
 52 53  1  0  0  0
 52 54  1  0  0  0
 54 55  2  0  0  0
 13 14  1  0  0  0
 14 15  1  0  0  0
 15 16  2  0  0  0
 15 17  1  0  0  0
 17 57  1  0  0  0
 57 58  1  0  0  0
 58 59  2  0  0  0
 59 60  1  0  0  0
 60 61  2  0  0  0
 61 62  1  0  0  0
 61 63  1  0  0  0
 63 64  2  0  0  0
 17 18  1  0  0  0
 18 19  1  0  0  0
 19 20  2  0  0  0
 19 21  1  0  0  0
 21 66  1  0  0  0
 66 67  1  0  0  0
 67 68  2  0  0  0
 68 69  1  0  0  0
 69 70  2  0  0  0
 70 71  1  0  0  0
 21 22  1  0  0  0
 22 23  1  0  0  0
 23 24  2  0  0  0
  5 34  1  0  0  0
 34 35  1  0  0  0
 34 36  1  0  0  0
 23  1  1  0  0  0
 46 38  1  0  0  0
 55 49  1  0  0  0
 64 58  1  0  0  0
 71 67  1  0  0  0
 46 41  1  0  0  0
  2 25  1  0  0  0
  6 26  1  0  0  0
 40 47  1  0  0  0
 10 27  1  0  0  0
 53 56  1  0  0  0
 14 28  1  0  0  0
 62 65  1  0  0  0
 18 29  1  0  0  0
 71 72  1  0  0  0
 22 30  1  0  0  0
M  END
> <minimizedAffinity>
12.18542

> <CNNscore>
0.4406382143

> <CNNaffinity>
8.2638721466

> <CNN_VS>
3.6413779259

> <CNNaffinity_variance>
0.5256791115

$$$$
[H]Oc1c([H])c([H])c(C([H])([H])[C@@]2([H])C(=O)N([H])[C@@]([H])(C([H])([H])c3c([H])c([H])c(O[H])c([H])c3[H])C(=O)N([H])[C@@]([H])(C([H])([H])c3c([H])n([H])c4c([H])c([H])c([H])c([H])c34)C(=O)N([H])[C@@]([H])(C([H])(C([H])([H])[H])C([H])([H])[H])C(=O)N([H])[C@@]([H])(C([H])(C([H])([H])[H])C([H])([H])[H])C(=O)N([H])[C@@]([H])(C([H])([H])c3c([H])nc([H])n3[H])C(=O)N2[H])c([H])c1[H]


 72 77  0  0  0  0  0  0  0  0999 V2000
   13.7840   20.0391    1.3299 C   0  0  0  0  0  0  0  0  0  0  0  0
   12.8069   20.7799    2.0522 N   0  0  0  0  0  0  0  0  0  0  0  0
   12.4948   21.0309    3.3823 C   0  0  0  0  0  0  0  0  0  0  0  0
   12.9473   22.1729    3.8868 O   0  0  0  0  0  0  0  0  0  0  0  0
   11.7489   20.3139    4.4144 C   0  0  0  0  0  0  0  0  0  0  0  0
   10.5823   21.0322    4.9513 N   0  0  0  0  0  0  0  0  0  0  0  0
    9.9150   22.1531    4.5814 C   0  0  0  0  0  0  0  0  0  0  0  0
    9.9047   23.1459    5.4115 O   0  0  0  0  0  0  0  0  0  0  0  0
    9.1353   22.5079    3.3332 C   0  0  0  0  0  0  0  0  0  0  0  0
    9.9162   23.3613    2.4659 N   0  0  0  0  0  0  0  0  0  0  0  0
   10.1062   24.7252    2.3755 C   0  0  0  0  0  0  0  0  0  0  0  0
   11.1886   25.2338    2.8930 O   0  0  0  0  0  0  0  0  0  0  0  0
    9.2455   25.7682    1.7558 C   0  0  0  0  0  0  0  0  0  0  0  0
    9.3886   25.8649    0.3195 N   0  0  0  0  0  0  0  0  0  0  0  0
   10.2247   25.1474   -0.5454 C   0  0  0  0  0  0  0  0  0  0  0  0
    9.6647   24.3695   -1.4020 O   0  0  0  0  0  0  0  0  0  0  0  0
   11.7021   25.1422   -0.6361 C   0  0  0  0  0  0  0  0  0  0  0  0
   12.1996   23.8548   -0.9868 N   0  0  0  0  0  0  0  0  0  0  0  0
   13.4794   23.3042   -0.6875 C   0  0  0  0  0  0  0  0  0  0  0  0
   14.0095   22.6242   -1.6324 O   0  0  0  0  0  0  0  0  0  0  0  0
   14.2129   23.4404    0.5549 C   0  0  0  0  0  0  0  0  0  0  0  0
   15.0006   22.3266    0.9955 N   0  0  0  0  0  0  0  0  0  0  0  0
   14.8920   20.9604    0.8429 C   0  0  0  0  0  0  0  0  0  0  0  0
   15.8039   20.3440    0.2299 O   0  0  0  0  0  0  0  0  0  0  0  0
   12.1571   21.2996    1.3478 H   0  0  0  0  0  0  0  0  0  0  0  0
   10.2277   20.5202    5.8327 H   0  0  0  0  0  0  0  0  0  0  0  0
   10.4758   22.7777    1.7582 H   0  0  0  0  0  0  0  0  0  0  0  0
    8.7527   26.5985   -0.1277 H   0  0  0  0  0  0  0  0  0  0  0  0
   11.5437   23.2243   -1.5378 H   0  0  0  0  0  0  0  0  0  0  0  0
   15.8700   22.6419    1.5689 H   0  0  0  0  0  0  0  0  0  0  0  0
   11.6907   19.5126   -0.0051 C   0  0  0  0  0  0  0  0  0  0  0  0
   13.1876   19.4085    0.0862 C   0  0  0  0  0  0  0  0  0  0  0  0
   13.8175   19.9185   -1.1913 C   0  0  0  0  0  0  0  0  0  0  0  0
   11.4532   18.8713    4.2249 C   0  0  0  0  0  0  0  0  0  0  0  0
   12.6605   17.9858    4.1567 C   0  0  0  0  0  0  0  0  0  0  0  0
   10.5807   18.3739    5.3845 C   0  0  0  0  0  0  0  0  0  0  0  0
    8.7162   21.2504    2.6094 C   0  0  0  0  0  0  0  0  0  0  0  0
    7.7905   21.4180    1.5031 C   0  0  0  0  0  0  0  0  0  0  0  0
    7.0285   22.5212    1.1547 C   0  0  0  0  0  0  0  0  0  0  0  0
    6.3017   22.2678    0.0526 N   0  0  0  0  0  0  0  0  0  0  0  0
    6.5815   21.0094   -0.3230 C   0  0  0  0  0  0  0  0  0  0  0  0
    6.1273   20.2331   -1.3782 C   0  0  0  0  0  0  0  0  0  0  0  0
    6.5515   18.9394   -1.5873 C   0  0  0  0  0  0  0  0  0  0  0  0
    7.4796   18.4088   -0.6837 C   0  0  0  0  0  0  0  0  0  0  0  0
    7.9425   19.1534    0.3643 C   0  0  0  0  0  0  0  0  0  0  0  0
    7.5022   20.4425    0.5496 C   0  0  0  0  0  0  0  0  0  0  0  0
    5.6304   22.9044   -0.4514 H   0  0  0  0  0  0  0  0  0  0  0  0
    7.8044   25.6281    2.2197 C   0  0  0  0  0  0  0  0  0  0  0  0
    7.3151   26.8705    2.9043 C   0  0  0  0  0  0  0  0  0  0  0  0
    6.9899   28.0039    2.1903 C   0  0  0  0  0  0  0  0  0  0  0  0
    6.5543   29.1704    2.7721 C   0  0  0  0  0  0  0  0  0  0  0  0
    6.4479   29.1731    4.1515 C   0  0  0  0  0  0  0  0  0  0  0  0
    6.0123   30.3328    4.7597 O   0  0  0  0  0  0  0  0  0  0  0  0
    6.7732   28.0349    4.8886 C   0  0  0  0  0  0  0  0  0  0  0  0
    7.2023   26.8963    4.2680 C   0  0  0  0  0  0  0  0  0  0  0  0
    5.0118   30.4384    4.8995 H   0  0  0  0  0  0  0  0  0  0  0  0
   12.1232   26.2277   -1.6452 C   0  0  0  0  0  0  0  0  0  0  0  0
   13.1047   25.7794   -2.6203 C   0  0  0  0  0  0  0  0  0  0  0  0
   13.4956   24.4640   -2.6634 C   0  0  0  0  0  0  0  0  0  0  0  0
   14.4485   24.0527   -3.5990 C   0  0  0  0  0  0  0  0  0  0  0  0
   15.0065   24.9408   -4.4827 C   0  0  0  0  0  0  0  0  0  0  0  0
   15.9603   24.5158   -5.4156 O   0  0  0  0  0  0  0  0  0  0  0  0
   14.6156   26.2673   -4.4432 C   0  0  0  0  0  0  0  0  0  0  0  0
   13.6656   26.6693   -3.5078 C   0  0  0  0  0  0  0  0  0  0  0  0
   16.3488   25.1997   -6.0509 H   0  0  0  0  0  0  0  0  0  0  0  0
   15.1242   24.6697    0.4133 C   0  0  0  0  0  0  0  0  0  0  0  0
   16.5526   24.2998    0.3415 C   0  0  0  0  0  0  0  0  0  0  0  0
   17.4098   23.8246    1.3019 C   0  0  0  0  0  0  0  0  0  0  0  0
   18.6252   23.6313    0.7603 N   0  0  0  0  0  0  0  0  0  0  0  0
   18.5311   23.9827   -0.5308 C   0  0  0  0  0  0  0  0  0  0  0  0
   17.2905   24.3859   -0.7932 N   0  0  0  0  0  0  0  0  0  0  0  0
   16.9552   24.7165   -1.7437 H   0  0  0  0  0  0  0  0  0  0  0  0
 31 32  1  0  0  0
 32 33  1  0  0  0
 32  1  1  0  0  0
  1  2  1  0  0  0
  2  3  1  0  0  0
  3  4  2  0  0  0
  3  5  1  0  0  0
  5  6  1  0  0  0
  6  7  1  0  0  0
  7  8  2  0  0  0
  7  9  1  0  0  0
  9 37  1  0  0  0
 37 38  1  0  0  0
 38 39  2  0  0  0
 39 40  1  0  0  0
 40 41  1  0  0  0
 41 42  2  0  0  0
 42 43  1  0  0  0
 43 44  2  0  0  0
 44 45  1  0  0  0
 45 46  2  0  0  0
  9 10  1  0  0  0
 10 11  1  0  0  0
 11 12  2  0  0  0
 11 13  1  0  0  0
 13 48  1  0  0  0
 48 49  1  0  0  0
 49 50  2  0  0  0
 50 51  1  0  0  0
 51 52  2  0  0  0
 52 53  1  0  0  0
 52 54  1  0  0  0
 54 55  2  0  0  0
 13 14  1  0  0  0
 14 15  1  0  0  0
 15 16  2  0  0  0
 15 17  1  0  0  0
 17 57  1  0  0  0
 57 58  1  0  0  0
 58 59  2  0  0  0
 59 60  1  0  0  0
 60 61  2  0  0  0
 61 62  1  0  0  0
 61 63  1  0  0  0
 63 64  2  0  0  0
 17 18  1  0  0  0
 18 19  1  0  0  0
 19 20  2  0  0  0
 19 21  1  0  0  0
 21 66  1  0  0  0
 66 67  1  0  0  0
 67 68  2  0  0  0
 68 69  1  0  0  0
 69 70  2  0  0  0
 70 71  1  0  0  0
 21 22  1  0  0  0
 22 23  1  0  0  0
 23 24  2  0  0  0
  5 34  1  0  0  0
 34 35  1  0  0  0
 34 36  1  0  0  0
 23  1  1  0  0  0
 46 38  1  0  0  0
 55 49  1  0  0  0
 64 58  1  0  0  0
 71 67  1  0  0  0
 46 41  1  0  0  0
  2 25  1  0  0  0
  6 26  1  0  0  0
 40 47  1  0  0  0
 10 27  1  0  0  0
 53 56  1  0  0  0
 14 28  1  0  0  0
 62 65  1  0  0  0
 18 29  1  0  0  0
 71 72  1  0  0  0
 22 30  1  0  0  0
M  END
> <minimizedAffinity>
17.26466

> <CNNscore>
0.4021418095

> <CNNaffinity>
8.0590686798

> <CNN_VS>
3.2408883572

> <CNNaffinity_variance>
0.4528369308

$$$$
[H]Oc1c([H])c([H])c(C([H])([H])[C@@]2([H])C(=O)N([H])[C@@]([H])(C([H])([H])c3c([H])c([H])c(O[H])c([H])c3[H])C(=O)N([H])[C@@]([H])(C([H])([H])c3c([H])n([H])c4c([H])c([H])c([H])c([H])c34)C(=O)N([H])[C@@]([H])(C([H])(C([H])([H])[H])C([H])([H])[H])C(=O)N([H])[C@@]([H])(C([H])(C([H])([H])[H])C([H])([H])[H])C(=O)N([H])[C@@]([H])(C([H])([H])c3c([H])nc([H])n3[H])C(=O)N2[H])c([H])c1[H]


 72 77  0  0  0  0  0  0  0  0999 V2000
   14.4466   20.1992   -3.9243 C   0  0  0  0  0  0  0  0  0  0  0  0
   13.7361   20.5683   -2.7479 N   0  0  0  0  0  0  0  0  0  0  0  0
   13.5873   20.0875   -1.4531 C   0  0  0  0  0  0  0  0  0  0  0  0
   14.3430   20.6599   -0.5232 O   0  0  0  0  0  0  0  0  0  0  0  0
   12.7581   19.0584   -0.8294 C   0  0  0  0  0  0  0  0  0  0  0  0
   11.8463   19.5445    0.2182 N   0  0  0  0  0  0  0  0  0  0  0  0
   11.4556   20.7763    0.6288 C   0  0  0  0  0  0  0  0  0  0  0  0
   11.7491   21.1254    1.8398 O   0  0  0  0  0  0  0  0  0  0  0  0
   10.7060   21.8911   -0.0690 C   0  0  0  0  0  0  0  0  0  0  0  0
   11.6141   22.9339   -0.4914 N   0  0  0  0  0  0  0  0  0  0  0  0
   12.1311   24.0619    0.1126 C   0  0  0  0  0  0  0  0  0  0  0  0
   13.3386   24.0038    0.5991 O   0  0  0  0  0  0  0  0  0  0  0  0
   11.5172   25.4020    0.3126 C   0  0  0  0  0  0  0  0  0  0  0  0
   11.5821   26.2535   -0.8550 N   0  0  0  0  0  0  0  0  0  0  0  0
   12.1526   26.0067   -2.1103 C   0  0  0  0  0  0  0  0  0  0  0  0
   11.3598   25.9446   -3.1202 O   0  0  0  0  0  0  0  0  0  0  0  0
   13.5725   25.8004   -2.4740 C   0  0  0  0  0  0  0  0  0  0  0  0
   13.7089   24.8620   -3.5365 N   0  0  0  0  0  0  0  0  0  0  0  0
   14.8285   24.0290   -3.8247 C   0  0  0  0  0  0  0  0  0  0  0  0
   15.1073   23.9095   -5.0674 O   0  0  0  0  0  0  0  0  0  0  0  0
   15.6553   23.3250   -2.8651 C   0  0  0  0  0  0  0  0  0  0  0  0
   16.1689   22.0392   -3.2366 N   0  0  0  0  0  0  0  0  0  0  0  0
   15.7135   21.0303   -4.0590 C   0  0  0  0  0  0  0  0  0  0  0  0
   16.3995   20.7130   -5.0670 O   0  0  0  0  0  0  0  0  0  0  0  0
   13.1899   21.4933   -2.9334 H   0  0  0  0  0  0  0  0  0  0  0  0
   11.4360   18.6990    0.7488 H   0  0  0  0  0  0  0  0  0  0  0  0
   11.9614   22.7560   -1.4925 H   0  0  0  0  0  0  0  0  0  0  0  0
   11.1201   27.2076   -0.7179 H   0  0  0  0  0  0  0  0  0  0  0  0
   12.8808   24.7667   -4.1972 H   0  0  0  0  0  0  0  0  0  0  0  0
   17.1262   21.8291   -2.7640 H   0  0  0  0  0  0  0  0  0  0  0  0
   14.3087   21.3707   -6.1715 C   0  0  0  0  0  0  0  0  0  0  0  0
   13.6291   20.4781   -5.1709 C   0  0  0  0  0  0  0  0  0  0  0  0
   13.1461   19.2163   -5.8516 C   0  0  0  0  0  0  0  0  0  0  0  0
   12.1004   18.0398   -1.6863 C   0  0  0  0  0  0  0  0  0  0  0  0
   10.7722   18.4513   -2.2454 C   0  0  0  0  0  0  0  0  0  0  0  0
   13.0157   17.7033   -2.8705 C   0  0  0  0  0  0  0  0  0  0  0  0
    9.9389   21.3408   -1.2478 C   0  0  0  0  0  0  0  0  0  0  0  0
    8.6925   20.6585   -0.9479 C   0  0  0  0  0  0  0  0  0  0  0  0
    7.9554   19.7892   -1.7353 C   0  0  0  0  0  0  0  0  0  0  0  0
    6.8582   19.3700   -1.0815 N   0  0  0  0  0  0  0  0  0  0  0  0
    6.8711   19.9570    0.1261 C   0  0  0  0  0  0  0  0  0  0  0  0
    5.9980   19.8878    1.2009 C   0  0  0  0  0  0  0  0  0  0  0  0
    6.2022   20.5836    2.3720 C   0  0  0  0  0  0  0  0  0  0  0  0
    7.3454   21.3870    2.4563 C   0  0  0  0  0  0  0  0  0  0  0  0
    8.2211   21.4723    1.4109 C   0  0  0  0  0  0  0  0  0  0  0  0
    7.9929   20.7668    0.2532 C   0  0  0  0  0  0  0  0  0  0  0  0
    6.1079   18.7098   -1.4148 H   0  0  0  0  0  0  0  0  0  0  0  0
   10.1215   25.2766    0.9024 C   0  0  0  0  0  0  0  0  0  0  0  0
   10.1058   24.3949    2.1164 C   0  0  0  0  0  0  0  0  0  0  0  0
   11.0408   23.3974    2.2925 C   0  0  0  0  0  0  0  0  0  0  0  0
   11.0579   22.5538    3.3774 C   0  0  0  0  0  0  0  0  0  0  0  0
   10.0686   22.7434    4.3257 C   0  0  0  0  0  0  0  0  0  0  0  0
   10.0643   21.9090    5.4249 O   0  0  0  0  0  0  0  0  0  0  0  0
    9.1151   23.7478    4.1626 C   0  0  0  0  0  0  0  0  0  0  0  0
    9.1362   24.5639    3.0675 C   0  0  0  0  0  0  0  0  0  0  0  0
   10.5971   22.2056    6.2374 H   0  0  0  0  0  0  0  0  0  0  0  0
   14.1812   27.1723   -2.8224 C   0  0  0  0  0  0  0  0  0  0  0  0
   14.8376   27.2154   -4.1196 C   0  0  0  0  0  0  0  0  0  0  0  0
   16.1706   27.5292   -4.2175 C   0  0  0  0  0  0  0  0  0  0  0  0
   16.7825   27.5774   -5.4727 C   0  0  0  0  0  0  0  0  0  0  0  0
   16.0757   27.3162   -6.6186 C   0  0  0  0  0  0  0  0  0  0  0  0
   16.7008   27.3678   -7.8705 O   0  0  0  0  0  0  0  0  0  0  0  0
   14.7322   26.9995   -6.5250 C   0  0  0  0  0  0  0  0  0  0  0  0
   14.1297   26.9535   -5.2704 C   0  0  0  0  0  0  0  0  0  0  0  0
   16.1470   27.1687   -8.6926 H   0  0  0  0  0  0  0  0  0  0  0  0
   16.8323   24.2487   -2.5138 C   0  0  0  0  0  0  0  0  0  0  0  0
   16.9148   24.5202   -1.0642 C   0  0  0  0  0  0  0  0  0  0  0  0
   16.1216   25.2820   -0.2434 C   0  0  0  0  0  0  0  0  0  0  0  0
   16.5955   25.2264    1.0137 N   0  0  0  0  0  0  0  0  0  0  0  0
   17.6783   24.4353    0.9818 C   0  0  0  0  0  0  0  0  0  0  0  0
   17.8793   24.0057   -0.2614 N   0  0  0  0  0  0  0  0  0  0  0  0
   18.6721   23.3645   -0.5541 H   0  0  0  0  0  0  0  0  0  0  0  0
 31 32  1  0  0  0
 32 33  1  0  0  0
 32  1  1  0  0  0
  1  2  1  0  0  0
  2  3  1  0  0  0
  3  4  2  0  0  0
  3  5  1  0  0  0
  5  6  1  0  0  0
  6  7  1  0  0  0
  7  8  2  0  0  0
  7  9  1  0  0  0
  9 37  1  0  0  0
 37 38  1  0  0  0
 38 39  2  0  0  0
 39 40  1  0  0  0
 40 41  1  0  0  0
 41 42  2  0  0  0
 42 43  1  0  0  0
 43 44  2  0  0  0
 44 45  1  0  0  0
 45 46  2  0  0  0
  9 10  1  0  0  0
 10 11  1  0  0  0
 11 12  2  0  0  0
 11 13  1  0  0  0
 13 48  1  0  0  0
 48 49  1  0  0  0
 49 50  2  0  0  0
 50 51  1  0  0  0
 51 52  2  0  0  0
 52 53  1  0  0  0
 52 54  1  0  0  0
 54 55  2  0  0  0
 13 14  1  0  0  0
 14 15  1  0  0  0
 15 16  2  0  0  0
 15 17  1  0  0  0
 17 57  1  0  0  0
 57 58  1  0  0  0
 58 59  2  0  0  0
 59 60  1  0  0  0
 60 61  2  0  0  0
 61 62  1  0  0  0
 61 63  1  0  0  0
 63 64  2  0  0  0
 17 18  1  0  0  0
 18 19  1  0  0  0
 19 20  2  0  0  0
 19 21  1  0  0  0
 21 66  1  0  0  0
 66 67  1  0  0  0
 67 68  2  0  0  0
 68 69  1  0  0  0
 69 70  2  0  0  0
 70 71  1  0  0  0
 21 22  1  0  0  0
 22 23  1  0  0  0
 23 24  2  0  0  0
  5 34  1  0  0  0
 34 35  1  0  0  0
 34 36  1  0  0  0
 23  1  1  0  0  0
 46 38  1  0  0  0
 55 49  1  0  0  0
 64 58  1  0  0  0
 71 67  1  0  0  0
 46 41  1  0  0  0
  2 25  1  0  0  0
  6 26  1  0  0  0
 40 47  1  0  0  0
 10 27  1  0  0  0
 53 56  1  0  0  0
 14 28  1  0  0  0
 62 65  1  0  0  0
 18 29  1  0  0  0
 71 72  1  0  0  0
 22 30  1  0  0  0
M  END
> <minimizedAffinity>
35.85528

> <CNNscore>
0.3777368069

> <CNNaffinity>
8.0965871811

> <CNN_VS>
3.0583789349

> <CNNaffinity_variance>
0.8354192972

$$$$
[H]Oc1c([H])c([H])c(C([H])([H])[C@@]2([H])C(=O)N([H])[C@@]([H])(C([H])([H])c3c([H])c([H])c(O[H])c([H])c3[H])C(=O)N([H])[C@@]([H])(C([H])([H])c3c([H])n([H])c4c([H])c([H])c([H])c([H])c34)C(=O)N([H])[C@@]([H])(C([H])(C([H])([H])[H])C([H])([H])[H])C(=O)N([H])[C@@]([H])(C([H])(C([H])([H])[H])C([H])([H])[H])C(=O)N([H])[C@@]([H])(C([H])([H])c3c([H])nc([H])n3[H])C(=O)N2[H])c([H])c1[H]


 72 77  0  0  0  0  0  0  0  0999 V2000
    8.3977   20.8432    4.2940 C   0  0  0  0  0  0  0  0  0  0  0  0
    8.9597   22.0742    3.8537 N   0  0  0  0  0  0  0  0  0  0  0  0
    9.4528   23.2359    4.4343 C   0  0  0  0  0  0  0  0  0  0  0  0
   10.7712   23.3086    4.5755 O   0  0  0  0  0  0  0  0  0  0  0  0
    8.8478   24.4625    4.9494 C   0  0  0  0  0  0  0  0  0  0  0  0
    9.2790   25.6985    4.2776 N   0  0  0  0  0  0  0  0  0  0  0  0
    9.9857   25.9598    3.1503 C   0  0  0  0  0  0  0  0  0  0  0  0
   11.1113   26.5850    3.2800 O   0  0  0  0  0  0  0  0  0  0  0  0
    9.7208   25.6587    1.6905 C   0  0  0  0  0  0  0  0  0  0  0  0
   10.5057   24.5275    1.2495 N   0  0  0  0  0  0  0  0  0  0  0  0
   11.7803   24.3807    0.7412 C   0  0  0  0  0  0  0  0  0  0  0  0
   12.7256   23.9881    1.5476 O   0  0  0  0  0  0  0  0  0  0  0  0
   12.2870   24.6028   -0.6397 C   0  0  0  0  0  0  0  0  0  0  0  0
   12.0275   23.5010   -1.5405 N   0  0  0  0  0  0  0  0  0  0  0  0
   11.4031   22.2719   -1.2923 C   0  0  0  0  0  0  0  0  0  0  0  0
   10.2854   22.0441   -1.8849 O   0  0  0  0  0  0  0  0  0  0  0  0
   11.8400   21.1527   -0.4279 C   0  0  0  0  0  0  0  0  0  0  0  0
   10.7315   20.5030    0.1862 N   0  0  0  0  0  0  0  0  0  0  0  0
   10.7170   19.7765    1.4120 C   0  0  0  0  0  0  0  0  0  0  0  0
   10.0083   18.7117    1.4006 O   0  0  0  0  0  0  0  0  0  0  0  0
   11.4119   20.1253    2.6348 C   0  0  0  0  0  0  0  0  0  0  0  0
   10.7689   19.8277    3.8811 N   0  0  0  0  0  0  0  0  0  0  0  0
    9.4515   19.7464    4.2804 C   0  0  0  0  0  0  0  0  0  0  0  0
    9.0118   18.6431    4.7006 O   0  0  0  0  0  0  0  0  0  0  0  0
    9.0343   22.0665    2.7661 H   0  0  0  0  0  0  0  0  0  0  0  0
    8.9426   26.5480    4.8520 H   0  0  0  0  0  0  0  0  0  0  0  0
    9.9587   23.6110    1.3734 H   0  0  0  0  0  0  0  0  0  0  0  0
   12.3711   23.6710   -2.5383 H   0  0  0  0  0  0  0  0  0  0  0  0
    9.8010   20.5628   -0.3255 H   0  0  0  0  0  0  0  0  0  0  0  0
   11.4866   19.6189    4.6719 H   0  0  0  0  0  0  0  0  0  0  0  0
    6.1769   19.6405    4.0429 C   0  0  0  0  0  0  0  0  0  0  0  0
    7.2966   20.3766    3.3613 C   0  0  0  0  0  0  0  0  0  0  0  0
    6.7345   21.4939    2.5100 C   0  0  0  0  0  0  0  0  0  0  0  0
    7.3919   24.4862    5.2393 C   0  0  0  0  0  0  0  0  0  0  0  0
    6.5498   25.1270    4.1779 C   0  0  0  0  0  0  0  0  0  0  0  0
    6.8865   23.0497    5.4250 C   0  0  0  0  0  0  0  0  0  0  0  0
    8.2481   25.4047    1.4730 C   0  0  0  0  0  0  0  0  0  0  0  0
    7.4078   26.5760    1.2975 C   0  0  0  0  0  0  0  0  0  0  0  0
    6.6365   26.9485    0.2087 C   0  0  0  0  0  0  0  0  0  0  0  0
    6.0011   28.1080    0.4510 N   0  0  0  0  0  0  0  0  0  0  0  0
    6.3494   28.4970    1.6881 C   0  0  0  0  0  0  0  0  0  0  0  0
    5.9981   29.6032    2.4466 C   0  0  0  0  0  0  0  0  0  0  0  0
    6.4778   29.8154    3.7202 C   0  0  0  0  0  0  0  0  0  0  0  0
    7.3547   28.8609    4.2488 C   0  0  0  0  0  0  0  0  0  0  0  0
    7.7164   27.7623    3.5213 C   0  0  0  0  0  0  0  0  0  0  0  0
    7.2226   27.5751    2.2521 C   0  0  0  0  0  0  0  0  0  0  0  0
    5.3478   28.6425   -0.1794 H   0  0  0  0  0  0  0  0  0  0  0  0
   11.8315   25.9513   -1.1741 C   0  0  0  0  0  0  0  0  0  0  0  0
   12.6410   26.3835   -2.3613 C   0  0  0  0  0  0  0  0  0  0  0  0
   12.0654   27.0580   -3.4167 C   0  0  0  0  0  0  0  0  0  0  0  0
   12.7601   27.4592   -4.5326 C   0  0  0  0  0  0  0  0  0  0  0  0
   14.1091   27.1535   -4.5662 C   0  0  0  0  0  0  0  0  0  0  0  0
   14.8290   27.5461   -5.6762 O   0  0  0  0  0  0  0  0  0  0  0  0
   14.7067   26.4716   -3.5068 C   0  0  0  0  0  0  0  0  0  0  0  0
   13.9770   26.0916   -2.4164 C   0  0  0  0  0  0  0  0  0  0  0  0
   15.2601   28.4655   -5.6510 H   0  0  0  0  0  0  0  0  0  0  0  0
   12.6836   20.1884   -1.2837 C   0  0  0  0  0  0  0  0  0  0  0  0
   13.5683   20.8548   -2.2265 C   0  0  0  0  0  0  0  0  0  0  0  0
   14.3631   21.8980   -1.8204 C   0  0  0  0  0  0  0  0  0  0  0  0
   15.1985   22.5345   -2.7420 C   0  0  0  0  0  0  0  0  0  0  0  0
   15.2429   22.1372   -4.0539 C   0  0  0  0  0  0  0  0  0  0  0  0
   16.0846   22.7833   -4.9675 O   0  0  0  0  0  0  0  0  0  0  0  0
   14.4439   21.0863   -4.4678 C   0  0  0  0  0  0  0  0  0  0  0  0
   13.6140   20.4573   -3.5433 C   0  0  0  0  0  0  0  0  0  0  0  0
   16.0901   22.4617   -5.9261 H   0  0  0  0  0  0  0  0  0  0  0  0
   12.7779   19.4221    2.5989 C   0  0  0  0  0  0  0  0  0  0  0  0
   13.8043   20.2320    1.9115 C   0  0  0  0  0  0  0  0  0  0  0  0
   14.9044   19.8608    1.1800 C   0  0  0  0  0  0  0  0  0  0  0  0
   15.5460   20.9605    0.7479 N   0  0  0  0  0  0  0  0  0  0  0  0
   14.8533   22.0143    1.2050 C   0  0  0  0  0  0  0  0  0  0  0  0
   13.8052   21.5883    1.9053 N   0  0  0  0  0  0  0  0  0  0  0  0
   13.0975   22.2247    2.3738 H   0  0  0  0  0  0  0  0  0  0  0  0
 31 32  1  0  0  0
 32 33  1  0  0  0
 32  1  1  0  0  0
  1  2  1  0  0  0
  2  3  1  0  0  0
  3  4  2  0  0  0
  3  5  1  0  0  0
  5  6  1  0  0  0
  6  7  1  0  0  0
  7  8  2  0  0  0
  7  9  1  0  0  0
  9 37  1  0  0  0
 37 38  1  0  0  0
 38 39  2  0  0  0
 39 40  1  0  0  0
 40 41  1  0  0  0
 41 42  2  0  0  0
 42 43  1  0  0  0
 43 44  2  0  0  0
 44 45  1  0  0  0
 45 46  2  0  0  0
  9 10  1  0  0  0
 10 11  1  0  0  0
 11 12  2  0  0  0
 11 13  1  0  0  0
 13 48  1  0  0  0
 48 49  1  0  0  0
 49 50  2  0  0  0
 50 51  1  0  0  0
 51 52  2  0  0  0
 52 53  1  0  0  0
 52 54  1  0  0  0
 54 55  2  0  0  0
 13 14  1  0  0  0
 14 15  1  0  0  0
 15 16  2  0  0  0
 15 17  1  0  0  0
 17 57  1  0  0  0
 57 58  1  0  0  0
 58 59  2  0  0  0
 59 60  1  0  0  0
 60 61  2  0  0  0
 61 62  1  0  0  0
 61 63  1  0  0  0
 63 64  2  0  0  0
 17 18  1  0  0  0
 18 19  1  0  0  0
 19 20  2  0  0  0
 19 21  1  0  0  0
 21 66  1  0  0  0
 66 67  1  0  0  0
 67 68  2  0  0  0
 68 69  1  0  0  0
 69 70  2  0  0  0
 70 71  1  0  0  0
 21 22  1  0  0  0
 22 23  1  0  0  0
 23 24  2  0  0  0
  5 34  1  0  0  0
 34 35  1  0  0  0
 34 36  1  0  0  0
 23  1  1  0  0  0
 46 38  1  0  0  0
 55 49  1  0  0  0
 64 58  1  0  0  0
 71 67  1  0  0  0
 46 41  1  0  0  0
  2 25  1  0  0  0
  6 26  1  0  0  0
 40 47  1  0  0  0
 10 27  1  0  0  0
 53 56  1  0  0  0
 14 28  1  0  0  0
 62 65  1  0  0  0
 18 29  1  0  0  0
 71 72  1  0  0  0
 22 30  1  0  0  0
M  END
> <minimizedAffinity>
19.64465

> <CNNscore>
0.3472524583

> <CNNaffinity>
7.8151230812

> <CNN_VS>
2.7138206959

> <CNNaffinity_variance>
0.7836310267

$$$$
[H]Oc1c([H])c([H])c(C([H])([H])[C@@]2([H])C(=O)N([H])[C@@]([H])(C([H])([H])c3c([H])c([H])c(O[H])c([H])c3[H])C(=O)N([H])[C@@]([H])(C([H])([H])c3c([H])n([H])c4c([H])c([H])c([H])c([H])c34)C(=O)N([H])[C@@]([H])(C([H])(C([H])([H])[H])C([H])([H])[H])C(=O)N([H])[C@@]([H])(C([H])(C([H])([H])[H])C([H])([H])[H])C(=O)N([H])[C@@]([H])(C([H])([H])c3c([H])nc([H])n3[H])C(=O)N2[H])c([H])c1[H]


 72 77  0  0  0  0  0  0  0  0999 V2000
   12.3977   19.0206    1.5817 C   0  0  0  0  0  0  0  0  0  0  0  0
   12.9302   19.9205    0.6164 N   0  0  0  0  0  0  0  0  0  0  0  0
   13.6601   19.8371   -0.5625 C   0  0  0  0  0  0  0  0  0  0  0  0
   12.9623   19.8932   -1.6909 O   0  0  0  0  0  0  0  0  0  0  0  0
   15.0793   19.7011   -0.8835 C   0  0  0  0  0  0  0  0  0  0  0  0
   15.6457   20.8023   -1.6782 N   0  0  0  0  0  0  0  0  0  0  0  0
   15.1967   22.0292   -2.0409 C   0  0  0  0  0  0  0  0  0  0  0  0
   15.0407   22.2609   -3.3045 O   0  0  0  0  0  0  0  0  0  0  0  0
   14.8192   23.2539   -1.2350 C   0  0  0  0  0  0  0  0  0  0  0  0
   13.3824   23.3756   -1.1296 N   0  0  0  0  0  0  0  0  0  0  0  0
   12.4062   23.9566   -1.9132 C   0  0  0  0  0  0  0  0  0  0  0  0
   11.7055   23.1880   -2.6982 O   0  0  0  0  0  0  0  0  0  0  0  0
   11.9933   25.3817   -2.0203 C   0  0  0  0  0  0  0  0  0  0  0  0
   11.1053   25.8129   -0.9630 N   0  0  0  0  0  0  0  0  0  0  0  0
   10.5718   25.0849    0.1083 C   0  0  0  0  0  0  0  0  0  0  0  0
   10.9366   25.4212    1.2941 O   0  0  0  0  0  0  0  0  0  0  0  0
    9.6201   23.9513    0.0938 C   0  0  0  0  0  0  0  0  0  0  0  0
    9.9001   23.0204    1.1345 N   0  0  0  0  0  0  0  0  0  0  0  0
    9.5964   21.6285    1.1633 C   0  0  0  0  0  0  0  0  0  0  0  0
    9.1873   21.1880    2.2923 O   0  0  0  0  0  0  0  0  0  0  0  0
    9.7067   20.6940    0.0611 C   0  0  0  0  0  0  0  0  0  0  0  0
   10.1141   19.3517    0.3569 N   0  0  0  0  0  0  0  0  0  0  0  0
   10.9160   18.7891    1.3275 C   0  0  0  0  0  0  0  0  0  0  0  0
   10.4060   17.9666    2.1341 O   0  0  0  0  0  0  0  0  0  0  0  0
   12.6557   20.9405    0.8864 H   0  0  0  0  0  0  0  0  0  0  0  0
   16.6244   20.5155   -2.0312 H   0  0  0  0  0  0  0  0  0  0  0  0
   13.0204   22.8797   -0.2478 H   0  0  0  0  0  0  0  0  0  0  0  0
   10.8277   26.8431   -1.0276 H   0  0  0  0  0  0  0  0  0  0  0  0
   10.3940   23.4026    1.9954 H   0  0  0  0  0  0  0  0  0  0  0  0
    9.6884   18.6323   -0.3396 H   0  0  0  0  0  0  0  0  0  0  0  0
   12.1292   21.0483    3.0843 C   0  0  0  0  0  0  0  0  0  0  0  0
   12.4970   19.5943    2.9822 C   0  0  0  0  0  0  0  0  0  0  0  0
   11.7175   18.7936    4.0020 C   0  0  0  0  0  0  0  0  0  0  0  0
   16.0225   19.2591    0.1745 C   0  0  0  0  0  0  0  0  0  0  0  0
   17.3991   18.9204   -0.3120 C   0  0  0  0  0  0  0  0  0  0  0  0
   16.1640   20.3676    1.2255 C   0  0  0  0  0  0  0  0  0  0  0  0
   15.4519   23.1878    0.1347 C   0  0  0  0  0  0  0  0  0  0  0  0
   15.8677   24.4511    0.7177 C   0  0  0  0  0  0  0  0  0  0  0  0
   17.1456   24.9340    0.9479 C   0  0  0  0  0  0  0  0  0  0  0  0
   17.0985   26.1571    1.5035 N   0  0  0  0  0  0  0  0  0  0  0  0
   15.8018   26.4786    1.6386 C   0  0  0  0  0  0  0  0  0  0  0  0
   15.1730   27.6060    2.1446 C   0  0  0  0  0  0  0  0  0  0  0  0
   13.8025   27.7364    2.1911 C   0  0  0  0  0  0  0  0  0  0  0  0
   13.0345   26.6735    1.7014 C   0  0  0  0  0  0  0  0  0  0  0  0
   13.6302   25.5517    1.1977 C   0  0  0  0  0  0  0  0  0  0  0  0
   15.0006   25.4478    1.1633 C   0  0  0  0  0  0  0  0  0  0  0  0
   17.8992   26.7778    1.7927 H   0  0  0  0  0  0  0  0  0  0  0  0
   13.2023   26.2838   -2.2108 C   0  0  0  0  0  0  0  0  0  0  0  0
   13.8034   26.1304   -3.5770 C   0  0  0  0  0  0  0  0  0  0  0  0
   13.4082   26.9277   -4.6298 C   0  0  0  0  0  0  0  0  0  0  0  0
   13.9158   26.8145   -5.9020 C   0  0  0  0  0  0  0  0  0  0  0  0
   14.8740   25.8368   -6.1024 C   0  0  0  0  0  0  0  0  0  0  0  0
   15.3996   25.7033   -7.3714 O   0  0  0  0  0  0  0  0  0  0  0  0
   15.2846   25.0218   -5.0480 C   0  0  0  0  0  0  0  0  0  0  0  0
   14.7526   25.1696   -3.7987 C   0  0  0  0  0  0  0  0  0  0  0  0
   16.2252   26.2516   -7.5941 H   0  0  0  0  0  0  0  0  0  0  0  0
    8.1928   24.5239    0.1884 C   0  0  0  0  0  0  0  0  0  0  0  0
    7.7800   24.8618    1.5416 C   0  0  0  0  0  0  0  0  0  0  0  0
    7.5113   23.8741    2.4566 C   0  0  0  0  0  0  0  0  0  0  0  0
    7.1046   24.2164    3.7489 C   0  0  0  0  0  0  0  0  0  0  0  0
    6.9669   25.5276    4.1269 C   0  0  0  0  0  0  0  0  0  0  0  0
    6.5587   25.8573    5.4250 O   0  0  0  0  0  0  0  0  0  0  0  0
    7.2367   26.5263    3.2083 C   0  0  0  0  0  0  0  0  0  0  0  0
    7.6413   26.1769    1.9224 C   0  0  0  0  0  0  0  0  0  0  0  0
    6.4689   26.8349    5.6666 H   0  0  0  0  0  0  0  0  0  0  0  0
    8.3410   20.6562   -0.6424 C   0  0  0  0  0  0  0  0  0  0  0  0
    7.4516   19.6202   -0.0786 C   0  0  0  0  0  0  0  0  0  0  0  0
    7.2052   18.3302   -0.4764 C   0  0  0  0  0  0  0  0  0  0  0  0
    6.3107   17.7688    0.3557 N   0  0  0  0  0  0  0  0  0  0  0  0
    5.9981   18.7000    1.2692 C   0  0  0  0  0  0  0  0  0  0  0  0
    6.6777   19.8161    1.0178 N   0  0  0  0  0  0  0  0  0  0  0  0
    6.6095   20.7033    1.5953 H   0  0  0  0  0  0  0  0  0  0  0  0
 31 32  1  0  0  0
 32 33  1  0  0  0
 32  1  1  0  0  0
  1  2  1  0  0  0
  2  3  1  0  0  0
  3  4  2  0  0  0
  3  5  1  0  0  0
  5  6  1  0  0  0
  6  7  1  0  0  0
  7  8  2  0  0  0
  7  9  1  0  0  0
  9 37  1  0  0  0
 37 38  1  0  0  0
 38 39  2  0  0  0
 39 40  1  0  0  0
 40 41  1  0  0  0
 41 42  2  0  0  0
 42 43  1  0  0  0
 43 44  2  0  0  0
 44 45  1  0  0  0
 45 46  2  0  0  0
  9 10  1  0  0  0
 10 11  1  0  0  0
 11 12  2  0  0  0
 11 13  1  0  0  0
 13 48  1  0  0  0
 48 49  1  0  0  0
 49 50  2  0  0  0
 50 51  1  0  0  0
 51 52  2  0  0  0
 52 53  1  0  0  0
 52 54  1  0  0  0
 54 55  2  0  0  0
 13 14  1  0  0  0
 14 15  1  0  0  0
 15 16  2  0  0  0
 15 17  1  0  0  0
 17 57  1  0  0  0
 57 58  1  0  0  0
 58 59  2  0  0  0
 59 60  1  0  0  0
 60 61  2  0  0  0
 61 62  1  0  0  0
 61 63  1  0  0  0
 63 64  2  0  0  0
 17 18  1  0  0  0
 18 19  1  0  0  0
 19 20  2  0  0  0
 19 21  1  0  0  0
 21 66  1  0  0  0
 66 67  1  0  0  0
 67 68  2  0  0  0
 68 69  1  0  0  0
 69 70  2  0  0  0
 70 71  1  0  0  0
 21 22  1  0  0  0
 22 23  1  0  0  0
 23 24  2  0  0  0
  5 34  1  0  0  0
 34 35  1  0  0  0
 34 36  1  0  0  0
 23  1  1  0  0  0
 46 38  1  0  0  0
 55 49  1  0  0  0
 64 58  1  0  0  0
 71 67  1  0  0  0
 46 41  1  0  0  0
  2 25  1  0  0  0
  6 26  1  0  0  0
 40 47  1  0  0  0
 10 27  1  0  0  0
 53 56  1  0  0  0
 14 28  1  0  0  0
 62 65  1  0  0  0
 18 29  1  0  0  0
 71 72  1  0  0  0
 22 30  1  0  0  0
M  END
> <minimizedAffinity>
29.55754

> <CNNscore>
0.3353590071

> <CNNaffinity>
7.9769682884

> <CNN_VS>
2.6751482487

> <CNNaffinity_variance>
1.6526234150

$$$$
[H]Oc1c([H])c([H])c(C([H])([H])[C@@]2([H])C(=O)N([H])[C@@]([H])(C([H])([H])c3c([H])c([H])c(O[H])c([H])c3[H])C(=O)N([H])[C@@]([H])(C([H])([H])c3c([H])n([H])c4c([H])c([H])c([H])c([H])c34)C(=O)N([H])[C@@]([H])(C([H])(C([H])([H])[H])C([H])([H])[H])C(=O)N([H])[C@@]([H])(C([H])(C([H])([H])[H])C([H])([H])[H])C(=O)N([H])[C@@]([H])(C([H])([H])c3c([H])nc([H])n3[H])C(=O)N2[H])c([H])c1[H]


 72 77  0  0  0  0  0  0  0  0999 V2000
    7.5396   21.5879    2.9291 C   0  0  0  0  0  0  0  0  0  0  0  0
    8.0447   21.5561    1.5991 N   0  0  0  0  0  0  0  0  0  0  0  0
    7.5521   21.2944    0.3269 C   0  0  0  0  0  0  0  0  0  0  0  0
    7.2178   22.3522   -0.4030 O   0  0  0  0  0  0  0  0  0  0  0  0
    7.3033   20.0803   -0.4476 C   0  0  0  0  0  0  0  0  0  0  0  0
    8.0562   19.9812   -1.7080 N   0  0  0  0  0  0  0  0  0  0  0  0
    9.0839   20.6816   -2.2481 C   0  0  0  0  0  0  0  0  0  0  0  0
    8.8635   21.3092   -3.3581 O   0  0  0  0  0  0  0  0  0  0  0  0
   10.5148   20.8956   -1.8024 C   0  0  0  0  0  0  0  0  0  0  0  0
   10.6755   22.2015   -1.2032 N   0  0  0  0  0  0  0  0  0  0  0  0
   10.9551   23.4591   -1.6982 C   0  0  0  0  0  0  0  0  0  0  0  0
    9.9666   24.2921   -1.8627 O   0  0  0  0  0  0  0  0  0  0  0  0
   12.2571   24.0593   -2.0948 C   0  0  0  0  0  0  0  0  0  0  0  0
   13.0347   24.5548   -0.9801 N   0  0  0  0  0  0  0  0  0  0  0  0
   12.7276   24.5712    0.3864 C   0  0  0  0  0  0  0  0  0  0  0  0
   13.4521   23.8502    1.1658 O   0  0  0  0  0  0  0  0  0  0  0  0
   11.6661   25.3133    1.1030 C   0  0  0  0  0  0  0  0  0  0  0  0
   11.1525   24.5629    2.1990 N   0  0  0  0  0  0  0  0  0  0  0  0
    9.8593   24.6576    2.7899 C   0  0  0  0  0  0  0  0  0  0  0  0
    9.8410   24.5746    4.0662 O   0  0  0  0  0  0  0  0  0  0  0  0
    8.5996   24.8337    2.0955 C   0  0  0  0  0  0  0  0  0  0  0  0
    7.4406   24.1813    2.6307 N   0  0  0  0  0  0  0  0  0  0  0  0
    7.2444   23.0201    3.3481 C   0  0  0  0  0  0  0  0  0  0  0  0
    6.7567   23.0980    4.5071 O   0  0  0  0  0  0  0  0  0  0  0  0
    9.0968   21.8416    1.6075 H   0  0  0  0  0  0  0  0  0  0  0  0
    7.6579   19.1669   -2.2937 H   0  0  0  0  0  0  0  0  0  0  0  0
   10.5191   22.1568   -0.1411 H   0  0  0  0  0  0  0  0  0  0  0  0
   13.9803   24.9647   -1.2637 H   0  0  0  0  0  0  0  0  0  0  0  0
   11.8064   23.8450    2.6330 H   0  0  0  0  0  0  0  0  0  0  0  0
    6.5271   24.7345    2.4223 H   0  0  0  0  0  0  0  0  0  0  0  0
    8.0060   20.7502    5.2790 C   0  0  0  0  0  0  0  0  0  0  0  0
    8.5631   21.0653    3.9188 C   0  0  0  0  0  0  0  0  0  0  0  0
    9.3367   19.8767    3.3918 C   0  0  0  0  0  0  0  0  0  0  0  0
    7.2496   18.7722    0.2525 C   0  0  0  0  0  0  0  0  0  0  0  0
    8.5283   18.3627    0.9187 C   0  0  0  0  0  0  0  0  0  0  0  0
    6.1604   18.8170    1.3319 C   0  0  0  0  0  0  0  0  0  0  0  0
   10.9239   19.8100   -0.8355 C   0  0  0  0  0  0  0  0  0  0  0  0
   12.0131   20.1271    0.0712 C   0  0  0  0  0  0  0  0  0  0  0  0
   12.0309   20.1278    1.4564 C   0  0  0  0  0  0  0  0  0  0  0  0
   13.2448   20.4776    1.9158 N   0  0  0  0  0  0  0  0  0  0  0  0
   14.0210   20.7054    0.8440 C   0  0  0  0  0  0  0  0  0  0  0  0
   15.3480   21.0887    0.7237 C   0  0  0  0  0  0  0  0  0  0  0  0
   15.9632   21.2693   -0.4954 C   0  0  0  0  0  0  0  0  0  0  0  0
   15.1962   21.0510   -1.6458 C   0  0  0  0  0  0  0  0  0  0  0  0
   13.8863   20.6730   -1.5539 C   0  0  0  0  0  0  0  0  0  0  0  0
   13.2971   20.4997   -0.3240 C   0  0  0  0  0  0  0  0  0  0  0  0
   13.5674   20.5680    2.9147 H   0  0  0  0  0  0  0  0  0  0  0  0
   13.0285   23.1237   -3.0120 C   0  0  0  0  0  0  0  0  0  0  0  0
   14.0912   23.8495   -3.7837 C   0  0  0  0  0  0  0  0  0  0  0  0
   13.8905   25.1299   -4.2534 C   0  0  0  0  0  0  0  0  0  0  0  0
   14.8252   25.8291   -4.9789 C   0  0  0  0  0  0  0  0  0  0  0  0
   16.0219   25.1832   -5.2340 C   0  0  0  0  0  0  0  0  0  0  0  0
   16.9772   25.8645   -5.9605 O   0  0  0  0  0  0  0  0  0  0  0  0
   16.2407   23.8880   -4.7660 C   0  0  0  0  0  0  0  0  0  0  0  0
   15.2827   23.2302   -4.0482 C   0  0  0  0  0  0  0  0  0  0  0  0
   17.6430   26.4291   -5.4411 H   0  0  0  0  0  0  0  0  0  0  0  0
   12.2458   26.6712    1.5433 C   0  0  0  0  0  0  0  0  0  0  0  0
   12.4234   27.6191    0.4545 C   0  0  0  0  0  0  0  0  0  0  0  0
   11.8900   28.8817    0.5341 C   0  0  0  0  0  0  0  0  0  0  0  0
   12.0602   29.7758   -0.5262 C   0  0  0  0  0  0  0  0  0  0  0  0
   12.7540   29.4175   -1.6537 C   0  0  0  0  0  0  0  0  0  0  0  0
   12.9175   30.3229   -2.7092 O   0  0  0  0  0  0  0  0  0  0  0  0
   13.2934   28.1464   -1.7383 C   0  0  0  0  0  0  0  0  0  0  0  0
   13.1193   27.2612   -0.6776 C   0  0  0  0  0  0  0  0  0  0  0  0
   13.4355   30.0226   -3.5238 H   0  0  0  0  0  0  0  0  0  0  0  0
    8.3293   26.3446    2.0184 C   0  0  0  0  0  0  0  0  0  0  0  0
    7.5678   26.8353    3.1852 C   0  0  0  0  0  0  0  0  0  0  0  0
    6.6223   27.8239    3.2934 C   0  0  0  0  0  0  0  0  0  0  0  0
    6.2083   27.9091    4.5697 N   0  0  0  0  0  0  0  0  0  0  0  0
    6.8892   26.9802    5.2576 C   0  0  0  0  0  0  0  0  0  0  0  0
    7.7086   26.3294    4.4357 N   0  0  0  0  0  0  0  0  0  0  0  0
    8.3579   25.5449    4.7326 H   0  0  0  0  0  0  0  0  0  0  0  0
 31 32  1  0  0  0
 32 33  1  0  0  0
 32  1  1  0  0  0
  1  2  1  0  0  0
  2  3  1  0  0  0
  3  4  2  0  0  0
  3  5  1  0  0  0
  5  6  1  0  0  0
  6  7  1  0  0  0
  7  8  2  0  0  0
  7  9  1  0  0  0
  9 37  1  0  0  0
 37 38  1  0  0  0
 38 39  2  0  0  0
 39 40  1  0  0  0
 40 41  1  0  0  0
 41 42  2  0  0  0
 42 43  1  0  0  0
 43 44  2  0  0  0
 44 45  1  0  0  0
 45 46  2  0  0  0
  9 10  1  0  0  0
 10 11  1  0  0  0
 11 12  2  0  0  0
 11 13  1  0  0  0
 13 48  1  0  0  0
 48 49  1  0  0  0
 49 50  2  0  0  0
 50 51  1  0  0  0
 51 52  2  0  0  0
 52 53  1  0  0  0
 52 54  1  0  0  0
 54 55  2  0  0  0
 13 14  1  0  0  0
 14 15  1  0  0  0
 15 16  2  0  0  0
 15 17  1  0  0  0
 17 57  1  0  0  0
 57 58  1  0  0  0
 58 59  2  0  0  0
 59 60  1  0  0  0
 60 61  2  0  0  0
 61 62  1  0  0  0
 61 63  1  0  0  0
 63 64  2  0  0  0
 17 18  1  0  0  0
 18 19  1  0  0  0
 19 20  2  0  0  0
 19 21  1  0  0  0
 21 66  1  0  0  0
 66 67  1  0  0  0
 67 68  2  0  0  0
 68 69  1  0  0  0
 69 70  2  0  0  0
 70 71  1  0  0  0
 21 22  1  0  0  0
 22 23  1  0  0  0
 23 24  2  0  0  0
  5 34  1  0  0  0
 34 35  1  0  0  0
 34 36  1  0  0  0
 23  1  1  0  0  0
 46 38  1  0  0  0
 55 49  1  0  0  0
 64 58  1  0  0  0
 71 67  1  0  0  0
 46 41  1  0  0  0
  2 25  1  0  0  0
  6 26  1  0  0  0
 40 47  1  0  0  0
 10 27  1  0  0  0
 53 56  1  0  0  0
 14 28  1  0  0  0
 62 65  1  0  0  0
 18 29  1  0  0  0
 71 72  1  0  0  0
 22 30  1  0  0  0
M  END
> <minimizedAffinity>
50.04143

> <CNNscore>
0.3287045062

> <CNNaffinity>
7.4966826439

> <CNN_VS>
2.4641933441

> <CNNaffinity_variance>
0.2583351135

$$$$
[H]Oc1c([H])c([H])c(C([H])([H])[C@@]2([H])C(=O)N([H])[C@@]([H])(C([H])([H])c3c([H])c([H])c(O[H])c([H])c3[H])C(=O)N([H])[C@@]([H])(C([H])([H])c3c([H])n([H])c4c([H])c([H])c([H])c([H])c34)C(=O)N([H])[C@@]([H])(C([H])(C([H])([H])[H])C([H])([H])[H])C(=O)N([H])[C@@]([H])(C([H])(C([H])([H])[H])C([H])([H])[H])C(=O)N([H])[C@@]([H])(C([H])([H])c3c([H])nc([H])n3[H])C(=O)N2[H])c([H])c1[H]


 72 77  0  0  0  0  0  0  0  0999 V2000
   14.5599   21.3349   -5.1490 C   0  0  0  0  0  0  0  0  0  0  0  0
   14.3546   22.5627   -4.4596 N   0  0  0  0  0  0  0  0  0  0  0  0
   13.9010   23.8399   -4.7638 C   0  0  0  0  0  0  0  0  0  0  0  0
   12.6286   24.0945   -4.4815 O   0  0  0  0  0  0  0  0  0  0  0  0
   14.5113   25.0351   -5.3426 C   0  0  0  0  0  0  0  0  0  0  0  0
   14.4988   26.2228   -4.4741 N   0  0  0  0  0  0  0  0  0  0  0  0
   14.2082   26.4293   -3.1659 C   0  0  0  0  0  0  0  0  0  0  0  0
   13.2078   27.2020   -2.8889 O   0  0  0  0  0  0  0  0  0  0  0  0
   14.8429   25.9191   -1.8898 C   0  0  0  0  0  0  0  0  0  0  0  0
   14.0562   24.8496   -1.3176 N   0  0  0  0  0  0  0  0  0  0  0  0
   12.9830   24.8023   -0.4512 C   0  0  0  0  0  0  0  0  0  0  0  0
   11.7917   24.6342   -0.9519 O   0  0  0  0  0  0  0  0  0  0  0  0
   12.9499   24.9136    1.0318 C   0  0  0  0  0  0  0  0  0  0  0  0
   13.2879   23.6851    1.7167 N   0  0  0  0  0  0  0  0  0  0  0  0
   13.6090   22.4276    1.1899 C   0  0  0  0  0  0  0  0  0  0  0  0
   14.8017   21.9897    1.3853 O   0  0  0  0  0  0  0  0  0  0  0  0
   12.7651   21.4876    0.4184 C   0  0  0  0  0  0  0  0  0  0  0  0
   13.5252   20.7849   -0.5596 N   0  0  0  0  0  0  0  0  0  0  0  0
   13.0612   20.2195   -1.7825 C   0  0  0  0  0  0  0  0  0  0  0  0
   13.5646   19.0810   -2.0768 O   0  0  0  0  0  0  0  0  0  0  0  0
   12.0991   20.8015   -2.6967 C   0  0  0  0  0  0  0  0  0  0  0  0
   12.2886   20.5819   -4.1007 N   0  0  0  0  0  0  0  0  0  0  0  0
   13.3985   20.3859   -4.8953 C   0  0  0  0  0  0  0  0  0  0  0  0
   13.5145   19.2966   -5.5175 O   0  0  0  0  0  0  0  0  0  0  0  0
   14.6055   22.4299   -3.4070 H   0  0  0  0  0  0  0  0  0  0  0  0
   14.7791   27.0878   -5.0555 H   0  0  0  0  0  0  0  0  0  0  0  0
   14.3905   23.8941   -1.6779 H   0  0  0  0  0  0  0  0  0  0  0  0
   13.2866   23.7722    2.7821 H   0  0  0  0  0  0  0  0  0  0  0  0
   14.5628   20.6636   -0.3598 H   0  0  0  0  0  0  0  0  0  0  0  0
   11.3454   20.5643   -4.6429 H   0  0  0  0  0  0  0  0  0  0  0  0
   16.9766   20.6900   -5.5787 C   0  0  0  0  0  0  0  0  0  0  0  0
   15.8001   20.6219   -4.6454 C   0  0  0  0  0  0  0  0  0  0  0  0
   16.2148   21.0705   -3.2613 C   0  0  0  0  0  0  0  0  0  0  0  0
   15.8006   24.9115   -6.0683 C   0  0  0  0  0  0  0  0  0  0  0  0
   16.4254   23.5503   -6.0127 C   0  0  0  0  0  0  0  0  0  0  0  0
   15.5881   25.2619   -7.5467 C   0  0  0  0  0  0  0  0  0  0  0  0
   16.2548   25.4572   -2.1623 C   0  0  0  0  0  0  0  0  0  0  0  0
   17.1794   26.4600   -2.6605 C   0  0  0  0  0  0  0  0  0  0  0  0
   18.4849   26.7191   -2.2763 C   0  0  0  0  0  0  0  0  0  0  0  0
   18.9982   27.7346   -2.9920 N   0  0  0  0  0  0  0  0  0  0  0  0
   18.0407   28.1418   -3.8408 C   0  0  0  0  0  0  0  0  0  0  0  0
   18.0160   29.1407   -4.8020 C   0  0  0  0  0  0  0  0  0  0  0  0
   16.9093   29.3970   -5.5811 C   0  0  0  0  0  0  0  0  0  0  0  0
   15.7751   28.6029   -5.3752 C   0  0  0  0  0  0  0  0  0  0  0  0
   15.7742   27.6123   -4.4341 C   0  0  0  0  0  0  0  0  0  0  0  0
   16.8927   27.3778   -3.6700 C   0  0  0  0  0  0  0  0  0  0  0  0
   19.9601   28.1601   -2.9310 H   0  0  0  0  0  0  0  0  0  0  0  0
   13.7496   26.1177    1.5031 C   0  0  0  0  0  0  0  0  0  0  0  0
   15.2223   25.8318    1.5352 C   0  0  0  0  0  0  0  0  0  0  0  0
   15.7320   24.6340    1.0818 C   0  0  0  0  0  0  0  0  0  0  0  0
   17.0695   24.3185    1.1062 C   0  0  0  0  0  0  0  0  0  0  0  0
   17.9234   25.2780    1.6204 C   0  0  0  0  0  0  0  0  0  0  0  0
   19.2716   24.9853    1.6555 O   0  0  0  0  0  0  0  0  0  0  0  0
   17.4239   26.4948    2.0833 C   0  0  0  0  0  0  0  0  0  0  0  0
   16.0859   26.7660    2.0399 C   0  0  0  0  0  0  0  0  0  0  0  0
   19.8253   25.2402    0.8429 H   0  0  0  0  0  0  0  0  0  0  0  0
   12.0724   20.5385    1.4150 C   0  0  0  0  0  0  0  0  0  0  0  0
   11.3177   21.2211    2.4543 C   0  0  0  0  0  0  0  0  0  0  0  0
   11.2557   20.7053    3.7251 C   0  0  0  0  0  0  0  0  0  0  0  0
   10.5165   21.3679    4.7085 C   0  0  0  0  0  0  0  0  0  0  0  0
    9.8462   22.5316    4.4305 C   0  0  0  0  0  0  0  0  0  0  0  0
    9.1090   23.1860    5.4249 O   0  0  0  0  0  0  0  0  0  0  0  0
    9.9058   23.0553    3.1513 C   0  0  0  0  0  0  0  0  0  0  0  0
   10.6445   22.3889    2.1769 C   0  0  0  0  0  0  0  0  0  0  0  0
    8.6285   24.0418    5.1820 H   0  0  0  0  0  0  0  0  0  0  0  0
   10.7123   20.2763   -2.2935 C   0  0  0  0  0  0  0  0  0  0  0  0
    9.9625   21.2518   -1.4758 C   0  0  0  0  0  0  0  0  0  0  0  0
   10.1073   22.6090   -1.3340 C   0  0  0  0  0  0  0  0  0  0  0  0
    9.1847   23.0694   -0.4711 N   0  0  0  0  0  0  0  0  0  0  0  0
    8.4660   22.0085   -0.0745 C   0  0  0  0  0  0  0  0  0  0  0  0
    8.9247   20.9115   -0.6718 N   0  0  0  0  0  0  0  0  0  0  0  0
    8.5271   19.9387   -0.5276 H   0  0  0  0  0  0  0  0  0  0  0  0
 31 32  1  0  0  0
 32 33  1  0  0  0
 32  1  1  0  0  0
  1  2  1  0  0  0
  2  3  1  0  0  0
  3  4  2  0  0  0
  3  5  1  0  0  0
  5  6  1  0  0  0
  6  7  1  0  0  0
  7  8  2  0  0  0
  7  9  1  0  0  0
  9 37  1  0  0  0
 37 38  1  0  0  0
 38 39  2  0  0  0
 39 40  1  0  0  0
 40 41  1  0  0  0
 41 42  2  0  0  0
 42 43  1  0  0  0
 43 44  2  0  0  0
 44 45  1  0  0  0
 45 46  2  0  0  0
  9 10  1  0  0  0
 10 11  1  0  0  0
 11 12  2  0  0  0
 11 13  1  0  0  0
 13 48  1  0  0  0
 48 49  1  0  0  0
 49 50  2  0  0  0
 50 51  1  0  0  0
 51 52  2  0  0  0
 52 53  1  0  0  0
 52 54  1  0  0  0
 54 55  2  0  0  0
 13 14  1  0  0  0
 14 15  1  0  0  0
 15 16  2  0  0  0
 15 17  1  0  0  0
 17 57  1  0  0  0
 57 58  1  0  0  0
 58 59  2  0  0  0
 59 60  1  0  0  0
 60 61  2  0  0  0
 61 62  1  0  0  0
 61 63  1  0  0  0
 63 64  2  0  0  0
 17 18  1  0  0  0
 18 19  1  0  0  0
 19 20  2  0  0  0
 19 21  1  0  0  0
 21 66  1  0  0  0
 66 67  1  0  0  0
 67 68  2  0  0  0
 68 69  1  0  0  0
 69 70  2  0  0  0
 70 71  1  0  0  0
 21 22  1  0  0  0
 22 23  1  0  0  0
 23 24  2  0  0  0
  5 34  1  0  0  0
 34 35  1  0  0  0
 34 36  1  0  0  0
 23  1  1  0  0  0
 46 38  1  0  0  0
 55 49  1  0  0  0
 64 58  1  0  0  0
 71 67  1  0  0  0
 46 41  1  0  0  0
  2 25  1  0  0  0
  6 26  1  0  0  0
 40 47  1  0  0  0
 10 27  1  0  0  0
 53 56  1  0  0  0
 14 28  1  0  0  0
 62 65  1  0  0  0
 18 29  1  0  0  0
 71 72  1  0  0  0
 22 30  1  0  0  0
M  END
> <minimizedAffinity>
51.49923

> <CNNscore>
0.3158295155

> <CNNaffinity>
7.7904458046

> <CNN_VS>
2.4604527950

> <CNNaffinity_variance>
1.4181454182

$$$$
[H]Oc1c([H])c([H])c(C([H])([H])[C@@]2([H])C(=O)N([H])[C@@]([H])(C([H])([H])c3c([H])c([H])c(O[H])c([H])c3[H])C(=O)N([H])[C@@]([H])(C([H])([H])c3c([H])n([H])c4c([H])c([H])c([H])c([H])c34)C(=O)N([H])[C@@]([H])(C([H])(C([H])([H])[H])C([H])([H])[H])C(=O)N([H])[C@@]([H])(C([H])(C([H])([H])[H])C([H])([H])[H])C(=O)N([H])[C@@]([H])(C([H])([H])c3c([H])nc([H])n3[H])C(=O)N2[H])c([H])c1[H]


 72 77  0  0  0  0  0  0  0  0999 V2000
    9.8998   23.1573   -1.8905 C   0  0  0  0  0  0  0  0  0  0  0  0
   11.1784   23.6742   -1.5400 N   0  0  0  0  0  0  0  0  0  0  0  0
   11.7521   24.9221   -1.3318 C   0  0  0  0  0  0  0  0  0  0  0  0
   11.8446   25.3232   -0.0693 O   0  0  0  0  0  0  0  0  0  0  0  0
   12.3123   25.9525   -2.2038 C   0  0  0  0  0  0  0  0  0  0  0  0
   13.7286   26.2695   -1.9621 N   0  0  0  0  0  0  0  0  0  0  0  0
   14.7094   25.6935   -1.2239 C   0  0  0  0  0  0  0  0  0  0  0  0
   15.2157   26.3862   -0.2552 O   0  0  0  0  0  0  0  0  0  0  0  0
   15.3750   24.3359   -1.2986 C   0  0  0  0  0  0  0  0  0  0  0  0
   14.8586   23.4545   -0.2755 N   0  0  0  0  0  0  0  0  0  0  0  0
   15.1886   23.2134    1.0426 C   0  0  0  0  0  0  0  0  0  0  0  0
   14.4673   23.7731    1.9724 O   0  0  0  0  0  0  0  0  0  0  0  0
   16.2804   22.3806    1.6146 C   0  0  0  0  0  0  0  0  0  0  0  0
   15.9774   20.9665    1.6510 N   0  0  0  0  0  0  0  0  0  0  0  0
   14.8156   20.2911    1.2557 C   0  0  0  0  0  0  0  0  0  0  0  0
   14.9082   19.4855    0.2584 O   0  0  0  0  0  0  0  0  0  0  0  0
   13.4503   20.3570    1.8234 C   0  0  0  0  0  0  0  0  0  0  0  0
   12.4567   20.2253    0.8117 N   0  0  0  0  0  0  0  0  0  0  0  0
   11.1219   20.7240    0.8313 C   0  0  0  0  0  0  0  0  0  0  0  0
   10.2425   19.9329    0.3444 O   0  0  0  0  0  0  0  0  0  0  0  0
   10.6838   22.0092    1.3375 C   0  0  0  0  0  0  0  0  0  0  0  0
    9.6060   22.6666    0.6584 N   0  0  0  0  0  0  0  0  0  0  0  0
    9.1653   22.6768   -0.6482 C   0  0  0  0  0  0  0  0  0  0  0  0
    8.0093   22.2452   -0.9020 O   0  0  0  0  0  0  0  0  0  0  0  0
   11.8669   22.8459   -1.3714 H   0  0  0  0  0  0  0  0  0  0  0  0
   13.9869   27.1663   -2.5041 H   0  0  0  0  0  0  0  0  0  0  0  0
   14.0232   22.8885   -0.6445 H   0  0  0  0  0  0  0  0  0  0  0  0
   16.7715   20.3663    2.0405 H   0  0  0  0  0  0  0  0  0  0  0  0
   12.7372   19.6926   -0.0651 H   0  0  0  0  0  0  0  0  0  0  0  0
    9.0142   23.2835    1.3317 H   0  0  0  0  0  0  0  0  0  0  0  0
   10.2607   20.6517   -2.0715 C   0  0  0  0  0  0  0  0  0  0  0  0
   10.0251   21.9474   -2.7964 C   0  0  0  0  0  0  0  0  0  0  0  0
    8.8566   21.8005   -3.7461 C   0  0  0  0  0  0  0  0  0  0  0  0
   12.0083   25.9163   -3.6566 C   0  0  0  0  0  0  0  0  0  0  0  0
   10.5712   26.1612   -4.0045 C   0  0  0  0  0  0  0  0  0  0  0  0
   12.8459   26.9797   -4.3784 C   0  0  0  0  0  0  0  0  0  0  0  0
   15.1764   23.7364   -2.6705 C   0  0  0  0  0  0  0  0  0  0  0  0
   15.4428   24.6065   -3.8022 C   0  0  0  0  0  0  0  0  0  0  0  0
   15.0563   24.4697   -5.1255 C   0  0  0  0  0  0  0  0  0  0  0  0
   15.5053   25.5016   -5.8608 N   0  0  0  0  0  0  0  0  0  0  0  0
   16.1814   26.3120   -5.0306 C   0  0  0  0  0  0  0  0  0  0  0  0
   16.8487   27.5090   -5.2414 C   0  0  0  0  0  0  0  0  0  0  0  0
   17.4890   28.1923   -4.2312 C   0  0  0  0  0  0  0  0  0  0  0  0
   17.4505   27.6352   -2.9477 C   0  0  0  0  0  0  0  0  0  0  0  0
   16.7998   26.4566   -2.7141 C   0  0  0  0  0  0  0  0  0  0  0  0
   16.1687   25.7952   -3.7409 C   0  0  0  0  0  0  0  0  0  0  0  0
   15.3748   25.6791   -6.8910 H   0  0  0  0  0  0  0  0  0  0  0  0
   17.6118   22.7050    0.9562 C   0  0  0  0  0  0  0  0  0  0  0  0
   18.2071   23.9723    1.4956 C   0  0  0  0  0  0  0  0  0  0  0  0
   19.4330   23.9792    2.1259 C   0  0  0  0  0  0  0  0  0  0  0  0
   20.0118   25.1096    2.6513 C   0  0  0  0  0  0  0  0  0  0  0  0
   19.2983   26.2881    2.5235 C   0  0  0  0  0  0  0  0  0  0  0  0
   19.8584   27.4375    3.0428 O   0  0  0  0  0  0  0  0  0  0  0  0
   18.0567   26.2982    1.8888 C   0  0  0  0  0  0  0  0  0  0  0  0
   17.5190   25.1499    1.3809 C   0  0  0  0  0  0  0  0  0  0  0  0
   20.4532   27.9851    2.4279 H   0  0  0  0  0  0  0  0  0  0  0  0
   13.3300   19.2689    2.9076 C   0  0  0  0  0  0  0  0  0  0  0  0
   12.0312   19.2266    3.5610 C   0  0  0  0  0  0  0  0  0  0  0  0
   11.2002   18.1467    3.3932 C   0  0  0  0  0  0  0  0  0  0  0  0
    9.9509   18.1277    4.0189 C   0  0  0  0  0  0  0  0  0  0  0  0
    9.5329   19.1720    4.8034 C   0  0  0  0  0  0  0  0  0  0  0  0
    8.2786   19.1407    5.4250 O   0  0  0  0  0  0  0  0  0  0  0  0
   10.3669   20.2623    4.9755 C   0  0  0  0  0  0  0  0  0  0  0  0
   11.6103   20.2737    4.3485 C   0  0  0  0  0  0  0  0  0  0  0  0
    8.0056   19.9291    5.9960 H   0  0  0  0  0  0  0  0  0  0  0  0
   10.2961   21.8100    2.8112 C   0  0  0  0  0  0  0  0  0  0  0  0
    9.6311   23.0007    3.3788 C   0  0  0  0  0  0  0  0  0  0  0  0
    8.6383   23.1160    4.3192 C   0  0  0  0  0  0  0  0  0  0  0  0
    8.3567   24.4161    4.5149 N   0  0  0  0  0  0  0  0  0  0  0  0
    9.1671   25.1115    3.7031 C   0  0  0  0  0  0  0  0  0  0  0  0
    9.9368   24.2712    3.0161 N   0  0  0  0  0  0  0  0  0  0  0  0
   10.6653   24.5695    2.3050 H   0  0  0  0  0  0  0  0  0  0  0  0
 31 32  1  0  0  0
 32 33  1  0  0  0
 32  1  1  0  0  0
  1  2  1  0  0  0
  2  3  1  0  0  0
  3  4  2  0  0  0
  3  5  1  0  0  0
  5  6  1  0  0  0
  6  7  1  0  0  0
  7  8  2  0  0  0
  7  9  1  0  0  0
  9 37  1  0  0  0
 37 38  1  0  0  0
 38 39  2  0  0  0
 39 40  1  0  0  0
 40 41  1  0  0  0
 41 42  2  0  0  0
 42 43  1  0  0  0
 43 44  2  0  0  0
 44 45  1  0  0  0
 45 46  2  0  0  0
  9 10  1  0  0  0
 10 11  1  0  0  0
 11 12  2  0  0  0
 11 13  1  0  0  0
 13 48  1  0  0  0
 48 49  1  0  0  0
 49 50  2  0  0  0
 50 51  1  0  0  0
 51 52  2  0  0  0
 52 53  1  0  0  0
 52 54  1  0  0  0
 54 55  2  0  0  0
 13 14  1  0  0  0
 14 15  1  0  0  0
 15 16  2  0  0  0
 15 17  1  0  0  0
 17 57  1  0  0  0
 57 58  1  0  0  0
 58 59  2  0  0  0
 59 60  1  0  0  0
 60 61  2  0  0  0
 61 62  1  0  0  0
 61 63  1  0  0  0
 63 64  2  0  0  0
 17 18  1  0  0  0
 18 19  1  0  0  0
 19 20  2  0  0  0
 19 21  1  0  0  0
 21 66  1  0  0  0
 66 67  1  0  0  0
 67 68  2  0  0  0
 68 69  1  0  0  0
 69 70  2  0  0  0
 70 71  1  0  0  0
 21 22  1  0  0  0
 22 23  1  0  0  0
 23 24  2  0  0  0
  5 34  1  0  0  0
 34 35  1  0  0  0
 34 36  1  0  0  0
 23  1  1  0  0  0
 46 38  1  0  0  0
 55 49  1  0  0  0
 64 58  1  0  0  0
 71 67  1  0  0  0
 46 41  1  0  0  0
  2 25  1  0  0  0
  6 26  1  0  0  0
 40 47  1  0  0  0
 10 27  1  0  0  0
 53 56  1  0  0  0
 14 28  1  0  0  0
 62 65  1  0  0  0
 18 29  1  0  0  0
 71 72  1  0  0  0
 22 30  1  0  0  0
M  END
> <minimizedAffinity>
36.77049

> <CNNscore>
0.3085103631

> <CNNaffinity>
8.0694379807

> <CNN_VS>
2.4895052910

> <CNNaffinity_variance>
1.8211240768

$$$$
[H]c1nc(C([H])([H])[H])c([H])c(-c2nc(-c3c([H])c([H])c(Cl)c(C(F)(F)F)c3[H])n3c2C([H])([H])C([H])([H])O[C@]([H])(C([H])([H])[H])C3([H])[H])c1[H]


 29 32  0  0  0  0  0  0  0  0999 V2000
   10.7314   26.9259   -0.9450 C   0  0  0  0  0  0  0  0  0  0  0  0
   11.9772   26.1215   -0.8627 C   0  0  0  0  0  0  0  0  0  0  0  0
   12.0882   25.2486   -2.1000 C   0  0  0  0  0  0  0  0  0  0  0  0
   13.2280   24.3860   -1.8633 N   0  0  0  0  0  0  0  0  0  0  0  0
   13.2165   23.3098   -0.9915 C   0  0  0  0  0  0  0  0  0  0  0  0
   12.0658   22.9537   -0.1516 C   0  0  0  0  0  0  0  0  0  0  0  0
   11.3599   24.2112    0.2863 C   0  0  0  0  0  0  0  0  0  0  0  0
   12.1096   25.3498    0.2904 O   0  0  0  0  0  0  0  0  0  0  0  0
   14.4343   22.6837   -1.0506 C   0  0  0  0  0  0  0  0  0  0  0  0
   15.1459   23.3685   -1.9283 N   0  0  0  0  0  0  0  0  0  0  0  0
   14.4119   24.4241   -2.4358 C   0  0  0  0  0  0  0  0  0  0  0  0
   14.9830   25.3100   -3.4450 C   0  0  0  0  0  0  0  0  0  0  0  0
   15.5686   26.5179   -3.2144 C   0  0  0  0  0  0  0  0  0  0  0  0
   16.0313   27.3457   -4.2436 C   0  0  0  0  0  0  0  0  0  0  0  0
   15.8810   26.9029   -5.5326 C   0  0  0  0  0  0  0  0  0  0  0  0
   16.4496   27.9124   -6.8706 Cl  0  0  0  0  0  0  0  0  0  0  0  0
   15.3005   25.6982   -5.7922 C   0  0  0  0  0  0  0  0  0  0  0  0
   14.8569   24.9090   -4.7824 C   0  0  0  0  0  0  0  0  0  0  0  0
   15.1698   25.2794   -7.2254 C   0  0  0  0  0  0  0  0  0  0  0  0
   14.3670   26.1368   -7.9350 F   0  0  0  0  0  0  0  0  0  0  0  0
   14.6421   23.9960   -7.2085 F   0  0  0  0  0  0  0  0  0  0  0  0
   16.4570   25.2349   -7.7304 F   0  0  0  0  0  0  0  0  0  0  0  0
   14.8179   21.5055   -0.2804 C   0  0  0  0  0  0  0  0  0  0  0  0
   16.0327   20.8907   -0.4677 C   0  0  0  0  0  0  0  0  0  0  0  0
   16.3314   19.7870    0.2891 C   0  0  0  0  0  0  0  0  0  0  0  0
   15.4707   19.3024    1.1973 N   0  0  0  0  0  0  0  0  0  0  0  0
   14.2719   19.8628    1.4212 C   0  0  0  0  0  0  0  0  0  0  0  0
   13.3202   19.3054    2.4436 C   0  0  0  0  0  0  0  0  0  0  0  0
   13.9643   20.9685    0.6679 C   0  0  0  0  0  0  0  0  0  0  0  0
  1  2  1  0  0  0
  2  3  1  0  0  0
  3  4  1  0  0  0
  4  5  1  0  0  0
  5  6  1  0  0  0
  6  7  1  0  0  0
  7  8  1  0  0  0
  5  9  2  0  0  0
  9 10  1  0  0  0
 10 11  2  0  0  0
 11 12  1  0  0  0
 12 13  2  0  0  0
 13 14  1  0  0  0
 14 15  2  0  0  0
 15 16  1  0  0  0
 15 17  1  0  0  0
 17 18  2  0  0  0
 17 19  1  0  0  0
 19 20  1  0  0  0
 19 21  1  0  0  0
 19 22  1  0  0  0
  9 23  1  0  0  0
 23 24  2  0  0  0
 24 25  1  0  0  0
 25 26  2  0  0  0
 26 27  1  0  0  0
 27 28  1  0  0  0
 27 29  2  0  0  0
  8  2  1  0  0  0
 18 12  1  0  0  0
 29 23  1  0  0  0
 11  4  1  0  0  0
M  END
> <minimizedAffinity>
20.06808

> <CNNscore>
0.5813351274

> <CNNaffinity>
7.3235063553

> <CNN_VS>
4.2574114799

> <CNNaffinity_variance>
1.2811053991

$$$$
[H]c1nc(C([H])([H])[H])c([H])c(-c2nc(-c3c([H])c([H])c(Cl)c(C(F)(F)F)c3[H])n3c2C([H])([H])C([H])([H])O[C@]([H])(C([H])([H])[H])C3([H])[H])c1[H]


 29 32  0  0  0  0  0  0  0  0999 V2000
   12.9661   26.7569   -4.7046 C   0  0  0  0  0  0  0  0  0  0  0  0
   13.6020   25.8255   -3.7382 C   0  0  0  0  0  0  0  0  0  0  0  0
   13.3799   26.3436   -2.3283 C   0  0  0  0  0  0  0  0  0  0  0  0
   14.1646   25.4788   -1.4708 N   0  0  0  0  0  0  0  0  0  0  0  0
   15.5451   25.5320   -1.3726 C   0  0  0  0  0  0  0  0  0  0  0  0
   16.3854   26.4284   -2.1770 C   0  0  0  0  0  0  0  0  0  0  0  0
   15.7791   26.5834   -3.5480 C   0  0  0  0  0  0  0  0  0  0  0  0
   14.9558   25.5768   -3.9574 O   0  0  0  0  0  0  0  0  0  0  0  0
   15.9545   24.6182   -0.4367 C   0  0  0  0  0  0  0  0  0  0  0  0
   14.8513   24.0400    0.0043 N   0  0  0  0  0  0  0  0  0  0  0  0
   13.7390   24.5619   -0.6287 C   0  0  0  0  0  0  0  0  0  0  0  0
   12.3999   24.0943   -0.2856 C   0  0  0  0  0  0  0  0  0  0  0  0
   11.4723   24.7777    0.4407 C   0  0  0  0  0  0  0  0  0  0  0  0
   10.2313   24.2336    0.7907 C   0  0  0  0  0  0  0  0  0  0  0  0
    9.9558   22.9568    0.3734 C   0  0  0  0  0  0  0  0  0  0  0  0
    8.4002   22.2226    0.7898 Cl  0  0  0  0  0  0  0  0  0  0  0  0
   10.8645   22.2509   -0.3558 C   0  0  0  0  0  0  0  0  0  0  0  0
   12.0628   22.7936   -0.6854 C   0  0  0  0  0  0  0  0  0  0  0  0
   10.4945   20.8609   -0.7775 C   0  0  0  0  0  0  0  0  0  0  0  0
    9.6120   20.8658   -1.8283 F   0  0  0  0  0  0  0  0  0  0  0  0
    9.9416   20.2505    0.3395 F   0  0  0  0  0  0  0  0  0  0  0  0
   11.6824   20.2292   -1.0993 F   0  0  0  0  0  0  0  0  0  0  0  0
   17.3377   24.3710   -0.0443 C   0  0  0  0  0  0  0  0  0  0  0  0
   18.2664   23.9062   -0.9446 C   0  0  0  0  0  0  0  0  0  0  0  0
   19.5498   23.6947   -0.5108 C   0  0  0  0  0  0  0  0  0  0  0  0
   19.9111   23.9301    0.7598 N   0  0  0  0  0  0  0  0  0  0  0  0
   19.0461   24.3841    1.6800 C   0  0  0  0  0  0  0  0  0  0  0  0
   19.4695   24.6422    3.0998 C   0  0  0  0  0  0  0  0  0  0  0  0
   17.7586   24.5988    1.2546 C   0  0  0  0  0  0  0  0  0  0  0  0
  1  2  1  0  0  0
  2  3  1  0  0  0
  3  4  1  0  0  0
  4  5  1  0  0  0
  5  6  1  0  0  0
  6  7  1  0  0  0
  7  8  1  0  0  0
  5  9  2  0  0  0
  9 10  1  0  0  0
 10 11  2  0  0  0
 11 12  1  0  0  0
 12 13  2  0  0  0
 13 14  1  0  0  0
 14 15  2  0  0  0
 15 16  1  0  0  0
 15 17  1  0  0  0
 17 18  2  0  0  0
 17 19  1  0  0  0
 19 20  1  0  0  0
 19 21  1  0  0  0
 19 22  1  0  0  0
  9 23  1  0  0  0
 23 24  2  0  0  0
 24 25  1  0  0  0
 25 26  2  0  0  0
 26 27  1  0  0  0
 27 28  1  0  0  0
 27 29  2  0  0  0
  8  2  1  0  0  0
 18 12  1  0  0  0
 29 23  1  0  0  0
 11  4  1  0  0  0
M  END
> <minimizedAffinity>
8.50786

> <CNNscore>
0.5641281009

> <CNNaffinity>
7.6120271683

> <CNN_VS>
4.2941584587

> <CNNaffinity_variance>
1.0601384640

$$$$
[H]c1nc(C([H])([H])[H])c([H])c(-c2nc(-c3c([H])c([H])c(Cl)c(C(F)(F)F)c3[H])n3c2C([H])([H])C([H])([H])O[C@]([H])(C([H])([H])[H])C3([H])[H])c1[H]


 29 32  0  0  0  0  0  0  0  0999 V2000
   10.6262   26.9737   -0.4301 C   0  0  0  0  0  0  0  0  0  0  0  0
   11.8716   26.1652   -0.4637 C   0  0  0  0  0  0  0  0  0  0  0  0
   11.8753   25.3094   -1.7179 C   0  0  0  0  0  0  0  0  0  0  0  0
   13.0278   24.4409   -1.5895 N   0  0  0  0  0  0  0  0  0  0  0  0
   13.0857   23.3526   -0.7347 C   0  0  0  0  0  0  0  0  0  0  0  0
   12.0082   22.9876    0.1939 C   0  0  0  0  0  0  0  0  0  0  0  0
   11.3460   24.2405    0.7067 C   0  0  0  0  0  0  0  0  0  0  0  0
   12.0975   25.3772    0.6636 O   0  0  0  0  0  0  0  0  0  0  0  0
   14.2919   22.7244   -0.9044 C   0  0  0  0  0  0  0  0  0  0  0  0
   14.9298   23.4198   -1.8292 N   0  0  0  0  0  0  0  0  0  0  0  0
   14.1597   24.4841   -2.2588 C   0  0  0  0  0  0  0  0  0  0  0  0
   14.6472   25.3827   -3.3001 C   0  0  0  0  0  0  0  0  0  0  0  0
   14.1362   25.5083   -4.5563 C   0  0  0  0  0  0  0  0  0  0  0  0
   14.7032   26.3427   -5.5263 C   0  0  0  0  0  0  0  0  0  0  0  0
   15.8199   27.0576   -5.1767 C   0  0  0  0  0  0  0  0  0  0  0  0
   16.5753   28.1274   -6.3671 Cl  0  0  0  0  0  0  0  0  0  0  0  0
   16.3512   26.9526   -3.9267 C   0  0  0  0  0  0  0  0  0  0  0  0
   15.7891   26.1383   -2.9993 C   0  0  0  0  0  0  0  0  0  0  0  0
   17.5725   27.7640   -3.6158 C   0  0  0  0  0  0  0  0  0  0  0  0
   18.5619   27.5717   -4.5469 F   0  0  0  0  0  0  0  0  0  0  0  0
   17.9890   27.3701   -2.3519 F   0  0  0  0  0  0  0  0  0  0  0  0
   17.1545   29.0818   -3.5662 F   0  0  0  0  0  0  0  0  0  0  0  0
   14.7346   21.5347   -0.1854 C   0  0  0  0  0  0  0  0  0  0  0  0
   15.9235   20.9150   -0.4878 C   0  0  0  0  0  0  0  0  0  0  0  0
   16.2808   19.8004    0.2263 C   0  0  0  0  0  0  0  0  0  0  0  0
   15.5014   19.3098    1.2022 N   0  0  0  0  0  0  0  0  0  0  0  0
   14.3314   19.8746    1.5390 C   0  0  0  0  0  0  0  0  0  0  0  0
   13.4711   19.3104    2.6359 C   0  0  0  0  0  0  0  0  0  0  0  0
   13.9655   20.9912    0.8292 C   0  0  0  0  0  0  0  0  0  0  0  0
  1  2  1  0  0  0
  2  3  1  0  0  0
  3  4  1  0  0  0
  4  5  1  0  0  0
  5  6  1  0  0  0
  6  7  1  0  0  0
  7  8  1  0  0  0
  5  9  2  0  0  0
  9 10  1  0  0  0
 10 11  2  0  0  0
 11 12  1  0  0  0
 12 13  2  0  0  0
 13 14  1  0  0  0
 14 15  2  0  0  0
 15 16  1  0  0  0
 15 17  1  0  0  0
 17 18  2  0  0  0
 17 19  1  0  0  0
 19 20  1  0  0  0
 19 21  1  0  0  0
 19 22  1  0  0  0
  9 23  1  0  0  0
 23 24  2  0  0  0
 24 25  1  0  0  0
 25 26  2  0  0  0
 26 27  1  0  0  0
 27 28  1  0  0  0
 27 29  2  0  0  0
  8  2  1  0  0  0
 18 12  1  0  0  0
 29 23  1  0  0  0
 11  4  1  0  0  0
M  END
> <minimizedAffinity>
19.80124

> <CNNscore>
0.5392761827

> <CNNaffinity>
7.2154068947

> <CNN_VS>
3.8910970688

> <CNNaffinity_variance>
0.9571079016

$$$$
[H]c1nc(C([H])([H])[H])c([H])c(-c2nc(-c3c([H])c([H])c(Cl)c(C(F)(F)F)c3[H])n3c2C([H])([H])C([H])([H])O[C@]([H])(C([H])([H])[H])C3([H])[H])c1[H]


 29 32  0  0  0  0  0  0  0  0999 V2000
   12.9412   26.7746   -4.6959 C   0  0  0  0  0  0  0  0  0  0  0  0
   13.6050   25.8187   -3.7731 C   0  0  0  0  0  0  0  0  0  0  0  0
   13.3250   26.2350   -2.3401 C   0  0  0  0  0  0  0  0  0  0  0  0
   14.1361   25.3601   -1.5181 N   0  0  0  0  0  0  0  0  0  0  0  0
   15.5094   25.4788   -1.3824 C   0  0  0  0  0  0  0  0  0  0  0  0
   16.3177   26.4664   -2.1089 C   0  0  0  0  0  0  0  0  0  0  0  0
   15.7338   26.6754   -3.4824 C   0  0  0  0  0  0  0  0  0  0  0  0
   14.9746   25.6551   -3.9734 O   0  0  0  0  0  0  0  0  0  0  0  0
   15.9467   24.5306   -0.4947 C   0  0  0  0  0  0  0  0  0  0  0  0
   14.8668   23.8692   -0.1177 N   0  0  0  0  0  0  0  0  0  0  0  0
   13.7421   24.3712   -0.7449 C   0  0  0  0  0  0  0  0  0  0  0  0
   12.4228   23.8139   -0.4647 C   0  0  0  0  0  0  0  0  0  0  0  0
   11.7562   22.9050   -1.2293 C   0  0  0  0  0  0  0  0  0  0  0  0
   10.4600   22.4690   -0.9325 C   0  0  0  0  0  0  0  0  0  0  0  0
    9.8527   22.9898    0.1812 C   0  0  0  0  0  0  0  0  0  0  0  0
    8.2134   22.4712    0.6005 Cl  0  0  0  0  0  0  0  0  0  0  0  0
   10.4968   23.8991    0.9649 C   0  0  0  0  0  0  0  0  0  0  0  0
   11.7528   24.3112    0.6618 C   0  0  0  0  0  0  0  0  0  0  0  0
    9.7712   24.4250    2.1663 C   0  0  0  0  0  0  0  0  0  0  0  0
    9.7961   23.5314    3.2074 F   0  0  0  0  0  0  0  0  0  0  0  0
    8.4707   24.6794    1.7541 F   0  0  0  0  0  0  0  0  0  0  0  0
   10.3865   25.6203    2.4926 F   0  0  0  0  0  0  0  0  0  0  0  0
   17.3324   24.3316   -0.0839 C   0  0  0  0  0  0  0  0  0  0  0  0
   18.2909   23.9105   -0.9743 C   0  0  0  0  0  0  0  0  0  0  0  0
   19.5749   23.7430   -0.5234 C   0  0  0  0  0  0  0  0  0  0  0  0
   19.9085   23.9796    0.7546 N   0  0  0  0  0  0  0  0  0  0  0  0
   19.0137   24.3921    1.6658 C   0  0  0  0  0  0  0  0  0  0  0  0
   19.4064   24.6522    3.0940 C   0  0  0  0  0  0  0  0  0  0  0  0
   17.7254   24.5625    1.2232 C   0  0  0  0  0  0  0  0  0  0  0  0
  1  2  1  0  0  0
  2  3  1  0  0  0
  3  4  1  0  0  0
  4  5  1  0  0  0
  5  6  1  0  0  0
  6  7  1  0  0  0
  7  8  1  0  0  0
  5  9  2  0  0  0
  9 10  1  0  0  0
 10 11  2  0  0  0
 11 12  1  0  0  0
 12 13  2  0  0  0
 13 14  1  0  0  0
 14 15  2  0  0  0
 15 16  1  0  0  0
 15 17  1  0  0  0
 17 18  2  0  0  0
 17 19  1  0  0  0
 19 20  1  0  0  0
 19 21  1  0  0  0
 19 22  1  0  0  0
  9 23  1  0  0  0
 23 24  2  0  0  0
 24 25  1  0  0  0
 25 26  2  0  0  0
 26 27  1  0  0  0
 27 28  1  0  0  0
 27 29  2  0  0  0
  8  2  1  0  0  0
 18 12  1  0  0  0
 29 23  1  0  0  0
 11  4  1  0  0  0
M  END
> <minimizedAffinity>
8.19464

> <CNNscore>
0.5176762342

> <CNNaffinity>
7.4127912521

> <CNN_VS>
3.8374259472

> <CNNaffinity_variance>
0.7982560992

$$$$
[H]c1nc(C([H])([H])[H])c([H])c(-c2nc(-c3c([H])c([H])c(Cl)c(C(F)(F)F)c3[H])n3c2C([H])([H])C([H])([H])O[C@]([H])(C([H])([H])[H])C3([H])[H])c1[H]


 29 32  0  0  0  0  0  0  0  0999 V2000
   10.0669   25.0256   -0.8596 C   0  0  0  0  0  0  0  0  0  0  0  0
   11.1507   24.6833   -1.8156 C   0  0  0  0  0  0  0  0  0  0  0  0
   12.4930   24.9970   -1.1790 C   0  0  0  0  0  0  0  0  0  0  0  0
   13.4738   24.7946   -2.2258 N   0  0  0  0  0  0  0  0  0  0  0  0
   13.6674   25.6667   -3.2844 C   0  0  0  0  0  0  0  0  0  0  0  0
   12.8548   26.8692   -3.5086 C   0  0  0  0  0  0  0  0  0  0  0  0
   11.4353   26.5987   -3.0809 C   0  0  0  0  0  0  0  0  0  0  0  0
   11.0518   25.2904   -3.0663 O   0  0  0  0  0  0  0  0  0  0  0  0
   14.7029   25.2020   -4.0526 C   0  0  0  0  0  0  0  0  0  0  0  0
   15.1090   24.0883   -3.4690 N   0  0  0  0  0  0  0  0  0  0  0  0
   14.3557   23.8250   -2.3403 C   0  0  0  0  0  0  0  0  0  0  0  0
   14.6381   22.6562   -1.5135 C   0  0  0  0  0  0  0  0  0  0  0  0
   14.0432   21.4356   -1.6186 C   0  0  0  0  0  0  0  0  0  0  0  0
   14.3163   20.3802   -0.7411 C   0  0  0  0  0  0  0  0  0  0  0  0
   15.2263   20.6042    0.2600 C   0  0  0  0  0  0  0  0  0  0  0  0
   15.6069   19.3019    1.3964 Cl  0  0  0  0  0  0  0  0  0  0  0  0
   15.8376   21.8149    0.3876 C   0  0  0  0  0  0  0  0  0  0  0  0
   15.5603   22.8269   -0.4715 C   0  0  0  0  0  0  0  0  0  0  0  0
   16.8213   21.9870    1.5054 C   0  0  0  0  0  0  0  0  0  0  0  0
   16.2317   21.8165    2.7328 F   0  0  0  0  0  0  0  0  0  0  0  0
   17.3411   23.2668    1.3716 F   0  0  0  0  0  0  0  0  0  0  0  0
   17.8252   21.0628    1.2780 F   0  0  0  0  0  0  0  0  0  0  0  0
   15.2140   25.8419   -5.2600 C   0  0  0  0  0  0  0  0  0  0  0  0
   15.4473   25.1238   -6.4084 C   0  0  0  0  0  0  0  0  0  0  0  0
   15.9280   25.7862   -7.5084 C   0  0  0  0  0  0  0  0  0  0  0  0
   16.1717   27.1055   -7.4847 N   0  0  0  0  0  0  0  0  0  0  0  0
   15.9620   27.8550   -6.3913 C   0  0  0  0  0  0  0  0  0  0  0  0
   16.2411   29.3327   -6.3837 C   0  0  0  0  0  0  0  0  0  0  0  0
   15.4807   27.2001   -5.2850 C   0  0  0  0  0  0  0  0  0  0  0  0
  1  2  1  0  0  0
  2  3  1  0  0  0
  3  4  1  0  0  0
  4  5  1  0  0  0
  5  6  1  0  0  0
  6  7  1  0  0  0
  7  8  1  0  0  0
  5  9  2  0  0  0
  9 10  1  0  0  0
 10 11  2  0  0  0
 11 12  1  0  0  0
 12 13  2  0  0  0
 13 14  1  0  0  0
 14 15  2  0  0  0
 15 16  1  0  0  0
 15 17  1  0  0  0
 17 18  2  0  0  0
 17 19  1  0  0  0
 19 20  1  0  0  0
 19 21  1  0  0  0
 19 22  1  0  0  0
  9 23  1  0  0  0
 23 24  2  0  0  0
 24 25  1  0  0  0
 25 26  2  0  0  0
 26 27  1  0  0  0
 27 28  1  0  0  0
 27 29  2  0  0  0
  8  2  1  0  0  0
 18 12  1  0  0  0
 29 23  1  0  0  0
 11  4  1  0  0  0
M  END
> <minimizedAffinity>
10.50925

> <CNNscore>
0.4617820978

> <CNNaffinity>
7.0635313988

> <CNN_VS>
3.2618124485

> <CNNaffinity_variance>
0.7347903252

$$$$
[H]c1nc(C([H])([H])[H])c([H])c(-c2nc(-c3c([H])c([H])c(Cl)c(C(F)(F)F)c3[H])n3c2C([H])([H])C([H])([H])O[C@]([H])(C([H])([H])[H])C3([H])[H])c1[H]


 29 32  0  0  0  0  0  0  0  0999 V2000
    9.0610   20.9541   -0.6759 C   0  0  0  0  0  0  0  0  0  0  0  0
   10.2055   21.6313   -1.3371 C   0  0  0  0  0  0  0  0  0  0  0  0
   10.9701   22.4391   -0.3035 C   0  0  0  0  0  0  0  0  0  0  0  0
   11.9561   23.1909   -1.0529 N   0  0  0  0  0  0  0  0  0  0  0  0
   11.6583   24.2963   -1.8325 C   0  0  0  0  0  0  0  0  0  0  0  0
   10.2953   24.7995   -2.0460 C   0  0  0  0  0  0  0  0  0  0  0  0
    9.3361   23.6380   -2.0908 C   0  0  0  0  0  0  0  0  0  0  0  0
    9.8712   22.4305   -2.4290 O   0  0  0  0  0  0  0  0  0  0  0  0
   12.8244   24.7936   -2.3534 C   0  0  0  0  0  0  0  0  0  0  0  0
   13.7831   24.0064   -1.8985 N   0  0  0  0  0  0  0  0  0  0  0  0
   13.2587   23.0110   -1.0955 C   0  0  0  0  0  0  0  0  0  0  0  0
   14.1330   22.0329   -0.4564 C   0  0  0  0  0  0  0  0  0  0  0  0
   13.9506   20.6833   -0.4390 C   0  0  0  0  0  0  0  0  0  0  0  0
   14.7964   19.8122    0.2570 C   0  0  0  0  0  0  0  0  0  0  0  0
   15.8493   20.3605    0.9433 C   0  0  0  0  0  0  0  0  0  0  0  0
   16.9485   19.3020    1.8398 Cl  0  0  0  0  0  0  0  0  0  0  0  0
   16.0565   21.7069    0.9416 C   0  0  0  0  0  0  0  0  0  0  0  0
   15.2262   22.5365    0.2622 C   0  0  0  0  0  0  0  0  0  0  0  0
   17.2276   22.2350    1.7138 C   0  0  0  0  0  0  0  0  0  0  0  0
   17.4589   23.5605    1.4443 F   0  0  0  0  0  0  0  0  0  0  0  0
   18.3153   21.4522    1.3534 F   0  0  0  0  0  0  0  0  0  0  0  0
   16.9350   22.0194    3.0486 F   0  0  0  0  0  0  0  0  0  0  0  0
   12.9321   25.9565   -3.2278 C   0  0  0  0  0  0  0  0  0  0  0  0
   14.1539   26.4790   -3.5787 C   0  0  0  0  0  0  0  0  0  0  0  0
   14.1851   27.5734   -4.4040 C   0  0  0  0  0  0  0  0  0  0  0  0
   13.0595   28.1363   -4.8694 N   0  0  0  0  0  0  0  0  0  0  0  0
   11.8408   27.6676   -4.5592 C   0  0  0  0  0  0  0  0  0  0  0  0
   10.5901   28.3119   -5.0905 C   0  0  0  0  0  0  0  0  0  0  0  0
   11.7998   26.5719   -3.7332 C   0  0  0  0  0  0  0  0  0  0  0  0
  1  2  1  0  0  0
  2  3  1  0  0  0
  3  4  1  0  0  0
  4  5  1  0  0  0
  5  6  1  0  0  0
  6  7  1  0  0  0
  7  8  1  0  0  0
  5  9  2  0  0  0
  9 10  1  0  0  0
 10 11  2  0  0  0
 11 12  1  0  0  0
 12 13  2  0  0  0
 13 14  1  0  0  0
 14 15  2  0  0  0
 15 16  1  0  0  0
 15 17  1  0  0  0
 17 18  2  0  0  0
 17 19  1  0  0  0
 19 20  1  0  0  0
 19 21  1  0  0  0
 19 22  1  0  0  0
  9 23  1  0  0  0
 23 24  2  0  0  0
 24 25  1  0  0  0
 25 26  2  0  0  0
 26 27  1  0  0  0
 27 28  1  0  0  0
 27 29  2  0  0  0
  8  2  1  0  0  0
 18 12  1  0  0  0
 29 23  1  0  0  0
 11  4  1  0  0  0
M  END
> <minimizedAffinity>
24.09764

> <CNNscore>
0.4406931102

> <CNNaffinity>
6.9171690941

> <CNN_VS>
3.0483486652

> <CNNaffinity_variance>
1.8581081629

$$$$
[H]c1nc(C([H])([H])[H])c([H])c(-c2nc(-c3c([H])c([H])c(Cl)c(C(F)(F)F)c3[H])n3c2C([H])([H])C([H])([H])O[C@]([H])(C([H])([H])[H])C3([H])[H])c1[H]


 29 32  0  0  0  0  0  0  0  0999 V2000
   13.8875   23.1806   -1.3950 C   0  0  0  0  0  0  0  0  0  0  0  0
   13.3907   24.1301   -2.4233 C   0  0  0  0  0  0  0  0  0  0  0  0
   14.4412   25.2003   -2.6611 C   0  0  0  0  0  0  0  0  0  0  0  0
   13.8163   26.1662   -3.5417 N   0  0  0  0  0  0  0  0  0  0  0  0
   12.8509   27.0727   -3.1361 C   0  0  0  0  0  0  0  0  0  0  0  0
   12.2962   27.1189   -1.7771 C   0  0  0  0  0  0  0  0  0  0  0  0
   12.2119   25.7192   -1.2250 C   0  0  0  0  0  0  0  0  0  0  0  0
   12.1562   24.7138   -2.1442 O   0  0  0  0  0  0  0  0  0  0  0  0
   12.5188   27.8673   -4.2022 C   0  0  0  0  0  0  0  0  0  0  0  0
   13.2624   27.4437   -5.2088 N   0  0  0  0  0  0  0  0  0  0  0  0
   14.0668   26.3914   -4.8135 C   0  0  0  0  0  0  0  0  0  0  0  0
   14.9974   25.7729   -5.7522 C   0  0  0  0  0  0  0  0  0  0  0  0
   15.3202   26.2419   -6.9895 C   0  0  0  0  0  0  0  0  0  0  0  0
   16.1695   25.5543   -7.8638 C   0  0  0  0  0  0  0  0  0  0  0  0
   16.6901   24.3596   -7.4371 C   0  0  0  0  0  0  0  0  0  0  0  0
   17.7697   23.4507   -8.5052 Cl  0  0  0  0  0  0  0  0  0  0  0  0
   16.3855   23.8678   -6.2038 C   0  0  0  0  0  0  0  0  0  0  0  0
   15.5599   24.5472   -5.3696 C   0  0  0  0  0  0  0  0  0  0  0  0
   16.9916   22.5562   -5.8050 C   0  0  0  0  0  0  0  0  0  0  0  0
   16.0669   21.5424   -5.8213 F   0  0  0  0  0  0  0  0  0  0  0  0
   17.5125   22.7401   -4.5319 F   0  0  0  0  0  0  0  0  0  0  0  0
   18.0286   22.3279   -6.6917 F   0  0  0  0  0  0  0  0  0  0  0  0
   11.5370   28.9463   -4.1797 C   0  0  0  0  0  0  0  0  0  0  0  0
   11.8131   30.1547   -3.5860 C   0  0  0  0  0  0  0  0  0  0  0  0
   10.8463   31.1268   -3.5997 C   0  0  0  0  0  0  0  0  0  0  0  0
    9.6511   30.9228   -4.1744 N   0  0  0  0  0  0  0  0  0  0  0  0
    9.3284   29.7632   -4.7680 C   0  0  0  0  0  0  0  0  0  0  0  0
    7.9833   29.5529   -5.4071 C   0  0  0  0  0  0  0  0  0  0  0  0
   10.2904   28.7839   -4.7592 C   0  0  0  0  0  0  0  0  0  0  0  0
  1  2  1  0  0  0
  2  3  1  0  0  0
  3  4  1  0  0  0
  4  5  1  0  0  0
  5  6  1  0  0  0
  6  7  1  0  0  0
  7  8  1  0  0  0
  5  9  2  0  0  0
  9 10  1  0  0  0
 10 11  2  0  0  0
 11 12  1  0  0  0
 12 13  2  0  0  0
 13 14  1  0  0  0
 14 15  2  0  0  0
 15 16  1  0  0  0
 15 17  1  0  0  0
 17 18  2  0  0  0
 17 19  1  0  0  0
 19 20  1  0  0  0
 19 21  1  0  0  0
 19 22  1  0  0  0
  9 23  1  0  0  0
 23 24  2  0  0  0
 24 25  1  0  0  0
 25 26  2  0  0  0
 26 27  1  0  0  0
 27 28  1  0  0  0
 27 29  2  0  0  0
  8  2  1  0  0  0
 18 12  1  0  0  0
 29 23  1  0  0  0
 11  4  1  0  0  0
M  END
> <minimizedAffinity>
33.25153

> <CNNscore>
0.4194109738

> <CNNaffinity>
6.5935707092

> <CNN_VS>
2.7654159069

> <CNNaffinity_variance>
1.1051447392

$$$$
[H]c1nc(C([H])([H])[H])c([H])c(-c2nc(-c3c([H])c([H])c(Cl)c(C(F)(F)F)c3[H])n3c2C([H])([H])C([H])([H])O[C@]([H])(C([H])([H])[H])C3([H])[H])c1[H]


 29 32  0  0  0  0  0  0  0  0999 V2000
   17.0001   24.0451   -4.5064 C   0  0  0  0  0  0  0  0  0  0  0  0
   16.0248   24.9421   -3.8356 C   0  0  0  0  0  0  0  0  0  0  0  0
   14.6281   24.3698   -3.9997 C   0  0  0  0  0  0  0  0  0  0  0  0
   13.7328   25.3778   -3.4693 N   0  0  0  0  0  0  0  0  0  0  0  0
   13.4254   26.5606   -4.1213 C   0  0  0  0  0  0  0  0  0  0  0  0
   14.0231   26.9651   -5.4003 C   0  0  0  0  0  0  0  0  0  0  0  0
   15.4530   26.4924   -5.4543 C   0  0  0  0  0  0  0  0  0  0  0  0
   16.0579   26.2716   -4.2526 O   0  0  0  0  0  0  0  0  0  0  0  0
   12.5129   27.2528   -3.3687 C   0  0  0  0  0  0  0  0  0  0  0  0
   12.2879   26.5048   -2.3030 N   0  0  0  0  0  0  0  0  0  0  0  0
   13.0376   25.3446   -2.3528 C   0  0  0  0  0  0  0  0  0  0  0  0
   12.9360   24.3471   -1.2925 C   0  0  0  0  0  0  0  0  0  0  0  0
   13.9560   23.5890   -0.8029 C   0  0  0  0  0  0  0  0  0  0  0  0
   13.7673   22.5994    0.1686 C   0  0  0  0  0  0  0  0  0  0  0  0
   12.4935   22.4011    0.6360 C   0  0  0  0  0  0  0  0  0  0  0  0
   12.2014   21.1616    1.8651 Cl  0  0  0  0  0  0  0  0  0  0  0  0
   11.4548   23.1462    0.1651 C   0  0  0  0  0  0  0  0  0  0  0  0
   11.6558   24.1006   -0.7772 C   0  0  0  0  0  0  0  0  0  0  0  0
   10.0902   22.8741    0.7222 C   0  0  0  0  0  0  0  0  0  0  0  0
   10.0763   22.9456    2.0925 F   0  0  0  0  0  0  0  0  0  0  0  0
    9.7367   21.6063    0.2820 F   0  0  0  0  0  0  0  0  0  0  0  0
    9.2476   23.8070    0.1445 F   0  0  0  0  0  0  0  0  0  0  0  0
   11.9385   28.5481   -3.7161 C   0  0  0  0  0  0  0  0  0  0  0  0
   12.5793   29.7234   -3.4046 C   0  0  0  0  0  0  0  0  0  0  0  0
   11.9850   30.9069   -3.7594 C   0  0  0  0  0  0  0  0  0  0  0  0
   10.8047   30.9386   -4.3969 N   0  0  0  0  0  0  0  0  0  0  0  0
   10.1358   29.8223   -4.7253 C   0  0  0  0  0  0  0  0  0  0  0  0
    8.8137   29.8775   -5.4399 C   0  0  0  0  0  0  0  0  0  0  0  0
   10.7234   28.6324   -4.3739 C   0  0  0  0  0  0  0  0  0  0  0  0
  1  2  1  0  0  0
  2  3  1  0  0  0
  3  4  1  0  0  0
  4  5  1  0  0  0
  5  6  1  0  0  0
  6  7  1  0  0  0
  7  8  1  0  0  0
  5  9  2  0  0  0
  9 10  1  0  0  0
 10 11  2  0  0  0
 11 12  1  0  0  0
 12 13  2  0  0  0
 13 14  1  0  0  0
 14 15  2  0  0  0
 15 16  1  0  0  0
 15 17  1  0  0  0
 17 18  2  0  0  0
 17 19  1  0  0  0
 19 20  1  0  0  0
 19 21  1  0  0  0
 19 22  1  0  0  0
  9 23  1  0  0  0
 23 24  2  0  0  0
 24 25  1  0  0  0
 25 26  2  0  0  0
 26 27  1  0  0  0
 27 28  1  0  0  0
 27 29  2  0  0  0
  8  2  1  0  0  0
 18 12  1  0  0  0
 29 23  1  0  0  0
 11  4  1  0  0  0
M  END
> <minimizedAffinity>
10.54490

> <CNNscore>
0.4162952006

> <CNNaffinity>
6.9162750244

> <CNN_VS>
2.8792121410

> <CNNaffinity_variance>
0.8084201813

$$$$
[H]c1nc(C([H])([H])[H])c([H])c(-c2nc(-c3c([H])c([H])c(Cl)c(C(F)(F)F)c3[H])n3c2C([H])([H])C([H])([H])O[C@]([H])(C([H])([H])[H])C3([H])[H])c1[H]


 29 32  0  0  0  0  0  0  0  0999 V2000
   17.1971   24.2620   -3.8080 C   0  0  0  0  0  0  0  0  0  0  0  0
   16.0736   25.0787   -3.2821 C   0  0  0  0  0  0  0  0  0  0  0  0
   14.7597   24.4658   -3.7328 C   0  0  0  0  0  0  0  0  0  0  0  0
   13.7350   25.4049   -3.3239 N   0  0  0  0  0  0  0  0  0  0  0  0
   13.4954   26.6133   -3.9569 C   0  0  0  0  0  0  0  0  0  0  0  0
   14.2965   27.1183   -5.0793 C   0  0  0  0  0  0  0  0  0  0  0  0
   15.7333   26.7036   -4.8928 C   0  0  0  0  0  0  0  0  0  0  0  0
   16.1182   26.4318   -3.6135 O   0  0  0  0  0  0  0  0  0  0  0  0
   12.4283   27.2230   -3.3502 C   0  0  0  0  0  0  0  0  0  0  0  0
   12.0487   26.4027   -2.3865 N   0  0  0  0  0  0  0  0  0  0  0  0
   12.8499   25.2767   -2.3590 C   0  0  0  0  0  0  0  0  0  0  0  0
   12.6043   24.2124   -1.3912 C   0  0  0  0  0  0  0  0  0  0  0  0
   11.7500   24.2716   -0.3321 C   0  0  0  0  0  0  0  0  0  0  0  0
   11.6201   23.2330    0.5969 C   0  0  0  0  0  0  0  0  0  0  0  0
   12.3935   22.1155    0.4144 C   0  0  0  0  0  0  0  0  0  0  0  0
   12.2667   20.7736    1.5614 Cl  0  0  0  0  0  0  0  0  0  0  0  0
   13.2551   22.0287   -0.6372 C   0  0  0  0  0  0  0  0  0  0  0  0
   13.3689   23.0452   -1.5276 C   0  0  0  0  0  0  0  0  0  0  0  0
   14.0683   20.7770   -0.7732 C   0  0  0  0  0  0  0  0  0  0  0  0
   13.2956   19.7061   -1.1462 F   0  0  0  0  0  0  0  0  0  0  0  0
   14.6605   20.5623    0.4634 F   0  0  0  0  0  0  0  0  0  0  0  0
   15.0513   21.0582   -1.7051 F   0  0  0  0  0  0  0  0  0  0  0  0
   11.8653   28.5150   -3.7276 C   0  0  0  0  0  0  0  0  0  0  0  0
   12.5064   29.6924   -3.4250 C   0  0  0  0  0  0  0  0  0  0  0  0
   11.9231   30.8725   -3.8085 C   0  0  0  0  0  0  0  0  0  0  0  0
   10.7533   30.8988   -4.4651 N   0  0  0  0  0  0  0  0  0  0  0  0
   10.0847   29.7802   -4.7861 C   0  0  0  0  0  0  0  0  0  0  0  0
    8.7744   29.8293   -5.5226 C   0  0  0  0  0  0  0  0  0  0  0  0
   10.6613   28.5937   -4.4061 C   0  0  0  0  0  0  0  0  0  0  0  0
  1  2  1  0  0  0
  2  3  1  0  0  0
  3  4  1  0  0  0
  4  5  1  0  0  0
  5  6  1  0  0  0
  6  7  1  0  0  0
  7  8  1  0  0  0
  5  9  2  0  0  0
  9 10  1  0  0  0
 10 11  2  0  0  0
 11 12  1  0  0  0
 12 13  2  0  0  0
 13 14  1  0  0  0
 14 15  2  0  0  0
 15 16  1  0  0  0
 15 17  1  0  0  0
 17 18  2  0  0  0
 17 19  1  0  0  0
 19 20  1  0  0  0
 19 21  1  0  0  0
 19 22  1  0  0  0
  9 23  1  0  0  0
 23 24  2  0  0  0
 24 25  1  0  0  0
 25 26  2  0  0  0
 26 27  1  0  0  0
 27 28  1  0  0  0
 27 29  2  0  0  0
  8  2  1  0  0  0
 18 12  1  0  0  0
 29 23  1  0  0  0
 11  4  1  0  0  0
M  END
> <minimizedAffinity>
9.94893

> <CNNscore>
0.4141058922

> <CNNaffinity>
6.8907785416

> <CNN_VS>
2.8535120487

> <CNNaffinity_variance>
0.4405115247

$$$$
[H]c1c([H])c([H])c(S(=O)(=O)N2C([H])([H])C([H])([H])N(C([H])([H])c3c([H])c([H])c([N+](=O)[O-])c([H])c3[H])C([H])([H])C2([H])[H])c([H])c1[H]


 25 27  0  0  0  0  0  0  0  0999 V2000
   11.8164   26.1864   -2.5293 N   0  0  0  0  0  0  0  0  0  0  0  0
   12.8083   26.1493   -3.5481 C   0  0  0  0  0  0  0  0  0  0  0  0
   14.1049   25.5228   -3.1280 C   0  0  0  0  0  0  0  0  0  0  0  0
   14.0018   24.7266   -1.9414 N   0  0  0  0  0  0  0  0  0  0  0  0
   13.3870   25.3052   -0.8148 C   0  0  0  0  0  0  0  0  0  0  0  0
   12.3329   26.2648   -1.1920 C   0  0  0  0  0  0  0  0  0  0  0  0
   15.5182   23.9896   -1.6179 S   0  0  0  0  0  0  0  0  0  0  0  0
   16.3037   24.9257   -0.7400 O   0  0  0  0  0  0  0  0  0  0  0  0
   16.2735   23.8221   -2.8967 O   0  0  0  0  0  0  0  0  0  0  0  0
   15.3413   22.4870   -0.7737 C   0  0  0  0  0  0  0  0  0  0  0  0
   14.5339   21.4975   -1.3142 C   0  0  0  0  0  0  0  0  0  0  0  0
   14.3557   20.2799   -0.6850 C   0  0  0  0  0  0  0  0  0  0  0  0
   14.9869   20.0152    0.5154 C   0  0  0  0  0  0  0  0  0  0  0  0
   15.7824   20.9724    1.0615 C   0  0  0  0  0  0  0  0  0  0  0  0
   15.9546   22.1873    0.4247 C   0  0  0  0  0  0  0  0  0  0  0  0
   10.8989   25.0733   -2.5839 C   0  0  0  0  0  0  0  0  0  0  0  0
   10.9040   22.5760    0.9425 C   0  0  0  0  0  0  0  0  0  0  0  0
   11.1754   22.0576   -0.3059 C   0  0  0  0  0  0  0  0  0  0  0  0
   11.1710   22.8623   -1.4242 C   0  0  0  0  0  0  0  0  0  0  0  0
   10.9010   24.2136   -1.3778 C   0  0  0  0  0  0  0  0  0  0  0  0
   10.6277   24.7367   -0.1240 C   0  0  0  0  0  0  0  0  0  0  0  0
   10.6315   23.9336    0.9969 C   0  0  0  0  0  0  0  0  0  0  0  0
   10.8972   20.4043    1.9520 O   0  0  0  0  0  0  0  0  0  0  0  0
   10.9031   21.7655    2.1131 N   0  0  0  0  0  0  0  0  0  0  0  0
   10.9077   22.2165    3.2674 O   0  0  0  0  0  0  0  0  0  0  0  0
 23 24  1  0  0  0
 24 25  2  0  0  0
 24 17  1  0  0  0
 17 18  2  0  0  0
 18 19  1  0  0  0
 19 20  2  0  0  0
 20 16  1  0  0  0
 16  1  1  0  0  0
  1  2  1  0  0  0
  2  3  1  0  0  0
  3  4  1  0  0  0
  4  5  1  0  0  0
  5  6  1  0  0  0
  4  7  1  0  0  0
  7  8  2  0  0  0
  7  9  2  0  0  0
  7 10  1  0  0  0
 10 11  2  0  0  0
 11 12  1  0  0  0
 12 13  2  0  0  0
 13 14  1  0  0  0
 14 15  2  0  0  0
 20 21  1  0  0  0
 21 22  2  0  0  0
 22 17  1  0  0  0
  6  1  1  0  0  0
 15 10  1  0  0  0
M  CHG 1  23  -1
M  CHG 1  24   1
M  END
> <minimizedAffinity>
0.89252

> <CNNscore>
0.5147908926

> <CNNaffinity>
6.5370421410

> <CNN_VS>
3.3652098179

> <CNNaffinity_variance>
0.4257232547

$$$$
[H]c1c([H])c([H])c(S(=O)(=O)N2C([H])([H])C([H])([H])N(C([H])([H])c3c([H])c([H])c([N+](=O)[O-])c([H])c3[H])C([H])([H])C2([H])[H])c([H])c1[H]


 25 27  0  0  0  0  0  0  0  0999 V2000
   14.4743   24.5966   -1.7532 N   0  0  0  0  0  0  0  0  0  0  0  0
   14.8499   23.9192   -0.5601 C   0  0  0  0  0  0  0  0  0  0  0  0
   13.9972   22.7308   -0.2276 C   0  0  0  0  0  0  0  0  0  0  0  0
   13.2283   22.2460   -1.3349 N   0  0  0  0  0  0  0  0  0  0  0  0
   12.4551   23.1770   -2.0542 C   0  0  0  0  0  0  0  0  0  0  0  0
   13.0778   24.5135   -2.0756 C   0  0  0  0  0  0  0  0  0  0  0  0
   12.3731   20.8356   -0.8590 S   0  0  0  0  0  0  0  0  0  0  0  0
   13.2569   19.6496   -1.1352 O   0  0  0  0  0  0  0  0  0  0  0  0
   11.1432   20.6926   -1.6963 O   0  0  0  0  0  0  0  0  0  0  0  0
   12.0018   20.8430    0.8334 C   0  0  0  0  0  0  0  0  0  0  0  0
   11.5402   22.0116    1.4203 C   0  0  0  0  0  0  0  0  0  0  0  0
   11.2287   22.0761    2.7653 C   0  0  0  0  0  0  0  0  0  0  0  0
   11.3718   20.9615    3.5695 C   0  0  0  0  0  0  0  0  0  0  0  0
   11.8230   19.8065    3.0129 C   0  0  0  0  0  0  0  0  0  0  0  0
   12.1320   19.7517    1.6665 C   0  0  0  0  0  0  0  0  0  0  0  0
   15.2214   24.1697   -2.9122 C   0  0  0  0  0  0  0  0  0  0  0  0
   15.8869   27.2628   -5.8554 C   0  0  0  0  0  0  0  0  0  0  0  0
   16.9365   26.6663   -5.1896 C   0  0  0  0  0  0  0  0  0  0  0  0
   16.7138   25.6811   -4.2526 C   0  0  0  0  0  0  0  0  0  0  0  0
   15.4540   25.2302   -3.9199 C   0  0  0  0  0  0  0  0  0  0  0  0
   14.3975   25.8285   -4.5879 C   0  0  0  0  0  0  0  0  0  0  0  0
   14.6177   26.8147   -5.5262 C   0  0  0  0  0  0  0  0  0  0  0  0
   15.3741   29.4436   -6.7020 O   0  0  0  0  0  0  0  0  0  0  0  0
   16.0912   28.2823   -6.8282 N   0  0  0  0  0  0  0  0  0  0  0  0
   16.8778   28.1827   -7.7807 O   0  0  0  0  0  0  0  0  0  0  0  0
 23 24  1  0  0  0
 24 25  2  0  0  0
 24 17  1  0  0  0
 17 18  2  0  0  0
 18 19  1  0  0  0
 19 20  2  0  0  0
 20 16  1  0  0  0
 16  1  1  0  0  0
  1  2  1  0  0  0
  2  3  1  0  0  0
  3  4  1  0  0  0
  4  5  1  0  0  0
  5  6  1  0  0  0
  4  7  1  0  0  0
  7  8  2  0  0  0
  7  9  2  0  0  0
  7 10  1  0  0  0
 10 11  2  0  0  0
 11 12  1  0  0  0
 12 13  2  0  0  0
 13 14  1  0  0  0
 14 15  2  0  0  0
 20 21  1  0  0  0
 21 22  2  0  0  0
 22 17  1  0  0  0
  6  1  1  0  0  0
 15 10  1  0  0  0
M  CHG 1  23  -1
M  CHG 1  24   1
M  END
> <minimizedAffinity>
0.86727

> <CNNscore>
0.4952368736

> <CNNaffinity>
6.2641110420

> <CNN_VS>
3.1022188663

> <CNNaffinity_variance>
0.2452841252

$$$$
[H]c1c([H])c([H])c(S(=O)(=O)N2C([H])([H])C([H])([H])N(C([H])([H])c3c([H])c([H])c([N+](=O)[O-])c([H])c3[H])C([H])([H])C2([H])[H])c([H])c1[H]


 25 27  0  0  0  0  0  0  0  0999 V2000
    8.9910   24.0458   -0.2843 N   0  0  0  0  0  0  0  0  0  0  0  0
    9.8445   24.1380    0.8498 C   0  0  0  0  0  0  0  0  0  0  0  0
   10.4240   22.8287    1.2974 C   0  0  0  0  0  0  0  0  0  0  0  0
   10.3529   21.7983    0.3046 N   0  0  0  0  0  0  0  0  0  0  0  0
    9.1074   21.5621   -0.3075 C   0  0  0  0  0  0  0  0  0  0  0  0
    8.3026   22.7929   -0.4164 C   0  0  0  0  0  0  0  0  0  0  0  0
   11.1288   20.3854    0.8954 S   0  0  0  0  0  0  0  0  0  0  0  0
   10.5319   19.2033    0.1811 O   0  0  0  0  0  0  0  0  0  0  0  0
   10.8393   20.2310    2.3536 O   0  0  0  0  0  0  0  0  0  0  0  0
   12.8316   20.3994    0.5755 C   0  0  0  0  0  0  0  0  0  0  0  0
   13.2829   20.1070   -0.7027 C   0  0  0  0  0  0  0  0  0  0  0  0
   14.6292   20.1028   -1.0155 C   0  0  0  0  0  0  0  0  0  0  0  0
   15.5717   20.3941   -0.0479 C   0  0  0  0  0  0  0  0  0  0  0  0
   15.1493   20.6832    1.2112 C   0  0  0  0  0  0  0  0  0  0  0  0
   13.8005   20.6849    1.5145 C   0  0  0  0  0  0  0  0  0  0  0  0
    9.6670   24.3121   -1.5317 C   0  0  0  0  0  0  0  0  0  0  0  0
   13.9432   24.8230   -1.1765 C   0  0  0  0  0  0  0  0  0  0  0  0
   13.3940   24.0166   -2.1507 C   0  0  0  0  0  0  0  0  0  0  0  0
   12.0292   23.8600   -2.2554 C   0  0  0  0  0  0  0  0  0  0  0  0
   11.1335   24.4839   -1.4130 C   0  0  0  0  0  0  0  0  0  0  0  0
   11.6833   25.2947   -0.4331 C   0  0  0  0  0  0  0  0  0  0  0  0
   13.0490   25.4532   -0.3260 C   0  0  0  0  0  0  0  0  0  0  0  0
   15.8528   26.2681   -1.1949 O   0  0  0  0  0  0  0  0  0  0  0  0
   15.3500   25.0014   -1.0483 N   0  0  0  0  0  0  0  0  0  0  0  0
   16.1458   24.0813   -0.8120 O   0  0  0  0  0  0  0  0  0  0  0  0
 23 24  1  0  0  0
 24 25  2  0  0  0
 24 17  1  0  0  0
 17 18  2  0  0  0
 18 19  1  0  0  0
 19 20  2  0  0  0
 20 16  1  0  0  0
 16  1  1  0  0  0
  1  2  1  0  0  0
  2  3  1  0  0  0
  3  4  1  0  0  0
  4  5  1  0  0  0
  5  6  1  0  0  0
  4  7  1  0  0  0
  7  8  2  0  0  0
  7  9  2  0  0  0
  7 10  1  0  0  0
 10 11  2  0  0  0
 11 12  1  0  0  0
 12 13  2  0  0  0
 13 14  1  0  0  0
 14 15  2  0  0  0
 20 21  1  0  0  0
 21 22  2  0  0  0
 22 17  1  0  0  0
  6  1  1  0  0  0
 15 10  1  0  0  0
M  CHG 1  23  -1
M  CHG 1  24   1
M  END
> <minimizedAffinity>
1.74758

> <CNNscore>
0.4787732661

> <CNNaffinity>
6.1481966972

> <CNN_VS>
2.9435923100

> <CNNaffinity_variance>
0.5988219976

$$$$
[H]c1c([H])c([H])c(S(=O)(=O)N2C([H])([H])C([H])([H])N(C([H])([H])c3c([H])c([H])c([N+](=O)[O-])c([H])c3[H])C([H])([H])C2([H])[H])c([H])c1[H]


 25 27  0  0  0  0  0  0  0  0999 V2000
   15.1280   26.2460   -6.1875 N   0  0  0  0  0  0  0  0  0  0  0  0
   15.5879   25.1036   -5.4757 C   0  0  0  0  0  0  0  0  0  0  0  0
   16.4563   25.4183   -4.2937 C   0  0  0  0  0  0  0  0  0  0  0  0
   16.3527   26.7759   -3.8483 N   0  0  0  0  0  0  0  0  0  0  0  0
   16.5007   27.7944   -4.8089 C   0  0  0  0  0  0  0  0  0  0  0  0
   16.0075   27.3795   -6.1351 C   0  0  0  0  0  0  0  0  0  0  0  0
   17.3129   26.9874   -2.4411 S   0  0  0  0  0  0  0  0  0  0  0  0
   16.9373   28.3077   -1.8251 O   0  0  0  0  0  0  0  0  0  0  0  0
   18.7549   27.0586   -2.8281 O   0  0  0  0  0  0  0  0  0  0  0  0
   17.0228   25.7474   -1.2662 C   0  0  0  0  0  0  0  0  0  0  0  0
   15.7598   25.6273   -0.7063 C   0  0  0  0  0  0  0  0  0  0  0  0
   15.4709   24.6577    0.2353 C   0  0  0  0  0  0  0  0  0  0  0  0
   16.4478   23.7716    0.6476 C   0  0  0  0  0  0  0  0  0  0  0  0
   17.6923   23.8732    0.1106 C   0  0  0  0  0  0  0  0  0  0  0  0
   17.9717   24.8464   -0.8306 C   0  0  0  0  0  0  0  0  0  0  0  0
   13.8159   26.6856   -5.7765 C   0  0  0  0  0  0  0  0  0  0  0  0
   12.6236   25.3711   -1.8366 C   0  0  0  0  0  0  0  0  0  0  0  0
   13.3627   24.5605   -2.6718 C   0  0  0  0  0  0  0  0  0  0  0  0
   13.7376   24.9889   -3.9264 C   0  0  0  0  0  0  0  0  0  0  0  0
   13.4087   26.2308   -4.4269 C   0  0  0  0  0  0  0  0  0  0  0  0
   12.6657   27.0471   -3.5891 C   0  0  0  0  0  0  0  0  0  0  0  0
   12.2892   26.6209   -2.3329 C   0  0  0  0  0  0  0  0  0  0  0  0
   11.5903   23.7425   -0.4170 O   0  0  0  0  0  0  0  0  0  0  0  0
   12.2246   24.9517   -0.5357 N   0  0  0  0  0  0  0  0  0  0  0  0
   12.4166   25.6136    0.4943 O   0  0  0  0  0  0  0  0  0  0  0  0
 23 24  1  0  0  0
 24 25  2  0  0  0
 24 17  1  0  0  0
 17 18  2  0  0  0
 18 19  1  0  0  0
 19 20  2  0  0  0
 20 16  1  0  0  0
 16  1  1  0  0  0
  1  2  1  0  0  0
  2  3  1  0  0  0
  3  4  1  0  0  0
  4  5  1  0  0  0
  5  6  1  0  0  0
  4  7  1  0  0  0
  7  8  2  0  0  0
  7  9  2  0  0  0
  7 10  1  0  0  0
 10 11  2  0  0  0
 11 12  1  0  0  0
 12 13  2  0  0  0
 13 14  1  0  0  0
 14 15  2  0  0  0
 20 21  1  0  0  0
 21 22  2  0  0  0
 22 17  1  0  0  0
  6  1  1  0  0  0
 15 10  1  0  0  0
M  CHG 1  23  -1
M  CHG 1  24   1
M  END
> <minimizedAffinity>
2.81522

> <CNNscore>
0.4681555331

> <CNNaffinity>
6.3425455093

> <CNN_VS>
2.9692978859

> <CNNaffinity_variance>
0.3762801290

$$$$
[H]c1c([H])c([H])c(S(=O)(=O)N2C([H])([H])C([H])([H])N(C([H])([H])c3c([H])c([H])c([N+](=O)[O-])c([H])c3[H])C([H])([H])C2([H])[H])c([H])c1[H]


 25 27  0  0  0  0  0  0  0  0999 V2000
   11.7746   24.3442   -1.1064 N   0  0  0  0  0  0  0  0  0  0  0  0
   11.6767   24.8556    0.2173 C   0  0  0  0  0  0  0  0  0  0  0  0
   11.2815   23.8386    1.2468 C   0  0  0  0  0  0  0  0  0  0  0  0
   11.4570   22.4840    0.8149 N   0  0  0  0  0  0  0  0  0  0  0  0
   10.9068   22.1152   -0.4274 C   0  0  0  0  0  0  0  0  0  0  0  0
   10.9070   23.2352   -1.3865 C   0  0  0  0  0  0  0  0  0  0  0  0
   11.0648   21.4209    2.1045 S   0  0  0  0  0  0  0  0  0  0  0  0
   12.1909   21.4754    3.1009 O   0  0  0  0  0  0  0  0  0  0  0  0
   10.9805   20.0209    1.5878 O   0  0  0  0  0  0  0  0  0  0  0  0
    9.6095   21.8958    2.9161 C   0  0  0  0  0  0  0  0  0  0  0  0
    8.3905   21.7200    2.2787 C   0  0  0  0  0  0  0  0  0  0  0  0
    7.1981   22.0805    2.8774 C   0  0  0  0  0  0  0  0  0  0  0  0
    7.1916   22.6330    4.1439 C   0  0  0  0  0  0  0  0  0  0  0  0
    8.3764   22.8135    4.7852 C   0  0  0  0  0  0  0  0  0  0  0  0
    9.5639   22.4497    4.1782 C   0  0  0  0  0  0  0  0  0  0  0  0
   13.1166   23.9587   -1.4725 C   0  0  0  0  0  0  0  0  0  0  0  0
   14.7694   26.1798   -4.7902 C   0  0  0  0  0  0  0  0  0  0  0  0
   15.3140   24.9793   -4.3863 C   0  0  0  0  0  0  0  0  0  0  0  0
   14.7798   24.2789   -3.3270 C   0  0  0  0  0  0  0  0  0  0  0  0
   13.6868   24.7172   -2.6099 C   0  0  0  0  0  0  0  0  0  0  0  0
   13.1379   25.9237   -3.0141 C   0  0  0  0  0  0  0  0  0  0  0  0
   13.6706   26.6268   -4.0740 C   0  0  0  0  0  0  0  0  0  0  0  0
   15.7404   28.1979   -5.6387 O   0  0  0  0  0  0  0  0  0  0  0  0
   15.3028   26.9220   -5.8821 N   0  0  0  0  0  0  0  0  0  0  0  0
   15.3951   26.4837   -7.0376 O   0  0  0  0  0  0  0  0  0  0  0  0
 23 24  1  0  0  0
 24 25  2  0  0  0
 24 17  1  0  0  0
 17 18  2  0  0  0
 18 19  1  0  0  0
 19 20  2  0  0  0
 20 16  1  0  0  0
 16  1  1  0  0  0
  1  2  1  0  0  0
  2  3  1  0  0  0
  3  4  1  0  0  0
  4  5  1  0  0  0
  5  6  1  0  0  0
  4  7  1  0  0  0
  7  8  2  0  0  0
  7  9  2  0  0  0
  7 10  1  0  0  0
 10 11  2  0  0  0
 11 12  1  0  0  0
 12 13  2  0  0  0
 13 14  1  0  0  0
 14 15  2  0  0  0
 20 21  1  0  0  0
 21 22  2  0  0  0
 22 17  1  0  0  0
  6  1  1  0  0  0
 15 10  1  0  0  0
M  CHG 1  23  -1
M  CHG 1  24   1
M  END
> <minimizedAffinity>
-8.67407

> <CNNscore>
0.4344473481

> <CNNaffinity>
6.3097105026

> <CNN_VS>
2.7412369251

> <CNNaffinity_variance>
0.0916239694

$$$$
[H]c1c([H])c([H])c(S(=O)(=O)N2C([H])([H])C([H])([H])N(C([H])([H])c3c([H])c([H])c([N+](=O)[O-])c([H])c3[H])C([H])([H])C2([H])[H])c([H])c1[H]


 25 27  0  0  0  0  0  0  0  0999 V2000
   16.2038   25.2315   -4.7195 N   0  0  0  0  0  0  0  0  0  0  0  0
   16.2000   25.7894   -3.4110 C   0  0  0  0  0  0  0  0  0  0  0  0
   14.9599   26.5615   -3.0703 C   0  0  0  0  0  0  0  0  0  0  0  0
   13.8513   26.2804   -3.9331 N   0  0  0  0  0  0  0  0  0  0  0  0
   14.0672   26.3513   -5.3224 C   0  0  0  0  0  0  0  0  0  0  0  0
   15.4436   25.9695   -5.6883 C   0  0  0  0  0  0  0  0  0  0  0  0
   12.4727   27.1457   -3.3875 S   0  0  0  0  0  0  0  0  0  0  0  0
   12.3731   26.9555   -1.8982 O   0  0  0  0  0  0  0  0  0  0  0  0
   11.2424   26.5630   -4.0049 O   0  0  0  0  0  0  0  0  0  0  0  0
   12.6074   28.8442   -3.7017 C   0  0  0  0  0  0  0  0  0  0  0  0
   13.8088   29.3526   -4.1722 C   0  0  0  0  0  0  0  0  0  0  0  0
   13.9740   30.6985   -4.4398 C   0  0  0  0  0  0  0  0  0  0  0  0
   12.9308   31.5829   -4.2422 C   0  0  0  0  0  0  0  0  0  0  0  0
   11.7452   31.1040   -3.7814 C   0  0  0  0  0  0  0  0  0  0  0  0
   11.5895   29.7561   -3.5166 C   0  0  0  0  0  0  0  0  0  0  0  0
   15.7549   23.8600   -4.7575 C   0  0  0  0  0  0  0  0  0  0  0  0
   14.4173   22.3139   -0.9506 C   0  0  0  0  0  0  0  0  0  0  0  0
   14.4358   21.5243   -2.0807 C   0  0  0  0  0  0  0  0  0  0  0  0
   14.8639   22.0269   -3.2900 C   0  0  0  0  0  0  0  0  0  0  0  0
   15.2950   23.3262   -3.4546 C   0  0  0  0  0  0  0  0  0  0  0  0
   15.2770   24.1216   -2.3200 C   0  0  0  0  0  0  0  0  0  0  0  0
   14.8491   23.6211   -1.1084 C   0  0  0  0  0  0  0  0  0  0  0  0
   12.6371   21.6087    0.4879 O   0  0  0  0  0  0  0  0  0  0  0  0
   13.9801   21.8177    0.3104 N   0  0  0  0  0  0  0  0  0  0  0  0
   14.7403   21.5636    1.2557 O   0  0  0  0  0  0  0  0  0  0  0  0
 23 24  1  0  0  0
 24 25  2  0  0  0
 24 17  1  0  0  0
 17 18  2  0  0  0
 18 19  1  0  0  0
 19 20  2  0  0  0
 20 16  1  0  0  0
 16  1  1  0  0  0
  1  2  1  0  0  0
  2  3  1  0  0  0
  3  4  1  0  0  0
  4  5  1  0  0  0
  5  6  1  0  0  0
  4  7  1  0  0  0
  7  8  2  0  0  0
  7  9  2  0  0  0
  7 10  1  0  0  0
 10 11  2  0  0  0
 11 12  1  0  0  0
 12 13  2  0  0  0
 13 14  1  0  0  0
 14 15  2  0  0  0
 20 21  1  0  0  0
 21 22  2  0  0  0
 22 17  1  0  0  0
  6  1  1  0  0  0
 15 10  1  0  0  0
M  CHG 1  23  -1
M  CHG 1  24   1
M  END
> <minimizedAffinity>
14.94084

> <CNNscore>
0.4322986901

> <CNNaffinity>
6.0196475983

> <CNN_VS>
2.6022858620

> <CNNaffinity_variance>
0.4061575532

$$$$
[H]c1c([H])c([H])c(S(=O)(=O)N2C([H])([H])C([H])([H])N(C([H])([H])c3c([H])c([H])c([N+](=O)[O-])c([H])c3[H])C([H])([H])C2([H])[H])c([H])c1[H]


 25 27  0  0  0  0  0  0  0  0999 V2000
   14.1748   22.8947   -1.4346 N   0  0  0  0  0  0  0  0  0  0  0  0
   13.6750   21.5824   -1.6611 C   0  0  0  0  0  0  0  0  0  0  0  0
   12.8942   21.0103   -0.5151 C   0  0  0  0  0  0  0  0  0  0  0  0
   12.4486   21.9942    0.4260 N   0  0  0  0  0  0  0  0  0  0  0  0
   13.4018   22.9001    0.9287 C   0  0  0  0  0  0  0  0  0  0  0  0
   14.4535   23.2012   -0.0600 C   0  0  0  0  0  0  0  0  0  0  0  0
   11.4914   21.2348    1.6319 S   0  0  0  0  0  0  0  0  0  0  0  0
   12.4221   20.5072    2.5637 O   0  0  0  0  0  0  0  0  0  0  0  0
   10.5994   20.2194    0.9936 O   0  0  0  0  0  0  0  0  0  0  0  0
   10.5921   22.3850    2.5649 C   0  0  0  0  0  0  0  0  0  0  0  0
   10.2997   23.6235    2.0139 C   0  0  0  0  0  0  0  0  0  0  0  0
    9.5863   24.5798    2.7116 C   0  0  0  0  0  0  0  0  0  0  0  0
    9.1407   24.3212    3.9938 C   0  0  0  0  0  0  0  0  0  0  0  0
    9.4173   23.1130    4.5515 C   0  0  0  0  0  0  0  0  0  0  0  0
   10.1316   22.1628    3.8458 C   0  0  0  0  0  0  0  0  0  0  0  0
   13.3144   23.9315   -1.9528 C   0  0  0  0  0  0  0  0  0  0  0  0
   15.0859   26.3199   -5.0881 C   0  0  0  0  0  0  0  0  0  0  0  0
   14.0475   26.7998   -4.3184 C   0  0  0  0  0  0  0  0  0  0  0  0
   13.4893   26.0302   -3.3213 C   0  0  0  0  0  0  0  0  0  0  0  0
   13.9183   24.7533   -3.0270 C   0  0  0  0  0  0  0  0  0  0  0  0
   14.9618   24.2689   -3.7994 C   0  0  0  0  0  0  0  0  0  0  0  0
   15.5224   25.0371   -4.7981 C   0  0  0  0  0  0  0  0  0  0  0  0
   15.8985   28.4274   -5.8837 O   0  0  0  0  0  0  0  0  0  0  0  0
   15.6798   27.0958   -6.1237 N   0  0  0  0  0  0  0  0  0  0  0  0
   16.0107   26.6397   -7.2275 O   0  0  0  0  0  0  0  0  0  0  0  0
 23 24  1  0  0  0
 24 25  2  0  0  0
 24 17  1  0  0  0
 17 18  2  0  0  0
 18 19  1  0  0  0
 19 20  2  0  0  0
 20 16  1  0  0  0
 16  1  1  0  0  0
  1  2  1  0  0  0
  2  3  1  0  0  0
  3  4  1  0  0  0
  4  5  1  0  0  0
  5  6  1  0  0  0
  4  7  1  0  0  0
  7  8  2  0  0  0
  7  9  2  0  0  0
  7 10  1  0  0  0
 10 11  2  0  0  0
 11 12  1  0  0  0
 12 13  2  0  0  0
 13 14  1  0  0  0
 14 15  2  0  0  0
 20 21  1  0  0  0
 21 22  2  0  0  0
 22 17  1  0  0  0
  6  1  1  0  0  0
 15 10  1  0  0  0
M  CHG 1  23  -1
M  CHG 1  24   1
M  END
> <minimizedAffinity>
-9.18443

> <CNNscore>
0.4320971668

> <CNNaffinity>
6.5092515945

> <CNN_VS>
2.8126292229

> <CNNaffinity_variance>
0.1145390421

$$$$
[H]c1c([H])c([H])c(S(=O)(=O)N2C([H])([H])C([H])([H])N(C([H])([H])c3c([H])c([H])c([N+](=O)[O-])c([H])c3[H])C([H])([H])C2([H])[H])c([H])c1[H]


 25 27  0  0  0  0  0  0  0  0999 V2000
   14.2141   21.6695   -0.9280 N   0  0  0  0  0  0  0  0  0  0  0  0
   13.0356   21.3080   -1.6377 C   0  0  0  0  0  0  0  0  0  0  0  0
   11.8694   20.9543   -0.7630 C   0  0  0  0  0  0  0  0  0  0  0  0
   12.0028   21.4129    0.5877 N   0  0  0  0  0  0  0  0  0  0  0  0
   13.1958   21.1066    1.2695 C   0  0  0  0  0  0  0  0  0  0  0  0
   14.3538   21.0478    0.3585 C   0  0  0  0  0  0  0  0  0  0  0  0
   10.5736   21.0347    1.4602 S   0  0  0  0  0  0  0  0  0  0  0  0
   10.9642   20.1609    2.6212 O   0  0  0  0  0  0  0  0  0  0  0  0
    9.6507   20.2472    0.5871 O   0  0  0  0  0  0  0  0  0  0  0  0
    9.8062   22.4533    2.0932 C   0  0  0  0  0  0  0  0  0  0  0  0
    8.9190   23.1574    1.2931 C   0  0  0  0  0  0  0  0  0  0  0  0
    8.2782   24.2956    1.7448 C   0  0  0  0  0  0  0  0  0  0  0  0
    8.5094   24.7664    3.0232 C   0  0  0  0  0  0  0  0  0  0  0  0
    9.3757   24.0901    3.8229 C   0  0  0  0  0  0  0  0  0  0  0  0
   10.0120   22.9526    3.3622 C   0  0  0  0  0  0  0  0  0  0  0  0
   14.3587   23.0945   -0.7480 C   0  0  0  0  0  0  0  0  0  0  0  0
   14.7472   25.3449   -4.4164 C   0  0  0  0  0  0  0  0  0  0  0  0
   15.5272   24.2356   -4.1675 C   0  0  0  0  0  0  0  0  0  0  0  0
   15.3959   23.5250   -2.9945 C   0  0  0  0  0  0  0  0  0  0  0  0
   14.4956   23.8634   -2.0066 C   0  0  0  0  0  0  0  0  0  0  0  0
   13.7107   24.9781   -2.2546 C   0  0  0  0  0  0  0  0  0  0  0  0
   13.8401   25.6912   -3.4278 C   0  0  0  0  0  0  0  0  0  0  0  0
   15.5152   25.5158   -6.6783 O   0  0  0  0  0  0  0  0  0  0  0  0
   14.8636   26.0953   -5.6208 N   0  0  0  0  0  0  0  0  0  0  0  0
   14.4113   27.2395   -5.7700 O   0  0  0  0  0  0  0  0  0  0  0  0
 23 24  1  0  0  0
 24 25  2  0  0  0
 24 17  1  0  0  0
 17 18  2  0  0  0
 18 19  1  0  0  0
 19 20  2  0  0  0
 20 16  1  0  0  0
 16  1  1  0  0  0
  1  2  1  0  0  0
  2  3  1  0  0  0
  3  4  1  0  0  0
  4  5  1  0  0  0
  5  6  1  0  0  0
  4  7  1  0  0  0
  7  8  2  0  0  0
  7  9  2  0  0  0
  7 10  1  0  0  0
 10 11  2  0  0  0
 11 12  1  0  0  0
 12 13  2  0  0  0
 13 14  1  0  0  0
 14 15  2  0  0  0
 20 21  1  0  0  0
 21 22  2  0  0  0
 22 17  1  0  0  0
  6  1  1  0  0  0
 15 10  1  0  0  0
M  CHG 1  23  -1
M  CHG 1  24   1
M  END
> <minimizedAffinity>
-8.55952

> <CNNscore>
0.4186551869

> <CNNaffinity>
6.3604917526

> <CNN_VS>
2.6628527641

> <CNNaffinity_variance>
0.0982363075

$$$$
[H]c1c([H])c([H])c(S(=O)(=O)N2C([H])([H])C([H])([H])N(C([H])([H])c3c([H])c([H])c([N+](=O)[O-])c([H])c3[H])C([H])([H])C2([H])[H])c([H])c1[H]


 25 27  0  0  0  0  0  0  0  0999 V2000
   13.6559   23.3437   -1.0211 N   0  0  0  0  0  0  0  0  0  0  0  0
   13.4115   22.0367   -1.5264 C   0  0  0  0  0  0  0  0  0  0  0  0
   12.3925   21.2537   -0.7527 C   0  0  0  0  0  0  0  0  0  0  0  0
   11.5649   22.0624    0.0919 N   0  0  0  0  0  0  0  0  0  0  0  0
   12.2019   22.9686    0.9608 C   0  0  0  0  0  0  0  0  0  0  0  0
   13.4613   23.4854    0.3942 C   0  0  0  0  0  0  0  0  0  0  0  0
   10.3835   21.0718    0.8470 S   0  0  0  0  0  0  0  0  0  0  0  0
   10.6173   19.6558    0.3952 O   0  0  0  0  0  0  0  0  0  0  0  0
    9.0221   21.4793    0.3839 O   0  0  0  0  0  0  0  0  0  0  0  0
   10.5137   21.1101    2.5743 C   0  0  0  0  0  0  0  0  0  0  0  0
   11.3875   20.2388    3.2071 C   0  0  0  0  0  0  0  0  0  0  0  0
   11.5323   20.2246    4.5815 C   0  0  0  0  0  0  0  0  0  0  0  0
   10.7992   21.0910    5.3699 C   0  0  0  0  0  0  0  0  0  0  0  0
    9.9373   21.9528    4.7685 C   0  0  0  0  0  0  0  0  0  0  0  0
    9.7992   21.9595    3.3930 C   0  0  0  0  0  0  0  0  0  0  0  0
   12.8768   24.3657   -1.6787 C   0  0  0  0  0  0  0  0  0  0  0  0
   14.9159   26.4039   -4.8974 C   0  0  0  0  0  0  0  0  0  0  0  0
   15.3736   25.2004   -4.4045 C   0  0  0  0  0  0  0  0  0  0  0  0
   14.7164   24.5586   -3.3777 C   0  0  0  0  0  0  0  0  0  0  0  0
   13.5793   25.0614   -2.7817 C   0  0  0  0  0  0  0  0  0  0  0  0
   13.1176   26.2710   -3.2754 C   0  0  0  0  0  0  0  0  0  0  0  0
   13.7735   26.9156   -4.3031 C   0  0  0  0  0  0  0  0  0  0  0  0
   15.8842   28.4097   -5.7774 O   0  0  0  0  0  0  0  0  0  0  0  0
   15.5769   27.0862   -5.9580 N   0  0  0  0  0  0  0  0  0  0  0  0
   15.8908   26.5556   -7.0331 O   0  0  0  0  0  0  0  0  0  0  0  0
 23 24  1  0  0  0
 24 25  2  0  0  0
 24 17  1  0  0  0
 17 18  2  0  0  0
 18 19  1  0  0  0
 19 20  2  0  0  0
 20 16  1  0  0  0
 16  1  1  0  0  0
  1  2  1  0  0  0
  2  3  1  0  0  0
  3  4  1  0  0  0
  4  5  1  0  0  0
  5  6  1  0  0  0
  4  7  1  0  0  0
  7  8  2  0  0  0
  7  9  2  0  0  0
  7 10  1  0  0  0
 10 11  2  0  0  0
 11 12  1  0  0  0
 12 13  2  0  0  0
 13 14  1  0  0  0
 14 15  2  0  0  0
 20 21  1  0  0  0
 21 22  2  0  0  0
 22 17  1  0  0  0
  6  1  1  0  0  0
 15 10  1  0  0  0
M  CHG 1  23  -1
M  CHG 1  24   1
M  END
> <minimizedAffinity>
-8.98726

> <CNNscore>
0.4078229368

> <CNNaffinity>
6.1988258362

> <CNN_VS>
2.5280232430

> <CNNaffinity_variance>
0.1149808615

$$$$
[H]c1nc([H])c(-c2c([H])c3nc(N([H])C(=O)N([H])C([H])([H])C([H])([H])[H])sc3n(C3([H])C([H])([H])C([H])([H])C([H])([H])C3([H])[H])c2=O)c([H])c1[H]


 29 32  0  0  0  0  0  0  0  0999 V2000
   12.1493   27.0984   -4.4310 C   0  0  0  0  0  0  0  0  0  0  0  0
   12.2840   26.1982   -3.4736 N   0  0  0  0  0  0  0  0  0  0  0  0
   13.4595   25.8998   -3.0121 C   0  0  0  0  0  0  0  0  0  0  0  0
   13.7440   24.9609   -1.9942 C   0  0  0  0  0  0  0  0  0  0  0  0
   15.0528   24.7641   -1.6208 C   0  0  0  0  0  0  0  0  0  0  0  0
   16.1141   25.4321   -2.1836 C   0  0  0  0  0  0  0  0  0  0  0  0
   17.2607   25.2219   -1.8177 O   0  0  0  0  0  0  0  0  0  0  0  0
   15.8309   26.3272   -3.1555 N   0  0  0  0  0  0  0  0  0  0  0  0
   14.5389   26.5492   -3.5528 C   0  0  0  0  0  0  0  0  0  0  0  0
   13.7727   27.5606   -4.7067 S   0  0  0  0  0  0  0  0  0  0  0  0
    9.1752   29.2022   -5.4485 N   0  0  0  0  0  0  0  0  0  0  0  0
   10.3649   28.8020   -4.7851 C   0  0  0  0  0  0  0  0  0  0  0  0
   10.9260   29.5414   -3.9328 O   0  0  0  0  0  0  0  0  0  0  0  0
   10.9406   27.5636   -5.0710 N   0  0  0  0  0  0  0  0  0  0  0  0
    8.7380   28.5664   -6.1473 H   0  0  0  0  0  0  0  0  0  0  0  0
   10.5086   26.9230   -5.7685 H   0  0  0  0  0  0  0  0  0  0  0  0
    7.6184   30.3415   -3.9922 C   0  0  0  0  0  0  0  0  0  0  0  0
    8.5851   30.4813   -5.1497 C   0  0  0  0  0  0  0  0  0  0  0  0
   15.3895   23.7944   -0.5571 C   0  0  0  0  0  0  0  0  0  0  0  0
   16.3985   23.9972    0.3528 C   0  0  0  0  0  0  0  0  0  0  0  0
   16.6250   23.0103    1.3066 C   0  0  0  0  0  0  0  0  0  0  0  0
   15.8750   21.8589    1.3569 C   0  0  0  0  0  0  0  0  0  0  0  0
   14.8971   21.6791    0.4632 N   0  0  0  0  0  0  0  0  0  0  0  0
   14.6696   22.6114   -0.4520 C   0  0  0  0  0  0  0  0  0  0  0  0
   16.8237   27.0928   -3.8303 C   0  0  0  0  0  0  0  0  0  0  0  0
   18.2435   26.7441   -3.4299 C   0  0  0  0  0  0  0  0  0  0  0  0
   19.0282   28.0648   -3.4508 C   0  0  0  0  0  0  0  0  0  0  0  0
   18.1123   28.9748   -4.2825 C   0  0  0  0  0  0  0  0  0  0  0  0
   16.7708   28.5525   -3.6493 C   0  0  0  0  0  0  0  0  0  0  0  0
 17 18  1  0  0  0
 18 11  1  0  0  0
 11 12  1  0  0  0
 12 13  2  0  0  0
 12 14  1  0  0  0
 14  1  1  0  0  0
  1  2  2  0  0  0
  2  3  1  0  0  0
  3  4  1  0  0  0
  4  5  2  0  0  0
  5 19  1  0  0  0
 19 20  2  0  0  0
 20 21  1  0  0  0
 21 22  2  0  0  0
 22 23  1  0  0  0
 23 24  2  0  0  0
  5  6  1  0  0  0
  6  7  2  0  0  0
  6  8  1  0  0  0
  8 25  1  0  0  0
 25 26  1  0  0  0
 26 27  1  0  0  0
 27 28  1  0  0  0
 28 29  1  0  0  0
  8  9  1  0  0  0
  9 10  1  0  0  0
 10  1  1  0  0  0
  9  3  2  0  0  0
 24 19  1  0  0  0
 29 25  1  0  0  0
 11 15  1  0  0  0
 14 16  1  0  0  0
M  END
> <minimizedAffinity>
10.59169

> <CNNscore>
0.5407637358

> <CNNaffinity>
6.9151144028

> <CNN_VS>
3.7394430637

> <CNNaffinity_variance>
1.1967824697

$$$$
[H]c1nc([H])c(-c2c([H])c3nc(N([H])C(=O)N([H])C([H])([H])C([H])([H])[H])sc3n(C3([H])C([H])([H])C([H])([H])C([H])([H])C3([H])[H])c2=O)c([H])c1[H]


 29 32  0  0  0  0  0  0  0  0999 V2000
   13.0246   22.4488    0.8316 C   0  0  0  0  0  0  0  0  0  0  0  0
   13.4967   23.6134    0.4243 N   0  0  0  0  0  0  0  0  0  0  0  0
   14.0402   23.7289   -0.7485 C   0  0  0  0  0  0  0  0  0  0  0  0
   14.5815   24.9099   -1.3059 C   0  0  0  0  0  0  0  0  0  0  0  0
   15.1221   24.8592   -2.5694 C   0  0  0  0  0  0  0  0  0  0  0  0
   15.1692   23.7169   -3.3324 C   0  0  0  0  0  0  0  0  0  0  0  0
   15.6611   23.7222   -4.4509 O   0  0  0  0  0  0  0  0  0  0  0  0
   14.6491   22.5939   -2.7899 N   0  0  0  0  0  0  0  0  0  0  0  0
   14.1021   22.6072   -1.5341 C   0  0  0  0  0  0  0  0  0  0  0  0
   13.3612   21.4460   -0.5123 S   0  0  0  0  0  0  0  0  0  0  0  0
   10.4434   21.7872    3.5161 N   0  0  0  0  0  0  0  0  0  0  0  0
   11.0057   22.1203    2.2557 C   0  0  0  0  0  0  0  0  0  0  0  0
   10.2821   22.4216    1.2690 O   0  0  0  0  0  0  0  0  0  0  0  0
   12.3908   22.1194    2.0874 N   0  0  0  0  0  0  0  0  0  0  0  0
   11.0707   21.5432    4.3101 H   0  0  0  0  0  0  0  0  0  0  0  0
   13.0238   21.8765    2.8771 H   0  0  0  0  0  0  0  0  0  0  0  0
    8.6508   22.4931    4.9759 C   0  0  0  0  0  0  0  0  0  0  0  0
    9.0132   21.7897    3.6845 C   0  0  0  0  0  0  0  0  0  0  0  0
   15.6934   26.0742   -3.1879 C   0  0  0  0  0  0  0  0  0  0  0  0
   16.8758   26.6411   -2.7784 C   0  0  0  0  0  0  0  0  0  0  0  0
   17.3113   27.7877   -3.4345 C   0  0  0  0  0  0  0  0  0  0  0  0
   16.5975   28.3544   -4.4641 C   0  0  0  0  0  0  0  0  0  0  0  0
   15.4490   27.7885   -4.8490 N   0  0  0  0  0  0  0  0  0  0  0  0
   15.0213   26.6951   -4.2327 C   0  0  0  0  0  0  0  0  0  0  0  0
   14.6270   21.3371   -3.4588 C   0  0  0  0  0  0  0  0  0  0  0  0
   15.1019   21.4000   -4.8969 C   0  0  0  0  0  0  0  0  0  0  0  0
   14.2404   20.3930   -5.6741 C   0  0  0  0  0  0  0  0  0  0  0  0
   13.6564   19.5267   -4.5484 C   0  0  0  0  0  0  0  0  0  0  0  0
   13.3215   20.6655   -3.5635 C   0  0  0  0  0  0  0  0  0  0  0  0
 17 18  1  0  0  0
 18 11  1  0  0  0
 11 12  1  0  0  0
 12 13  2  0  0  0
 12 14  1  0  0  0
 14  1  1  0  0  0
  1  2  2  0  0  0
  2  3  1  0  0  0
  3  4  1  0  0  0
  4  5  2  0  0  0
  5 19  1  0  0  0
 19 20  2  0  0  0
 20 21  1  0  0  0
 21 22  2  0  0  0
 22 23  1  0  0  0
 23 24  2  0  0  0
  5  6  1  0  0  0
  6  7  2  0  0  0
  6  8  1  0  0  0
  8 25  1  0  0  0
 25 26  1  0  0  0
 26 27  1  0  0  0
 27 28  1  0  0  0
 28 29  1  0  0  0
  8  9  1  0  0  0
  9 10  1  0  0  0
 10  1  1  0  0  0
  9  3  2  0  0  0
 24 19  1  0  0  0
 29 25  1  0  0  0
 11 15  1  0  0  0
 14 16  1  0  0  0
M  END
> <minimizedAffinity>
2.50227

> <CNNscore>
0.5243541598

> <CNNaffinity>
7.3162336349

> <CNN_VS>
3.8362975121

> <CNNaffinity_variance>
0.9315381050

$$$$
[H]c1nc([H])c(-c2c([H])c3nc(N([H])C(=O)N([H])C([H])([H])C([H])([H])[H])sc3n(C3([H])C([H])([H])C([H])([H])C([H])([H])C3([H])[H])c2=O)c([H])c1[H]


 29 32  0  0  0  0  0  0  0  0999 V2000
   13.3054   23.6890   -0.1185 C   0  0  0  0  0  0  0  0  0  0  0  0
   12.6664   24.8161   -0.3767 N   0  0  0  0  0  0  0  0  0  0  0  0
   12.8493   25.4324   -1.5040 C   0  0  0  0  0  0  0  0  0  0  0  0
   12.2323   26.6390   -1.9063 C   0  0  0  0  0  0  0  0  0  0  0  0
   12.5383   27.1602   -3.1415 C   0  0  0  0  0  0  0  0  0  0  0  0
   13.4179   26.5729   -4.0194 C   0  0  0  0  0  0  0  0  0  0  0  0
   13.6578   27.0755   -5.1069 O   0  0  0  0  0  0  0  0  0  0  0  0
   14.0019   25.4200   -3.6248 N   0  0  0  0  0  0  0  0  0  0  0  0
   13.7208   24.8717   -2.4014 C   0  0  0  0  0  0  0  0  0  0  0  0
   14.2239   23.4735   -1.5449 S   0  0  0  0  0  0  0  0  0  0  0  0
   12.1338   21.2627    2.5362 N   0  0  0  0  0  0  0  0  0  0  0  0
   12.1395   22.0530    1.3567 C   0  0  0  0  0  0  0  0  0  0  0  0
   11.1686   22.0469    0.5534 O   0  0  0  0  0  0  0  0  0  0  0  0
   13.2380   22.8621    1.0642 N   0  0  0  0  0  0  0  0  0  0  0  0
   12.9528   21.2918    3.1780 H   0  0  0  0  0  0  0  0  0  0  0  0
   14.0602   22.8960    1.7016 H   0  0  0  0  0  0  0  0  0  0  0  0
    9.7839   21.2950    3.1016 C   0  0  0  0  0  0  0  0  0  0  0  0
   10.9975   20.4295    2.8334 C   0  0  0  0  0  0  0  0  0  0  0  0
   11.9100   28.4175   -3.5995 C   0  0  0  0  0  0  0  0  0  0  0  0
   12.3939   29.6613   -3.2745 C   0  0  0  0  0  0  0  0  0  0  0  0
   11.7146   30.7734   -3.7612 C   0  0  0  0  0  0  0  0  0  0  0  0
   10.5913   30.6561   -4.5454 C   0  0  0  0  0  0  0  0  0  0  0  0
   10.1351   29.4373   -4.8516 N   0  0  0  0  0  0  0  0  0  0  0  0
   10.7724   28.3679   -4.3946 C   0  0  0  0  0  0  0  0  0  0  0  0
   14.9332   24.6986   -4.4245 C   0  0  0  0  0  0  0  0  0  0  0  0
   14.5250   23.2644   -4.6970 C   0  0  0  0  0  0  0  0  0  0  0  0
   15.8247   22.4453   -4.7009 C   0  0  0  0  0  0  0  0  0  0  0  0
   16.8951   23.5334   -4.8720 C   0  0  0  0  0  0  0  0  0  0  0  0
   16.2992   24.5656   -3.8929 C   0  0  0  0  0  0  0  0  0  0  0  0
 17 18  1  0  0  0
 18 11  1  0  0  0
 11 12  1  0  0  0
 12 13  2  0  0  0
 12 14  1  0  0  0
 14  1  1  0  0  0
  1  2  2  0  0  0
  2  3  1  0  0  0
  3  4  1  0  0  0
  4  5  2  0  0  0
  5 19  1  0  0  0
 19 20  2  0  0  0
 20 21  1  0  0  0
 21 22  2  0  0  0
 22 23  1  0  0  0
 23 24  2  0  0  0
  5  6  1  0  0  0
  6  7  2  0  0  0
  6  8  1  0  0  0
  8 25  1  0  0  0
 25 26  1  0  0  0
 26 27  1  0  0  0
 27 28  1  0  0  0
 28 29  1  0  0  0
  8  9  1  0  0  0
  9 10  1  0  0  0
 10  1  1  0  0  0
  9  3  2  0  0  0
 24 19  1  0  0  0
 29 25  1  0  0  0
 11 15  1  0  0  0
 14 16  1  0  0  0
M  END
> <minimizedAffinity>
14.88343

> <CNNscore>
0.5165735483

> <CNNaffinity>
6.8923354149

> <CNN_VS>
3.5603981018

> <CNNaffinity_variance>
1.2408393621

$$$$
[H]c1nc([H])c(-c2c([H])c3nc(N([H])C(=O)N([H])C([H])([H])C([H])([H])[H])sc3n(C3([H])C([H])([H])C([H])([H])C([H])([H])C3([H])[H])c2=O)c([H])c1[H]


 29 32  0  0  0  0  0  0  0  0999 V2000
   10.5819   23.9058   -0.1992 C   0  0  0  0  0  0  0  0  0  0  0  0
   11.0307   24.7852   -1.0769 N   0  0  0  0  0  0  0  0  0  0  0  0
   12.2393   24.6935   -1.5406 C   0  0  0  0  0  0  0  0  0  0  0  0
   12.8423   25.5619   -2.4790 C   0  0  0  0  0  0  0  0  0  0  0  0
   14.1394   25.3208   -2.8672 C   0  0  0  0  0  0  0  0  0  0  0  0
   14.8944   24.2748   -2.3928 C   0  0  0  0  0  0  0  0  0  0  0  0
   16.0443   24.1023   -2.7683 O   0  0  0  0  0  0  0  0  0  0  0  0
   14.3082   23.4509   -1.4964 N   0  0  0  0  0  0  0  0  0  0  0  0
   13.0179   23.6604   -1.0870 C   0  0  0  0  0  0  0  0  0  0  0  0
   11.9374   22.8809   -0.0071 S   0  0  0  0  0  0  0  0  0  0  0  0
    7.7654   24.1115    2.3173 N   0  0  0  0  0  0  0  0  0  0  0  0
    9.0674   24.2015    1.7581 C   0  0  0  0  0  0  0  0  0  0  0  0
   10.0501   24.6059    2.4354 O   0  0  0  0  0  0  0  0  0  0  0  0
    9.2824   23.8373    0.4284 N   0  0  0  0  0  0  0  0  0  0  0  0
    6.9761   23.7730    1.7291 H   0  0  0  0  0  0  0  0  0  0  0  0
    8.4976   23.4981   -0.1652 H   0  0  0  0  0  0  0  0  0  0  0  0
    7.3122   25.9816    3.7800 C   0  0  0  0  0  0  0  0  0  0  0  0
    7.5489   24.4884    3.6901 C   0  0  0  0  0  0  0  0  0  0  0  0
   14.8025   26.2038   -3.8499 C   0  0  0  0  0  0  0  0  0  0  0  0
   15.9449   26.9139   -3.5715 C   0  0  0  0  0  0  0  0  0  0  0  0
   16.4758   27.7161   -4.5763 C   0  0  0  0  0  0  0  0  0  0  0  0
   15.8927   27.8112   -5.8179 C   0  0  0  0  0  0  0  0  0  0  0  0
   14.7814   27.1125   -6.0707 N   0  0  0  0  0  0  0  0  0  0  0  0
   14.2638   26.3435   -5.1224 C   0  0  0  0  0  0  0  0  0  0  0  0
   14.9641   22.3277   -0.9173 C   0  0  0  0  0  0  0  0  0  0  0  0
   14.2516   21.0114   -1.1571 C   0  0  0  0  0  0  0  0  0  0  0  0
   14.4523   20.1801    0.1193 C   0  0  0  0  0  0  0  0  0  0  0  0
   15.6240   20.9042    0.7988 C   0  0  0  0  0  0  0  0  0  0  0  0
   15.1506   22.3496    0.5424 C   0  0  0  0  0  0  0  0  0  0  0  0
 17 18  1  0  0  0
 18 11  1  0  0  0
 11 12  1  0  0  0
 12 13  2  0  0  0
 12 14  1  0  0  0
 14  1  1  0  0  0
  1  2  2  0  0  0
  2  3  1  0  0  0
  3  4  1  0  0  0
  4  5  2  0  0  0
  5 19  1  0  0  0
 19 20  2  0  0  0
 20 21  1  0  0  0
 21 22  2  0  0  0
 22 23  1  0  0  0
 23 24  2  0  0  0
  5  6  1  0  0  0
  6  7  2  0  0  0
  6  8  1  0  0  0
  8 25  1  0  0  0
 25 26  1  0  0  0
 26 27  1  0  0  0
 27 28  1  0  0  0
 28 29  1  0  0  0
  8  9  1  0  0  0
  9 10  1  0  0  0
 10  1  1  0  0  0
  9  3  2  0  0  0
 24 19  1  0  0  0
 29 25  1  0  0  0
 11 15  1  0  0  0
 14 16  1  0  0  0
M  END
> <minimizedAffinity>
-8.58953

> <CNNscore>
0.4514757693

> <CNNaffinity>
7.1103186607

> <CNN_VS>
3.2101366520

> <CNNaffinity_variance>
0.0109288711

$$$$
[H]c1nc([H])c(-c2c([H])c3nc(N([H])C(=O)N([H])C([H])([H])C([H])([H])[H])sc3n(C3([H])C([H])([H])C([H])([H])C([H])([H])C3([H])[H])c2=O)c([H])c1[H]


 29 32  0  0  0  0  0  0  0  0999 V2000
   15.0248   28.0934   -3.6331 C   0  0  0  0  0  0  0  0  0  0  0  0
   15.9806   27.5129   -2.9297 N   0  0  0  0  0  0  0  0  0  0  0  0
   15.6886   26.6184   -2.0360 C   0  0  0  0  0  0  0  0  0  0  0  0
   16.6085   25.9228   -1.2184 C   0  0  0  0  0  0  0  0  0  0  0  0
   16.1294   25.0009   -0.3176 C   0  0  0  0  0  0  0  0  0  0  0  0
   14.7949   24.7109   -0.1614 C   0  0  0  0  0  0  0  0  0  0  0  0
   14.4179   23.8829    0.6541 O   0  0  0  0  0  0  0  0  0  0  0  0
   13.9244   25.3815   -0.9480 N   0  0  0  0  0  0  0  0  0  0  0  0
   14.3658   26.3067   -1.8565 C   0  0  0  0  0  0  0  0  0  0  0  0
   13.6232   27.3405   -3.0059 S   0  0  0  0  0  0  0  0  0  0  0  0
   15.8467   29.8878   -6.8598 N   0  0  0  0  0  0  0  0  0  0  0  0
   15.7612   28.8553   -5.8890 C   0  0  0  0  0  0  0  0  0  0  0  0
   16.2325   27.7066   -6.1040 O   0  0  0  0  0  0  0  0  0  0  0  0
   15.1441   29.1006   -4.6619 N   0  0  0  0  0  0  0  0  0  0  0  0
   15.4467   30.8254   -6.6490 H   0  0  0  0  0  0  0  0  0  0  0  0
   14.7420   30.0358   -4.4447 H   0  0  0  0  0  0  0  0  0  0  0  0
   17.5054   30.7104   -8.4137 C   0  0  0  0  0  0  0  0  0  0  0  0
   16.4848   29.6294   -8.1246 C   0  0  0  0  0  0  0  0  0  0  0  0
   17.0604   24.2502    0.5513 C   0  0  0  0  0  0  0  0  0  0  0  0
   17.1336   22.8786    0.5665 C   0  0  0  0  0  0  0  0  0  0  0  0
   18.0470   22.2835    1.4306 C   0  0  0  0  0  0  0  0  0  0  0  0
   18.8620   23.0246    2.2534 C   0  0  0  0  0  0  0  0  0  0  0  0
   18.7768   24.3585    2.2247 N   0  0  0  0  0  0  0  0  0  0  0  0
   17.9106   24.9398    1.4060 C   0  0  0  0  0  0  0  0  0  0  0  0
   12.5145   25.1889   -0.8994 C   0  0  0  0  0  0  0  0  0  0  0  0
   11.8129   26.0549    0.1279 C   0  0  0  0  0  0  0  0  0  0  0  0
   10.6693   25.2001    0.6955 C   0  0  0  0  0  0  0  0  0  0  0  0
   10.5372   24.0912   -0.3589 C   0  0  0  0  0  0  0  0  0  0  0  0
   12.0421   23.8328   -0.5770 C   0  0  0  0  0  0  0  0  0  0  0  0
 17 18  1  0  0  0
 18 11  1  0  0  0
 11 12  1  0  0  0
 12 13  2  0  0  0
 12 14  1  0  0  0
 14  1  1  0  0  0
  1  2  2  0  0  0
  2  3  1  0  0  0
  3  4  1  0  0  0
  4  5  2  0  0  0
  5 19  1  0  0  0
 19 20  2  0  0  0
 20 21  1  0  0  0
 21 22  2  0  0  0
 22 23  1  0  0  0
 23 24  2  0  0  0
  5  6  1  0  0  0
  6  7  2  0  0  0
  6  8  1  0  0  0
  8 25  1  0  0  0
 25 26  1  0  0  0
 26 27  1  0  0  0
 27 28  1  0  0  0
 28 29  1  0  0  0
  8  9  1  0  0  0
  9 10  1  0  0  0
 10  1  1  0  0  0
  9  3  2  0  0  0
 24 19  1  0  0  0
 29 25  1  0  0  0
 11 15  1  0  0  0
 14 16  1  0  0  0
M  END
> <minimizedAffinity>
33.25890

> <CNNscore>
0.4372731745

> <CNNaffinity>
6.5796980858

> <CNN_VS>
2.8771255016

> <CNNaffinity_variance>
0.6323879957

$$$$
[H]c1nc([H])c(-c2c([H])c3nc(N([H])C(=O)N([H])C([H])([H])C([H])([H])[H])sc3n(C3([H])C([H])([H])C([H])([H])C([H])([H])C3([H])[H])c2=O)c([H])c1[H]


 29 32  0  0  0  0  0  0  0  0999 V2000
   11.6602   22.5845   -0.6460 C   0  0  0  0  0  0  0  0  0  0  0  0
   11.8579   23.2662   -1.7601 N   0  0  0  0  0  0  0  0  0  0  0  0
   13.0002   23.8389   -1.9867 C   0  0  0  0  0  0  0  0  0  0  0  0
   13.3439   24.5938   -3.1314 C   0  0  0  0  0  0  0  0  0  0  0  0
   14.6054   25.1348   -3.2145 C   0  0  0  0  0  0  0  0  0  0  0  0
   15.5640   24.9850   -2.2408 C   0  0  0  0  0  0  0  0  0  0  0  0
   16.6719   25.4861   -2.3604 O   0  0  0  0  0  0  0  0  0  0  0  0
   15.2249   24.2616   -1.1510 N   0  0  0  0  0  0  0  0  0  0  0  0
   13.9775   23.7077   -1.0345 C   0  0  0  0  0  0  0  0  0  0  0  0
   13.1699   22.7533    0.1395 S   0  0  0  0  0  0  0  0  0  0  0  0
    8.3567   21.7298    0.9860 N   0  0  0  0  0  0  0  0  0  0  0  0
    9.5016   22.4728    0.5951 C   0  0  0  0  0  0  0  0  0  0  0  0
    9.6704   23.6666    0.9614 O   0  0  0  0  0  0  0  0  0  0  0  0
   10.4734   21.8829   -0.2139 N   0  0  0  0  0  0  0  0  0  0  0  0
    8.2489   20.7454    0.6653 H   0  0  0  0  0  0  0  0  0  0  0  0
   10.3720   20.8991   -0.5382 H   0  0  0  0  0  0  0  0  0  0  0  0
    7.5624   21.9210    3.2609 C   0  0  0  0  0  0  0  0  0  0  0  0
    7.3567   22.3433    1.8211 C   0  0  0  0  0  0  0  0  0  0  0  0
   15.0035   25.9264   -4.3978 C   0  0  0  0  0  0  0  0  0  0  0  0
   15.2372   25.3686   -5.6312 C   0  0  0  0  0  0  0  0  0  0  0  0
   15.6110   26.2149   -6.6699 C   0  0  0  0  0  0  0  0  0  0  0  0
   15.7485   27.5714   -6.4916 C   0  0  0  0  0  0  0  0  0  0  0  0
   15.5167   28.0963   -5.2842 N   0  0  0  0  0  0  0  0  0  0  0  0
   15.1597   27.3018   -4.2844 C   0  0  0  0  0  0  0  0  0  0  0  0
   16.1104   24.0216   -0.0622 C   0  0  0  0  0  0  0  0  0  0  0  0
   16.0267   25.0625    1.0365 C   0  0  0  0  0  0  0  0  0  0  0  0
   17.4576   25.2361    1.5683 C   0  0  0  0  0  0  0  0  0  0  0  0
   18.1561   23.9735    1.0422 C   0  0  0  0  0  0  0  0  0  0  0  0
   17.5478   23.9760   -0.3753 C   0  0  0  0  0  0  0  0  0  0  0  0
 17 18  1  0  0  0
 18 11  1  0  0  0
 11 12  1  0  0  0
 12 13  2  0  0  0
 12 14  1  0  0  0
 14  1  1  0  0  0
  1  2  2  0  0  0
  2  3  1  0  0  0
  3  4  1  0  0  0
  4  5  2  0  0  0
  5 19  1  0  0  0
 19 20  2  0  0  0
 20 21  1  0  0  0
 21 22  2  0  0  0
 22 23  1  0  0  0
 23 24  2  0  0  0
  5  6  1  0  0  0
  6  7  2  0  0  0
  6  8  1  0  0  0
  8 25  1  0  0  0
 25 26  1  0  0  0
 26 27  1  0  0  0
 27 28  1  0  0  0
 28 29  1  0  0  0
  8  9  1  0  0  0
  9 10  1  0  0  0
 10  1  1  0  0  0
  9  3  2  0  0  0
 24 19  1  0  0  0
 29 25  1  0  0  0
 11 15  1  0  0  0
 14 16  1  0  0  0
M  END
> <minimizedAffinity>
-1.61638

> <CNNscore>
0.4199946523

> <CNNaffinity>
7.1658387184

> <CNN_VS>
3.0096139908

> <CNNaffinity_variance>
0.5571184158

$$$$
[H]c1nc([H])c(-c2c([H])c3nc(N([H])C(=O)N([H])C([H])([H])C([H])([H])[H])sc3n(C3([H])C([H])([H])C([H])([H])C([H])([H])C3([H])[H])c2=O)c([H])c1[H]


 29 32  0  0  0  0  0  0  0  0999 V2000
   15.8376   23.7610   -5.4057 C   0  0  0  0  0  0  0  0  0  0  0  0
   15.6936   22.8821   -4.4300 N   0  0  0  0  0  0  0  0  0  0  0  0
   14.9346   23.1486   -3.4117 C   0  0  0  0  0  0  0  0  0  0  0  0
   14.6933   22.3023   -2.3054 C   0  0  0  0  0  0  0  0  0  0  0  0
   13.8566   22.7404   -1.3057 C   0  0  0  0  0  0  0  0  0  0  0  0
   13.2334   23.9654   -1.3164 C   0  0  0  0  0  0  0  0  0  0  0  0
   12.4984   24.3101   -0.4032 O   0  0  0  0  0  0  0  0  0  0  0  0
   13.4711   24.7663   -2.3785 N   0  0  0  0  0  0  0  0  0  0  0  0
   14.2986   24.3628   -3.3928 C   0  0  0  0  0  0  0  0  0  0  0  0
   14.8471   25.0468   -4.8668 S   0  0  0  0  0  0  0  0  0  0  0  0
   17.6115   24.5551   -8.6507 N   0  0  0  0  0  0  0  0  0  0  0  0
   16.8228   24.7248   -7.4824 C   0  0  0  0  0  0  0  0  0  0  0  0
   16.2842   25.8296   -7.2043 O   0  0  0  0  0  0  0  0  0  0  0  0
   16.6284   23.6534   -6.6100 N   0  0  0  0  0  0  0  0  0  0  0  0
   18.0417   23.6284   -8.8499 H   0  0  0  0  0  0  0  0  0  0  0  0
   17.0557   22.7241   -6.8031 H   0  0  0  0  0  0  0  0  0  0  0  0
   16.5587   26.5181   -9.5894 C   0  0  0  0  0  0  0  0  0  0  0  0
   17.8088   25.6641   -9.5479 C   0  0  0  0  0  0  0  0  0  0  0  0
   13.5761   21.8821   -0.1353 C   0  0  0  0  0  0  0  0  0  0  0  0
   14.5114   21.0470    0.4258 C   0  0  0  0  0  0  0  0  0  0  0  0
   14.1292   20.2832    1.5237 C   0  0  0  0  0  0  0  0  0  0  0  0
   12.8600   20.3455    2.0490 C   0  0  0  0  0  0  0  0  0  0  0  0
   11.9632   21.1642    1.4898 N   0  0  0  0  0  0  0  0  0  0  0  0
   12.3132   21.8984    0.4425 C   0  0  0  0  0  0  0  0  0  0  0  0
   12.8981   26.0611   -2.5283 C   0  0  0  0  0  0  0  0  0  0  0  0
   11.8799   26.1548   -3.6473 C   0  0  0  0  0  0  0  0  0  0  0  0
   12.0501   27.5526   -4.2618 C   0  0  0  0  0  0  0  0  0  0  0  0
   12.8342   28.2953   -3.1698 C   0  0  0  0  0  0  0  0  0  0  0  0
   13.8254   27.1657   -2.8223 C   0  0  0  0  0  0  0  0  0  0  0  0
 17 18  1  0  0  0
 18 11  1  0  0  0
 11 12  1  0  0  0
 12 13  2  0  0  0
 12 14  1  0  0  0
 14  1  1  0  0  0
  1  2  2  0  0  0
  2  3  1  0  0  0
  3  4  1  0  0  0
  4  5  2  0  0  0
  5 19  1  0  0  0
 19 20  2  0  0  0
 20 21  1  0  0  0
 21 22  2  0  0  0
 22 23  1  0  0  0
 23 24  2  0  0  0
  5  6  1  0  0  0
  6  7  2  0  0  0
  6  8  1  0  0  0
  8 25  1  0  0  0
 25 26  1  0  0  0
 26 27  1  0  0  0
 27 28  1  0  0  0
 28 29  1  0  0  0
  8  9  1  0  0  0
  9 10  1  0  0  0
 10  1  1  0  0  0
  9  3  2  0  0  0
 24 19  1  0  0  0
 29 25  1  0  0  0
 11 15  1  0  0  0
 14 16  1  0  0  0
M  END
> <minimizedAffinity>
22.21933

> <CNNscore>
0.4108765721

> <CNNaffinity>
6.5109405518

> <CNN_VS>
2.6751928329

> <CNNaffinity_variance>
0.4637320638

$$$$
[H]c1nc([H])c(-c2c([H])c3nc(N([H])C(=O)N([H])C([H])([H])C([H])([H])[H])sc3n(C3([H])C([H])([H])C([H])([H])C([H])([H])C3([H])[H])c2=O)c([H])c1[H]


 29 32  0  0  0  0  0  0  0  0999 V2000
   16.5191   26.1757   -3.2992 C   0  0  0  0  0  0  0  0  0  0  0  0
   16.1856   25.1110   -2.5918 N   0  0  0  0  0  0  0  0  0  0  0  0
   14.9423   24.8766   -2.3028 C   0  0  0  0  0  0  0  0  0  0  0  0
   14.4500   23.7803   -1.5583 C   0  0  0  0  0  0  0  0  0  0  0  0
   13.0956   23.6807   -1.3421 C   0  0  0  0  0  0  0  0  0  0  0  0
   12.1803   24.5927   -1.8109 C   0  0  0  0  0  0  0  0  0  0  0  0
   10.9855   24.4607   -1.5919 O   0  0  0  0  0  0  0  0  0  0  0  0
   12.6617   25.6365   -2.5213 N   0  0  0  0  0  0  0  0  0  0  0  0
   14.0048   25.7679   -2.7564 C   0  0  0  0  0  0  0  0  0  0  0  0
   14.9954   26.8995   -3.5808 S   0  0  0  0  0  0  0  0  0  0  0  0
   19.5920   28.2744   -3.9775 N   0  0  0  0  0  0  0  0  0  0  0  0
   18.2899   27.9128   -3.5421 C   0  0  0  0  0  0  0  0  0  0  0  0
   17.5225   28.7472   -2.9919 O   0  0  0  0  0  0  0  0  0  0  0  0
   17.8323   26.6066   -3.7197 N   0  0  0  0  0  0  0  0  0  0  0  0
   20.1998   27.5596   -4.4284 H   0  0  0  0  0  0  0  0  0  0  0  0
   18.4349   25.8871   -4.1698 H   0  0  0  0  0  0  0  0  0  0  0  0
   19.5312   30.5062   -4.9036 C   0  0  0  0  0  0  0  0  0  0  0  0
   20.0593   29.6237   -3.7918 C   0  0  0  0  0  0  0  0  0  0  0  0
   12.5424   22.5463   -0.5724 C   0  0  0  0  0  0  0  0  0  0  0  0
   12.0756   21.3958   -1.1601 C   0  0  0  0  0  0  0  0  0  0  0  0
   11.5735   20.3973   -0.3318 C   0  0  0  0  0  0  0  0  0  0  0  0
   11.5357   20.5350    1.0358 C   0  0  0  0  0  0  0  0  0  0  0  0
   11.9947   21.6617    1.5899 N   0  0  0  0  0  0  0  0  0  0  0  0
   12.4762   22.6223    0.8128 C   0  0  0  0  0  0  0  0  0  0  0  0
   11.8368   26.6596   -3.0692 C   0  0  0  0  0  0  0  0  0  0  0  0
   11.7397   26.6240   -4.5815 C   0  0  0  0  0  0  0  0  0  0  0  0
   11.6730   28.0894   -5.0382 C   0  0  0  0  0  0  0  0  0  0  0  0
   11.2923   28.8181   -3.7410 C   0  0  0  0  0  0  0  0  0  0  0  0
   12.2313   28.0495   -2.7888 C   0  0  0  0  0  0  0  0  0  0  0  0
 17 18  1  0  0  0
 18 11  1  0  0  0
 11 12  1  0  0  0
 12 13  2  0  0  0
 12 14  1  0  0  0
 14  1  1  0  0  0
  1  2  2  0  0  0
  2  3  1  0  0  0
  3  4  1  0  0  0
  4  5  2  0  0  0
  5 19  1  0  0  0
 19 20  2  0  0  0
 20 21  1  0  0  0
 21 22  2  0  0  0
 22 23  1  0  0  0
 23 24  2  0  0  0
  5  6  1  0  0  0
  6  7  2  0  0  0
  6  8  1  0  0  0
  8 25  1  0  0  0
 25 26  1  0  0  0
 26 27  1  0  0  0
 27 28  1  0  0  0
 28 29  1  0  0  0
  8  9  1  0  0  0
  9 10  1  0  0  0
 10  1  1  0  0  0
  9  3  2  0  0  0
 24 19  1  0  0  0
 29 25  1  0  0  0
 11 15  1  0  0  0
 14 16  1  0  0  0
M  END
> <minimizedAffinity>
22.34977

> <CNNscore>
0.4022528529

> <CNNaffinity>
6.7703542709

> <CNN_VS>
2.7233943939

> <CNNaffinity_variance>
1.1608903408

$$$$
[H]c1nc([H])c(-c2c([H])c3nc(N([H])C(=O)N([H])C([H])([H])C([H])([H])[H])sc3n(C3([H])C([H])([H])C([H])([H])C([H])([H])C3([H])[H])c2=O)c([H])c1[H]


 29 32  0  0  0  0  0  0  0  0999 V2000
   14.9754   23.1379   -3.6211 C   0  0  0  0  0  0  0  0  0  0  0  0
   14.7224   22.1795   -2.7478 N   0  0  0  0  0  0  0  0  0  0  0  0
   13.9779   22.4142   -1.7111 C   0  0  0  0  0  0  0  0  0  0  0  0
   13.6293   21.4843   -0.7050 C   0  0  0  0  0  0  0  0  0  0  0  0
   12.8260   21.8990    0.3312 C   0  0  0  0  0  0  0  0  0  0  0  0
   12.3356   23.1775    0.4502 C   0  0  0  0  0  0  0  0  0  0  0  0
   11.6249   23.4982    1.3910 O   0  0  0  0  0  0  0  0  0  0  0  0
   12.6749   24.0581   -0.5169 N   0  0  0  0  0  0  0  0  0  0  0  0
   13.4731   23.6802   -1.5640 C   0  0  0  0  0  0  0  0  0  0  0  0
   14.1164   24.4564   -2.9514 S   0  0  0  0  0  0  0  0  0  0  0  0
   16.6032   23.9888   -6.9277 N   0  0  0  0  0  0  0  0  0  0  0  0
   15.7996   24.1092   -5.7634 C   0  0  0  0  0  0  0  0  0  0  0  0
   15.1000   25.1347   -5.5475 O   0  0  0  0  0  0  0  0  0  0  0  0
   15.7716   23.0768   -4.8251 N   0  0  0  0  0  0  0  0  0  0  0  0
   17.1689   23.1274   -7.0745 H   0  0  0  0  0  0  0  0  0  0  0  0
   16.3347   22.2129   -4.9657 H   0  0  0  0  0  0  0  0  0  0  0  0
   17.3055   24.5842   -9.1625 C   0  0  0  0  0  0  0  0  0  0  0  0
   16.6285   25.0570   -7.8930 C   0  0  0  0  0  0  0  0  0  0  0  0
   12.4361   20.9546    1.3996 C   0  0  0  0  0  0  0  0  0  0  0  0
   13.3450   20.2236    2.1251 C   0  0  0  0  0  0  0  0  0  0  0  0
   12.8581   19.3629    3.1034 C   0  0  0  0  0  0  0  0  0  0  0  0
   11.5126   19.2311    3.3546 C   0  0  0  0  0  0  0  0  0  0  0  0
   10.6429   19.9508    2.6385 N   0  0  0  0  0  0  0  0  0  0  0  0
   11.0925   20.7755    1.7024 C   0  0  0  0  0  0  0  0  0  0  0  0
   12.2442   25.4152   -0.5283 C   0  0  0  0  0  0  0  0  0  0  0  0
   12.1074   26.0029   -1.9188 C   0  0  0  0  0  0  0  0  0  0  0  0
   12.5431   27.4718   -1.8049 C   0  0  0  0  0  0  0  0  0  0  0  0
   12.4675   27.7175   -0.2907 C   0  0  0  0  0  0  0  0  0  0  0  0
   13.1025   26.3882    0.1665 C   0  0  0  0  0  0  0  0  0  0  0  0
 17 18  1  0  0  0
 18 11  1  0  0  0
 11 12  1  0  0  0
 12 13  2  0  0  0
 12 14  1  0  0  0
 14  1  1  0  0  0
  1  2  2  0  0  0
  2  3  1  0  0  0
  3  4  1  0  0  0
  4  5  2  0  0  0
  5 19  1  0  0  0
 19 20  2  0  0  0
 20 21  1  0  0  0
 21 22  2  0  0  0
 22 23  1  0  0  0
 23 24  2  0  0  0
  5  6  1  0  0  0
  6  7  2  0  0  0
  6  8  1  0  0  0
  8 25  1  0  0  0
 25 26  1  0  0  0
 26 27  1  0  0  0
 27 28  1  0  0  0
 28 29  1  0  0  0
  8  9  1  0  0  0
  9 10  1  0  0  0
 10  1  1  0  0  0
  9  3  2  0  0  0
 24 19  1  0  0  0
 29 25  1  0  0  0
 11 15  1  0  0  0
 14 16  1  0  0  0
M  END
> <minimizedAffinity>
16.49422

> <CNNscore>
0.3929044008

> <CNNaffinity>
6.5336484909

> <CNN_VS>
2.5670993328

> <CNNaffinity_variance>
0.6333811879

$$$$
