[H]c1c([H])c([H])c(N2C([H])([H])C([H])([H])N(C(=O)C([H])([H])Sc3nnc([H])n3-c3c([H])c([H])c([H])c([H])c3C([H])([H])[H])C([H])([H])C2([H])[H])c([H])c1[H]


 28 31  0  0  0  0  0  0  0  0999 V2000
  157.3786  140.3235  184.2816 C   0  0  0  0  0  0  0  0  0  0  0  0
  156.3184  141.2789  183.9048 C   0  0  0  0  0  0  0  0  0  0  0  0
  156.5846  142.5000  183.8510 O   0  0  0  0  0  0  0  0  0  0  0  0
  155.0095  140.8405  183.6031 N   0  0  0  0  0  0  0  0  0  0  0  0
  154.6984  139.4456  183.6822 C   0  0  0  0  0  0  0  0  0  0  0  0
  153.2629  139.1370  183.3025 C   0  0  0  0  0  0  0  0  0  0  0  0
  152.8353  139.9213  182.1687 N   0  0  0  0  0  0  0  0  0  0  0  0
  153.4106  141.2348  181.8848 C   0  0  0  0  0  0  0  0  0  0  0  0
  153.9708  141.7692  183.2105 C   0  0  0  0  0  0  0  0  0  0  0  0
  151.8354  139.4223  181.3139 C   0  0  0  0  0  0  0  0  0  0  0  0
  151.1135  138.3071  181.6565 C   0  0  0  0  0  0  0  0  0  0  0  0
  150.1409  137.8374  180.7841 C   0  0  0  0  0  0  0  0  0  0  0  0
  149.8789  138.4610  179.5817 C   0  0  0  0  0  0  0  0  0  0  0  0
  150.6068  139.5890  179.2329 C   0  0  0  0  0  0  0  0  0  0  0  0
  151.5705  140.0548  180.0963 C   0  0  0  0  0  0  0  0  0  0  0  0
  158.1989  139.6174  182.8213 S   0  0  0  0  0  0  0  0  0  0  0  0
  159.1982  142.0072  181.7047 N   0  0  0  0  0  0  0  0  0  0  0  0
  159.1122  142.7062  180.5692 C   0  0  0  0  0  0  0  0  0  0  0  0
  158.3013  142.0261  179.7472 N   0  0  0  0  0  0  0  0  0  0  0  0
  157.9034  140.9469  180.3586 N   0  0  0  0  0  0  0  0  0  0  0  0
  158.4479  140.9104  181.5808 C   0  0  0  0  0  0  0  0  0  0  0  0
  158.8607  144.6132  182.6762 C   0  0  0  0  0  0  0  0  0  0  0  0
  159.8031  143.6559  183.3256 C   0  0  0  0  0  0  0  0  0  0  0  0
  160.5403  144.0292  184.4285 C   0  0  0  0  0  0  0  0  0  0  0  0
  161.4107  143.1161  185.0142 C   0  0  0  0  0  0  0  0  0  0  0  0
  161.5716  141.8356  184.5345 C   0  0  0  0  0  0  0  0  0  0  0  0
  160.8371  141.4577  183.4321 C   0  0  0  0  0  0  0  0  0  0  0  0
  159.9643  142.3750  182.8456 C   0  0  0  0  0  0  0  0  0  0  0  0
 22 23  1  0  0  0
 23 24  2  0  0  0
 24 25  1  0  0  0
 25 26  2  0  0  0
 26 27  1  0  0  0
 27 28  2  0  0  0
 28 17  1  0  0  0
 17 18  1  0  0  0
 18 19  2  0  0  0
 19 20  1  0  0  0
 20 21  2  0  0  0
 21 16  1  0  0  0
 16  1  1  0  0  0
  1  2  1  0  0  0
  2  3  2  0  0  0
  2  4  1  0  0  0
  4  5  1  0  0  0
  5  6  1  0  0  0
  6  7  1  0  0  0
  7 10  1  0  0  0
 10 11  2  0  0  0
 11 12  1  0  0  0
 12 13  2  0  0  0
 13 14  1  0  0  0
 14 15  2  0  0  0
  7  8  1  0  0  0
  8  9  1  0  0  0
 28 23  1  0  0  0
 21 17  1  0  0  0
  9  4  1  0  0  0
 15 10  1  0  0  0
M  END
> <minimizedAffinity>
-9.31629

> <CNNscore>
0.8147007823

> <CNNaffinity>
7.0832276344

> <CNN_VS>
5.7707109451

> <CNNaffinity_variance>
0.0346331522

$$$$
[H]c1c([H])c([H])c(N2C([H])([H])C([H])([H])N(C(=O)C([H])([H])Sc3nnc([H])n3-c3c([H])c([H])c([H])c([H])c3C([H])([H])[H])C([H])([H])C2([H])[H])c([H])c1[H]


 28 31  0  0  0  0  0  0  0  0999 V2000
  154.6607  141.5483  183.6005 C   0  0  0  0  0  0  0  0  0  0  0  0
  154.2060  140.1461  183.5228 C   0  0  0  0  0  0  0  0  0  0  0  0
  154.6276  139.3178  184.3600 O   0  0  0  0  0  0  0  0  0  0  0  0
  153.3034  139.7223  182.5217 N   0  0  0  0  0  0  0  0  0  0  0  0
  152.8345  140.6647  181.5517 C   0  0  0  0  0  0  0  0  0  0  0  0
  151.8536  140.0603  180.5656 C   0  0  0  0  0  0  0  0  0  0  0  0
  150.9336  139.1600  181.2187 N   0  0  0  0  0  0  0  0  0  0  0  0
  151.3024  138.4368  182.4344 C   0  0  0  0  0  0  0  0  0  0  0  0
  152.8353  138.3542  182.4533 C   0  0  0  0  0  0  0  0  0  0  0  0
  149.6509  138.9603  180.6763 C   0  0  0  0  0  0  0  0  0  0  0  0
  148.5336  139.4004  181.3398 C   0  0  0  0  0  0  0  0  0  0  0  0
  147.2832  139.1777  180.7790 C   0  0  0  0  0  0  0  0  0  0  0  0
  147.1319  138.5264  179.5723 C   0  0  0  0  0  0  0  0  0  0  0  0
  148.2597  138.0807  178.8990 C   0  0  0  0  0  0  0  0  0  0  0  0
  149.4987  138.3007  179.4538 C   0  0  0  0  0  0  0  0  0  0  0  0
  156.4528  141.6604  183.8827 S   0  0  0  0  0  0  0  0  0  0  0  0
  158.5832  141.9933  182.0642 N   0  0  0  0  0  0  0  0  0  0  0  0
  158.8375  141.8265  180.7631 C   0  0  0  0  0  0  0  0  0  0  0  0
  157.7168  141.3562  180.1988 N   0  0  0  0  0  0  0  0  0  0  0  0
  156.8063  141.2390  181.1228 N   0  0  0  0  0  0  0  0  0  0  0  0
  157.3200  141.6296  182.2954 C   0  0  0  0  0  0  0  0  0  0  0  0
  158.7353  144.7695  182.4079 C   0  0  0  0  0  0  0  0  0  0  0  0
  159.5879  143.8385  183.2032 C   0  0  0  0  0  0  0  0  0  0  0  0
  160.4814  144.3208  184.1349 C   0  0  0  0  0  0  0  0  0  0  0  0
  161.2631  143.4300  184.8627 C   0  0  0  0  0  0  0  0  0  0  0  0
  161.1833  142.0661  184.6919 C   0  0  0  0  0  0  0  0  0  0  0  0
  160.2917  141.5790  183.7616 C   0  0  0  0  0  0  0  0  0  0  0  0
  159.5083  142.4741  183.0322 C   0  0  0  0  0  0  0  0  0  0  0  0
 22 23  1  0  0  0
 23 24  2  0  0  0
 24 25  1  0  0  0
 25 26  2  0  0  0
 26 27  1  0  0  0
 27 28  2  0  0  0
 28 17  1  0  0  0
 17 18  1  0  0  0
 18 19  2  0  0  0
 19 20  1  0  0  0
 20 21  2  0  0  0
 21 16  1  0  0  0
 16  1  1  0  0  0
  1  2  1  0  0  0
  2  3  2  0  0  0
  2  4  1  0  0  0
  4  5  1  0  0  0
  5  6  1  0  0  0
  6  7  1  0  0  0
  7 10  1  0  0  0
 10 11  2  0  0  0
 11 12  1  0  0  0
 12 13  2  0  0  0
 13 14  1  0  0  0
 14 15  2  0  0  0
  7  8  1  0  0  0
  8  9  1  0  0  0
 28 23  1  0  0  0
 21 17  1  0  0  0
  9  4  1  0  0  0
 15 10  1  0  0  0
M  END
> <minimizedAffinity>
-9.52269

> <CNNscore>
0.6155723333

> <CNNaffinity>
6.4598183632

> <CNN_VS>
3.9764854908

> <CNNaffinity_variance>
0.0560415275

$$$$
[H]c1c([H])c([H])c(N2C([H])([H])C([H])([H])N(C(=O)C([H])([H])Sc3nnc([H])n3-c3c([H])c([H])c([H])c([H])c3C([H])([H])[H])C([H])([H])C2([H])[H])c([H])c1[H]


 28 31  0  0  0  0  0  0  0  0999 V2000
  154.7248  141.5173  182.4163 C   0  0  0  0  0  0  0  0  0  0  0  0
  154.0216  140.2998  182.8657 C   0  0  0  0  0  0  0  0  0  0  0  0
  154.2772  139.8260  183.9948 O   0  0  0  0  0  0  0  0  0  0  0  0
  153.0652  139.6603  182.0455 N   0  0  0  0  0  0  0  0  0  0  0  0
  152.7851  140.1905  180.7458 C   0  0  0  0  0  0  0  0  0  0  0  0
  151.7185  139.4076  180.0046 C   0  0  0  0  0  0  0  0  0  0  0  0
  150.6437  139.0143  180.8841 N   0  0  0  0  0  0  0  0  0  0  0  0
  150.8634  138.7973  182.3129 C   0  0  0  0  0  0  0  0  0  0  0  0
  152.3550  138.4794  182.4888 C   0  0  0  0  0  0  0  0  0  0  0  0
  149.3508  138.8249  180.3626 C   0  0  0  0  0  0  0  0  0  0  0  0
  148.2438  139.1985  181.0818 C   0  0  0  0  0  0  0  0  0  0  0  0
  146.9831  138.9879  180.5398 C   0  0  0  0  0  0  0  0  0  0  0  0
  146.8114  138.4138  179.2971 C   0  0  0  0  0  0  0  0  0  0  0  0
  147.9288  138.0355  178.5674 C   0  0  0  0  0  0  0  0  0  0  0  0
  149.1779  138.2435  179.1037 C   0  0  0  0  0  0  0  0  0  0  0  0
  155.8105  142.1850  183.7121 S   0  0  0  0  0  0  0  0  0  0  0  0
  158.3143  141.0688  183.0472 N   0  0  0  0  0  0  0  0  0  0  0  0
  159.1783  140.1678  183.5236 C   0  0  0  0  0  0  0  0  0  0  0  0
  158.6561  139.6808  184.6576 N   0  0  0  0  0  0  0  0  0  0  0  0
  157.5104  140.2633  184.8687 N   0  0  0  0  0  0  0  0  0  0  0  0
  157.2730  141.1334  183.8796 C   0  0  0  0  0  0  0  0  0  0  0  0
  159.4614  143.6108  183.3135 C   0  0  0  0  0  0  0  0  0  0  0  0
  159.0463  143.0793  181.9825 C   0  0  0  0  0  0  0  0  0  0  0  0
  159.2153  143.8290  180.8387 C   0  0  0  0  0  0  0  0  0  0  0  0
  158.8200  143.3083  179.6112 C   0  0  0  0  0  0  0  0  0  0  0  0
  158.2587  142.0574  179.4849 C   0  0  0  0  0  0  0  0  0  0  0  0
  158.0874  141.3041  180.6254 C   0  0  0  0  0  0  0  0  0  0  0  0
  158.4845  141.8280  181.8562 C   0  0  0  0  0  0  0  0  0  0  0  0
 22 23  1  0  0  0
 23 24  2  0  0  0
 24 25  1  0  0  0
 25 26  2  0  0  0
 26 27  1  0  0  0
 27 28  2  0  0  0
 28 17  1  0  0  0
 17 18  1  0  0  0
 18 19  2  0  0  0
 19 20  1  0  0  0
 20 21  2  0  0  0
 21 16  1  0  0  0
 16  1  1  0  0  0
  1  2  1  0  0  0
  2  3  2  0  0  0
  2  4  1  0  0  0
  4  5  1  0  0  0
  5  6  1  0  0  0
  6  7  1  0  0  0
  7 10  1  0  0  0
 10 11  2  0  0  0
 11 12  1  0  0  0
 12 13  2  0  0  0
 13 14  1  0  0  0
 14 15  2  0  0  0
  7  8  1  0  0  0
  8  9  1  0  0  0
 28 23  1  0  0  0
 21 17  1  0  0  0
  9  4  1  0  0  0
 15 10  1  0  0  0
M  END
> <minimizedAffinity>
-8.75646

> <CNNscore>
0.5823155046

> <CNNaffinity>
6.2328691483

> <CNN_VS>
3.6294963360

> <CNNaffinity_variance>
0.1232299358

$$$$
[H]c1c([H])c([H])c(N2C([H])([H])C([H])([H])N(C(=O)C([H])([H])Sc3nnc([H])n3-c3c([H])c([H])c([H])c([H])c3C([H])([H])[H])C([H])([H])C2([H])[H])c([H])c1[H]


 28 31  0  0  0  0  0  0  0  0999 V2000
  154.3053  138.9043  185.4537 C   0  0  0  0  0  0  0  0  0  0  0  0
  155.0270  138.2188  186.5437 C   0  0  0  0  0  0  0  0  0  0  0  0
  156.2732  138.3087  186.6050 O   0  0  0  0  0  0  0  0  0  0  0  0
  154.3372  137.4642  187.5190 N   0  0  0  0  0  0  0  0  0  0  0  0
  152.9131  137.3451  187.4396 C   0  0  0  0  0  0  0  0  0  0  0  0
  152.3235  136.5277  188.5729 C   0  0  0  0  0  0  0  0  0  0  0  0
  152.9661  136.8261  189.8304 N   0  0  0  0  0  0  0  0  0  0  0  0
  154.3521  137.2868  189.8923 C   0  0  0  0  0  0  0  0  0  0  0  0
  155.0361  136.8084  188.6039 C   0  0  0  0  0  0  0  0  0  0  0  0
  152.2529  136.6658  191.0325 C   0  0  0  0  0  0  0  0  0  0  0  0
  152.7789  137.1013  192.2225 C   0  0  0  0  0  0  0  0  0  0  0  0
  152.0509  136.9180  193.3904 C   0  0  0  0  0  0  0  0  0  0  0  0
  150.8122  136.3105  193.3886 C   0  0  0  0  0  0  0  0  0  0  0  0
  150.2777  135.8696  192.1869 C   0  0  0  0  0  0  0  0  0  0  0  0
  150.9982  136.0505  191.0297 C   0  0  0  0  0  0  0  0  0  0  0  0
  155.3746  139.1864  184.0112 S   0  0  0  0  0  0  0  0  0  0  0  0
  156.1704  141.8067  183.3350 N   0  0  0  0  0  0  0  0  0  0  0  0
  155.6284  142.9467  182.8967 C   0  0  0  0  0  0  0  0  0  0  0  0
  154.3151  142.7272  182.7456 N   0  0  0  0  0  0  0  0  0  0  0  0
  154.0607  141.4944  183.0804 N   0  0  0  0  0  0  0  0  0  0  0  0
  155.1999  140.8979  183.4519 C   0  0  0  0  0  0  0  0  0  0  0  0
  157.8567  141.2742  181.1621 C   0  0  0  0  0  0  0  0  0  0  0  0
  158.3814  141.3396  182.5574 C   0  0  0  0  0  0  0  0  0  0  0  0
  159.7192  141.1374  182.8190 C   0  0  0  0  0  0  0  0  0  0  0  0
  160.1809  141.2050  184.1292 C   0  0  0  0  0  0  0  0  0  0  0  0
  159.3486  141.4692  185.1937 C   0  0  0  0  0  0  0  0  0  0  0  0
  158.0104  141.6719  184.9374 C   0  0  0  0  0  0  0  0  0  0  0  0
  157.5487  141.6037  183.6224 C   0  0  0  0  0  0  0  0  0  0  0  0
 22 23  1  0  0  0
 23 24  2  0  0  0
 24 25  1  0  0  0
 25 26  2  0  0  0
 26 27  1  0  0  0
 27 28  2  0  0  0
 28 17  1  0  0  0
 17 18  1  0  0  0
 18 19  2  0  0  0
 19 20  1  0  0  0
 20 21  2  0  0  0
 21 16  1  0  0  0
 16  1  1  0  0  0
  1  2  1  0  0  0
  2  3  2  0  0  0
  2  4  1  0  0  0
  4  5  1  0  0  0
  5  6  1  0  0  0
  6  7  1  0  0  0
  7 10  1  0  0  0
 10 11  2  0  0  0
 11 12  1  0  0  0
 12 13  2  0  0  0
 13 14  1  0  0  0
 14 15  2  0  0  0
  7  8  1  0  0  0
  8  9  1  0  0  0
 28 23  1  0  0  0
 21 17  1  0  0  0
  9  4  1  0  0  0
 15 10  1  0  0  0
M  END
> <minimizedAffinity>
-7.74548

> <CNNscore>
0.5370492339

> <CNNaffinity>
5.7931547165

> <CNN_VS>
3.1112093925

> <CNNaffinity_variance>
0.0402692743

$$$$
[H]c1c([H])c([H])c(N2C([H])([H])C([H])([H])N(C(=O)C([H])([H])Sc3nnc([H])n3-c3c([H])c([H])c([H])c([H])c3C([H])([H])[H])C([H])([H])C2([H])[H])c([H])c1[H]


 28 31  0  0  0  0  0  0  0  0999 V2000
  150.8764  135.8137  184.1593 C   0  0  0  0  0  0  0  0  0  0  0  0
  152.0807  136.6635  184.0811 C   0  0  0  0  0  0  0  0  0  0  0  0
  152.2189  137.4430  183.1126 O   0  0  0  0  0  0  0  0  0  0  0  0
  153.0794  136.6138  185.0794 N   0  0  0  0  0  0  0  0  0  0  0  0
  152.9318  135.7090  186.1786 C   0  0  0  0  0  0  0  0  0  0  0  0
  154.0723  135.7965  187.1744 C   0  0  0  0  0  0  0  0  0  0  0  0
  154.4750  137.1643  187.3987 N   0  0  0  0  0  0  0  0  0  0  0  0
  154.3086  138.1904  186.3708 C   0  0  0  0  0  0  0  0  0  0  0  0
  154.2519  137.4608  185.0213 C   0  0  0  0  0  0  0  0  0  0  0  0
  155.0499  137.5283  188.6301 C   0  0  0  0  0  0  0  0  0  0  0  0
  154.4081  138.4009  189.4721 C   0  0  0  0  0  0  0  0  0  0  0  0
  155.0096  138.7448  190.6752 C   0  0  0  0  0  0  0  0  0  0  0  0
  156.2352  138.2332  191.0490 C   0  0  0  0  0  0  0  0  0  0  0  0
  156.8862  137.3504  190.2000 C   0  0  0  0  0  0  0  0  0  0  0  0
  156.2912  137.0094  189.0080 C   0  0  0  0  0  0  0  0  0  0  0  0
  149.7348  136.1352  182.7819 S   0  0  0  0  0  0  0  0  0  0  0  0
  148.5788  138.6827  182.4213 N   0  0  0  0  0  0  0  0  0  0  0  0
  147.7456  139.5138  183.0541 C   0  0  0  0  0  0  0  0  0  0  0  0
  147.3738  138.9103  184.1913 N   0  0  0  0  0  0  0  0  0  0  0  0
  147.9597  137.7486  184.2535 N   0  0  0  0  0  0  0  0  0  0  0  0
  148.7169  137.5814  183.1625 C   0  0  0  0  0  0  0  0  0  0  0  0
  147.2127  137.8418  180.1245 C   0  0  0  0  0  0  0  0  0  0  0  0
  148.5380  138.5217  180.0372 C   0  0  0  0  0  0  0  0  0  0  0  0
  149.1325  138.7559  178.8162 C   0  0  0  0  0  0  0  0  0  0  0  0
  150.3680  139.3923  178.7645 C   0  0  0  0  0  0  0  0  0  0  0  0
  151.0347  139.8059  179.8960 C   0  0  0  0  0  0  0  0  0  0  0  0
  150.4446  139.5739  181.1189 C   0  0  0  0  0  0  0  0  0  0  0  0
  149.2050  138.9351  181.1691 C   0  0  0  0  0  0  0  0  0  0  0  0
 22 23  1  0  0  0
 23 24  2  0  0  0
 24 25  1  0  0  0
 25 26  2  0  0  0
 26 27  1  0  0  0
 27 28  2  0  0  0
 28 17  1  0  0  0
 17 18  1  0  0  0
 18 19  2  0  0  0
 19 20  1  0  0  0
 20 21  2  0  0  0
 21 16  1  0  0  0
 16  1  1  0  0  0
  1  2  1  0  0  0
  2  3  2  0  0  0
  2  4  1  0  0  0
  4  5  1  0  0  0
  5  6  1  0  0  0
  6  7  1  0  0  0
  7 10  1  0  0  0
 10 11  2  0  0  0
 11 12  1  0  0  0
 12 13  2  0  0  0
 13 14  1  0  0  0
 14 15  2  0  0  0
  7  8  1  0  0  0
  8  9  1  0  0  0
 28 23  1  0  0  0
 21 17  1  0  0  0
  9  4  1  0  0  0
 15 10  1  0  0  0
M  END
> <minimizedAffinity>
-6.50143

> <CNNscore>
0.3911745250

> <CNNaffinity>
5.3259873390

> <CNN_VS>
2.0833904743

> <CNNaffinity_variance>
0.0498106368

$$$$
[H]c1c([H])c([H])c(N2C([H])([H])C([H])([H])N(C(=O)C([H])([H])Sc3nnc([H])n3-c3c([H])c([H])c([H])c([H])c3C([H])([H])[H])C([H])([H])C2([H])[H])c([H])c1[H]


 28 31  0  0  0  0  0  0  0  0999 V2000
  154.2133  139.4517  185.0291 C   0  0  0  0  0  0  0  0  0  0  0  0
  153.8705  138.0506  185.3423 C   0  0  0  0  0  0  0  0  0  0  0  0
  153.0074  137.4623  184.6540 O   0  0  0  0  0  0  0  0  0  0  0  0
  154.4991  137.3615  186.4036 N   0  0  0  0  0  0  0  0  0  0  0  0
  155.4734  138.0390  187.2039 C   0  0  0  0  0  0  0  0  0  0  0  0
  156.0724  137.1554  188.2811 C   0  0  0  0  0  0  0  0  0  0  0  0
  156.3241  135.8211  187.7915 N   0  0  0  0  0  0  0  0  0  0  0  0
  155.5285  135.2380  186.7127 C   0  0  0  0  0  0  0  0  0  0  0  0
  154.1847  135.9803  186.7020 C   0  0  0  0  0  0  0  0  0  0  0  0
  157.3530  135.0514  188.3646 C   0  0  0  0  0  0  0  0  0  0  0  0
  158.5324  134.8482  187.6939 C   0  0  0  0  0  0  0  0  0  0  0  0
  159.5221  134.0753  188.2861 C   0  0  0  0  0  0  0  0  0  0  0  0
  159.3535  133.5056  189.5312 C   0  0  0  0  0  0  0  0  0  0  0  0
  158.1622  133.7096  190.2119 C   0  0  0  0  0  0  0  0  0  0  0  0
  157.1814  134.4749  189.6260 C   0  0  0  0  0  0  0  0  0  0  0  0
  154.4393  139.7068  183.2437 S   0  0  0  0  0  0  0  0  0  0  0  0
  155.9018  142.1041  182.9779 N   0  0  0  0  0  0  0  0  0  0  0  0
  155.6928  143.3871  182.6688 C   0  0  0  0  0  0  0  0  0  0  0  0
  154.3843  143.5240  182.4141 N   0  0  0  0  0  0  0  0  0  0  0  0
  153.8107  142.3640  182.5626 N   0  0  0  0  0  0  0  0  0  0  0  0
  154.7341  141.4610  182.9139 C   0  0  0  0  0  0  0  0  0  0  0  0
  157.6036  141.4404  180.8536 C   0  0  0  0  0  0  0  0  0  0  0  0
  157.9982  141.1992  182.2722 C   0  0  0  0  0  0  0  0  0  0  0  0
  159.2186  140.6382  182.5801 C   0  0  0  0  0  0  0  0  0  0  0  0
  159.5607  140.4253  183.9112 C   0  0  0  0  0  0  0  0  0  0  0  0
  158.7220  140.7552  184.9521 C   0  0  0  0  0  0  0  0  0  0  0  0
  157.5007  141.3161  184.6495 C   0  0  0  0  0  0  0  0  0  0  0  0
  157.1590  141.5289  183.3135 C   0  0  0  0  0  0  0  0  0  0  0  0
 22 23  1  0  0  0
 23 24  2  0  0  0
 24 25  1  0  0  0
 25 26  2  0  0  0
 26 27  1  0  0  0
 27 28  2  0  0  0
 28 17  1  0  0  0
 17 18  1  0  0  0
 18 19  2  0  0  0
 19 20  1  0  0  0
 20 21  2  0  0  0
 21 16  1  0  0  0
 16  1  1  0  0  0
  1  2  1  0  0  0
  2  3  2  0  0  0
  2  4  1  0  0  0
  4  5  1  0  0  0
  5  6  1  0  0  0
  6  7  1  0  0  0
  7 10  1  0  0  0
 10 11  2  0  0  0
 11 12  1  0  0  0
 12 13  2  0  0  0
 13 14  1  0  0  0
 14 15  2  0  0  0
  7  8  1  0  0  0
  8  9  1  0  0  0
 28 23  1  0  0  0
 21 17  1  0  0  0
  9  4  1  0  0  0
 15 10  1  0  0  0
M  END
> <minimizedAffinity>
-7.38285

> <CNNscore>
0.3766198754

> <CNNaffinity>
5.8224806786

> <CNN_VS>
2.1928620338

> <CNNaffinity_variance>
0.1371816099

$$$$
[H]c1c([H])c([H])c(N2C([H])([H])C([H])([H])N(C(=O)C([H])([H])Sc3nnc([H])n3-c3c([H])c([H])c([H])c([H])c3C([H])([H])[H])C([H])([H])C2([H])[H])c([H])c1[H]


 28 31  0  0  0  0  0  0  0  0999 V2000
  156.2604  139.6072  183.4427 C   0  0  0  0  0  0  0  0  0  0  0  0
  156.2138  139.2601  184.8767 C   0  0  0  0  0  0  0  0  0  0  0  0
  157.0072  139.8161  185.6679 O   0  0  0  0  0  0  0  0  0  0  0  0
  155.2899  138.3128  185.3722 N   0  0  0  0  0  0  0  0  0  0  0  0
  154.3939  137.6620  184.4653 C   0  0  0  0  0  0  0  0  0  0  0  0
  153.4503  136.6966  185.1564 C   0  0  0  0  0  0  0  0  0  0  0  0
  152.9680  137.2321  186.4070 N   0  0  0  0  0  0  0  0  0  0  0  0
  153.7561  138.1843  187.1875 C   0  0  0  0  0  0  0  0  0  0  0  0
  155.2229  137.9845  186.7804 C   0  0  0  0  0  0  0  0  0  0  0  0
  151.7136  136.8287  186.9000 C   0  0  0  0  0  0  0  0  0  0  0  0
  150.5574  137.2028  186.2630 C   0  0  0  0  0  0  0  0  0  0  0  0
  149.3368  136.7941  186.7832 C   0  0  0  0  0  0  0  0  0  0  0  0
  149.2530  136.0214  187.9230 C   0  0  0  0  0  0  0  0  0  0  0  0
  150.4202  135.6412  188.5688 C   0  0  0  0  0  0  0  0  0  0  0  0
  151.6297  136.0457  188.0544 C   0  0  0  0  0  0  0  0  0  0  0  0
  156.4569  141.3962  183.1890 S   0  0  0  0  0  0  0  0  0  0  0  0
  158.6895  142.1471  181.6371 N   0  0  0  0  0  0  0  0  0  0  0  0
  159.0451  142.2322  180.3519 C   0  0  0  0  0  0  0  0  0  0  0  0
  157.9959  141.8256  179.6241 N   0  0  0  0  0  0  0  0  0  0  0  0
  157.0299  141.5025  180.4358 N   0  0  0  0  0  0  0  0  0  0  0  0
  157.4357  141.6935  181.6969 C   0  0  0  0  0  0  0  0  0  0  0  0
  158.8351  144.8546  182.3417 C   0  0  0  0  0  0  0  0  0  0  0  0
  159.5906  143.8120  183.0957 C   0  0  0  0  0  0  0  0  0  0  0  0
  160.3878  144.1534  184.1666 C   0  0  0  0  0  0  0  0  0  0  0  0
  161.0802  143.1608  184.8517 C   0  0  0  0  0  0  0  0  0  0  0  0
  161.0038  141.8309  184.5031 C   0  0  0  0  0  0  0  0  0  0  0  0
  160.2083  141.4845  183.4332 C   0  0  0  0  0  0  0  0  0  0  0  0
  159.5143  142.4817  182.7467 C   0  0  0  0  0  0  0  0  0  0  0  0
 22 23  1  0  0  0
 23 24  2  0  0  0
 24 25  1  0  0  0
 25 26  2  0  0  0
 26 27  1  0  0  0
 27 28  2  0  0  0
 28 17  1  0  0  0
 17 18  1  0  0  0
 18 19  2  0  0  0
 19 20  1  0  0  0
 20 21  2  0  0  0
 21 16  1  0  0  0
 16  1  1  0  0  0
  1  2  1  0  0  0
  2  3  2  0  0  0
  2  4  1  0  0  0
  4  5  1  0  0  0
  5  6  1  0  0  0
  6  7  1  0  0  0
  7 10  1  0  0  0
 10 11  2  0  0  0
 11 12  1  0  0  0
 12 13  2  0  0  0
 13 14  1  0  0  0
 14 15  2  0  0  0
  7  8  1  0  0  0
  8  9  1  0  0  0
 28 23  1  0  0  0
 21 17  1  0  0  0
  9  4  1  0  0  0
 15 10  1  0  0  0
M  END
> <minimizedAffinity>
-7.26307

> <CNNscore>
0.3639562726

> <CNNaffinity>
6.0525045395

> <CNN_VS>
2.2028470039

> <CNNaffinity_variance>
0.0216740351

$$$$
[H]c1c([H])c([H])c(N2C([H])([H])C([H])([H])N(C(=O)C([H])([H])Sc3nnc([H])n3-c3c([H])c([H])c([H])c([H])c3C([H])([H])[H])C([H])([H])C2([H])[H])c([H])c1[H]


 28 31  0  0  0  0  0  0  0  0999 V2000
  155.2725  140.5706  183.6659 C   0  0  0  0  0  0  0  0  0  0  0  0
  154.0605  140.5942  182.8237 C   0  0  0  0  0  0  0  0  0  0  0  0
  153.8271  141.5972  182.1136 O   0  0  0  0  0  0  0  0  0  0  0  0
  153.1599  139.5056  182.8038 N   0  0  0  0  0  0  0  0  0  0  0  0
  153.4158  138.3650  183.6298 C   0  0  0  0  0  0  0  0  0  0  0  0
  152.3730  137.2750  183.4731 C   0  0  0  0  0  0  0  0  0  0  0  0
  151.9839  137.1095  182.0930 N   0  0  0  0  0  0  0  0  0  0  0  0
  152.0466  138.2171  181.1411 C   0  0  0  0  0  0  0  0  0  0  0  0
  151.9816  139.5122  181.9631 C   0  0  0  0  0  0  0  0  0  0  0  0
  151.5244  135.8577  181.6442 C   0  0  0  0  0  0  0  0  0  0  0  0
  152.3305  134.7497  181.7133 C   0  0  0  0  0  0  0  0  0  0  0  0
  151.8471  133.5326  181.2525 C   0  0  0  0  0  0  0  0  0  0  0  0
  150.5779  133.4051  180.7269 C   0  0  0  0  0  0  0  0  0  0  0  0
  149.7604  134.5235  180.6562 C   0  0  0  0  0  0  0  0  0  0  0  0
  150.2385  135.7296  181.1123 C   0  0  0  0  0  0  0  0  0  0  0  0
  156.2828  142.0636  183.4341 S   0  0  0  0  0  0  0  0  0  0  0  0
  158.6436  142.1245  181.8913 N   0  0  0  0  0  0  0  0  0  0  0  0
  159.0460  141.8486  180.6474 C   0  0  0  0  0  0  0  0  0  0  0  0
  157.9730  141.4139  179.9724 N   0  0  0  0  0  0  0  0  0  0  0  0
  156.9476  141.4235  180.7755 N   0  0  0  0  0  0  0  0  0  0  0  0
  157.3378  141.8622  181.9783 C   0  0  0  0  0  0  0  0  0  0  0  0
  158.8682  144.9053  182.1469 C   0  0  0  0  0  0  0  0  0  0  0  0
  159.5880  143.9779  183.0678 C   0  0  0  0  0  0  0  0  0  0  0  0
  160.3903  144.4659  184.0764 C   0  0  0  0  0  0  0  0  0  0  0  0
  161.0489  143.5784  184.9207 C   0  0  0  0  0  0  0  0  0  0  0  0
  160.9337  142.2124  184.7926 C   0  0  0  0  0  0  0  0  0  0  0  0
  160.1331  141.7196  183.7858 C   0  0  0  0  0  0  0  0  0  0  0  0
  159.4730  142.6113  182.9395 C   0  0  0  0  0  0  0  0  0  0  0  0
 22 23  1  0  0  0
 23 24  2  0  0  0
 24 25  1  0  0  0
 25 26  2  0  0  0
 26 27  1  0  0  0
 27 28  2  0  0  0
 28 17  1  0  0  0
 17 18  1  0  0  0
 18 19  2  0  0  0
 19 20  1  0  0  0
 20 21  2  0  0  0
 21 16  1  0  0  0
 16  1  1  0  0  0
  1  2  1  0  0  0
  2  3  2  0  0  0
  2  4  1  0  0  0
  4  5  1  0  0  0
  5  6  1  0  0  0
  6  7  1  0  0  0
  7 10  1  0  0  0
 10 11  2  0  0  0
 11 12  1  0  0  0
 12 13  2  0  0  0
 13 14  1  0  0  0
 14 15  2  0  0  0
  7  8  1  0  0  0
  8  9  1  0  0  0
 28 23  1  0  0  0
 21 17  1  0  0  0
  9  4  1  0  0  0
 15 10  1  0  0  0
M  END
> <minimizedAffinity>
-7.91595

> <CNNscore>
0.3564548790

> <CNNaffinity>
6.0587625504

> <CNN_VS>
2.1596753597

> <CNNaffinity_variance>
0.1514733285

$$$$
[H]c1c([H])c([H])c(N2C([H])([H])C([H])([H])N(C(=O)C([H])([H])Sc3nnc([H])n3-c3c([H])c([H])c([H])c([H])c3C([H])([H])[H])C([H])([H])C2([H])[H])c([H])c1[H]


 28 31  0  0  0  0  0  0  0  0999 V2000
  154.7616  141.5144  183.4333 C   0  0  0  0  0  0  0  0  0  0  0  0
  154.1074  140.2796  182.9579 C   0  0  0  0  0  0  0  0  0  0  0  0
  153.8125  140.1693  181.7473 O   0  0  0  0  0  0  0  0  0  0  0  0
  153.8088  139.2201  183.8438 N   0  0  0  0  0  0  0  0  0  0  0  0
  154.1286  139.3522  185.2327 C   0  0  0  0  0  0  0  0  0  0  0  0
  153.7705  138.1208  186.0421 C   0  0  0  0  0  0  0  0  0  0  0  0
  154.0883  136.9074  185.3280 N   0  0  0  0  0  0  0  0  0  0  0  0
  154.0948  136.8575  183.8670 C   0  0  0  0  0  0  0  0  0  0  0  0
  153.1883  137.9970  183.3806 C   0  0  0  0  0  0  0  0  0  0  0  0
  154.3934  135.7363  186.0456 C   0  0  0  0  0  0  0  0  0  0  0  0
  154.5741  134.5426  185.3939 C   0  0  0  0  0  0  0  0  0  0  0  0
  154.8648  133.4052  186.1352 C   0  0  0  0  0  0  0  0  0  0  0  0
  154.9778  133.4412  187.5098 C   0  0  0  0  0  0  0  0  0  0  0  0
  154.7961  134.6468  188.1713 C   0  0  0  0  0  0  0  0  0  0  0  0
  154.5079  135.7737  187.4378 C   0  0  0  0  0  0  0  0  0  0  0  0
  156.5484  141.2810  183.6715 S   0  0  0  0  0  0  0  0  0  0  0  0
  158.6322  142.0139  181.9173 N   0  0  0  0  0  0  0  0  0  0  0  0
  158.8928  142.0283  180.6069 C   0  0  0  0  0  0  0  0  0  0  0  0
  157.8137  141.5348  179.9842 N   0  0  0  0  0  0  0  0  0  0  0  0
  156.9217  141.2288  180.8826 N   0  0  0  0  0  0  0  0  0  0  0  0
  157.4063  141.5174  182.0965 C   0  0  0  0  0  0  0  0  0  0  0  0
  158.7372  144.7691  182.4139 C   0  0  0  0  0  0  0  0  0  0  0  0
  159.5741  143.8059  183.1873 C   0  0  0  0  0  0  0  0  0  0  0  0
  160.4292  144.2471  184.1738 C   0  0  0  0  0  0  0  0  0  0  0  0
  161.1971  143.3270  184.8794 C   0  0  0  0  0  0  0  0  0  0  0  0
  161.1405  141.9734  184.6334 C   0  0  0  0  0  0  0  0  0  0  0  0
  160.2874  141.5274  183.6481 C   0  0  0  0  0  0  0  0  0  0  0  0
  159.5177  142.4519  182.9409 C   0  0  0  0  0  0  0  0  0  0  0  0
 22 23  1  0  0  0
 23 24  2  0  0  0
 24 25  1  0  0  0
 25 26  2  0  0  0
 26 27  1  0  0  0
 27 28  2  0  0  0
 28 17  1  0  0  0
 17 18  1  0  0  0
 18 19  2  0  0  0
 19 20  1  0  0  0
 20 21  2  0  0  0
 21 16  1  0  0  0
 16  1  1  0  0  0
  1  2  1  0  0  0
  2  3  2  0  0  0
  2  4  1  0  0  0
  4  5  1  0  0  0
  5  6  1  0  0  0
  6  7  1  0  0  0
  7 10  1  0  0  0
 10 11  2  0  0  0
 11 12  1  0  0  0
 12 13  2  0  0  0
 13 14  1  0  0  0
 14 15  2  0  0  0
  7  8  1  0  0  0
  8  9  1  0  0  0
 28 23  1  0  0  0
 21 17  1  0  0  0
  9  4  1  0  0  0
 15 10  1  0  0  0
M  END
> <minimizedAffinity>
-7.57676

> <CNNscore>
0.3090803623

> <CNNaffinity>
6.3054580688

> <CNN_VS>
1.9488933086

> <CNNaffinity_variance>
0.0272540208

$$$$
[H]OC(C([H])([H])[H])(C([H])([H])[H])C([H])([H])C([H])([H])N([H])S(=O)(=O)c1c([H])c([H])c(C([H])([H])[H])c(-c2c([H])nc(N([H])[H])c(-c3onc(C([H])([H])[H])c3[H])c2[H])c1[H]


 34 36  0  0  0  0  0  0  0  0999 V2000
  155.9019  139.5331  183.9390 C   0  0  0  0  0  0  0  0  0  0  0  0
  155.7537  138.4352  184.7948 C   0  0  0  0  0  0  0  0  0  0  0  0
  154.5116  137.9401  185.1319 C   0  0  0  0  0  0  0  0  0  0  0  0
  153.3752  138.5202  184.6292 C   0  0  0  0  0  0  0  0  0  0  0  0
  153.4935  139.6020  183.7844 C   0  0  0  0  0  0  0  0  0  0  0  0
  154.7638  140.1038  183.4427 C   0  0  0  0  0  0  0  0  0  0  0  0
  154.8643  141.2607  182.5134 C   0  0  0  0  0  0  0  0  0  0  0  0
  159.2263  141.1854  184.2475 C   0  0  0  0  0  0  0  0  0  0  0  0
  157.9643  140.6788  184.5902 C   0  0  0  0  0  0  0  0  0  0  0  0
  157.2251  140.0509  183.6101 C   0  0  0  0  0  0  0  0  0  0  0  0
  157.7628  139.9526  182.3416 C   0  0  0  0  0  0  0  0  0  0  0  0
  158.9684  140.4410  182.0307 N   0  0  0  0  0  0  0  0  0  0  0  0
  159.7120  141.0645  182.9887 C   0  0  0  0  0  0  0  0  0  0  0  0
  160.9787  141.5649  182.6163 N   0  0  0  0  0  0  0  0  0  0  0  0
  161.1300  142.5293  182.2402 H   0  0  0  0  0  0  0  0  0  0  0  0
  161.8204  140.9706  182.7086 H   0  0  0  0  0  0  0  0  0  0  0  0
  162.7705  143.1832  187.2805 C   0  0  0  0  0  0  0  0  0  0  0  0
  161.4783  142.7244  186.6871 C   0  0  0  0  0  0  0  0  0  0  0  0
  161.2987  142.0584  185.4595 C   0  0  0  0  0  0  0  0  0  0  0  0
  159.9619  141.8419  185.3368 C   0  0  0  0  0  0  0  0  0  0  0  0
  159.3719  142.3417  186.4145 O   0  0  0  0  0  0  0  0  0  0  0  0
  160.2473  142.8492  187.1904 N   0  0  0  0  0  0  0  0  0  0  0  0
  154.3924  136.5530  186.2160 S   0  0  0  0  0  0  0  0  0  0  0  0
  153.0526  136.6547  186.9081 O   0  0  0  0  0  0  0  0  0  0  0  0
  154.5102  135.2992  185.4240 O   0  0  0  0  0  0  0  0  0  0  0  0
  155.6038  136.7186  187.4034 N   0  0  0  0  0  0  0  0  0  0  0  0
  156.5217  136.8685  186.8905 H   0  0  0  0  0  0  0  0  0  0  0  0
  155.3590  137.8280  188.3024 C   0  0  0  0  0  0  0  0  0  0  0  0
  156.3111  137.8559  189.4535 C   0  0  0  0  0  0  0  0  0  0  0  0
  155.6447  137.7314  190.7828 C   0  0  0  0  0  0  0  0  0  0  0  0
  155.0422  138.9937  191.3089 C   0  0  0  0  0  0  0  0  0  0  0  0
  154.5667  136.6786  190.6940 C   0  0  0  0  0  0  0  0  0  0  0  0
  156.5757  137.2788  191.7198 O   0  0  0  0  0  0  0  0  0  0  0  0
  156.1773  136.6604  192.3645 H   0  0  0  0  0  0  0  0  0  0  0  0
 17 18  1  0  0  0
 18 19  1  0  0  0
 19 20  2  0  0  0
 20  8  1  0  0  0
  8  9  2  0  0  0
  9 10  1  0  0  0
 10  1  1  0  0  0
  1  2  2  0  0  0
  2  3  1  0  0  0
  3 23  1  0  0  0
 23 24  2  0  0  0
 23 25  2  0  0  0
 23 26  1  0  0  0
 26 28  1  0  0  0
 28 29  1  0  0  0
 29 30  1  0  0  0
 30 31  1  0  0  0
 30 32  1  0  0  0
 30 33  1  0  0  0
  3  4  2  0  0  0
  4  5  1  0  0  0
  5  6  2  0  0  0
  6  7  1  0  0  0
 10 11  2  0  0  0
 11 12  1  0  0  0
 12 13  2  0  0  0
 13 14  1  0  0  0
 20 21  1  0  0  0
 21 22  1  0  0  0
 22 18  2  0  0  0
 13  8  1  0  0  0
  6  1  1  0  0  0
 26 27  1  0  0  0
 33 34  1  0  0  0
 14 15  1  0  0  0
 14 16  1  0  0  0
M  END
> <minimizedAffinity>
-8.12829

> <CNNscore>
0.3405966759

> <CNNaffinity>
6.4361534119

> <CNN_VS>
2.1921324730

> <CNNaffinity_variance>
0.1304975748

$$$$
[H]OC(C([H])([H])[H])(C([H])([H])[H])C([H])([H])C([H])([H])N([H])S(=O)(=O)c1c([H])c([H])c(C([H])([H])[H])c(-c2c([H])nc(N([H])[H])c(-c3onc(C([H])([H])[H])c3[H])c2[H])c1[H]


 34 36  0  0  0  0  0  0  0  0999 V2000
  154.0810  139.6892  183.7037 C   0  0  0  0  0  0  0  0  0  0  0  0
  154.3066  139.0325  184.9193 C   0  0  0  0  0  0  0  0  0  0  0  0
  153.5806  137.9198  185.2888 C   0  0  0  0  0  0  0  0  0  0  0  0
  152.6059  137.4230  184.4620 C   0  0  0  0  0  0  0  0  0  0  0  0
  152.3643  138.0507  183.2597 C   0  0  0  0  0  0  0  0  0  0  0  0
  153.1083  139.1862  182.8865 C   0  0  0  0  0  0  0  0  0  0  0  0
  152.8405  139.8337  181.5744 C   0  0  0  0  0  0  0  0  0  0  0  0
  156.9370  142.0154  183.1477 C   0  0  0  0  0  0  0  0  0  0  0  0
  156.2201  140.8582  183.4847 C   0  0  0  0  0  0  0  0  0  0  0  0
  154.8488  140.8750  183.3413 C   0  0  0  0  0  0  0  0  0  0  0  0
  154.2501  142.0289  182.8741 C   0  0  0  0  0  0  0  0  0  0  0  0
  154.9481  143.1246  182.5568 N   0  0  0  0  0  0  0  0  0  0  0  0
  156.3050  143.1239  182.6928 C   0  0  0  0  0  0  0  0  0  0  0  0
  157.0015  144.3022  182.3461 N   0  0  0  0  0  0  0  0  0  0  0  0
  157.1947  145.0776  183.0213 H   0  0  0  0  0  0  0  0  0  0  0  0
  157.3516  144.4348  181.3818 H   0  0  0  0  0  0  0  0  0  0  0  0
  161.7025  142.2590  184.8745 C   0  0  0  0  0  0  0  0  0  0  0  0
  160.4857  142.0201  184.0409 C   0  0  0  0  0  0  0  0  0  0  0  0
  159.1530  142.3222  184.3810 C   0  0  0  0  0  0  0  0  0  0  0  0
  158.3932  141.9314  183.3231 C   0  0  0  0  0  0  0  0  0  0  0  0
  159.2081  141.4274  182.4057 O   0  0  0  0  0  0  0  0  0  0  0  0
  160.4123  141.4798  182.8216 N   0  0  0  0  0  0  0  0  0  0  0  0
  153.9136  137.1374  186.8349 S   0  0  0  0  0  0  0  0  0  0  0  0
  153.1934  137.9404  187.8937 O   0  0  0  0  0  0  0  0  0  0  0  0
  153.4321  135.7306  186.7871 O   0  0  0  0  0  0  0  0  0  0  0  0
  155.5866  137.2693  187.1321 N   0  0  0  0  0  0  0  0  0  0  0  0
  156.0161  137.7384  186.2815 H   0  0  0  0  0  0  0  0  0  0  0  0
  155.8852  138.0428  188.3203 C   0  0  0  0  0  0  0  0  0  0  0  0
  156.4824  137.2141  189.4106 C   0  0  0  0  0  0  0  0  0  0  0  0
  155.6640  137.1890  190.6580 C   0  0  0  0  0  0  0  0  0  0  0  0
  156.2929  136.4790  191.8129 C   0  0  0  0  0  0  0  0  0  0  0  0
  155.3544  138.6077  191.0699 C   0  0  0  0  0  0  0  0  0  0  0  0
  154.4414  136.5700  190.3898 O   0  0  0  0  0  0  0  0  0  0  0  0
  153.7029  136.9893  190.8752 H   0  0  0  0  0  0  0  0  0  0  0  0
 17 18  1  0  0  0
 18 19  1  0  0  0
 19 20  2  0  0  0
 20  8  1  0  0  0
  8  9  2  0  0  0
  9 10  1  0  0  0
 10  1  1  0  0  0
  1  2  2  0  0  0
  2  3  1  0  0  0
  3 23  1  0  0  0
 23 24  2  0  0  0
 23 25  2  0  0  0
 23 26  1  0  0  0
 26 28  1  0  0  0
 28 29  1  0  0  0
 29 30  1  0  0  0
 30 31  1  0  0  0
 30 32  1  0  0  0
 30 33  1  0  0  0
  3  4  2  0  0  0
  4  5  1  0  0  0
  5  6  2  0  0  0
  6  7  1  0  0  0
 10 11  2  0  0  0
 11 12  1  0  0  0
 12 13  2  0  0  0
 13 14  1  0  0  0
 20 21  1  0  0  0
 21 22  1  0  0  0
 22 18  2  0  0  0
 13  8  1  0  0  0
  6  1  1  0  0  0
 26 27  1  0  0  0
 33 34  1  0  0  0
 14 15  1  0  0  0
 14 16  1  0  0  0
M  END
> <minimizedAffinity>
-8.24672

> <CNNscore>
0.2761209905

> <CNNaffinity>
6.3373270035

> <CNN_VS>
1.7498689890

> <CNNaffinity_variance>
0.0683358461

$$$$
[H]OC(C([H])([H])[H])(C([H])([H])[H])C([H])([H])C([H])([H])N([H])S(=O)(=O)c1c([H])c([H])c(C([H])([H])[H])c(-c2c([H])nc(N([H])[H])c(-c3onc(C([H])([H])[H])c3[H])c2[H])c1[H]


 34 36  0  0  0  0  0  0  0  0999 V2000
  155.8087  139.1736  185.1007 C   0  0  0  0  0  0  0  0  0  0  0  0
  156.2520  138.4488  186.2134 C   0  0  0  0  0  0  0  0  0  0  0  0
  155.3713  137.8183  187.0668 C   0  0  0  0  0  0  0  0  0  0  0  0
  154.0202  137.8874  186.8425 C   0  0  0  0  0  0  0  0  0  0  0  0
  153.5579  138.5942  185.7540 C   0  0  0  0  0  0  0  0  0  0  0  0
  154.4609  139.2360  184.8852 C   0  0  0  0  0  0  0  0  0  0  0  0
  153.9364  139.9765  183.7067 C   0  0  0  0  0  0  0  0  0  0  0  0
  158.7946  141.0491  183.8989 C   0  0  0  0  0  0  0  0  0  0  0  0
  157.9051  140.3897  184.7596 C   0  0  0  0  0  0  0  0  0  0  0  0
  156.7574  139.8472  184.2214 C   0  0  0  0  0  0  0  0  0  0  0  0
  156.5407  139.9801  182.8636 C   0  0  0  0  0  0  0  0  0  0  0  0
  157.3992  140.6119  182.0559 N   0  0  0  0  0  0  0  0  0  0  0  0
  158.5388  141.1536  182.5728 C   0  0  0  0  0  0  0  0  0  0  0  0
  159.4166  141.8114  181.6835 N   0  0  0  0  0  0  0  0  0  0  0  0
  159.3474  142.8295  181.4527 H   0  0  0  0  0  0  0  0  0  0  0  0
  160.1779  141.2861  181.2205 H   0  0  0  0  0  0  0  0  0  0  0  0
  162.1265  143.2723  187.0145 C   0  0  0  0  0  0  0  0  0  0  0  0
  161.4812  142.5655  185.8670 C   0  0  0  0  0  0  0  0  0  0  0  0
  160.1189  142.2352  185.7333 C   0  0  0  0  0  0  0  0  0  0  0  0
  159.9971  141.6037  184.5352 C   0  0  0  0  0  0  0  0  0  0  0  0
  161.2012  141.5544  183.9811 O   0  0  0  0  0  0  0  0  0  0  0  0
  162.0539  142.1089  184.7500 N   0  0  0  0  0  0  0  0  0  0  0  0
  155.9940  136.9202  188.4522 S   0  0  0  0  0  0  0  0  0  0  0  0
  154.9296  135.9180  188.8359 O   0  0  0  0  0  0  0  0  0  0  0  0
  157.2683  136.2531  188.0724 O   0  0  0  0  0  0  0  0  0  0  0  0
  156.1647  138.0168  189.7456 N   0  0  0  0  0  0  0  0  0  0  0  0
  155.5655  138.8631  189.5152 H   0  0  0  0  0  0  0  0  0  0  0  0
  155.7500  137.4548  191.0149 C   0  0  0  0  0  0  0  0  0  0  0  0
  154.4449  138.0066  191.4890 C   0  0  0  0  0  0  0  0  0  0  0  0
  153.4165  136.9595  191.7585 C   0  0  0  0  0  0  0  0  0  0  0  0
  153.9566  135.6512  192.2380 C   0  0  0  0  0  0  0  0  0  0  0  0
  152.4378  137.4852  192.7802 C   0  0  0  0  0  0  0  0  0  0  0  0
  152.6912  136.7203  190.5896 O   0  0  0  0  0  0  0  0  0  0  0  0
  151.7453  136.5508  190.7722 H   0  0  0  0  0  0  0  0  0  0  0  0
 17 18  1  0  0  0
 18 19  1  0  0  0
 19 20  2  0  0  0
 20  8  1  0  0  0
  8  9  2  0  0  0
  9 10  1  0  0  0
 10  1  1  0  0  0
  1  2  2  0  0  0
  2  3  1  0  0  0
  3 23  1  0  0  0
 23 24  2  0  0  0
 23 25  2  0  0  0
 23 26  1  0  0  0
 26 28  1  0  0  0
 28 29  1  0  0  0
 29 30  1  0  0  0
 30 31  1  0  0  0
 30 32  1  0  0  0
 30 33  1  0  0  0
  3  4  2  0  0  0
  4  5  1  0  0  0
  5  6  2  0  0  0
  6  7  1  0  0  0
 10 11  2  0  0  0
 11 12  1  0  0  0
 12 13  2  0  0  0
 13 14  1  0  0  0
 20 21  1  0  0  0
 21 22  1  0  0  0
 22 18  2  0  0  0
 13  8  1  0  0  0
  6  1  1  0  0  0
 26 27  1  0  0  0
 33 34  1  0  0  0
 14 15  1  0  0  0
 14 16  1  0  0  0
M  END
> <minimizedAffinity>
-8.82670

> <CNNscore>
0.2453684211

> <CNNaffinity>
6.1314144135

> <CNN_VS>
1.5044554472

> <CNNaffinity_variance>
0.1547726393

$$$$
[H]OC(C([H])([H])[H])(C([H])([H])[H])C([H])([H])C([H])([H])N([H])S(=O)(=O)c1c([H])c([H])c(C([H])([H])[H])c(-c2c([H])nc(N([H])[H])c(-c3onc(C([H])([H])[H])c3[H])c2[H])c1[H]


 34 36  0  0  0  0  0  0  0  0999 V2000
  155.6341  140.5167  183.2937 C   0  0  0  0  0  0  0  0  0  0  0  0
  154.5189  140.3837  182.4579 C   0  0  0  0  0  0  0  0  0  0  0  0
  153.5972  139.3731  182.6328 C   0  0  0  0  0  0  0  0  0  0  0  0
  153.7536  138.4608  183.6447 C   0  0  0  0  0  0  0  0  0  0  0  0
  154.8425  138.5697  184.4816 C   0  0  0  0  0  0  0  0  0  0  0  0
  155.7807  139.6035  184.2993 C   0  0  0  0  0  0  0  0  0  0  0  0
  156.9372  139.7098  185.2287 C   0  0  0  0  0  0  0  0  0  0  0  0
  158.7449  142.5559  183.4984 C   0  0  0  0  0  0  0  0  0  0  0  0
  157.8327  141.5108  183.7039 C   0  0  0  0  0  0  0  0  0  0  0  0
  156.6057  141.5831  183.0791 C   0  0  0  0  0  0  0  0  0  0  0  0
  156.3359  142.6796  182.2835 C   0  0  0  0  0  0  0  0  0  0  0  0
  157.2169  143.6684  182.0974 N   0  0  0  0  0  0  0  0  0  0  0  0
  158.4348  143.6116  182.7081 C   0  0  0  0  0  0  0  0  0  0  0  0
  159.3337  144.6771  182.4836 N   0  0  0  0  0  0  0  0  0  0  0  0
  159.3667  145.5384  183.0766 H   0  0  0  0  0  0  0  0  0  0  0  0
  160.0071  144.6332  181.6996 H   0  0  0  0  0  0  0  0  0  0  0  0
  162.6062  142.7670  186.7843 C   0  0  0  0  0  0  0  0  0  0  0  0
  161.7405  142.4870  185.5991 C   0  0  0  0  0  0  0  0  0  0  0  0
  160.4087  142.9016  185.4057 C   0  0  0  0  0  0  0  0  0  0  0  0
  160.0327  142.4176  184.1919 C   0  0  0  0  0  0  0  0  0  0  0  0
  161.0641  141.7557  183.6846 O   0  0  0  0  0  0  0  0  0  0  0  0
  162.0462  141.7972  184.4969 N   0  0  0  0  0  0  0  0  0  0  0  0
  152.2126  139.2601  181.5449 S   0  0  0  0  0  0  0  0  0  0  0  0
  151.7357  140.6730  181.2984 O   0  0  0  0  0  0  0  0  0  0  0  0
  152.6322  138.5918  180.2838 O   0  0  0  0  0  0  0  0  0  0  0  0
  150.9730  138.4303  182.3692 N   0  0  0  0  0  0  0  0  0  0  0  0
  150.2311  139.1489  182.6171 H   0  0  0  0  0  0  0  0  0  0  0  0
  150.3829  137.3722  181.5748 C   0  0  0  0  0  0  0  0  0  0  0  0
  148.9083  137.5380  181.4009 C   0  0  0  0  0  0  0  0  0  0  0  0
  148.5383  138.6097  180.4308 C   0  0  0  0  0  0  0  0  0  0  0  0
  149.2266  138.5293  179.1068 C   0  0  0  0  0  0  0  0  0  0  0  0
  147.0462  138.5734  180.2058 C   0  0  0  0  0  0  0  0  0  0  0  0
  148.8325  139.8543  180.9911 O   0  0  0  0  0  0  0  0  0  0  0  0
  148.1658  140.5302  180.7556 H   0  0  0  0  0  0  0  0  0  0  0  0
 17 18  1  0  0  0
 18 19  1  0  0  0
 19 20  2  0  0  0
 20  8  1  0  0  0
  8  9  2  0  0  0
  9 10  1  0  0  0
 10  1  1  0  0  0
  1  2  2  0  0  0
  2  3  1  0  0  0
  3 23  1  0  0  0
 23 24  2  0  0  0
 23 25  2  0  0  0
 23 26  1  0  0  0
 26 28  1  0  0  0
 28 29  1  0  0  0
 29 30  1  0  0  0
 30 31  1  0  0  0
 30 32  1  0  0  0
 30 33  1  0  0  0
  3  4  2  0  0  0
  4  5  1  0  0  0
  5  6  2  0  0  0
  6  7  1  0  0  0
 10 11  2  0  0  0
 11 12  1  0  0  0
 12 13  2  0  0  0
 13 14  1  0  0  0
 20 21  1  0  0  0
 21 22  1  0  0  0
 22 18  2  0  0  0
 13  8  1  0  0  0
  6  1  1  0  0  0
 26 27  1  0  0  0
 33 34  1  0  0  0
 14 15  1  0  0  0
 14 16  1  0  0  0
M  END
> <minimizedAffinity>
-8.71246

> <CNNscore>
0.2216105014

> <CNNaffinity>
6.1646647453

> <CNN_VS>
1.3661544323

> <CNNaffinity_variance>
0.1698421389

$$$$
[H]OC(C([H])([H])[H])(C([H])([H])[H])C([H])([H])C([H])([H])N([H])S(=O)(=O)c1c([H])c([H])c(C([H])([H])[H])c(-c2c([H])nc(N([H])[H])c(-c3onc(C([H])([H])[H])c3[H])c2[H])c1[H]


 34 36  0  0  0  0  0  0  0  0999 V2000
  155.7807  140.5365  183.3867 C   0  0  0  0  0  0  0  0  0  0  0  0
  154.6588  140.4068  182.5594 C   0  0  0  0  0  0  0  0  0  0  0  0
  153.7401  139.3937  182.7358 C   0  0  0  0  0  0  0  0  0  0  0  0
  153.9061  138.4756  183.7408 C   0  0  0  0  0  0  0  0  0  0  0  0
  155.0018  138.5811  184.5693 C   0  0  0  0  0  0  0  0  0  0  0  0
  155.9370  139.6173  184.3856 C   0  0  0  0  0  0  0  0  0  0  0  0
  157.1009  139.7197  185.3060 C   0  0  0  0  0  0  0  0  0  0  0  0
  158.8805  142.5917  183.5976 C   0  0  0  0  0  0  0  0  0  0  0  0
  157.9716  141.5440  183.8049 C   0  0  0  0  0  0  0  0  0  0  0  0
  156.7489  141.6055  183.1707 C   0  0  0  0  0  0  0  0  0  0  0  0
  156.4799  142.6943  182.3643 C   0  0  0  0  0  0  0  0  0  0  0  0
  157.3576  143.6857  182.1766 N   0  0  0  0  0  0  0  0  0  0  0  0
  158.5713  143.6395  182.7966 C   0  0  0  0  0  0  0  0  0  0  0  0
  159.4669  144.7074  182.5700 N   0  0  0  0  0  0  0  0  0  0  0  0
  159.4916  145.5735  183.1562 H   0  0  0  0  0  0  0  0  0  0  0  0
  160.1461  144.6603  181.7913 H   0  0  0  0  0  0  0  0  0  0  0  0
  162.6971  142.7942  186.9358 C   0  0  0  0  0  0  0  0  0  0  0  0
  161.8530  142.5323  185.7310 C   0  0  0  0  0  0  0  0  0  0  0  0
  160.5123  142.9161  185.5360 C   0  0  0  0  0  0  0  0  0  0  0  0
  160.1638  142.4650  184.3015 C   0  0  0  0  0  0  0  0  0  0  0  0
  161.2192  141.8504  183.7840 O   0  0  0  0  0  0  0  0  0  0  0  0
  162.1905  141.8906  184.6091 N   0  0  0  0  0  0  0  0  0  0  0  0
  152.3466  139.2852  181.6587 S   0  0  0  0  0  0  0  0  0  0  0  0
  151.7720  140.6788  181.5478 O   0  0  0  0  0  0  0  0  0  0  0  0
  152.7871  138.7636  180.3370 O   0  0  0  0  0  0  0  0  0  0  0  0
  151.1803  138.3019  182.4187 N   0  0  0  0  0  0  0  0  0  0  0  0
  151.0504  138.6800  183.4027 H   0  0  0  0  0  0  0  0  0  0  0  0
  149.9094  138.3011  181.7232 C   0  0  0  0  0  0  0  0  0  0  0  0
  148.8553  139.0700  182.4511 C   0  0  0  0  0  0  0  0  0  0  0  0
  147.8445  138.2049  183.1268 C   0  0  0  0  0  0  0  0  0  0  0  0
  147.2271  137.1571  182.2582 C   0  0  0  0  0  0  0  0  0  0  0  0
  148.4896  137.5333  184.3146 C   0  0  0  0  0  0  0  0  0  0  0  0
  146.8165  139.0076  183.6252 O   0  0  0  0  0  0  0  0  0  0  0  0
  146.4818  138.6840  184.4855 H   0  0  0  0  0  0  0  0  0  0  0  0
 17 18  1  0  0  0
 18 19  1  0  0  0
 19 20  2  0  0  0
 20  8  1  0  0  0
  8  9  2  0  0  0
  9 10  1  0  0  0
 10  1  1  0  0  0
  1  2  2  0  0  0
  2  3  1  0  0  0
  3 23  1  0  0  0
 23 24  2  0  0  0
 23 25  2  0  0  0
 23 26  1  0  0  0
 26 28  1  0  0  0
 28 29  1  0  0  0
 29 30  1  0  0  0
 30 31  1  0  0  0
 30 32  1  0  0  0
 30 33  1  0  0  0
  3  4  2  0  0  0
  4  5  1  0  0  0
  5  6  2  0  0  0
  6  7  1  0  0  0
 10 11  2  0  0  0
 11 12  1  0  0  0
 12 13  2  0  0  0
 13 14  1  0  0  0
 20 21  1  0  0  0
 21 22  1  0  0  0
 22 18  2  0  0  0
 13  8  1  0  0  0
  6  1  1  0  0  0
 26 27  1  0  0  0
 33 34  1  0  0  0
 14 15  1  0  0  0
 14 16  1  0  0  0
M  END
> <minimizedAffinity>
-8.31945

> <CNNscore>
0.2058640122

> <CNNaffinity>
6.2888603210

> <CNN_VS>
1.2946499586

> <CNNaffinity_variance>
0.1091938466

$$$$
[H]OC(C([H])([H])[H])(C([H])([H])[H])C([H])([H])C([H])([H])N([H])S(=O)(=O)c1c([H])c([H])c(C([H])([H])[H])c(-c2c([H])nc(N([H])[H])c(-c3onc(C([H])([H])[H])c3[H])c2[H])c1[H]


 34 36  0  0  0  0  0  0  0  0999 V2000
  154.9017  137.9525  185.8249 C   0  0  0  0  0  0  0  0  0  0  0  0
  155.1158  138.1259  187.1975 C   0  0  0  0  0  0  0  0  0  0  0  0
  154.7610  137.1597  188.1151 C   0  0  0  0  0  0  0  0  0  0  0  0
  154.1814  135.9887  187.6987 C   0  0  0  0  0  0  0  0  0  0  0  0
  153.9601  135.7931  186.3531 C   0  0  0  0  0  0  0  0  0  0  0  0
  154.3243  136.7822  185.4198 C   0  0  0  0  0  0  0  0  0  0  0  0
  154.0919  136.5378  183.9711 C   0  0  0  0  0  0  0  0  0  0  0  0
  156.8849  140.4986  183.9644 C   0  0  0  0  0  0  0  0  0  0  0  0
  156.5585  139.4831  184.8748 C   0  0  0  0  0  0  0  0  0  0  0  0
  155.2688  138.9955  184.8738 C   0  0  0  0  0  0  0  0  0  0  0  0
  154.3636  139.5305  183.9780 C   0  0  0  0  0  0  0  0  0  0  0  0
  154.6906  140.4990  183.1156 N   0  0  0  0  0  0  0  0  0  0  0  0
  155.9621  140.9918  183.1040 C   0  0  0  0  0  0  0  0  0  0  0  0
  156.2632  142.0136  182.1771 N   0  0  0  0  0  0  0  0  0  0  0  0
  156.1481  143.0325  182.3845 H   0  0  0  0  0  0  0  0  0  0  0  0
  156.6179  141.7736  181.2355 H   0  0  0  0  0  0  0  0  0  0  0  0
  161.3687  142.4371  185.3389 C   0  0  0  0  0  0  0  0  0  0  0  0
  160.2453  141.8109  184.5784 C   0  0  0  0  0  0  0  0  0  0  0  0
  158.9464  141.5438  185.0523 C   0  0  0  0  0  0  0  0  0  0  0  0
  158.2743  140.9733  184.0170 C   0  0  0  0  0  0  0  0  0  0  0  0
  159.1072  140.8993  182.9874 O   0  0  0  0  0  0  0  0  0  0  0  0
  160.2414  141.3823  183.3133 N   0  0  0  0  0  0  0  0  0  0  0  0
  155.0576  137.4393  189.8320 S   0  0  0  0  0  0  0  0  0  0  0  0
  156.4827  137.0147  190.1028 O   0  0  0  0  0  0  0  0  0  0  0  0
  154.8434  138.8790  190.1392 O   0  0  0  0  0  0  0  0  0  0  0  0
  154.0309  136.4007  190.7104 N   0  0  0  0  0  0  0  0  0  0  0  0
  154.6075  135.5504  190.9799 H   0  0  0  0  0  0  0  0  0  0  0  0
  153.4910  137.0233  191.9021 C   0  0  0  0  0  0  0  0  0  0  0  0
  152.0128  136.8441  192.0249 C   0  0  0  0  0  0  0  0  0  0  0  0
  151.6205  135.6117  192.7689 C   0  0  0  0  0  0  0  0  0  0  0  0
  152.3054  135.4216  194.0835 C   0  0  0  0  0  0  0  0  0  0  0  0
  150.1285  135.6305  192.9966 C   0  0  0  0  0  0  0  0  0  0  0  0
  151.8947  134.4940  191.9782 O   0  0  0  0  0  0  0  0  0  0  0  0
  151.2153  133.7975  192.0782 H   0  0  0  0  0  0  0  0  0  0  0  0
 17 18  1  0  0  0
 18 19  1  0  0  0
 19 20  2  0  0  0
 20  8  1  0  0  0
  8  9  2  0  0  0
  9 10  1  0  0  0
 10  1  1  0  0  0
  1  2  2  0  0  0
  2  3  1  0  0  0
  3 23  1  0  0  0
 23 24  2  0  0  0
 23 25  2  0  0  0
 23 26  1  0  0  0
 26 28  1  0  0  0
 28 29  1  0  0  0
 29 30  1  0  0  0
 30 31  1  0  0  0
 30 32  1  0  0  0
 30 33  1  0  0  0
  3  4  2  0  0  0
  4  5  1  0  0  0
  5  6  2  0  0  0
  6  7  1  0  0  0
 10 11  2  0  0  0
 11 12  1  0  0  0
 12 13  2  0  0  0
 13 14  1  0  0  0
 20 21  1  0  0  0
 21 22  1  0  0  0
 22 18  2  0  0  0
 13  8  1  0  0  0
  6  1  1  0  0  0
 26 27  1  0  0  0
 33 34  1  0  0  0
 14 15  1  0  0  0
 14 16  1  0  0  0
M  END
> <minimizedAffinity>
-7.50941

> <CNNscore>
0.1964694858

> <CNNaffinity>
5.8100166321

> <CNN_VS>
1.1414909363

> <CNNaffinity_variance>
0.1516111642

$$$$
[H]OC(C([H])([H])[H])(C([H])([H])[H])C([H])([H])C([H])([H])N([H])S(=O)(=O)c1c([H])c([H])c(C([H])([H])[H])c(-c2c([H])nc(N([H])[H])c(-c3onc(C([H])([H])[H])c3[H])c2[H])c1[H]


 34 36  0  0  0  0  0  0  0  0999 V2000
  153.9077  139.8972  183.3509 C   0  0  0  0  0  0  0  0  0  0  0  0
  154.0505  139.1798  184.5445 C   0  0  0  0  0  0  0  0  0  0  0  0
  153.2777  138.0721  184.8225 C   0  0  0  0  0  0  0  0  0  0  0  0
  152.3369  137.6406  183.9228 C   0  0  0  0  0  0  0  0  0  0  0  0
  152.1767  138.3289  182.7402 C   0  0  0  0  0  0  0  0  0  0  0  0
  152.9683  139.4591  182.4606 C   0  0  0  0  0  0  0  0  0  0  0  0
  152.7883  140.1728  181.1681 C   0  0  0  0  0  0  0  0  0  0  0  0
  156.8550  142.1485  183.0011 C   0  0  0  0  0  0  0  0  0  0  0  0
  156.0912  140.9976  183.2436 C   0  0  0  0  0  0  0  0  0  0  0  0
  154.7238  141.0765  183.0857 C   0  0  0  0  0  0  0  0  0  0  0  0
  154.1747  142.2831  182.6975 C   0  0  0  0  0  0  0  0  0  0  0  0
  154.9170  143.3720  182.4698 N   0  0  0  0  0  0  0  0  0  0  0  0
  156.2708  143.3102  182.6214 C   0  0  0  0  0  0  0  0  0  0  0  0
  157.0151  144.4836  182.3705 N   0  0  0  0  0  0  0  0  0  0  0  0
  157.2268  145.1998  183.1030 H   0  0  0  0  0  0  0  0  0  0  0  0
  157.3838  144.6730  181.4228 H   0  0  0  0  0  0  0  0  0  0  0  0
  161.6158  142.1819  184.7574 C   0  0  0  0  0  0  0  0  0  0  0  0
  160.3942  141.9931  183.9180 C   0  0  0  0  0  0  0  0  0  0  0  0
  159.0753  142.3614  184.2462 C   0  0  0  0  0  0  0  0  0  0  0  0
  158.3045  141.9970  183.1870 C   0  0  0  0  0  0  0  0  0  0  0  0
  159.1001  141.4462  182.2798 O   0  0  0  0  0  0  0  0  0  0  0  0
  160.3029  141.4452  182.7033 N   0  0  0  0  0  0  0  0  0  0  0  0
  153.5066  137.2111  186.3456 S   0  0  0  0  0  0  0  0  0  0  0  0
  154.9973  137.0458  186.5329 O   0  0  0  0  0  0  0  0  0  0  0  0
  152.8959  137.9977  187.4509 O   0  0  0  0  0  0  0  0  0  0  0  0
  152.8303  135.6568  186.1684 N   0  0  0  0  0  0  0  0  0  0  0  0
  153.5507  134.9631  186.5259 H   0  0  0  0  0  0  0  0  0  0  0  0
  151.5916  135.4979  186.9028 C   0  0  0  0  0  0  0  0  0  0  0  0
  150.4948  134.9279  186.0635 C   0  0  0  0  0  0  0  0  0  0  0  0
  149.3587  135.8703  185.8451 C   0  0  0  0  0  0  0  0  0  0  0  0
  149.5704  137.2503  186.3783 C   0  0  0  0  0  0  0  0  0  0  0  0
  149.0732  135.9595  184.3657 C   0  0  0  0  0  0  0  0  0  0  0  0
  148.2115  135.3503  186.4477 O   0  0  0  0  0  0  0  0  0  0  0  0
  147.4064  135.5307  185.9223 H   0  0  0  0  0  0  0  0  0  0  0  0
 17 18  1  0  0  0
 18 19  1  0  0  0
 19 20  2  0  0  0
 20  8  1  0  0  0
  8  9  2  0  0  0
  9 10  1  0  0  0
 10  1  1  0  0  0
  1  2  2  0  0  0
  2  3  1  0  0  0
  3 23  1  0  0  0
 23 24  2  0  0  0
 23 25  2  0  0  0
 23 26  1  0  0  0
 26 28  1  0  0  0
 28 29  1  0  0  0
 29 30  1  0  0  0
 30 31  1  0  0  0
 30 32  1  0  0  0
 30 33  1  0  0  0
  3  4  2  0  0  0
  4  5  1  0  0  0
  5  6  2  0  0  0
  6  7  1  0  0  0
 10 11  2  0  0  0
 11 12  1  0  0  0
 12 13  2  0  0  0
 13 14  1  0  0  0
 20 21  1  0  0  0
 21 22  1  0  0  0
 22 18  2  0  0  0
 13  8  1  0  0  0
  6  1  1  0  0  0
 26 27  1  0  0  0
 33 34  1  0  0  0
 14 15  1  0  0  0
 14 16  1  0  0  0
M  END
> <minimizedAffinity>
-6.97881

> <CNNscore>
0.1865136474

> <CNNaffinity>
5.9402785301

> <CNN_VS>
1.1079430580

> <CNNaffinity_variance>
0.1141750664

$$$$
[H]OC(C([H])([H])[H])(C([H])([H])[H])C([H])([H])C([H])([H])N([H])S(=O)(=O)c1c([H])c([H])c(C([H])([H])[H])c(-c2c([H])nc(N([H])[H])c(-c3onc(C([H])([H])[H])c3[H])c2[H])c1[H]


 34 36  0  0  0  0  0  0  0  0999 V2000
  155.5186  140.4694  183.6886 C   0  0  0  0  0  0  0  0  0  0  0  0
  155.7089  139.6293  184.7922 C   0  0  0  0  0  0  0  0  0  0  0  0
  154.7873  138.6628  185.1361 C   0  0  0  0  0  0  0  0  0  0  0  0
  153.6456  138.4994  184.3942 C   0  0  0  0  0  0  0  0  0  0  0  0
  153.4346  139.3132  183.3028 C   0  0  0  0  0  0  0  0  0  0  0  0
  154.3784  140.2984  182.9552 C   0  0  0  0  0  0  0  0  0  0  0  0
  154.1354  141.1510  181.7610 C   0  0  0  0  0  0  0  0  0  0  0  0
  158.6672  142.4589  183.6150 C   0  0  0  0  0  0  0  0  0  0  0  0
  157.7468  141.4509  183.9370 C   0  0  0  0  0  0  0  0  0  0  0  0
  156.4983  141.4966  183.3538 C   0  0  0  0  0  0  0  0  0  0  0  0
  156.2160  142.5313  182.4832 C   0  0  0  0  0  0  0  0  0  0  0  0
  157.1050  143.4853  182.1862 N   0  0  0  0  0  0  0  0  0  0  0  0
  158.3442  143.4541  182.7545 C   0  0  0  0  0  0  0  0  0  0  0  0
  159.2508  144.4812  182.4125 N   0  0  0  0  0  0  0  0  0  0  0  0
  159.3201  145.3860  182.9329 H   0  0  0  0  0  0  0  0  0  0  0  0
  159.8931  144.3622  181.6104 H   0  0  0  0  0  0  0  0  0  0  0  0
  162.6238  142.7781  186.7764 C   0  0  0  0  0  0  0  0  0  0  0  0
  161.7270  142.4684  185.6221 C   0  0  0  0  0  0  0  0  0  0  0  0
  160.3827  142.8573  185.4654 C   0  0  0  0  0  0  0  0  0  0  0  0
  159.9780  142.3518  184.2696 C   0  0  0  0  0  0  0  0  0  0  0  0
  161.0050  141.7018  183.7384 O   0  0  0  0  0  0  0  0  0  0  0  0
  162.0108  141.7705  184.5192 N   0  0  0  0  0  0  0  0  0  0  0  0
  155.0861  137.6355  186.5392 S   0  0  0  0  0  0  0  0  0  0  0  0
  154.7735  136.2185  186.1162 O   0  0  0  0  0  0  0  0  0  0  0  0
  156.5041  137.7841  186.9637 O   0  0  0  0  0  0  0  0  0  0  0  0
  153.9689  138.0742  187.7492 N   0  0  0  0  0  0  0  0  0  0  0  0
  153.6164  139.0465  187.5073 H   0  0  0  0  0  0  0  0  0  0  0  0
  152.8512  137.1569  187.8389 C   0  0  0  0  0  0  0  0  0  0  0  0
  151.6342  137.6630  187.1352 C   0  0  0  0  0  0  0  0  0  0  0  0
  150.6743  136.5865  186.7532 C   0  0  0  0  0  0  0  0  0  0  0  0
  149.3450  137.0673  186.2684 C   0  0  0  0  0  0  0  0  0  0  0  0
  151.3011  135.7284  185.6813 C   0  0  0  0  0  0  0  0  0  0  0  0
  150.4537  135.7589  187.8559 O   0  0  0  0  0  0  0  0  0  0  0  0
  150.3597  134.8201  187.5979 H   0  0  0  0  0  0  0  0  0  0  0  0
 17 18  1  0  0  0
 18 19  1  0  0  0
 19 20  2  0  0  0
 20  8  1  0  0  0
  8  9  2  0  0  0
  9 10  1  0  0  0
 10  1  1  0  0  0
  1  2  2  0  0  0
  2  3  1  0  0  0
  3 23  1  0  0  0
 23 24  2  0  0  0
 23 25  2  0  0  0
 23 26  1  0  0  0
 26 28  1  0  0  0
 28 29  1  0  0  0
 29 30  1  0  0  0
 30 31  1  0  0  0
 30 32  1  0  0  0
 30 33  1  0  0  0
  3  4  2  0  0  0
  4  5  1  0  0  0
  5  6  2  0  0  0
  6  7  1  0  0  0
 10 11  2  0  0  0
 11 12  1  0  0  0
 12 13  2  0  0  0
 13 14  1  0  0  0
 20 21  1  0  0  0
 21 22  1  0  0  0
 22 18  2  0  0  0
 13  8  1  0  0  0
  6  1  1  0  0  0
 26 27  1  0  0  0
 33 34  1  0  0  0
 14 15  1  0  0  0
 14 16  1  0  0  0
M  END
> <minimizedAffinity>
-7.94003

> <CNNscore>
0.1860347986

> <CNNaffinity>
6.2083816528

> <CNN_VS>
1.1549750566

> <CNNaffinity_variance>
0.1192417964

$$$$
[H]OC(C([H])([H])[H])(C([H])([H])[H])C([H])([H])C([H])([H])N([H])S(=O)(=O)c1c([H])c([H])c(C([H])([H])[H])c(-c2c([H])nc(N([H])[H])c(-c3onc(C([H])([H])[H])c3[H])c2[H])c1[H]


 34 36  0  0  0  0  0  0  0  0999 V2000
  155.5413  140.5754  183.6926 C   0  0  0  0  0  0  0  0  0  0  0  0
  155.7128  139.7514  184.8113 C   0  0  0  0  0  0  0  0  0  0  0  0
  154.7746  138.8053  185.1665 C   0  0  0  0  0  0  0  0  0  0  0  0
  153.6344  138.6469  184.4212 C   0  0  0  0  0  0  0  0  0  0  0  0
  153.4416  139.4452  183.3151 C   0  0  0  0  0  0  0  0  0  0  0  0
  154.4025  140.4096  182.9561 C   0  0  0  0  0  0  0  0  0  0  0  0
  154.1789  141.2454  181.7462 C   0  0  0  0  0  0  0  0  0  0  0  0
  158.7181  142.5192  183.6082 C   0  0  0  0  0  0  0  0  0  0  0  0
  157.7806  141.5312  183.9424 C   0  0  0  0  0  0  0  0  0  0  0  0
  156.5386  141.5816  183.3458 C   0  0  0  0  0  0  0  0  0  0  0  0
  156.2794  142.6011  182.4505 C   0  0  0  0  0  0  0  0  0  0  0  0
  157.1845  143.5361  182.1422 N   0  0  0  0  0  0  0  0  0  0  0  0
  158.4176  143.5000  182.7234 C   0  0  0  0  0  0  0  0  0  0  0  0
  159.3418  144.5068  182.3687 N   0  0  0  0  0  0  0  0  0  0  0  0
  159.4188  145.4216  182.8703 H   0  0  0  0  0  0  0  0  0  0  0  0
  159.9901  144.3618  181.5758 H   0  0  0  0  0  0  0  0  0  0  0  0
  162.6158  142.7601  186.8488 C   0  0  0  0  0  0  0  0  0  0  0  0
  161.7451  142.4926  185.6644 C   0  0  0  0  0  0  0  0  0  0  0  0
  160.3941  142.8569  185.5063 C   0  0  0  0  0  0  0  0  0  0  0  0
  160.0209  142.4080  184.2781 C   0  0  0  0  0  0  0  0  0  0  0  0
  161.0719  141.8130  183.7298 O   0  0  0  0  0  0  0  0  0  0  0  0
  162.0634  141.8631  184.5300 N   0  0  0  0  0  0  0  0  0  0  0  0
  155.0501  137.7975  186.5884 S   0  0  0  0  0  0  0  0  0  0  0  0
  154.6737  136.3857  186.2015 O   0  0  0  0  0  0  0  0  0  0  0  0
  156.4788  137.8965  186.9912 O   0  0  0  0  0  0  0  0  0  0  0  0
  153.9687  138.3086  187.8025 N   0  0  0  0  0  0  0  0  0  0  0  0
  153.0045  138.3541  187.3592 H   0  0  0  0  0  0  0  0  0  0  0  0
  153.9416  137.4136  188.9415 C   0  0  0  0  0  0  0  0  0  0  0  0
  154.7492  137.9218  190.0912 C   0  0  0  0  0  0  0  0  0  0  0  0
  155.9642  137.1036  190.3753 C   0  0  0  0  0  0  0  0  0  0  0  0
  156.2436  136.8684  191.8245 C   0  0  0  0  0  0  0  0  0  0  0  0
  155.8292  135.7688  189.6836 C   0  0  0  0  0  0  0  0  0  0  0  0
  157.0798  137.7349  189.8216 O   0  0  0  0  0  0  0  0  0  0  0  0
  157.7207  137.0934  189.4549 H   0  0  0  0  0  0  0  0  0  0  0  0
 17 18  1  0  0  0
 18 19  1  0  0  0
 19 20  2  0  0  0
 20  8  1  0  0  0
  8  9  2  0  0  0
  9 10  1  0  0  0
 10  1  1  0  0  0
  1  2  2  0  0  0
  2  3  1  0  0  0
  3 23  1  0  0  0
 23 24  2  0  0  0
 23 25  2  0  0  0
 23 26  1  0  0  0
 26 28  1  0  0  0
 28 29  1  0  0  0
 29 30  1  0  0  0
 30 31  1  0  0  0
 30 32  1  0  0  0
 30 33  1  0  0  0
  3  4  2  0  0  0
  4  5  1  0  0  0
  5  6  2  0  0  0
  6  7  1  0  0  0
 10 11  2  0  0  0
 11 12  1  0  0  0
 12 13  2  0  0  0
 13 14  1  0  0  0
 20 21  1  0  0  0
 21 22  1  0  0  0
 22 18  2  0  0  0
 13  8  1  0  0  0
  6  1  1  0  0  0
 26 27  1  0  0  0
 33 34  1  0  0  0
 14 15  1  0  0  0
 14 16  1  0  0  0
M  END
> <minimizedAffinity>
-8.64661

> <CNNscore>
0.1854621321

> <CNNaffinity>
6.3788032532

> <CNN_VS>
1.1830264330

> <CNNaffinity_variance>
0.1286081970

$$$$
[H]/C(=C(/[H])c1c([H])c(OC([H])([H])[H])c([H])c(OC([H])([H])[H])c1[H])c1c([H])c([H])c(OC([H])([H])C([H])([H])[H])c([H])c1[H]


 21 22  0  0  0  0  0  0  0  0999 V2000
  157.2190  140.3493  184.0191 C   0  0  0  0  0  0  0  0  0  0  0  0
  156.1248  141.0046  183.7103 C   0  0  0  0  0  0  0  0  0  0  0  0
  160.8211  142.2379  185.3102 C   0  0  0  0  0  0  0  0  0  0  0  0
  159.7353  142.1173  186.1456 C   0  0  0  0  0  0  0  0  0  0  0  0
  158.5739  141.4996  185.7054 C   0  0  0  0  0  0  0  0  0  0  0  0
  158.4660  140.9909  184.4326 C   0  0  0  0  0  0  0  0  0  0  0  0
  159.5497  141.1110  183.5979 C   0  0  0  0  0  0  0  0  0  0  0  0
  160.7207  141.7315  184.0354 C   0  0  0  0  0  0  0  0  0  0  0  0
  162.0059  142.8483  185.7055 O   0  0  0  0  0  0  0  0  0  0  0  0
  163.2944  142.4013  187.6808 C   0  0  0  0  0  0  0  0  0  0  0  0
  162.1670  143.2011  187.0590 C   0  0  0  0  0  0  0  0  0  0  0  0
  154.9009  140.3317  183.3026 C   0  0  0  0  0  0  0  0  0  0  0  0
  154.5361  139.1700  183.9897 C   0  0  0  0  0  0  0  0  0  0  0  0
  153.4018  138.4520  183.6912 C   0  0  0  0  0  0  0  0  0  0  0  0
  152.5827  138.8888  182.6720 C   0  0  0  0  0  0  0  0  0  0  0  0
  152.9382  140.0295  181.9953 C   0  0  0  0  0  0  0  0  0  0  0  0
  154.0823  140.7529  182.2969 C   0  0  0  0  0  0  0  0  0  0  0  0
  153.1404  137.3176  184.4374 O   0  0  0  0  0  0  0  0  0  0  0  0
  152.3978  137.2965  185.6258 C   0  0  0  0  0  0  0  0  0  0  0  0
  152.0978  140.4516  180.9716 O   0  0  0  0  0  0  0  0  0  0  0  0
  151.7649  139.6767  179.8560 C   0  0  0  0  0  0  0  0  0  0  0  0
 10 11  1  0  0  0
 11  9  1  0  0  0
  9  3  1  0  0  0
  3  4  2  0  0  0
  4  5  1  0  0  0
  5  6  2  0  0  0
  6  1  1  0  0  0
  1  2  2  0  0  0
  2 12  1  0  0  0
 12 13  2  0  0  0
 13 14  1  0  0  0
 14 18  1  0  0  0
 18 19  1  0  0  0
 14 15  2  0  0  0
 15 16  1  0  0  0
 16 20  1  0  0  0
 20 21  1  0  0  0
 16 17  2  0  0  0
  6  7  1  0  0  0
  7  8  2  0  0  0
  8  3  1  0  0  0
 17 12  1  0  0  0
M  END
> <minimizedAffinity>
-7.51386

> <CNNscore>
0.6545475721

> <CNNaffinity>
5.6643605232

> <CNN_VS>
3.7075934410

> <CNNaffinity_variance>
0.1294403970

$$$$
[H]/C(=C(/[H])c1c([H])c(OC([H])([H])[H])c([H])c(OC([H])([H])[H])c1[H])c1c([H])c([H])c(OC([H])([H])C([H])([H])[H])c([H])c1[H]


 21 22  0  0  0  0  0  0  0  0999 V2000
  154.8962  140.9332  182.7966 C   0  0  0  0  0  0  0  0  0  0  0  0
  155.9857  140.3813  183.2764 C   0  0  0  0  0  0  0  0  0  0  0  0
  151.3382  138.8242  181.7468 C   0  0  0  0  0  0  0  0  0  0  0  0
  151.6978  139.9873  181.1069 C   0  0  0  0  0  0  0  0  0  0  0  0
  152.8588  140.6570  181.4641 C   0  0  0  0  0  0  0  0  0  0  0  0
  153.6839  140.1887  182.4593 C   0  0  0  0  0  0  0  0  0  0  0  0
  153.3256  139.0275  183.0986 C   0  0  0  0  0  0  0  0  0  0  0  0
  152.1585  138.3495  182.7434 C   0  0  0  0  0  0  0  0  0  0  0  0
  150.1850  138.1179  181.4244 O   0  0  0  0  0  0  0  0  0  0  0  0
  148.1429  139.3129  181.8285 C   0  0  0  0  0  0  0  0  0  0  0  0
  149.1264  138.8006  180.7953 C   0  0  0  0  0  0  0  0  0  0  0  0
  157.1746  141.1548  183.6009 C   0  0  0  0  0  0  0  0  0  0  0  0
  157.6352  142.0712  182.6508 C   0  0  0  0  0  0  0  0  0  0  0  0
  158.7474  142.8553  182.8488 C   0  0  0  0  0  0  0  0  0  0  0  0
  159.4449  142.7400  184.0323 C   0  0  0  0  0  0  0  0  0  0  0  0
  158.9951  141.8409  184.9676 C   0  0  0  0  0  0  0  0  0  0  0  0
  157.8734  141.0504  184.7670 C   0  0  0  0  0  0  0  0  0  0  0  0
  159.1109  143.7274  181.8392 O   0  0  0  0  0  0  0  0  0  0  0  0
  158.9376  143.4818  180.4702 C   0  0  0  0  0  0  0  0  0  0  0  0
  159.7136  141.7411  186.1533 O   0  0  0  0  0  0  0  0  0  0  0  0
  160.5904  142.7219  186.6277 C   0  0  0  0  0  0  0  0  0  0  0  0
 10 11  1  0  0  0
 11  9  1  0  0  0
  9  3  1  0  0  0
  3  4  2  0  0  0
  4  5  1  0  0  0
  5  6  2  0  0  0
  6  1  1  0  0  0
  1  2  2  0  0  0
  2 12  1  0  0  0
 12 13  2  0  0  0
 13 14  1  0  0  0
 14 18  1  0  0  0
 18 19  1  0  0  0
 14 15  2  0  0  0
 15 16  1  0  0  0
 16 20  1  0  0  0
 20 21  1  0  0  0
 16 17  2  0  0  0
  6  7  1  0  0  0
  7  8  2  0  0  0
  8  3  1  0  0  0
 17 12  1  0  0  0
M  END
> <minimizedAffinity>
-6.83761

> <CNNscore>
0.6423518658

> <CNNaffinity>
5.8278083801

> <CNN_VS>
3.7435035706

> <CNNaffinity_variance>
0.2697098851

$$$$
[H]/C(=C(/[H])c1c([H])c(OC([H])([H])[H])c([H])c(OC([H])([H])[H])c1[H])c1c([H])c([H])c(OC([H])([H])C([H])([H])[H])c([H])c1[H]


 21 22  0  0  0  0  0  0  0  0999 V2000
  157.0720  140.0015  184.1828 C   0  0  0  0  0  0  0  0  0  0  0  0
  155.9445  140.5842  183.8495 C   0  0  0  0  0  0  0  0  0  0  0  0
  160.6807  142.0903  185.0904 C   0  0  0  0  0  0  0  0  0  0  0  0
  160.5113  141.4387  183.8911 C   0  0  0  0  0  0  0  0  0  0  0  0
  159.3299  140.7656  183.6165 C   0  0  0  0  0  0  0  0  0  0  0  0
  158.2962  140.7252  184.5223 C   0  0  0  0  0  0  0  0  0  0  0  0
  158.4645  141.3755  185.7199 C   0  0  0  0  0  0  0  0  0  0  0  0
  159.6510  142.0543  186.0015 C   0  0  0  0  0  0  0  0  0  0  0  0
  161.8456  142.7779  185.4110 O   0  0  0  0  0  0  0  0  0  0  0  0
  163.1954  142.5671  187.3847 C   0  0  0  0  0  0  0  0  0  0  0  0
  162.0128  143.2499  186.7269 C   0  0  0  0  0  0  0  0  0  0  0  0
  154.7449  139.8307  183.5176 C   0  0  0  0  0  0  0  0  0  0  0  0
  154.4876  138.6630  184.2421 C   0  0  0  0  0  0  0  0  0  0  0  0
  153.3857  137.8721  184.0154 C   0  0  0  0  0  0  0  0  0  0  0  0
  152.4902  138.2384  183.0333 C   0  0  0  0  0  0  0  0  0  0  0  0
  152.7400  139.3848  182.3200 C   0  0  0  0  0  0  0  0  0  0  0  0
  153.8515  140.1818  182.5493 C   0  0  0  0  0  0  0  0  0  0  0  0
  153.2328  136.7390  184.7931 O   0  0  0  0  0  0  0  0  0  0  0  0
  154.2637  136.1176  185.5110 C   0  0  0  0  0  0  0  0  0  0  0  0
  151.8241  139.7350  181.3348 O   0  0  0  0  0  0  0  0  0  0  0  0
  152.0712  139.6435  179.9613 C   0  0  0  0  0  0  0  0  0  0  0  0
 10 11  1  0  0  0
 11  9  1  0  0  0
  9  3  1  0  0  0
  3  4  2  0  0  0
  4  5  1  0  0  0
  5  6  2  0  0  0
  6  1  1  0  0  0
  1  2  2  0  0  0
  2 12  1  0  0  0
 12 13  2  0  0  0
 13 14  1  0  0  0
 14 18  1  0  0  0
 18 19  1  0  0  0
 14 15  2  0  0  0
 15 16  1  0  0  0
 16 20  1  0  0  0
 20 21  1  0  0  0
 16 17  2  0  0  0
  6  7  1  0  0  0
  7  8  2  0  0  0
  8  3  1  0  0  0
 17 12  1  0  0  0
M  END
> <minimizedAffinity>
-7.36886

> <CNNscore>
0.6301397085

> <CNNaffinity>
5.5991697311

> <CNN_VS>
3.5282592773

> <CNNaffinity_variance>
0.1543937325

$$$$
[H]/C(=C(/[H])c1c([H])c(OC([H])([H])[H])c([H])c(OC([H])([H])[H])c1[H])c1c([H])c([H])c(OC([H])([H])C([H])([H])[H])c([H])c1[H]


 21 22  0  0  0  0  0  0  0  0999 V2000
  157.2486  140.0592  183.9924 C   0  0  0  0  0  0  0  0  0  0  0  0
  156.0571  140.6090  183.9792 C   0  0  0  0  0  0  0  0  0  0  0  0
  160.7748  142.1477  185.1811 C   0  0  0  0  0  0  0  0  0  0  0  0
  159.6702  142.0823  185.9979 C   0  0  0  0  0  0  0  0  0  0  0  0
  158.5341  141.3979  185.5917 C   0  0  0  0  0  0  0  0  0  0  0  0
  158.4704  140.7668  184.3718 C   0  0  0  0  0  0  0  0  0  0  0  0
  159.5729  140.8316  183.5557 C   0  0  0  0  0  0  0  0  0  0  0  0
  160.7187  141.5188  183.9593 C   0  0  0  0  0  0  0  0  0  0  0  0
  161.9357  142.8210  185.5440 O   0  0  0  0  0  0  0  0  0  0  0  0
  163.3004  142.5109  187.4942 C   0  0  0  0  0  0  0  0  0  0  0  0
  162.1008  143.2106  186.8869 C   0  0  0  0  0  0  0  0  0  0  0  0
  154.8622  139.8729  183.5954 C   0  0  0  0  0  0  0  0  0  0  0  0
  154.1009  140.3737  182.5350 C   0  0  0  0  0  0  0  0  0  0  0  0
  152.9537  139.7622  182.0865 C   0  0  0  0  0  0  0  0  0  0  0  0
  152.5279  138.6049  182.7028 C   0  0  0  0  0  0  0  0  0  0  0  0
  153.2734  138.1105  183.7446 C   0  0  0  0  0  0  0  0  0  0  0  0
  154.4302  138.7278  184.1963 C   0  0  0  0  0  0  0  0  0  0  0  0
  152.2809  140.3472  181.0295 O   0  0  0  0  0  0  0  0  0  0  0  0
  151.9060  139.6817  179.8544 C   0  0  0  0  0  0  0  0  0  0  0  0
  152.8255  136.9427  184.3512 O   0  0  0  0  0  0  0  0  0  0  0  0
  151.8056  136.8928  185.3067 C   0  0  0  0  0  0  0  0  0  0  0  0
 10 11  1  0  0  0
 11  9  1  0  0  0
  9  3  1  0  0  0
  3  4  2  0  0  0
  4  5  1  0  0  0
  5  6  2  0  0  0
  6  1  1  0  0  0
  1  2  2  0  0  0
  2 12  1  0  0  0
 12 13  2  0  0  0
 13 14  1  0  0  0
 14 18  1  0  0  0
 18 19  1  0  0  0
 14 15  2  0  0  0
 15 16  1  0  0  0
 16 20  1  0  0  0
 20 21  1  0  0  0
 16 17  2  0  0  0
  6  7  1  0  0  0
  7  8  2  0  0  0
  8  3  1  0  0  0
 17 12  1  0  0  0
M  END
> <minimizedAffinity>
-7.55534

> <CNNscore>
0.6290153861

> <CNNaffinity>
5.5836272240

> <CNN_VS>
3.5121874809

> <CNNaffinity_variance>
0.1267444789

$$$$
[H]/C(=C(/[H])c1c([H])c(OC([H])([H])[H])c([H])c(OC([H])([H])[H])c1[H])c1c([H])c([H])c(OC([H])([H])C([H])([H])[H])c([H])c1[H]


 21 22  0  0  0  0  0  0  0  0999 V2000
  157.1593  140.1058  183.9164 C   0  0  0  0  0  0  0  0  0  0  0  0
  155.9559  140.6227  183.9981 C   0  0  0  0  0  0  0  0  0  0  0  0
  160.7495  142.1117  185.0546 C   0  0  0  0  0  0  0  0  0  0  0  0
  160.6142  141.5314  183.8151 C   0  0  0  0  0  0  0  0  0  0  0  0
  159.4382  140.8841  183.4656 C   0  0  0  0  0  0  0  0  0  0  0  0
  158.3763  140.7995  184.3349 C   0  0  0  0  0  0  0  0  0  0  0  0
  158.5106  141.3787  185.5726 C   0  0  0  0  0  0  0  0  0  0  0  0
  159.6915  142.0312  185.9297 C   0  0  0  0  0  0  0  0  0  0  0  0
  161.9077  142.7710  185.4504 O   0  0  0  0  0  0  0  0  0  0  0  0
  163.1896  142.5710  187.4699 C   0  0  0  0  0  0  0  0  0  0  0  0
  162.0084  143.2237  186.7798 C   0  0  0  0  0  0  0  0  0  0  0  0
  154.7662  139.9018  183.5714 C   0  0  0  0  0  0  0  0  0  0  0  0
  154.0402  140.4217  182.4957 C   0  0  0  0  0  0  0  0  0  0  0  0
  152.9012  139.8258  182.0071 C   0  0  0  0  0  0  0  0  0  0  0  0
  152.4479  138.6652  182.5970 C   0  0  0  0  0  0  0  0  0  0  0  0
  153.1588  138.1519  183.6538 C   0  0  0  0  0  0  0  0  0  0  0  0
  154.3074  138.7536  184.1459 C   0  0  0  0  0  0  0  0  0  0  0  0
  152.2641  140.4291  180.9384 O   0  0  0  0  0  0  0  0  0  0  0  0
  151.7236  139.7454  179.8408 C   0  0  0  0  0  0  0  0  0  0  0  0
  152.6838  136.9812  184.2333 O   0  0  0  0  0  0  0  0  0  0  0  0
  152.1371  136.9039  185.5182 C   0  0  0  0  0  0  0  0  0  0  0  0
 10 11  1  0  0  0
 11  9  1  0  0  0
  9  3  1  0  0  0
  3  4  2  0  0  0
  4  5  1  0  0  0
  5  6  2  0  0  0
  6  1  1  0  0  0
  1  2  2  0  0  0
  2 12  1  0  0  0
 12 13  2  0  0  0
 13 14  1  0  0  0
 14 18  1  0  0  0
 18 19  1  0  0  0
 14 15  2  0  0  0
 15 16  1  0  0  0
 16 20  1  0  0  0
 20 21  1  0  0  0
 16 17  2  0  0  0
  6  7  1  0  0  0
  7  8  2  0  0  0
  8  3  1  0  0  0
 17 12  1  0  0  0
M  END
> <minimizedAffinity>
-7.54661

> <CNNscore>
0.6281818151

> <CNNaffinity>
5.5875463486

> <CNN_VS>
3.5099949837

> <CNNaffinity_variance>
0.1238085181

$$$$
[H]/C(=C(/[H])c1c([H])c(OC([H])([H])[H])c([H])c(OC([H])([H])[H])c1[H])c1c([H])c([H])c(OC([H])([H])C([H])([H])[H])c([H])c1[H]


 21 22  0  0  0  0  0  0  0  0999 V2000
  152.6124  139.7852  181.8009 C   0  0  0  0  0  0  0  0  0  0  0  0
  153.1530  140.9806  181.7733 C   0  0  0  0  0  0  0  0  0  0  0  0
  148.8989  138.7639  179.9635 C   0  0  0  0  0  0  0  0  0  0  0  0
  149.0848  138.6426  181.3208 C   0  0  0  0  0  0  0  0  0  0  0  0
  150.3004  138.9803  181.8975 C   0  0  0  0  0  0  0  0  0  0  0  0
  151.3523  139.4433  181.1429 C   0  0  0  0  0  0  0  0  0  0  0  0
  151.1674  139.5647  179.7876 C   0  0  0  0  0  0  0  0  0  0  0  0
  149.9466  139.2264  179.2020 C   0  0  0  0  0  0  0  0  0  0  0  0
  147.6998  138.4383  179.3399 O   0  0  0  0  0  0  0  0  0  0  0  0
  146.8115  136.7721  177.8578 C   0  0  0  0  0  0  0  0  0  0  0  0
  147.7326  137.9656  178.0141 C   0  0  0  0  0  0  0  0  0  0  0  0
  154.4098  141.2843  182.4406 C   0  0  0  0  0  0  0  0  0  0  0  0
  154.9778  142.5424  182.2187 C   0  0  0  0  0  0  0  0  0  0  0  0
  156.1615  142.9386  182.7958 C   0  0  0  0  0  0  0  0  0  0  0  0
  156.8240  142.0643  183.6307 C   0  0  0  0  0  0  0  0  0  0  0  0
  156.2687  140.8278  183.8508 C   0  0  0  0  0  0  0  0  0  0  0  0
  155.0749  140.4291  183.2683 C   0  0  0  0  0  0  0  0  0  0  0  0
  156.6295  144.2067  182.5046 O   0  0  0  0  0  0  0  0  0  0  0  0
  157.9637  144.5178  182.2091 C   0  0  0  0  0  0  0  0  0  0  0  0
  156.9535  139.9625  184.6960 O   0  0  0  0  0  0  0  0  0  0  0  0
  158.3471  139.8937  184.7915 C   0  0  0  0  0  0  0  0  0  0  0  0
 10 11  1  0  0  0
 11  9  1  0  0  0
  9  3  1  0  0  0
  3  4  2  0  0  0
  4  5  1  0  0  0
  5  6  2  0  0  0
  6  1  1  0  0  0
  1  2  2  0  0  0
  2 12  1  0  0  0
 12 13  2  0  0  0
 13 14  1  0  0  0
 14 18  1  0  0  0
 18 19  1  0  0  0
 14 15  2  0  0  0
 15 16  1  0  0  0
 16 20  1  0  0  0
 20 21  1  0  0  0
 16 17  2  0  0  0
  6  7  1  0  0  0
  7  8  2  0  0  0
  8  3  1  0  0  0
 17 12  1  0  0  0
M  END
> <minimizedAffinity>
-6.58839

> <CNNscore>
0.5353760719

> <CNNaffinity>
5.1033668518

> <CNN_VS>
2.7322204113

> <CNNaffinity_variance>
0.0443630889

$$$$
[H]/C(=C(/[H])c1c([H])c(OC([H])([H])[H])c([H])c(OC([H])([H])[H])c1[H])c1c([H])c([H])c(OC([H])([H])C([H])([H])[H])c([H])c1[H]


 21 22  0  0  0  0  0  0  0  0999 V2000
  153.4809  140.7249  181.6907 C   0  0  0  0  0  0  0  0  0  0  0  0
  154.3428  140.3760  182.6166 C   0  0  0  0  0  0  0  0  0  0  0  0
  149.9315  138.5725  180.7017 C   0  0  0  0  0  0  0  0  0  0  0  0
  150.4769  139.4924  179.8370 C   0  0  0  0  0  0  0  0  0  0  0  0
  151.6315  140.1812  180.1785 C   0  0  0  0  0  0  0  0  0  0  0  0
  152.2665  139.9724  181.3801 C   0  0  0  0  0  0  0  0  0  0  0  0
  151.7226  139.0541  182.2440 C   0  0  0  0  0  0  0  0  0  0  0  0
  150.5610  138.3583  181.9056 C   0  0  0  0  0  0  0  0  0  0  0  0
  148.7767  137.8581  180.4043 O   0  0  0  0  0  0  0  0  0  0  0  0
  147.6449  137.8169  178.2879 C   0  0  0  0  0  0  0  0  0  0  0  0
  147.7706  138.4835  179.6433 C   0  0  0  0  0  0  0  0  0  0  0  0
  155.5420  141.1504  182.8983 C   0  0  0  0  0  0  0  0  0  0  0  0
  156.3356  140.7528  183.9785 C   0  0  0  0  0  0  0  0  0  0  0  0
  157.4897  141.4088  184.3373 C   0  0  0  0  0  0  0  0  0  0  0  0
  157.8897  142.5070  183.6063 C   0  0  0  0  0  0  0  0  0  0  0  0
  157.1125  142.9000  182.5447 C   0  0  0  0  0  0  0  0  0  0  0  0
  155.9486  142.2379  182.1835 C   0  0  0  0  0  0  0  0  0  0  0  0
  158.1954  140.9266  185.4243 O   0  0  0  0  0  0  0  0  0  0  0  0
  159.1222  141.6693  186.1685 C   0  0  0  0  0  0  0  0  0  0  0  0
  157.5347  144.0096  181.8217 O   0  0  0  0  0  0  0  0  0  0  0  0
  158.8206  144.5545  181.8947 C   0  0  0  0  0  0  0  0  0  0  0  0
 10 11  1  0  0  0
 11  9  1  0  0  0
  9  3  1  0  0  0
  3  4  2  0  0  0
  4  5  1  0  0  0
  5  6  2  0  0  0
  6  1  1  0  0  0
  1  2  2  0  0  0
  2 12  1  0  0  0
 12 13  2  0  0  0
 13 14  1  0  0  0
 14 18  1  0  0  0
 18 19  1  0  0  0
 14 15  2  0  0  0
 15 16  1  0  0  0
 16 20  1  0  0  0
 20 21  1  0  0  0
 16 17  2  0  0  0
  6  7  1  0  0  0
  7  8  2  0  0  0
  8  3  1  0  0  0
 17 12  1  0  0  0
M  END
> <minimizedAffinity>
-6.55973

> <CNNscore>
0.5194139481

> <CNNaffinity>
5.3239870071

> <CNN_VS>
2.7653532028

> <CNNaffinity_variance>
0.1015875340

$$$$
[H]/C(=C(/[H])c1c([H])c(OC([H])([H])[H])c([H])c(OC([H])([H])[H])c1[H])c1c([H])c([H])c(OC([H])([H])C([H])([H])[H])c([H])c1[H]


 21 22  0  0  0  0  0  0  0  0999 V2000
  154.8127  140.8338  182.5355 C   0  0  0  0  0  0  0  0  0  0  0  0
  155.7927  140.4832  183.3345 C   0  0  0  0  0  0  0  0  0  0  0  0
  151.2008  138.6353  181.9603 C   0  0  0  0  0  0  0  0  0  0  0  0
  151.4817  139.7598  181.2199 C   0  0  0  0  0  0  0  0  0  0  0  0
  152.6620  140.4597  181.4232 C   0  0  0  0  0  0  0  0  0  0  0  0
  153.5843  140.0601  182.3613 C   0  0  0  0  0  0  0  0  0  0  0  0
  153.3047  138.9375  183.1010 C   0  0  0  0  0  0  0  0  0  0  0  0
  152.1187  138.2295  182.9007 C   0  0  0  0  0  0  0  0  0  0  0  0
  150.0322  137.9012  181.7930 O   0  0  0  0  0  0  0  0  0  0  0  0
  148.6673  137.3022  183.6744 C   0  0  0  0  0  0  0  0  0  0  0  0
  149.7466  136.8661  182.7037 C   0  0  0  0  0  0  0  0  0  0  0  0
  157.0017  141.2790  183.4825 C   0  0  0  0  0  0  0  0  0  0  0  0
  157.7050  141.1779  184.6866 C   0  0  0  0  0  0  0  0  0  0  0  0
  158.8592  141.8822  184.9376 C   0  0  0  0  0  0  0  0  0  0  0  0
  159.3518  142.7271  183.9660 C   0  0  0  0  0  0  0  0  0  0  0  0
  158.6634  142.8286  182.7823 C   0  0  0  0  0  0  0  0  0  0  0  0
  157.4995  142.1180  182.5299 C   0  0  0  0  0  0  0  0  0  0  0  0
  159.4709  141.7037  186.1648 O   0  0  0  0  0  0  0  0  0  0  0  0
  160.3042  142.6435  186.7866 C   0  0  0  0  0  0  0  0  0  0  0  0
  159.1781  143.6861  181.8169 O   0  0  0  0  0  0  0  0  0  0  0  0
  158.9535  143.5510  180.4432 C   0  0  0  0  0  0  0  0  0  0  0  0
 10 11  1  0  0  0
 11  9  1  0  0  0
  9  3  1  0  0  0
  3  4  2  0  0  0
  4  5  1  0  0  0
  5  6  2  0  0  0
  6  1  1  0  0  0
  1  2  2  0  0  0
  2 12  1  0  0  0
 12 13  2  0  0  0
 13 14  1  0  0  0
 14 18  1  0  0  0
 18 19  1  0  0  0
 14 15  2  0  0  0
 15 16  1  0  0  0
 16 20  1  0  0  0
 20 21  1  0  0  0
 16 17  2  0  0  0
  6  7  1  0  0  0
  7  8  2  0  0  0
  8  3  1  0  0  0
 17 12  1  0  0  0
M  END
> <minimizedAffinity>
-6.37746

> <CNNscore>
0.4737589061

> <CNNaffinity>
5.6109948158

> <CNN_VS>
2.6582586765

> <CNNaffinity_variance>
0.3763511181

$$$$
[H]/C(=C(/[H])c1c([H])c(OC([H])([H])[H])c([H])c(OC([H])([H])[H])c1[H])c1c([H])c([H])c(OC([H])([H])C([H])([H])[H])c([H])c1[H]


 21 22  0  0  0  0  0  0  0  0999 V2000
  156.3768  139.1712  185.2386 C   0  0  0  0  0  0  0  0  0  0  0  0
  156.2174  139.8300  184.1149 C   0  0  0  0  0  0  0  0  0  0  0  0
  153.1875  137.0909  187.1647 C   0  0  0  0  0  0  0  0  0  0  0  0
  153.0306  137.6473  185.9168 C   0  0  0  0  0  0  0  0  0  0  0  0
  154.0807  138.3194  185.3087 C   0  0  0  0  0  0  0  0  0  0  0  0
  155.3032  138.4530  185.9236 C   0  0  0  0  0  0  0  0  0  0  0  0
  155.4607  137.8978  187.1696 C   0  0  0  0  0  0  0  0  0  0  0  0
  154.4076  137.2205  187.7861 C   0  0  0  0  0  0  0  0  0  0  0  0
  152.1653  136.4083  187.8142 O   0  0  0  0  0  0  0  0  0  0  0  0
  150.0987  135.1911  187.7184 C   0  0  0  0  0  0  0  0  0  0  0  0
  150.8843  136.3917  187.2300 C   0  0  0  0  0  0  0  0  0  0  0  0
  157.3102  140.5339  183.4612 C   0  0  0  0  0  0  0  0  0  0  0  0
  158.3483  141.0151  184.2645 C   0  0  0  0  0  0  0  0  0  0  0  0
  159.4310  141.6941  183.7566 C   0  0  0  0  0  0  0  0  0  0  0  0
  159.5048  141.9146  182.3978 C   0  0  0  0  0  0  0  0  0  0  0  0
  158.4867  141.4431  181.6060 C   0  0  0  0  0  0  0  0  0  0  0  0
  157.3952  140.7585  182.1190 C   0  0  0  0  0  0  0  0  0  0  0  0
  160.3987  142.1243  184.6457 O   0  0  0  0  0  0  0  0  0  0  0  0
  160.8347  143.4503  184.7723 C   0  0  0  0  0  0  0  0  0  0  0  0
  158.5817  141.6766  180.2390 O   0  0  0  0  0  0  0  0  0  0  0  0
  159.0808  142.8546  179.6741 C   0  0  0  0  0  0  0  0  0  0  0  0
 10 11  1  0  0  0
 11  9  1  0  0  0
  9  3  1  0  0  0
  3  4  2  0  0  0
  4  5  1  0  0  0
  5  6  2  0  0  0
  6  1  1  0  0  0
  1  2  2  0  0  0
  2 12  1  0  0  0
 12 13  2  0  0  0
 13 14  1  0  0  0
 14 18  1  0  0  0
 18 19  1  0  0  0
 14 15  2  0  0  0
 15 16  1  0  0  0
 16 20  1  0  0  0
 20 21  1  0  0  0
 16 17  2  0  0  0
  6  7  1  0  0  0
  7  8  2  0  0  0
  8  3  1  0  0  0
 17 12  1  0  0  0
M  END
> <minimizedAffinity>
-5.73332

> <CNNscore>
0.4707170725

> <CNNaffinity>
5.4053797722

> <CNN_VS>
2.5444045067

> <CNNaffinity_variance>
0.2852451503

$$$$
[H]/C(C(=O)N(C([H])([H])[H])C([H])([H])c1sc2c([H])c([H])c([H])c([H])c2c1C([H])([H])[H])=C(/[H])c1c([H])nc2c(c1[H])C([H])([H])N([H])C([H])([H])C([H])([H])N2[H]


 30 33  0  0  0  0  0  0  0  0999 V2000
  150.6076  138.9942  180.1851 N   0  0  0  0  0  0  0  0  0  0  0  0
  150.7129  139.9537  179.1196 C   0  0  0  0  0  0  0  0  0  0  0  0
  151.7597  138.9071  181.0967 C   0  0  0  0  0  0  0  0  0  0  0  0
  151.9501  137.9362  181.8292 O   0  0  0  0  0  0  0  0  0  0  0  0
  152.6508  140.0600  181.1488 C   0  0  0  0  0  0  0  0  0  0  0  0
  153.4288  140.1311  182.2409 C   0  0  0  0  0  0  0  0  0  0  0  0
  154.3753  141.2424  182.4513 C   0  0  0  0  0  0  0  0  0  0  0  0
  153.9089  142.5377  182.4245 C   0  0  0  0  0  0  0  0  0  0  0  0
  154.7464  143.6281  182.4523 N   0  0  0  0  0  0  0  0  0  0  0  0
  156.0694  143.4022  182.5075 C   0  0  0  0  0  0  0  0  0  0  0  0
  156.5474  142.1065  182.5469 C   0  0  0  0  0  0  0  0  0  0  0  0
  155.7153  141.0164  182.5178 C   0  0  0  0  0  0  0  0  0  0  0  0
  158.0045  141.7601  182.6349 C   0  0  0  0  0  0  0  0  0  0  0  0
  158.5598  142.2888  181.4206 N   0  0  0  0  0  0  0  0  0  0  0  0
  158.9777  143.6305  181.4362 C   0  0  0  0  0  0  0  0  0  0  0  0
  158.2638  144.6817  182.1495 C   0  0  0  0  0  0  0  0  0  0  0  0
  156.8783  144.5959  182.4229 N   0  0  0  0  0  0  0  0  0  0  0  0
  157.9040  142.0273  180.6464 H   0  0  0  0  0  0  0  0  0  0  0  0
  156.3448  145.4808  182.5499 H   0  0  0  0  0  0  0  0  0  0  0  0
  149.5881  138.1051  180.3985 C   0  0  0  0  0  0  0  0  0  0  0  0
  149.3096  135.4258  182.0673 C   0  0  0  0  0  0  0  0  0  0  0  0
  148.8717  136.8310  182.5435 C   0  0  0  0  0  0  0  0  0  0  0  0
  148.8379  137.8228  181.6190 C   0  0  0  0  0  0  0  0  0  0  0  0
  148.1111  139.1372  182.5936 S   0  0  0  0  0  0  0  0  0  0  0  0
  147.9458  138.3116  184.0709 C   0  0  0  0  0  0  0  0  0  0  0  0
  147.5114  138.6841  185.3547 C   0  0  0  0  0  0  0  0  0  0  0  0
  147.5413  137.8052  186.4070 C   0  0  0  0  0  0  0  0  0  0  0  0
  148.0218  136.5417  186.1100 C   0  0  0  0  0  0  0  0  0  0  0  0
  148.4389  136.1785  184.8900 C   0  0  0  0  0  0  0  0  0  0  0  0
  148.4246  137.0699  183.7919 C   0  0  0  0  0  0  0  0  0  0  0  0
 21 22  1  0  0  0
 22 23  2  0  0  0
 23 20  1  0  0  0
 20  1  1  0  0  0
  1  2  1  0  0  0
  1  3  1  0  0  0
  3  4  2  0  0  0
  3  5  1  0  0  0
  5  6  2  0  0  0
  6  7  1  0  0  0
  7  8  2  0  0  0
  8  9  1  0  0  0
  9 10  2  0  0  0
 10 11  1  0  0  0
 11 12  2  0  0  0
 11 13  1  0  0  0
 13 14  1  0  0  0
 14 15  1  0  0  0
 15 16  1  0  0  0
 16 17  1  0  0  0
 23 24  1  0  0  0
 24 25  1  0  0  0
 25 26  2  0  0  0
 26 27  1  0  0  0
 27 28  2  0  0  0
 28 29  1  0  0  0
 29 30  2  0  0  0
 30 22  1  0  0  0
 12  7  1  0  0  0
 30 25  1  0  0  0
 17 10  1  0  0  0
 14 18  1  0  0  0
 17 19  1  0  0  0
M  END
> <minimizedAffinity>
-7.14759

> <CNNscore>
0.3552257419

> <CNNaffinity>
6.2701401711

> <CNN_VS>
2.2273151875

> <CNNaffinity_variance>
0.0548423901

$$$$
[H]/C(C(=O)N(C([H])([H])[H])C([H])([H])c1sc2c([H])c([H])c([H])c([H])c2c1C([H])([H])[H])=C(/[H])c1c([H])nc2c(c1[H])C([H])([H])N([H])C([H])([H])C([H])([H])N2[H]


 30 33  0  0  0  0  0  0  0  0999 V2000
  150.7327  139.5186  180.8122 N   0  0  0  0  0  0  0  0  0  0  0  0
  151.0306  140.0792  179.5222 C   0  0  0  0  0  0  0  0  0  0  0  0
  151.8506  139.4566  181.7673 C   0  0  0  0  0  0  0  0  0  0  0  0
  151.8336  138.7249  182.7570 O   0  0  0  0  0  0  0  0  0  0  0  0
  152.9739  140.3556  181.5302 C   0  0  0  0  0  0  0  0  0  0  0  0
  153.7474  140.5971  182.6009 C   0  0  0  0  0  0  0  0  0  0  0  0
  154.9155  141.4948  182.5306 C   0  0  0  0  0  0  0  0  0  0  0  0
  154.7570  142.8297  182.8291 C   0  0  0  0  0  0  0  0  0  0  0  0
  155.7542  143.7565  182.6341 N   0  0  0  0  0  0  0  0  0  0  0  0
  156.9226  143.3250  182.1313 C   0  0  0  0  0  0  0  0  0  0  0  0
  157.0962  141.9857  181.8396 C   0  0  0  0  0  0  0  0  0  0  0  0
  156.1035  141.0585  182.0314 C   0  0  0  0  0  0  0  0  0  0  0  0
  158.3727  141.4107  181.3004 C   0  0  0  0  0  0  0  0  0  0  0  0
  158.5333  142.0575  180.0283 N   0  0  0  0  0  0  0  0  0  0  0  0
  159.1996  143.2948  180.0164 C   0  0  0  0  0  0  0  0  0  0  0  0
  159.0421  144.2975  181.0620 C   0  0  0  0  0  0  0  0  0  0  0  0
  157.8738  144.3767  181.8562 N   0  0  0  0  0  0  0  0  0  0  0  0
  157.5970  142.0424  179.5583 H   0  0  0  0  0  0  0  0  0  0  0  0
  157.6256  145.2954  182.2784 H   0  0  0  0  0  0  0  0  0  0  0  0
  149.5459  138.9707  181.2207 C   0  0  0  0  0  0  0  0  0  0  0  0
  146.9508  138.4316  179.4841 C   0  0  0  0  0  0  0  0  0  0  0  0
  148.0012  137.3689  179.8844 C   0  0  0  0  0  0  0  0  0  0  0  0
  148.9142  137.7149  180.8258 C   0  0  0  0  0  0  0  0  0  0  0  0
  149.7363  136.1418  181.0604 S   0  0  0  0  0  0  0  0  0  0  0  0
  148.8629  135.2154  179.9333 C   0  0  0  0  0  0  0  0  0  0  0  0
  148.9551  133.8886  179.4787 C   0  0  0  0  0  0  0  0  0  0  0  0
  148.1366  133.4094  178.4883 C   0  0  0  0  0  0  0  0  0  0  0  0
  147.2249  134.3189  177.9816 C   0  0  0  0  0  0  0  0  0  0  0  0
  147.1309  135.5854  178.4077 C   0  0  0  0  0  0  0  0  0  0  0  0
  147.9693  136.1037  179.4221 C   0  0  0  0  0  0  0  0  0  0  0  0
 21 22  1  0  0  0
 22 23  2  0  0  0
 23 20  1  0  0  0
 20  1  1  0  0  0
  1  2  1  0  0  0
  1  3  1  0  0  0
  3  4  2  0  0  0
  3  5  1  0  0  0
  5  6  2  0  0  0
  6  7  1  0  0  0
  7  8  2  0  0  0
  8  9  1  0  0  0
  9 10  2  0  0  0
 10 11  1  0  0  0
 11 12  2  0  0  0
 11 13  1  0  0  0
 13 14  1  0  0  0
 14 15  1  0  0  0
 15 16  1  0  0  0
 16 17  1  0  0  0
 23 24  1  0  0  0
 24 25  1  0  0  0
 25 26  2  0  0  0
 26 27  1  0  0  0
 27 28  2  0  0  0
 28 29  1  0  0  0
 29 30  2  0  0  0
 30 22  1  0  0  0
 12  7  1  0  0  0
 30 25  1  0  0  0
 17 10  1  0  0  0
 14 18  1  0  0  0
 17 19  1  0  0  0
M  END
> <minimizedAffinity>
-7.41583

> <CNNscore>
0.2583668232

> <CNNaffinity>
5.8470697403

> <CNN_VS>
1.5106887817

> <CNNaffinity_variance>
0.0597371645

$$$$
[H]/C(C(=O)N(C([H])([H])[H])C([H])([H])c1sc2c([H])c([H])c([H])c([H])c2c1C([H])([H])[H])=C(/[H])c1c([H])nc2c(c1[H])C([H])([H])N([H])C([H])([H])C([H])([H])N2[H]


 30 33  0  0  0  0  0  0  0  0999 V2000
  155.3733  141.7757  182.7493 N   0  0  0  0  0  0  0  0  0  0  0  0
  155.5858  142.3182  184.0638 C   0  0  0  0  0  0  0  0  0  0  0  0
  156.5814  141.5240  181.9476 C   0  0  0  0  0  0  0  0  0  0  0  0
  156.5447  141.3803  180.7256 O   0  0  0  0  0  0  0  0  0  0  0  0
  157.8393  141.3859  182.6720 C   0  0  0  0  0  0  0  0  0  0  0  0
  158.5470  142.5189  182.8080 C   0  0  0  0  0  0  0  0  0  0  0  0
  159.8473  142.5457  183.5033 C   0  0  0  0  0  0  0  0  0  0  0  0
  160.8193  141.6375  183.1477 C   0  0  0  0  0  0  0  0  0  0  0  0
  161.9922  141.4930  183.8512 N   0  0  0  0  0  0  0  0  0  0  0  0
  162.1803  142.2770  184.9255 C   0  0  0  0  0  0  0  0  0  0  0  0
  161.2167  143.2000  185.2840 C   0  0  0  0  0  0  0  0  0  0  0  0
  160.0450  143.3459  184.5857 C   0  0  0  0  0  0  0  0  0  0  0  0
  161.3524  144.1332  186.4507 C   0  0  0  0  0  0  0  0  0  0  0  0
  161.4221  143.2582  187.5874 N   0  0  0  0  0  0  0  0  0  0  0  0
  162.6914  142.7763  187.9500 C   0  0  0  0  0  0  0  0  0  0  0  0
  163.7125  142.4043  186.9791 C   0  0  0  0  0  0  0  0  0  0  0  0
  163.3846  141.9857  185.6680 N   0  0  0  0  0  0  0  0  0  0  0  0
  160.6808  142.5293  187.4568 H   0  0  0  0  0  0  0  0  0  0  0  0
  164.0544  141.3668  185.1657 H   0  0  0  0  0  0  0  0  0  0  0  0
  154.1711  141.5387  182.1379 C   0  0  0  0  0  0  0  0  0  0  0  0
  154.0224  138.9799  184.0012 C   0  0  0  0  0  0  0  0  0  0  0  0
  153.0907  139.2737  182.8018 C   0  0  0  0  0  0  0  0  0  0  0  0
  153.4429  140.2844  181.9686 C   0  0  0  0  0  0  0  0  0  0  0  0
  152.1984  140.0915  180.6960 S   0  0  0  0  0  0  0  0  0  0  0  0
  151.3483  138.7740  181.3539 C   0  0  0  0  0  0  0  0  0  0  0  0
  150.1906  138.0718  180.9765 C   0  0  0  0  0  0  0  0  0  0  0  0
  149.6791  137.0607  181.7488 C   0  0  0  0  0  0  0  0  0  0  0  0
  150.3827  136.7876  182.9089 C   0  0  0  0  0  0  0  0  0  0  0  0
  151.4858  137.4523  183.2770 C   0  0  0  0  0  0  0  0  0  0  0  0
  152.0270  138.5036  182.5007 C   0  0  0  0  0  0  0  0  0  0  0  0
 21 22  1  0  0  0
 22 23  2  0  0  0
 23 20  1  0  0  0
 20  1  1  0  0  0
  1  2  1  0  0  0
  1  3  1  0  0  0
  3  4  2  0  0  0
  3  5  1  0  0  0
  5  6  2  0  0  0
  6  7  1  0  0  0
  7  8  2  0  0  0
  8  9  1  0  0  0
  9 10  2  0  0  0
 10 11  1  0  0  0
 11 12  2  0  0  0
 11 13  1  0  0  0
 13 14  1  0  0  0
 14 15  1  0  0  0
 15 16  1  0  0  0
 16 17  1  0  0  0
 23 24  1  0  0  0
 24 25  1  0  0  0
 25 26  2  0  0  0
 26 27  1  0  0  0
 27 28  2  0  0  0
 28 29  1  0  0  0
 29 30  2  0  0  0
 30 22  1  0  0  0
 12  7  1  0  0  0
 30 25  1  0  0  0
 17 10  1  0  0  0
 14 18  1  0  0  0
 17 19  1  0  0  0
M  END
> <minimizedAffinity>
-7.24610

> <CNNscore>
0.2252242267

> <CNNaffinity>
6.5005583763

> <CNN_VS>
1.4640831947

> <CNNaffinity_variance>
0.1030943841

$$$$
[H]/C(C(=O)N(C([H])([H])[H])C([H])([H])c1sc2c([H])c([H])c([H])c([H])c2c1C([H])([H])[H])=C(/[H])c1c([H])nc2c(c1[H])C([H])([H])N([H])C([H])([H])C([H])([H])N2[H]


 30 33  0  0  0  0  0  0  0  0999 V2000
  153.8536  138.1044  187.0469 N   0  0  0  0  0  0  0  0  0  0  0  0
  152.4168  138.1536  187.0629 C   0  0  0  0  0  0  0  0  0  0  0  0
  154.5073  137.8018  188.3302 C   0  0  0  0  0  0  0  0  0  0  0  0
  155.6956  138.0457  188.5395 O   0  0  0  0  0  0  0  0  0  0  0  0
  153.6991  137.1331  189.3430 C   0  0  0  0  0  0  0  0  0  0  0  0
  154.3944  136.4898  190.2947 C   0  0  0  0  0  0  0  0  0  0  0  0
  153.7257  135.7530  191.3833 C   0  0  0  0  0  0  0  0  0  0  0  0
  154.1055  134.4567  191.6508 C   0  0  0  0  0  0  0  0  0  0  0  0
  153.4270  133.6530  192.5368 N   0  0  0  0  0  0  0  0  0  0  0  0
  152.3530  134.1692  193.1567 C   0  0  0  0  0  0  0  0  0  0  0  0
  151.9704  135.4727  192.9046 C   0  0  0  0  0  0  0  0  0  0  0  0
  152.6438  136.2769  192.0205 C   0  0  0  0  0  0  0  0  0  0  0  0
  150.8022  136.1397  193.5687 C   0  0  0  0  0  0  0  0  0  0  0  0
  149.6714  135.3660  193.1383 N   0  0  0  0  0  0  0  0  0  0  0  0
  149.3372  134.2361  193.9043 C   0  0  0  0  0  0  0  0  0  0  0  0
  150.3306  133.3600  194.5117 C   0  0  0  0  0  0  0  0  0  0  0  0
  151.6367  133.2267  193.9844 N   0  0  0  0  0  0  0  0  0  0  0  0
  149.7902  135.1981  192.1109 H   0  0  0  0  0  0  0  0  0  0  0  0
  152.1555  132.3432  194.1691 H   0  0  0  0  0  0  0  0  0  0  0  0
  154.6779  138.3803  185.9887 C   0  0  0  0  0  0  0  0  0  0  0  0
  153.5717  136.3346  183.8363 C   0  0  0  0  0  0  0  0  0  0  0  0
  153.6306  137.8714  183.6687 C   0  0  0  0  0  0  0  0  0  0  0  0
  154.3515  138.5730  184.5785 C   0  0  0  0  0  0  0  0  0  0  0  0
  154.2659  140.2083  183.8547 S   0  0  0  0  0  0  0  0  0  0  0  0
  153.3123  139.8465  182.4942 C   0  0  0  0  0  0  0  0  0  0  0  0
  152.7510  140.6177  181.4617 C   0  0  0  0  0  0  0  0  0  0  0  0
  151.9502  140.0574  180.4998 C   0  0  0  0  0  0  0  0  0  0  0  0
  151.7439  138.6944  180.6210 C   0  0  0  0  0  0  0  0  0  0  0  0
  152.2737  137.9520  181.6021 C   0  0  0  0  0  0  0  0  0  0  0  0
  153.0958  138.5091  182.6092 C   0  0  0  0  0  0  0  0  0  0  0  0
 21 22  1  0  0  0
 22 23  2  0  0  0
 23 20  1  0  0  0
 20  1  1  0  0  0
  1  2  1  0  0  0
  1  3  1  0  0  0
  3  4  2  0  0  0
  3  5  1  0  0  0
  5  6  2  0  0  0
  6  7  1  0  0  0
  7  8  2  0  0  0
  8  9  1  0  0  0
  9 10  2  0  0  0
 10 11  1  0  0  0
 11 12  2  0  0  0
 11 13  1  0  0  0
 13 14  1  0  0  0
 14 15  1  0  0  0
 15 16  1  0  0  0
 16 17  1  0  0  0
 23 24  1  0  0  0
 24 25  1  0  0  0
 25 26  2  0  0  0
 26 27  1  0  0  0
 27 28  2  0  0  0
 28 29  1  0  0  0
 29 30  2  0  0  0
 30 22  1  0  0  0
 12  7  1  0  0  0
 30 25  1  0  0  0
 17 10  1  0  0  0
 14 18  1  0  0  0
 17 19  1  0  0  0
M  END
> <minimizedAffinity>
-6.76250

> <CNNscore>
0.2205820382

> <CNNaffinity>
5.0805821419

> <CNN_VS>
1.1206852198

> <CNNaffinity_variance>
0.0587957278

$$$$
[H]/C(C(=O)N(C([H])([H])[H])C([H])([H])c1sc2c([H])c([H])c([H])c([H])c2c1C([H])([H])[H])=C(/[H])c1c([H])nc2c(c1[H])C([H])([H])N([H])C([H])([H])C([H])([H])N2[H]


 30 33  0  0  0  0  0  0  0  0999 V2000
  155.8813  140.8809  183.7869 N   0  0  0  0  0  0  0  0  0  0  0  0
  155.8345  139.4760  184.0890 C   0  0  0  0  0  0  0  0  0  0  0  0
  154.9009  141.3666  182.8027 C   0  0  0  0  0  0  0  0  0  0  0  0
  155.0317  142.4402  182.2149 O   0  0  0  0  0  0  0  0  0  0  0  0
  153.7146  140.5457  182.5900 C   0  0  0  0  0  0  0  0  0  0  0  0
  153.1809  140.6218  181.3603 C   0  0  0  0  0  0  0  0  0  0  0  0
  151.9718  139.8636  180.9883 C   0  0  0  0  0  0  0  0  0  0  0  0
  151.5329  139.8951  179.6835 C   0  0  0  0  0  0  0  0  0  0  0  0
  150.3329  139.3493  179.2915 N   0  0  0  0  0  0  0  0  0  0  0  0
  149.5713  138.7667  180.2321 C   0  0  0  0  0  0  0  0  0  0  0  0
  150.0078  138.7191  181.5421 C   0  0  0  0  0  0  0  0  0  0  0  0
  151.2034  139.2636  181.9371 C   0  0  0  0  0  0  0  0  0  0  0  0
  149.2373  138.0675  182.6522 C   0  0  0  0  0  0  0  0  0  0  0  0
  148.0246  138.8333  182.7274 N   0  0  0  0  0  0  0  0  0  0  0  0
  146.9645  138.4410  181.8924 C   0  0  0  0  0  0  0  0  0  0  0  0
  147.1562  137.9551  180.5320 C   0  0  0  0  0  0  0  0  0  0  0  0
  148.2830  138.3181  179.7571 N   0  0  0  0  0  0  0  0  0  0  0  0
  148.2977  139.8431  182.6692 H   0  0  0  0  0  0  0  0  0  0  0  0
  148.1943  138.3022  178.7200 H   0  0  0  0  0  0  0  0  0  0  0  0
  156.7833  141.7975  184.2578 C   0  0  0  0  0  0  0  0  0  0  0  0
  159.3558  140.9380  182.6193 C   0  0  0  0  0  0  0  0  0  0  0  0
  159.3562  141.5221  184.0517 C   0  0  0  0  0  0  0  0  0  0  0  0
  158.1641  141.6076  184.6930 C   0  0  0  0  0  0  0  0  0  0  0  0
  158.7147  142.1396  186.3115 S   0  0  0  0  0  0  0  0  0  0  0  0
  160.3859  142.2228  186.0090 C   0  0  0  0  0  0  0  0  0  0  0  0
  161.4970  142.6286  186.7682 C   0  0  0  0  0  0  0  0  0  0  0  0
  162.7611  142.6515  186.2371 C   0  0  0  0  0  0  0  0  0  0  0  0
  162.8563  142.2470  184.9170 C   0  0  0  0  0  0  0  0  0  0  0  0
  161.8029  141.8600  184.1857 C   0  0  0  0  0  0  0  0  0  0  0  0
  160.4893  141.8357  184.7096 C   0  0  0  0  0  0  0  0  0  0  0  0
 21 22  1  0  0  0
 22 23  2  0  0  0
 23 20  1  0  0  0
 20  1  1  0  0  0
  1  2  1  0  0  0
  1  3  1  0  0  0
  3  4  2  0  0  0
  3  5  1  0  0  0
  5  6  2  0  0  0
  6  7  1  0  0  0
  7  8  2  0  0  0
  8  9  1  0  0  0
  9 10  2  0  0  0
 10 11  1  0  0  0
 11 12  2  0  0  0
 11 13  1  0  0  0
 13 14  1  0  0  0
 14 15  1  0  0  0
 15 16  1  0  0  0
 16 17  1  0  0  0
 23 24  1  0  0  0
 24 25  1  0  0  0
 25 26  2  0  0  0
 26 27  1  0  0  0
 27 28  2  0  0  0
 28 29  1  0  0  0
 29 30  2  0  0  0
 30 22  1  0  0  0
 12  7  1  0  0  0
 30 25  1  0  0  0
 17 10  1  0  0  0
 14 18  1  0  0  0
 17 19  1  0  0  0
M  END
> <minimizedAffinity>
-9.13569

> <CNNscore>
0.2117915601

> <CNNaffinity>
5.8707261086

> <CNN_VS>
1.2433702946

> <CNNaffinity_variance>
0.0118577462

$$$$
[H]/C(C(=O)N(C([H])([H])[H])C([H])([H])c1sc2c([H])c([H])c([H])c([H])c2c1C([H])([H])[H])=C(/[H])c1c([H])nc2c(c1[H])C([H])([H])N([H])C([H])([H])C([H])([H])N2[H]


 30 33  0  0  0  0  0  0  0  0999 V2000
  153.4315  140.2014  182.5478 N   0  0  0  0  0  0  0  0  0  0  0  0
  152.6430  140.4413  181.3698 C   0  0  0  0  0  0  0  0  0  0  0  0
  153.2207  138.9083  183.2181 C   0  0  0  0  0  0  0  0  0  0  0  0
  153.5654  138.7041  184.3820 O   0  0  0  0  0  0  0  0  0  0  0  0
  152.6348  137.8374  182.4207 C   0  0  0  0  0  0  0  0  0  0  0  0
  152.9024  136.5938  182.8506 C   0  0  0  0  0  0  0  0  0  0  0  0
  152.3951  135.4010  182.1470 C   0  0  0  0  0  0  0  0  0  0  0  0
  153.2906  134.5296  181.5684 C   0  0  0  0  0  0  0  0  0  0  0  0
  152.8958  133.4870  180.7629 N   0  0  0  0  0  0  0  0  0  0  0  0
  151.5805  133.3276  180.5423 C   0  0  0  0  0  0  0  0  0  0  0  0
  150.6728  134.1891  181.1277 C   0  0  0  0  0  0  0  0  0  0  0  0
  151.0628  135.2309  181.9305 C   0  0  0  0  0  0  0  0  0  0  0  0
  149.1867  134.0719  180.9586 C   0  0  0  0  0  0  0  0  0  0  0  0
  148.9820  134.2702  179.5510 N   0  0  0  0  0  0  0  0  0  0  0  0
  149.0676  133.1375  178.7237 C   0  0  0  0  0  0  0  0  0  0  0  0
  150.0309  132.0646  178.9346 C   0  0  0  0  0  0  0  0  0  0  0  0
  151.2604  132.2799  179.6008 N   0  0  0  0  0  0  0  0  0  0  0  0
  149.5779  135.0842  179.2681 H   0  0  0  0  0  0  0  0  0  0  0  0
  152.0570  131.6459  179.3833 H   0  0  0  0  0  0  0  0  0  0  0  0
  154.2989  141.0715  183.1526 C   0  0  0  0  0  0  0  0  0  0  0  0
  156.0380  143.6087  182.3914 C   0  0  0  0  0  0  0  0  0  0  0  0
  156.5902  142.2731  182.9431 C   0  0  0  0  0  0  0  0  0  0  0  0
  155.7424  141.2153  182.9858 C   0  0  0  0  0  0  0  0  0  0  0  0
  156.8744  139.9248  183.4944 S   0  0  0  0  0  0  0  0  0  0  0  0
  158.2934  140.8526  183.6240 C   0  0  0  0  0  0  0  0  0  0  0  0
  159.6074  140.5753  184.0389 C   0  0  0  0  0  0  0  0  0  0  0  0
  160.5632  141.5565  184.1037 C   0  0  0  0  0  0  0  0  0  0  0  0
  160.1405  142.8206  183.7313 C   0  0  0  0  0  0  0  0  0  0  0  0
  158.8903  143.0943  183.3359 C   0  0  0  0  0  0  0  0  0  0  0  0
  157.8861  142.1003  183.2687 C   0  0  0  0  0  0  0  0  0  0  0  0
 21 22  1  0  0  0
 22 23  2  0  0  0
 23 20  1  0  0  0
 20  1  1  0  0  0
  1  2  1  0  0  0
  1  3  1  0  0  0
  3  4  2  0  0  0
  3  5  1  0  0  0
  5  6  2  0  0  0
  6  7  1  0  0  0
  7  8  2  0  0  0
  8  9  1  0  0  0
  9 10  2  0  0  0
 10 11  1  0  0  0
 11 12  2  0  0  0
 11 13  1  0  0  0
 13 14  1  0  0  0
 14 15  1  0  0  0
 15 16  1  0  0  0
 16 17  1  0  0  0
 23 24  1  0  0  0
 24 25  1  0  0  0
 25 26  2  0  0  0
 26 27  1  0  0  0
 27 28  2  0  0  0
 28 29  1  0  0  0
 29 30  2  0  0  0
 30 22  1  0  0  0
 12  7  1  0  0  0
 30 25  1  0  0  0
 17 10  1  0  0  0
 14 18  1  0  0  0
 17 19  1  0  0  0
M  END
> <minimizedAffinity>
-6.40658

> <CNNscore>
0.2031133026

> <CNNaffinity>
5.6435327530

> <CNN_VS>
1.1462765932

> <CNNaffinity_variance>
0.0996756554

$$$$
[H]/C(C(=O)N(C([H])([H])[H])C([H])([H])c1sc2c([H])c([H])c([H])c([H])c2c1C([H])([H])[H])=C(/[H])c1c([H])nc2c(c1[H])C([H])([H])N([H])C([H])([H])C([H])([H])N2[H]


 30 33  0  0  0  0  0  0  0  0999 V2000
  154.0681  139.6573  183.6425 N   0  0  0  0  0  0  0  0  0  0  0  0
  154.1851  138.2881  184.0652 C   0  0  0  0  0  0  0  0  0  0  0  0
  153.1273  139.9189  182.5415 C   0  0  0  0  0  0  0  0  0  0  0  0
  153.1651  140.9511  181.8719 O   0  0  0  0  0  0  0  0  0  0  0  0
  152.0893  138.9219  182.3072 C   0  0  0  0  0  0  0  0  0  0  0  0
  151.4663  139.0145  181.1213 C   0  0  0  0  0  0  0  0  0  0  0  0
  150.3840  138.0896  180.7364 C   0  0  0  0  0  0  0  0  0  0  0  0
  150.5318  136.7424  180.9799 C   0  0  0  0  0  0  0  0  0  0  0  0
  149.6448  135.8022  180.5101 N   0  0  0  0  0  0  0  0  0  0  0  0
  148.5986  136.2330  179.7862 C   0  0  0  0  0  0  0  0  0  0  0  0
  148.4343  137.5836  179.5462 C   0  0  0  0  0  0  0  0  0  0  0  0
  149.3176  138.5242  180.0119 C   0  0  0  0  0  0  0  0  0  0  0  0
  147.2843  138.1567  178.7716 C   0  0  0  0  0  0  0  0  0  0  0  0
  147.4381  137.5960  177.4584 N   0  0  0  0  0  0  0  0  0  0  0  0
  146.8467  136.3434  177.2216 C   0  0  0  0  0  0  0  0  0  0  0  0
  146.8137  135.2751  178.2121 C   0  0  0  0  0  0  0  0  0  0  0  0
  147.7796  135.1752  179.2411 N   0  0  0  0  0  0  0  0  0  0  0  0
  148.4535  137.6718  177.2116 H   0  0  0  0  0  0  0  0  0  0  0  0
  147.9690  134.2370  179.6506 H   0  0  0  0  0  0  0  0  0  0  0  0
  154.7884  140.7278  184.1011 C   0  0  0  0  0  0  0  0  0  0  0  0
  157.5895  139.5202  183.2429 C   0  0  0  0  0  0  0  0  0  0  0  0
  157.0694  140.9309  182.8789 C   0  0  0  0  0  0  0  0  0  0  0  0
  155.9633  141.3761  183.5254 C   0  0  0  0  0  0  0  0  0  0  0  0
  155.8964  143.0574  182.9136 S   0  0  0  0  0  0  0  0  0  0  0  0
  157.2531  143.0210  181.8891 C   0  0  0  0  0  0  0  0  0  0  0  0
  157.8293  143.9429  180.9981 C   0  0  0  0  0  0  0  0  0  0  0  0
  158.9184  143.6171  180.2312 C   0  0  0  0  0  0  0  0  0  0  0  0
  159.4004  142.3312  180.4028 C   0  0  0  0  0  0  0  0  0  0  0  0
  158.8569  141.4458  181.2484 C   0  0  0  0  0  0  0  0  0  0  0  0
  157.7291  141.7567  182.0434 C   0  0  0  0  0  0  0  0  0  0  0  0
 21 22  1  0  0  0
 22 23  2  0  0  0
 23 20  1  0  0  0
 20  1  1  0  0  0
  1  2  1  0  0  0
  1  3  1  0  0  0
  3  4  2  0  0  0
  3  5  1  0  0  0
  5  6  2  0  0  0
  6  7  1  0  0  0
  7  8  2  0  0  0
  8  9  1  0  0  0
  9 10  2  0  0  0
 10 11  1  0  0  0
 11 12  2  0  0  0
 11 13  1  0  0  0
 13 14  1  0  0  0
 14 15  1  0  0  0
 15 16  1  0  0  0
 16 17  1  0  0  0
 23 24  1  0  0  0
 24 25  1  0  0  0
 25 26  2  0  0  0
 26 27  1  0  0  0
 27 28  2  0  0  0
 28 29  1  0  0  0
 29 30  2  0  0  0
 30 22  1  0  0  0
 12  7  1  0  0  0
 30 25  1  0  0  0
 17 10  1  0  0  0
 14 18  1  0  0  0
 17 19  1  0  0  0
M  END
> <minimizedAffinity>
-7.29118

> <CNNscore>
0.2027876228

> <CNNaffinity>
5.5214953423

> <CNN_VS>
1.1196908951

> <CNNaffinity_variance>
0.0633947626

$$$$
[H]/C(C(=O)N(C([H])([H])[H])C([H])([H])c1sc2c([H])c([H])c([H])c([H])c2c1C([H])([H])[H])=C(/[H])c1c([H])nc2c(c1[H])C([H])([H])N([H])C([H])([H])C([H])([H])N2[H]


 30 33  0  0  0  0  0  0  0  0999 V2000
  152.2737  136.5926  185.6321 N   0  0  0  0  0  0  0  0  0  0  0  0
  151.0909  135.8983  186.0632 C   0  0  0  0  0  0  0  0  0  0  0  0
  153.1515  137.1033  186.6972 C   0  0  0  0  0  0  0  0  0  0  0  0
  153.9963  137.9756  186.4950 O   0  0  0  0  0  0  0  0  0  0  0  0
  153.0264  136.4841  188.0114 C   0  0  0  0  0  0  0  0  0  0  0  0
  153.1461  137.3243  189.0519 C   0  0  0  0  0  0  0  0  0  0  0  0
  153.0573  136.8535  190.4467 C   0  0  0  0  0  0  0  0  0  0  0  0
  154.1936  136.3965  191.0761 C   0  0  0  0  0  0  0  0  0  0  0  0
  154.1654  135.7955  192.3128 N   0  0  0  0  0  0  0  0  0  0  0  0
  152.9734  135.6566  192.9162 C   0  0  0  0  0  0  0  0  0  0  0  0
  151.8286  136.1225  192.2987 C   0  0  0  0  0  0  0  0  0  0  0  0
  151.8525  136.7211  191.0646 C   0  0  0  0  0  0  0  0  0  0  0  0
  150.4604  136.0338  192.9078 C   0  0  0  0  0  0  0  0  0  0  0  0
  150.2276  134.6220  193.0313 N   0  0  0  0  0  0  0  0  0  0  0  0
  150.6838  133.9960  194.2038 C   0  0  0  0  0  0  0  0  0  0  0  0
  151.9348  134.3480  194.8629 C   0  0  0  0  0  0  0  0  0  0  0  0
  153.0200  134.9196  194.1576 N   0  0  0  0  0  0  0  0  0  0  0  0
  150.5379  134.1821  192.1324 H   0  0  0  0  0  0  0  0  0  0  0  0
  153.9807  134.7818  194.5343 H   0  0  0  0  0  0  0  0  0  0  0  0
  152.6322  136.8933  184.3451 C   0  0  0  0  0  0  0  0  0  0  0  0
  153.5569  139.5920  182.9656 C   0  0  0  0  0  0  0  0  0  0  0  0
  152.3592  138.7197  182.5209 C   0  0  0  0  0  0  0  0  0  0  0  0
  151.9561  137.7347  183.3617 C   0  0  0  0  0  0  0  0  0  0  0  0
  150.4836  137.1765  182.5098 S   0  0  0  0  0  0  0  0  0  0  0  0
  150.5388  138.2236  181.1711 C   0  0  0  0  0  0  0  0  0  0  0  0
  149.7611  138.3648  180.0088 C   0  0  0  0  0  0  0  0  0  0  0  0
  150.0786  139.2800  179.0381 C   0  0  0  0  0  0  0  0  0  0  0  0
  151.2048  140.0440  179.2899 C   0  0  0  0  0  0  0  0  0  0  0  0
  151.9523  139.9153  180.3940 C   0  0  0  0  0  0  0  0  0  0  0  0
  151.6488  138.9733  181.4045 C   0  0  0  0  0  0  0  0  0  0  0  0
 21 22  1  0  0  0
 22 23  2  0  0  0
 23 20  1  0  0  0
 20  1  1  0  0  0
  1  2  1  0  0  0
  1  3  1  0  0  0
  3  4  2  0  0  0
  3  5  1  0  0  0
  5  6  2  0  0  0
  6  7  1  0  0  0
  7  8  2  0  0  0
  8  9  1  0  0  0
  9 10  2  0  0  0
 10 11  1  0  0  0
 11 12  2  0  0  0
 11 13  1  0  0  0
 13 14  1  0  0  0
 14 15  1  0  0  0
 15 16  1  0  0  0
 16 17  1  0  0  0
 23 24  1  0  0  0
 24 25  1  0  0  0
 25 26  2  0  0  0
 26 27  1  0  0  0
 27 28  2  0  0  0
 28 29  1  0  0  0
 29 30  2  0  0  0
 30 22  1  0  0  0
 12  7  1  0  0  0
 30 25  1  0  0  0
 17 10  1  0  0  0
 14 18  1  0  0  0
 17 19  1  0  0  0
M  END
> <minimizedAffinity>
-7.00221

> <CNNscore>
0.1896954775

> <CNNaffinity>
5.0038919449

> <CNN_VS>
0.9492156506

> <CNNaffinity_variance>
0.0753204077

$$$$
[H]/C(C(=O)N(C([H])([H])[H])C([H])([H])c1sc2c([H])c([H])c([H])c([H])c2c1C([H])([H])[H])=C(/[H])c1c([H])nc2c(c1[H])C([H])([H])N([H])C([H])([H])C([H])([H])N2[H]


 30 33  0  0  0  0  0  0  0  0999 V2000
  153.2728  140.4474  182.3765 N   0  0  0  0  0  0  0  0  0  0  0  0
  153.7867  139.2337  182.9509 C   0  0  0  0  0  0  0  0  0  0  0  0
  154.0361  141.6736  182.6588 C   0  0  0  0  0  0  0  0  0  0  0  0
  153.5546  142.7978  182.5195 O   0  0  0  0  0  0  0  0  0  0  0  0
  155.4292  141.5088  183.0567 C   0  0  0  0  0  0  0  0  0  0  0  0
  156.3228  142.1469  182.2839 C   0  0  0  0  0  0  0  0  0  0  0  0
  157.7724  142.0701  182.5444 C   0  0  0  0  0  0  0  0  0  0  0  0
  158.4502  140.9108  182.2400 C   0  0  0  0  0  0  0  0  0  0  0  0
  159.7619  140.7031  182.5975 N   0  0  0  0  0  0  0  0  0  0  0  0
  160.3913  141.6804  183.2705 C   0  0  0  0  0  0  0  0  0  0  0  0
  159.7240  142.8525  183.5705 C   0  0  0  0  0  0  0  0  0  0  0  0
  158.4154  143.0627  183.2168 C   0  0  0  0  0  0  0  0  0  0  0  0
  160.3536  144.0058  184.2945 C   0  0  0  0  0  0  0  0  0  0  0  0
  160.6851  143.4658  185.5834 N   0  0  0  0  0  0  0  0  0  0  0  0
  161.9319  142.8305  185.7122 C   0  0  0  0  0  0  0  0  0  0  0  0
  162.5194  142.0034  184.6661 C   0  0  0  0  0  0  0  0  0  0  0  0
  161.7268  141.3380  183.7014 N   0  0  0  0  0  0  0  0  0  0  0  0
  159.8572  142.9084  185.9024 H   0  0  0  0  0  0  0  0  0  0  0  0
  162.1097  140.4783  183.2562 H   0  0  0  0  0  0  0  0  0  0  0  0
  152.1149  140.5969  181.6606 C   0  0  0  0  0  0  0  0  0  0  0  0
  150.7489  137.8832  182.5611 C   0  0  0  0  0  0  0  0  0  0  0  0
  150.5223  138.5978  181.2079 C   0  0  0  0  0  0  0  0  0  0  0  0
  151.3636  139.6123  180.8873 C   0  0  0  0  0  0  0  0  0  0  0  0
  150.8224  139.9537  179.2151 S   0  0  0  0  0  0  0  0  0  0  0  0
  149.5776  138.8011  179.0987 C   0  0  0  0  0  0  0  0  0  0  0  0
  148.6278  138.4854  178.1119 C   0  0  0  0  0  0  0  0  0  0  0  0
  147.6744  137.5207  178.3141 C   0  0  0  0  0  0  0  0  0  0  0  0
  147.7219  136.8897  179.5449 C   0  0  0  0  0  0  0  0  0  0  0  0
  148.6225  137.1849  180.4915 C   0  0  0  0  0  0  0  0  0  0  0  0
  149.6098  138.1811  180.3085 C   0  0  0  0  0  0  0  0  0  0  0  0
 21 22  1  0  0  0
 22 23  2  0  0  0
 23 20  1  0  0  0
 20  1  1  0  0  0
  1  2  1  0  0  0
  1  3  1  0  0  0
  3  4  2  0  0  0
  3  5  1  0  0  0
  5  6  2  0  0  0
  6  7  1  0  0  0
  7  8  2  0  0  0
  8  9  1  0  0  0
  9 10  2  0  0  0
 10 11  1  0  0  0
 11 12  2  0  0  0
 11 13  1  0  0  0
 13 14  1  0  0  0
 14 15  1  0  0  0
 15 16  1  0  0  0
 16 17  1  0  0  0
 23 24  1  0  0  0
 24 25  1  0  0  0
 25 26  2  0  0  0
 26 27  1  0  0  0
 27 28  2  0  0  0
 28 29  1  0  0  0
 29 30  2  0  0  0
 30 22  1  0  0  0
 12  7  1  0  0  0
 30 25  1  0  0  0
 17 10  1  0  0  0
 14 18  1  0  0  0
 17 19  1  0  0  0
M  END
> <minimizedAffinity>
-8.48468

> <CNNscore>
0.1798380911

> <CNNaffinity>
6.1020169258

> <CNN_VS>
1.0973750353

> <CNNaffinity_variance>
0.0287150480

$$$$
[H]c1c([H])c([H])c(C([H])([H])N(C([H])([H])[H])C([H])([H])C([H])([H])OC(=O)C2=C(C([H])([H])[H])N=C(C([H])([H])[H])C([H])(C(=O)OC([H])([H])[H])C2([H])c2c([H])c([H])c([H])c([N+](=O)[O-])c2[H])c([H])c1[H]


 35 37  0  0  0  0  0  0  0  0999 V2000
  158.2384  143.5526  182.1104 C   0  0  0  0  0  0  0  0  0  0  0  0
  159.2081  144.0877  183.0717 C   0  0  0  0  0  0  0  0  0  0  0  0
  159.7987  145.4497  182.7448 C   0  0  0  0  0  0  0  0  0  0  0  0
  159.5879  143.5260  184.1306 N   0  0  0  0  0  0  0  0  0  0  0  0
  159.0822  142.2602  184.5075 C   0  0  0  0  0  0  0  0  0  0  0  0
  159.6144  141.6582  185.7813 C   0  0  0  0  0  0  0  0  0  0  0  0
  158.1959  141.6593  183.7416 C   0  0  0  0  0  0  0  0  0  0  0  0
  157.6562  142.2714  182.4862 C   0  0  0  0  0  0  0  0  0  0  0  0
  156.1678  142.3168  182.6104 C   0  0  0  0  0  0  0  0  0  0  0  0
  155.4974  143.3640  183.1798 C   0  0  0  0  0  0  0  0  0  0  0  0
  154.1197  143.3840  183.2601 C   0  0  0  0  0  0  0  0  0  0  0  0
  153.3911  142.3144  182.7504 C   0  0  0  0  0  0  0  0  0  0  0  0
  154.0620  141.2492  182.1718 C   0  0  0  0  0  0  0  0  0  0  0  0
  155.4430  141.2660  182.1102 C   0  0  0  0  0  0  0  0  0  0  0  0
  153.2977  140.1697  181.6583 N   0  0  0  0  0  0  0  0  0  0  0  0
  153.0829  139.1953  182.3961 O   0  0  0  0  0  0  0  0  0  0  0  0
  152.7890  140.1551  180.3905 O   0  0  0  0  0  0  0  0  0  0  0  0
  158.9705  143.4917  180.7876 C   0  0  0  0  0  0  0  0  0  0  0  0
  159.4844  144.4851  180.2741 O   0  0  0  0  0  0  0  0  0  0  0  0
  158.0112  141.8352  179.2832 C   0  0  0  0  0  0  0  0  0  0  0  0
  159.0495  142.2672  180.1571 O   0  0  0  0  0  0  0  0  0  0  0  0
  157.6752  140.3565  184.1240 C   0  0  0  0  0  0  0  0  0  0  0  0
  158.1758  139.3291  183.5273 O   0  0  0  0  0  0  0  0  0  0  0  0
  156.7055  140.0555  185.0517 O   0  0  0  0  0  0  0  0  0  0  0  0
  155.9439  138.8507  184.8598 C   0  0  0  0  0  0  0  0  0  0  0  0
  154.6028  138.9123  185.4723 C   0  0  0  0  0  0  0  0  0  0  0  0
  154.1535  137.8448  186.2700 N   0  0  0  0  0  0  0  0  0  0  0  0
  153.3502  136.8363  185.7417 C   0  0  0  0  0  0  0  0  0  0  0  0
  153.6886  138.3545  187.5305 C   0  0  0  0  0  0  0  0  0  0  0  0
  154.6544  138.2201  188.6381 C   0  0  0  0  0  0  0  0  0  0  0  0
  155.8816  137.5930  188.5243 C   0  0  0  0  0  0  0  0  0  0  0  0
  156.7560  137.4886  189.5846 C   0  0  0  0  0  0  0  0  0  0  0  0
  156.3948  138.0289  190.8035 C   0  0  0  0  0  0  0  0  0  0  0  0
  155.1761  138.6577  190.9365 C   0  0  0  0  0  0  0  0  0  0  0  0
  154.3280  138.7477  189.8714 C   0  0  0  0  0  0  0  0  0  0  0  0
 20 21  1  0  0  0
 21 18  1  0  0  0
 18 19  2  0  0  0
 18  1  1  0  0  0
  1  2  1  0  0  0
  2  3  1  0  0  0
  2  4  2  0  0  0
  4  5  1  0  0  0
  5  6  1  0  0  0
  5  7  2  0  0  0
  7 22  1  0  0  0
 22 23  2  0  0  0
 22 24  1  0  0  0
 24 25  1  0  0  0
 25 26  1  0  0  0
 26 27  1  0  0  0
 27 28  1  0  0  0
 27 29  1  0  0  0
 29 30  1  0  0  0
 30 31  2  0  0  0
 31 32  1  0  0  0
 32 33  2  0  0  0
 33 34  1  0  0  0
 34 35  2  0  0  0
  7  8  1  0  0  0
  8  9  1  0  0  0
  9 10  2  0  0  0
 10 11  1  0  0  0
 11 12  2  0  0  0
 12 13  1  0  0  0
 13 15  1  0  0  0
 15 16  2  0  0  0
 15 17  1  0  0  0
 13 14  2  0  0  0
  8  1  1  0  0  0
 14  9  1  0  0  0
 35 30  1  0  0  0
M  CHG 1  15   1
M  CHG 1  17  -1
M  END
> <minimizedAffinity>
-8.37773

> <CNNscore>
0.5264999270

> <CNNaffinity>
6.6729192734

> <CNN_VS>
3.5132915974

> <CNNaffinity_variance>
0.5330385566

$$$$
[H]c1c([H])c([H])c(C([H])([H])N(C([H])([H])[H])C([H])([H])C([H])([H])OC(=O)C2=C(C([H])([H])[H])N=C(C([H])([H])[H])C([H])(C(=O)OC([H])([H])[H])C2([H])c2c([H])c([H])c([H])c([N+](=O)[O-])c2[H])c([H])c1[H]


 35 37  0  0  0  0  0  0  0  0999 V2000
  156.6351  134.7412  188.5262 C   0  0  0  0  0  0  0  0  0  0  0  0
  155.9207  133.8284  187.6276 C   0  0  0  0  0  0  0  0  0  0  0  0
  156.0659  132.3441  187.9214 C   0  0  0  0  0  0  0  0  0  0  0  0
  155.2062  134.1623  186.6484 N   0  0  0  0  0  0  0  0  0  0  0  0
  155.0175  135.5230  186.3124 C   0  0  0  0  0  0  0  0  0  0  0  0
  154.1630  135.8224  185.1090 C   0  0  0  0  0  0  0  0  0  0  0  0
  155.5947  136.4581  187.0373 C   0  0  0  0  0  0  0  0  0  0  0  0
  156.4276  136.1550  188.2441 C   0  0  0  0  0  0  0  0  0  0  0  0
  155.8408  136.9036  189.3966 C   0  0  0  0  0  0  0  0  0  0  0  0
  156.4705  137.9556  190.0024 C   0  0  0  0  0  0  0  0  0  0  0  0
  155.8911  138.6393  191.0520 C   0  0  0  0  0  0  0  0  0  0  0  0
  154.6355  138.2521  191.5080 C   0  0  0  0  0  0  0  0  0  0  0  0
  153.9901  137.1874  190.9003 C   0  0  0  0  0  0  0  0  0  0  0  0
  154.6033  136.5275  189.8515 C   0  0  0  0  0  0  0  0  0  0  0  0
  152.7099  136.8108  191.3822 N   0  0  0  0  0  0  0  0  0  0  0  0
  152.3714  137.1881  192.5150 O   0  0  0  0  0  0  0  0  0  0  0  0
  151.8352  136.0527  190.6565 O   0  0  0  0  0  0  0  0  0  0  0  0
  158.0912  134.3394  188.4381 C   0  0  0  0  0  0  0  0  0  0  0  0
  158.7635  134.5217  187.4236 O   0  0  0  0  0  0  0  0  0  0  0  0
  159.4282  132.5581  189.4215 C   0  0  0  0  0  0  0  0  0  0  0  0
  158.6595  133.7504  189.5487 O   0  0  0  0  0  0  0  0  0  0  0  0
  155.4056  137.8585  186.6937 C   0  0  0  0  0  0  0  0  0  0  0  0
  154.2874  138.3991  187.0395 O   0  0  0  0  0  0  0  0  0  0  0  0
  156.2670  138.7084  186.0399 O   0  0  0  0  0  0  0  0  0  0  0  0
  155.7641  139.4277  184.9007 C   0  0  0  0  0  0  0  0  0  0  0  0
  156.7870  139.6481  183.8601 C   0  0  0  0  0  0  0  0  0  0  0  0
  157.5728  140.8139  183.8940 N   0  0  0  0  0  0  0  0  0  0  0  0
  157.3626  141.8533  182.9902 C   0  0  0  0  0  0  0  0  0  0  0  0
  158.9549  140.4528  184.0496 C   0  0  0  0  0  0  0  0  0  0  0  0
  159.7389  141.3811  184.8871 C   0  0  0  0  0  0  0  0  0  0  0  0
  159.3253  141.8491  186.1209 C   0  0  0  0  0  0  0  0  0  0  0  0
  160.0884  142.7162  186.8727 C   0  0  0  0  0  0  0  0  0  0  0  0
  161.3088  143.1328  186.3774 C   0  0  0  0  0  0  0  0  0  0  0  0
  161.7380  142.6774  185.1500 C   0  0  0  0  0  0  0  0  0  0  0  0
  160.9637  141.8192  184.4248 C   0  0  0  0  0  0  0  0  0  0  0  0
 20 21  1  0  0  0
 21 18  1  0  0  0
 18 19  2  0  0  0
 18  1  1  0  0  0
  1  2  1  0  0  0
  2  3  1  0  0  0
  2  4  2  0  0  0
  4  5  1  0  0  0
  5  6  1  0  0  0
  5  7  2  0  0  0
  7 22  1  0  0  0
 22 23  2  0  0  0
 22 24  1  0  0  0
 24 25  1  0  0  0
 25 26  1  0  0  0
 26 27  1  0  0  0
 27 28  1  0  0  0
 27 29  1  0  0  0
 29 30  1  0  0  0
 30 31  2  0  0  0
 31 32  1  0  0  0
 32 33  2  0  0  0
 33 34  1  0  0  0
 34 35  2  0  0  0
  7  8  1  0  0  0
  8  9  1  0  0  0
  9 10  2  0  0  0
 10 11  1  0  0  0
 11 12  2  0  0  0
 12 13  1  0  0  0
 13 15  1  0  0  0
 15 16  2  0  0  0
 15 17  1  0  0  0
 13 14  2  0  0  0
  8  1  1  0  0  0
 14  9  1  0  0  0
 35 30  1  0  0  0
M  CHG 1  15   1
M  CHG 1  17  -1
M  END
> <minimizedAffinity>
-7.56533

> <CNNscore>
0.4459339082

> <CNNaffinity>
6.3204369545

> <CNN_VS>
2.8184971809

> <CNNaffinity_variance>
0.0341948569

$$$$
[H]c1c([H])c([H])c(C([H])([H])N(C([H])([H])[H])C([H])([H])C([H])([H])OC(=O)C2=C(C([H])([H])[H])N=C(C([H])([H])[H])C([H])(C(=O)OC([H])([H])[H])C2([H])c2c([H])c([H])c([H])c([N+](=O)[O-])c2[H])c([H])c1[H]


 35 37  0  0  0  0  0  0  0  0999 V2000
  153.1901  137.4858  183.2131 C   0  0  0  0  0  0  0  0  0  0  0  0
  153.3293  136.0382  183.4027 C   0  0  0  0  0  0  0  0  0  0  0  0
  153.1558  135.1770  182.1621 C   0  0  0  0  0  0  0  0  0  0  0  0
  153.5783  135.4544  184.4881 N   0  0  0  0  0  0  0  0  0  0  0  0
  153.7578  136.1849  185.6857 C   0  0  0  0  0  0  0  0  0  0  0  0
  154.0298  135.3953  186.9390 C   0  0  0  0  0  0  0  0  0  0  0  0
  153.6678  137.4981  185.6664 C   0  0  0  0  0  0  0  0  0  0  0  0
  153.4162  138.2788  184.4137 C   0  0  0  0  0  0  0  0  0  0  0  0
  154.5297  139.2643  184.2653 C   0  0  0  0  0  0  0  0  0  0  0  0
  155.8315  138.9710  184.5642 C   0  0  0  0  0  0  0  0  0  0  0  0
  156.8398  139.8983  184.3959 C   0  0  0  0  0  0  0  0  0  0  0  0
  156.5284  141.1639  183.9104 C   0  0  0  0  0  0  0  0  0  0  0  0
  155.2121  141.4700  183.6050 C   0  0  0  0  0  0  0  0  0  0  0  0
  154.2302  140.5139  183.7873 C   0  0  0  0  0  0  0  0  0  0  0  0
  154.9186  142.7671  183.1108 N   0  0  0  0  0  0  0  0  0  0  0  0
  155.8542  143.5696  182.9672 O   0  0  0  0  0  0  0  0  0  0  0  0
  153.6544  143.1714  182.7870 O   0  0  0  0  0  0  0  0  0  0  0  0
  151.8059  137.6877  182.6364 C   0  0  0  0  0  0  0  0  0  0  0  0
  150.7844  137.4316  183.2731 O   0  0  0  0  0  0  0  0  0  0  0  0
  151.5278  139.5698  181.1172 C   0  0  0  0  0  0  0  0  0  0  0  0
  151.7152  138.1772  181.3497 O   0  0  0  0  0  0  0  0  0  0  0  0
  153.8491  138.2530  186.8960 C   0  0  0  0  0  0  0  0  0  0  0  0
  152.8416  138.9406  187.3135 O   0  0  0  0  0  0  0  0  0  0  0  0
  154.9644  138.3403  187.6961 O   0  0  0  0  0  0  0  0  0  0  0  0
  154.7782  138.2507  189.1192 C   0  0  0  0  0  0  0  0  0  0  0  0
  155.7516  137.3548  189.7731 C   0  0  0  0  0  0  0  0  0  0  0  0
  155.4577  136.8136  191.0374 N   0  0  0  0  0  0  0  0  0  0  0  0
  156.4716  136.4416  191.9176 C   0  0  0  0  0  0  0  0  0  0  0  0
  154.4167  135.8319  190.9053 C   0  0  0  0  0  0  0  0  0  0  0  0
  153.3162  135.9728  191.8783 C   0  0  0  0  0  0  0  0  0  0  0  0
  153.2596  135.3028  193.0866 C   0  0  0  0  0  0  0  0  0  0  0  0
  152.2126  135.4626  193.9686 C   0  0  0  0  0  0  0  0  0  0  0  0
  151.1837  136.3216  193.6347 C   0  0  0  0  0  0  0  0  0  0  0  0
  151.2222  136.9982  192.4352 C   0  0  0  0  0  0  0  0  0  0  0  0
  152.2701  136.8225  191.5790 C   0  0  0  0  0  0  0  0  0  0  0  0
 20 21  1  0  0  0
 21 18  1  0  0  0
 18 19  2  0  0  0
 18  1  1  0  0  0
  1  2  1  0  0  0
  2  3  1  0  0  0
  2  4  2  0  0  0
  4  5  1  0  0  0
  5  6  1  0  0  0
  5  7  2  0  0  0
  7 22  1  0  0  0
 22 23  2  0  0  0
 22 24  1  0  0  0
 24 25  1  0  0  0
 25 26  1  0  0  0
 26 27  1  0  0  0
 27 28  1  0  0  0
 27 29  1  0  0  0
 29 30  1  0  0  0
 30 31  2  0  0  0
 31 32  1  0  0  0
 32 33  2  0  0  0
 33 34  1  0  0  0
 34 35  2  0  0  0
  7  8  1  0  0  0
  8  9  1  0  0  0
  9 10  2  0  0  0
 10 11  1  0  0  0
 11 12  2  0  0  0
 12 13  1  0  0  0
 13 15  1  0  0  0
 15 16  2  0  0  0
 15 17  1  0  0  0
 13 14  2  0  0  0
  8  1  1  0  0  0
 14  9  1  0  0  0
 35 30  1  0  0  0
M  CHG 1  15   1
M  CHG 1  17  -1
M  END
> <minimizedAffinity>
-6.76668

> <CNNscore>
0.4144720733

> <CNNaffinity>
5.5953283310

> <CNN_VS>
2.3191072941

> <CNNaffinity_variance>
0.1985688955

$$$$
[H]c1c([H])c([H])c(C([H])([H])N(C([H])([H])[H])C([H])([H])C([H])([H])OC(=O)C2=C(C([H])([H])[H])N=C(C([H])([H])[H])C([H])(C(=O)OC([H])([H])[H])C2([H])c2c([H])c([H])c([H])c([N+](=O)[O-])c2[H])c([H])c1[H]


 35 37  0  0  0  0  0  0  0  0999 V2000
  158.2440  143.5392  182.0112 C   0  0  0  0  0  0  0  0  0  0  0  0
  159.2279  144.1572  182.9061 C   0  0  0  0  0  0  0  0  0  0  0  0
  159.7650  145.5143  182.4814 C   0  0  0  0  0  0  0  0  0  0  0  0
  159.6596  143.6693  183.9815 N   0  0  0  0  0  0  0  0  0  0  0  0
  159.2060  142.4135  184.4476 C   0  0  0  0  0  0  0  0  0  0  0  0
  159.7984  141.9023  185.7344 C   0  0  0  0  0  0  0  0  0  0  0  0
  158.3139  141.7437  183.7486 C   0  0  0  0  0  0  0  0  0  0  0  0
  157.7143  142.2658  182.4797 C   0  0  0  0  0  0  0  0  0  0  0  0
  156.2301  142.2752  182.6529 C   0  0  0  0  0  0  0  0  0  0  0  0
  155.5533  143.3078  183.2411 C   0  0  0  0  0  0  0  0  0  0  0  0
  154.1790  143.2944  183.3667 C   0  0  0  0  0  0  0  0  0  0  0  0
  153.4605  142.2056  182.8844 C   0  0  0  0  0  0  0  0  0  0  0  0
  154.1378  141.1549  182.2870 C   0  0  0  0  0  0  0  0  0  0  0  0
  155.5153  141.2052  182.1798 C   0  0  0  0  0  0  0  0  0  0  0  0
  153.3838  140.0553  181.8021 N   0  0  0  0  0  0  0  0  0  0  0  0
  152.9690  140.0938  180.6331 O   0  0  0  0  0  0  0  0  0  0  0  0
  153.0943  138.9583  182.5632 O   0  0  0  0  0  0  0  0  0  0  0  0
  158.9334  143.4226  180.6695 C   0  0  0  0  0  0  0  0  0  0  0  0
  159.5300  144.3667  180.1524 O   0  0  0  0  0  0  0  0  0  0  0  0
  157.7455  141.8592  179.2299 C   0  0  0  0  0  0  0  0  0  0  0  0
  158.8755  142.2039  180.0254 O   0  0  0  0  0  0  0  0  0  0  0  0
  157.8466  140.4508  184.2228 C   0  0  0  0  0  0  0  0  0  0  0  0
  158.2943  139.4076  183.6116 O   0  0  0  0  0  0  0  0  0  0  0  0
  156.9779  140.1742  185.2526 O   0  0  0  0  0  0  0  0  0  0  0  0
  156.1077  139.0382  185.1098 C   0  0  0  0  0  0  0  0  0  0  0  0
  155.9907  138.2421  186.3468 C   0  0  0  0  0  0  0  0  0  0  0  0
  154.9723  137.2789  186.4595 N   0  0  0  0  0  0  0  0  0  0  0  0
  153.6433  137.5975  186.1884 C   0  0  0  0  0  0  0  0  0  0  0  0
  155.1527  136.5345  187.6754 C   0  0  0  0  0  0  0  0  0  0  0  0
  156.1850  135.4827  187.6010 C   0  0  0  0  0  0  0  0  0  0  0  0
  156.1164  134.3878  186.7590 C   0  0  0  0  0  0  0  0  0  0  0  0
  157.1032  133.4264  186.7199 C   0  0  0  0  0  0  0  0  0  0  0  0
  158.1992  133.5604  187.5500 C   0  0  0  0  0  0  0  0  0  0  0  0
  158.2855  134.6445  188.3958 C   0  0  0  0  0  0  0  0  0  0  0  0
  157.2949  135.5827  188.4159 C   0  0  0  0  0  0  0  0  0  0  0  0
 20 21  1  0  0  0
 21 18  1  0  0  0
 18 19  2  0  0  0
 18  1  1  0  0  0
  1  2  1  0  0  0
  2  3  1  0  0  0
  2  4  2  0  0  0
  4  5  1  0  0  0
  5  6  1  0  0  0
  5  7  2  0  0  0
  7 22  1  0  0  0
 22 23  2  0  0  0
 22 24  1  0  0  0
 24 25  1  0  0  0
 25 26  1  0  0  0
 26 27  1  0  0  0
 27 28  1  0  0  0
 27 29  1  0  0  0
 29 30  1  0  0  0
 30 31  2  0  0  0
 31 32  1  0  0  0
 32 33  2  0  0  0
 33 34  1  0  0  0
 34 35  2  0  0  0
  7  8  1  0  0  0
  8  9  1  0  0  0
  9 10  2  0  0  0
 10 11  1  0  0  0
 11 12  2  0  0  0
 12 13  1  0  0  0
 13 15  1  0  0  0
 15 16  2  0  0  0
 15 17  1  0  0  0
 13 14  2  0  0  0
  8  1  1  0  0  0
 14  9  1  0  0  0
 35 30  1  0  0  0
M  CHG 1  15   1
M  CHG 1  17  -1
M  END
> <minimizedAffinity>
-7.21147

> <CNNscore>
0.4099816978

> <CNNaffinity>
6.4451179504

> <CNN_VS>
2.6423804760

> <CNNaffinity_variance>
0.3241665363

$$$$
[H]c1c([H])c([H])c(C([H])([H])N(C([H])([H])[H])C([H])([H])C([H])([H])OC(=O)C2=C(C([H])([H])[H])N=C(C([H])([H])[H])C([H])(C(=O)OC([H])([H])[H])C2([H])c2c([H])c([H])c([H])c([N+](=O)[O-])c2[H])c([H])c1[H]


 35 37  0  0  0  0  0  0  0  0999 V2000
  158.2846  143.6003  182.0941 C   0  0  0  0  0  0  0  0  0  0  0  0
  159.2766  144.1194  183.0413 C   0  0  0  0  0  0  0  0  0  0  0  0
  159.8707  145.4801  182.7154 C   0  0  0  0  0  0  0  0  0  0  0  0
  159.6728  143.5451  184.0872 N   0  0  0  0  0  0  0  0  0  0  0  0
  159.1653  142.2794  184.4623 C   0  0  0  0  0  0  0  0  0  0  0  0
  159.7177  141.6617  185.7198 C   0  0  0  0  0  0  0  0  0  0  0  0
  158.2599  141.6922  183.7083 C   0  0  0  0  0  0  0  0  0  0  0  0
  157.7004  142.3198  182.4693 C   0  0  0  0  0  0  0  0  0  0  0  0
  156.2150  142.3747  182.6230 C   0  0  0  0  0  0  0  0  0  0  0  0
  155.5625  143.4272  183.2033 C   0  0  0  0  0  0  0  0  0  0  0  0
  154.1868  143.4559  183.3109 C   0  0  0  0  0  0  0  0  0  0  0  0
  153.4417  142.3898  182.8182 C   0  0  0  0  0  0  0  0  0  0  0  0
  154.0943  141.3193  182.2287 C   0  0  0  0  0  0  0  0  0  0  0  0
  155.4740  141.3274  182.1396 C   0  0  0  0  0  0  0  0  0  0  0  0
  153.3134  140.2435  181.7329 N   0  0  0  0  0  0  0  0  0  0  0  0
  152.8576  139.4223  182.5440 O   0  0  0  0  0  0  0  0  0  0  0  0
  153.0416  140.0716  180.4051 O   0  0  0  0  0  0  0  0  0  0  0  0
  158.9903  143.5466  180.7568 C   0  0  0  0  0  0  0  0  0  0  0  0
  159.4632  144.5490  180.2221 O   0  0  0  0  0  0  0  0  0  0  0  0
  158.0361  141.8315  179.3160 C   0  0  0  0  0  0  0  0  0  0  0  0
  159.0929  142.3179  180.1377 O   0  0  0  0  0  0  0  0  0  0  0  0
  157.7372  140.3896  184.0888 C   0  0  0  0  0  0  0  0  0  0  0  0
  158.1539  139.3730  183.4141 O   0  0  0  0  0  0  0  0  0  0  0  0
  156.8439  140.0786  185.0872 O   0  0  0  0  0  0  0  0  0  0  0  0
  155.8655  139.0593  184.8190 C   0  0  0  0  0  0  0  0  0  0  0  0
  155.4393  138.3352  186.0321 C   0  0  0  0  0  0  0  0  0  0  0  0
  154.3039  137.5069  185.9841 N   0  0  0  0  0  0  0  0  0  0  0  0
  154.0028  136.7588  184.8479 C   0  0  0  0  0  0  0  0  0  0  0  0
  153.1763  138.2118  186.5286 C   0  0  0  0  0  0  0  0  0  0  0  0
  152.1485  137.3448  187.1364 C   0  0  0  0  0  0  0  0  0  0  0  0
  152.3254  136.6416  188.3139 C   0  0  0  0  0  0  0  0  0  0  0  0
  151.3387  135.8417  188.8489 C   0  0  0  0  0  0  0  0  0  0  0  0
  150.1309  135.7382  188.1866 C   0  0  0  0  0  0  0  0  0  0  0  0
  149.9357  136.4313  187.0120 C   0  0  0  0  0  0  0  0  0  0  0  0
  150.9286  137.2166  186.5028 C   0  0  0  0  0  0  0  0  0  0  0  0
 20 21  1  0  0  0
 21 18  1  0  0  0
 18 19  2  0  0  0
 18  1  1  0  0  0
  1  2  1  0  0  0
  2  3  1  0  0  0
  2  4  2  0  0  0
  4  5  1  0  0  0
  5  6  1  0  0  0
  5  7  2  0  0  0
  7 22  1  0  0  0
 22 23  2  0  0  0
 22 24  1  0  0  0
 24 25  1  0  0  0
 25 26  1  0  0  0
 26 27  1  0  0  0
 27 28  1  0  0  0
 27 29  1  0  0  0
 29 30  1  0  0  0
 30 31  2  0  0  0
 31 32  1  0  0  0
 32 33  2  0  0  0
 33 34  1  0  0  0
 34 35  2  0  0  0
  7  8  1  0  0  0
  8  9  1  0  0  0
  9 10  2  0  0  0
 10 11  1  0  0  0
 11 12  2  0  0  0
 12 13  1  0  0  0
 13 15  1  0  0  0
 15 16  2  0  0  0
 15 17  1  0  0  0
 13 14  2  0  0  0
  8  1  1  0  0  0
 14  9  1  0  0  0
 35 30  1  0  0  0
M  CHG 1  15   1
M  CHG 1  17  -1
M  END
> <minimizedAffinity>
-7.31027

> <CNNscore>
0.3922612369

> <CNNaffinity>
6.4061112404

> <CNN_VS>
2.5128691196

> <CNNaffinity_variance>
0.3219228387

$$$$
[H]c1c([H])c([H])c(C([H])([H])N(C([H])([H])[H])C([H])([H])C([H])([H])OC(=O)C2=C(C([H])([H])[H])N=C(C([H])([H])[H])C([H])(C(=O)OC([H])([H])[H])C2([H])c2c([H])c([H])c([H])c([N+](=O)[O-])c2[H])c([H])c1[H]


 35 37  0  0  0  0  0  0  0  0999 V2000
  153.9146  135.3462  183.3913 C   0  0  0  0  0  0  0  0  0  0  0  0
  154.2122  134.2265  184.2905 C   0  0  0  0  0  0  0  0  0  0  0  0
  155.1227  133.1424  183.7370 C   0  0  0  0  0  0  0  0  0  0  0  0
  153.7864  134.0872  185.4653 N   0  0  0  0  0  0  0  0  0  0  0  0
  152.9386  135.0539  186.0541 C   0  0  0  0  0  0  0  0  0  0  0  0
  152.4622  134.7877  187.4578 C   0  0  0  0  0  0  0  0  0  0  0  0
  152.5910  136.1205  185.3651 C   0  0  0  0  0  0  0  0  0  0  0  0
  153.0833  136.3892  183.9767 C   0  0  0  0  0  0  0  0  0  0  0  0
  153.7422  137.7304  183.9836 C   0  0  0  0  0  0  0  0  0  0  0  0
  154.8124  138.0327  184.7795 C   0  0  0  0  0  0  0  0  0  0  0  0
  155.4112  139.2758  184.7463 C   0  0  0  0  0  0  0  0  0  0  0  0
  154.9169  140.2482  183.8834 C   0  0  0  0  0  0  0  0  0  0  0  0
  153.8329  139.9507  183.0734 C   0  0  0  0  0  0  0  0  0  0  0  0
  153.2603  138.6938  183.1355 C   0  0  0  0  0  0  0  0  0  0  0  0
  153.3465  140.9582  182.2009 N   0  0  0  0  0  0  0  0  0  0  0  0
  152.6635  140.6134  181.2239 O   0  0  0  0  0  0  0  0  0  0  0  0
  153.5963  142.2883  182.3878 O   0  0  0  0  0  0  0  0  0  0  0  0
  153.2864  134.7241  182.1635 C   0  0  0  0  0  0  0  0  0  0  0  0
  152.1811  134.1837  182.1925 O   0  0  0  0  0  0  0  0  0  0  0  0
  154.0670  133.6442  180.1258 C   0  0  0  0  0  0  0  0  0  0  0  0
  153.9995  134.7791  180.9837 O   0  0  0  0  0  0  0  0  0  0  0  0
  151.7173  137.1158  185.9657 C   0  0  0  0  0  0  0  0  0  0  0  0
  152.2012  137.8052  186.9419 O   0  0  0  0  0  0  0  0  0  0  0  0
  150.4213  137.4356  185.6347 O   0  0  0  0  0  0  0  0  0  0  0  0
  149.3642  136.6956  186.2696 C   0  0  0  0  0  0  0  0  0  0  0  0
  148.0436  136.9345  185.6559 C   0  0  0  0  0  0  0  0  0  0  0  0
  147.8784  138.0024  184.7560 N   0  0  0  0  0  0  0  0  0  0  0  0
  147.1656  139.1449  185.1136 C   0  0  0  0  0  0  0  0  0  0  0  0
  147.5313  137.4851  183.4611 C   0  0  0  0  0  0  0  0  0  0  0  0
  148.5350  137.7428  182.4105 C   0  0  0  0  0  0  0  0  0  0  0  0
  149.6548  136.9593  182.1996 C   0  0  0  0  0  0  0  0  0  0  0  0
  150.5692  137.2346  181.2059 C   0  0  0  0  0  0  0  0  0  0  0  0
  150.3607  138.3309  180.3918 C   0  0  0  0  0  0  0  0  0  0  0  0
  149.2508  139.1235  180.5863 C   0  0  0  0  0  0  0  0  0  0  0  0
  148.3601  138.8298  181.5775 C   0  0  0  0  0  0  0  0  0  0  0  0
 20 21  1  0  0  0
 21 18  1  0  0  0
 18 19  2  0  0  0
 18  1  1  0  0  0
  1  2  1  0  0  0
  2  3  1  0  0  0
  2  4  2  0  0  0
  4  5  1  0  0  0
  5  6  1  0  0  0
  5  7  2  0  0  0
  7 22  1  0  0  0
 22 23  2  0  0  0
 22 24  1  0  0  0
 24 25  1  0  0  0
 25 26  1  0  0  0
 26 27  1  0  0  0
 27 28  1  0  0  0
 27 29  1  0  0  0
 29 30  1  0  0  0
 30 31  2  0  0  0
 31 32  1  0  0  0
 32 33  2  0  0  0
 33 34  1  0  0  0
 34 35  2  0  0  0
  7  8  1  0  0  0
  8  9  1  0  0  0
  9 10  2  0  0  0
 10 11  1  0  0  0
 11 12  2  0  0  0
 12 13  1  0  0  0
 13 15  1  0  0  0
 15 16  2  0  0  0
 15 17  1  0  0  0
 13 14  2  0  0  0
  8  1  1  0  0  0
 14  9  1  0  0  0
 35 30  1  0  0  0
M  CHG 1  15   1
M  CHG 1  17  -1
M  END
> <minimizedAffinity>
-5.16843

> <CNNscore>
0.3653022349

> <CNNaffinity>
5.5414485931

> <CNN_VS>
2.0243036747

> <CNNaffinity_variance>
0.3872290552

$$$$
[H]c1c([H])c([H])c(C([H])([H])N(C([H])([H])[H])C([H])([H])C([H])([H])OC(=O)C2=C(C([H])([H])[H])N=C(C([H])([H])[H])C([H])(C(=O)OC([H])([H])[H])C2([H])c2c([H])c([H])c([H])c([N+](=O)[O-])c2[H])c([H])c1[H]


 35 37  0  0  0  0  0  0  0  0999 V2000
  153.1547  137.7344  182.9818 C   0  0  0  0  0  0  0  0  0  0  0  0
  153.2414  136.2730  183.0699 C   0  0  0  0  0  0  0  0  0  0  0  0
  153.0754  135.5091  181.7662 C   0  0  0  0  0  0  0  0  0  0  0  0
  153.4401  135.6050  184.1163 N   0  0  0  0  0  0  0  0  0  0  0  0
  153.6091  136.2415  185.3679 C   0  0  0  0  0  0  0  0  0  0  0  0
  153.8194  135.3556  186.5675 C   0  0  0  0  0  0  0  0  0  0  0  0
  153.5624  137.5551  185.4412 C   0  0  0  0  0  0  0  0  0  0  0  0
  153.3722  138.4315  184.2421 C   0  0  0  0  0  0  0  0  0  0  0  0
  154.5209  139.3860  184.1945 C   0  0  0  0  0  0  0  0  0  0  0  0
  155.7919  139.0444  184.5661 C   0  0  0  0  0  0  0  0  0  0  0  0
  156.8352  139.9446  184.4902 C   0  0  0  0  0  0  0  0  0  0  0  0
  156.5923  141.2325  184.0247 C   0  0  0  0  0  0  0  0  0  0  0  0
  155.3078  141.5875  183.6459 C   0  0  0  0  0  0  0  0  0  0  0  0
  154.2889  140.6573  183.7366 C   0  0  0  0  0  0  0  0  0  0  0  0
  155.0842  142.9066  183.1738 N   0  0  0  0  0  0  0  0  0  0  0  0
  156.0681  143.6001  182.8721 O   0  0  0  0  0  0  0  0  0  0  0  0
  153.8366  143.4463  183.0370 O   0  0  0  0  0  0  0  0  0  0  0  0
  151.7949  138.0245  182.3852 C   0  0  0  0  0  0  0  0  0  0  0  0
  150.7484  137.7919  182.9896 O   0  0  0  0  0  0  0  0  0  0  0  0
  151.9836  139.9611  180.9218 C   0  0  0  0  0  0  0  0  0  0  0  0
  151.7562  138.5688  181.1181 O   0  0  0  0  0  0  0  0  0  0  0  0
  153.7330  138.2136  186.7265 C   0  0  0  0  0  0  0  0  0  0  0  0
  152.8455  139.0884  187.0573 O   0  0  0  0  0  0  0  0  0  0  0  0
  154.7257  138.0331  187.6612 O   0  0  0  0  0  0  0  0  0  0  0  0
  154.4275  138.3622  189.0291 C   0  0  0  0  0  0  0  0  0  0  0  0
  153.7540  137.2663  189.7524 C   0  0  0  0  0  0  0  0  0  0  0  0
  154.4082  136.0312  189.9080 N   0  0  0  0  0  0  0  0  0  0  0  0
  153.7445  134.9227  190.4295 C   0  0  0  0  0  0  0  0  0  0  0  0
  155.7084  136.2493  190.4796 C   0  0  0  0  0  0  0  0  0  0  0  0
  156.7973  135.4965  189.8273 C   0  0  0  0  0  0  0  0  0  0  0  0
  157.2339  135.7282  188.5358 C   0  0  0  0  0  0  0  0  0  0  0  0
  158.2555  135.0019  187.9627 C   0  0  0  0  0  0  0  0  0  0  0  0
  158.8650  134.0080  188.7035 C   0  0  0  0  0  0  0  0  0  0  0  0
  158.4439  133.7623  189.9920 C   0  0  0  0  0  0  0  0  0  0  0  0
  157.4300  134.4953  190.5366 C   0  0  0  0  0  0  0  0  0  0  0  0
 20 21  1  0  0  0
 21 18  1  0  0  0
 18 19  2  0  0  0
 18  1  1  0  0  0
  1  2  1  0  0  0
  2  3  1  0  0  0
  2  4  2  0  0  0
  4  5  1  0  0  0
  5  6  1  0  0  0
  5  7  2  0  0  0
  7 22  1  0  0  0
 22 23  2  0  0  0
 22 24  1  0  0  0
 24 25  1  0  0  0
 25 26  1  0  0  0
 26 27  1  0  0  0
 27 28  1  0  0  0
 27 29  1  0  0  0
 29 30  1  0  0  0
 30 31  2  0  0  0
 31 32  1  0  0  0
 32 33  2  0  0  0
 33 34  1  0  0  0
 34 35  2  0  0  0
  7  8  1  0  0  0
  8  9  1  0  0  0
  9 10  2  0  0  0
 10 11  1  0  0  0
 11 12  2  0  0  0
 12 13  1  0  0  0
 13 15  1  0  0  0
 15 16  2  0  0  0
 15 17  1  0  0  0
 13 14  2  0  0  0
  8  1  1  0  0  0
 14  9  1  0  0  0
 35 30  1  0  0  0
M  CHG 1  15   1
M  CHG 1  17  -1
M  END
> <minimizedAffinity>
-6.49604

> <CNNscore>
0.3205204904

> <CNNaffinity>
5.6089453697

> <CNN_VS>
1.7977819443

> <CNNaffinity_variance>
0.1574767977

$$$$
[H]c1c([H])c([H])c(C([H])([H])N(C([H])([H])[H])C([H])([H])C([H])([H])OC(=O)C2=C(C([H])([H])[H])N=C(C([H])([H])[H])C([H])(C(=O)OC([H])([H])[H])C2([H])c2c([H])c([H])c([H])c([N+](=O)[O-])c2[H])c([H])c1[H]


 35 37  0  0  0  0  0  0  0  0999 V2000
  153.6231  135.6292  183.2028 C   0  0  0  0  0  0  0  0  0  0  0  0
  154.3770  134.4871  183.7301 C   0  0  0  0  0  0  0  0  0  0  0  0
  154.7609  133.4125  182.7257 C   0  0  0  0  0  0  0  0  0  0  0  0
  154.7305  134.3217  184.9252 N   0  0  0  0  0  0  0  0  0  0  0  0
  154.4160  135.2779  185.9187 C   0  0  0  0  0  0  0  0  0  0  0  0
  154.8627  134.9804  187.3259 C   0  0  0  0  0  0  0  0  0  0  0  0
  153.7458  136.3620  185.5891 C   0  0  0  0  0  0  0  0  0  0  0  0
  153.3211  136.6615  184.1849 C   0  0  0  0  0  0  0  0  0  0  0  0
  153.8786  137.9993  183.8208 C   0  0  0  0  0  0  0  0  0  0  0  0
  153.1270  138.9939  183.2586 C   0  0  0  0  0  0  0  0  0  0  0  0
  153.6683  140.2262  182.9534 C   0  0  0  0  0  0  0  0  0  0  0  0
  155.0115  140.4667  183.2227 C   0  0  0  0  0  0  0  0  0  0  0  0
  155.7806  139.4650  183.7923 C   0  0  0  0  0  0  0  0  0  0  0  0
  155.2019  138.2436  184.0835 C   0  0  0  0  0  0  0  0  0  0  0  0
  157.1481  139.7335  184.0583 N   0  0  0  0  0  0  0  0  0  0  0  0
  157.4843  139.9812  185.2270 O   0  0  0  0  0  0  0  0  0  0  0  0
  158.1092  139.7319  183.0874 O   0  0  0  0  0  0  0  0  0  0  0  0
  152.3771  135.0393  182.5791 C   0  0  0  0  0  0  0  0  0  0  0  0
  152.0582  135.2609  181.4113 O   0  0  0  0  0  0  0  0  0  0  0  0
  150.8371  133.1657  182.7927 C   0  0  0  0  0  0  0  0  0  0  0  0
  151.5896  134.2283  183.3699 O   0  0  0  0  0  0  0  0  0  0  0  0
  153.4180  137.3466  186.6080 C   0  0  0  0  0  0  0  0  0  0  0  0
  152.2717  137.2295  187.1862 O   0  0  0  0  0  0  0  0  0  0  0  0
  154.1715  138.4071  187.0544 O   0  0  0  0  0  0  0  0  0  0  0  0
  155.0883  138.1705  188.1368 C   0  0  0  0  0  0  0  0  0  0  0  0
  154.5520  138.5843  189.4478 C   0  0  0  0  0  0  0  0  0  0  0  0
  154.9271  137.8799  190.6057 N   0  0  0  0  0  0  0  0  0  0  0  0
  156.2482  137.8684  191.0483 C   0  0  0  0  0  0  0  0  0  0  0  0
  154.3086  136.5829  190.5958 C   0  0  0  0  0  0  0  0  0  0  0  0
  152.9828  136.5326  191.2417 C   0  0  0  0  0  0  0  0  0  0  0  0
  151.8379  136.0615  190.6255 C   0  0  0  0  0  0  0  0  0  0  0  0
  150.6172  136.0314  191.2647 C   0  0  0  0  0  0  0  0  0  0  0  0
  150.5335  136.4872  192.5659 C   0  0  0  0  0  0  0  0  0  0  0  0
  151.6633  136.9604  193.1968 C   0  0  0  0  0  0  0  0  0  0  0  0
  152.8603  136.9800  192.5421 C   0  0  0  0  0  0  0  0  0  0  0  0
 20 21  1  0  0  0
 21 18  1  0  0  0
 18 19  2  0  0  0
 18  1  1  0  0  0
  1  2  1  0  0  0
  2  3  1  0  0  0
  2  4  2  0  0  0
  4  5  1  0  0  0
  5  6  1  0  0  0
  5  7  2  0  0  0
  7 22  1  0  0  0
 22 23  2  0  0  0
 22 24  1  0  0  0
 24 25  1  0  0  0
 25 26  1  0  0  0
 26 27  1  0  0  0
 27 28  1  0  0  0
 27 29  1  0  0  0
 29 30  1  0  0  0
 30 31  2  0  0  0
 31 32  1  0  0  0
 32 33  2  0  0  0
 33 34  1  0  0  0
 34 35  2  0  0  0
  7  8  1  0  0  0
  8  9  1  0  0  0
  9 10  2  0  0  0
 10 11  1  0  0  0
 11 12  2  0  0  0
 12 13  1  0  0  0
 13 15  1  0  0  0
 15 16  2  0  0  0
 15 17  1  0  0  0
 13 14  2  0  0  0
  8  1  1  0  0  0
 14  9  1  0  0  0
 35 30  1  0  0  0
M  CHG 1  15   1
M  CHG 1  17  -1
M  END
> <minimizedAffinity>
-5.75139

> <CNNscore>
0.3150344491

> <CNNaffinity>
5.4858484268

> <CNN_VS>
1.7282311916

> <CNNaffinity_variance>
0.1839805096

$$$$
[H]c1c([H])c([H])c(C([H])([H])N(C([H])([H])[H])C([H])([H])C([H])([H])OC(=O)C2=C(C([H])([H])[H])N=C(C([H])([H])[H])C([H])(C(=O)OC([H])([H])[H])C2([H])c2c([H])c([H])c([H])c([N+](=O)[O-])c2[H])c([H])c1[H]


 35 37  0  0  0  0  0  0  0  0999 V2000
  152.6202  136.3522  183.4151 C   0  0  0  0  0  0  0  0  0  0  0  0
  151.7068  136.9731  182.4501 C   0  0  0  0  0  0  0  0  0  0  0  0
  150.5798  136.0958  181.9295 C   0  0  0  0  0  0  0  0  0  0  0  0
  151.7726  138.1535  182.0223 N   0  0  0  0  0  0  0  0  0  0  0  0
  152.7887  139.0338  182.4615 C   0  0  0  0  0  0  0  0  0  0  0  0
  152.7982  140.4208  181.8749 C   0  0  0  0  0  0  0  0  0  0  0  0
  153.6791  138.6148  183.3359 C   0  0  0  0  0  0  0  0  0  0  0  0
  153.6532  137.2406  183.9300 C   0  0  0  0  0  0  0  0  0  0  0  0
  153.6095  137.3926  185.4160 C   0  0  0  0  0  0  0  0  0  0  0  0
  154.5803  138.0397  186.1294 C   0  0  0  0  0  0  0  0  0  0  0  0
  154.4992  138.1807  187.5000 C   0  0  0  0  0  0  0  0  0  0  0  0
  153.4043  137.6531  188.1763 C   0  0  0  0  0  0  0  0  0  0  0  0
  152.4159  136.9960  187.4616 C   0  0  0  0  0  0  0  0  0  0  0  0
  152.5333  136.8750  186.0893 C   0  0  0  0  0  0  0  0  0  0  0  0
  151.3084  136.4665  188.1729 N   0  0  0  0  0  0  0  0  0  0  0  0
  150.2329  136.3250  187.5701 O   0  0  0  0  0  0  0  0  0  0  0  0
  151.3729  136.1064  189.4892 O   0  0  0  0  0  0  0  0  0  0  0  0
  153.1937  135.1426  182.7099 C   0  0  0  0  0  0  0  0  0  0  0  0
  153.5966  135.1885  181.5480 O   0  0  0  0  0  0  0  0  0  0  0  0
  152.1390  133.0761  183.4480 C   0  0  0  0  0  0  0  0  0  0  0  0
  153.2554  133.9601  183.4179 O   0  0  0  0  0  0  0  0  0  0  0  0
  154.7272  139.5158  183.7882 C   0  0  0  0  0  0  0  0  0  0  0  0
  155.9443  139.1160  183.6433 O   0  0  0  0  0  0  0  0  0  0  0  0
  154.6046  140.7608  184.3598 O   0  0  0  0  0  0  0  0  0  0  0  0
  155.2543  141.8656  183.7076 C   0  0  0  0  0  0  0  0  0  0  0  0
  156.5561  141.5016  183.1156 C   0  0  0  0  0  0  0  0  0  0  0  0
  157.7199  142.1744  183.5288 N   0  0  0  0  0  0  0  0  0  0  0  0
  158.2828  143.1865  182.7542 C   0  0  0  0  0  0  0  0  0  0  0  0
  158.6758  141.2182  184.0153 C   0  0  0  0  0  0  0  0  0  0  0  0
  159.7370  141.7925  184.8649 C   0  0  0  0  0  0  0  0  0  0  0  0
  159.5351  142.2490  186.1545 C   0  0  0  0  0  0  0  0  0  0  0  0
  160.5545  142.7791  186.9157 C   0  0  0  0  0  0  0  0  0  0  0  0
  161.8221  142.8575  186.3724 C   0  0  0  0  0  0  0  0  0  0  0  0
  162.0430  142.4077  185.0891 C   0  0  0  0  0  0  0  0  0  0  0  0
  161.0168  141.8871  184.3558 C   0  0  0  0  0  0  0  0  0  0  0  0
 20 21  1  0  0  0
 21 18  1  0  0  0
 18 19  2  0  0  0
 18  1  1  0  0  0
  1  2  1  0  0  0
  2  3  1  0  0  0
  2  4  2  0  0  0
  4  5  1  0  0  0
  5  6  1  0  0  0
  5  7  2  0  0  0
  7 22  1  0  0  0
 22 23  2  0  0  0
 22 24  1  0  0  0
 24 25  1  0  0  0
 25 26  1  0  0  0
 26 27  1  0  0  0
 27 28  1  0  0  0
 27 29  1  0  0  0
 29 30  1  0  0  0
 30 31  2  0  0  0
 31 32  1  0  0  0
 32 33  2  0  0  0
 33 34  1  0  0  0
 34 35  2  0  0  0
  7  8  1  0  0  0
  8  9  1  0  0  0
  9 10  2  0  0  0
 10 11  1  0  0  0
 11 12  2  0  0  0
 12 13  1  0  0  0
 13 15  1  0  0  0
 15 16  2  0  0  0
 15 17  1  0  0  0
 13 14  2  0  0  0
  8  1  1  0  0  0
 14  9  1  0  0  0
 35 30  1  0  0  0
M  CHG 1  15   1
M  CHG 1  17  -1
M  END
> <minimizedAffinity>
-7.18458

> <CNNscore>
0.3101659417

> <CNNaffinity>
6.0139689445

> <CNN_VS>
1.8653283119

> <CNNaffinity_variance>
0.0589654148

$$$$
[H]/C(=C(\[H])C([H])([H])C([H])([H])C([H])([H])C([H])([H])C([H])([H])C([H])([H])C([H])([H])C([H])([H])[H])C([H])([H])C([H])([H])C([H])([H])C([H])([H])C([H])([H])C([H])([H])C([H])([H])C(=O)c1nc2c([H])c([H])c([H])nc2o1


 28 29  0  0  0  0  0  0  0  0999 V2000
  157.6152  144.0435  182.0797 C   0  0  0  0  0  0  0  0  0  0  0  0
  158.3827  143.6748  180.9028 C   0  0  0  0  0  0  0  0  0  0  0  0
  158.9959  142.3668  180.6829 C   0  0  0  0  0  0  0  0  0  0  0  0
  158.1646  141.1426  180.8979 C   0  0  0  0  0  0  0  0  0  0  0  0
  158.7394  140.3181  182.0248 C   0  0  0  0  0  0  0  0  0  0  0  0
  158.6417  139.0753  181.9631 O   0  0  0  0  0  0  0  0  0  0  0  0
  159.3844  140.9451  183.1442 C   0  0  0  0  0  0  0  0  0  0  0  0
  158.7928  141.2626  184.3229 N   0  0  0  0  0  0  0  0  0  0  0  0
  159.6927  141.8375  185.1422 C   0  0  0  0  0  0  0  0  0  0  0  0
  159.6910  142.3504  186.4099 C   0  0  0  0  0  0  0  0  0  0  0  0
  160.8440  142.8750  186.9362 C   0  0  0  0  0  0  0  0  0  0  0  0
  161.9923  142.8736  186.1670 C   0  0  0  0  0  0  0  0  0  0  0  0
  162.0071  142.3664  184.9047 N   0  0  0  0  0  0  0  0  0  0  0  0
  160.8729  141.8557  184.4003 C   0  0  0  0  0  0  0  0  0  0  0  0
  160.6397  141.3154  183.2216 O   0  0  0  0  0  0  0  0  0  0  0  0
  156.1459  143.9496  182.1335 C   0  0  0  0  0  0  0  0  0  0  0  0
  155.6016  143.1510  183.2674 C   0  0  0  0  0  0  0  0  0  0  0  0
  154.1971  142.6104  183.0441 C   0  0  0  0  0  0  0  0  0  0  0  0
  154.4075  140.1957  182.8116 C   0  0  0  0  0  0  0  0  0  0  0  0
  154.2828  141.3753  182.2554 C   0  0  0  0  0  0  0  0  0  0  0  0
  154.4745  139.9654  184.2372 C   0  0  0  0  0  0  0  0  0  0  0  0
  153.7146  138.7159  184.6777 C   0  0  0  0  0  0  0  0  0  0  0  0
  153.9618  138.3886  186.1037 C   0  0  0  0  0  0  0  0  0  0  0  0
  155.4156  138.0559  186.4384 C   0  0  0  0  0  0  0  0  0  0  0  0
  155.6661  138.0442  187.8979 C   0  0  0  0  0  0  0  0  0  0  0  0
  154.5955  138.4498  188.8285 C   0  0  0  0  0  0  0  0  0  0  0  0
  156.2572  138.1425  190.6489 C   0  0  0  0  0  0  0  0  0  0  0  0
  154.8402  138.4332  190.2870 C   0  0  0  0  0  0  0  0  0  0  0  0
 27 28  1  0  0  0
 28 26  1  0  0  0
 26 25  1  0  0  0
 25 24  1  0  0  0
 24 23  1  0  0  0
 23 22  1  0  0  0
 22 21  1  0  0  0
 21 19  1  0  0  0
 19 20  2  0  0  0
 20 18  1  0  0  0
 18 17  1  0  0  0
 17 16  1  0  0  0
 16  1  1  0  0  0
  1  2  1  0  0  0
  2  3  1  0  0  0
  3  4  1  0  0  0
  4  5  1  0  0  0
  5  6  2  0  0  0
  5  7  1  0  0  0
  7  8  2  0  0  0
  8  9  1  0  0  0
  9 10  2  0  0  0
 10 11  1  0  0  0
 11 12  2  0  0  0
 12 13  1  0  0  0
 13 14  2  0  0  0
 14 15  1  0  0  0
 15  7  1  0  0  0
 14  9  1  0  0  0
M  END
> <minimizedAffinity>
-8.18883

> <CNNscore>
0.6800810695

> <CNNaffinity>
7.1482558250

> <CNN_VS>
4.8613934517

> <CNNaffinity_variance>
0.2796173990

$$$$
[H]/C(=C(\[H])C([H])([H])C([H])([H])C([H])([H])C([H])([H])C([H])([H])C([H])([H])C([H])([H])C([H])([H])[H])C([H])([H])C([H])([H])C([H])([H])C([H])([H])C([H])([H])C([H])([H])C([H])([H])C(=O)c1nc2c([H])c([H])c([H])nc2o1


 28 29  0  0  0  0  0  0  0  0999 V2000
  155.3322  142.5587  183.1513 C   0  0  0  0  0  0  0  0  0  0  0  0
  155.0224  141.1600  182.9107 C   0  0  0  0  0  0  0  0  0  0  0  0
  154.3716  140.2725  183.8719 C   0  0  0  0  0  0  0  0  0  0  0  0
  155.1467  139.1145  184.4140 C   0  0  0  0  0  0  0  0  0  0  0  0
  154.3001  138.3386  185.3945 C   0  0  0  0  0  0  0  0  0  0  0  0
  153.2671  137.7774  184.9754 O   0  0  0  0  0  0  0  0  0  0  0  0
  154.6709  138.2460  186.7788 C   0  0  0  0  0  0  0  0  0  0  0  0
  153.8321  138.3927  187.8346 N   0  0  0  0  0  0  0  0  0  0  0  0
  154.5175  138.2432  188.9833 C   0  0  0  0  0  0  0  0  0  0  0  0
  154.2292  138.2794  190.3196 C   0  0  0  0  0  0  0  0  0  0  0  0
  155.2258  138.0731  191.2394 C   0  0  0  0  0  0  0  0  0  0  0  0
  156.5107  137.8311  190.7913 C   0  0  0  0  0  0  0  0  0  0  0  0
  156.8104  137.7925  189.4649 N   0  0  0  0  0  0  0  0  0  0  0  0
  155.8271  137.9958  188.5742 C   0  0  0  0  0  0  0  0  0  0  0  0
  155.8679  138.0072  187.2574 O   0  0  0  0  0  0  0  0  0  0  0  0
  156.0337  143.3997  182.1659 C   0  0  0  0  0  0  0  0  0  0  0  0
  157.4019  143.8358  182.5627 C   0  0  0  0  0  0  0  0  0  0  0  0
  158.5127  143.3495  181.6437 C   0  0  0  0  0  0  0  0  0  0  0  0
  158.2507  141.0757  180.8128 C   0  0  0  0  0  0  0  0  0  0  0  0
  157.9622  142.3503  180.7199 C   0  0  0  0  0  0  0  0  0  0  0  0
  159.1257  140.5047  181.8120 C   0  0  0  0  0  0  0  0  0  0  0  0
  158.3910  139.6143  182.8120 C   0  0  0  0  0  0  0  0  0  0  0  0
  158.8645  139.8305  184.2015 C   0  0  0  0  0  0  0  0  0  0  0  0
  158.2550  141.0454  184.9008 C   0  0  0  0  0  0  0  0  0  0  0  0
  159.2391  141.7558  185.7493 C   0  0  0  0  0  0  0  0  0  0  0  0
  160.4903  142.2619  185.1534 C   0  0  0  0  0  0  0  0  0  0  0  0
  162.2949  142.7985  186.7736 C   0  0  0  0  0  0  0  0  0  0  0  0
  161.2577  143.3237  185.8399 C   0  0  0  0  0  0  0  0  0  0  0  0
 27 28  1  0  0  0
 28 26  1  0  0  0
 26 25  1  0  0  0
 25 24  1  0  0  0
 24 23  1  0  0  0
 23 22  1  0  0  0
 22 21  1  0  0  0
 21 19  1  0  0  0
 19 20  2  0  0  0
 20 18  1  0  0  0
 18 17  1  0  0  0
 17 16  1  0  0  0
 16  1  1  0  0  0
  1  2  1  0  0  0
  2  3  1  0  0  0
  3  4  1  0  0  0
  4  5  1  0  0  0
  5  6  2  0  0  0
  5  7  1  0  0  0
  7  8  2  0  0  0
  8  9  1  0  0  0
  9 10  2  0  0  0
 10 11  1  0  0  0
 11 12  2  0  0  0
 12 13  1  0  0  0
 13 14  2  0  0  0
 14 15  1  0  0  0
 15  7  1  0  0  0
 14  9  1  0  0  0
M  END
> <minimizedAffinity>
-7.19312

> <CNNscore>
0.6211996078

> <CNNaffinity>
6.7001562119

> <CNN_VS>
4.1621346474

> <CNNaffinity_variance>
0.2704398632

$$$$
[H]/C(=C(\[H])C([H])([H])C([H])([H])C([H])([H])C([H])([H])C([H])([H])C([H])([H])C([H])([H])C([H])([H])[H])C([H])([H])C([H])([H])C([H])([H])C([H])([H])C([H])([H])C([H])([H])C([H])([H])C(=O)c1nc2c([H])c([H])c([H])nc2o1


 28 29  0  0  0  0  0  0  0  0999 V2000
  152.7174  139.0614  182.8513 C   0  0  0  0  0  0  0  0  0  0  0  0
  153.1679  137.8574  183.5278 C   0  0  0  0  0  0  0  0  0  0  0  0
  154.1754  137.8225  184.5857 C   0  0  0  0  0  0  0  0  0  0  0  0
  154.1323  138.8732  185.6487 C   0  0  0  0  0  0  0  0  0  0  0  0
  153.4431  138.3355  186.8800 C   0  0  0  0  0  0  0  0  0  0  0  0
  152.1955  138.3407  186.9141 O   0  0  0  0  0  0  0  0  0  0  0  0
  154.2018  137.8291  187.9892 C   0  0  0  0  0  0  0  0  0  0  0  0
  154.4494  138.4910  189.1470 N   0  0  0  0  0  0  0  0  0  0  0  0
  155.1909  137.7181  189.9622 C   0  0  0  0  0  0  0  0  0  0  0  0
  155.7328  137.8333  191.2125 C   0  0  0  0  0  0  0  0  0  0  0  0
  156.4586  136.7962  191.7407 C   0  0  0  0  0  0  0  0  0  0  0  0
  156.6278  135.6474  190.9911 C   0  0  0  0  0  0  0  0  0  0  0  0
  156.0939  135.5203  189.7463 N   0  0  0  0  0  0  0  0  0  0  0  0
  155.3856  136.5417  189.2398 C   0  0  0  0  0  0  0  0  0  0  0  0
  154.7797  136.6555  188.0755 O   0  0  0  0  0  0  0  0  0  0  0  0
  153.6327  139.9512  182.1158 C   0  0  0  0  0  0  0  0  0  0  0  0
  153.2433  141.3891  182.0985 C   0  0  0  0  0  0  0  0  0  0  0  0
  154.3489  142.3493  182.5112 C   0  0  0  0  0  0  0  0  0  0  0  0
  156.5298  141.6857  183.3673 C   0  0  0  0  0  0  0  0  0  0  0  0
  155.2245  141.6782  183.4797 C   0  0  0  0  0  0  0  0  0  0  0  0
  157.2563  142.3395  182.3022 C   0  0  0  0  0  0  0  0  0  0  0  0
  158.7697  142.3129  182.5063 C   0  0  0  0  0  0  0  0  0  0  0  0
  159.1429  141.7489  183.8270 C   0  0  0  0  0  0  0  0  0  0  0  0
  160.6307  141.8453  184.1638 C   0  0  0  0  0  0  0  0  0  0  0  0
  160.9358  143.0102  185.0258 C   0  0  0  0  0  0  0  0  0  0  0  0
  160.8829  142.8695  186.4935 C   0  0  0  0  0  0  0  0  0  0  0  0
  163.2541  142.4256  187.0851 C   0  0  0  0  0  0  0  0  0  0  0  0
  162.0460  143.2688  187.3153 C   0  0  0  0  0  0  0  0  0  0  0  0
 27 28  1  0  0  0
 28 26  1  0  0  0
 26 25  1  0  0  0
 25 24  1  0  0  0
 24 23  1  0  0  0
 23 22  1  0  0  0
 22 21  1  0  0  0
 21 19  1  0  0  0
 19 20  2  0  0  0
 20 18  1  0  0  0
 18 17  1  0  0  0
 17 16  1  0  0  0
 16  1  1  0  0  0
  1  2  1  0  0  0
  2  3  1  0  0  0
  3  4  1  0  0  0
  4  5  1  0  0  0
  5  6  2  0  0  0
  5  7  1  0  0  0
  7  8  2  0  0  0
  8  9  1  0  0  0
  9 10  2  0  0  0
 10 11  1  0  0  0
 11 12  2  0  0  0
 12 13  1  0  0  0
 13 14  2  0  0  0
 14 15  1  0  0  0
 15  7  1  0  0  0
 14  9  1  0  0  0
M  END
> <minimizedAffinity>
-6.41915

> <CNNscore>
0.6067557931

> <CNNaffinity>
6.6150794029

> <CNN_VS>
4.0137376785

> <CNNaffinity_variance>
0.2752886713

$$$$
[H]/C(=C(\[H])C([H])([H])C([H])([H])C([H])([H])C([H])([H])C([H])([H])C([H])([H])C([H])([H])C([H])([H])[H])C([H])([H])C([H])([H])C([H])([H])C([H])([H])C([H])([H])C([H])([H])C([H])([H])C(=O)c1nc2c([H])c([H])c([H])nc2o1


 28 29  0  0  0  0  0  0  0  0999 V2000
  153.8117  138.8464  183.4012 C   0  0  0  0  0  0  0  0  0  0  0  0
  154.0012  138.9819  184.8350 C   0  0  0  0  0  0  0  0  0  0  0  0
  153.4353  138.0841  185.8396 C   0  0  0  0  0  0  0  0  0  0  0  0
  153.1225  138.6340  187.1944 C   0  0  0  0  0  0  0  0  0  0  0  0
  154.0570  138.0412  188.2218 C   0  0  0  0  0  0  0  0  0  0  0  0
  155.2870  138.1607  188.0471 O   0  0  0  0  0  0  0  0  0  0  0  0
  153.5467  137.3544  189.3752 C   0  0  0  0  0  0  0  0  0  0  0  0
  154.2575  137.0356  190.4856 N   0  0  0  0  0  0  0  0  0  0  0  0
  153.4639  136.3961  191.3647 C   0  0  0  0  0  0  0  0  0  0  0  0
  153.6051  135.8510  192.6109 C   0  0  0  0  0  0  0  0  0  0  0  0
  152.5306  135.2570  193.2226 C   0  0  0  0  0  0  0  0  0  0  0  0
  151.3181  135.2223  192.5602 C   0  0  0  0  0  0  0  0  0  0  0  0
  151.1645  135.7610  191.3205 N   0  0  0  0  0  0  0  0  0  0  0  0
  152.2229  136.3395  190.7318 C   0  0  0  0  0  0  0  0  0  0  0  0
  152.3222  136.9212  189.5539 O   0  0  0  0  0  0  0  0  0  0  0  0
  152.7979  139.6129  182.6561 C   0  0  0  0  0  0  0  0  0  0  0  0
  153.2766  140.8954  182.0682 C   0  0  0  0  0  0  0  0  0  0  0  0
  154.7639  141.1589  182.2499 C   0  0  0  0  0  0  0  0  0  0  0  0
  156.0833  143.0598  183.0084 C   0  0  0  0  0  0  0  0  0  0  0  0
  154.9378  142.4249  182.9723 C   0  0  0  0  0  0  0  0  0  0  0  0
  157.2919  142.6062  182.3576 C   0  0  0  0  0  0  0  0  0  0  0  0
  158.5630  143.0698  183.0663 C   0  0  0  0  0  0  0  0  0  0  0  0
  159.6452  142.0580  182.9854 C   0  0  0  0  0  0  0  0  0  0  0  0
  159.7936  141.1828  184.2297 C   0  0  0  0  0  0  0  0  0  0  0  0
  159.3044  141.8597  185.4527 C   0  0  0  0  0  0  0  0  0  0  0  0
  160.2575  142.5636  186.3317 C   0  0  0  0  0  0  0  0  0  0  0  0
  162.5929  142.8266  187.1357 C   0  0  0  0  0  0  0  0  0  0  0  0
  161.6893  142.6275  185.9664 C   0  0  0  0  0  0  0  0  0  0  0  0
 27 28  1  0  0  0
 28 26  1  0  0  0
 26 25  1  0  0  0
 25 24  1  0  0  0
 24 23  1  0  0  0
 23 22  1  0  0  0
 22 21  1  0  0  0
 21 19  1  0  0  0
 19 20  2  0  0  0
 20 18  1  0  0  0
 18 17  1  0  0  0
 17 16  1  0  0  0
 16  1  1  0  0  0
  1  2  1  0  0  0
  2  3  1  0  0  0
  3  4  1  0  0  0
  4  5  1  0  0  0
  5  6  2  0  0  0
  5  7  1  0  0  0
  7  8  2  0  0  0
  8  9  1  0  0  0
  9 10  2  0  0  0
 10 11  1  0  0  0
 11 12  2  0  0  0
 12 13  1  0  0  0
 13 14  2  0  0  0
 14 15  1  0  0  0
 15  7  1  0  0  0
 14  9  1  0  0  0
M  END
> <minimizedAffinity>
-6.53204

> <CNNscore>
0.5416243076

> <CNNaffinity>
6.2330179214

> <CNN_VS>
3.3759539127

> <CNNaffinity_variance>
0.1496141404

$$$$
[H]/C(=C(\[H])C([H])([H])C([H])([H])C([H])([H])C([H])([H])C([H])([H])C([H])([H])C([H])([H])C([H])([H])[H])C([H])([H])C([H])([H])C([H])([H])C([H])([H])C([H])([H])C([H])([H])C([H])([H])C(=O)c1nc2c([H])c([H])c([H])nc2o1


 28 29  0  0  0  0  0  0  0  0999 V2000
  157.2412  139.7164  184.2532 C   0  0  0  0  0  0  0  0  0  0  0  0
  158.2955  139.5377  183.2699 C   0  0  0  0  0  0  0  0  0  0  0  0
  158.2207  139.9757  181.8779 C   0  0  0  0  0  0  0  0  0  0  0  0
  159.0848  141.1147  181.4397 C   0  0  0  0  0  0  0  0  0  0  0  0
  158.9810  142.2525  182.4269 C   0  0  0  0  0  0  0  0  0  0  0  0
  158.0801  143.1010  182.2651 O   0  0  0  0  0  0  0  0  0  0  0  0
  159.8962  142.3605  183.5284 C   0  0  0  0  0  0  0  0  0  0  0  0
  159.5896  142.8085  184.7715 N   0  0  0  0  0  0  0  0  0  0  0  0
  160.6874  142.7755  185.5496 C   0  0  0  0  0  0  0  0  0  0  0  0
  160.9921  143.0907  186.8449 C   0  0  0  0  0  0  0  0  0  0  0  0
  162.2721  142.9183  187.3070 C   0  0  0  0  0  0  0  0  0  0  0  0
  163.2342  142.4255  186.4457 C   0  0  0  0  0  0  0  0  0  0  0  0
  162.9439  142.1082  185.1551 N   0  0  0  0  0  0  0  0  0  0  0  0
  161.6880  142.2810  184.7141 C   0  0  0  0  0  0  0  0  0  0  0  0
  161.1699  142.0496  183.5251 O   0  0  0  0  0  0  0  0  0  0  0  0
  156.1639  140.7086  184.0939 C   0  0  0  0  0  0  0  0  0  0  0  0
  155.1306  140.3665  183.0765 C   0  0  0  0  0  0  0  0  0  0  0  0
  153.8125  139.8730  183.6542 C   0  0  0  0  0  0  0  0  0  0  0  0
  153.8022  137.9440  185.1402 C   0  0  0  0  0  0  0  0  0  0  0  0
  153.9235  138.4359  183.9320 C   0  0  0  0  0  0  0  0  0  0  0  0
  153.5496  138.7339  186.3244 C   0  0  0  0  0  0  0  0  0  0  0  0
  152.6909  138.0062  187.3568 C   0  0  0  0  0  0  0  0  0  0  0  0
  153.4800  137.5902  188.5425 C   0  0  0  0  0  0  0  0  0  0  0  0
  154.4693  138.6392  189.0496 C   0  0  0  0  0  0  0  0  0  0  0  0
  155.8167  138.0714  189.2849 C   0  0  0  0  0  0  0  0  0  0  0  0
  156.3439  137.9808  190.6599 C   0  0  0  0  0  0  0  0  0  0  0  0
  156.6548  135.9803  192.0989 C   0  0  0  0  0  0  0  0  0  0  0  0
  155.7264  137.0472  191.6267 C   0  0  0  0  0  0  0  0  0  0  0  0
 27 28  1  0  0  0
 28 26  1  0  0  0
 26 25  1  0  0  0
 25 24  1  0  0  0
 24 23  1  0  0  0
 23 22  1  0  0  0
 22 21  1  0  0  0
 21 19  1  0  0  0
 19 20  2  0  0  0
 20 18  1  0  0  0
 18 17  1  0  0  0
 17 16  1  0  0  0
 16  1  1  0  0  0
  1  2  1  0  0  0
  2  3  1  0  0  0
  3  4  1  0  0  0
  4  5  1  0  0  0
  5  6  2  0  0  0
  5  7  1  0  0  0
  7  8  2  0  0  0
  8  9  1  0  0  0
  9 10  2  0  0  0
 10 11  1  0  0  0
 11 12  2  0  0  0
 12 13  1  0  0  0
 13 14  2  0  0  0
 14 15  1  0  0  0
 15  7  1  0  0  0
 14  9  1  0  0  0
M  END
> <minimizedAffinity>
-7.06254

> <CNNscore>
0.5172225237

> <CNNaffinity>
6.7948088646

> <CNN_VS>
3.5144281387

> <CNNaffinity_variance>
0.0819726735

$$$$
[H]/C(=C(\[H])C([H])([H])C([H])([H])C([H])([H])C([H])([H])C([H])([H])C([H])([H])C([H])([H])C([H])([H])[H])C([H])([H])C([H])([H])C([H])([H])C([H])([H])C([H])([H])C([H])([H])C([H])([H])C(=O)c1nc2c([H])c([H])c([H])nc2o1


 28 29  0  0  0  0  0  0  0  0999 V2000
  155.0466  138.5139  185.1789 C   0  0  0  0  0  0  0  0  0  0  0  0
  154.0163  138.6138  186.1981 C   0  0  0  0  0  0  0  0  0  0  0  0
  152.7890  137.8211  186.2240 C   0  0  0  0  0  0  0  0  0  0  0  0
  152.7944  136.4742  185.5748 C   0  0  0  0  0  0  0  0  0  0  0  0
  151.6450  136.3641  184.6017 C   0  0  0  0  0  0  0  0  0  0  0  0
  150.7658  135.5040  184.8136 O   0  0  0  0  0  0  0  0  0  0  0  0
  151.5613  137.2270  183.4568 C   0  0  0  0  0  0  0  0  0  0  0  0
  150.4252  137.7797  182.9634 N   0  0  0  0  0  0  0  0  0  0  0  0
  150.7167  138.5307  181.8851 C   0  0  0  0  0  0  0  0  0  0  0  0
  150.0180  139.3027  180.9986 C   0  0  0  0  0  0  0  0  0  0  0  0
  150.6794  139.9460  179.9836 C   0  0  0  0  0  0  0  0  0  0  0  0
  152.0496  139.7986  179.8783 C   0  0  0  0  0  0  0  0  0  0  0  0
  152.7562  139.0336  180.7538 N   0  0  0  0  0  0  0  0  0  0  0  0
  152.0982  138.4089  181.7429 C   0  0  0  0  0  0  0  0  0  0  0  0
  152.5542  137.6254  182.6989 O   0  0  0  0  0  0  0  0  0  0  0  0
  155.1911  139.4998  184.0937 C   0  0  0  0  0  0  0  0  0  0  0  0
  154.0969  140.5065  184.0002 C   0  0  0  0  0  0  0  0  0  0  0  0
  154.4811  141.7948  183.2878 C   0  0  0  0  0  0  0  0  0  0  0  0
  156.3614  142.0533  181.7623 C   0  0  0  0  0  0  0  0  0  0  0  0
  155.2357  141.4599  182.0739 C   0  0  0  0  0  0  0  0  0  0  0  0
  156.9888  143.0873  182.5542 C   0  0  0  0  0  0  0  0  0  0  0  0
  158.2875  142.6296  183.2149 C   0  0  0  0  0  0  0  0  0  0  0  0
  158.0365  141.7785  184.4041 C   0  0  0  0  0  0  0  0  0  0  0  0
  159.2975  141.2430  185.0821 C   0  0  0  0  0  0  0  0  0  0  0  0
  159.7861  142.1456  186.1497 C   0  0  0  0  0  0  0  0  0  0  0  0
  160.8242  143.1483  185.8434 C   0  0  0  0  0  0  0  0  0  0  0  0
  162.8688  142.5515  187.1212 C   0  0  0  0  0  0  0  0  0  0  0  0
  161.7895  143.5536  186.8880 C   0  0  0  0  0  0  0  0  0  0  0  0
 27 28  1  0  0  0
 28 26  1  0  0  0
 26 25  1  0  0  0
 25 24  1  0  0  0
 24 23  1  0  0  0
 23 22  1  0  0  0
 22 21  1  0  0  0
 21 19  1  0  0  0
 19 20  2  0  0  0
 20 18  1  0  0  0
 18 17  1  0  0  0
 17 16  1  0  0  0
 16  1  1  0  0  0
  1  2  1  0  0  0
  2  3  1  0  0  0
  3  4  1  0  0  0
  4  5  1  0  0  0
  5  6  2  0  0  0
  5  7  1  0  0  0
  7  8  2  0  0  0
  8  9  1  0  0  0
  9 10  2  0  0  0
 10 11  1  0  0  0
 11 12  2  0  0  0
 12 13  1  0  0  0
 13 14  2  0  0  0
 14 15  1  0  0  0
 15  7  1  0  0  0
 14  9  1  0  0  0
M  END
> <minimizedAffinity>
-6.32164

> <CNNscore>
0.4882241488

> <CNNaffinity>
6.3366785049

> <CNN_VS>
3.0937194824

> <CNNaffinity_variance>
0.1178838611

$$$$
[H]/C(=C(\[H])C([H])([H])C([H])([H])C([H])([H])C([H])([H])C([H])([H])C([H])([H])C([H])([H])C([H])([H])[H])C([H])([H])C([H])([H])C([H])([H])C([H])([H])C([H])([H])C([H])([H])C([H])([H])C(=O)c1nc2c([H])c([H])c([H])nc2o1


 28 29  0  0  0  0  0  0  0  0999 V2000
  154.2699  138.5065  185.3650 C   0  0  0  0  0  0  0  0  0  0  0  0
  154.7093  139.4397  184.3421 C   0  0  0  0  0  0  0  0  0  0  0  0
  156.0951  139.6152  183.9130 C   0  0  0  0  0  0  0  0  0  0  0  0
  156.4543  140.8453  183.1426 C   0  0  0  0  0  0  0  0  0  0  0  0
  157.9103  140.8000  182.7448 C   0  0  0  0  0  0  0  0  0  0  0  0
  158.2072  140.3377  181.6241 O   0  0  0  0  0  0  0  0  0  0  0  0
  158.9336  141.2765  183.6326 C   0  0  0  0  0  0  0  0  0  0  0  0
  158.7287  141.8144  184.8608 N   0  0  0  0  0  0  0  0  0  0  0  0
  159.9097  142.1516  185.4116 C   0  0  0  0  0  0  0  0  0  0  0  0
  160.3297  142.7124  186.5860 C   0  0  0  0  0  0  0  0  0  0  0  0
  161.6686  142.9128  186.8069 C   0  0  0  0  0  0  0  0  0  0  0  0
  162.5716  142.5403  185.8292 C   0  0  0  0  0  0  0  0  0  0  0  0
  162.1666  141.9815  184.6568 N   0  0  0  0  0  0  0  0  0  0  0  0
  160.8540  141.7902  184.4517 C   0  0  0  0  0  0  0  0  0  0  0  0
  160.2264  141.2753  183.4141 O   0  0  0  0  0  0  0  0  0  0  0  0
  155.1351  138.0807  186.4789 C   0  0  0  0  0  0  0  0  0  0  0  0
  154.4318  137.4138  187.6103 C   0  0  0  0  0  0  0  0  0  0  0  0
  153.8879  138.3647  188.6662 C   0  0  0  0  0  0  0  0  0  0  0  0
  154.9644  138.0936  190.8335 C   0  0  0  0  0  0  0  0  0  0  0  0
  154.9459  138.6440  189.6447 C   0  0  0  0  0  0  0  0  0  0  0  0
  153.9704  137.1640  191.3211 C   0  0  0  0  0  0  0  0  0  0  0  0
  154.5577  136.0765  192.2184 C   0  0  0  0  0  0  0  0  0  0  0  0
  153.6103  134.9531  192.4234 C   0  0  0  0  0  0  0  0  0  0  0  0
  152.9122  134.9482  193.7832 C   0  0  0  0  0  0  0  0  0  0  0  0
  151.4687  135.2603  193.6732 C   0  0  0  0  0  0  0  0  0  0  0  0
  151.0391  136.5434  193.0853 C   0  0  0  0  0  0  0  0  0  0  0  0
  150.5423  135.5121  190.8809 C   0  0  0  0  0  0  0  0  0  0  0  0
  150.1759  136.5525  191.8843 C   0  0  0  0  0  0  0  0  0  0  0  0
 27 28  1  0  0  0
 28 26  1  0  0  0
 26 25  1  0  0  0
 25 24  1  0  0  0
 24 23  1  0  0  0
 23 22  1  0  0  0
 22 21  1  0  0  0
 21 19  1  0  0  0
 19 20  2  0  0  0
 20 18  1  0  0  0
 18 17  1  0  0  0
 17 16  1  0  0  0
 16  1  1  0  0  0
  1  2  1  0  0  0
  2  3  1  0  0  0
  3  4  1  0  0  0
  4  5  1  0  0  0
  5  6  2  0  0  0
  5  7  1  0  0  0
  7  8  2  0  0  0
  8  9  1  0  0  0
  9 10  2  0  0  0
 10 11  1  0  0  0
 11 12  2  0  0  0
 12 13  1  0  0  0
 13 14  2  0  0  0
 14 15  1  0  0  0
 15  7  1  0  0  0
 14  9  1  0  0  0
M  END
> <minimizedAffinity>
-6.77124

> <CNNscore>
0.4807496965

> <CNNaffinity>
6.3061766624

> <CNN_VS>
3.0316925049

> <CNNaffinity_variance>
0.0267643593

$$$$
[H]/C(=C(\[H])C([H])([H])C([H])([H])C([H])([H])C([H])([H])C([H])([H])C([H])([H])C([H])([H])C([H])([H])[H])C([H])([H])C([H])([H])C([H])([H])C([H])([H])C([H])([H])C([H])([H])C([H])([H])C(=O)c1nc2c([H])c([H])c([H])nc2o1


 28 29  0  0  0  0  0  0  0  0999 V2000
  157.8587  140.2017  184.1773 C   0  0  0  0  0  0  0  0  0  0  0  0
  156.8989  141.2888  184.0921 C   0  0  0  0  0  0  0  0  0  0  0  0
  155.8045  141.3615  183.1266 C   0  0  0  0  0  0  0  0  0  0  0  0
  154.4080  141.1359  183.6110 C   0  0  0  0  0  0  0  0  0  0  0  0
  153.9515  139.7441  183.2440 C   0  0  0  0  0  0  0  0  0  0  0  0
  154.4718  138.7728  183.8303 O   0  0  0  0  0  0  0  0  0  0  0  0
  152.9421  139.5377  182.2435 C   0  0  0  0  0  0  0  0  0  0  0  0
  151.8969  138.6785  182.3389 N   0  0  0  0  0  0  0  0  0  0  0  0
  151.1524  138.7430  181.2193 C   0  0  0  0  0  0  0  0  0  0  0  0
  150.0196  138.1392  180.7480 C   0  0  0  0  0  0  0  0  0  0  0  0
  149.5335  138.4709  179.5090 C   0  0  0  0  0  0  0  0  0  0  0  0
  150.2053  139.4166  178.7575 C   0  0  0  0  0  0  0  0  0  0  0  0
  151.3331  140.0245  179.2150 N   0  0  0  0  0  0  0  0  0  0  0  0
  151.7994  139.6918  180.4288 C   0  0  0  0  0  0  0  0  0  0  0  0
  152.8558  140.1348  181.0794 O   0  0  0  0  0  0  0  0  0  0  0  0
  158.7179  139.8078  183.0472 C   0  0  0  0  0  0  0  0  0  0  0  0
  159.1868  140.9287  182.1851 C   0  0  0  0  0  0  0  0  0  0  0  0
  158.8832  140.7579  180.7041 C   0  0  0  0  0  0  0  0  0  0  0  0
  157.9895  142.9735  180.2328 C   0  0  0  0  0  0  0  0  0  0  0  0
  157.8040  141.6802  180.3305 C   0  0  0  0  0  0  0  0  0  0  0  0
  159.2491  143.6407  180.4741 C   0  0  0  0  0  0  0  0  0  0  0  0
  159.1457  144.7568  181.5116 C   0  0  0  0  0  0  0  0  0  0  0  0
  158.9708  144.2244  182.8855 C   0  0  0  0  0  0  0  0  0  0  0  0
  160.2564  144.1508  183.7089 C   0  0  0  0  0  0  0  0  0  0  0  0
  160.1382  143.2144  184.8501 C   0  0  0  0  0  0  0  0  0  0  0  0
  161.3554  142.6497  185.4638 C   0  0  0  0  0  0  0  0  0  0  0  0
  163.1526  142.6177  187.1780 C   0  0  0  0  0  0  0  0  0  0  0  0
  161.8157  143.1442  186.7795 C   0  0  0  0  0  0  0  0  0  0  0  0
 27 28  1  0  0  0
 28 26  1  0  0  0
 26 25  1  0  0  0
 25 24  1  0  0  0
 24 23  1  0  0  0
 23 22  1  0  0  0
 22 21  1  0  0  0
 21 19  1  0  0  0
 19 20  2  0  0  0
 20 18  1  0  0  0
 18 17  1  0  0  0
 17 16  1  0  0  0
 16  1  1  0  0  0
  1  2  1  0  0  0
  2  3  1  0  0  0
  3  4  1  0  0  0
  4  5  1  0  0  0
  5  6  2  0  0  0
  5  7  1  0  0  0
  7  8  2  0  0  0
  8  9  1  0  0  0
  9 10  2  0  0  0
 10 11  1  0  0  0
 11 12  2  0  0  0
 12 13  1  0  0  0
 13 14  2  0  0  0
 14 15  1  0  0  0
 15  7  1  0  0  0
 14  9  1  0  0  0
M  END
> <minimizedAffinity>
-7.32870

> <CNNscore>
0.4611194134

> <CNNaffinity>
6.6810159683

> <CNN_VS>
3.0807461739

> <CNNaffinity_variance>
0.0939879566

$$$$
[H]/C(=C(\[H])C([H])([H])C([H])([H])C([H])([H])C([H])([H])C([H])([H])C([H])([H])C([H])([H])C([H])([H])[H])C([H])([H])C([H])([H])C([H])([H])C([H])([H])C([H])([H])C([H])([H])C([H])([H])C(=O)c1nc2c([H])c([H])c([H])nc2o1


 28 29  0  0  0  0  0  0  0  0999 V2000
  155.8489  142.6563  183.3709 C   0  0  0  0  0  0  0  0  0  0  0  0
  156.6290  142.7541  182.1494 C   0  0  0  0  0  0  0  0  0  0  0  0
  156.8905  141.6442  181.2357 C   0  0  0  0  0  0  0  0  0  0  0  0
  158.3062  141.2131  181.0217 C   0  0  0  0  0  0  0  0  0  0  0  0
  158.7831  140.3990  182.2007 C   0  0  0  0  0  0  0  0  0  0  0  0
  158.5901  139.1660  182.1899 O   0  0  0  0  0  0  0  0  0  0  0  0
  159.4437  141.0249  183.3117 C   0  0  0  0  0  0  0  0  0  0  0  0
  160.7419  141.4168  183.3423 N   0  0  0  0  0  0  0  0  0  0  0  0
  161.0227  141.9644  184.5394 C   0  0  0  0  0  0  0  0  0  0  0  0
  162.1182  142.5191  185.1414 C   0  0  0  0  0  0  0  0  0  0  0  0
  162.0260  142.9916  186.4258 C   0  0  0  0  0  0  0  0  0  0  0  0
  160.8173  142.8959  187.0892 C   0  0  0  0  0  0  0  0  0  0  0  0
  159.7202  142.3464  186.5015 N   0  0  0  0  0  0  0  0  0  0  0  0
  159.8224  141.8875  185.2444 C   0  0  0  0  0  0  0  0  0  0  0  0
  158.9152  141.3225  184.4741 O   0  0  0  0  0  0  0  0  0  0  0  0
  154.5411  141.9805  183.4284 C   0  0  0  0  0  0  0  0  0  0  0  0
  154.5814  140.5543  183.8572 C   0  0  0  0  0  0  0  0  0  0  0  0
  153.5999  139.6468  183.1306 C   0  0  0  0  0  0  0  0  0  0  0  0
  152.3320  139.8246  181.0594 C   0  0  0  0  0  0  0  0  0  0  0  0
  152.9584  140.4076  182.0515 C   0  0  0  0  0  0  0  0  0  0  0  0
  152.1957  138.3938  180.9046 C   0  0  0  0  0  0  0  0  0  0  0  0
  150.7607  137.9058  181.0925 C   0  0  0  0  0  0  0  0  0  0  0  0
  150.0679  137.7038  179.7960 C   0  0  0  0  0  0  0  0  0  0  0  0
  149.0445  138.7837  179.4453 C   0  0  0  0  0  0  0  0  0  0  0  0
  147.7646  138.5985  180.1669 C   0  0  0  0  0  0  0  0  0  0  0  0
  147.3665  139.5612  181.2116 C   0  0  0  0  0  0  0  0  0  0  0  0
  147.4961  139.0657  183.6421 C   0  0  0  0  0  0  0  0  0  0  0  0
  148.1615  139.6727  182.4538 C   0  0  0  0  0  0  0  0  0  0  0  0
 27 28  1  0  0  0
 28 26  1  0  0  0
 26 25  1  0  0  0
 25 24  1  0  0  0
 24 23  1  0  0  0
 23 22  1  0  0  0
 22 21  1  0  0  0
 21 19  1  0  0  0
 19 20  2  0  0  0
 20 18  1  0  0  0
 18 17  1  0  0  0
 17 16  1  0  0  0
 16  1  1  0  0  0
  1  2  1  0  0  0
  2  3  1  0  0  0
  3  4  1  0  0  0
  4  5  1  0  0  0
  5  6  2  0  0  0
  5  7  1  0  0  0
  7  8  2  0  0  0
  8  9  1  0  0  0
  9 10  2  0  0  0
 10 11  1  0  0  0
 11 12  2  0  0  0
 12 13  1  0  0  0
 13 14  2  0  0  0
 14 15  1  0  0  0
 15  7  1  0  0  0
 14  9  1  0  0  0
M  END
> <minimizedAffinity>
-7.19457

> <CNNscore>
0.4493725598

> <CNNaffinity>
6.5382552147

> <CNN_VS>
2.9381124973

> <CNNaffinity_variance>
0.0420994833

$$$$
[H]c1c([H])c([H])c(C([H])([H])C([H])([H])C([H])([H])[H])c(OC([H])(C2=NC([H])([H])C([H])([H])N2[H])C([H])([H])[H])c1[H]


 18 19  0  0  0  0  0  0  0  0999 V2000
  158.9157  142.7156  182.2729 C   0  0  0  0  0  0  0  0  0  0  0  0
  159.3107  143.5894  181.2845 C   0  0  0  0  0  0  0  0  0  0  0  0
  159.0587  143.3513  179.9498 C   0  0  0  0  0  0  0  0  0  0  0  0
  158.3907  142.2094  179.5598 C   0  0  0  0  0  0  0  0  0  0  0  0
  157.9868  141.3226  180.5337 C   0  0  0  0  0  0  0  0  0  0  0  0
  158.2381  141.5592  181.8666 C   0  0  0  0  0  0  0  0  0  0  0  0
  159.1691  142.9298  183.7005 C   0  0  0  0  0  0  0  0  0  0  0  0
  161.2258  143.5013  184.9857 C   0  0  0  0  0  0  0  0  0  0  0  0
  160.5302  142.4292  184.1378 C   0  0  0  0  0  0  0  0  0  0  0  0
  157.8539  140.7070  182.8550 O   0  0  0  0  0  0  0  0  0  0  0  0
  156.8441  140.8551  183.7864 C   0  0  0  0  0  0  0  0  0  0  0  0
  156.5436  139.6182  184.5730 C   0  0  0  0  0  0  0  0  0  0  0  0
  155.5652  141.3517  183.1506 C   0  0  0  0  0  0  0  0  0  0  0  0
  155.0974  142.5235  183.3725 N   0  0  0  0  0  0  0  0  0  0  0  0
  153.8799  142.7328  182.6480 C   0  0  0  0  0  0  0  0  0  0  0  0
  153.5041  141.3712  182.1084 C   0  0  0  0  0  0  0  0  0  0  0  0
  154.7334  140.6362  182.2607 N   0  0  0  0  0  0  0  0  0  0  0  0
  154.9764  139.7153  181.7872 H   0  0  0  0  0  0  0  0  0  0  0  0
  8  9  1  0  0  0
  9  7  1  0  0  0
  7  1  1  0  0  0
  1  2  2  0  0  0
  2  3  1  0  0  0
  3  4  2  0  0  0
  4  5  1  0  0  0
  5  6  2  0  0  0
  6 10  1  0  0  0
 10 11  1  0  0  0
 11 12  1  0  0  0
 11 13  1  0  0  0
 13 14  2  0  0  0
 14 15  1  0  0  0
 15 16  1  0  0  0
 16 17  1  0  0  0
  6  1  1  0  0  0
 17 13  1  0  0  0
 17 18  1  0  0  0
M  END
> <minimizedAffinity>
-6.63022

> <CNNscore>
0.7489938736

> <CNNaffinity>
6.0062246323

> <CNN_VS>
4.4986252785

> <CNNaffinity_variance>
0.1653977931

$$$$
[H]c1c([H])c([H])c(C([H])([H])C([H])([H])C([H])([H])[H])c(OC([H])(C2=NC([H])([H])C([H])([H])N2[H])C([H])([H])[H])c1[H]


 18 19  0  0  0  0  0  0  0  0999 V2000
  155.3771  140.8006  183.5525 C   0  0  0  0  0  0  0  0  0  0  0  0
  154.0940  141.0082  183.0974 C   0  0  0  0  0  0  0  0  0  0  0  0
  153.6765  142.2279  182.6080 C   0  0  0  0  0  0  0  0  0  0  0  0
  154.5492  143.2948  182.5592 C   0  0  0  0  0  0  0  0  0  0  0  0
  155.8376  143.1074  183.0097 C   0  0  0  0  0  0  0  0  0  0  0  0
  156.2556  141.8901  183.4988 C   0  0  0  0  0  0  0  0  0  0  0  0
  155.8574  139.5222  184.0846 C   0  0  0  0  0  0  0  0  0  0  0  0
  155.3606  138.3128  186.2057 C   0  0  0  0  0  0  0  0  0  0  0  0
  154.7933  138.7690  184.8557 C   0  0  0  0  0  0  0  0  0  0  0  0
  157.5192  141.6683  183.9511 O   0  0  0  0  0  0  0  0  0  0  0  0
  158.6218  141.2063  183.2582 C   0  0  0  0  0  0  0  0  0  0  0  0
  159.9357  141.5826  183.8671 C   0  0  0  0  0  0  0  0  0  0  0  0
  158.6054  141.6582  181.8154 C   0  0  0  0  0  0  0  0  0  0  0  0
  159.1267  142.7652  181.4360 N   0  0  0  0  0  0  0  0  0  0  0  0
  158.9701  142.9459  180.0239 C   0  0  0  0  0  0  0  0  0  0  0  0
  158.0132  141.8577  179.5918 C   0  0  0  0  0  0  0  0  0  0  0  0
  158.0416  140.9645  180.7213 N   0  0  0  0  0  0  0  0  0  0  0  0
  157.6991  139.9576  180.7336 H   0  0  0  0  0  0  0  0  0  0  0  0
  8  9  1  0  0  0
  9  7  1  0  0  0
  7  1  1  0  0  0
  1  2  2  0  0  0
  2  3  1  0  0  0
  3  4  2  0  0  0
  4  5  1  0  0  0
  5  6  2  0  0  0
  6 10  1  0  0  0
 10 11  1  0  0  0
 11 12  1  0  0  0
 11 13  1  0  0  0
 13 14  2  0  0  0
 14 15  1  0  0  0
 15 16  1  0  0  0
 16 17  1  0  0  0
  6  1  1  0  0  0
 17 13  1  0  0  0
 17 18  1  0  0  0
M  END
> <minimizedAffinity>
-6.50986

> <CNNscore>
0.7057167292

> <CNNaffinity>
5.7659759521

> <CNN_VS>
4.0691456795

> <CNNaffinity_variance>
0.1562716812

$$$$
[H]c1c([H])c([H])c(C([H])([H])C([H])([H])C([H])([H])[H])c(OC([H])(C2=NC([H])([H])C([H])([H])N2[H])C([H])([H])[H])c1[H]


 18 19  0  0  0  0  0  0  0  0999 V2000
  158.3024  142.8317  182.7407 C   0  0  0  0  0  0  0  0  0  0  0  0
  159.3801  142.9354  183.5917 C   0  0  0  0  0  0  0  0  0  0  0  0
  159.5161  142.1344  184.7058 C   0  0  0  0  0  0  0  0  0  0  0  0
  158.5583  141.1880  185.0047 C   0  0  0  0  0  0  0  0  0  0  0  0
  157.4723  141.0683  184.1654 C   0  0  0  0  0  0  0  0  0  0  0  0
  157.3353  141.8678  183.0528 C   0  0  0  0  0  0  0  0  0  0  0  0
  158.1187  143.6674  181.5508 C   0  0  0  0  0  0  0  0  0  0  0  0
  158.3776  142.3599  179.4454 C   0  0  0  0  0  0  0  0  0  0  0  0
  159.0717  143.3106  180.4287 C   0  0  0  0  0  0  0  0  0  0  0  0
  156.2778  141.7774  182.2019 O   0  0  0  0  0  0  0  0  0  0  0  0
  154.9630  142.1493  182.4070 C   0  0  0  0  0  0  0  0  0  0  0  0
  154.7345  142.9492  183.6507 C   0  0  0  0  0  0  0  0  0  0  0  0
  154.0388  140.9526  182.4198 C   0  0  0  0  0  0  0  0  0  0  0  0
  154.2303  139.9446  183.1869 N   0  0  0  0  0  0  0  0  0  0  0  0
  153.2110  138.9568  182.9959 C   0  0  0  0  0  0  0  0  0  0  0  0
  152.4564  139.4032  181.7640 C   0  0  0  0  0  0  0  0  0  0  0  0
  152.8824  140.7724  181.6285 N   0  0  0  0  0  0  0  0  0  0  0  0
  152.4111  141.5204  181.0371 H   0  0  0  0  0  0  0  0  0  0  0  0
  8  9  1  0  0  0
  9  7  1  0  0  0
  7  1  1  0  0  0
  1  2  2  0  0  0
  2  3  1  0  0  0
  3  4  2  0  0  0
  4  5  1  0  0  0
  5  6  2  0  0  0
  6 10  1  0  0  0
 10 11  1  0  0  0
 11 12  1  0  0  0
 11 13  1  0  0  0
 13 14  2  0  0  0
 14 15  1  0  0  0
 15 16  1  0  0  0
 16 17  1  0  0  0
  6  1  1  0  0  0
 17 13  1  0  0  0
 17 18  1  0  0  0
M  END
> <minimizedAffinity>
-6.39245

> <CNNscore>
0.6748949289

> <CNNaffinity>
5.7128767967

> <CNN_VS>
3.8555915356

> <CNNaffinity_variance>
0.0761147961

$$$$
[H]c1c([H])c([H])c(C([H])([H])C([H])([H])C([H])([H])[H])c(OC([H])(C2=NC([H])([H])C([H])([H])N2[H])C([H])([H])[H])c1[H]


 18 19  0  0  0  0  0  0  0  0999 V2000
  157.3562  141.7756  181.5234 C   0  0  0  0  0  0  0  0  0  0  0  0
  157.3742  141.8478  180.1483 C   0  0  0  0  0  0  0  0  0  0  0  0
  158.3536  142.5338  179.4615 C   0  0  0  0  0  0  0  0  0  0  0  0
  159.3624  143.1791  180.1458 C   0  0  0  0  0  0  0  0  0  0  0  0
  159.3623  143.1186  181.5221 C   0  0  0  0  0  0  0  0  0  0  0  0
  158.3847  142.4341  182.2090 C   0  0  0  0  0  0  0  0  0  0  0  0
  156.3307  141.0620  182.2898 C   0  0  0  0  0  0  0  0  0  0  0  0
  154.8755  142.9190  183.0915 C   0  0  0  0  0  0  0  0  0  0  0  0
  154.9600  141.6955  182.1705 C   0  0  0  0  0  0  0  0  0  0  0  0
  158.3530  142.3524  183.5665 O   0  0  0  0  0  0  0  0  0  0  0  0
  158.9700  141.4363  184.3967 C   0  0  0  0  0  0  0  0  0  0  0  0
  158.0575  140.7941  185.3936 C   0  0  0  0  0  0  0  0  0  0  0  0
  160.1421  142.0475  185.1309 C   0  0  0  0  0  0  0  0  0  0  0  0
  161.3310  142.0408  184.6539 N   0  0  0  0  0  0  0  0  0  0  0  0
  162.2447  142.6823  185.5509 C   0  0  0  0  0  0  0  0  0  0  0  0
  161.4644  142.8825  186.8306 C   0  0  0  0  0  0  0  0  0  0  0  0
  160.1071  142.6863  186.3906 N   0  0  0  0  0  0  0  0  0  0  0  0
  159.2290  142.9715  186.9187 H   0  0  0  0  0  0  0  0  0  0  0  0
  8  9  1  0  0  0
  9  7  1  0  0  0
  7  1  1  0  0  0
  1  2  2  0  0  0
  2  3  1  0  0  0
  3  4  2  0  0  0
  4  5  1  0  0  0
  5  6  2  0  0  0
  6 10  1  0  0  0
 10 11  1  0  0  0
 11 12  1  0  0  0
 11 13  1  0  0  0
 13 14  2  0  0  0
 14 15  1  0  0  0
 15 16  1  0  0  0
 16 17  1  0  0  0
  6  1  1  0  0  0
 17 13  1  0  0  0
 17 18  1  0  0  0
M  END
> <minimizedAffinity>
-6.53602

> <CNNscore>
0.6662617326

> <CNNaffinity>
6.1102819443

> <CNN_VS>
4.0710468292

> <CNNaffinity_variance>
0.0816318840

$$$$
[H]c1c([H])c([H])c(C([H])([H])C([H])([H])C([H])([H])[H])c(OC([H])(C2=NC([H])([H])C([H])([H])N2[H])C([H])([H])[H])c1[H]


 18 19  0  0  0  0  0  0  0  0999 V2000
  157.0009  142.5918  182.0511 C   0  0  0  0  0  0  0  0  0  0  0  0
  157.4382  143.5373  181.1504 C   0  0  0  0  0  0  0  0  0  0  0  0
  158.3133  143.2303  180.1299 C   0  0  0  0  0  0  0  0  0  0  0  0
  158.7841  141.9426  179.9795 C   0  0  0  0  0  0  0  0  0  0  0  0
  158.3582  140.9819  180.8704 C   0  0  0  0  0  0  0  0  0  0  0  0
  157.4846  141.2874  181.8899 C   0  0  0  0  0  0  0  0  0  0  0  0
  156.0764  142.8792  183.1515 C   0  0  0  0  0  0  0  0  0  0  0  0
  153.8843  141.9585  182.4059 C   0  0  0  0  0  0  0  0  0  0  0  0
  154.6853  143.2391  182.6723 C   0  0  0  0  0  0  0  0  0  0  0  0
  157.0423  140.3654  182.7871 O   0  0  0  0  0  0  0  0  0  0  0  0
  157.7130  139.8002  183.8547 C   0  0  0  0  0  0  0  0  0  0  0  0
  156.8529  139.5237  185.0475 C   0  0  0  0  0  0  0  0  0  0  0  0
  158.8896  140.6458  184.2871 C   0  0  0  0  0  0  0  0  0  0  0  0
  158.7992  141.5274  185.2122 N   0  0  0  0  0  0  0  0  0  0  0  0
  160.0566  142.1810  185.4193 C   0  0  0  0  0  0  0  0  0  0  0  0
  160.9271  141.7333  184.2667 C   0  0  0  0  0  0  0  0  0  0  0  0
  160.2009  140.5957  183.7638 N   0  0  0  0  0  0  0  0  0  0  0  0
  160.5819  139.8463  183.1122 H   0  0  0  0  0  0  0  0  0  0  0  0
  8  9  1  0  0  0
  9  7  1  0  0  0
  7  1  1  0  0  0
  1  2  2  0  0  0
  2  3  1  0  0  0
  3  4  2  0  0  0
  4  5  1  0  0  0
  5  6  2  0  0  0
  6 10  1  0  0  0
 10 11  1  0  0  0
 11 12  1  0  0  0
 11 13  1  0  0  0
 13 14  2  0  0  0
 14 15  1  0  0  0
 15 16  1  0  0  0
 16 17  1  0  0  0
  6  1  1  0  0  0
 17 13  1  0  0  0
 17 18  1  0  0  0
M  END
> <minimizedAffinity>
-6.69535

> <CNNscore>
0.6537067890

> <CNNaffinity>
5.8848361969

> <CNN_VS>
3.8469574451

> <CNNaffinity_variance>
0.1970061958

$$$$
[H]c1c([H])c([H])c(C([H])([H])C([H])([H])C([H])([H])[H])c(OC([H])(C2=NC([H])([H])C([H])([H])N2[H])C([H])([H])[H])c1[H]


 18 19  0  0  0  0  0  0  0  0999 V2000
  154.0475  137.1435  190.9079 C   0  0  0  0  0  0  0  0  0  0  0  0
  155.1422  136.9586  191.7227 C   0  0  0  0  0  0  0  0  0  0  0  0
  156.4140  137.3290  191.3397 C   0  0  0  0  0  0  0  0  0  0  0  0
  156.6296  137.9068  190.1060 C   0  0  0  0  0  0  0  0  0  0  0  0
  155.5472  138.1006  189.2760 C   0  0  0  0  0  0  0  0  0  0  0  0
  154.2768  137.7309  189.6573 C   0  0  0  0  0  0  0  0  0  0  0  0
  152.6820  136.7587  191.2758 C   0  0  0  0  0  0  0  0  0  0  0  0
  151.0145  136.5115  193.1108 C   0  0  0  0  0  0  0  0  0  0  0  0
  152.2890  137.2353  192.6589 C   0  0  0  0  0  0  0  0  0  0  0  0
  153.1852  137.9074  188.8650 O   0  0  0  0  0  0  0  0  0  0  0  0
  152.9906  137.5172  187.5539 C   0  0  0  0  0  0  0  0  0  0  0  0
  153.1824  138.6099  186.5498 C   0  0  0  0  0  0  0  0  0  0  0  0
  151.6246  136.9017  187.3503 C   0  0  0  0  0  0  0  0  0  0  0  0
  151.1673  135.9771  188.1100 N   0  0  0  0  0  0  0  0  0  0  0  0
  149.8568  135.5762  187.6942 C   0  0  0  0  0  0  0  0  0  0  0  0
  149.6494  136.2410  186.3520 C   0  0  0  0  0  0  0  0  0  0  0  0
  150.6918  137.2348  186.3428 N   0  0  0  0  0  0  0  0  0  0  0  0
  150.7523  138.0745  185.6929 H   0  0  0  0  0  0  0  0  0  0  0  0
  8  9  1  0  0  0
  9  7  1  0  0  0
  7  1  1  0  0  0
  1  2  2  0  0  0
  2  3  1  0  0  0
  3  4  2  0  0  0
  4  5  1  0  0  0
  5  6  2  0  0  0
  6 10  1  0  0  0
 10 11  1  0  0  0
 11 12  1  0  0  0
 11 13  1  0  0  0
 13 14  2  0  0  0
 14 15  1  0  0  0
 15 16  1  0  0  0
 16 17  1  0  0  0
  6  1  1  0  0  0
 17 13  1  0  0  0
 17 18  1  0  0  0
M  END
> <minimizedAffinity>
-4.68541

> <CNNscore>
0.6450977325

> <CNNaffinity>
4.3234057426

> <CNN_VS>
2.7890193462

> <CNNaffinity_variance>
0.0689163953

$$$$
[H]c1c([H])c([H])c(C([H])([H])C([H])([H])C([H])([H])[H])c(OC([H])(C2=NC([H])([H])C([H])([H])N2[H])C([H])([H])[H])c1[H]


 18 19  0  0  0  0  0  0  0  0999 V2000
  158.5958  142.8124  183.1902 C   0  0  0  0  0  0  0  0  0  0  0  0
  159.9281  142.9543  183.5081 C   0  0  0  0  0  0  0  0  0  0  0  0
  160.4722  142.4108  184.6527 C   0  0  0  0  0  0  0  0  0  0  0  0
  159.6820  141.6955  185.5281 C   0  0  0  0  0  0  0  0  0  0  0  0
  158.3462  141.5420  185.2278 C   0  0  0  0  0  0  0  0  0  0  0  0
  157.8018  142.0844  184.0853 C   0  0  0  0  0  0  0  0  0  0  0  0
  157.9789  143.3789  181.9874 C   0  0  0  0  0  0  0  0  0  0  0  0
  158.3464  141.5505  180.3349 C   0  0  0  0  0  0  0  0  0  0  0  0
  158.7056  142.9921  180.7158 C   0  0  0  0  0  0  0  0  0  0  0  0
  156.4884  141.9526  183.7563 O   0  0  0  0  0  0  0  0  0  0  0  0
  155.8560  140.9113  183.1045 C   0  0  0  0  0  0  0  0  0  0  0  0
  154.7765  141.3386  182.1606 C   0  0  0  0  0  0  0  0  0  0  0  0
  155.2828  139.9073  184.0790 C   0  0  0  0  0  0  0  0  0  0  0  0
  154.0218  139.7458  184.2372 N   0  0  0  0  0  0  0  0  0  0  0  0
  153.7553  138.7368  185.2180 C   0  0  0  0  0  0  0  0  0  0  0  0
  155.0936  138.4497  185.8608 C   0  0  0  0  0  0  0  0  0  0  0  0
  156.0125  139.0386  184.9209 N   0  0  0  0  0  0  0  0  0  0  0  0
  157.0586  138.8540  184.8668 H   0  0  0  0  0  0  0  0  0  0  0  0
  8  9  1  0  0  0
  9  7  1  0  0  0
  7  1  1  0  0  0
  1  2  2  0  0  0
  2  3  1  0  0  0
  3  4  2  0  0  0
  4  5  1  0  0  0
  5  6  2  0  0  0
  6 10  1  0  0  0
 10 11  1  0  0  0
 11 12  1  0  0  0
 11 13  1  0  0  0
 13 14  2  0  0  0
 14 15  1  0  0  0
 15 16  1  0  0  0
 16 17  1  0  0  0
  6  1  1  0  0  0
 17 13  1  0  0  0
 17 18  1  0  0  0
M  END
> <minimizedAffinity>
-5.78087

> <CNNscore>
0.6128306389

> <CNNaffinity>
5.5669646263

> <CNN_VS>
3.4116065502

> <CNNaffinity_variance>
0.0869820714

$$$$
[H]c1c([H])c([H])c(C([H])([H])C([H])([H])C([H])([H])[H])c(OC([H])(C2=NC([H])([H])C([H])([H])N2[H])C([H])([H])[H])c1[H]


 18 19  0  0  0  0  0  0  0  0999 V2000
  158.5785  141.0293  181.6085 C   0  0  0  0  0  0  0  0  0  0  0  0
  157.9287  141.0044  180.3947 C   0  0  0  0  0  0  0  0  0  0  0  0
  158.0400  142.0307  179.4805 C   0  0  0  0  0  0  0  0  0  0  0  0
  158.8208  143.1324  179.7616 C   0  0  0  0  0  0  0  0  0  0  0  0
  159.4795  143.1764  180.9709 C   0  0  0  0  0  0  0  0  0  0  0  0
  159.3689  142.1522  181.8845 C   0  0  0  0  0  0  0  0  0  0  0  0
  158.4815  139.9620  182.6083 C   0  0  0  0  0  0  0  0  0  0  0  0
  157.7074  140.0620  184.9746 C   0  0  0  0  0  0  0  0  0  0  0  0
  157.2694  140.1048  183.5054 C   0  0  0  0  0  0  0  0  0  0  0  0
  160.0047  142.1610  183.0871 O   0  0  0  0  0  0  0  0  0  0  0  0
  159.9115  143.0821  184.1127 C   0  0  0  0  0  0  0  0  0  0  0  0
  159.9860  144.5092  183.6694 C   0  0  0  0  0  0  0  0  0  0  0  0
  160.9621  142.8455  185.1741 C   0  0  0  0  0  0  0  0  0  0  0  0
  160.7669  143.1257  186.4088 N   0  0  0  0  0  0  0  0  0  0  0  0
  161.9207  142.8044  187.1940 C   0  0  0  0  0  0  0  0  0  0  0  0
  163.0078  142.4979  186.1886 C   0  0  0  0  0  0  0  0  0  0  0  0
  162.2533  142.3070  184.9767 N   0  0  0  0  0  0  0  0  0  0  0  0
  162.6034  141.8420  184.0864 H   0  0  0  0  0  0  0  0  0  0  0  0
  8  9  1  0  0  0
  9  7  1  0  0  0
  7  1  1  0  0  0
  1  2  2  0  0  0
  2  3  1  0  0  0
  3  4  2  0  0  0
  4  5  1  0  0  0
  5  6  2  0  0  0
  6 10  1  0  0  0
 10 11  1  0  0  0
 11 12  1  0  0  0
 11 13  1  0  0  0
 13 14  2  0  0  0
 14 15  1  0  0  0
 15 16  1  0  0  0
 16 17  1  0  0  0
  6  1  1  0  0  0
 17 13  1  0  0  0
 17 18  1  0  0  0
M  END
> <minimizedAffinity>
-6.67870

> <CNNscore>
0.5870834589

> <CNNaffinity>
6.0128049850

> <CNN_VS>
3.5300183296

> <CNNaffinity_variance>
0.0003406798

$$$$
[H]c1c([H])c([H])c(C([H])([H])C([H])([H])C([H])([H])[H])c(OC([H])(C2=NC([H])([H])C([H])([H])N2[H])C([H])([H])[H])c1[H]


 18 19  0  0  0  0  0  0  0  0999 V2000
  153.4096  136.7473  191.6192 C   0  0  0  0  0  0  0  0  0  0  0  0
  152.7884  137.0925  192.7987 C   0  0  0  0  0  0  0  0  0  0  0  0
  151.4188  137.0403  192.9504 C   0  0  0  0  0  0  0  0  0  0  0  0
  150.6171  136.6324  191.9048 C   0  0  0  0  0  0  0  0  0  0  0  0
  151.2195  136.2824  190.7162 C   0  0  0  0  0  0  0  0  0  0  0  0
  152.5869  136.3345  190.5636 C   0  0  0  0  0  0  0  0  0  0  0  0
  154.8604  136.7946  191.4167 C   0  0  0  0  0  0  0  0  0  0  0  0
  156.6165  138.1525  190.2847 C   0  0  0  0  0  0  0  0  0  0  0  0
  155.3766  138.1999  191.1864 C   0  0  0  0  0  0  0  0  0  0  0  0
  153.2160  135.9960  189.4059 O   0  0  0  0  0  0  0  0  0  0  0  0
  153.1881  136.6369  188.1821 C   0  0  0  0  0  0  0  0  0  0  0  0
  153.3238  138.1249  188.2613 C   0  0  0  0  0  0  0  0  0  0  0  0
  151.9358  136.3018  187.4037 C   0  0  0  0  0  0  0  0  0  0  0  0
  151.2337  137.1961  186.8133 N   0  0  0  0  0  0  0  0  0  0  0  0
  150.1063  136.6077  186.1549 C   0  0  0  0  0  0  0  0  0  0  0  0
  150.0645  135.1787  186.6477 C   0  0  0  0  0  0  0  0  0  0  0  0
  151.3772  135.0175  187.2182 N   0  0  0  0  0  0  0  0  0  0  0  0
  151.8474  134.0944  187.4591 H   0  0  0  0  0  0  0  0  0  0  0  0
  8  9  1  0  0  0
  9  7  1  0  0  0
  7  1  1  0  0  0
  1  2  2  0  0  0
  2  3  1  0  0  0
  3  4  2  0  0  0
  4  5  1  0  0  0
  5  6  2  0  0  0
  6 10  1  0  0  0
 10 11  1  0  0  0
 11 12  1  0  0  0
 11 13  1  0  0  0
 13 14  2  0  0  0
 14 15  1  0  0  0
 15 16  1  0  0  0
 16 17  1  0  0  0
  6  1  1  0  0  0
 17 13  1  0  0  0
 17 18  1  0  0  0
M  END
> <minimizedAffinity>
-4.54346

> <CNNscore>
0.5703728199

> <CNNaffinity>
4.1814312935

> <CNN_VS>
2.3849747181

> <CNNaffinity_variance>
0.0613383949

$$$$
[H]C1=C2C([H])([H])C([H])([H])C([H])([H])C([H])([H])[C@]2([H])/C(=C(\[H])C([H])([H])C2([H])C([H])([H])C([H])([H])C(C([H])([H])[H])(C([H])([H])[H])[N+]2(C([H])([H])[H])C([H])([H])[H])[C@]2([H])[C@@]1([H])C(=O)O[C@@]2([H])C([H])([H])[H]


 26 29  0  0  0  0  0  0  0  0999 V2000
  156.0602  138.4248  191.0960 C   0  0  0  0  0  0  0  0  0  0  0  0
  155.4934  137.6799  189.8543 C   0  0  0  0  0  0  0  0  0  0  0  0
  154.4204  136.9373  190.3754 O   0  0  0  0  0  0  0  0  0  0  0  0
  155.0302  135.8869  191.0582 C   0  0  0  0  0  0  0  0  0  0  0  0
  154.4169  135.0574  191.7667 O   0  0  0  0  0  0  0  0  0  0  0  0
  156.4884  135.9348  190.7972 C   0  0  0  0  0  0  0  0  0  0  0  0
  157.1851  134.6780  190.7998 C   0  0  0  0  0  0  0  0  0  0  0  0
  157.6107  134.0392  189.7638 C   0  0  0  0  0  0  0  0  0  0  0  0
  158.3251  132.7435  189.8551 C   0  0  0  0  0  0  0  0  0  0  0  0
  159.3245  132.7024  188.7068 C   0  0  0  0  0  0  0  0  0  0  0  0
  159.8110  134.0663  188.3349 C   0  0  0  0  0  0  0  0  0  0  0  0
  158.7628  135.0430  187.9276 C   0  0  0  0  0  0  0  0  0  0  0  0
  157.3990  134.5795  188.4338 C   0  0  0  0  0  0  0  0  0  0  0  0
  156.4446  135.7709  188.3806 C   0  0  0  0  0  0  0  0  0  0  0  0
  155.7532  135.7799  187.2830 C   0  0  0  0  0  0  0  0  0  0  0  0
  156.4704  136.6947  189.4430 C   0  0  0  0  0  0  0  0  0  0  0  0
  154.7605  136.7513  186.9050 C   0  0  0  0  0  0  0  0  0  0  0  0
  153.4200  135.9582  186.7508 C   0  0  0  0  0  0  0  0  0  0  0  0
  152.3832  136.5395  187.6715 C   0  0  0  0  0  0  0  0  0  0  0  0
  151.5275  137.3347  186.6847 C   0  0  0  0  0  0  0  0  0  0  0  0
  151.5202  136.3658  185.5121 C   0  0  0  0  0  0  0  0  0  0  0  0
  150.6370  135.2032  185.9061 C   0  0  0  0  0  0  0  0  0  0  0  0
  150.9840  136.9757  184.2578 C   0  0  0  0  0  0  0  0  0  0  0  0
  152.9175  135.9985  185.4254 N   0  0  0  0  0  0  0  0  0  0  0  0
  152.9324  134.6179  184.9111 C   0  0  0  0  0  0  0  0  0  0  0  0
  153.6484  136.7894  184.4851 C   0  0  0  0  0  0  0  0  0  0  0  0
  1  2  1  0  0  0
  2  3  1  0  0  0
  3  4  1  0  0  0
  4  5  2  0  0  0
  4  6  1  0  0  0
  6  7  1  0  0  0
  7  8  2  0  0  0
  8  9  1  0  0  0
  9 10  1  0  0  0
 10 11  1  0  0  0
 11 12  1  0  0  0
 12 13  1  0  0  0
 13 14  1  0  0  0
 14 15  2  0  0  0
 15 17  1  0  0  0
 17 18  1  0  0  0
 18 19  1  0  0  0
 19 20  1  0  0  0
 20 21  1  0  0  0
 21 22  1  0  0  0
 21 23  1  0  0  0
 21 24  1  0  0  0
 24 25  1  0  0  0
 24 26  1  0  0  0
 14 16  1  0  0  0
 16  2  1  0  0  0
 16  6  1  0  0  0
 13  8  1  0  0  0
 24 18  1  0  0  0
M  CHG 1  24   1
M  END
> <minimizedAffinity>
-6.29925

> <CNNscore>
0.6113228798

> <CNNaffinity>
5.5319681168

> <CNN_VS>
3.3818187714

> <CNNaffinity_variance>
0.0370696485

$$$$
[H]C1=C2C([H])([H])C([H])([H])C([H])([H])C([H])([H])[C@]2([H])/C(=C(\[H])C([H])([H])C2([H])C([H])([H])C([H])([H])C(C([H])([H])[H])(C([H])([H])[H])[N+]2(C([H])([H])[H])C([H])([H])[H])[C@]2([H])[C@@]1([H])C(=O)O[C@@]2([H])C([H])([H])[H]


 26 29  0  0  0  0  0  0  0  0999 V2000
  150.1873  135.8572  193.2807 C   0  0  0  0  0  0  0  0  0  0  0  0
  150.5724  135.6066  191.7952 C   0  0  0  0  0  0  0  0  0  0  0  0
  150.8729  134.2344  191.7585 O   0  0  0  0  0  0  0  0  0  0  0  0
  152.1192  134.1399  192.3742 C   0  0  0  0  0  0  0  0  0  0  0  0
  152.6899  133.0600  192.6466 O   0  0  0  0  0  0  0  0  0  0  0  0
  152.6236  135.5088  192.6362 C   0  0  0  0  0  0  0  0  0  0  0  0
  154.0496  135.6852  192.6138 C   0  0  0  0  0  0  0  0  0  0  0  0
  154.7351  136.2410  191.6738 C   0  0  0  0  0  0  0  0  0  0  0  0
  156.2095  136.3851  191.7309 C   0  0  0  0  0  0  0  0  0  0  0  0
  156.5605  137.6769  191.0048 C   0  0  0  0  0  0  0  0  0  0  0  0
  155.4711  138.6953  191.1092 C   0  0  0  0  0  0  0  0  0  0  0  0
  154.1404  138.2816  190.5834 C   0  0  0  0  0  0  0  0  0  0  0  0
  154.0704  136.7591  190.4925 C   0  0  0  0  0  0  0  0  0  0  0  0
  152.6015  136.3594  190.3680 C   0  0  0  0  0  0  0  0  0  0  0  0
  152.2543  136.1976  189.1286 C   0  0  0  0  0  0  0  0  0  0  0  0
  151.8305  136.2758  191.5433 C   0  0  0  0  0  0  0  0  0  0  0  0
  150.9518  135.8183  188.6473 C   0  0  0  0  0  0  0  0  0  0  0  0
  150.7675  136.5560  187.2793 C   0  0  0  0  0  0  0  0  0  0  0  0
  151.9761  136.3232  186.4158 C   0  0  0  0  0  0  0  0  0  0  0  0
  151.4396  135.2787  185.4361 C   0  0  0  0  0  0  0  0  0  0  0  0
  150.0371  135.8262  185.2193 C   0  0  0  0  0  0  0  0  0  0  0  0
  150.1765  137.0760  184.3795 C   0  0  0  0  0  0  0  0  0  0  0  0
  149.1415  134.8644  184.5082 C   0  0  0  0  0  0  0  0  0  0  0  0
  149.6196  136.1109  186.5756 N   0  0  0  0  0  0  0  0  0  0  0  0
  148.6990  137.2567  186.4738 C   0  0  0  0  0  0  0  0  0  0  0  0
  148.8756  135.0443  187.1694 C   0  0  0  0  0  0  0  0  0  0  0  0
  1  2  1  0  0  0
  2  3  1  0  0  0
  3  4  1  0  0  0
  4  5  2  0  0  0
  4  6  1  0  0  0
  6  7  1  0  0  0
  7  8  2  0  0  0
  8  9  1  0  0  0
  9 10  1  0  0  0
 10 11  1  0  0  0
 11 12  1  0  0  0
 12 13  1  0  0  0
 13 14  1  0  0  0
 14 15  2  0  0  0
 15 17  1  0  0  0
 17 18  1  0  0  0
 18 19  1  0  0  0
 19 20  1  0  0  0
 20 21  1  0  0  0
 21 22  1  0  0  0
 21 23  1  0  0  0
 21 24  1  0  0  0
 24 25  1  0  0  0
 24 26  1  0  0  0
 14 16  1  0  0  0
 16  2  1  0  0  0
 16  6  1  0  0  0
 13  8  1  0  0  0
 24 18  1  0  0  0
M  CHG 1  24   1
M  END
> <minimizedAffinity>
-6.26240

> <CNNscore>
0.5481681228

> <CNNaffinity>
5.4199256897

> <CNN_VS>
2.9710304737

> <CNNaffinity_variance>
0.0524188504

$$$$
[H]C1=C2C([H])([H])C([H])([H])C([H])([H])C([H])([H])[C@]2([H])/C(=C(\[H])C([H])([H])C2([H])C([H])([H])C([H])([H])C(C([H])([H])[H])(C([H])([H])[H])[N+]2(C([H])([H])[H])C([H])([H])[H])[C@]2([H])[C@@]1([H])C(=O)O[C@@]2([H])C([H])([H])[H]


 26 29  0  0  0  0  0  0  0  0999 V2000
  155.2153  138.8271  191.0962 C   0  0  0  0  0  0  0  0  0  0  0  0
  154.6588  137.7761  190.0945 C   0  0  0  0  0  0  0  0  0  0  0  0
  153.7218  137.0572  190.8560 O   0  0  0  0  0  0  0  0  0  0  0  0
  154.4996  136.2489  191.6824 C   0  0  0  0  0  0  0  0  0  0  0  0
  154.0412  135.5340  192.6016 O   0  0  0  0  0  0  0  0  0  0  0  0
  155.9199  136.3897  191.2828 C   0  0  0  0  0  0  0  0  0  0  0  0
  156.7620  135.2423  191.4817 C   0  0  0  0  0  0  0  0  0  0  0  0
  157.1895  134.4415  190.5661 C   0  0  0  0  0  0  0  0  0  0  0  0
  158.0599  133.2775  190.8578 C   0  0  0  0  0  0  0  0  0  0  0  0
  158.9757  133.0919  189.6553 C   0  0  0  0  0  0  0  0  0  0  0  0
  159.2670  134.3854  188.9646 C   0  0  0  0  0  0  0  0  0  0  0  0
  158.0829  135.1366  188.4624 C   0  0  0  0  0  0  0  0  0  0  0  0
  156.8231  134.6555  189.1784 C   0  0  0  0  0  0  0  0  0  0  0  0
  155.7304  135.7016  188.9677 C   0  0  0  0  0  0  0  0  0  0  0  0
  154.9692  135.4006  187.9613 C   0  0  0  0  0  0  0  0  0  0  0  0
  155.7171  136.8315  189.8079 C   0  0  0  0  0  0  0  0  0  0  0  0
  153.8427  136.1588  187.4836 C   0  0  0  0  0  0  0  0  0  0  0  0
  152.6498  135.1491  187.3989 C   0  0  0  0  0  0  0  0  0  0  0  0
  152.2368  134.7413  188.7859 C   0  0  0  0  0  0  0  0  0  0  0  0
  150.9634  135.5682  188.9677 C   0  0  0  0  0  0  0  0  0  0  0  0
  150.3701  135.4363  187.5732 C   0  0  0  0  0  0  0  0  0  0  0  0
  149.8670  134.0165  187.4405 C   0  0  0  0  0  0  0  0  0  0  0  0
  149.2328  136.3756  187.3345 C   0  0  0  0  0  0  0  0  0  0  0  0
  151.5223  135.6987  186.7374 N   0  0  0  0  0  0  0  0  0  0  0  0
  151.3091  134.9105  185.5111 C   0  0  0  0  0  0  0  0  0  0  0  0
  151.6201  137.0653  186.3293 C   0  0  0  0  0  0  0  0  0  0  0  0
  1  2  1  0  0  0
  2  3  1  0  0  0
  3  4  1  0  0  0
  4  5  2  0  0  0
  4  6  1  0  0  0
  6  7  1  0  0  0
  7  8  2  0  0  0
  8  9  1  0  0  0
  9 10  1  0  0  0
 10 11  1  0  0  0
 11 12  1  0  0  0
 12 13  1  0  0  0
 13 14  1  0  0  0
 14 15  2  0  0  0
 15 17  1  0  0  0
 17 18  1  0  0  0
 18 19  1  0  0  0
 19 20  1  0  0  0
 20 21  1  0  0  0
 21 22  1  0  0  0
 21 23  1  0  0  0
 21 24  1  0  0  0
 24 25  1  0  0  0
 24 26  1  0  0  0
 14 16  1  0  0  0
 16  2  1  0  0  0
 16  6  1  0  0  0
 13  8  1  0  0  0
 24 18  1  0  0  0
M  CHG 1  24   1
M  END
> <minimizedAffinity>
-6.07282

> <CNNscore>
0.5388253331

> <CNNaffinity>
5.4726643562

> <CNN_VS>
2.9488101006

> <CNNaffinity_variance>
0.0507523827

$$$$
[H]C1=C2C([H])([H])C([H])([H])C([H])([H])C([H])([H])[C@]2([H])/C(=C(\[H])C([H])([H])C2([H])C([H])([H])C([H])([H])C(C([H])([H])[H])(C([H])([H])[H])[N+]2(C([H])([H])[H])C([H])([H])[H])[C@]2([H])[C@@]1([H])C(=O)O[C@@]2([H])C([H])([H])[H]


 26 29  0  0  0  0  0  0  0  0999 V2000
  151.6954  137.4685  193.4238 C   0  0  0  0  0  0  0  0  0  0  0  0
  151.4234  136.7066  192.0959 C   0  0  0  0  0  0  0  0  0  0  0  0
  151.3643  135.3600  192.4935 O   0  0  0  0  0  0  0  0  0  0  0  0
  152.6931  135.0138  192.7296 C   0  0  0  0  0  0  0  0  0  0  0  0
  153.0600  133.9211  193.2169 O   0  0  0  0  0  0  0  0  0  0  0  0
  153.5587  136.1416  192.3104 C   0  0  0  0  0  0  0  0  0  0  0  0
  154.8704  135.8033  191.8307 C   0  0  0  0  0  0  0  0  0  0  0  0
  155.2588  135.8110  190.6012 C   0  0  0  0  0  0  0  0  0  0  0  0
  156.6364  135.4486  190.1906 C   0  0  0  0  0  0  0  0  0  0  0  0
  156.9742  136.2910  188.9677 C   0  0  0  0  0  0  0  0  0  0  0  0
  156.2697  137.6095  188.9803 C   0  0  0  0  0  0  0  0  0  0  0  0
  154.7824  137.5527  189.0371 C   0  0  0  0  0  0  0  0  0  0  0  0
  154.3360  136.1839  189.5453 C   0  0  0  0  0  0  0  0  0  0  0  0
  152.8792  136.2964  189.9902 C   0  0  0  0  0  0  0  0  0  0  0  0
  152.0633  135.9332  189.0493 C   0  0  0  0  0  0  0  0  0  0  0  0
  152.6111  136.8064  191.2751 C   0  0  0  0  0  0  0  0  0  0  0  0
  150.6260  135.9096  189.1249 C   0  0  0  0  0  0  0  0  0  0  0  0
  150.1959  134.4713  188.6821 C   0  0  0  0  0  0  0  0  0  0  0  0
  150.7912  133.4576  189.6194 C   0  0  0  0  0  0  0  0  0  0  0  0
  149.5736  133.0948  190.4706 C   0  0  0  0  0  0  0  0  0  0  0  0
  148.5011  133.0808  189.3920 C   0  0  0  0  0  0  0  0  0  0  0  0
  148.7383  131.8471  188.5502 C   0  0  0  0  0  0  0  0  0  0  0  0
  147.1163  133.0251  189.9503 C   0  0  0  0  0  0  0  0  0  0  0  0
  148.7876  134.3060  188.6765 N   0  0  0  0  0  0  0  0  0  0  0  0
  148.3836  134.0535  187.2823 C   0  0  0  0  0  0  0  0  0  0  0  0
  148.0087  135.4158  189.1297 C   0  0  0  0  0  0  0  0  0  0  0  0
  1  2  1  0  0  0
  2  3  1  0  0  0
  3  4  1  0  0  0
  4  5  2  0  0  0
  4  6  1  0  0  0
  6  7  1  0  0  0
  7  8  2  0  0  0
  8  9  1  0  0  0
  9 10  1  0  0  0
 10 11  1  0  0  0
 11 12  1  0  0  0
 12 13  1  0  0  0
 13 14  1  0  0  0
 14 15  2  0  0  0
 15 17  1  0  0  0
 17 18  1  0  0  0
 18 19  1  0  0  0
 19 20  1  0  0  0
 20 21  1  0  0  0
 21 22  1  0  0  0
 21 23  1  0  0  0
 21 24  1  0  0  0
 24 25  1  0  0  0
 24 26  1  0  0  0
 14 16  1  0  0  0
 16  2  1  0  0  0
 16  6  1  0  0  0
 13  8  1  0  0  0
 24 18  1  0  0  0
M  CHG 1  24   1
M  END
> <minimizedAffinity>
-5.44136

> <CNNscore>
0.5380247831

> <CNNaffinity>
5.2147259712

> <CNN_VS>
2.8056519032

> <CNNaffinity_variance>
0.0145151494

$$$$
[H]C1=C2C([H])([H])C([H])([H])C([H])([H])C([H])([H])[C@]2([H])/C(=C(\[H])C([H])([H])C2([H])C([H])([H])C([H])([H])C(C([H])([H])[H])(C([H])([H])[H])[N+]2(C([H])([H])[H])C([H])([H])[H])[C@]2([H])[C@@]1([H])C(=O)O[C@@]2([H])C([H])([H])[H]


 26 29  0  0  0  0  0  0  0  0999 V2000
  155.5888  138.7340  191.1027 C   0  0  0  0  0  0  0  0  0  0  0  0
  155.0250  137.7629  190.0271 C   0  0  0  0  0  0  0  0  0  0  0  0
  154.0121  137.0669  190.7084 O   0  0  0  0  0  0  0  0  0  0  0  0
  154.7008  136.1785  191.5315 C   0  0  0  0  0  0  0  0  0  0  0  0
  154.1574  135.4514  192.3931 O   0  0  0  0  0  0  0  0  0  0  0  0
  156.1450  136.2536  191.2069 C   0  0  0  0  0  0  0  0  0  0  0  0
  156.9102  135.0512  191.3911 C   0  0  0  0  0  0  0  0  0  0  0  0
  157.3373  134.2684  190.4599 C   0  0  0  0  0  0  0  0  0  0  0  0
  158.1252  133.0436  190.7372 C   0  0  0  0  0  0  0  0  0  0  0  0
  159.0882  132.8585  189.5720 C   0  0  0  0  0  0  0  0  0  0  0  0
  159.4860  134.1623  188.9580 C   0  0  0  0  0  0  0  0  0  0  0  0
  158.3728  135.0031  188.4363 C   0  0  0  0  0  0  0  0  0  0  0  0
  157.0536  134.5650  189.0680 C   0  0  0  0  0  0  0  0  0  0  0  0
  156.0333  135.6816  188.8555 C   0  0  0  0  0  0  0  0  0  0  0  0
  155.3078  135.4709  187.8010 C   0  0  0  0  0  0  0  0  0  0  0  0
  156.0415  136.7718  189.7467 C   0  0  0  0  0  0  0  0  0  0  0  0
  154.2511  136.3142  187.3068 C   0  0  0  0  0  0  0  0  0  0  0  0
  154.2733  136.1629  185.7491 C   0  0  0  0  0  0  0  0  0  0  0  0
  154.3902  134.7083  185.3870 C   0  0  0  0  0  0  0  0  0  0  0  0
  152.9535  134.3942  184.9677 C   0  0  0  0  0  0  0  0  0  0  0  0
  152.6169  135.6769  184.2227 C   0  0  0  0  0  0  0  0  0  0  0  0
  153.3904  135.6482  182.9235 C   0  0  0  0  0  0  0  0  0  0  0  0
  151.1605  135.8047  183.9144 C   0  0  0  0  0  0  0  0  0  0  0  0
  153.1051  136.6857  185.1386 N   0  0  0  0  0  0  0  0  0  0  0  0
  153.5240  137.8177  184.2936 C   0  0  0  0  0  0  0  0  0  0  0  0
  152.0919  137.1864  186.0141 C   0  0  0  0  0  0  0  0  0  0  0  0
  1  2  1  0  0  0
  2  3  1  0  0  0
  3  4  1  0  0  0
  4  5  2  0  0  0
  4  6  1  0  0  0
  6  7  1  0  0  0
  7  8  2  0  0  0
  8  9  1  0  0  0
  9 10  1  0  0  0
 10 11  1  0  0  0
 11 12  1  0  0  0
 12 13  1  0  0  0
 13 14  1  0  0  0
 14 15  2  0  0  0
 15 17  1  0  0  0
 17 18  1  0  0  0
 18 19  1  0  0  0
 19 20  1  0  0  0
 20 21  1  0  0  0
 21 22  1  0  0  0
 21 23  1  0  0  0
 21 24  1  0  0  0
 24 25  1  0  0  0
 24 26  1  0  0  0
 14 16  1  0  0  0
 16  2  1  0  0  0
 16  6  1  0  0  0
 13  8  1  0  0  0
 24 18  1  0  0  0
M  CHG 1  24   1
M  END
> <minimizedAffinity>
-6.29444

> <CNNscore>
0.4960517585

> <CNNaffinity>
5.5446977615

> <CNN_VS>
2.7504570484

> <CNNaffinity_variance>
0.0659789518

$$$$
[H]C1=C2C([H])([H])C([H])([H])C([H])([H])C([H])([H])[C@]2([H])/C(=C(\[H])C([H])([H])C2([H])C([H])([H])C([H])([H])C(C([H])([H])[H])(C([H])([H])[H])[N+]2(C([H])([H])[H])C([H])([H])[H])[C@]2([H])[C@@]1([H])C(=O)O[C@@]2([H])C([H])([H])[H]


 26 29  0  0  0  0  0  0  0  0999 V2000
  149.8384  135.7611  191.5442 C   0  0  0  0  0  0  0  0  0  0  0  0
  150.5699  135.6936  190.1738 C   0  0  0  0  0  0  0  0  0  0  0  0
  150.8780  134.3302  190.0302 O   0  0  0  0  0  0  0  0  0  0  0  0
  151.9407  134.1247  190.9075 C   0  0  0  0  0  0  0  0  0  0  0  0
  152.4353  133.0041  191.1642 O   0  0  0  0  0  0  0  0  0  0  0  0
  152.3600  135.4348  191.4595 C   0  0  0  0  0  0  0  0  0  0  0  0
  153.7488  135.5752  191.8013 C   0  0  0  0  0  0  0  0  0  0  0  0
  154.6367  136.2292  191.1332 C   0  0  0  0  0  0  0  0  0  0  0  0
  156.0535  136.3260  191.5587 C   0  0  0  0  0  0  0  0  0  0  0  0
  156.5614  137.6908  191.1132 C   0  0  0  0  0  0  0  0  0  0  0  0
  155.4732  138.7156  191.0873 C   0  0  0  0  0  0  0  0  0  0  0  0
  154.3098  138.4079  190.2097 C   0  0  0  0  0  0  0  0  0  0  0  0
  154.2720  136.9121  189.9059 C   0  0  0  0  0  0  0  0  0  0  0  0
  152.8781  136.5704  189.3833 C   0  0  0  0  0  0  0  0  0  0  0  0
  152.8393  136.5785  188.0866 C   0  0  0  0  0  0  0  0  0  0  0  0
  151.8481  136.3565  190.3193 C   0  0  0  0  0  0  0  0  0  0  0  0
  151.6924  136.2984  187.2631 C   0  0  0  0  0  0  0  0  0  0  0  0
  151.8603  137.1776  185.9791 C   0  0  0  0  0  0  0  0  0  0  0  0
  153.2230  137.8128  185.9794 C   0  0  0  0  0  0  0  0  0  0  0  0
  153.9531  136.9409  184.9571 C   0  0  0  0  0  0  0  0  0  0  0  0
  152.8403  136.7543  183.9370 C   0  0  0  0  0  0  0  0  0  0  0  0
  152.6654  138.0786  183.2280 C   0  0  0  0  0  0  0  0  0  0  0  0
  153.1517  135.7017  182.9233 C   0  0  0  0  0  0  0  0  0  0  0  0
  151.7152  136.4250  184.7860 N   0  0  0  0  0  0  0  0  0  0  0  0
  150.5266  136.9424  184.0859 C   0  0  0  0  0  0  0  0  0  0  0  0
  151.5175  135.0170  184.9347 C   0  0  0  0  0  0  0  0  0  0  0  0
  1  2  1  0  0  0
  2  3  1  0  0  0
  3  4  1  0  0  0
  4  5  2  0  0  0
  4  6  1  0  0  0
  6  7  1  0  0  0
  7  8  2  0  0  0
  8  9  1  0  0  0
  9 10  1  0  0  0
 10 11  1  0  0  0
 11 12  1  0  0  0
 12 13  1  0  0  0
 13 14  1  0  0  0
 14 15  2  0  0  0
 15 17  1  0  0  0
 17 18  1  0  0  0
 18 19  1  0  0  0
 19 20  1  0  0  0
 20 21  1  0  0  0
 21 22  1  0  0  0
 21 23  1  0  0  0
 21 24  1  0  0  0
 24 25  1  0  0  0
 24 26  1  0  0  0
 14 16  1  0  0  0
 16  2  1  0  0  0
 16  6  1  0  0  0
 13  8  1  0  0  0
 24 18  1  0  0  0
M  CHG 1  24   1
M  END
> <minimizedAffinity>
-6.20100

> <CNNscore>
0.4846875370

> <CNNaffinity>
5.4212808609

> <CNN_VS>
2.6276273727

> <CNNaffinity_variance>
0.0166737251

$$$$
[H]C1=C2C([H])([H])C([H])([H])C([H])([H])C([H])([H])[C@]2([H])/C(=C(\[H])C([H])([H])C2([H])C([H])([H])C([H])([H])C(C([H])([H])[H])(C([H])([H])[H])[N+]2(C([H])([H])[H])C([H])([H])[H])[C@]2([H])[C@@]1([H])C(=O)O[C@@]2([H])C([H])([H])[H]


 26 29  0  0  0  0  0  0  0  0999 V2000
  155.7284  138.5669  191.0148 C   0  0  0  0  0  0  0  0  0  0  0  0
  155.1074  137.4778  190.0951 C   0  0  0  0  0  0  0  0  0  0  0  0
  154.0956  136.9119  190.8893 O   0  0  0  0  0  0  0  0  0  0  0  0
  154.7830  136.1216  191.8081 C   0  0  0  0  0  0  0  0  0  0  0  0
  154.2448  135.5346  192.7735 O   0  0  0  0  0  0  0  0  0  0  0  0
  156.2188  136.1071  191.4407 C   0  0  0  0  0  0  0  0  0  0  0  0
  156.9556  134.9173  191.7673 C   0  0  0  0  0  0  0  0  0  0  0  0
  157.3340  134.0031  190.9406 C   0  0  0  0  0  0  0  0  0  0  0  0
  158.0954  132.8029  191.3619 C   0  0  0  0  0  0  0  0  0  0  0  0
  159.0191  132.4325  190.2092 C   0  0  0  0  0  0  0  0  0  0  0  0
  159.4349  133.6284  189.4143 C   0  0  0  0  0  0  0  0  0  0  0  0
  158.3307  134.4255  188.8110 C   0  0  0  0  0  0  0  0  0  0  0  0
  157.0187  134.1180  189.5288 C   0  0  0  0  0  0  0  0  0  0  0  0
  156.0239  135.2270  189.1921 C   0  0  0  0  0  0  0  0  0  0  0  0
  155.2628  134.8987  188.1942 C   0  0  0  0  0  0  0  0  0  0  0  0
  156.0877  136.4267  189.9267 C   0  0  0  0  0  0  0  0  0  0  0  0
  154.2159  135.7002  187.6165 C   0  0  0  0  0  0  0  0  0  0  0  0
  154.8439  136.3841  186.3565 C   0  0  0  0  0  0  0  0  0  0  0  0
  154.2358  135.7999  185.1118 C   0  0  0  0  0  0  0  0  0  0  0  0
  153.2712  136.9148  184.7056 C   0  0  0  0  0  0  0  0  0  0  0  0
  154.1293  138.1280  185.0307 C   0  0  0  0  0  0  0  0  0  0  0  0
  155.2196  138.1901  183.9847 C   0  0  0  0  0  0  0  0  0  0  0  0
  153.3596  139.4084  185.0021 C   0  0  0  0  0  0  0  0  0  0  0  0
  154.6360  137.7868  186.3428 N   0  0  0  0  0  0  0  0  0  0  0  0
  155.9608  138.4250  186.4335 C   0  0  0  0  0  0  0  0  0  0  0  0
  153.8504  138.3300  187.4066 C   0  0  0  0  0  0  0  0  0  0  0  0
  1  2  1  0  0  0
  2  3  1  0  0  0
  3  4  1  0  0  0
  4  5  2  0  0  0
  4  6  1  0  0  0
  6  7  1  0  0  0
  7  8  2  0  0  0
  8  9  1  0  0  0
  9 10  1  0  0  0
 10 11  1  0  0  0
 11 12  1  0  0  0
 12 13  1  0  0  0
 13 14  1  0  0  0
 14 15  2  0  0  0
 15 17  1  0  0  0
 17 18  1  0  0  0
 18 19  1  0  0  0
 19 20  1  0  0  0
 20 21  1  0  0  0
 21 22  1  0  0  0
 21 23  1  0  0  0
 21 24  1  0  0  0
 24 25  1  0  0  0
 24 26  1  0  0  0
 14 16  1  0  0  0
 16  2  1  0  0  0
 16  6  1  0  0  0
 13  8  1  0  0  0
 24 18  1  0  0  0
M  CHG 1  24   1
M  END
> <minimizedAffinity>
-5.79214

> <CNNscore>
0.4157243967

> <CNNaffinity>
5.6257810593

> <CNN_VS>
2.3387744427

> <CNNaffinity_variance>
0.0945358947

$$$$
[H]C1=C2C([H])([H])C([H])([H])C([H])([H])C([H])([H])[C@]2([H])/C(=C(\[H])C([H])([H])C2([H])C([H])([H])C([H])([H])C(C([H])([H])[H])(C([H])([H])[H])[N+]2(C([H])([H])[H])C([H])([H])[H])[C@]2([H])[C@@]1([H])C(=O)O[C@@]2([H])C([H])([H])[H]


 26 29  0  0  0  0  0  0  0  0999 V2000
  154.2937  138.8163  188.9478 C   0  0  0  0  0  0  0  0  0  0  0  0
  154.8573  137.5100  189.5751 C   0  0  0  0  0  0  0  0  0  0  0  0
  154.7465  136.5699  188.5366 O   0  0  0  0  0  0  0  0  0  0  0  0
  153.3860  136.2735  188.4865 C   0  0  0  0  0  0  0  0  0  0  0  0
  152.8534  135.5569  187.6095 O   0  0  0  0  0  0  0  0  0  0  0  0
  152.7127  136.9418  189.6253 C   0  0  0  0  0  0  0  0  0  0  0  0
  151.5517  136.2867  190.1620 C   0  0  0  0  0  0  0  0  0  0  0  0
  151.4906  135.6272  191.2682 C   0  0  0  0  0  0  0  0  0  0  0  0
  150.2472  134.9809  191.7518 C   0  0  0  0  0  0  0  0  0  0  0  0
  150.2744  135.0419  193.2732 C   0  0  0  0  0  0  0  0  0  0  0  0
  151.0167  136.2386  193.7754 C   0  0  0  0  0  0  0  0  0  0  0  0
  152.4357  136.3556  193.3379 C   0  0  0  0  0  0  0  0  0  0  0  0
  152.6695  135.4887  192.1029 C   0  0  0  0  0  0  0  0  0  0  0  0
  153.9684  135.9466  191.4424 C   0  0  0  0  0  0  0  0  0  0  0  0
  154.9782  135.2289  191.8271 C   0  0  0  0  0  0  0  0  0  0  0  0
  153.9247  137.0653  190.5884 C   0  0  0  0  0  0  0  0  0  0  0  0
  156.3457  135.3794  191.4036 C   0  0  0  0  0  0  0  0  0  0  0  0
  156.7895  133.9742  190.8762 C   0  0  0  0  0  0  0  0  0  0  0  0
  155.5738  133.1316  190.6065 C   0  0  0  0  0  0  0  0  0  0  0  0
  155.4989  133.2048  189.0808 C   0  0  0  0  0  0  0  0  0  0  0  0
  156.9802  133.1156  188.7464 C   0  0  0  0  0  0  0  0  0  0  0  0
  157.4097  131.6922  189.0225 C   0  0  0  0  0  0  0  0  0  0  0  0
  157.2737  133.4396  187.3175 C   0  0  0  0  0  0  0  0  0  0  0  0
  157.5506  134.0604  189.6828 N   0  0  0  0  0  0  0  0  0  0  0  0
  158.8987  133.5503  189.9876 C   0  0  0  0  0  0  0  0  0  0  0  0
  157.7269  135.3654  189.1263 C   0  0  0  0  0  0  0  0  0  0  0  0
  1  2  1  0  0  0
  2  3  1  0  0  0
  3  4  1  0  0  0
  4  5  2  0  0  0
  4  6  1  0  0  0
  6  7  1  0  0  0
  7  8  2  0  0  0
  8  9  1  0  0  0
  9 10  1  0  0  0
 10 11  1  0  0  0
 11 12  1  0  0  0
 12 13  1  0  0  0
 13 14  1  0  0  0
 14 15  2  0  0  0
 15 17  1  0  0  0
 17 18  1  0  0  0
 18 19  1  0  0  0
 19 20  1  0  0  0
 20 21  1  0  0  0
 21 22  1  0  0  0
 21 23  1  0  0  0
 21 24  1  0  0  0
 24 25  1  0  0  0
 24 26  1  0  0  0
 14 16  1  0  0  0
 16  2  1  0  0  0
 16  6  1  0  0  0
 13  8  1  0  0  0
 24 18  1  0  0  0
M  CHG 1  24   1
M  END
> <minimizedAffinity>
-5.65882

> <CNNscore>
0.4023299813

> <CNNaffinity>
5.4463372231

> <CNN_VS>
2.1912248135

> <CNNaffinity_variance>
0.0117658824

$$$$
[H]C1=C2C([H])([H])C([H])([H])C([H])([H])C([H])([H])[C@]2([H])/C(=C(\[H])C([H])([H])C2([H])C([H])([H])C([H])([H])C(C([H])([H])[H])(C([H])([H])[H])[N+]2(C([H])([H])[H])C([H])([H])[H])[C@]2([H])[C@@]1([H])C(=O)O[C@@]2([H])C([H])([H])[H]


 26 29  0  0  0  0  0  0  0  0999 V2000
  153.3505  135.2637  183.0584 C   0  0  0  0  0  0  0  0  0  0  0  0
  153.1835  136.1754  184.3069 C   0  0  0  0  0  0  0  0  0  0  0  0
  151.7984  136.4046  184.3660 O   0  0  0  0  0  0  0  0  0  0  0  0
  151.5576  137.3154  183.3395 C   0  0  0  0  0  0  0  0  0  0  0  0
  150.4178  137.6891  182.9828 O   0  0  0  0  0  0  0  0  0  0  0  0
  152.8576  137.7429  182.7702 C   0  0  0  0  0  0  0  0  0  0  0  0
  152.9202  139.0756  182.2363 C   0  0  0  0  0  0  0  0  0  0  0  0
  153.4891  140.0927  182.7880 C   0  0  0  0  0  0  0  0  0  0  0  0
  153.5096  141.4382  182.1660 C   0  0  0  0  0  0  0  0  0  0  0  0
  154.8205  142.0983  182.5722 C   0  0  0  0  0  0  0  0  0  0  0  0
  155.9122  141.0989  182.7833 C   0  0  0  0  0  0  0  0  0  0  0  0
  155.6479  140.0529  183.8102 C   0  0  0  0  0  0  0  0  0  0  0  0
  154.1472  139.9541  184.0738 C   0  0  0  0  0  0  0  0  0  0  0  0
  153.8774  138.6277  184.7816 C   0  0  0  0  0  0  0  0  0  0  0  0
  153.8388  138.7736  186.0701 C   0  0  0  0  0  0  0  0  0  0  0  0
  153.7667  137.4632  183.9978 C   0  0  0  0  0  0  0  0  0  0  0  0
  153.6029  137.7381  187.0418 C   0  0  0  0  0  0  0  0  0  0  0  0
  154.7918  137.8219  188.0563 C   0  0  0  0  0  0  0  0  0  0  0  0
  154.3853  138.6562  189.2393 C   0  0  0  0  0  0  0  0  0  0  0  0
  154.1293  137.5728  190.2879 C   0  0  0  0  0  0  0  0  0  0  0  0
  155.2769  136.6277  189.9663 C   0  0  0  0  0  0  0  0  0  0  0  0
  156.5468  137.2994  190.4386 C   0  0  0  0  0  0  0  0  0  0  0  0
  155.1485  135.3046  190.6486 C   0  0  0  0  0  0  0  0  0  0  0  0
  155.1946  136.5452  188.5237 N   0  0  0  0  0  0  0  0  0  0  0  0
  156.5761  136.3271  188.0604 C   0  0  0  0  0  0  0  0  0  0  0  0
  154.4325  135.4246  188.0682 C   0  0  0  0  0  0  0  0  0  0  0  0
  1  2  1  0  0  0
  2  3  1  0  0  0
  3  4  1  0  0  0
  4  5  2  0  0  0
  4  6  1  0  0  0
  6  7  1  0  0  0
  7  8  2  0  0  0
  8  9  1  0  0  0
  9 10  1  0  0  0
 10 11  1  0  0  0
 11 12  1  0  0  0
 12 13  1  0  0  0
 13 14  1  0  0  0
 14 15  2  0  0  0
 15 17  1  0  0  0
 17 18  1  0  0  0
 18 19  1  0  0  0
 19 20  1  0  0  0
 20 21  1  0  0  0
 21 22  1  0  0  0
 21 23  1  0  0  0
 21 24  1  0  0  0
 24 25  1  0  0  0
 24 26  1  0  0  0
 14 16  1  0  0  0
 16  2  1  0  0  0
 16  6  1  0  0  0
 13  8  1  0  0  0
 24 18  1  0  0  0
M  CHG 1  24   1
M  END
> <minimizedAffinity>
-8.08797

> <CNNscore>
0.4018914402

> <CNNaffinity>
5.5638880730

> <CNN_VS>
2.2360789776

> <CNNaffinity_variance>
0.0164060984

$$$$
[H]c1c([H])c([H])c(C([H])([H])N2C([H])([H])C([H])([H])C([H])(C([H])([H])C([H])([H])N([H])C(=O)c3c([H])c([H])c([H])c([N+](=O)[O-])c3[H])C([H])([H])C2([H])[H])c([H])c1[H]


 28 30  0  0  0  0  0  0  0  0999 V2000
  155.0490  139.1198  184.0049 C   0  0  0  0  0  0  0  0  0  0  0  0
  153.4231  137.7743  185.8447 O   0  0  0  0  0  0  0  0  0  0  0  0
  154.5428  138.1776  186.2469 C   0  0  0  0  0  0  0  0  0  0  0  0
  155.3972  138.8606  185.3692 N   0  0  0  0  0  0  0  0  0  0  0  0
  156.3279  139.2057  185.6879 H   0  0  0  0  0  0  0  0  0  0  0  0
  154.8636  137.8889  187.6389 C   0  0  0  0  0  0  0  0  0  0  0  0
  154.2598  138.5868  188.6580 C   0  0  0  0  0  0  0  0  0  0  0  0
  154.5689  138.3086  189.9962 C   0  0  0  0  0  0  0  0  0  0  0  0
  155.4843  137.3295  190.3006 C   0  0  0  0  0  0  0  0  0  0  0  0
  156.1136  136.6045  189.3002 C   0  0  0  0  0  0  0  0  0  0  0  0
  155.7716  136.9194  187.9905 C   0  0  0  0  0  0  0  0  0  0  0  0
  157.0599  135.5915  189.5810 N   0  0  0  0  0  0  0  0  0  0  0  0
  157.0263  135.0237  190.6768 O   0  0  0  0  0  0  0  0  0  0  0  0
  157.9976  135.2418  188.6604 O   0  0  0  0  0  0  0  0  0  0  0  0
  154.4324  140.4822  183.8816 C   0  0  0  0  0  0  0  0  0  0  0  0
  155.2113  141.2161  182.7998 C   0  0  0  0  0  0  0  0  0  0  0  0
  156.6222  140.6989  182.6973 C   0  0  0  0  0  0  0  0  0  0  0  0
  157.2405  141.3771  181.4699 C   0  0  0  0  0  0  0  0  0  0  0  0
  157.2537  142.7846  181.6334 N   0  0  0  0  0  0  0  0  0  0  0  0
  156.6186  143.2920  182.8003 C   0  0  0  0  0  0  0  0  0  0  0  0
  155.2588  142.7016  183.0681 C   0  0  0  0  0  0  0  0  0  0  0  0
  158.5959  143.2941  181.5555 C   0  0  0  0  0  0  0  0  0  0  0  0
  159.4603  142.9373  182.6813 C   0  0  0  0  0  0  0  0  0  0  0  0
  159.8278  143.9672  183.5365 C   0  0  0  0  0  0  0  0  0  0  0  0
  160.6300  143.7619  184.6392 C   0  0  0  0  0  0  0  0  0  0  0  0
  161.0635  142.4801  184.8699 C   0  0  0  0  0  0  0  0  0  0  0  0
  160.7050  141.4566  184.0294 C   0  0  0  0  0  0  0  0  0  0  0  0
  159.9085  141.6708  182.9377 C   0  0  0  0  0  0  0  0  0  0  0  0
  2  3  2  0  0  0
  3  4  1  0  0  0
  4  1  1  0  0  0
  1 15  1  0  0  0
 15 16  1  0  0  0
 16 17  1  0  0  0
 17 18  1  0  0  0
 18 19  1  0  0  0
 19 22  1  0  0  0
 22 23  1  0  0  0
 23 24  2  0  0  0
 24 25  1  0  0  0
 25 26  2  0  0  0
 26 27  1  0  0  0
 27 28  2  0  0  0
 19 20  1  0  0  0
 20 21  1  0  0  0
  3  6  1  0  0  0
  6  7  2  0  0  0
  7  8  1  0  0  0
  8  9  2  0  0  0
  9 10  1  0  0  0
 10 12  1  0  0  0
 12 13  2  0  0  0
 12 14  1  0  0  0
 10 11  2  0  0  0
 21 16  1  0  0  0
 11  6  1  0  0  0
 28 23  1  0  0  0
  4  5  1  0  0  0
M  CHG 1  12   1
M  CHG 1  14  -1
M  END
> <minimizedAffinity>
-7.87117

> <CNNscore>
0.5794497132

> <CNNaffinity>
6.2424612045

> <CNN_VS>
3.6171922684

> <CNNaffinity_variance>
0.0338471979

$$$$
[H]c1c([H])c([H])c(C([H])([H])N2C([H])([H])C([H])([H])C([H])(C([H])([H])C([H])([H])N([H])C(=O)c3c([H])c([H])c([H])c([N+](=O)[O-])c3[H])C([H])([H])C2([H])[H])c([H])c1[H]


 28 30  0  0  0  0  0  0  0  0999 V2000
  154.4336  142.1444  182.9914 C   0  0  0  0  0  0  0  0  0  0  0  0
  153.7312  139.4632  182.5958 O   0  0  0  0  0  0  0  0  0  0  0  0
  153.0097  140.3375  182.0544 C   0  0  0  0  0  0  0  0  0  0  0  0
  153.3165  141.6964  182.2162 N   0  0  0  0  0  0  0  0  0  0  0  0
  152.7306  142.4345  181.7702 H   0  0  0  0  0  0  0  0  0  0  0  0
  151.8789  139.8426  181.2796 C   0  0  0  0  0  0  0  0  0  0  0  0
  151.8266  140.0259  179.9180 C   0  0  0  0  0  0  0  0  0  0  0  0
  150.7388  139.5498  179.1738 C   0  0  0  0  0  0  0  0  0  0  0  0
  149.7101  138.8919  179.8047 C   0  0  0  0  0  0  0  0  0  0  0  0
  149.7275  138.6878  181.1761 C   0  0  0  0  0  0  0  0  0  0  0  0
  150.8286  139.1794  181.8671 C   0  0  0  0  0  0  0  0  0  0  0  0
  148.6844  138.0152  181.8543 N   0  0  0  0  0  0  0  0  0  0  0  0
  148.3932  136.8633  181.5189 O   0  0  0  0  0  0  0  0  0  0  0  0
  148.0067  138.6233  182.8643 O   0  0  0  0  0  0  0  0  0  0  0  0
  155.1450  143.2540  182.2745 C   0  0  0  0  0  0  0  0  0  0  0  0
  156.5323  142.7314  181.9311 C   0  0  0  0  0  0  0  0  0  0  0  0
  156.8591  141.4914  182.7213 C   0  0  0  0  0  0  0  0  0  0  0  0
  158.1848  140.9629  182.1628 C   0  0  0  0  0  0  0  0  0  0  0  0
  159.2125  141.9246  182.3277 N   0  0  0  0  0  0  0  0  0  0  0  0
  158.8199  143.1864  182.8528 C   0  0  0  0  0  0  0  0  0  0  0  0
  157.5940  143.7710  182.2008 C   0  0  0  0  0  0  0  0  0  0  0  0
  160.2897  141.3894  183.1153 C   0  0  0  0  0  0  0  0  0  0  0  0
  160.3482  141.8736  184.4951 C   0  0  0  0  0  0  0  0  0  0  0  0
  161.4702  142.6097  184.8509 C   0  0  0  0  0  0  0  0  0  0  0  0
  161.6419  143.1307  186.1160 C   0  0  0  0  0  0  0  0  0  0  0  0
  160.6481  142.8938  187.0326 C   0  0  0  0  0  0  0  0  0  0  0  0
  159.5361  142.1671  186.6891 C   0  0  0  0  0  0  0  0  0  0  0  0
  159.3751  141.6543  185.4309 C   0  0  0  0  0  0  0  0  0  0  0  0
  2  3  2  0  0  0
  3  4  1  0  0  0
  4  1  1  0  0  0
  1 15  1  0  0  0
 15 16  1  0  0  0
 16 17  1  0  0  0
 17 18  1  0  0  0
 18 19  1  0  0  0
 19 22  1  0  0  0
 22 23  1  0  0  0
 23 24  2  0  0  0
 24 25  1  0  0  0
 25 26  2  0  0  0
 26 27  1  0  0  0
 27 28  2  0  0  0
 19 20  1  0  0  0
 20 21  1  0  0  0
  3  6  1  0  0  0
  6  7  2  0  0  0
  7  8  1  0  0  0
  8  9  2  0  0  0
  9 10  1  0  0  0
 10 12  1  0  0  0
 12 13  2  0  0  0
 12 14  1  0  0  0
 10 11  2  0  0  0
 21 16  1  0  0  0
 11  6  1  0  0  0
 28 23  1  0  0  0
  4  5  1  0  0  0
M  CHG 1  12   1
M  CHG 1  14  -1
M  END
> <minimizedAffinity>
-9.19556

> <CNNscore>
0.5616116524

> <CNNaffinity>
6.1567749977

> <CNN_VS>
3.4577164650

> <CNNaffinity_variance>
0.0079446640

$$$$
[H]c1c([H])c([H])c(C([H])([H])N2C([H])([H])C([H])([H])C([H])(C([H])([H])C([H])([H])N([H])C(=O)c3c([H])c([H])c([H])c([N+](=O)[O-])c3[H])C([H])([H])C2([H])[H])c([H])c1[H]


 28 30  0  0  0  0  0  0  0  0999 V2000
  153.2946  140.0067  182.0249 C   0  0  0  0  0  0  0  0  0  0  0  0
  151.8779  137.9103  180.8261 O   0  0  0  0  0  0  0  0  0  0  0  0
  151.2336  138.9439  181.1341 C   0  0  0  0  0  0  0  0  0  0  0  0
  151.8928  140.0265  181.7343 N   0  0  0  0  0  0  0  0  0  0  0  0
  151.3740  140.8932  181.9923 H   0  0  0  0  0  0  0  0  0  0  0  0
  149.8088  138.9233  180.8288 C   0  0  0  0  0  0  0  0  0  0  0  0
  148.8945  139.4533  181.7083 C   0  0  0  0  0  0  0  0  0  0  0  0
  147.5246  139.4330  181.4140 C   0  0  0  0  0  0  0  0  0  0  0  0
  147.0831  138.8793  180.2360 C   0  0  0  0  0  0  0  0  0  0  0  0
  147.9749  138.3353  179.3243 C   0  0  0  0  0  0  0  0  0  0  0  0
  149.3217  138.3808  179.6641 C   0  0  0  0  0  0  0  0  0  0  0  0
  147.5520  137.7580  178.1043 N   0  0  0  0  0  0  0  0  0  0  0  0
  146.9158  136.7001  178.1279 O   0  0  0  0  0  0  0  0  0  0  0  0
  147.8385  138.3550  176.9167 O   0  0  0  0  0  0  0  0  0  0  0  0
  153.5267  139.4547  183.4006 C   0  0  0  0  0  0  0  0  0  0  0  0
  154.6628  140.2643  184.0085 C   0  0  0  0  0  0  0  0  0  0  0  0
  155.2296  141.2420  183.0127 C   0  0  0  0  0  0  0  0  0  0  0  0
  156.2266  142.1127  183.7850 C   0  0  0  0  0  0  0  0  0  0  0  0
  157.2672  141.3170  184.3254 N   0  0  0  0  0  0  0  0  0  0  0  0
  157.1412  139.9106  184.1564 C   0  0  0  0  0  0  0  0  0  0  0  0
  155.7771  139.3689  184.4955 C   0  0  0  0  0  0  0  0  0  0  0  0
  158.5471  141.7484  183.8325 C   0  0  0  0  0  0  0  0  0  0  0  0
  158.5936  142.0362  182.3983 C   0  0  0  0  0  0  0  0  0  0  0  0
  158.7996  143.3599  182.0340 C   0  0  0  0  0  0  0  0  0  0  0  0
  158.8738  143.7612  180.7169 C   0  0  0  0  0  0  0  0  0  0  0  0
  158.7345  142.7908  179.7562 C   0  0  0  0  0  0  0  0  0  0  0  0
  158.5305  141.4803  180.1078 C   0  0  0  0  0  0  0  0  0  0  0  0
  158.4584  141.0922  181.4179 C   0  0  0  0  0  0  0  0  0  0  0  0
  2  3  2  0  0  0
  3  4  1  0  0  0
  4  1  1  0  0  0
  1 15  1  0  0  0
 15 16  1  0  0  0
 16 17  1  0  0  0
 17 18  1  0  0  0
 18 19  1  0  0  0
 19 22  1  0  0  0
 22 23  1  0  0  0
 23 24  2  0  0  0
 24 25  1  0  0  0
 25 26  2  0  0  0
 26 27  1  0  0  0
 27 28  2  0  0  0
 19 20  1  0  0  0
 20 21  1  0  0  0
  3  6  1  0  0  0
  6  7  2  0  0  0
  7  8  1  0  0  0
  8  9  2  0  0  0
  9 10  1  0  0  0
 10 12  1  0  0  0
 12 13  2  0  0  0
 12 14  1  0  0  0
 10 11  2  0  0  0
 21 16  1  0  0  0
 11  6  1  0  0  0
 28 23  1  0  0  0
  4  5  1  0  0  0
M  CHG 1  12   1
M  CHG 1  14  -1
M  END
> <minimizedAffinity>
-8.10430

> <CNNscore>
0.5388978720

> <CNNaffinity>
5.8558163643

> <CNN_VS>
3.1556870937

> <CNNaffinity_variance>
0.0377399549

$$$$
[H]c1c([H])c([H])c(C([H])([H])N2C([H])([H])C([H])([H])C([H])(C([H])([H])C([H])([H])N([H])C(=O)c3c([H])c([H])c([H])c([N+](=O)[O-])c3[H])C([H])([H])C2([H])[H])c([H])c1[H]


 28 30  0  0  0  0  0  0  0  0999 V2000
  153.1801  139.8223  182.0507 C   0  0  0  0  0  0  0  0  0  0  0  0
  151.8838  139.6401  179.5757 O   0  0  0  0  0  0  0  0  0  0  0  0
  151.1877  139.4746  180.6083 C   0  0  0  0  0  0  0  0  0  0  0  0
  151.7839  139.5580  181.8750 N   0  0  0  0  0  0  0  0  0  0  0  0
  151.2200  139.4275  182.7421 H   0  0  0  0  0  0  0  0  0  0  0  0
  149.7733  139.2011  180.3883 C   0  0  0  0  0  0  0  0  0  0  0  0
  148.8472  139.4583  181.3714 C   0  0  0  0  0  0  0  0  0  0  0  0
  147.4873  139.1949  181.1591 C   0  0  0  0  0  0  0  0  0  0  0  0
  147.0677  138.6741  179.9583 C   0  0  0  0  0  0  0  0  0  0  0  0
  147.9719  138.4018  178.9431 C   0  0  0  0  0  0  0  0  0  0  0  0
  149.3080  138.6811  179.2046 C   0  0  0  0  0  0  0  0  0  0  0  0
  147.5717  137.8656  177.6970 N   0  0  0  0  0  0  0  0  0  0  0  0
  146.8115  136.8929  177.6768 O   0  0  0  0  0  0  0  0  0  0  0  0
  148.0143  138.4094  176.5319 O   0  0  0  0  0  0  0  0  0  0  0  0
  153.4204  141.3023  182.1040 C   0  0  0  0  0  0  0  0  0  0  0  0
  154.6043  141.5177  183.0356 C   0  0  0  0  0  0  0  0  0  0  0  0
  155.8723  141.7592  182.2594 C   0  0  0  0  0  0  0  0  0  0  0  0
  156.9413  142.1391  183.2897 C   0  0  0  0  0  0  0  0  0  0  0  0
  157.1363  141.0845  184.2159 N   0  0  0  0  0  0  0  0  0  0  0  0
  156.2665  139.9662  184.0936 C   0  0  0  0  0  0  0  0  0  0  0  0
  154.8122  140.3298  183.9446 C   0  0  0  0  0  0  0  0  0  0  0  0
  158.5023  140.6364  184.1976 C   0  0  0  0  0  0  0  0  0  0  0  0
  159.4331  141.4543  184.9765 C   0  0  0  0  0  0  0  0  0  0  0  0
  160.6232  141.8076  184.3553 C   0  0  0  0  0  0  0  0  0  0  0  0
  161.5794  142.5833  184.9763 C   0  0  0  0  0  0  0  0  0  0  0  0
  161.3125  143.0041  186.2553 C   0  0  0  0  0  0  0  0  0  0  0  0
  160.1387  142.6591  186.8764 C   0  0  0  0  0  0  0  0  0  0  0  0
  159.1962  141.8889  186.2515 C   0  0  0  0  0  0  0  0  0  0  0  0
  2  3  2  0  0  0
  3  4  1  0  0  0
  4  1  1  0  0  0
  1 15  1  0  0  0
 15 16  1  0  0  0
 16 17  1  0  0  0
 17 18  1  0  0  0
 18 19  1  0  0  0
 19 22  1  0  0  0
 22 23  1  0  0  0
 23 24  2  0  0  0
 24 25  1  0  0  0
 25 26  2  0  0  0
 26 27  1  0  0  0
 27 28  2  0  0  0
 19 20  1  0  0  0
 20 21  1  0  0  0
  3  6  1  0  0  0
  6  7  2  0  0  0
  7  8  1  0  0  0
  8  9  2  0  0  0
  9 10  1  0  0  0
 10 12  1  0  0  0
 12 13  2  0  0  0
 12 14  1  0  0  0
 10 11  2  0  0  0
 21 16  1  0  0  0
 11  6  1  0  0  0
 28 23  1  0  0  0
  4  5  1  0  0  0
M  CHG 1  12   1
M  CHG 1  14  -1
M  END
> <minimizedAffinity>
-9.15124

> <CNNscore>
0.5227532387

> <CNNaffinity>
5.6356544495

> <CNN_VS>
2.9460566044

> <CNNaffinity_variance>
0.0114624035

$$$$
[H]c1c([H])c([H])c(C([H])([H])N2C([H])([H])C([H])([H])C([H])(C([H])([H])C([H])([H])N([H])C(=O)c3c([H])c([H])c([H])c([N+](=O)[O-])c3[H])C([H])([H])C2([H])[H])c([H])c1[H]


 28 30  0  0  0  0  0  0  0  0999 V2000
  153.9169  138.7268  185.1291 C   0  0  0  0  0  0  0  0  0  0  0  0
  152.6506  138.4380  187.6094 O   0  0  0  0  0  0  0  0  0  0  0  0
  153.8988  138.2995  187.5761 C   0  0  0  0  0  0  0  0  0  0  0  0
  154.5859  138.4365  186.3612 N   0  0  0  0  0  0  0  0  0  0  0  0
  155.6219  138.3289  186.3167 H   0  0  0  0  0  0  0  0  0  0  0  0
  154.5423  137.9982  188.8484 C   0  0  0  0  0  0  0  0  0  0  0  0
  155.8900  138.2086  189.0208 C   0  0  0  0  0  0  0  0  0  0  0  0
  156.5081  137.9185  190.2445 C   0  0  0  0  0  0  0  0  0  0  0  0
  155.7659  137.4182  191.2876 C   0  0  0  0  0  0  0  0  0  0  0  0
  154.4045  137.1929  191.1517 C   0  0  0  0  0  0  0  0  0  0  0  0
  153.8408  137.4971  189.9183 C   0  0  0  0  0  0  0  0  0  0  0  0
  153.6137  136.6787  192.2056 N   0  0  0  0  0  0  0  0  0  0  0  0
  152.6036  137.2960  192.5562 O   0  0  0  0  0  0  0  0  0  0  0  0
  153.9553  135.5197  192.8292 O   0  0  0  0  0  0  0  0  0  0  0  0
  154.9170  138.8477  184.0172 C   0  0  0  0  0  0  0  0  0  0  0  0
  155.8476  139.9921  184.3913 C   0  0  0  0  0  0  0  0  0  0  0  0
  156.2963  140.7517  183.1704 C   0  0  0  0  0  0  0  0  0  0  0  0
  157.0685  141.9721  183.6833 C   0  0  0  0  0  0  0  0  0  0  0  0
  158.1958  141.5654  184.4394 N   0  0  0  0  0  0  0  0  0  0  0  0
  158.3339  140.1686  184.6680 C   0  0  0  0  0  0  0  0  0  0  0  0
  157.0686  139.4908  185.1251 C   0  0  0  0  0  0  0  0  0  0  0  0
  159.4083  142.0814  183.8643 C   0  0  0  0  0  0  0  0  0  0  0  0
  160.4917  142.3245  184.8177 C   0  0  0  0  0  0  0  0  0  0  0  0
  160.1225  142.7508  186.0862 C   0  0  0  0  0  0  0  0  0  0  0  0
  161.0455  143.0049  187.0786 C   0  0  0  0  0  0  0  0  0  0  0  0
  162.3693  142.8197  186.7668 C   0  0  0  0  0  0  0  0  0  0  0  0
  162.7427  142.3987  185.5154 C   0  0  0  0  0  0  0  0  0  0  0  0
  161.8189  142.1491  184.5375 C   0  0  0  0  0  0  0  0  0  0  0  0
  2  3  2  0  0  0
  3  4  1  0  0  0
  4  1  1  0  0  0
  1 15  1  0  0  0
 15 16  1  0  0  0
 16 17  1  0  0  0
 17 18  1  0  0  0
 18 19  1  0  0  0
 19 22  1  0  0  0
 22 23  1  0  0  0
 23 24  2  0  0  0
 24 25  1  0  0  0
 25 26  2  0  0  0
 26 27  1  0  0  0
 27 28  2  0  0  0
 19 20  1  0  0  0
 20 21  1  0  0  0
  3  6  1  0  0  0
  6  7  2  0  0  0
  7  8  1  0  0  0
  8  9  2  0  0  0
  9 10  1  0  0  0
 10 12  1  0  0  0
 12 13  2  0  0  0
 12 14  1  0  0  0
 10 11  2  0  0  0
 21 16  1  0  0  0
 11  6  1  0  0  0
 28 23  1  0  0  0
  4  5  1  0  0  0
M  CHG 1  12   1
M  CHG 1  14  -1
M  END
> <minimizedAffinity>
-8.86770

> <CNNscore>
0.5014232397

> <CNNaffinity>
5.8430442810

> <CNN_VS>
2.9298381805

> <CNNaffinity_variance>
0.0732485279

$$$$
[H]c1c([H])c([H])c(C([H])([H])N2C([H])([H])C([H])([H])C([H])(C([H])([H])C([H])([H])N([H])C(=O)c3c([H])c([H])c([H])c([N+](=O)[O-])c3[H])C([H])([H])C2([H])[H])c([H])c1[H]


 28 30  0  0  0  0  0  0  0  0999 V2000
  153.7237  140.5689  181.9245 C   0  0  0  0  0  0  0  0  0  0  0  0
  152.5538  139.6132  179.5671 O   0  0  0  0  0  0  0  0  0  0  0  0
  151.8304  139.6675  180.5928 C   0  0  0  0  0  0  0  0  0  0  0  0
  152.3630  140.1410  181.8006 N   0  0  0  0  0  0  0  0  0  0  0  0
  151.7753  140.1965  182.6600 H   0  0  0  0  0  0  0  0  0  0  0  0
  150.4541  139.2173  180.4284 C   0  0  0  0  0  0  0  0  0  0  0  0
  149.9495  138.9427  179.1793 C   0  0  0  0  0  0  0  0  0  0  0  0
  148.6260  138.5099  179.0222 C   0  0  0  0  0  0  0  0  0  0  0  0
  147.8181  138.3561  180.1235 C   0  0  0  0  0  0  0  0  0  0  0  0
  148.2914  138.6230  181.3992 C   0  0  0  0  0  0  0  0  0  0  0  0
  149.6104  139.0491  181.4999 C   0  0  0  0  0  0  0  0  0  0  0  0
  147.4852  138.4749  182.5517 N   0  0  0  0  0  0  0  0  0  0  0  0
  146.8213  137.4436  182.6931 O   0  0  0  0  0  0  0  0  0  0  0  0
  147.4371  139.4517  183.4965 O   0  0  0  0  0  0  0  0  0  0  0  0
  153.7739  142.0009  182.3693 C   0  0  0  0  0  0  0  0  0  0  0  0
  155.0561  142.1625  183.1727 C   0  0  0  0  0  0  0  0  0  0  0  0
  156.2568  142.2652  182.2691 C   0  0  0  0  0  0  0  0  0  0  0  0
  157.4471  142.6044  183.1729 C   0  0  0  0  0  0  0  0  0  0  0  0
  157.6512  141.5809  184.1314 N   0  0  0  0  0  0  0  0  0  0  0  0
  156.6913  140.5319  184.1511 C   0  0  0  0  0  0  0  0  0  0  0  0
  155.2612  141.0044  184.1201 C   0  0  0  0  0  0  0  0  0  0  0  0
  158.9709  141.0237  184.0089 C   0  0  0  0  0  0  0  0  0  0  0  0
  160.0016  141.6912  184.8051 C   0  0  0  0  0  0  0  0  0  0  0  0
  159.6269  142.1324  186.0669 C   0  0  0  0  0  0  0  0  0  0  0  0
  160.5057  142.7667  186.9194 C   0  0  0  0  0  0  0  0  0  0  0  0
  161.7900  142.9526  186.4724 C   0  0  0  0  0  0  0  0  0  0  0  0
  162.1684  142.5196  185.2266 C   0  0  0  0  0  0  0  0  0  0  0  0
  161.2888  141.8911  184.3880 C   0  0  0  0  0  0  0  0  0  0  0  0
  2  3  2  0  0  0
  3  4  1  0  0  0
  4  1  1  0  0  0
  1 15  1  0  0  0
 15 16  1  0  0  0
 16 17  1  0  0  0
 17 18  1  0  0  0
 18 19  1  0  0  0
 19 22  1  0  0  0
 22 23  1  0  0  0
 23 24  2  0  0  0
 24 25  1  0  0  0
 25 26  2  0  0  0
 26 27  1  0  0  0
 27 28  2  0  0  0
 19 20  1  0  0  0
 20 21  1  0  0  0
  3  6  1  0  0  0
  6  7  2  0  0  0
  7  8  1  0  0  0
  8  9  2  0  0  0
  9 10  1  0  0  0
 10 12  1  0  0  0
 12 13  2  0  0  0
 12 14  1  0  0  0
 10 11  2  0  0  0
 21 16  1  0  0  0
 11  6  1  0  0  0
 28 23  1  0  0  0
  4  5  1  0  0  0
M  CHG 1  12   1
M  CHG 1  14  -1
M  END
> <minimizedAffinity>
-8.98597

> <CNNscore>
0.4616932869

> <CNNaffinity>
5.8342618942

> <CNN_VS>
2.6936395168

> <CNNaffinity_variance>
0.0201255195

$$$$
[H]c1c([H])c([H])c(C([H])([H])N2C([H])([H])C([H])([H])C([H])(C([H])([H])C([H])([H])N([H])C(=O)c3c([H])c([H])c([H])c([N+](=O)[O-])c3[H])C([H])([H])C2([H])[H])c([H])c1[H]


 28 30  0  0  0  0  0  0  0  0999 V2000
  154.6649  138.7394  184.4109 C   0  0  0  0  0  0  0  0  0  0  0  0
  152.9404  137.6108  186.3060 O   0  0  0  0  0  0  0  0  0  0  0  0
  154.0481  138.0410  186.7136 C   0  0  0  0  0  0  0  0  0  0  0  0
  154.9501  138.6193  185.8088 N   0  0  0  0  0  0  0  0  0  0  0  0
  155.8717  138.9851  186.1310 H   0  0  0  0  0  0  0  0  0  0  0  0
  154.3044  137.8948  188.1407 C   0  0  0  0  0  0  0  0  0  0  0  0
  155.5358  138.2041  188.6684 C   0  0  0  0  0  0  0  0  0  0  0  0
  155.7814  138.0631  190.0408 C   0  0  0  0  0  0  0  0  0  0  0  0
  154.7859  137.6116  190.8741 C   0  0  0  0  0  0  0  0  0  0  0  0
  153.5313  137.2899  190.3788 C   0  0  0  0  0  0  0  0  0  0  0  0
  153.3400  137.4475  189.0114 C   0  0  0  0  0  0  0  0  0  0  0  0
  152.4868  136.8226  191.2100 N   0  0  0  0  0  0  0  0  0  0  0  0
  152.4279  137.2135  192.3797 O   0  0  0  0  0  0  0  0  0  0  0  0
  151.5555  135.9537  190.7338 O   0  0  0  0  0  0  0  0  0  0  0  0
  154.3785  140.1713  184.0658 C   0  0  0  0  0  0  0  0  0  0  0  0
  155.5484  140.6583  183.2233 C   0  0  0  0  0  0  0  0  0  0  0  0
  156.7956  139.8644  183.5110 C   0  0  0  0  0  0  0  0  0  0  0  0
  157.8403  140.3188  182.4859 C   0  0  0  0  0  0  0  0  0  0  0  0
  158.1066  141.7034  182.6276 N   0  0  0  0  0  0  0  0  0  0  0  0
  157.3116  142.4070  183.5737 C   0  0  0  0  0  0  0  0  0  0  0  0
  155.8361  142.1195  183.4741 C   0  0  0  0  0  0  0  0  0  0  0  0
  159.4990  141.9286  182.9064 C   0  0  0  0  0  0  0  0  0  0  0  0
  159.8126  142.2092  184.3082 C   0  0  0  0  0  0  0  0  0  0  0  0
  160.8432  143.1075  184.5491 C   0  0  0  0  0  0  0  0  0  0  0  0
  161.2299  143.4644  185.8237 C   0  0  0  0  0  0  0  0  0  0  0  0
  160.5501  142.8916  186.8694 C   0  0  0  0  0  0  0  0  0  0  0  0
  159.5303  142.0027  186.6399 C   0  0  0  0  0  0  0  0  0  0  0  0
  159.1541  141.6551  185.3712 C   0  0  0  0  0  0  0  0  0  0  0  0
  2  3  2  0  0  0
  3  4  1  0  0  0
  4  1  1  0  0  0
  1 15  1  0  0  0
 15 16  1  0  0  0
 16 17  1  0  0  0
 17 18  1  0  0  0
 18 19  1  0  0  0
 19 22  1  0  0  0
 22 23  1  0  0  0
 23 24  2  0  0  0
 24 25  1  0  0  0
 25 26  2  0  0  0
 26 27  1  0  0  0
 27 28  2  0  0  0
 19 20  1  0  0  0
 20 21  1  0  0  0
  3  6  1  0  0  0
  6  7  2  0  0  0
  7  8  1  0  0  0
  8  9  2  0  0  0
  9 10  1  0  0  0
 10 12  1  0  0  0
 12 13  2  0  0  0
 12 14  1  0  0  0
 10 11  2  0  0  0
 21 16  1  0  0  0
 11  6  1  0  0  0
 28 23  1  0  0  0
  4  5  1  0  0  0
M  CHG 1  12   1
M  CHG 1  14  -1
M  END
> <minimizedAffinity>
-8.40608

> <CNNscore>
0.4257027805

> <CNNaffinity>
5.8542656898

> <CNN_VS>
2.4921772480

> <CNNaffinity_variance>
0.0431270339

$$$$
[H]c1c([H])c([H])c(C([H])([H])N2C([H])([H])C([H])([H])C([H])(C([H])([H])C([H])([H])N([H])C(=O)c3c([H])c([H])c([H])c([N+](=O)[O-])c3[H])C([H])([H])C2([H])[H])c([H])c1[H]


 28 30  0  0  0  0  0  0  0  0999 V2000
  153.2535  137.4163  184.5750 C   0  0  0  0  0  0  0  0  0  0  0  0
  152.8893  136.4387  181.9767 O   0  0  0  0  0  0  0  0  0  0  0  0
  152.3334  137.5264  182.2702 C   0  0  0  0  0  0  0  0  0  0  0  0
  152.4844  138.0648  183.5563 N   0  0  0  0  0  0  0  0  0  0  0  0
  152.0334  138.9685  183.8150 H   0  0  0  0  0  0  0  0  0  0  0  0
  151.5543  138.1523  181.2095 C   0  0  0  0  0  0  0  0  0  0  0  0
  152.0908  139.1626  180.4468 C   0  0  0  0  0  0  0  0  0  0  0  0
  151.3408  139.7640  179.4272 C   0  0  0  0  0  0  0  0  0  0  0  0
  150.0552  139.3448  179.1813 C   0  0  0  0  0  0  0  0  0  0  0  0
  149.4801  138.3287  179.9292 C   0  0  0  0  0  0  0  0  0  0  0  0
  150.2661  137.7661  180.9278 C   0  0  0  0  0  0  0  0  0  0  0  0
  148.1599  137.8754  179.7011 N   0  0  0  0  0  0  0  0  0  0  0  0
  147.9815  136.8578  179.0249 O   0  0  0  0  0  0  0  0  0  0  0  0
  147.0957  138.5465  180.2169 O   0  0  0  0  0  0  0  0  0  0  0  0
  154.0725  138.4269  185.3227 C   0  0  0  0  0  0  0  0  0  0  0  0
  154.9714  139.1030  184.2977 C   0  0  0  0  0  0  0  0  0  0  0  0
  156.3206  139.4260  184.8841 C   0  0  0  0  0  0  0  0  0  0  0  0
  157.1850  139.9282  183.7226 C   0  0  0  0  0  0  0  0  0  0  0  0
  156.6178  141.0927  183.1479 N   0  0  0  0  0  0  0  0  0  0  0  0
  155.3528  141.4973  183.6562 C   0  0  0  0  0  0  0  0  0  0  0  0
  154.3514  140.3786  183.7788 C   0  0  0  0  0  0  0  0  0  0  0  0
  157.5387  142.1947  183.2154 C   0  0  0  0  0  0  0  0  0  0  0  0
  158.1172  142.5982  181.9330 C   0  0  0  0  0  0  0  0  0  0  0  0
  158.7270  143.8445  181.8882 C   0  0  0  0  0  0  0  0  0  0  0  0
  159.3183  144.3376  180.7443 C   0  0  0  0  0  0  0  0  0  0  0  0
  159.2844  143.5411  179.6269 C   0  0  0  0  0  0  0  0  0  0  0  0
  158.6835  142.3081  179.6627 C   0  0  0  0  0  0  0  0  0  0  0  0
  158.0995  141.8278  180.8030 C   0  0  0  0  0  0  0  0  0  0  0  0
  2  3  2  0  0  0
  3  4  1  0  0  0
  4  1  1  0  0  0
  1 15  1  0  0  0
 15 16  1  0  0  0
 16 17  1  0  0  0
 17 18  1  0  0  0
 18 19  1  0  0  0
 19 22  1  0  0  0
 22 23  1  0  0  0
 23 24  2  0  0  0
 24 25  1  0  0  0
 25 26  2  0  0  0
 26 27  1  0  0  0
 27 28  2  0  0  0
 19 20  1  0  0  0
 20 21  1  0  0  0
  3  6  1  0  0  0
  6  7  2  0  0  0
  7  8  1  0  0  0
  8  9  2  0  0  0
  9 10  1  0  0  0
 10 12  1  0  0  0
 12 13  2  0  0  0
 12 14  1  0  0  0
 10 11  2  0  0  0
 21 16  1  0  0  0
 11  6  1  0  0  0
 28 23  1  0  0  0
  4  5  1  0  0  0
M  CHG 1  12   1
M  CHG 1  14  -1
M  END
> <minimizedAffinity>
-7.88846

> <CNNscore>
0.4239318967

> <CNNaffinity>
5.6872620583

> <CNN_VS>
2.4110116959

> <CNNaffinity_variance>
0.0403693244

$$$$
[H]c1c([H])c([H])c(C([H])([H])N2C([H])([H])C([H])([H])C([H])(C([H])([H])C([H])([H])N([H])C(=O)c3c([H])c([H])c([H])c([N+](=O)[O-])c3[H])C([H])([H])C2([H])[H])c([H])c1[H]


 28 30  0  0  0  0  0  0  0  0999 V2000
  153.9858  138.0595  184.1896 C   0  0  0  0  0  0  0  0  0  0  0  0
  155.0506  136.3534  186.1376 O   0  0  0  0  0  0  0  0  0  0  0  0
  154.1854  137.1862  186.5065 C   0  0  0  0  0  0  0  0  0  0  0  0
  153.6156  138.0637  185.5726 N   0  0  0  0  0  0  0  0  0  0  0  0
  152.8933  138.7579  185.8613 H   0  0  0  0  0  0  0  0  0  0  0  0
  153.8402  137.1642  187.9222 C   0  0  0  0  0  0  0  0  0  0  0  0
  152.6994  136.5320  188.3570 C   0  0  0  0  0  0  0  0  0  0  0  0
  152.3681  136.5114  189.7185 C   0  0  0  0  0  0  0  0  0  0  0  0
  153.1873  137.1273  190.6343 C   0  0  0  0  0  0  0  0  0  0  0  0
  154.3463  137.7746  190.2339 C   0  0  0  0  0  0  0  0  0  0  0  0
  154.6287  137.7659  188.8732 C   0  0  0  0  0  0  0  0  0  0  0  0
  155.2093  138.4178  191.1515 N   0  0  0  0  0  0  0  0  0  0  0  0
  156.2889  137.8895  191.4338 O   0  0  0  0  0  0  0  0  0  0  0  0
  154.8612  139.6033  191.7193 O   0  0  0  0  0  0  0  0  0  0  0  0
  153.8833  139.4462  183.6258 C   0  0  0  0  0  0  0  0  0  0  0  0
  155.0612  140.2313  184.1844 C   0  0  0  0  0  0  0  0  0  0  0  0
  155.4771  141.3329  183.2452 C   0  0  0  0  0  0  0  0  0  0  0  0
  156.5350  142.1553  183.9890 C   0  0  0  0  0  0  0  0  0  0  0  0
  157.6545  141.3492  184.3126 N   0  0  0  0  0  0  0  0  0  0  0  0
  157.5483  139.9653  184.0032 C   0  0  0  0  0  0  0  0  0  0  0  0
  156.2502  139.3348  184.4357 C   0  0  0  0  0  0  0  0  0  0  0  0
  158.8536  141.8831  183.7259 C   0  0  0  0  0  0  0  0  0  0  0  0
  159.9296  142.1765  184.6736 C   0  0  0  0  0  0  0  0  0  0  0  0
  159.5537  142.4263  185.9864 C   0  0  0  0  0  0  0  0  0  0  0  0
  160.4708  142.7053  186.9776 C   0  0  0  0  0  0  0  0  0  0  0  0
  161.7953  142.7292  186.6185 C   0  0  0  0  0  0  0  0  0  0  0  0
  162.1752  142.4836  185.3232 C   0  0  0  0  0  0  0  0  0  0  0  0
  161.2573  142.2076  184.3468 C   0  0  0  0  0  0  0  0  0  0  0  0
  2  3  2  0  0  0
  3  4  1  0  0  0
  4  1  1  0  0  0
  1 15  1  0  0  0
 15 16  1  0  0  0
 16 17  1  0  0  0
 17 18  1  0  0  0
 18 19  1  0  0  0
 19 22  1  0  0  0
 22 23  1  0  0  0
 23 24  2  0  0  0
 24 25  1  0  0  0
 25 26  2  0  0  0
 26 27  1  0  0  0
 27 28  2  0  0  0
 19 20  1  0  0  0
 20 21  1  0  0  0
  3  6  1  0  0  0
  6  7  2  0  0  0
  7  8  1  0  0  0
  8  9  2  0  0  0
  9 10  1  0  0  0
 10 12  1  0  0  0
 12 13  2  0  0  0
 12 14  1  0  0  0
 10 11  2  0  0  0
 21 16  1  0  0  0
 11  6  1  0  0  0
 28 23  1  0  0  0
  4  5  1  0  0  0
M  CHG 1  12   1
M  CHG 1  14  -1
M  END
> <minimizedAffinity>
-8.06911

> <CNNscore>
0.4042024612

> <CNNaffinity>
5.7601804733

> <CNN_VS>
2.3282790184

> <CNNaffinity_variance>
0.1039643660

$$$$
[H]OC(=O)c1c([H])c([H])c(OC2([H])C([H])([H])SC2([H])[H])c([H])c1[H]


 15 16  0  0  0  0  0  0  0  0999 V2000
  150.6387  134.9228  193.1149 C   0  0  0  0  0  0  0  0  0  0  0  0
  151.9381  134.4923  193.3427 C   0  0  0  0  0  0  0  0  0  0  0  0
  153.0026  135.2866  192.9314 C   0  0  0  0  0  0  0  0  0  0  0  0
  152.8212  136.4954  192.3006 C   0  0  0  0  0  0  0  0  0  0  0  0
  151.5166  136.9153  192.0783 C   0  0  0  0  0  0  0  0  0  0  0  0
  150.4339  136.1346  192.4826 C   0  0  0  0  0  0  0  0  0  0  0  0
  148.9511  133.3226  192.7261 O   0  0  0  0  0  0  0  0  0  0  0  0
  149.5180  134.0849  193.5489 C   0  0  0  0  0  0  0  0  0  0  0  0
  149.0857  134.1338  194.8629 O   0  0  0  0  0  0  0  0  0  0  0  0
  148.2700  134.7085  195.0784 H   0  0  0  0  0  0  0  0  0  0  0  0
  153.8271  137.2590  191.9050 O   0  0  0  0  0  0  0  0  0  0  0  0
  154.7948  137.3277  190.9996 C   0  0  0  0  0  0  0  0  0  0  0  0
  155.0068  138.6449  190.2393 C   0  0  0  0  0  0  0  0  0  0  0  0
  156.5195  137.8571  189.5999 S   0  0  0  0  0  0  0  0  0  0  0  0
  156.2420  137.3888  191.3504 C   0  0  0  0  0  0  0  0  0  0  0  0
  7  8  2  0  0  0
  8  9  1  0  0  0
  8  1  1  0  0  0
  1  2  2  0  0  0
  2  3  1  0  0  0
  3  4  2  0  0  0
  4 11  1  0  0  0
 11 12  1  0  0  0
 12 13  1  0  0  0
 13 14  1  0  0  0
 14 15  1  0  0  0
  4  5  1  0  0  0
  5  6  2  0  0  0
  6  1  1  0  0  0
 15 12  1  0  0  0
  9 10  1  0  0  0
M  END
> <minimizedAffinity>
-4.04636

> <CNNscore>
0.6064456105

> <CNNaffinity>
3.5603709221

> <CNN_VS>
2.1591713428

> <CNNaffinity_variance>
0.0795869082

$$$$
[H]OC(=O)c1c([H])c([H])c(OC2([H])C([H])([H])SC2([H])[H])c([H])c1[H]


 15 16  0  0  0  0  0  0  0  0999 V2000
  153.2681  137.7332  185.2328 C   0  0  0  0  0  0  0  0  0  0  0  0
  154.6057  137.9952  185.4933 C   0  0  0  0  0  0  0  0  0  0  0  0
  155.0073  138.2649  186.7969 C   0  0  0  0  0  0  0  0  0  0  0  0
  154.1253  138.2836  187.8522 C   0  0  0  0  0  0  0  0  0  0  0  0
  152.7899  138.0199  187.5788 C   0  0  0  0  0  0  0  0  0  0  0  0
  152.3649  137.7469  186.2789 C   0  0  0  0  0  0  0  0  0  0  0  0
  153.1588  138.2388  182.9323 O   0  0  0  0  0  0  0  0  0  0  0  0
  152.8463  137.4492  183.8587 C   0  0  0  0  0  0  0  0  0  0  0  0
  152.1053  136.3131  183.5833 O   0  0  0  0  0  0  0  0  0  0  0  0
  151.0934  136.4110  183.4908 H   0  0  0  0  0  0  0  0  0  0  0  0
  154.4969  138.5391  189.0964 O   0  0  0  0  0  0  0  0  0  0  0  0
  155.1361  138.0023  190.1281 C   0  0  0  0  0  0  0  0  0  0  0  0
  155.0970  136.4785  190.3133 C   0  0  0  0  0  0  0  0  0  0  0  0
  156.3400  136.7564  191.6154 S   0  0  0  0  0  0  0  0  0  0  0  0
  156.6205  137.8947  190.2061 C   0  0  0  0  0  0  0  0  0  0  0  0
  7  8  2  0  0  0
  8  9  1  0  0  0
  8  1  1  0  0  0
  1  2  2  0  0  0
  2  3  1  0  0  0
  3  4  2  0  0  0
  4 11  1  0  0  0
 11 12  1  0  0  0
 12 13  1  0  0  0
 13 14  1  0  0  0
 14 15  1  0  0  0
  4  5  1  0  0  0
  5  6  2  0  0  0
  6  1  1  0  0  0
 15 12  1  0  0  0
  9 10  1  0  0  0
M  END
> <minimizedAffinity>
-3.61610

> <CNNscore>
0.5349532366

> <CNNaffinity>
3.6538200378

> <CNN_VS>
1.9546228647

> <CNNaffinity_variance>
0.0229698177

$$$$
[H]OC(=O)c1c([H])c([H])c(OC2([H])C([H])([H])SC2([H])[H])c([H])c1[H]


 15 16  0  0  0  0  0  0  0  0999 V2000
  153.2520  139.2511  182.8788 C   0  0  0  0  0  0  0  0  0  0  0  0
  153.0090  140.3638  182.0861 C   0  0  0  0  0  0  0  0  0  0  0  0
  153.8525  141.4653  182.1783 C   0  0  0  0  0  0  0  0  0  0  0  0
  154.9306  141.5002  183.0319 C   0  0  0  0  0  0  0  0  0  0  0  0
  155.1633  140.3809  183.8197 C   0  0  0  0  0  0  0  0  0  0  0  0
  154.3302  139.2651  183.7435 C   0  0  0  0  0  0  0  0  0  0  0  0
  151.1778  138.2423  182.3891 O   0  0  0  0  0  0  0  0  0  0  0  0
  152.3624  138.0911  182.7805 C   0  0  0  0  0  0  0  0  0  0  0  0
  152.8273  136.8320  183.1185 O   0  0  0  0  0  0  0  0  0  0  0  0
  152.6037  136.4712  184.0468 H   0  0  0  0  0  0  0  0  0  0  0  0
  155.7395  142.5431  183.1275 O   0  0  0  0  0  0  0  0  0  0  0  0
  156.9099  143.0014  182.7019 C   0  0  0  0  0  0  0  0  0  0  0  0
  157.4440  142.5231  181.3440 C   0  0  0  0  0  0  0  0  0  0  0  0
  158.7274  143.7957  181.5706 S   0  0  0  0  0  0  0  0  0  0  0  0
  157.1133  144.3912  182.2037 C   0  0  0  0  0  0  0  0  0  0  0  0
  7  8  2  0  0  0
  8  9  1  0  0  0
  8  1  1  0  0  0
  1  2  2  0  0  0
  2  3  1  0  0  0
  3  4  2  0  0  0
  4 11  1  0  0  0
 11 12  1  0  0  0
 12 13  1  0  0  0
 13 14  1  0  0  0
 14 15  1  0  0  0
  4  5  1  0  0  0
  5  6  2  0  0  0
  6  1  1  0  0  0
 15 12  1  0  0  0
  9 10  1  0  0  0
M  END
> <minimizedAffinity>
-4.81450

> <CNNscore>
0.5187002420

> <CNNaffinity>
4.0564560890

> <CNN_VS>
2.1040847301

> <CNNaffinity_variance>
0.1491101533

$$$$
[H]OC(=O)c1c([H])c([H])c(OC2([H])C([H])([H])SC2([H])[H])c([H])c1[H]


 15 16  0  0  0  0  0  0  0  0999 V2000
  154.6964  139.3566  184.2711 C   0  0  0  0  0  0  0  0  0  0  0  0
  156.0441  139.6290  184.4582 C   0  0  0  0  0  0  0  0  0  0  0  0
  156.6208  140.7082  183.7977 C   0  0  0  0  0  0  0  0  0  0  0  0
  155.9043  141.5273  182.9565 C   0  0  0  0  0  0  0  0  0  0  0  0
  154.5569  141.2446  182.7774 C   0  0  0  0  0  0  0  0  0  0  0  0
  153.9579  140.1673  183.4299 C   0  0  0  0  0  0  0  0  0  0  0  0
  153.4322  138.4092  186.0215 O   0  0  0  0  0  0  0  0  0  0  0  0
  154.0901  138.2193  184.9677 C   0  0  0  0  0  0  0  0  0  0  0  0
  154.2426  136.9387  184.4649 O   0  0  0  0  0  0  0  0  0  0  0  0
  154.9631  136.3443  184.8767 H   0  0  0  0  0  0  0  0  0  0  0  0
  156.4432  142.5568  182.3231 O   0  0  0  0  0  0  0  0  0  0  0  0
  157.3275  142.8585  181.3806 C   0  0  0  0  0  0  0  0  0  0  0  0
  158.7737  143.1690  181.7929 C   0  0  0  0  0  0  0  0  0  0  0  0
  159.1298  143.1380  180.0068 S   0  0  0  0  0  0  0  0  0  0  0  0
  157.8953  141.8533  180.4382 C   0  0  0  0  0  0  0  0  0  0  0  0
  7  8  2  0  0  0
  8  9  1  0  0  0
  8  1  1  0  0  0
  1  2  2  0  0  0
  2  3  1  0  0  0
  3  4  2  0  0  0
  4 11  1  0  0  0
 11 12  1  0  0  0
 12 13  1  0  0  0
 13 14  1  0  0  0
 14 15  1  0  0  0
  4  5  1  0  0  0
  5  6  2  0  0  0
  6  1  1  0  0  0
 15 12  1  0  0  0
  9 10  1  0  0  0
M  END
> <minimizedAffinity>
-4.69449

> <CNNscore>
0.4573763609

> <CNNaffinity>
4.2220864296

> <CNN_VS>
1.9310824871

> <CNNaffinity_variance>
0.3340583444

$$$$
[H]OC(=O)c1c([H])c([H])c(OC2([H])C([H])([H])SC2([H])[H])c([H])c1[H]


 15 16  0  0  0  0  0  0  0  0999 V2000
  153.2293  137.9940  186.2748 C   0  0  0  0  0  0  0  0  0  0  0  0
  152.3208  136.9534  186.4062 C   0  0  0  0  0  0  0  0  0  0  0  0
  152.0655  136.4249  187.6667 C   0  0  0  0  0  0  0  0  0  0  0  0
  152.6822  136.8946  188.8029 C   0  0  0  0  0  0  0  0  0  0  0  0
  153.5891  137.9359  188.6586 C   0  0  0  0  0  0  0  0  0  0  0  0
  153.8603  138.4812  187.4039 C   0  0  0  0  0  0  0  0  0  0  0  0
  152.8198  138.1672  183.9592 O   0  0  0  0  0  0  0  0  0  0  0  0
  153.4973  138.5499  184.9461 C   0  0  0  0  0  0  0  0  0  0  0  0
  154.4951  139.4947  184.7797 O   0  0  0  0  0  0  0  0  0  0  0  0
  155.4023  139.1787  184.4345 H   0  0  0  0  0  0  0  0  0  0  0  0
  152.4465  136.3989  190.0071 O   0  0  0  0  0  0  0  0  0  0  0  0
  152.3416  136.7531  191.2817 C   0  0  0  0  0  0  0  0  0  0  0  0
  150.9764  136.6343  191.9744 C   0  0  0  0  0  0  0  0  0  0  0  0
  151.8890  137.0123  193.5047 S   0  0  0  0  0  0  0  0  0  0  0  0
  152.8936  135.9438  192.4049 C   0  0  0  0  0  0  0  0  0  0  0  0
  7  8  2  0  0  0
  8  9  1  0  0  0
  8  1  1  0  0  0
  1  2  2  0  0  0
  2  3  1  0  0  0
  3  4  2  0  0  0
  4 11  1  0  0  0
 11 12  1  0  0  0
 12 13  1  0  0  0
 13 14  1  0  0  0
 14 15  1  0  0  0
  4  5  1  0  0  0
  5  6  2  0  0  0
  6  1  1  0  0  0
 15 12  1  0  0  0
  9 10  1  0  0  0
M  END
> <minimizedAffinity>
-3.56499

> <CNNscore>
0.4139485061

> <CNNaffinity>
3.5575408936

> <CNN_VS>
1.4726387262

> <CNNaffinity_variance>
0.0713260993

$$$$
[H]OC(=O)c1c([H])c([H])c(OC2([H])C([H])([H])SC2([H])[H])c([H])c1[H]


 15 16  0  0  0  0  0  0  0  0999 V2000
  155.7454  136.2744  189.7190 C   0  0  0  0  0  0  0  0  0  0  0  0
  154.7459  137.1974  189.4460 C   0  0  0  0  0  0  0  0  0  0  0  0
  153.7925  137.4791  190.4181 C   0  0  0  0  0  0  0  0  0  0  0  0
  153.7972  136.8748  191.6537 C   0  0  0  0  0  0  0  0  0  0  0  0
  154.8023  135.9532  191.9150 C   0  0  0  0  0  0  0  0  0  0  0  0
  155.7688  135.6555  190.9547 C   0  0  0  0  0  0  0  0  0  0  0  0
  156.6091  136.4335  187.5308 O   0  0  0  0  0  0  0  0  0  0  0  0
  156.7494  135.9786  188.6938 C   0  0  0  0  0  0  0  0  0  0  0  0
  157.8497  135.1994  189.0072 O   0  0  0  0  0  0  0  0  0  0  0  0
  157.8248  134.2106  188.7550 H   0  0  0  0  0  0  0  0  0  0  0  0
  152.8948  137.1356  192.5859 O   0  0  0  0  0  0  0  0  0  0  0  0
  151.7876  136.6513  193.1342 C   0  0  0  0  0  0  0  0  0  0  0  0
  150.8090  135.8603  192.2542 C   0  0  0  0  0  0  0  0  0  0  0  0
  149.9585  135.4666  193.8161 S   0  0  0  0  0  0  0  0  0  0  0  0
  151.7753  135.4837  194.0604 C   0  0  0  0  0  0  0  0  0  0  0  0
  7  8  2  0  0  0
  8  9  1  0  0  0
  8  1  1  0  0  0
  1  2  2  0  0  0
  2  3  1  0  0  0
  3  4  2  0  0  0
  4 11  1  0  0  0
 11 12  1  0  0  0
 12 13  1  0  0  0
 13 14  1  0  0  0
 14 15  1  0  0  0
  4  5  1  0  0  0
  5  6  2  0  0  0
  6  1  1  0  0  0
 15 12  1  0  0  0
  9 10  1  0  0  0
M  END
> <minimizedAffinity>
-3.58168

> <CNNscore>
0.3896974623

> <CNNaffinity>
3.4624545574

> <CNN_VS>
1.3493098021

> <CNNaffinity_variance>
0.0362590589

$$$$
[H]OC(=O)c1c([H])c([H])c(OC2([H])C([H])([H])SC2([H])[H])c([H])c1[H]


 15 16  0  0  0  0  0  0  0  0999 V2000
  157.7514  141.8156  182.4884 C   0  0  0  0  0  0  0  0  0  0  0  0
  157.6713  141.2258  183.7418 C   0  0  0  0  0  0  0  0  0  0  0  0
  158.5117  141.6656  184.7585 C   0  0  0  0  0  0  0  0  0  0  0  0
  159.4305  142.6723  184.5731 C   0  0  0  0  0  0  0  0  0  0  0  0
  159.5011  143.2546  183.3147 C   0  0  0  0  0  0  0  0  0  0  0  0
  158.6678  142.8292  182.2805 C   0  0  0  0  0  0  0  0  0  0  0  0
  155.6890  141.0001  181.6877 O   0  0  0  0  0  0  0  0  0  0  0  0
  156.8652  141.3512  181.4181 C   0  0  0  0  0  0  0  0  0  0  0  0
  157.3240  141.2998  180.1133 O   0  0  0  0  0  0  0  0  0  0  0  0
  157.6399  140.3993  179.7509 H   0  0  0  0  0  0  0  0  0  0  0  0
  160.2349  143.0984  185.5336 O   0  0  0  0  0  0  0  0  0  0  0  0
  161.2684  142.7218  186.2760 C   0  0  0  0  0  0  0  0  0  0  0  0
  162.6297  142.5088  185.5984 C   0  0  0  0  0  0  0  0  0  0  0  0
  163.2786  142.3493  187.2929 S   0  0  0  0  0  0  0  0  0  0  0  0
  161.9711  143.6323  187.2238 C   0  0  0  0  0  0  0  0  0  0  0  0
  7  8  2  0  0  0
  8  9  1  0  0  0
  8  1  1  0  0  0
  1  2  2  0  0  0
  2  3  1  0  0  0
  3  4  2  0  0  0
  4 11  1  0  0  0
 11 12  1  0  0  0
 12 13  1  0  0  0
 13 14  1  0  0  0
 14 15  1  0  0  0
  4  5  1  0  0  0
  5  6  2  0  0  0
  6  1  1  0  0  0
 15 12  1  0  0  0
  9 10  1  0  0  0
M  END
> <minimizedAffinity>
-5.07788

> <CNNscore>
0.3756840527

> <CNNaffinity>
4.6723146439

> <CNN_VS>
1.7553141117

> <CNNaffinity_variance>
0.3346039057

$$$$
[H]OC(=O)c1c([H])c([H])c(OC2([H])C([H])([H])SC2([H])[H])c([H])c1[H]


 15 16  0  0  0  0  0  0  0  0999 V2000
  158.6887  142.0465  180.9444 C   0  0  0  0  0  0  0  0  0  0  0  0
  158.8870  143.1937  181.6994 C   0  0  0  0  0  0  0  0  0  0  0  0
  159.2316  143.0769  183.0413 C   0  0  0  0  0  0  0  0  0  0  0  0
  159.3862  141.8584  183.6605 C   0  0  0  0  0  0  0  0  0  0  0  0
  159.1851  140.7179  182.8946 C   0  0  0  0  0  0  0  0  0  0  0  0
  158.8389  140.8117  181.5469 C   0  0  0  0  0  0  0  0  0  0  0  0
  158.9034  143.0222  178.8086 O   0  0  0  0  0  0  0  0  0  0  0  0
  158.3257  142.1711  179.5304 C   0  0  0  0  0  0  0  0  0  0  0  0
  157.3481  141.3522  178.9923 O   0  0  0  0  0  0  0  0  0  0  0  0
  156.4050  141.7306  178.8956 H   0  0  0  0  0  0  0  0  0  0  0  0
  159.7139  141.7359  184.9368 O   0  0  0  0  0  0  0  0  0  0  0  0
  160.6839  142.0137  185.7988 C   0  0  0  0  0  0  0  0  0  0  0  0
  162.0333  142.5115  185.2613 C   0  0  0  0  0  0  0  0  0  0  0  0
  162.4401  142.8307  187.0079 S   0  0  0  0  0  0  0  0  0  0  0  0
  160.6790  143.2175  186.6774 C   0  0  0  0  0  0  0  0  0  0  0  0
  7  8  2  0  0  0
  8  9  1  0  0  0
  8  1  1  0  0  0
  1  2  2  0  0  0
  2  3  1  0  0  0
  3  4  2  0  0  0
  4 11  1  0  0  0
 11 12  1  0  0  0
 12 13  1  0  0  0
 13 14  1  0  0  0
 14 15  1  0  0  0
  4  5  1  0  0  0
  5  6  2  0  0  0
  6  1  1  0  0  0
 15 12  1  0  0  0
  9 10  1  0  0  0
M  END
> <minimizedAffinity>
-6.36967

> <CNNscore>
0.3564088941

> <CNNaffinity>
4.6489458084

> <CNN_VS>
1.6569256783

> <CNNaffinity_variance>
0.1688268483

$$$$
[H]OC(=O)c1c([H])c([H])c(OC2([H])C([H])([H])SC2([H])[H])c([H])c1[H]


 15 16  0  0  0  0  0  0  0  0999 V2000
  155.7297  141.8020  182.7135 C   0  0  0  0  0  0  0  0  0  0  0  0
  156.2030  140.7311  183.4583 C   0  0  0  0  0  0  0  0  0  0  0  0
  157.5287  140.7237  183.8776 C   0  0  0  0  0  0  0  0  0  0  0  0
  158.4020  141.7445  183.5822 C   0  0  0  0  0  0  0  0  0  0  0  0
  157.9167  142.8104  182.8365 C   0  0  0  0  0  0  0  0  0  0  0  0
  156.5906  142.8385  182.4056 C   0  0  0  0  0  0  0  0  0  0  0  0
  153.5787  142.7605  182.5957 O   0  0  0  0  0  0  0  0  0  0  0  0
  154.3326  141.8084  182.2725 C   0  0  0  0  0  0  0  0  0  0  0  0
  153.8456  140.7673  181.5014 O   0  0  0  0  0  0  0  0  0  0  0  0
  153.3177  140.0296  181.9697 H   0  0  0  0  0  0  0  0  0  0  0  0
  159.6654  141.7475  183.9762 O   0  0  0  0  0  0  0  0  0  0  0  0
  160.4458  142.1174  184.9837 C   0  0  0  0  0  0  0  0  0  0  0  0
  160.9898  143.5531  185.0119 C   0  0  0  0  0  0  0  0  0  0  0  0
  161.5696  143.1398  186.6884 S   0  0  0  0  0  0  0  0  0  0  0  0
  159.9397  142.3661  186.3633 C   0  0  0  0  0  0  0  0  0  0  0  0
  7  8  2  0  0  0
  8  9  1  0  0  0
  8  1  1  0  0  0
  1  2  2  0  0  0
  2  3  1  0  0  0
  3  4  2  0  0  0
  4 11  1  0  0  0
 11 12  1  0  0  0
 12 13  1  0  0  0
 13 14  1  0  0  0
 14 15  1  0  0  0
  4  5  1  0  0  0
  5  6  2  0  0  0
  6  1  1  0  0  0
 15 12  1  0  0  0
  9 10  1  0  0  0
M  END
> <minimizedAffinity>
-5.61649

> <CNNscore>
0.3398682475

> <CNNaffinity>
4.5294008255

> <CNN_VS>
1.5393995047

> <CNNaffinity_variance>
0.2640122771

$$$$
[H]C([H])=C([H])C(=O)N([H])C([H])([H])C([H])([H])C([H])([H])C([H])([H])[C@@]([H])(C(=O)N1C([H])([H])C([H])([H])N(c2c([H])c([H])c([H])c(C([H])([H])[H])c2[H])C([H])([H])C1([H])[H])N([H])C(=O)C([H])([H])c1c([H])c([H])c([H])c([H])c1[H]


 37 39  0  0  0  0  0  0  0  0999 V2000
  152.8562  139.9882  181.8750 C   0  0  0  0  0  0  0  0  0  0  0  0
  152.8456  138.6822  182.5527 C   0  0  0  0  0  0  0  0  0  0  0  0
  152.3411  137.6876  181.9209 O   0  0  0  0  0  0  0  0  0  0  0  0
  153.3583  138.4663  183.8470 N   0  0  0  0  0  0  0  0  0  0  0  0
  153.9637  139.5130  184.6176 C   0  0  0  0  0  0  0  0  0  0  0  0
  155.0965  138.9129  185.4439 C   0  0  0  0  0  0  0  0  0  0  0  0
  154.4984  137.9412  186.3396 N   0  0  0  0  0  0  0  0  0  0  0  0
  153.2535  137.3347  185.9756 C   0  0  0  0  0  0  0  0  0  0  0  0
  153.2959  137.1430  184.4596 C   0  0  0  0  0  0  0  0  0  0  0  0
  155.1423  137.5905  187.5542 C   0  0  0  0  0  0  0  0  0  0  0  0
  156.0425  136.5289  187.5331 C   0  0  0  0  0  0  0  0  0  0  0  0
  156.6826  136.1730  188.6929 C   0  0  0  0  0  0  0  0  0  0  0  0
  156.4623  136.8318  189.8724 C   0  0  0  0  0  0  0  0  0  0  0  0
  155.5786  137.8833  189.9206 C   0  0  0  0  0  0  0  0  0  0  0  0
  155.3142  138.6145  191.1703 C   0  0  0  0  0  0  0  0  0  0  0  0
  154.9351  138.2392  188.7475 C   0  0  0  0  0  0  0  0  0  0  0  0
  154.2515  140.4799  181.7630 N   0  0  0  0  0  0  0  0  0  0  0  0
  154.5858  141.7850  182.1669 C   0  0  0  0  0  0  0  0  0  0  0  0
  153.6865  142.5323  182.6248 O   0  0  0  0  0  0  0  0  0  0  0  0
  154.9452  139.8374  181.3857 H   0  0  0  0  0  0  0  0  0  0  0  0
  155.9719  142.2490  182.0478 C   0  0  0  0  0  0  0  0  0  0  0  0
  156.9252  141.4758  182.8456 C   0  0  0  0  0  0  0  0  0  0  0  0
  157.6300  140.4686  182.2043 C   0  0  0  0  0  0  0  0  0  0  0  0
  158.5487  139.6864  182.8781 C   0  0  0  0  0  0  0  0  0  0  0  0
  158.7967  139.8805  184.2121 C   0  0  0  0  0  0  0  0  0  0  0  0
  158.1069  140.8749  184.8637 C   0  0  0  0  0  0  0  0  0  0  0  0
  157.1824  141.6609  184.1826 C   0  0  0  0  0  0  0  0  0  0  0  0
  152.4055  139.8961  180.4226 C   0  0  0  0  0  0  0  0  0  0  0  0
  150.9762  140.2671  180.2052 C   0  0  0  0  0  0  0  0  0  0  0  0
  150.2022  139.2586  179.3700 C   0  0  0  0  0  0  0  0  0  0  0  0
  149.3596  138.3707  180.2184 C   0  0  0  0  0  0  0  0  0  0  0  0
  148.4816  138.8249  182.4988 C   0  0  0  0  0  0  0  0  0  0  0  0
  149.1739  137.8557  182.9800 O   0  0  0  0  0  0  0  0  0  0  0  0
  148.5348  139.1365  181.1261 N   0  0  0  0  0  0  0  0  0  0  0  0
  147.9706  139.9400  180.7263 H   0  0  0  0  0  0  0  0  0  0  0  0
  147.3091  139.1241  184.5930 C   0  0  0  0  0  0  0  0  0  0  0  0
  147.6580  139.5721  183.4080 C   0  0  0  0  0  0  0  0  0  0  0  0
 36 37  2  0  0  0
 37 32  1  0  0  0
 32 33  2  0  0  0
 32 34  1  0  0  0
 34 31  1  0  0  0
 31 30  1  0  0  0
 30 29  1  0  0  0
 29 28  1  0  0  0
 28  1  1  0  0  0
  1 17  1  0  0  0
 17 18  1  0  0  0
 18 19  2  0  0  0
 18 21  1  0  0  0
 21 22  1  0  0  0
 22 23  2  0  0  0
 23 24  1  0  0  0
 24 25  2  0  0  0
 25 26  1  0  0  0
 26 27  2  0  0  0
  1  2  1  0  0  0
  2  3  2  0  0  0
  2  4  1  0  0  0
  4  5  1  0  0  0
  5  6  1  0  0  0
  6  7  1  0  0  0
  7 10  1  0  0  0
 10 11  2  0  0  0
 11 12  1  0  0  0
 12 13  2  0  0  0
 13 14  1  0  0  0
 14 15  1  0  0  0
 14 16  2  0  0  0
  7  8  1  0  0  0
  8  9  1  0  0  0
 27 22  1  0  0  0
  9  4  1  0  0  0
 16 10  1  0  0  0
 34 35  1  0  0  0
 17 20  1  0  0  0
M  END
> <minimizedAffinity>
-8.42651

> <CNNscore>
0.4154482484

> <CNNaffinity>
6.2109241486

> <CNN_VS>
2.5803174973

> <CNNaffinity_variance>
0.4685075879

$$$$
[H]C([H])=C([H])C(=O)N([H])C([H])([H])C([H])([H])C([H])([H])C([H])([H])[C@@]([H])(C(=O)N1C([H])([H])C([H])([H])N(c2c([H])c([H])c([H])c(C([H])([H])[H])c2[H])C([H])([H])C1([H])[H])N([H])C(=O)C([H])([H])c1c([H])c([H])c([H])c([H])c1[H]


 37 39  0  0  0  0  0  0  0  0999 V2000
  153.4152  139.3403  182.5581 C   0  0  0  0  0  0  0  0  0  0  0  0
  152.8218  138.5309  183.6340 C   0  0  0  0  0  0  0  0  0  0  0  0
  151.7386  137.8969  183.3739 O   0  0  0  0  0  0  0  0  0  0  0  0
  153.3764  138.4131  184.9237 N   0  0  0  0  0  0  0  0  0  0  0  0
  154.5977  139.0649  185.2968 C   0  0  0  0  0  0  0  0  0  0  0  0
  155.3493  138.1642  186.2714 C   0  0  0  0  0  0  0  0  0  0  0  0
  154.5078  138.0132  187.4433 N   0  0  0  0  0  0  0  0  0  0  0  0
  153.0924  138.1820  187.3087 C   0  0  0  0  0  0  0  0  0  0  0  0
  152.7184  137.6032  185.9442 C   0  0  0  0  0  0  0  0  0  0  0  0
  155.0785  137.6940  188.7024 C   0  0  0  0  0  0  0  0  0  0  0  0
  154.9115  138.6021  189.7441 C   0  0  0  0  0  0  0  0  0  0  0  0
  155.4488  138.3149  190.9730 C   0  0  0  0  0  0  0  0  0  0  0  0
  156.1455  137.1598  191.2061 C   0  0  0  0  0  0  0  0  0  0  0  0
  156.3247  136.2465  190.1949 C   0  0  0  0  0  0  0  0  0  0  0  0
  157.0694  134.9947  190.4065 C   0  0  0  0  0  0  0  0  0  0  0  0
  155.7804  136.5404  188.9562 C   0  0  0  0  0  0  0  0  0  0  0  0
  152.3378  139.9235  181.7213 N   0  0  0  0  0  0  0  0  0  0  0  0
  152.0636  139.4052  180.4429 C   0  0  0  0  0  0  0  0  0  0  0  0
  152.7437  138.4398  180.0160 O   0  0  0  0  0  0  0  0  0  0  0  0
  151.8140  140.7049  182.1106 H   0  0  0  0  0  0  0  0  0  0  0  0
  150.9931  139.9972  179.6340 C   0  0  0  0  0  0  0  0  0  0  0  0
  149.6832  139.3773  179.8413 C   0  0  0  0  0  0  0  0  0  0  0  0
  149.1683  138.6059  178.8107 C   0  0  0  0  0  0  0  0  0  0  0  0
  147.9384  137.9845  178.9166 C   0  0  0  0  0  0  0  0  0  0  0  0
  147.1802  138.1100  180.0516 C   0  0  0  0  0  0  0  0  0  0  0  0
  147.6754  138.8711  181.0835 C   0  0  0  0  0  0  0  0  0  0  0  0
  148.9142  139.4956  180.9739 C   0  0  0  0  0  0  0  0  0  0  0  0
  154.1449  140.5690  183.0863 C   0  0  0  0  0  0  0  0  0  0  0  0
  153.8397  141.8247  182.3396 C   0  0  0  0  0  0  0  0  0  0  0  0
  154.6554  143.0237  182.7987 C   0  0  0  0  0  0  0  0  0  0  0  0
  156.0732  142.6558  183.0680 C   0  0  0  0  0  0  0  0  0  0  0  0
  157.4792  141.9300  181.1513 C   0  0  0  0  0  0  0  0  0  0  0  0
  157.2414  140.6962  181.4184 O   0  0  0  0  0  0  0  0  0  0  0  0
  156.9203  142.9578  181.9359 N   0  0  0  0  0  0  0  0  0  0  0  0
  157.1083  143.9774  181.7144 H   0  0  0  0  0  0  0  0  0  0  0  0
  159.1176  143.2686  179.9793 C   0  0  0  0  0  0  0  0  0  0  0  0
  158.3304  142.2178  180.0306 C   0  0  0  0  0  0  0  0  0  0  0  0
 36 37  2  0  0  0
 37 32  1  0  0  0
 32 33  2  0  0  0
 32 34  1  0  0  0
 34 31  1  0  0  0
 31 30  1  0  0  0
 30 29  1  0  0  0
 29 28  1  0  0  0
 28  1  1  0  0  0
  1 17  1  0  0  0
 17 18  1  0  0  0
 18 19  2  0  0  0
 18 21  1  0  0  0
 21 22  1  0  0  0
 22 23  2  0  0  0
 23 24  1  0  0  0
 24 25  2  0  0  0
 25 26  1  0  0  0
 26 27  2  0  0  0
  1  2  1  0  0  0
  2  3  2  0  0  0
  2  4  1  0  0  0
  4  5  1  0  0  0
  5  6  1  0  0  0
  6  7  1  0  0  0
  7 10  1  0  0  0
 10 11  2  0  0  0
 11 12  1  0  0  0
 12 13  2  0  0  0
 13 14  1  0  0  0
 14 15  1  0  0  0
 14 16  2  0  0  0
  7  8  1  0  0  0
  8  9  1  0  0  0
 27 22  1  0  0  0
  9  4  1  0  0  0
 16 10  1  0  0  0
 34 35  1  0  0  0
 17 20  1  0  0  0
M  END
> <minimizedAffinity>
-8.99316

> <CNNscore>
0.3822800219

> <CNNaffinity>
6.1465134621

> <CNN_VS>
2.3496892452

> <CNNaffinity_variance>
0.3509463668

$$$$
[H]C([H])=C([H])C(=O)N([H])C([H])([H])C([H])([H])C([H])([H])C([H])([H])[C@@]([H])(C(=O)N1C([H])([H])C([H])([H])N(c2c([H])c([H])c([H])c(C([H])([H])[H])c2[H])C([H])([H])C1([H])[H])N([H])C(=O)C([H])([H])c1c([H])c([H])c([H])c([H])c1[H]


 37 39  0  0  0  0  0  0  0  0999 V2000
  153.6626  139.2917  183.3610 C   0  0  0  0  0  0  0  0  0  0  0  0
  153.6334  137.9668  184.0002 C   0  0  0  0  0  0  0  0  0  0  0  0
  153.2074  136.9788  183.3036 O   0  0  0  0  0  0  0  0  0  0  0  0
  154.0478  137.7261  185.3250 N   0  0  0  0  0  0  0  0  0  0  0  0
  154.5620  138.7646  186.1694 C   0  0  0  0  0  0  0  0  0  0  0  0
  155.6415  138.1689  187.0670 C   0  0  0  0  0  0  0  0  0  0  0  0
  155.0008  137.1571  187.8856 N   0  0  0  0  0  0  0  0  0  0  0  0
  153.8053  136.5309  187.4072 C   0  0  0  0  0  0  0  0  0  0  0  0
  153.9727  136.3844  185.8947 C   0  0  0  0  0  0  0  0  0  0  0  0
  155.5558  136.7872  189.1378 C   0  0  0  0  0  0  0  0  0  0  0  0
  155.5046  137.7148  190.1744 C   0  0  0  0  0  0  0  0  0  0  0  0
  156.0294  137.3800  191.3966 C   0  0  0  0  0  0  0  0  0  0  0  0
  156.6030  136.1588  191.6279 C   0  0  0  0  0  0  0  0  0  0  0  0
  156.6665  135.2249  190.6216 C   0  0  0  0  0  0  0  0  0  0  0  0
  157.2771  133.9023  190.8315 C   0  0  0  0  0  0  0  0  0  0  0  0
  156.1352  135.5670  189.3896 C   0  0  0  0  0  0  0  0  0  0  0  0
  155.0232  139.8715  183.4781 N   0  0  0  0  0  0  0  0  0  0  0  0
  155.2040  141.2638  183.5612 C   0  0  0  0  0  0  0  0  0  0  0  0
  154.1970  142.0136  183.5349 O   0  0  0  0  0  0  0  0  0  0  0  0
  155.8081  139.2234  183.4953 H   0  0  0  0  0  0  0  0  0  0  0  0
  156.5584  141.8141  183.6774 C   0  0  0  0  0  0  0  0  0  0  0  0
  157.2704  141.9079  182.4018 C   0  0  0  0  0  0  0  0  0  0  0  0
  157.3902  143.1629  181.8247 C   0  0  0  0  0  0  0  0  0  0  0  0
  158.0436  143.3464  180.6209 C   0  0  0  0  0  0  0  0  0  0  0  0
  158.5997  142.2874  179.9514 C   0  0  0  0  0  0  0  0  0  0  0  0
  158.4905  141.0359  180.5092 C   0  0  0  0  0  0  0  0  0  0  0  0
  157.8319  140.8542  181.7216 C   0  0  0  0  0  0  0  0  0  0  0  0
  153.4476  139.2182  181.8545 C   0  0  0  0  0  0  0  0  0  0  0  0
  152.1095  139.7050  181.4072 C   0  0  0  0  0  0  0  0  0  0  0  0
  151.7643  139.3188  179.9770 C   0  0  0  0  0  0  0  0  0  0  0  0
  150.2939  139.3364  179.7404 C   0  0  0  0  0  0  0  0  0  0  0  0
  148.6582  138.9625  181.5740 C   0  0  0  0  0  0  0  0  0  0  0  0
  148.4405  137.7653  181.1625 O   0  0  0  0  0  0  0  0  0  0  0  0
  149.5776  139.7971  180.9088 N   0  0  0  0  0  0  0  0  0  0  0  0
  149.7654  140.7833  181.2495 H   0  0  0  0  0  0  0  0  0  0  0  0
  147.7127  138.6533  183.7786 C   0  0  0  0  0  0  0  0  0  0  0  0
  147.9333  139.4129  182.7294 C   0  0  0  0  0  0  0  0  0  0  0  0
 36 37  2  0  0  0
 37 32  1  0  0  0
 32 33  2  0  0  0
 32 34  1  0  0  0
 34 31  1  0  0  0
 31 30  1  0  0  0
 30 29  1  0  0  0
 29 28  1  0  0  0
 28  1  1  0  0  0
  1 17  1  0  0  0
 17 18  1  0  0  0
 18 19  2  0  0  0
 18 21  1  0  0  0
 21 22  1  0  0  0
 22 23  2  0  0  0
 23 24  1  0  0  0
 24 25  2  0  0  0
 25 26  1  0  0  0
 26 27  2  0  0  0
  1  2  1  0  0  0
  2  3  2  0  0  0
  2  4  1  0  0  0
  4  5  1  0  0  0
  5  6  1  0  0  0
  6  7  1  0  0  0
  7 10  1  0  0  0
 10 11  2  0  0  0
 11 12  1  0  0  0
 12 13  2  0  0  0
 13 14  1  0  0  0
 14 15  1  0  0  0
 14 16  2  0  0  0
  7  8  1  0  0  0
  8  9  1  0  0  0
 27 22  1  0  0  0
  9  4  1  0  0  0
 16 10  1  0  0  0
 34 35  1  0  0  0
 17 20  1  0  0  0
M  END
> <minimizedAffinity>
-7.25503

> <CNNscore>
0.3367902935

> <CNNaffinity>
6.2337837219

> <CNN_VS>
2.0994777679

> <CNNaffinity_variance>
0.0175547712

$$$$
[H]C([H])=C([H])C(=O)N([H])C([H])([H])C([H])([H])C([H])([H])C([H])([H])[C@@]([H])(C(=O)N1C([H])([H])C([H])([H])N(c2c([H])c([H])c([H])c(C([H])([H])[H])c2[H])C([H])([H])C1([H])[H])N([H])C(=O)C([H])([H])c1c([H])c([H])c([H])c([H])c1[H]


 37 39  0  0  0  0  0  0  0  0999 V2000
  154.4280  139.6049  184.1633 C   0  0  0  0  0  0  0  0  0  0  0  0
  154.1455  138.2335  184.6154 C   0  0  0  0  0  0  0  0  0  0  0  0
  154.3265  137.2809  183.7771 O   0  0  0  0  0  0  0  0  0  0  0  0
  153.6933  137.9124  185.9105 N   0  0  0  0  0  0  0  0  0  0  0  0
  153.4875  138.9085  186.9210 C   0  0  0  0  0  0  0  0  0  0  0  0
  153.8536  138.3083  188.2744 C   0  0  0  0  0  0  0  0  0  0  0  0
  152.9493  137.1974  188.5035 N   0  0  0  0  0  0  0  0  0  0  0  0
  152.3556  136.5413  187.3779 C   0  0  0  0  0  0  0  0  0  0  0  0
  153.4183  136.5271  186.2791 C   0  0  0  0  0  0  0  0  0  0  0  0
  152.6647  136.7620  189.8235 C   0  0  0  0  0  0  0  0  0  0  0  0
  153.6545  136.9167  190.7899 C   0  0  0  0  0  0  0  0  0  0  0  0
  153.4027  136.5088  192.0750 C   0  0  0  0  0  0  0  0  0  0  0  0
  152.2049  135.9531  192.4363 C   0  0  0  0  0  0  0  0  0  0  0  0
  151.2108  135.7891  191.5015 C   0  0  0  0  0  0  0  0  0  0  0  0
  149.9110  135.1940  191.8514 C   0  0  0  0  0  0  0  0  0  0  0  0
  151.4693  136.2026  190.2057 C   0  0  0  0  0  0  0  0  0  0  0  0
  155.7989  139.6712  183.5999 N   0  0  0  0  0  0  0  0  0  0  0  0
  156.9234  139.6170  184.4431 C   0  0  0  0  0  0  0  0  0  0  0  0
  156.7533  139.5116  185.6827 O   0  0  0  0  0  0  0  0  0  0  0  0
  155.8858  139.7563  182.5891 H   0  0  0  0  0  0  0  0  0  0  0  0
  158.2689  139.6833  183.8635 C   0  0  0  0  0  0  0  0  0  0  0  0
  159.1288  140.6958  184.4785 C   0  0  0  0  0  0  0  0  0  0  0  0
  160.3077  141.0195  183.8244 C   0  0  0  0  0  0  0  0  0  0  0  0
  161.1817  141.9619  184.3320 C   0  0  0  0  0  0  0  0  0  0  0  0
  160.9116  142.6138  185.5071 C   0  0  0  0  0  0  0  0  0  0  0  0
  159.7471  142.3055  186.1689 C   0  0  0  0  0  0  0  0  0  0  0  0
  158.8689  141.3559  185.6553 C   0  0  0  0  0  0  0  0  0  0  0  0
  153.5522  140.0249  182.9896 C   0  0  0  0  0  0  0  0  0  0  0  0
  154.1395  141.1112  182.1514 C   0  0  0  0  0  0  0  0  0  0  0  0
  154.0310  142.4936  182.7766 C   0  0  0  0  0  0  0  0  0  0  0  0
  155.3544  143.1732  182.8458 C   0  0  0  0  0  0  0  0  0  0  0  0
  157.6371  142.9429  181.8898 C   0  0  0  0  0  0  0  0  0  0  0  0
  158.1332  143.6247  182.8590 O   0  0  0  0  0  0  0  0  0  0  0  0
  156.2548  142.6783  181.8285 N   0  0  0  0  0  0  0  0  0  0  0  0
  155.8424  142.1100  181.0342 H   0  0  0  0  0  0  0  0  0  0  0  0
  158.1461  141.7651  179.8396 C   0  0  0  0  0  0  0  0  0  0  0  0
  158.5396  142.4653  180.8796 C   0  0  0  0  0  0  0  0  0  0  0  0
 36 37  2  0  0  0
 37 32  1  0  0  0
 32 33  2  0  0  0
 32 34  1  0  0  0
 34 31  1  0  0  0
 31 30  1  0  0  0
 30 29  1  0  0  0
 29 28  1  0  0  0
 28  1  1  0  0  0
  1 17  1  0  0  0
 17 18  1  0  0  0
 18 19  2  0  0  0
 18 21  1  0  0  0
 21 22  1  0  0  0
 22 23  2  0  0  0
 23 24  1  0  0  0
 24 25  2  0  0  0
 25 26  1  0  0  0
 26 27  2  0  0  0
  1  2  1  0  0  0
  2  3  2  0  0  0
  2  4  1  0  0  0
  4  5  1  0  0  0
  5  6  1  0  0  0
  6  7  1  0  0  0
  7 10  1  0  0  0
 10 11  2  0  0  0
 11 12  1  0  0  0
 12 13  2  0  0  0
 13 14  1  0  0  0
 14 15  1  0  0  0
 14 16  2  0  0  0
  7  8  1  0  0  0
  8  9  1  0  0  0
 27 22  1  0  0  0
  9  4  1  0  0  0
 16 10  1  0  0  0
 34 35  1  0  0  0
 17 20  1  0  0  0
M  END
> <minimizedAffinity>
-8.28705

> <CNNscore>
0.2972280383

> <CNNaffinity>
6.2460289001

> <CNN_VS>
1.8564949036

> <CNNaffinity_variance>
0.2071199864

$$$$
[H]C([H])=C([H])C(=O)N([H])C([H])([H])C([H])([H])C([H])([H])C([H])([H])[C@@]([H])(C(=O)N1C([H])([H])C([H])([H])N(c2c([H])c([H])c([H])c(C([H])([H])[H])c2[H])C([H])([H])C1([H])[H])N([H])C(=O)C([H])([H])c1c([H])c([H])c([H])c([H])c1[H]


 37 39  0  0  0  0  0  0  0  0999 V2000
  153.7045  139.9725  182.4783 C   0  0  0  0  0  0  0  0  0  0  0  0
  154.3803  141.2591  182.7082 C   0  0  0  0  0  0  0  0  0  0  0  0
  153.6733  142.3254  182.6299 O   0  0  0  0  0  0  0  0  0  0  0  0
  155.7508  141.3820  183.0103 N   0  0  0  0  0  0  0  0  0  0  0  0
  156.6129  140.2440  183.1432 C   0  0  0  0  0  0  0  0  0  0  0  0
  157.6465  140.5430  184.2240 C   0  0  0  0  0  0  0  0  0  0  0  0
  158.4205  141.6813  183.7664 N   0  0  0  0  0  0  0  0  0  0  0  0
  157.8308  142.5921  182.8322 C   0  0  0  0  0  0  0  0  0  0  0  0
  156.3529  142.6968  183.2085 C   0  0  0  0  0  0  0  0  0  0  0  0
  159.7392  141.8937  184.2448 C   0  0  0  0  0  0  0  0  0  0  0  0
  160.7990  141.4660  183.4500 C   0  0  0  0  0  0  0  0  0  0  0  0
  162.0839  141.6642  183.8870 C   0  0  0  0  0  0  0  0  0  0  0  0
  162.3558  142.2713  185.0835 C   0  0  0  0  0  0  0  0  0  0  0  0
  161.3279  142.7029  185.8872 C   0  0  0  0  0  0  0  0  0  0  0  0
  161.5804  143.3578  187.1809 C   0  0  0  0  0  0  0  0  0  0  0  0
  160.0325  142.5010  185.4419 C   0  0  0  0  0  0  0  0  0  0  0  0
  153.2516  139.4092  183.7740 N   0  0  0  0  0  0  0  0  0  0  0  0
  153.0738  138.0226  183.9294 C   0  0  0  0  0  0  0  0  0  0  0  0
  153.3033  137.2640  182.9554 O   0  0  0  0  0  0  0  0  0  0  0  0
  153.0785  140.0640  184.5340 H   0  0  0  0  0  0  0  0  0  0  0  0
  152.6263  137.4885  185.2198 C   0  0  0  0  0  0  0  0  0  0  0  0
  153.5409  137.7726  186.3269 C   0  0  0  0  0  0  0  0  0  0  0  0
  154.8855  137.4931  186.1362 C   0  0  0  0  0  0  0  0  0  0  0  0
  155.8208  137.7268  187.1263 C   0  0  0  0  0  0  0  0  0  0  0  0
  155.4493  138.2466  188.3391 C   0  0  0  0  0  0  0  0  0  0  0  0
  154.1202  138.5298  188.5454 C   0  0  0  0  0  0  0  0  0  0  0  0
  153.1806  138.2934  187.5464 C   0  0  0  0  0  0  0  0  0  0  0  0
  152.4061  140.1263  181.6964 C   0  0  0  0  0  0  0  0  0  0  0  0
  152.4552  139.5552  180.3184 C   0  0  0  0  0  0  0  0  0  0  0  0
  151.2029  139.8259  179.4985 C   0  0  0  0  0  0  0  0  0  0  0  0
  150.1455  138.8087  179.7544 C   0  0  0  0  0  0  0  0  0  0  0  0
  148.9773  138.9507  181.9436 C   0  0  0  0  0  0  0  0  0  0  0  0
  149.8074  138.1192  182.4629 O   0  0  0  0  0  0  0  0  0  0  0  0
  149.0956  139.3397  180.5948 N   0  0  0  0  0  0  0  0  0  0  0  0
  148.4169  140.0311  180.1644 H   0  0  0  0  0  0  0  0  0  0  0  0
  147.1507  138.6935  183.5079 C   0  0  0  0  0  0  0  0  0  0  0  0
  147.9324  139.4637  182.7851 C   0  0  0  0  0  0  0  0  0  0  0  0
 36 37  2  0  0  0
 37 32  1  0  0  0
 32 33  2  0  0  0
 32 34  1  0  0  0
 34 31  1  0  0  0
 31 30  1  0  0  0
 30 29  1  0  0  0
 29 28  1  0  0  0
 28  1  1  0  0  0
  1 17  1  0  0  0
 17 18  1  0  0  0
 18 19  2  0  0  0
 18 21  1  0  0  0
 21 22  1  0  0  0
 22 23  2  0  0  0
 23 24  1  0  0  0
 24 25  2  0  0  0
 25 26  1  0  0  0
 26 27  2  0  0  0
  1  2  1  0  0  0
  2  3  2  0  0  0
  2  4  1  0  0  0
  4  5  1  0  0  0
  5  6  1  0  0  0
  6  7  1  0  0  0
  7 10  1  0  0  0
 10 11  2  0  0  0
 11 12  1  0  0  0
 12 13  2  0  0  0
 13 14  1  0  0  0
 14 15  1  0  0  0
 14 16  2  0  0  0
  7  8  1  0  0  0
  8  9  1  0  0  0
 27 22  1  0  0  0
  9  4  1  0  0  0
 16 10  1  0  0  0
 34 35  1  0  0  0
 17 20  1  0  0  0
M  END
> <minimizedAffinity>
-8.89926

> <CNNscore>
0.2646484673

> <CNNaffinity>
6.4164314270

> <CNN_VS>
1.6980987787

> <CNNaffinity_variance>
0.1535902917

$$$$
[H]C([H])=C([H])C(=O)N([H])C([H])([H])C([H])([H])C([H])([H])C([H])([H])[C@@]([H])(C(=O)N1C([H])([H])C([H])([H])N(c2c([H])c([H])c([H])c(C([H])([H])[H])c2[H])C([H])([H])C1([H])[H])N([H])C(=O)C([H])([H])c1c([H])c([H])c([H])c([H])c1[H]


 37 39  0  0  0  0  0  0  0  0999 V2000
  156.0147  139.5748  184.0152 C   0  0  0  0  0  0  0  0  0  0  0  0
  154.7660  139.2385  184.7171 C   0  0  0  0  0  0  0  0  0  0  0  0
  153.6621  139.4380  184.0969 O   0  0  0  0  0  0  0  0  0  0  0  0
  154.7179  138.7104  186.0222 N   0  0  0  0  0  0  0  0  0  0  0  0
  155.9015  138.4308  186.7816 C   0  0  0  0  0  0  0  0  0  0  0  0
  155.6482  137.1924  187.6349 C   0  0  0  0  0  0  0  0  0  0  0  0
  154.5621  137.5167  188.5401 N   0  0  0  0  0  0  0  0  0  0  0  0
  153.6312  138.5397  188.1699 C   0  0  0  0  0  0  0  0  0  0  0  0
  153.4373  138.4179  186.6585 C   0  0  0  0  0  0  0  0  0  0  0  0
  154.4193  136.8239  189.7699 C   0  0  0  0  0  0  0  0  0  0  0  0
  155.2609  135.7417  190.0113 C   0  0  0  0  0  0  0  0  0  0  0  0
  155.1470  135.0582  191.1950 C   0  0  0  0  0  0  0  0  0  0  0  0
  154.2289  135.4091  192.1478 C   0  0  0  0  0  0  0  0  0  0  0  0
  153.3860  136.4735  191.9345 C   0  0  0  0  0  0  0  0  0  0  0  0
  152.3849  136.8795  192.9341 C   0  0  0  0  0  0  0  0  0  0  0  0
  153.5047  137.1607  190.7384 C   0  0  0  0  0  0  0  0  0  0  0  0
  156.1156  141.0464  183.8556 N   0  0  0  0  0  0  0  0  0  0  0  0
  155.7328  141.6644  182.6516 C   0  0  0  0  0  0  0  0  0  0  0  0
  155.3032  140.9538  181.7095 O   0  0  0  0  0  0  0  0  0  0  0  0
  156.4697  141.5797  184.6472 H   0  0  0  0  0  0  0  0  0  0  0  0
  155.8404  143.1208  182.5171 C   0  0  0  0  0  0  0  0  0  0  0  0
  157.0903  143.5672  181.8995 C   0  0  0  0  0  0  0  0  0  0  0  0
  157.5684  142.8395  180.8205 C   0  0  0  0  0  0  0  0  0  0  0  0
  158.7411  143.1858  180.1767 C   0  0  0  0  0  0  0  0  0  0  0  0
  159.4770  144.2678  180.5850 C   0  0  0  0  0  0  0  0  0  0  0  0
  159.0177  145.0007  181.6532 C   0  0  0  0  0  0  0  0  0  0  0  0
  157.8364  144.6495  182.2996 C   0  0  0  0  0  0  0  0  0  0  0  0
  157.2543  139.2307  184.8313 C   0  0  0  0  0  0  0  0  0  0  0  0
  158.3540  140.2334  184.7182 C   0  0  0  0  0  0  0  0  0  0  0  0
  159.1654  140.1103  183.4375 C   0  0  0  0  0  0  0  0  0  0  0  0
  160.0624  141.2823  183.2379 C   0  0  0  0  0  0  0  0  0  0  0  0
  161.5488  142.2478  184.9802 C   0  0  0  0  0  0  0  0  0  0  0  0
  162.5886  141.8246  184.3559 O   0  0  0  0  0  0  0  0  0  0  0  0
  160.2568  142.0132  184.4702 N   0  0  0  0  0  0  0  0  0  0  0  0
  159.3965  142.3669  184.9788 H   0  0  0  0  0  0  0  0  0  0  0  0
  162.7563  142.7196  187.0221 C   0  0  0  0  0  0  0  0  0  0  0  0
  161.7536  142.9636  186.2087 C   0  0  0  0  0  0  0  0  0  0  0  0
 36 37  2  0  0  0
 37 32  1  0  0  0
 32 33  2  0  0  0
 32 34  1  0  0  0
 34 31  1  0  0  0
 31 30  1  0  0  0
 30 29  1  0  0  0
 29 28  1  0  0  0
 28  1  1  0  0  0
  1 17  1  0  0  0
 17 18  1  0  0  0
 18 19  2  0  0  0
 18 21  1  0  0  0
 21 22  1  0  0  0
 22 23  2  0  0  0
 23 24  1  0  0  0
 24 25  2  0  0  0
 25 26  1  0  0  0
 26 27  2  0  0  0
  1  2  1  0  0  0
  2  3  2  0  0  0
  2  4  1  0  0  0
  4  5  1  0  0  0
  5  6  1  0  0  0
  6  7  1  0  0  0
  7 10  1  0  0  0
 10 11  2  0  0  0
 11 12  1  0  0  0
 12 13  2  0  0  0
 13 14  1  0  0  0
 14 15  1  0  0  0
 14 16  2  0  0  0
  7  8  1  0  0  0
  8  9  1  0  0  0
 27 22  1  0  0  0
  9  4  1  0  0  0
 16 10  1  0  0  0
 34 35  1  0  0  0
 17 20  1  0  0  0
M  END
> <minimizedAffinity>
-9.31753

> <CNNscore>
0.2547934949

> <CNNaffinity>
6.5364074707

> <CNN_VS>
1.6654341221

> <CNNaffinity_variance>
0.1532023251

$$$$
[H]C([H])=C([H])C(=O)N([H])C([H])([H])C([H])([H])C([H])([H])C([H])([H])[C@@]([H])(C(=O)N1C([H])([H])C([H])([H])N(c2c([H])c([H])c([H])c(C([H])([H])[H])c2[H])C([H])([H])C1([H])[H])N([H])C(=O)C([H])([H])c1c([H])c([H])c([H])c([H])c1[H]


 37 39  0  0  0  0  0  0  0  0999 V2000
  154.0741  139.9350  182.7430 C   0  0  0  0  0  0  0  0  0  0  0  0
  154.8121  141.2076  182.7181 C   0  0  0  0  0  0  0  0  0  0  0  0
  154.1766  142.2574  182.3480 O   0  0  0  0  0  0  0  0  0  0  0  0
  156.1680  141.3350  183.0789 N   0  0  0  0  0  0  0  0  0  0  0  0
  156.9506  140.2212  183.5293 C   0  0  0  0  0  0  0  0  0  0  0  0
  157.9366  140.7163  184.5822 C   0  0  0  0  0  0  0  0  0  0  0  0
  158.8031  141.6803  183.9308 N   0  0  0  0  0  0  0  0  0  0  0  0
  158.3242  142.3743  182.7737 C   0  0  0  0  0  0  0  0  0  0  0  0
  156.8361  142.6310  183.0117 C   0  0  0  0  0  0  0  0  0  0  0  0
  160.1026  141.9380  184.4386 C   0  0  0  0  0  0  0  0  0  0  0  0
  161.1940  141.5611  183.6611 C   0  0  0  0  0  0  0  0  0  0  0  0
  162.4611  141.8039  184.1267 C   0  0  0  0  0  0  0  0  0  0  0  0
  162.6849  142.4068  185.3352 C   0  0  0  0  0  0  0  0  0  0  0  0
  161.6250  142.7887  186.1222 C   0  0  0  0  0  0  0  0  0  0  0  0
  161.8256  143.4375  187.4280 C   0  0  0  0  0  0  0  0  0  0  0  0
  160.3477  142.5419  185.6481 C   0  0  0  0  0  0  0  0  0  0  0  0
  153.5315  139.7004  184.1038 N   0  0  0  0  0  0  0  0  0  0  0  0
  153.6653  138.4439  184.7216 C   0  0  0  0  0  0  0  0  0  0  0  0
  154.2511  137.5194  184.1060 O   0  0  0  0  0  0  0  0  0  0  0  0
  153.0649  140.4804  184.5624 H   0  0  0  0  0  0  0  0  0  0  0  0
  153.1218  138.2355  186.0677 C   0  0  0  0  0  0  0  0  0  0  0  0
  154.1429  138.1733  187.1148 C   0  0  0  0  0  0  0  0  0  0  0  0
  153.7615  138.5130  188.4038 C   0  0  0  0  0  0  0  0  0  0  0  0
  154.6583  138.4855  189.4549 C   0  0  0  0  0  0  0  0  0  0  0  0
  155.9644  138.1189  189.2584 C   0  0  0  0  0  0  0  0  0  0  0  0
  156.3599  137.7787  187.9867 C   0  0  0  0  0  0  0  0  0  0  0  0
  155.4545  137.8074  186.9303 C   0  0  0  0  0  0  0  0  0  0  0  0
  152.8232  139.9682  181.8740 C   0  0  0  0  0  0  0  0  0  0  0  0
  152.4498  138.6440  181.2956 C   0  0  0  0  0  0  0  0  0  0  0  0
  151.2432  138.0024  181.9635 C   0  0  0  0  0  0  0  0  0  0  0  0
  149.9911  138.7592  181.6848 C   0  0  0  0  0  0  0  0  0  0  0  0
  148.9471  138.1444  179.5146 C   0  0  0  0  0  0  0  0  0  0  0  0
  149.6764  139.0034  178.8978 O   0  0  0  0  0  0  0  0  0  0  0  0
  149.0606  137.9709  180.9080 N   0  0  0  0  0  0  0  0  0  0  0  0
  148.4657  137.2581  181.4197 H   0  0  0  0  0  0  0  0  0  0  0  0
  147.2360  137.9048  177.8221 C   0  0  0  0  0  0  0  0  0  0  0  0
  148.0191  137.3743  178.7342 C   0  0  0  0  0  0  0  0  0  0  0  0
 36 37  2  0  0  0
 37 32  1  0  0  0
 32 33  2  0  0  0
 32 34  1  0  0  0
 34 31  1  0  0  0
 31 30  1  0  0  0
 30 29  1  0  0  0
 29 28  1  0  0  0
 28  1  1  0  0  0
  1 17  1  0  0  0
 17 18  1  0  0  0
 18 19  2  0  0  0
 18 21  1  0  0  0
 21 22  1  0  0  0
 22 23  2  0  0  0
 23 24  1  0  0  0
 24 25  2  0  0  0
 25 26  1  0  0  0
 26 27  2  0  0  0
  1  2  1  0  0  0
  2  3  2  0  0  0
  2  4  1  0  0  0
  4  5  1  0  0  0
  5  6  1  0  0  0
  6  7  1  0  0  0
  7 10  1  0  0  0
 10 11  2  0  0  0
 11 12  1  0  0  0
 12 13  2  0  0  0
 13 14  1  0  0  0
 14 15  1  0  0  0
 14 16  2  0  0  0
  7  8  1  0  0  0
  8  9  1  0  0  0
 27 22  1  0  0  0
  9  4  1  0  0  0
 16 10  1  0  0  0
 34 35  1  0  0  0
 17 20  1  0  0  0
M  END
> <minimizedAffinity>
-8.87027

> <CNNscore>
0.2468534112

> <CNNaffinity>
6.2493810654

> <CNN_VS>
1.5426809788

> <CNNaffinity_variance>
0.0997376144

$$$$
[H]C([H])=C([H])C(=O)N([H])C([H])([H])C([H])([H])C([H])([H])C([H])([H])[C@@]([H])(C(=O)N1C([H])([H])C([H])([H])N(c2c([H])c([H])c([H])c(C([H])([H])[H])c2[H])C([H])([H])C1([H])[H])N([H])C(=O)C([H])([H])c1c([H])c([H])c([H])c([H])c1[H]


 37 39  0  0  0  0  0  0  0  0999 V2000
  155.0402  139.5102  184.5497 C   0  0  0  0  0  0  0  0  0  0  0  0
  154.6329  138.1426  184.9087 C   0  0  0  0  0  0  0  0  0  0  0  0
  154.5646  137.2753  183.9674 O   0  0  0  0  0  0  0  0  0  0  0  0
  154.3193  137.7368  186.2208 N   0  0  0  0  0  0  0  0  0  0  0  0
  154.3927  138.6308  187.3393 C   0  0  0  0  0  0  0  0  0  0  0  0
  154.8509  137.8414  188.5611 C   0  0  0  0  0  0  0  0  0  0  0  0
  153.8398  136.8332  188.8173 N   0  0  0  0  0  0  0  0  0  0  0  0
  153.0140  136.3869  187.7362 C   0  0  0  0  0  0  0  0  0  0  0  0
  153.9061  136.3640  186.4951 C   0  0  0  0  0  0  0  0  0  0  0  0
  153.6780  136.2910  190.1184 C   0  0  0  0  0  0  0  0  0  0  0  0
  154.3119  135.0858  190.4071 C   0  0  0  0  0  0  0  0  0  0  0  0
  154.1759  134.5429  191.6593 C   0  0  0  0  0  0  0  0  0  0  0  0
  153.4341  135.1519  192.6354 C   0  0  0  0  0  0  0  0  0  0  0  0
  152.7980  136.3424  192.3765 C   0  0  0  0  0  0  0  0  0  0  0  0
  151.9902  137.0260  193.3994 C   0  0  0  0  0  0  0  0  0  0  0  0
  152.9383  136.8869  191.1113 C   0  0  0  0  0  0  0  0  0  0  0  0
  156.0849  139.4588  183.4975 N   0  0  0  0  0  0  0  0  0  0  0  0
  157.4365  139.6788  183.8184 C   0  0  0  0  0  0  0  0  0  0  0  0
  157.7502  139.9202  185.0101 O   0  0  0  0  0  0  0  0  0  0  0  0
  155.7816  139.2596  182.5463 H   0  0  0  0  0  0  0  0  0  0  0  0
  158.4519  139.6220  182.7617 C   0  0  0  0  0  0  0  0  0  0  0  0
  158.5266  140.8361  181.9473 C   0  0  0  0  0  0  0  0  0  0  0  0
  158.7575  142.0356  182.6034 C   0  0  0  0  0  0  0  0  0  0  0  0
  158.8413  143.2317  181.9164 C   0  0  0  0  0  0  0  0  0  0  0  0
  158.6983  143.2742  180.5538 C   0  0  0  0  0  0  0  0  0  0  0  0
  158.4691  142.0943  179.8871 C   0  0  0  0  0  0  0  0  0  0  0  0
  158.3852  140.8913  180.5816 C   0  0  0  0  0  0  0  0  0  0  0  0
  153.9188  140.2978  183.8841 C   0  0  0  0  0  0  0  0  0  0  0  0
  154.2906  140.8873  182.5643 C   0  0  0  0  0  0  0  0  0  0  0  0
  153.2221  140.7175  181.4951 C   0  0  0  0  0  0  0  0  0  0  0  0
  152.5196  139.4103  181.6199 C   0  0  0  0  0  0  0  0  0  0  0  0
  150.2687  139.0847  180.6175 C   0  0  0  0  0  0  0  0  0  0  0  0
  149.7125  139.2495  181.7637 O   0  0  0  0  0  0  0  0  0  0  0  0
  151.6686  139.1581  180.4785 N   0  0  0  0  0  0  0  0  0  0  0  0
  152.1309  139.0298  179.5332 H   0  0  0  0  0  0  0  0  0  0  0  0
  148.8599  137.6544  179.2686 C   0  0  0  0  0  0  0  0  0  0  0  0
  149.4141  138.8245  179.4926 C   0  0  0  0  0  0  0  0  0  0  0  0
 36 37  2  0  0  0
 37 32  1  0  0  0
 32 33  2  0  0  0
 32 34  1  0  0  0
 34 31  1  0  0  0
 31 30  1  0  0  0
 30 29  1  0  0  0
 29 28  1  0  0  0
 28  1  1  0  0  0
  1 17  1  0  0  0
 17 18  1  0  0  0
 18 19  2  0  0  0
 18 21  1  0  0  0
 21 22  1  0  0  0
 22 23  2  0  0  0
 23 24  1  0  0  0
 24 25  2  0  0  0
 25 26  1  0  0  0
 26 27  2  0  0  0
  1  2  1  0  0  0
  2  3  2  0  0  0
  2  4  1  0  0  0
  4  5  1  0  0  0
  5  6  1  0  0  0
  6  7  1  0  0  0
  7 10  1  0  0  0
 10 11  2  0  0  0
 11 12  1  0  0  0
 12 13  2  0  0  0
 13 14  1  0  0  0
 14 15  1  0  0  0
 14 16  2  0  0  0
  7  8  1  0  0  0
  8  9  1  0  0  0
 27 22  1  0  0  0
  9  4  1  0  0  0
 16 10  1  0  0  0
 34 35  1  0  0  0
 17 20  1  0  0  0
M  END
> <minimizedAffinity>
-7.65053

> <CNNscore>
0.2410826087

> <CNNaffinity>
5.9349489212

> <CNN_VS>
1.4308129549

> <CNNaffinity_variance>
0.0214120951

$$$$
[H]C([H])=C([H])C(=O)N([H])C([H])([H])C([H])([H])C([H])([H])C([H])([H])[C@@]([H])(C(=O)N1C([H])([H])C([H])([H])N(c2c([H])c([H])c([H])c(C([H])([H])[H])c2[H])C([H])([H])C1([H])[H])N([H])C(=O)C([H])([H])c1c([H])c([H])c([H])c([H])c1[H]


 37 39  0  0  0  0  0  0  0  0999 V2000
  153.1164  138.9262  183.1562 C   0  0  0  0  0  0  0  0  0  0  0  0
  153.3651  137.6337  183.8138 C   0  0  0  0  0  0  0  0  0  0  0  0
  153.5972  136.6196  183.0650 O   0  0  0  0  0  0  0  0  0  0  0  0
  153.3651  137.4518  185.2108 N   0  0  0  0  0  0  0  0  0  0  0  0
  153.1409  138.5326  186.1258 C   0  0  0  0  0  0  0  0  0  0  0  0
  153.9922  138.2989  187.3695 C   0  0  0  0  0  0  0  0  0  0  0  0
  153.5352  137.0593  187.9686 N   0  0  0  0  0  0  0  0  0  0  0  0
  152.8937  136.0827  187.1411 C   0  0  0  0  0  0  0  0  0  0  0  0
  153.6038  136.1327  185.7882 C   0  0  0  0  0  0  0  0  0  0  0  0
  153.7292  136.8148  189.3526 C   0  0  0  0  0  0  0  0  0  0  0  0
  152.6012  136.7033  190.1605 C   0  0  0  0  0  0  0  0  0  0  0  0
  152.7612  136.4617  191.5011 C   0  0  0  0  0  0  0  0  0  0  0  0
  153.9992  136.3266  192.0694 C   0  0  0  0  0  0  0  0  0  0  0  0
  155.1292  136.4322  191.2942 C   0  0  0  0  0  0  0  0  0  0  0  0
  156.4770  136.2949  191.8692 C   0  0  0  0  0  0  0  0  0  0  0  0
  154.9629  136.6759  189.9415 C   0  0  0  0  0  0  0  0  0  0  0  0
  154.4058  139.5264  182.7337 N   0  0  0  0  0  0  0  0  0  0  0  0
  154.5287  140.9179  182.5697 C   0  0  0  0  0  0  0  0  0  0  0  0
  153.5311  141.6493  182.7856 O   0  0  0  0  0  0  0  0  0  0  0  0
  155.1858  138.8928  182.5707 H   0  0  0  0  0  0  0  0  0  0  0  0
  155.8135  141.4888  182.1523 C   0  0  0  0  0  0  0  0  0  0  0  0
  156.9469  141.0575  182.9723 C   0  0  0  0  0  0  0  0  0  0  0  0
  157.9136  140.2693  182.3668 C   0  0  0  0  0  0  0  0  0  0  0  0
  159.0168  139.8141  183.0637 C   0  0  0  0  0  0  0  0  0  0  0  0
  159.1949  140.1283  184.3860 C   0  0  0  0  0  0  0  0  0  0  0  0
  158.2462  140.9091  185.0022 C   0  0  0  0  0  0  0  0  0  0  0  0
  157.1363  141.3659  184.2979 C   0  0  0  0  0  0  0  0  0  0  0  0
  152.3587  138.7772  181.8430 C   0  0  0  0  0  0  0  0  0  0  0  0
  150.9137  138.4431  182.0097 C   0  0  0  0  0  0  0  0  0  0  0  0
  149.9842  139.3126  181.1767 C   0  0  0  0  0  0  0  0  0  0  0  0
  149.9503  138.8773  179.7528 C   0  0  0  0  0  0  0  0  0  0  0  0
  148.0598  137.3515  179.2279 C   0  0  0  0  0  0  0  0  0  0  0  0
  147.2982  138.3526  178.9673 O   0  0  0  0  0  0  0  0  0  0  0  0
  149.3982  137.5475  179.6212 N   0  0  0  0  0  0  0  0  0  0  0  0
  150.0321  136.7238  179.8303 H   0  0  0  0  0  0  0  0  0  0  0  0
  146.8343  135.6363  178.0421 C   0  0  0  0  0  0  0  0  0  0  0  0
  147.4977  136.0355  179.1038 C   0  0  0  0  0  0  0  0  0  0  0  0
 36 37  2  0  0  0
 37 32  1  0  0  0
 32 33  2  0  0  0
 32 34  1  0  0  0
 34 31  1  0  0  0
 31 30  1  0  0  0
 30 29  1  0  0  0
 29 28  1  0  0  0
 28  1  1  0  0  0
  1 17  1  0  0  0
 17 18  1  0  0  0
 18 19  2  0  0  0
 18 21  1  0  0  0
 21 22  1  0  0  0
 22 23  2  0  0  0
 23 24  1  0  0  0
 24 25  2  0  0  0
 25 26  1  0  0  0
 26 27  2  0  0  0
  1  2  1  0  0  0
  2  3  2  0  0  0
  2  4  1  0  0  0
  4  5  1  0  0  0
  5  6  1  0  0  0
  6  7  1  0  0  0
  7 10  1  0  0  0
 10 11  2  0  0  0
 11 12  1  0  0  0
 12 13  2  0  0  0
 13 14  1  0  0  0
 14 15  1  0  0  0
 14 16  2  0  0  0
  7  8  1  0  0  0
  8  9  1  0  0  0
 27 22  1  0  0  0
  9  4  1  0  0  0
 16 10  1  0  0  0
 34 35  1  0  0  0
 17 20  1  0  0  0
M  END
> <minimizedAffinity>
-6.75925

> <CNNscore>
0.2403780669

> <CNNaffinity>
5.7293992043

> <CNN_VS>
1.3772219419

> <CNNaffinity_variance>
0.1267081946

$$$$
[H]c1nc([H])c(N([H])c2c([H])c(-c3c([H])c([H])c4c([H])c(C#N)c([H])nn34)nc([H])c2C(=O)N([H])[C@]2([H])C([H])([H])C([H])([H])[C@@]([H])(N([H])C(=O)C3([H])C([H])([H])C3([H])[H])C([H])([H])C2([H])[H])c([H])c1[H]


 42 47  0  0  0  0  0  0  0  0999 V2000
  155.0387  139.9049  183.8221 C   0  0  0  0  0  0  0  0  0  0  0  0
  154.1145  139.3186  183.0100 C   0  0  0  0  0  0  0  0  0  0  0  0
  153.1717  138.3640  183.3813 C   0  0  0  0  0  0  0  0  0  0  0  0
  153.1865  137.9793  184.7259 C   0  0  0  0  0  0  0  0  0  0  0  0
  154.1341  138.5730  185.5726 C   0  0  0  0  0  0  0  0  0  0  0  0
  155.0025  139.4837  185.1252 N   0  0  0  0  0  0  0  0  0  0  0  0
  160.0167  141.4244  183.9056 C   0  0  0  0  0  0  0  0  0  0  0  0
  159.4353  140.2991  184.4295 C   0  0  0  0  0  0  0  0  0  0  0  0
  158.1212  140.1254  184.2756 N   0  0  0  0  0  0  0  0  0  0  0  0
  157.3320  140.9780  183.6422 N   0  0  0  0  0  0  0  0  0  0  0  0
  156.0226  140.9067  183.4342 C   0  0  0  0  0  0  0  0  0  0  0  0
  155.6899  142.0640  182.7178 C   0  0  0  0  0  0  0  0  0  0  0  0
  156.8325  142.7982  182.5199 C   0  0  0  0  0  0  0  0  0  0  0  0
  157.8734  142.0888  183.1176 C   0  0  0  0  0  0  0  0  0  0  0  0
  159.2213  142.3312  183.2395 C   0  0  0  0  0  0  0  0  0  0  0  0
  162.5640  141.7907  184.1923 N   0  0  0  0  0  0  0  0  0  0  0  0
  161.4236  141.6262  184.0679 C   0  0  0  0  0  0  0  0  0  0  0  0
  152.2094  137.0744  185.2719 C   0  0  0  0  0  0  0  0  0  0  0  0
  151.0480  137.0044  184.7383 O   0  0  0  0  0  0  0  0  0  0  0  0
  152.4484  136.2381  186.3785 N   0  0  0  0  0  0  0  0  0  0  0  0
  153.3757  136.2505  186.8403 H   0  0  0  0  0  0  0  0  0  0  0  0
  151.3730  135.3717  186.8366 C   0  0  0  0  0  0  0  0  0  0  0  0
  152.0470  134.1180  187.4029 C   0  0  0  0  0  0  0  0  0  0  0  0
  150.9887  133.2617  188.0888 C   0  0  0  0  0  0  0  0  0  0  0  0
  150.6528  134.0037  189.3910 C   0  0  0  0  0  0  0  0  0  0  0  0
  150.8581  135.4716  189.2469 C   0  0  0  0  0  0  0  0  0  0  0  0
  150.4621  135.9625  187.8443 C   0  0  0  0  0  0  0  0  0  0  0  0
  149.2570  133.7157  189.6869 N   0  0  0  0  0  0  0  0  0  0  0  0
  148.8509  133.5436  191.0264 C   0  0  0  0  0  0  0  0  0  0  0  0
  149.7055  133.6340  191.9677 O   0  0  0  0  0  0  0  0  0  0  0  0
  148.5609  133.6396  188.9261 H   0  0  0  0  0  0  0  0  0  0  0  0
  147.4430  133.2582  191.3568 C   0  0  0  0  0  0  0  0  0  0  0  0
  147.0903  132.6565  192.6440 C   0  0  0  0  0  0  0  0  0  0  0  0
  147.1747  131.7437  191.4650 C   0  0  0  0  0  0  0  0  0  0  0  0
  152.3708  137.7599  182.4112 N   0  0  0  0  0  0  0  0  0  0  0  0
  152.3631  136.7238  182.2930 H   0  0  0  0  0  0  0  0  0  0  0  0
  151.5693  138.4710  181.4950 C   0  0  0  0  0  0  0  0  0  0  0  0
  152.0283  138.9849  180.2750 C   0  0  0  0  0  0  0  0  0  0  0  0
  151.2011  139.6711  179.4239 C   0  0  0  0  0  0  0  0  0  0  0  0
  149.8858  139.8610  179.7761 C   0  0  0  0  0  0  0  0  0  0  0  0
  149.4125  139.3824  180.9392 N   0  0  0  0  0  0  0  0  0  0  0  0
  150.2205  138.7150  181.7636 C   0  0  0  0  0  0  0  0  0  0  0  0
 16 17  3  0  0  0
 17  7  1  0  0  0
  7  8  1  0  0  0
  8  9  2  0  0  0
  9 10  1  0  0  0
 10 11  1  0  0  0
 11  1  1  0  0  0
  1  2  2  0  0  0
  2  3  1  0  0  0
  3 35  1  0  0  0
 35 37  1  0  0  0
 37 38  2  0  0  0
 38 39  1  0  0  0
 39 40  2  0  0  0
 40 41  1  0  0  0
 41 42  2  0  0  0
  3  4  2  0  0  0
  4 18  1  0  0  0
 18 19  2  0  0  0
 18 20  1  0  0  0
 20 22  1  0  0  0
 22 23  1  0  0  0
 23 24  1  0  0  0
 24 25  1  0  0  0
 25 28  1  0  0  0
 28 29  1  0  0  0
 29 30  2  0  0  0
 29 32  1  0  0  0
 32 33  1  0  0  0
 33 34  1  0  0  0
 25 26  1  0  0  0
 26 27  1  0  0  0
  4  5  1  0  0  0
  5  6  2  0  0  0
 11 12  2  0  0  0
 12 13  1  0  0  0
 13 14  2  0  0  0
 14 15  1  0  0  0
 15  7  2  0  0  0
 14 10  1  0  0  0
  6  1  1  0  0  0
 42 37  1  0  0  0
 27 22  1  0  0  0
 34 32  1  0  0  0
 35 36  1  0  0  0
 20 21  1  0  0  0
 28 31  1  0  0  0
M  END
> <minimizedAffinity>
-7.08667

> <CNNscore>
0.3534033298

> <CNNaffinity>
6.4536752701

> <CNN_VS>
2.2807502747

> <CNNaffinity_variance>
0.0426756889

$$$$
[H]c1nc([H])c(N([H])c2c([H])c(-c3c([H])c([H])c4c([H])c(C#N)c([H])nn34)nc([H])c2C(=O)N([H])[C@]2([H])C([H])([H])C([H])([H])[C@@]([H])(N([H])C(=O)C3([H])C([H])([H])C3([H])[H])C([H])([H])C2([H])[H])c([H])c1[H]


 42 47  0  0  0  0  0  0  0  0999 V2000
  152.3826  139.1996  182.0107 C   0  0  0  0  0  0  0  0  0  0  0  0
  153.2615  140.1366  182.4657 C   0  0  0  0  0  0  0  0  0  0  0  0
  154.0914  140.0237  183.5776 C   0  0  0  0  0  0  0  0  0  0  0  0
  154.0034  138.8221  184.2879 C   0  0  0  0  0  0  0  0  0  0  0  0
  153.1012  137.8496  183.8320 C   0  0  0  0  0  0  0  0  0  0  0  0
  152.3427  138.0475  182.7508 N   0  0  0  0  0  0  0  0  0  0  0  0
  148.3298  137.3036  179.3504 C   0  0  0  0  0  0  0  0  0  0  0  0
  148.8844  136.8721  180.5273 C   0  0  0  0  0  0  0  0  0  0  0  0
  149.9330  137.5327  181.0221 N   0  0  0  0  0  0  0  0  0  0  0  0
  150.4797  138.5905  180.4449 N   0  0  0  0  0  0  0  0  0  0  0  0
  151.5171  139.3164  180.8447 C   0  0  0  0  0  0  0  0  0  0  0  0
  151.6791  140.3121  179.8723 C   0  0  0  0  0  0  0  0  0  0  0  0
  150.7157  140.1425  178.9095 C   0  0  0  0  0  0  0  0  0  0  0  0
  149.9573  139.0368  179.2917 C   0  0  0  0  0  0  0  0  0  0  0  0
  148.8763  138.4033  178.7255 C   0  0  0  0  0  0  0  0  0  0  0  0
  146.2975  136.0391  178.3625 N   0  0  0  0  0  0  0  0  0  0  0  0
  147.2088  136.6016  178.8056 C   0  0  0  0  0  0  0  0  0  0  0  0
  154.8683  138.5276  185.4001 C   0  0  0  0  0  0  0  0  0  0  0  0
  156.0869  138.9179  185.3712 O   0  0  0  0  0  0  0  0  0  0  0  0
  154.4565  137.8244  186.5477 N   0  0  0  0  0  0  0  0  0  0  0  0
  153.4771  137.4950  186.6240 H   0  0  0  0  0  0  0  0  0  0  0  0
  155.4315  137.5869  187.6012 C   0  0  0  0  0  0  0  0  0  0  0  0
  154.7481  137.9854  188.9130 C   0  0  0  0  0  0  0  0  0  0  0  0
  155.6396  137.5653  190.0759 C   0  0  0  0  0  0  0  0  0  0  0  0
  155.5080  136.0369  190.1521 C   0  0  0  0  0  0  0  0  0  0  0  0
  155.2108  135.4511  188.8155 C   0  0  0  0  0  0  0  0  0  0  0  0
  155.9476  136.2014  187.6933 C   0  0  0  0  0  0  0  0  0  0  0  0
  156.7786  135.5333  190.6529 N   0  0  0  0  0  0  0  0  0  0  0  0
  156.9725  134.1427  190.7849 C   0  0  0  0  0  0  0  0  0  0  0  0
  156.0359  133.3365  190.4729 O   0  0  0  0  0  0  0  0  0  0  0  0
  157.5403  136.1841  190.9090 H   0  0  0  0  0  0  0  0  0  0  0  0
  158.2509  133.6035  191.2825 C   0  0  0  0  0  0  0  0  0  0  0  0
  158.7219  132.2882  190.8449 C   0  0  0  0  0  0  0  0  0  0  0  0
  158.0423  132.3620  192.1727 C   0  0  0  0  0  0  0  0  0  0  0  0
  154.8497  141.1177  183.9965 N   0  0  0  0  0  0  0  0  0  0  0  0
  154.7899  141.4662  184.9775 H   0  0  0  0  0  0  0  0  0  0  0  0
  155.6943  141.8633  183.1488 C   0  0  0  0  0  0  0  0  0  0  0  0
  155.5851  143.2443  182.9391 C   0  0  0  0  0  0  0  0  0  0  0  0
  156.4358  143.9164  182.0999 C   0  0  0  0  0  0  0  0  0  0  0  0
  157.4225  143.2174  181.4459 C   0  0  0  0  0  0  0  0  0  0  0  0
  157.5551  141.8920  181.6232 N   0  0  0  0  0  0  0  0  0  0  0  0
  156.7260  141.2426  182.4409 C   0  0  0  0  0  0  0  0  0  0  0  0
 16 17  3  0  0  0
 17  7  1  0  0  0
  7  8  1  0  0  0
  8  9  2  0  0  0
  9 10  1  0  0  0
 10 11  1  0  0  0
 11  1  1  0  0  0
  1  2  2  0  0  0
  2  3  1  0  0  0
  3 35  1  0  0  0
 35 37  1  0  0  0
 37 38  2  0  0  0
 38 39  1  0  0  0
 39 40  2  0  0  0
 40 41  1  0  0  0
 41 42  2  0  0  0
  3  4  2  0  0  0
  4 18  1  0  0  0
 18 19  2  0  0  0
 18 20  1  0  0  0
 20 22  1  0  0  0
 22 23  1  0  0  0
 23 24  1  0  0  0
 24 25  1  0  0  0
 25 28  1  0  0  0
 28 29  1  0  0  0
 29 30  2  0  0  0
 29 32  1  0  0  0
 32 33  1  0  0  0
 33 34  1  0  0  0
 25 26  1  0  0  0
 26 27  1  0  0  0
  4  5  1  0  0  0
  5  6  2  0  0  0
 11 12  2  0  0  0
 12 13  1  0  0  0
 13 14  2  0  0  0
 14 15  1  0  0  0
 15  7  2  0  0  0
 14 10  1  0  0  0
  6  1  1  0  0  0
 42 37  1  0  0  0
 27 22  1  0  0  0
 34 32  1  0  0  0
 35 36  1  0  0  0
 20 21  1  0  0  0
 28 31  1  0  0  0
M  END
> <minimizedAffinity>
-8.56884

> <CNNscore>
0.3218761981

> <CNNaffinity>
6.4271306992

> <CNN_VS>
2.0687403679

> <CNNaffinity_variance>
0.0328281298

$$$$
[H]c1nc([H])c(N([H])c2c([H])c(-c3c([H])c([H])c4c([H])c(C#N)c([H])nn34)nc([H])c2C(=O)N([H])[C@]2([H])C([H])([H])C([H])([H])[C@@]([H])(N([H])C(=O)C3([H])C([H])([H])C3([H])[H])C([H])([H])C2([H])[H])c([H])c1[H]


 42 47  0  0  0  0  0  0  0  0999 V2000
  154.2301  139.1823  184.5306 C   0  0  0  0  0  0  0  0  0  0  0  0
  154.1508  139.0700  185.8865 C   0  0  0  0  0  0  0  0  0  0  0  0
  153.3058  138.2246  186.6001 C   0  0  0  0  0  0  0  0  0  0  0  0
  152.4604  137.4150  185.8346 C   0  0  0  0  0  0  0  0  0  0  0  0
  152.5298  137.5220  184.4377 C   0  0  0  0  0  0  0  0  0  0  0  0
  153.3753  138.3649  183.8393 N   0  0  0  0  0  0  0  0  0  0  0  0
  159.0493  141.0475  183.9043 C   0  0  0  0  0  0  0  0  0  0  0  0
  158.5748  140.1316  184.8070 C   0  0  0  0  0  0  0  0  0  0  0  0
  157.2814  139.8053  184.7697 N   0  0  0  0  0  0  0  0  0  0  0  0
  156.4154  140.3135  183.9078 N   0  0  0  0  0  0  0  0  0  0  0  0
  155.1172  140.0643  183.7841 C   0  0  0  0  0  0  0  0  0  0  0  0
  154.6777  140.8661  182.7223 C   0  0  0  0  0  0  0  0  0  0  0  0
  155.7479  141.5780  182.2412 C   0  0  0  0  0  0  0  0  0  0  0  0
  156.8513  141.2123  183.0110 C   0  0  0  0  0  0  0  0  0  0  0  0
  158.1720  141.5943  182.9933 C   0  0  0  0  0  0  0  0  0  0  0  0
  161.5520  141.7100  183.9575 N   0  0  0  0  0  0  0  0  0  0  0  0
  160.4326  141.4107  183.9365 C   0  0  0  0  0  0  0  0  0  0  0  0
  151.6031  136.4256  186.4327 C   0  0  0  0  0  0  0  0  0  0  0  0
  150.3539  136.4231  186.1540 O   0  0  0  0  0  0  0  0  0  0  0  0
  152.0543  135.4339  187.3237 N   0  0  0  0  0  0  0  0  0  0  0  0
  153.0586  135.3874  187.5742 H   0  0  0  0  0  0  0  0  0  0  0  0
  151.0832  134.4946  187.8638 C   0  0  0  0  0  0  0  0  0  0  0  0
  151.8554  133.2049  188.1588 C   0  0  0  0  0  0  0  0  0  0  0  0
  150.9415  132.2512  188.9197 C   0  0  0  0  0  0  0  0  0  0  0  0
  150.8372  132.8377  190.3354 C   0  0  0  0  0  0  0  0  0  0  0  0
  151.0039  134.3175  190.3228 C   0  0  0  0  0  0  0  0  0  0  0  0
  150.3617  134.9477  189.0756 C   0  0  0  0  0  0  0  0  0  0  0  0
  149.5181  132.4824  190.8379 N   0  0  0  0  0  0  0  0  0  0  0  0
  149.3498  132.1946  192.2082 C   0  0  0  0  0  0  0  0  0  0  0  0
  150.3505  132.2401  192.9962 O   0  0  0  0  0  0  0  0  0  0  0  0
  148.7039  132.4424  190.2016 H   0  0  0  0  0  0  0  0  0  0  0  0
  148.0245  131.8389  192.7467 C   0  0  0  0  0  0  0  0  0  0  0  0
  146.8313  131.9336  191.9037 C   0  0  0  0  0  0  0  0  0  0  0  0
  147.0954  133.0658  192.8412 C   0  0  0  0  0  0  0  0  0  0  0  0
  153.2465  138.3093  187.9918 N   0  0  0  0  0  0  0  0  0  0  0  0
  152.3885  138.6588  188.4706 H   0  0  0  0  0  0  0  0  0  0  0  0
  154.3218  137.9957  188.8479 C   0  0  0  0  0  0  0  0  0  0  0  0
  154.6247  138.6922  190.0253 C   0  0  0  0  0  0  0  0  0  0  0  0
  155.6866  138.3417  190.8184 C   0  0  0  0  0  0  0  0  0  0  0  0
  156.4762  137.2786  190.4493 C   0  0  0  0  0  0  0  0  0  0  0  0
  156.2150  136.5891  189.3259 N   0  0  0  0  0  0  0  0  0  0  0  0
  155.1807  136.9331  188.5579 C   0  0  0  0  0  0  0  0  0  0  0  0
 16 17  3  0  0  0
 17  7  1  0  0  0
  7  8  1  0  0  0
  8  9  2  0  0  0
  9 10  1  0  0  0
 10 11  1  0  0  0
 11  1  1  0  0  0
  1  2  2  0  0  0
  2  3  1  0  0  0
  3 35  1  0  0  0
 35 37  1  0  0  0
 37 38  2  0  0  0
 38 39  1  0  0  0
 39 40  2  0  0  0
 40 41  1  0  0  0
 41 42  2  0  0  0
  3  4  2  0  0  0
  4 18  1  0  0  0
 18 19  2  0  0  0
 18 20  1  0  0  0
 20 22  1  0  0  0
 22 23  1  0  0  0
 23 24  1  0  0  0
 24 25  1  0  0  0
 25 28  1  0  0  0
 28 29  1  0  0  0
 29 30  2  0  0  0
 29 32  1  0  0  0
 32 33  1  0  0  0
 33 34  1  0  0  0
 25 26  1  0  0  0
 26 27  1  0  0  0
  4  5  1  0  0  0
  5  6  2  0  0  0
 11 12  2  0  0  0
 12 13  1  0  0  0
 13 14  2  0  0  0
 14 15  1  0  0  0
 15  7  2  0  0  0
 14 10  1  0  0  0
  6  1  1  0  0  0
 42 37  1  0  0  0
 27 22  1  0  0  0
 34 32  1  0  0  0
 35 36  1  0  0  0
 20 21  1  0  0  0
 28 31  1  0  0  0
M  END
> <minimizedAffinity>
-6.83300

> <CNNscore>
0.2931973636

> <CNNaffinity>
6.4785408974

> <CNN_VS>
1.8994910717

> <CNNaffinity_variance>
0.0200928543

$$$$
[H]c1nc([H])c(N([H])c2c([H])c(-c3c([H])c([H])c4c([H])c(C#N)c([H])nn34)nc([H])c2C(=O)N([H])[C@]2([H])C([H])([H])C([H])([H])[C@@]([H])(N([H])C(=O)C3([H])C([H])([H])C3([H])[H])C([H])([H])C2([H])[H])c([H])c1[H]


 42 47  0  0  0  0  0  0  0  0999 V2000
  156.1732  141.3223  182.9443 C   0  0  0  0  0  0  0  0  0  0  0  0
  155.9543  140.1384  183.5831 C   0  0  0  0  0  0  0  0  0  0  0  0
  154.7913  139.3747  183.5375 C   0  0  0  0  0  0  0  0  0  0  0  0
  153.7530  139.8864  182.7525 C   0  0  0  0  0  0  0  0  0  0  0  0
  153.9638  141.1053  182.0911 C   0  0  0  0  0  0  0  0  0  0  0  0
  155.1177  141.7697  182.1944 N   0  0  0  0  0  0  0  0  0  0  0  0
  160.4874  142.5937  185.5650 C   0  0  0  0  0  0  0  0  0  0  0  0
  159.4961  141.7039  185.8883 C   0  0  0  0  0  0  0  0  0  0  0  0
  158.4763  141.5449  185.0425 N   0  0  0  0  0  0  0  0  0  0  0  0
  158.3571  142.1973  183.8974 N   0  0  0  0  0  0  0  0  0  0  0  0
  157.3917  142.1193  182.9891 C   0  0  0  0  0  0  0  0  0  0  0  0
  157.7518  143.0183  181.9764 C   0  0  0  0  0  0  0  0  0  0  0  0
  158.9403  143.6115  182.3219 C   0  0  0  0  0  0  0  0  0  0  0  0
  159.3131  143.0747  183.5535 C   0  0  0  0  0  0  0  0  0  0  0  0
  160.3921  143.2879  184.3786 C   0  0  0  0  0  0  0  0  0  0  0  0
  162.4712  142.9210  187.1967 N   0  0  0  0  0  0  0  0  0  0  0  0
  161.5838  142.7782  186.4651 C   0  0  0  0  0  0  0  0  0  0  0  0
  152.5300  139.1592  182.5359 C   0  0  0  0  0  0  0  0  0  0  0  0
  152.3590  138.0285  183.1108 O   0  0  0  0  0  0  0  0  0  0  0  0
  151.4810  139.6173  181.7168 N   0  0  0  0  0  0  0  0  0  0  0  0
  151.5665  140.5312  181.2364 H   0  0  0  0  0  0  0  0  0  0  0  0
  150.2972  138.7830  181.5765 C   0  0  0  0  0  0  0  0  0  0  0  0
  149.1096  139.7435  181.4594 C   0  0  0  0  0  0  0  0  0  0  0  0
  147.8647  138.9401  181.1009 C   0  0  0  0  0  0  0  0  0  0  0  0
  148.0480  138.5505  179.6266 C   0  0  0  0  0  0  0  0  0  0  0  0
  149.4897  138.4328  179.2722 C   0  0  0  0  0  0  0  0  0  0  0  0
  150.3102  137.8431  180.4316 C   0  0  0  0  0  0  0  0  0  0  0  0
  147.3778  137.2708  179.4470 N   0  0  0  0  0  0  0  0  0  0  0  0
  146.9246  136.8967  178.1651 C   0  0  0  0  0  0  0  0  0  0  0  0
  147.0971  137.6802  177.1747 O   0  0  0  0  0  0  0  0  0  0  0  0
  147.2341  136.6331  180.2482 H   0  0  0  0  0  0  0  0  0  0  0  0
  146.2491  135.6040  177.9517 C   0  0  0  0  0  0  0  0  0  0  0  0
  146.4056  134.5165  178.9193 C   0  0  0  0  0  0  0  0  0  0  0  0
  147.2567  134.4659  177.6931 C   0  0  0  0  0  0  0  0  0  0  0  0
  154.6666  138.2442  184.3461 N   0  0  0  0  0  0  0  0  0  0  0  0
  154.5973  137.2917  183.9272 H   0  0  0  0  0  0  0  0  0  0  0  0
  154.5687  138.2864  185.7519 C   0  0  0  0  0  0  0  0  0  0  0  0
  153.4089  138.6402  186.4538 C   0  0  0  0  0  0  0  0  0  0  0  0
  153.3739  138.6652  187.8241 C   0  0  0  0  0  0  0  0  0  0  0  0
  154.5068  138.3348  188.5293 C   0  0  0  0  0  0  0  0  0  0  0  0
  155.6368  137.9916  187.8881 N   0  0  0  0  0  0  0  0  0  0  0  0
  155.6660  137.9680  186.5552 C   0  0  0  0  0  0  0  0  0  0  0  0
 16 17  3  0  0  0
 17  7  1  0  0  0
  7  8  1  0  0  0
  8  9  2  0  0  0
  9 10  1  0  0  0
 10 11  1  0  0  0
 11  1  1  0  0  0
  1  2  2  0  0  0
  2  3  1  0  0  0
  3 35  1  0  0  0
 35 37  1  0  0  0
 37 38  2  0  0  0
 38 39  1  0  0  0
 39 40  2  0  0  0
 40 41  1  0  0  0
 41 42  2  0  0  0
  3  4  2  0  0  0
  4 18  1  0  0  0
 18 19  2  0  0  0
 18 20  1  0  0  0
 20 22  1  0  0  0
 22 23  1  0  0  0
 23 24  1  0  0  0
 24 25  1  0  0  0
 25 28  1  0  0  0
 28 29  1  0  0  0
 29 30  2  0  0  0
 29 32  1  0  0  0
 32 33  1  0  0  0
 33 34  1  0  0  0
 25 26  1  0  0  0
 26 27  1  0  0  0
  4  5  1  0  0  0
  5  6  2  0  0  0
 11 12  2  0  0  0
 12 13  1  0  0  0
 13 14  2  0  0  0
 14 15  1  0  0  0
 15  7  2  0  0  0
 14 10  1  0  0  0
  6  1  1  0  0  0
 42 37  1  0  0  0
 27 22  1  0  0  0
 34 32  1  0  0  0
 35 36  1  0  0  0
 20 21  1  0  0  0
 28 31  1  0  0  0
M  END
> <minimizedAffinity>
-9.53502

> <CNNscore>
0.2338959128

> <CNNaffinity>
6.6323623657

> <CNN_VS>
1.5512824059

> <CNNaffinity_variance>
0.1283589900

$$$$
[H]c1nc([H])c(N([H])c2c([H])c(-c3c([H])c([H])c4c([H])c(C#N)c([H])nn34)nc([H])c2C(=O)N([H])[C@]2([H])C([H])([H])C([H])([H])[C@@]([H])(N([H])C(=O)C3([H])C([H])([H])C3([H])[H])C([H])([H])C2([H])[H])c([H])c1[H]


 42 47  0  0  0  0  0  0  0  0999 V2000
  153.5078  137.5284  184.4764 C   0  0  0  0  0  0  0  0  0  0  0  0
  153.4058  137.7718  185.8135 C   0  0  0  0  0  0  0  0  0  0  0  0
  153.7065  136.8841  186.8428 C   0  0  0  0  0  0  0  0  0  0  0  0
  154.1581  135.6203  186.4491 C   0  0  0  0  0  0  0  0  0  0  0  0
  154.2657  135.3553  185.0759 C   0  0  0  0  0  0  0  0  0  0  0  0
  153.9532  136.2729  184.1572 N   0  0  0  0  0  0  0  0  0  0  0  0
  150.5704  138.5931  180.3129 C   0  0  0  0  0  0  0  0  0  0  0  0
  150.5452  137.5066  181.1481 C   0  0  0  0  0  0  0  0  0  0  0  0
  151.4078  137.4596  182.1652 N   0  0  0  0  0  0  0  0  0  0  0  0
  152.2970  138.4046  182.4247 N   0  0  0  0  0  0  0  0  0  0  0  0
  153.1968  138.4589  183.3995 C   0  0  0  0  0  0  0  0  0  0  0  0
  153.8816  139.6674  183.2152 C   0  0  0  0  0  0  0  0  0  0  0  0
  153.3570  140.3031  182.1177 C   0  0  0  0  0  0  0  0  0  0  0  0
  152.3445  139.4814  181.6244 C   0  0  0  0  0  0  0  0  0  0  0  0
  151.4847  139.5946  180.5574 C   0  0  0  0  0  0  0  0  0  0  0  0
  148.9081  138.7020  178.3304 N   0  0  0  0  0  0  0  0  0  0  0  0
  149.6551  138.6541  179.2152 C   0  0  0  0  0  0  0  0  0  0  0  0
  154.5963  134.6350  187.4025 C   0  0  0  0  0  0  0  0  0  0  0  0
  153.7271  133.9410  188.0358 O   0  0  0  0  0  0  0  0  0  0  0  0
  155.9483  134.3730  187.6928 N   0  0  0  0  0  0  0  0  0  0  0  0
  156.6908  134.9015  187.2000 H   0  0  0  0  0  0  0  0  0  0  0  0
  156.2589  133.3531  188.6829 C   0  0  0  0  0  0  0  0  0  0  0  0
  157.4459  132.5628  188.1236 C   0  0  0  0  0  0  0  0  0  0  0  0
  157.9542  131.6145  189.2035 C   0  0  0  0  0  0  0  0  0  0  0  0
  158.6770  132.5118  190.2191 C   0  0  0  0  0  0  0  0  0  0  0  0
  158.0974  133.8835  190.2396 C   0  0  0  0  0  0  0  0  0  0  0  0
  156.5727  133.8555  190.0407 C   0  0  0  0  0  0  0  0  0  0  0  0
  158.5212  131.8783  191.5204 N   0  0  0  0  0  0  0  0  0  0  0  0
  159.5473  131.0484  192.0175 C   0  0  0  0  0  0  0  0  0  0  0  0
  160.5993  130.8521  191.3253 O   0  0  0  0  0  0  0  0  0  0  0  0
  157.6684  132.0334  192.0843 H   0  0  0  0  0  0  0  0  0  0  0  0
  159.4204  130.3994  193.3349 C   0  0  0  0  0  0  0  0  0  0  0  0
  158.5098  130.9422  194.3447 C   0  0  0  0  0  0  0  0  0  0  0  0
  159.9554  131.2956  194.4699 C   0  0  0  0  0  0  0  0  0  0  0  0
  153.4328  137.2316  188.1663 N   0  0  0  0  0  0  0  0  0  0  0  0
  152.4539  137.4003  188.4838 H   0  0  0  0  0  0  0  0  0  0  0  0
  154.4225  137.4357  189.1494 C   0  0  0  0  0  0  0  0  0  0  0  0
  155.7322  137.8532  188.8785 C   0  0  0  0  0  0  0  0  0  0  0  0
  156.6536  138.0333  189.8776 C   0  0  0  0  0  0  0  0  0  0  0  0
  156.2836  137.7979  191.1805 C   0  0  0  0  0  0  0  0  0  0  0  0
  155.0359  137.3955  191.4760 N   0  0  0  0  0  0  0  0  0  0  0  0
  154.1429  137.2223  190.5011 C   0  0  0  0  0  0  0  0  0  0  0  0
 16 17  3  0  0  0
 17  7  1  0  0  0
  7  8  1  0  0  0
  8  9  2  0  0  0
  9 10  1  0  0  0
 10 11  1  0  0  0
 11  1  1  0  0  0
  1  2  2  0  0  0
  2  3  1  0  0  0
  3 35  1  0  0  0
 35 37  1  0  0  0
 37 38  2  0  0  0
 38 39  1  0  0  0
 39 40  2  0  0  0
 40 41  1  0  0  0
 41 42  2  0  0  0
  3  4  2  0  0  0
  4 18  1  0  0  0
 18 19  2  0  0  0
 18 20  1  0  0  0
 20 22  1  0  0  0
 22 23  1  0  0  0
 23 24  1  0  0  0
 24 25  1  0  0  0
 25 28  1  0  0  0
 28 29  1  0  0  0
 29 30  2  0  0  0
 29 32  1  0  0  0
 32 33  1  0  0  0
 33 34  1  0  0  0
 25 26  1  0  0  0
 26 27  1  0  0  0
  4  5  1  0  0  0
  5  6  2  0  0  0
 11 12  2  0  0  0
 12 13  1  0  0  0
 13 14  2  0  0  0
 14 15  1  0  0  0
 15  7  2  0  0  0
 14 10  1  0  0  0
  6  1  1  0  0  0
 42 37  1  0  0  0
 27 22  1  0  0  0
 34 32  1  0  0  0
 35 36  1  0  0  0
 20 21  1  0  0  0
 28 31  1  0  0  0
M  END
> <minimizedAffinity>
-7.16004

> <CNNscore>
0.2271113992

> <CNNaffinity>
5.9483971596

> <CNN_VS>
1.3509488106

> <CNNaffinity_variance>
0.0506287329

$$$$
[H]c1nc([H])c(N([H])c2c([H])c(-c3c([H])c([H])c4c([H])c(C#N)c([H])nn34)nc([H])c2C(=O)N([H])[C@]2([H])C([H])([H])C([H])([H])[C@@]([H])(N([H])C(=O)C3([H])C([H])([H])C3([H])[H])C([H])([H])C2([H])[H])c([H])c1[H]


 42 47  0  0  0  0  0  0  0  0999 V2000
  154.3731  140.0510  183.1953 C   0  0  0  0  0  0  0  0  0  0  0  0
  153.2975  139.5348  182.5365 C   0  0  0  0  0  0  0  0  0  0  0  0
  152.7292  138.2793  182.7335 C   0  0  0  0  0  0  0  0  0  0  0  0
  153.3334  137.4800  183.7093 C   0  0  0  0  0  0  0  0  0  0  0  0
  154.4428  137.9978  184.3936 C   0  0  0  0  0  0  0  0  0  0  0  0
  154.9197  139.2184  184.1358 N   0  0  0  0  0  0  0  0  0  0  0  0
  157.9953  142.9027  180.7778 C   0  0  0  0  0  0  0  0  0  0  0  0
  157.7303  141.5611  180.6846 C   0  0  0  0  0  0  0  0  0  0  0  0
  156.7334  141.0524  181.4113 N   0  0  0  0  0  0  0  0  0  0  0  0
  155.9736  141.7664  182.2261 N   0  0  0  0  0  0  0  0  0  0  0  0
  154.9652  141.3664  182.9917 C   0  0  0  0  0  0  0  0  0  0  0  0
  154.5117  142.5164  183.6512 C   0  0  0  0  0  0  0  0  0  0  0  0
  155.2787  143.5811  183.2490 C   0  0  0  0  0  0  0  0  0  0  0  0
  156.2088  143.0834  182.3374 C   0  0  0  0  0  0  0  0  0  0  0  0
  157.2208  143.6733  181.6174 C   0  0  0  0  0  0  0  0  0  0  0  0
  159.9283  143.9093  179.3794 N   0  0  0  0  0  0  0  0  0  0  0  0
  159.0646  143.4605  180.0085 C   0  0  0  0  0  0  0  0  0  0  0  0
  152.7963  136.1991  184.0868 C   0  0  0  0  0  0  0  0  0  0  0  0
  152.6885  135.2767  183.2059 O   0  0  0  0  0  0  0  0  0  0  0  0
  152.3727  135.8808  185.3908 N   0  0  0  0  0  0  0  0  0  0  0  0
  152.4480  136.5900  186.1423 H   0  0  0  0  0  0  0  0  0  0  0  0
  151.8426  134.5491  185.6409 C   0  0  0  0  0  0  0  0  0  0  0  0
  151.6312  134.4515  187.1550 C   0  0  0  0  0  0  0  0  0  0  0  0
  150.8830  133.1592  187.4616 C   0  0  0  0  0  0  0  0  0  0  0  0
  149.4399  133.4104  186.9995 C   0  0  0  0  0  0  0  0  0  0  0  0
  149.3925  134.3891  185.8780 C   0  0  0  0  0  0  0  0  0  0  0  0
  150.5883  134.2164  184.9265 C   0  0  0  0  0  0  0  0  0  0  0  0
  148.9097  132.1245  186.5703 N   0  0  0  0  0  0  0  0  0  0  0  0
  147.6037  131.7495  186.9477 C   0  0  0  0  0  0  0  0  0  0  0  0
  146.8987  132.5318  187.6656 O   0  0  0  0  0  0  0  0  0  0  0  0
  149.4791  131.4860  185.9894 H   0  0  0  0  0  0  0  0  0  0  0  0
  147.0377  130.4567  186.5219 C   0  0  0  0  0  0  0  0  0  0  0  0
  147.5182  129.8015  185.3040 C   0  0  0  0  0  0  0  0  0  0  0  0
  146.2491  130.5822  185.2029 C   0  0  0  0  0  0  0  0  0  0  0  0
  151.7051  137.8374  181.8948 N   0  0  0  0  0  0  0  0  0  0  0  0
  151.9093  137.2163  181.0824 H   0  0  0  0  0  0  0  0  0  0  0  0
  150.3551  138.2210  182.0284 C   0  0  0  0  0  0  0  0  0  0  0  0
  149.5047  137.7795  183.0505 C   0  0  0  0  0  0  0  0  0  0  0  0
  148.1977  138.1861  183.1281 C   0  0  0  0  0  0  0  0  0  0  0  0
  147.7073  139.0500  182.1777 C   0  0  0  0  0  0  0  0  0  0  0  0
  148.4950  139.4925  181.1830 N   0  0  0  0  0  0  0  0  0  0  0  0
  149.7658  139.0949  181.1119 C   0  0  0  0  0  0  0  0  0  0  0  0
 16 17  3  0  0  0
 17  7  1  0  0  0
  7  8  1  0  0  0
  8  9  2  0  0  0
  9 10  1  0  0  0
 10 11  1  0  0  0
 11  1  1  0  0  0
  1  2  2  0  0  0
  2  3  1  0  0  0
  3 35  1  0  0  0
 35 37  1  0  0  0
 37 38  2  0  0  0
 38 39  1  0  0  0
 39 40  2  0  0  0
 40 41  1  0  0  0
 41 42  2  0  0  0
  3  4  2  0  0  0
  4 18  1  0  0  0
 18 19  2  0  0  0
 18 20  1  0  0  0
 20 22  1  0  0  0
 22 23  1  0  0  0
 23 24  1  0  0  0
 24 25  1  0  0  0
 25 28  1  0  0  0
 28 29  1  0  0  0
 29 30  2  0  0  0
 29 32  1  0  0  0
 32 33  1  0  0  0
 33 34  1  0  0  0
 25 26  1  0  0  0
 26 27  1  0  0  0
  4  5  1  0  0  0
  5  6  2  0  0  0
 11 12  2  0  0  0
 12 13  1  0  0  0
 13 14  2  0  0  0
 14 15  1  0  0  0
 15  7  2  0  0  0
 14 10  1  0  0  0
  6  1  1  0  0  0
 42 37  1  0  0  0
 27 22  1  0  0  0
 34 32  1  0  0  0
 35 36  1  0  0  0
 20 21  1  0  0  0
 28 31  1  0  0  0
M  END
> <minimizedAffinity>
-6.32916

> <CNNscore>
0.2128714919

> <CNNaffinity>
6.3448972702

> <CNN_VS>
1.3506478071

> <CNNaffinity_variance>
0.1433914304

$$$$
[H]c1nc([H])c(N([H])c2c([H])c(-c3c([H])c([H])c4c([H])c(C#N)c([H])nn34)nc([H])c2C(=O)N([H])[C@]2([H])C([H])([H])C([H])([H])[C@@]([H])(N([H])C(=O)C3([H])C([H])([H])C3([H])[H])C([H])([H])C2([H])[H])c([H])c1[H]


 42 47  0  0  0  0  0  0  0  0999 V2000
  155.6034  139.1553  184.6225 C   0  0  0  0  0  0  0  0  0  0  0  0
  154.6844  138.7309  183.7101 C   0  0  0  0  0  0  0  0  0  0  0  0
  153.5446  137.9756  183.9715 C   0  0  0  0  0  0  0  0  0  0  0  0
  153.3351  137.6262  185.3094 C   0  0  0  0  0  0  0  0  0  0  0  0
  154.2744  138.0544  186.2590 C   0  0  0  0  0  0  0  0  0  0  0  0
  155.3421  138.7784  185.9134 N   0  0  0  0  0  0  0  0  0  0  0  0
  158.2795  142.0057  181.1859 C   0  0  0  0  0  0  0  0  0  0  0  0
  157.0723  141.3716  181.0470 C   0  0  0  0  0  0  0  0  0  0  0  0
  156.5803  140.6944  182.0862 N   0  0  0  0  0  0  0  0  0  0  0  0
  157.1881  140.5934  183.2573 N   0  0  0  0  0  0  0  0  0  0  0  0
  156.7941  139.9489  184.3492 C   0  0  0  0  0  0  0  0  0  0  0  0
  157.8034  140.1600  185.2979 C   0  0  0  0  0  0  0  0  0  0  0  0
  158.7814  140.9369  184.7289 C   0  0  0  0  0  0  0  0  0  0  0  0
  158.3716  141.2049  183.4235 C   0  0  0  0  0  0  0  0  0  0  0  0
  158.9368  141.9198  182.3940 C   0  0  0  0  0  0  0  0  0  0  0  0
  159.2606  143.3121  179.1770 N   0  0  0  0  0  0  0  0  0  0  0  0
  158.8215  142.7308  180.0783 C   0  0  0  0  0  0  0  0  0  0  0  0
  152.1512  136.9302  185.7404 C   0  0  0  0  0  0  0  0  0  0  0  0
  151.0276  137.1969  185.1885 O   0  0  0  0  0  0  0  0  0  0  0  0
  152.1428  135.9501  186.7506 N   0  0  0  0  0  0  0  0  0  0  0  0
  153.0284  135.6914  187.2220 H   0  0  0  0  0  0  0  0  0  0  0  0
  150.8760  135.3239  187.0972 C   0  0  0  0  0  0  0  0  0  0  0  0
  151.0056  133.8502  186.6998 C   0  0  0  0  0  0  0  0  0  0  0  0
  149.7917  133.0934  187.2265 C   0  0  0  0  0  0  0  0  0  0  0  0
  150.0103  132.9880  188.7431 C   0  0  0  0  0  0  0  0  0  0  0  0
  150.8160  134.1309  189.2554 C   0  0  0  0  0  0  0  0  0  0  0  0
  150.4754  135.4373  188.5189 C   0  0  0  0  0  0  0  0  0  0  0  0
  148.6898  132.9864  189.3557 N   0  0  0  0  0  0  0  0  0  0  0  0
  148.3963  132.0560  190.3740 C   0  0  0  0  0  0  0  0  0  0  0  0
  149.2827  131.2196  190.7473 O   0  0  0  0  0  0  0  0  0  0  0  0
  147.9672  133.6619  189.0543 H   0  0  0  0  0  0  0  0  0  0  0  0
  147.0703  132.0355  191.0174 C   0  0  0  0  0  0  0  0  0  0  0  0
  146.2493  133.2468  191.0634 C   0  0  0  0  0  0  0  0  0  0  0  0
  147.0353  132.9090  192.2875 C   0  0  0  0  0  0  0  0  0  0  0  0
  152.7605  137.5073  182.9163 N   0  0  0  0  0  0  0  0  0  0  0  0
  152.6691  136.4853  182.7301 H   0  0  0  0  0  0  0  0  0  0  0  0
  152.0884  138.3430  182.0012 C   0  0  0  0  0  0  0  0  0  0  0  0
  150.7143  138.6141  182.0392 C   0  0  0  0  0  0  0  0  0  0  0  0
  150.1149  139.4351  181.1194 C   0  0  0  0  0  0  0  0  0  0  0  0
  150.8817  140.0081  180.1326 C   0  0  0  0  0  0  0  0  0  0  0  0
  152.2023  139.7689  180.0660 N   0  0  0  0  0  0  0  0  0  0  0  0
  152.7812  138.9702  180.9632 C   0  0  0  0  0  0  0  0  0  0  0  0
 16 17  3  0  0  0
 17  7  1  0  0  0
  7  8  1  0  0  0
  8  9  2  0  0  0
  9 10  1  0  0  0
 10 11  1  0  0  0
 11  1  1  0  0  0
  1  2  2  0  0  0
  2  3  1  0  0  0
  3 35  1  0  0  0
 35 37  1  0  0  0
 37 38  2  0  0  0
 38 39  1  0  0  0
 39 40  2  0  0  0
 40 41  1  0  0  0
 41 42  2  0  0  0
  3  4  2  0  0  0
  4 18  1  0  0  0
 18 19  2  0  0  0
 18 20  1  0  0  0
 20 22  1  0  0  0
 22 23  1  0  0  0
 23 24  1  0  0  0
 24 25  1  0  0  0
 25 28  1  0  0  0
 28 29  1  0  0  0
 29 30  2  0  0  0
 29 32  1  0  0  0
 32 33  1  0  0  0
 33 34  1  0  0  0
 25 26  1  0  0  0
 26 27  1  0  0  0
  4  5  1  0  0  0
  5  6  2  0  0  0
 11 12  2  0  0  0
 12 13  1  0  0  0
 13 14  2  0  0  0
 14 15  1  0  0  0
 15  7  2  0  0  0
 14 10  1  0  0  0
  6  1  1  0  0  0
 42 37  1  0  0  0
 27 22  1  0  0  0
 34 32  1  0  0  0
 35 36  1  0  0  0
 20 21  1  0  0  0
 28 31  1  0  0  0
M  END
> <minimizedAffinity>
-6.43500

> <CNNscore>
0.1973299384

> <CNNaffinity>
6.3415098190

> <CNN_VS>
1.2513697147

> <CNNaffinity_variance>
0.0633703098

$$$$
[H]c1nc([H])c(N([H])c2c([H])c(-c3c([H])c([H])c4c([H])c(C#N)c([H])nn34)nc([H])c2C(=O)N([H])[C@]2([H])C([H])([H])C([H])([H])[C@@]([H])(N([H])C(=O)C3([H])C([H])([H])C3([H])[H])C([H])([H])C2([H])[H])c([H])c1[H]


 42 47  0  0  0  0  0  0  0  0999 V2000
  154.5091  140.3199  183.5099 C   0  0  0  0  0  0  0  0  0  0  0  0
  153.5103  139.6097  182.9138 C   0  0  0  0  0  0  0  0  0  0  0  0
  153.0075  138.3792  183.3274 C   0  0  0  0  0  0  0  0  0  0  0  0
  153.5960  137.8305  184.4714 C   0  0  0  0  0  0  0  0  0  0  0  0
  154.6268  138.5497  185.0939 C   0  0  0  0  0  0  0  0  0  0  0  0
  155.0445  139.7276  184.6231 N   0  0  0  0  0  0  0  0  0  0  0  0
  158.0812  142.8973  180.7362 C   0  0  0  0  0  0  0  0  0  0  0  0
  157.9014  141.5478  180.8948 C   0  0  0  0  0  0  0  0  0  0  0  0
  156.8987  141.1206  181.6646 N   0  0  0  0  0  0  0  0  0  0  0  0
  156.0551  141.9236  182.2928 N   0  0  0  0  0  0  0  0  0  0  0  0
  155.0324  141.6094  183.0791 C   0  0  0  0  0  0  0  0  0  0  0  0
  154.4767  142.8306  183.4830 C   0  0  0  0  0  0  0  0  0  0  0  0
  155.2000  143.8486  182.9135 C   0  0  0  0  0  0  0  0  0  0  0  0
  156.2057  143.2504  182.1555 C   0  0  0  0  0  0  0  0  0  0  0  0
  157.2184  143.7596  181.3771 C   0  0  0  0  0  0  0  0  0  0  0  0
  160.0219  143.7575  179.2533 N   0  0  0  0  0  0  0  0  0  0  0  0
  159.1555  143.3695  179.9182 C   0  0  0  0  0  0  0  0  0  0  0  0
  153.1144  136.6125  185.0683 C   0  0  0  0  0  0  0  0  0  0  0  0
  153.0395  135.5499  184.3587 O   0  0  0  0  0  0  0  0  0  0  0  0
  152.7120  136.5049  186.4128 N   0  0  0  0  0  0  0  0  0  0  0  0
  152.7626  137.3343  187.0316 H   0  0  0  0  0  0  0  0  0  0  0  0
  152.2387  135.2155  186.8927 C   0  0  0  0  0  0  0  0  0  0  0  0
  153.3064  134.7040  187.8650 C   0  0  0  0  0  0  0  0  0  0  0  0
  152.7752  133.4568  188.5622 C   0  0  0  0  0  0  0  0  0  0  0  0
  151.7225  133.9691  189.5564 C   0  0  0  0  0  0  0  0  0  0  0  0
  151.0928  135.2306  189.0771 C   0  0  0  0  0  0  0  0  0  0  0  0
  150.9112  135.2267  187.5499 C   0  0  0  0  0  0  0  0  0  0  0  0
  150.7209  132.9202  189.6806 N   0  0  0  0  0  0  0  0  0  0  0  0
  150.1694  132.6311  190.9459 C   0  0  0  0  0  0  0  0  0  0  0  0
  150.5537  133.2821  191.9720 O   0  0  0  0  0  0  0  0  0  0  0  0
  150.4078  132.3883  188.8509 H   0  0  0  0  0  0  0  0  0  0  0  0
  149.1483  131.5794  191.1009 C   0  0  0  0  0  0  0  0  0  0  0  0
  148.2256  131.2740  190.0060 C   0  0  0  0  0  0  0  0  0  0  0  0
  147.7203  132.1610  191.0961 C   0  0  0  0  0  0  0  0  0  0  0  0
  152.0668  137.7103  182.5431 N   0  0  0  0  0  0  0  0  0  0  0  0
  152.3554  136.9412  181.9007 H   0  0  0  0  0  0  0  0  0  0  0  0
  150.6960  138.0375  182.5042 C   0  0  0  0  0  0  0  0  0  0  0  0
  150.1326  138.9825  181.6367 C   0  0  0  0  0  0  0  0  0  0  0  0
  148.7902  139.2607  181.6458 C   0  0  0  0  0  0  0  0  0  0  0  0
  147.9741  138.5953  182.5297 C   0  0  0  0  0  0  0  0  0  0  0  0
  148.4813  137.6834  183.3765 N   0  0  0  0  0  0  0  0  0  0  0  0
  149.7875  137.4156  183.3636 C   0  0  0  0  0  0  0  0  0  0  0  0
 16 17  3  0  0  0
 17  7  1  0  0  0
  7  8  1  0  0  0
  8  9  2  0  0  0
  9 10  1  0  0  0
 10 11  1  0  0  0
 11  1  1  0  0  0
  1  2  2  0  0  0
  2  3  1  0  0  0
  3 35  1  0  0  0
 35 37  1  0  0  0
 37 38  2  0  0  0
 38 39  1  0  0  0
 39 40  2  0  0  0
 40 41  1  0  0  0
 41 42  2  0  0  0
  3  4  2  0  0  0
  4 18  1  0  0  0
 18 19  2  0  0  0
 18 20  1  0  0  0
 20 22  1  0  0  0
 22 23  1  0  0  0
 23 24  1  0  0  0
 24 25  1  0  0  0
 25 28  1  0  0  0
 28 29  1  0  0  0
 29 30  2  0  0  0
 29 32  1  0  0  0
 32 33  1  0  0  0
 33 34  1  0  0  0
 25 26  1  0  0  0
 26 27  1  0  0  0
  4  5  1  0  0  0
  5  6  2  0  0  0
 11 12  2  0  0  0
 12 13  1  0  0  0
 13 14  2  0  0  0
 14 15  1  0  0  0
 15  7  2  0  0  0
 14 10  1  0  0  0
  6  1  1  0  0  0
 42 37  1  0  0  0
 27 22  1  0  0  0
 34 32  1  0  0  0
 35 36  1  0  0  0
 20 21  1  0  0  0
 28 31  1  0  0  0
M  END
> <minimizedAffinity>
-6.68711

> <CNNscore>
0.1942935735

> <CNNaffinity>
6.2370100021

> <CNN_VS>
1.2118109465

> <CNNaffinity_variance>
0.0742617473

$$$$
[H]c1nc([H])c(N([H])c2c([H])c(-c3c([H])c([H])c4c([H])c(C#N)c([H])nn34)nc([H])c2C(=O)N([H])[C@]2([H])C([H])([H])C([H])([H])[C@@]([H])(N([H])C(=O)C3([H])C([H])([H])C3([H])[H])C([H])([H])C2([H])[H])c([H])c1[H]


 42 47  0  0  0  0  0  0  0  0999 V2000
  154.2662  139.1003  184.9446 C   0  0  0  0  0  0  0  0  0  0  0  0
  155.2285  138.4312  185.6401 C   0  0  0  0  0  0  0  0  0  0  0  0
  155.0243  137.5435  186.6927 C   0  0  0  0  0  0  0  0  0  0  0  0
  153.6927  137.3262  187.0610 C   0  0  0  0  0  0  0  0  0  0  0  0
  152.6919  138.0101  186.3551 C   0  0  0  0  0  0  0  0  0  0  0  0
  152.9843  138.8459  185.3553 N   0  0  0  0  0  0  0  0  0  0  0  0
  157.3220  142.7197  182.7862 C   0  0  0  0  0  0  0  0  0  0  0  0
  157.4932  142.0050  183.9433 C   0  0  0  0  0  0  0  0  0  0  0  0
  156.5602  141.1174  184.2928 N   0  0  0  0  0  0  0  0  0  0  0  0
  155.4666  140.8779  183.5872 N   0  0  0  0  0  0  0  0  0  0  0  0
  154.4799  140.0262  183.8405 C   0  0  0  0  0  0  0  0  0  0  0  0
  153.5743  140.1708  182.7811 C   0  0  0  0  0  0  0  0  0  0  0  0
  154.0610  141.1202  181.9176 C   0  0  0  0  0  0  0  0  0  0  0  0
  155.2721  141.5618  182.4486 C   0  0  0  0  0  0  0  0  0  0  0  0
  156.1935  142.4922  182.0290 C   0  0  0  0  0  0  0  0  0  0  0  0
  159.1179  144.4500  182.0892 N   0  0  0  0  0  0  0  0  0  0  0  0
  158.3116  143.6785  182.4022 C   0  0  0  0  0  0  0  0  0  0  0  0
  153.3259  136.3640  188.0666 C   0  0  0  0  0  0  0  0  0  0  0  0
  153.5146  135.1176  187.8445 O   0  0  0  0  0  0  0  0  0  0  0  0
  152.7619  136.7066  189.3098 N   0  0  0  0  0  0  0  0  0  0  0  0
  152.5978  137.7029  189.5419 H   0  0  0  0  0  0  0  0  0  0  0  0
  152.4305  135.6364  190.2383 C   0  0  0  0  0  0  0  0  0  0  0  0
  153.0527  136.0291  191.5818 C   0  0  0  0  0  0  0  0  0  0  0  0
  152.5667  135.0550  192.6489 C   0  0  0  0  0  0  0  0  0  0  0  0
  151.1010  135.4362  192.9042 C   0  0  0  0  0  0  0  0  0  0  0  0
  150.4770  136.0336  191.6912 C   0  0  0  0  0  0  0  0  0  0  0  0
  150.9846  135.3604  190.4050 C   0  0  0  0  0  0  0  0  0  0  0  0
  150.4098  134.2103  193.2759 N   0  0  0  0  0  0  0  0  0  0  0  0
  150.6155  133.6564  194.5564 C   0  0  0  0  0  0  0  0  0  0  0  0
  151.4075  134.2257  195.3769 O   0  0  0  0  0  0  0  0  0  0  0  0
  149.7679  133.7442  192.6125 H   0  0  0  0  0  0  0  0  0  0  0  0
  149.9238  132.4199  194.9632 C   0  0  0  0  0  0  0  0  0  0  0  0
  150.6053  131.4290  195.7981 C   0  0  0  0  0  0  0  0  0  0  0  0
  150.5638  131.1691  194.3280 C   0  0  0  0  0  0  0  0  0  0  0  0
  156.1159  137.0286  187.3932 N   0  0  0  0  0  0  0  0  0  0  0  0
  156.8923  136.5440  186.8934 H   0  0  0  0  0  0  0  0  0  0  0  0
  156.2401  137.0633  188.7972 C   0  0  0  0  0  0  0  0  0  0  0  0
  156.0493  138.2095  189.5800 C   0  0  0  0  0  0  0  0  0  0  0  0
  156.1857  138.1830  190.9439 C   0  0  0  0  0  0  0  0  0  0  0  0
  156.5189  137.0005  191.5610 C   0  0  0  0  0  0  0  0  0  0  0  0
  156.7102  135.8824  190.8406 N   0  0  0  0  0  0  0  0  0  0  0  0
  156.5757  135.9128  189.5143 C   0  0  0  0  0  0  0  0  0  0  0  0
 16 17  3  0  0  0
 17  7  1  0  0  0
  7  8  1  0  0  0
  8  9  2  0  0  0
  9 10  1  0  0  0
 10 11  1  0  0  0
 11  1  1  0  0  0
  1  2  2  0  0  0
  2  3  1  0  0  0
  3 35  1  0  0  0
 35 37  1  0  0  0
 37 38  2  0  0  0
 38 39  1  0  0  0
 39 40  2  0  0  0
 40 41  1  0  0  0
 41 42  2  0  0  0
  3  4  2  0  0  0
  4 18  1  0  0  0
 18 19  2  0  0  0
 18 20  1  0  0  0
 20 22  1  0  0  0
 22 23  1  0  0  0
 23 24  1  0  0  0
 24 25  1  0  0  0
 25 28  1  0  0  0
 28 29  1  0  0  0
 29 30  2  0  0  0
 29 32  1  0  0  0
 32 33  1  0  0  0
 33 34  1  0  0  0
 25 26  1  0  0  0
 26 27  1  0  0  0
  4  5  1  0  0  0
  5  6  2  0  0  0
 11 12  2  0  0  0
 12 13  1  0  0  0
 13 14  2  0  0  0
 14 15  1  0  0  0
 15  7  2  0  0  0
 14 10  1  0  0  0
  6  1  1  0  0  0
 42 37  1  0  0  0
 27 22  1  0  0  0
 34 32  1  0  0  0
 35 36  1  0  0  0
 20 21  1  0  0  0
 28 31  1  0  0  0
M  END
> <minimizedAffinity>
-7.73326

> <CNNscore>
0.1932206899

> <CNNaffinity>
6.3407735825

> <CNN_VS>
1.2251687050

> <CNNaffinity_variance>
0.0541379265

$$$$
[H]c1c([H])c([H])c(N2C(N3C([H])([H])C([H])([H])C([H])([H])C([H])([H])C3([H])[H])=Nc3c([H])c([H])c([H])c([H])c3C2([H])C([H])([H])C(=O)N([H])C([H])([H])c2c([H])c([H])c([H])c([H])c2[H])c([H])c1[H]


 34 38  0  0  0  0  0  0  0  0999 V2000
  152.9249  136.1069  187.6551 C   0  0  0  0  0  0  0  0  0  0  0  0
  151.6145  136.3938  187.0626 C   0  0  0  0  0  0  0  0  0  0  0  0
  151.4233  136.8350  185.7691 C   0  0  0  0  0  0  0  0  0  0  0  0
  150.1267  136.9381  185.2725 C   0  0  0  0  0  0  0  0  0  0  0  0
  149.0282  136.6154  186.0313 C   0  0  0  0  0  0  0  0  0  0  0  0
  149.2039  136.1814  187.3174 C   0  0  0  0  0  0  0  0  0  0  0  0
  150.5118  136.0739  187.8369 C   0  0  0  0  0  0  0  0  0  0  0  0
  150.6462  135.8130  189.2304 N   0  0  0  0  0  0  0  0  0  0  0  0
  151.8117  135.8878  189.8050 C   0  0  0  0  0  0  0  0  0  0  0  0
  152.9504  136.3026  189.0667 N   0  0  0  0  0  0  0  0  0  0  0  0
  151.8780  135.6067  191.2025 N   0  0  0  0  0  0  0  0  0  0  0  0
  152.3999  134.3412  191.6224 C   0  0  0  0  0  0  0  0  0  0  0  0
  153.2585  134.5019  192.8911 C   0  0  0  0  0  0  0  0  0  0  0  0
  152.3596  135.1650  193.9105 C   0  0  0  0  0  0  0  0  0  0  0  0
  152.0696  136.5536  193.4595 C   0  0  0  0  0  0  0  0  0  0  0  0
  151.4170  136.6354  192.1037 C   0  0  0  0  0  0  0  0  0  0  0  0
  154.0550  136.8874  189.7259 C   0  0  0  0  0  0  0  0  0  0  0  0
  154.0912  138.2127  190.0975 C   0  0  0  0  0  0  0  0  0  0  0  0
  155.1872  138.7441  190.7338 C   0  0  0  0  0  0  0  0  0  0  0  0
  156.2975  137.9901  191.0318 C   0  0  0  0  0  0  0  0  0  0  0  0
  156.2565  136.6644  190.6580 C   0  0  0  0  0  0  0  0  0  0  0  0
  155.1758  136.1182  190.0246 C   0  0  0  0  0  0  0  0  0  0  0  0
  154.1431  136.4314  186.8985 C   0  0  0  0  0  0  0  0  0  0  0  0
  153.7825  138.7839  186.9790 O   0  0  0  0  0  0  0  0  0  0  0  0
  154.1829  137.7902  186.3189 C   0  0  0  0  0  0  0  0  0  0  0  0
  154.6711  138.0343  185.0009 N   0  0  0  0  0  0  0  0  0  0  0  0
  155.0216  137.2549  184.3914 H   0  0  0  0  0  0  0  0  0  0  0  0
  154.6918  139.3752  184.4721 C   0  0  0  0  0  0  0  0  0  0  0  0
  156.0468  139.8145  184.0647 C   0  0  0  0  0  0  0  0  0  0  0  0
  157.1127  139.5592  184.8898 C   0  0  0  0  0  0  0  0  0  0  0  0
  158.4070  139.9493  184.5512 C   0  0  0  0  0  0  0  0  0  0  0  0
  158.6316  140.6091  183.3590 C   0  0  0  0  0  0  0  0  0  0  0  0
  157.5465  140.8664  182.5244 C   0  0  0  0  0  0  0  0  0  0  0  0
  156.2599  140.4695  182.8784 C   0  0  0  0  0  0  0  0  0  0  0  0
 24 25  2  0  0  0
 25 23  1  0  0  0
 23  1  1  0  0  0
  1  2  1  0  0  0
  2  3  2  0  0  0
  3  4  1  0  0  0
  4  5  2  0  0  0
  5  6  1  0  0  0
  6  7  2  0  0  0
  7  8  1  0  0  0
  8  9  2  0  0  0
  9 11  1  0  0  0
 11 12  1  0  0  0
 12 13  1  0  0  0
 13 14  1  0  0  0
 14 15  1  0  0  0
 15 16  1  0  0  0
  9 10  1  0  0  0
 10 17  1  0  0  0
 17 18  2  0  0  0
 18 19  1  0  0  0
 19 20  2  0  0  0
 20 21  1  0  0  0
 21 22  2  0  0  0
 25 26  1  0  0  0
 26 28  1  0  0  0
 28 29  1  0  0  0
 29 30  2  0  0  0
 30 31  1  0  0  0
 31 32  2  0  0  0
 32 33  1  0  0  0
 33 34  2  0  0  0
 10  1  1  0  0  0
 22 17  1  0  0  0
 34 29  1  0  0  0
  7  2  1  0  0  0
 16 11  1  0  0  0
 26 27  1  0  0  0
M  END
> <minimizedAffinity>
-7.50097

> <CNNscore>
0.4497035742

> <CNNaffinity>
5.9744520187

> <CNN_VS>
2.6867325306

> <CNNaffinity_variance>
0.0489856116

$$$$
[H]c1c([H])c([H])c(N2C(N3C([H])([H])C([H])([H])C([H])([H])C([H])([H])C3([H])[H])=Nc3c([H])c([H])c([H])c([H])c3C2([H])C([H])([H])C(=O)N([H])C([H])([H])c2c([H])c([H])c([H])c([H])c2[H])c([H])c1[H]


 34 38  0  0  0  0  0  0  0  0999 V2000
  152.8988  135.9977  187.7519 C   0  0  0  0  0  0  0  0  0  0  0  0
  151.6127  136.3231  187.1272 C   0  0  0  0  0  0  0  0  0  0  0  0
  151.4604  136.7088  185.8110 C   0  0  0  0  0  0  0  0  0  0  0  0
  150.1771  136.8549  185.2913 C   0  0  0  0  0  0  0  0  0  0  0  0
  149.0541  136.6286  186.0491 C   0  0  0  0  0  0  0  0  0  0  0  0
  149.1914  136.2505  187.3574 C   0  0  0  0  0  0  0  0  0  0  0  0
  150.4855  136.1005  187.9003 C   0  0  0  0  0  0  0  0  0  0  0  0
  150.5894  135.9027  189.3067 N   0  0  0  0  0  0  0  0  0  0  0  0
  151.7504  135.9448  189.8937 C   0  0  0  0  0  0  0  0  0  0  0  0
  152.9181  136.2618  189.1523 N   0  0  0  0  0  0  0  0  0  0  0  0
  151.7852  135.7305  191.3041 N   0  0  0  0  0  0  0  0  0  0  0  0
  152.3241  134.4987  191.7966 C   0  0  0  0  0  0  0  0  0  0  0  0
  153.1441  134.7388  193.0782 C   0  0  0  0  0  0  0  0  0  0  0  0
  152.2032  135.4268  194.0415 C   0  0  0  0  0  0  0  0  0  0  0  0
  151.8941  136.7855  193.5183 C   0  0  0  0  0  0  0  0  0  0  0  0
  151.2767  136.7887  192.1437 C   0  0  0  0  0  0  0  0  0  0  0  0
  154.0443  136.8200  189.7979 C   0  0  0  0  0  0  0  0  0  0  0  0
  154.1107  138.1403  190.1827 C   0  0  0  0  0  0  0  0  0  0  0  0
  155.2271  138.6454  190.8049 C   0  0  0  0  0  0  0  0  0  0  0  0
  156.3289  137.8689  191.0751 C   0  0  0  0  0  0  0  0  0  0  0  0
  156.2577  136.5481  190.6881 C   0  0  0  0  0  0  0  0  0  0  0  0
  155.1564  136.0280  190.0684 C   0  0  0  0  0  0  0  0  0  0  0  0
  154.1414  136.2196  186.9978 C   0  0  0  0  0  0  0  0  0  0  0  0
  154.0336  138.5956  187.1153 O   0  0  0  0  0  0  0  0  0  0  0  0
  154.3018  137.5747  186.4303 C   0  0  0  0  0  0  0  0  0  0  0  0
  154.7623  137.7845  185.0965 N   0  0  0  0  0  0  0  0  0  0  0  0
  155.0053  136.9811  184.4662 H   0  0  0  0  0  0  0  0  0  0  0  0
  154.9037  139.1229  184.5804 C   0  0  0  0  0  0  0  0  0  0  0  0
  153.9670  139.4160  183.4706 C   0  0  0  0  0  0  0  0  0  0  0  0
  153.0329  138.4768  183.1135 C   0  0  0  0  0  0  0  0  0  0  0  0
  152.1279  138.7050  182.0788 C   0  0  0  0  0  0  0  0  0  0  0  0
  152.1646  139.9018  181.3907 C   0  0  0  0  0  0  0  0  0  0  0  0
  153.1147  140.8525  181.7565 C   0  0  0  0  0  0  0  0  0  0  0  0
  154.0114  140.6079  182.7929 C   0  0  0  0  0  0  0  0  0  0  0  0
 24 25  2  0  0  0
 25 23  1  0  0  0
 23  1  1  0  0  0
  1  2  1  0  0  0
  2  3  2  0  0  0
  3  4  1  0  0  0
  4  5  2  0  0  0
  5  6  1  0  0  0
  6  7  2  0  0  0
  7  8  1  0  0  0
  8  9  2  0  0  0
  9 11  1  0  0  0
 11 12  1  0  0  0
 12 13  1  0  0  0
 13 14  1  0  0  0
 14 15  1  0  0  0
 15 16  1  0  0  0
  9 10  1  0  0  0
 10 17  1  0  0  0
 17 18  2  0  0  0
 18 19  1  0  0  0
 19 20  2  0  0  0
 20 21  1  0  0  0
 21 22  2  0  0  0
 25 26  1  0  0  0
 26 28  1  0  0  0
 28 29  1  0  0  0
 29 30  2  0  0  0
 30 31  1  0  0  0
 31 32  2  0  0  0
 32 33  1  0  0  0
 33 34  2  0  0  0
 10  1  1  0  0  0
 22 17  1  0  0  0
 34 29  1  0  0  0
  7  2  1  0  0  0
 16 11  1  0  0  0
 26 27  1  0  0  0
M  END
> <minimizedAffinity>
-7.81221

> <CNNscore>
0.4409067333

> <CNNaffinity>
5.8867998123

> <CNN_VS>
2.5955295563

> <CNNaffinity_variance>
0.0768799633

$$$$
[H]c1c([H])c([H])c(N2C(N3C([H])([H])C([H])([H])C([H])([H])C([H])([H])C3([H])[H])=Nc3c([H])c([H])c([H])c([H])c3C2([H])C([H])([H])C(=O)N([H])C([H])([H])c2c([H])c([H])c([H])c([H])c2[H])c([H])c1[H]


 34 38  0  0  0  0  0  0  0  0999 V2000
  156.4776  135.3922  188.5294 C   0  0  0  0  0  0  0  0  0  0  0  0
  157.6134  134.5775  188.0860 C   0  0  0  0  0  0  0  0  0  0  0  0
  158.9258  134.8081  188.4450 C   0  0  0  0  0  0  0  0  0  0  0  0
  159.9014  133.8853  188.0779 C   0  0  0  0  0  0  0  0  0  0  0  0
  159.5993  132.7499  187.3663 C   0  0  0  0  0  0  0  0  0  0  0  0
  158.3022  132.5120  186.9997 C   0  0  0  0  0  0  0  0  0  0  0  0
  157.3016  133.4391  187.3618 C   0  0  0  0  0  0  0  0  0  0  0  0
  156.0064  133.2625  186.7966 N   0  0  0  0  0  0  0  0  0  0  0  0
  155.0952  134.1810  186.9384 C   0  0  0  0  0  0  0  0  0  0  0  0
  155.4027  135.4017  187.5935 N   0  0  0  0  0  0  0  0  0  0  0  0
  153.8162  133.9379  186.3541 N   0  0  0  0  0  0  0  0  0  0  0  0
  152.7531  133.4822  187.1982 C   0  0  0  0  0  0  0  0  0  0  0  0
  151.4190  134.1361  186.7920 C   0  0  0  0  0  0  0  0  0  0  0  0
  151.2293  133.8012  185.3296 C   0  0  0  0  0  0  0  0  0  0  0  0
  152.2683  134.5149  184.5379 C   0  0  0  0  0  0  0  0  0  0  0  0
  153.6823  134.1810  184.9378 C   0  0  0  0  0  0  0  0  0  0  0  0
  154.6604  136.5705  187.3113 C   0  0  0  0  0  0  0  0  0  0  0  0
  153.5715  136.9655  188.0555 C   0  0  0  0  0  0  0  0  0  0  0  0
  152.8734  138.1079  187.7451 C   0  0  0  0  0  0  0  0  0  0  0  0
  153.2195  138.9119  186.6850 C   0  0  0  0  0  0  0  0  0  0  0  0
  154.3100  138.5123  185.9431 C   0  0  0  0  0  0  0  0  0  0  0  0
  155.0164  137.3798  186.2364 C   0  0  0  0  0  0  0  0  0  0  0  0
  156.7298  136.6235  189.2924 C   0  0  0  0  0  0  0  0  0  0  0  0
  156.6422  137.4616  191.5197 O   0  0  0  0  0  0  0  0  0  0  0  0
  156.2278  136.6186  190.6824 C   0  0  0  0  0  0  0  0  0  0  0  0
  155.2624  135.6697  191.1327 N   0  0  0  0  0  0  0  0  0  0  0  0
  154.8712  134.9369  190.4910 H   0  0  0  0  0  0  0  0  0  0  0  0
  154.7995  135.6983  192.4975 C   0  0  0  0  0  0  0  0  0  0  0  0
  153.3376  135.9123  192.6073 C   0  0  0  0  0  0  0  0  0  0  0  0
  152.6656  135.4172  193.6959 C   0  0  0  0  0  0  0  0  0  0  0  0
  151.2916  135.5939  193.8472 C   0  0  0  0  0  0  0  0  0  0  0  0
  150.5814  136.2825  192.8835 C   0  0  0  0  0  0  0  0  0  0  0  0
  151.2677  136.7834  191.7798 C   0  0  0  0  0  0  0  0  0  0  0  0
  152.6408  136.5976  191.6447 C   0  0  0  0  0  0  0  0  0  0  0  0
 24 25  2  0  0  0
 25 23  1  0  0  0
 23  1  1  0  0  0
  1  2  1  0  0  0
  2  3  2  0  0  0
  3  4  1  0  0  0
  4  5  2  0  0  0
  5  6  1  0  0  0
  6  7  2  0  0  0
  7  8  1  0  0  0
  8  9  2  0  0  0
  9 11  1  0  0  0
 11 12  1  0  0  0
 12 13  1  0  0  0
 13 14  1  0  0  0
 14 15  1  0  0  0
 15 16  1  0  0  0
  9 10  1  0  0  0
 10 17  1  0  0  0
 17 18  2  0  0  0
 18 19  1  0  0  0
 19 20  2  0  0  0
 20 21  1  0  0  0
 21 22  2  0  0  0
 25 26  1  0  0  0
 26 28  1  0  0  0
 28 29  1  0  0  0
 29 30  2  0  0  0
 30 31  1  0  0  0
 31 32  2  0  0  0
 32 33  1  0  0  0
 33 34  2  0  0  0
 10  1  1  0  0  0
 22 17  1  0  0  0
 34 29  1  0  0  0
  7  2  1  0  0  0
 16 11  1  0  0  0
 26 27  1  0  0  0
M  END
> <minimizedAffinity>
-6.47691

> <CNNscore>
0.4235422015

> <CNNaffinity>
5.6481370926

> <CNN_VS>
2.3922243118

> <CNNaffinity_variance>
0.3211445212

$$$$
[H]c1c([H])c([H])c(N2C(N3C([H])([H])C([H])([H])C([H])([H])C([H])([H])C3([H])[H])=Nc3c([H])c([H])c([H])c([H])c3C2([H])C([H])([H])C(=O)N([H])C([H])([H])c2c([H])c([H])c([H])c([H])c2[H])c([H])c1[H]


 34 38  0  0  0  0  0  0  0  0999 V2000
  154.6351  139.6208  183.9982 C   0  0  0  0  0  0  0  0  0  0  0  0
  153.6409  139.0909  183.0596 C   0  0  0  0  0  0  0  0  0  0  0  0
  152.9612  137.9023  183.2321 C   0  0  0  0  0  0  0  0  0  0  0  0
  151.9388  137.5711  182.3471 C   0  0  0  0  0  0  0  0  0  0  0  0
  151.5845  138.3909  181.3035 C   0  0  0  0  0  0  0  0  0  0  0  0
  152.2541  139.5702  181.1184 C   0  0  0  0  0  0  0  0  0  0  0  0
  153.2951  139.9194  182.0052 C   0  0  0  0  0  0  0  0  0  0  0  0
  154.0959  141.0474  181.6671 N   0  0  0  0  0  0  0  0  0  0  0  0
  155.1806  141.3095  182.3370 C   0  0  0  0  0  0  0  0  0  0  0  0
  155.6191  140.4337  183.3638 N   0  0  0  0  0  0  0  0  0  0  0  0
  155.9330  142.4593  181.9516 N   0  0  0  0  0  0  0  0  0  0  0  0
  155.6426  143.7110  182.5835 C   0  0  0  0  0  0  0  0  0  0  0  0
  156.9387  144.5020  182.8425 C   0  0  0  0  0  0  0  0  0  0  0  0
  157.6112  144.6353  181.4946 C   0  0  0  0  0  0  0  0  0  0  0  0
  158.0611  143.2877  181.0505 C   0  0  0  0  0  0  0  0  0  0  0  0
  156.9518  142.2732  180.9465 C   0  0  0  0  0  0  0  0  0  0  0  0
  156.9842  140.3837  183.7254 C   0  0  0  0  0  0  0  0  0  0  0  0
  157.5175  141.1364  184.7476 C   0  0  0  0  0  0  0  0  0  0  0  0
  158.8524  141.0618  185.0652 C   0  0  0  0  0  0  0  0  0  0  0  0
  159.7213  140.2399  184.3872 C   0  0  0  0  0  0  0  0  0  0  0  0
  159.1828  139.4886  183.3650 C   0  0  0  0  0  0  0  0  0  0  0  0
  157.8582  139.5495  183.0347 C   0  0  0  0  0  0  0  0  0  0  0  0
  155.0628  138.7937  185.1361 C   0  0  0  0  0  0  0  0  0  0  0  0
  153.1492  139.4283  186.4035 O   0  0  0  0  0  0  0  0  0  0  0  0
  154.0334  138.5636  186.1712 C   0  0  0  0  0  0  0  0  0  0  0  0
  153.9957  137.3655  186.9447 N   0  0  0  0  0  0  0  0  0  0  0  0
  154.7003  136.5999  186.8068 H   0  0  0  0  0  0  0  0  0  0  0  0
  152.9753  137.1807  187.9459 C   0  0  0  0  0  0  0  0  0  0  0  0
  153.4613  137.4415  189.3210 C   0  0  0  0  0  0  0  0  0  0  0  0
  154.4863  138.3327  189.5139 C   0  0  0  0  0  0  0  0  0  0  0  0
  154.9777  138.6146  190.7871 C   0  0  0  0  0  0  0  0  0  0  0  0
  154.4261  137.9868  191.8866 C   0  0  0  0  0  0  0  0  0  0  0  0
  153.3856  137.0826  191.6860 C   0  0  0  0  0  0  0  0  0  0  0  0
  152.9070  136.8128  190.4069 C   0  0  0  0  0  0  0  0  0  0  0  0
 24 25  2  0  0  0
 25 23  1  0  0  0
 23  1  1  0  0  0
  1  2  1  0  0  0
  2  3  2  0  0  0
  3  4  1  0  0  0
  4  5  2  0  0  0
  5  6  1  0  0  0
  6  7  2  0  0  0
  7  8  1  0  0  0
  8  9  2  0  0  0
  9 11  1  0  0  0
 11 12  1  0  0  0
 12 13  1  0  0  0
 13 14  1  0  0  0
 14 15  1  0  0  0
 15 16  1  0  0  0
  9 10  1  0  0  0
 10 17  1  0  0  0
 17 18  2  0  0  0
 18 19  1  0  0  0
 19 20  2  0  0  0
 20 21  1  0  0  0
 21 22  2  0  0  0
 25 26  1  0  0  0
 26 28  1  0  0  0
 28 29  1  0  0  0
 29 30  2  0  0  0
 30 31  1  0  0  0
 31 32  2  0  0  0
 32 33  1  0  0  0
 33 34  2  0  0  0
 10  1  1  0  0  0
 22 17  1  0  0  0
 34 29  1  0  0  0
  7  2  1  0  0  0
 16 11  1  0  0  0
 26 27  1  0  0  0
M  END
> <minimizedAffinity>
-8.39966

> <CNNscore>
0.4180157185

> <CNNaffinity>
6.4738655090

> <CNN_VS>
2.7061774731

> <CNNaffinity_variance>
0.0714855790

$$$$
[H]c1c([H])c([H])c(N2C(N3C([H])([H])C([H])([H])C([H])([H])C([H])([H])C3([H])[H])=Nc3c([H])c([H])c([H])c([H])c3C2([H])C([H])([H])C(=O)N([H])C([H])([H])c2c([H])c([H])c([H])c([H])c2[H])c([H])c1[H]


 34 38  0  0  0  0  0  0  0  0999 V2000
  151.6745  137.0045  182.6803 C   0  0  0  0  0  0  0  0  0  0  0  0
  151.4135  138.1213  181.7665 C   0  0  0  0  0  0  0  0  0  0  0  0
  152.3471  138.6567  180.9027 C   0  0  0  0  0  0  0  0  0  0  0  0
  151.9451  139.6212  179.9827 C   0  0  0  0  0  0  0  0  0  0  0  0
  150.6456  140.0597  179.9077 C   0  0  0  0  0  0  0  0  0  0  0  0
  149.7110  139.5403  180.7622 C   0  0  0  0  0  0  0  0  0  0  0  0
  150.1028  138.5637  181.7027 C   0  0  0  0  0  0  0  0  0  0  0  0
  149.1560  138.1947  182.7004 N   0  0  0  0  0  0  0  0  0  0  0  0
  149.5136  137.4452  183.7027 C   0  0  0  0  0  0  0  0  0  0  0  0
  150.8674  137.0478  183.8542 N   0  0  0  0  0  0  0  0  0  0  0  0
  148.5140  137.1059  184.6629 N   0  0  0  0  0  0  0  0  0  0  0  0
  147.7804  135.8889  184.4868 C   0  0  0  0  0  0  0  0  0  0  0  0
  147.5309  135.2041  185.8438 C   0  0  0  0  0  0  0  0  0  0  0  0
  146.8205  136.2324  186.6950 C   0  0  0  0  0  0  0  0  0  0  0  0
  147.7658  137.3439  186.9890 C   0  0  0  0  0  0  0  0  0  0  0  0
  148.3186  138.0211  185.7616 C   0  0  0  0  0  0  0  0  0  0  0  0
  151.3755  136.7148  185.1300 C   0  0  0  0  0  0  0  0  0  0  0  0
  151.9792  137.6327  185.9600 C   0  0  0  0  0  0  0  0  0  0  0  0
  152.4643  137.2670  187.1927 C   0  0  0  0  0  0  0  0  0  0  0  0
  152.3751  135.9777  187.6614 C   0  0  0  0  0  0  0  0  0  0  0  0
  151.7702  135.0627  186.8271 C   0  0  0  0  0  0  0  0  0  0  0  0
  151.2819  135.4075  185.5982 C   0  0  0  0  0  0  0  0  0  0  0  0
  153.0448  136.4881  182.8122 C   0  0  0  0  0  0  0  0  0  0  0  0
  152.2799  134.2975  182.2764 O   0  0  0  0  0  0  0  0  0  0  0  0
  153.2452  135.1022  182.3397 C   0  0  0  0  0  0  0  0  0  0  0  0
  154.5264  134.6195  181.9388 N   0  0  0  0  0  0  0  0  0  0  0  0
  155.3776  135.2331  181.9646 H   0  0  0  0  0  0  0  0  0  0  0  0
  154.6795  133.2599  181.4851 C   0  0  0  0  0  0  0  0  0  0  0  0
  156.0712  132.7654  181.6017 C   0  0  0  0  0  0  0  0  0  0  0  0
  156.9349  132.9341  180.5492 C   0  0  0  0  0  0  0  0  0  0  0  0
  158.2542  132.4894  180.6099 C   0  0  0  0  0  0  0  0  0  0  0  0
  158.7119  131.8629  181.7524 C   0  0  0  0  0  0  0  0  0  0  0  0
  157.8315  131.6936  182.8185 C   0  0  0  0  0  0  0  0  0  0  0  0
  156.5166  132.1441  182.7407 C   0  0  0  0  0  0  0  0  0  0  0  0
 24 25  2  0  0  0
 25 23  1  0  0  0
 23  1  1  0  0  0
  1  2  1  0  0  0
  2  3  2  0  0  0
  3  4  1  0  0  0
  4  5  2  0  0  0
  5  6  1  0  0  0
  6  7  2  0  0  0
  7  8  1  0  0  0
  8  9  2  0  0  0
  9 11  1  0  0  0
 11 12  1  0  0  0
 12 13  1  0  0  0
 13 14  1  0  0  0
 14 15  1  0  0  0
 15 16  1  0  0  0
  9 10  1  0  0  0
 10 17  1  0  0  0
 17 18  2  0  0  0
 18 19  1  0  0  0
 19 20  2  0  0  0
 20 21  1  0  0  0
 21 22  2  0  0  0
 25 26  1  0  0  0
 26 28  1  0  0  0
 28 29  1  0  0  0
 29 30  2  0  0  0
 30 31  1  0  0  0
 31 32  2  0  0  0
 32 33  1  0  0  0
 33 34  2  0  0  0
 10  1  1  0  0  0
 22 17  1  0  0  0
 34 29  1  0  0  0
  7  2  1  0  0  0
 16 11  1  0  0  0
 26 27  1  0  0  0
M  END
> <minimizedAffinity>
-6.25450

> <CNNscore>
0.3560095131

> <CNNaffinity>
5.7145738602

> <CNN_VS>
2.0344426632

> <CNNaffinity_variance>
0.1629761159

$$$$
[H]c1c([H])c([H])c(N2C(N3C([H])([H])C([H])([H])C([H])([H])C([H])([H])C3([H])[H])=Nc3c([H])c([H])c([H])c([H])c3C2([H])C([H])([H])C(=O)N([H])C([H])([H])c2c([H])c([H])c([H])c([H])c2[H])c([H])c1[H]


 34 38  0  0  0  0  0  0  0  0999 V2000
  153.8845  136.2455  186.4383 C   0  0  0  0  0  0  0  0  0  0  0  0
  152.9554  135.2016  185.9938 C   0  0  0  0  0  0  0  0  0  0  0  0
  151.7242  135.4461  185.4203 C   0  0  0  0  0  0  0  0  0  0  0  0
  150.9904  134.3791  184.9090 C   0  0  0  0  0  0  0  0  0  0  0  0
  151.4530  133.0867  184.9583 C   0  0  0  0  0  0  0  0  0  0  0  0
  152.6703  132.8302  185.5290 C   0  0  0  0  0  0  0  0  0  0  0  0
  153.4255  133.9004  186.0546 C   0  0  0  0  0  0  0  0  0  0  0  0
  154.5860  133.5758  186.8133 N   0  0  0  0  0  0  0  0  0  0  0  0
  155.2173  134.4991  187.4790 C   0  0  0  0  0  0  0  0  0  0  0  0
  154.7152  135.8259  187.5177 N   0  0  0  0  0  0  0  0  0  0  0  0
  156.3774  134.1081  188.2122 N   0  0  0  0  0  0  0  0  0  0  0  0
  157.6465  134.1319  187.5496 C   0  0  0  0  0  0  0  0  0  0  0  0
  158.7484  134.6279  188.5049 C   0  0  0  0  0  0  0  0  0  0  0  0
  158.6969  133.7045  189.7013 C   0  0  0  0  0  0  0  0  0  0  0  0
  157.4192  133.9368  190.4286 C   0  0  0  0  0  0  0  0  0  0  0  0
  156.1865  133.7207  189.5893 C   0  0  0  0  0  0  0  0  0  0  0  0
  155.0371  136.6801  188.5963 C   0  0  0  0  0  0  0  0  0  0  0  0
  154.2019  136.8759  189.6733 C   0  0  0  0  0  0  0  0  0  0  0  0
  154.5507  137.7192  190.7008 C   0  0  0  0  0  0  0  0  0  0  0  0
  155.7407  138.4076  190.7108 C   0  0  0  0  0  0  0  0  0  0  0  0
  156.5731  138.2085  189.6307 C   0  0  0  0  0  0  0  0  0  0  0  0
  156.2436  137.3741  188.5999 C   0  0  0  0  0  0  0  0  0  0  0  0
  153.4522  137.6506  186.4154 C   0  0  0  0  0  0  0  0  0  0  0  0
  154.8962  139.0127  185.0999 O   0  0  0  0  0  0  0  0  0  0  0  0
  153.8016  138.3985  185.1896 C   0  0  0  0  0  0  0  0  0  0  0  0
  152.9246  138.4576  184.0660 N   0  0  0  0  0  0  0  0  0  0  0  0
  151.9950  137.9702  184.0681 H   0  0  0  0  0  0  0  0  0  0  0  0
  153.3027  139.1995  182.8893 C   0  0  0  0  0  0  0  0  0  0  0  0
  152.2664  139.1711  181.8308 C   0  0  0  0  0  0  0  0  0  0  0  0
  152.4181  139.9621  180.7203 C   0  0  0  0  0  0  0  0  0  0  0  0
  151.4734  139.9697  179.6958 C   0  0  0  0  0  0  0  0  0  0  0  0
  150.3550  139.1653  179.7920 C   0  0  0  0  0  0  0  0  0  0  0  0
  150.2051  138.3639  180.9214 C   0  0  0  0  0  0  0  0  0  0  0  0
  151.1588  138.3687  181.9356 C   0  0  0  0  0  0  0  0  0  0  0  0
 24 25  2  0  0  0
 25 23  1  0  0  0
 23  1  1  0  0  0
  1  2  1  0  0  0
  2  3  2  0  0  0
  3  4  1  0  0  0
  4  5  2  0  0  0
  5  6  1  0  0  0
  6  7  2  0  0  0
  7  8  1  0  0  0
  8  9  2  0  0  0
  9 11  1  0  0  0
 11 12  1  0  0  0
 12 13  1  0  0  0
 13 14  1  0  0  0
 14 15  1  0  0  0
 15 16  1  0  0  0
  9 10  1  0  0  0
 10 17  1  0  0  0
 17 18  2  0  0  0
 18 19  1  0  0  0
 19 20  2  0  0  0
 20 21  1  0  0  0
 21 22  2  0  0  0
 25 26  1  0  0  0
 26 28  1  0  0  0
 28 29  1  0  0  0
 29 30  2  0  0  0
 30 31  1  0  0  0
 31 32  2  0  0  0
 32 33  1  0  0  0
 33 34  2  0  0  0
 10  1  1  0  0  0
 22 17  1  0  0  0
 34 29  1  0  0  0
  7  2  1  0  0  0
 16 11  1  0  0  0
 26 27  1  0  0  0
M  END
> <minimizedAffinity>
-6.79935

> <CNNscore>
0.3394227326

> <CNNaffinity>
5.7012324333

> <CNN_VS>
1.9351278543

> <CNNaffinity_variance>
0.0760954097

$$$$
[H]c1c([H])c([H])c(N2C(N3C([H])([H])C([H])([H])C([H])([H])C([H])([H])C3([H])[H])=Nc3c([H])c([H])c([H])c([H])c3C2([H])C([H])([H])C(=O)N([H])C([H])([H])c2c([H])c([H])c([H])c([H])c2[H])c([H])c1[H]


 34 38  0  0  0  0  0  0  0  0999 V2000
  152.4503  135.6749  190.3453 C   0  0  0  0  0  0  0  0  0  0  0  0
  152.0631  135.6284  191.7589 C   0  0  0  0  0  0  0  0  0  0  0  0
  151.0072  136.3317  192.3018 C   0  0  0  0  0  0  0  0  0  0  0  0
  150.6474  136.0995  193.6266 C   0  0  0  0  0  0  0  0  0  0  0  0
  151.3125  135.1913  194.4137 C   0  0  0  0  0  0  0  0  0  0  0  0
  152.3648  134.4910  193.8887 C   0  0  0  0  0  0  0  0  0  0  0  0
  152.7440  134.7166  192.5481 C   0  0  0  0  0  0  0  0  0  0  0  0
  153.9580  134.1225  192.0995 N   0  0  0  0  0  0  0  0  0  0  0  0
  154.4584  134.4413  190.9410 C   0  0  0  0  0  0  0  0  0  0  0  0
  153.8413  135.4394  190.1429 N   0  0  0  0  0  0  0  0  0  0  0  0
  155.6731  133.8035  190.5484 N   0  0  0  0  0  0  0  0  0  0  0  0
  155.5986  132.6486  189.7052 C   0  0  0  0  0  0  0  0  0  0  0  0
  156.7383  132.6585  188.6690 C   0  0  0  0  0  0  0  0  0  0  0  0
  158.0172  132.7531  189.4704 C   0  0  0  0  0  0  0  0  0  0  0  0
  158.0739  134.0898  190.1226 C   0  0  0  0  0  0  0  0  0  0  0  0
  156.9054  134.3816  191.0282 C   0  0  0  0  0  0  0  0  0  0  0  0
  154.5968  136.1617  189.1921 C   0  0  0  0  0  0  0  0  0  0  0  0
  154.7624  135.7431  187.8909 C   0  0  0  0  0  0  0  0  0  0  0  0
  155.5091  136.4733  186.9976 C   0  0  0  0  0  0  0  0  0  0  0  0
  156.1262  137.6503  187.3495 C   0  0  0  0  0  0  0  0  0  0  0  0
  155.9576  138.0650  188.6528 C   0  0  0  0  0  0  0  0  0  0  0  0
  155.2190  137.3526  189.5552 C   0  0  0  0  0  0  0  0  0  0  0  0
  151.7811  136.6274  189.4471 C   0  0  0  0  0  0  0  0  0  0  0  0
  151.2653  134.8513  187.9469 O   0  0  0  0  0  0  0  0  0  0  0  0
  151.4064  136.0893  188.1227 C   0  0  0  0  0  0  0  0  0  0  0  0
  151.1901  136.9385  186.9969 N   0  0  0  0  0  0  0  0  0  0  0  0
  151.2894  137.9810  187.0677 H   0  0  0  0  0  0  0  0  0  0  0  0
  150.8269  136.3733  185.7216 C   0  0  0  0  0  0  0  0  0  0  0  0
  151.4780  137.0576  184.5801 C   0  0  0  0  0  0  0  0  0  0  0  0
  150.7727  137.2468  183.4187 C   0  0  0  0  0  0  0  0  0  0  0  0
  151.3386  137.8868  182.3178 C   0  0  0  0  0  0  0  0  0  0  0  0
  152.6395  138.3448  182.3883 C   0  0  0  0  0  0  0  0  0  0  0  0
  153.3519  138.1506  183.5694 C   0  0  0  0  0  0  0  0  0  0  0  0
  152.7709  137.5090  184.6597 C   0  0  0  0  0  0  0  0  0  0  0  0
 24 25  2  0  0  0
 25 23  1  0  0  0
 23  1  1  0  0  0
  1  2  1  0  0  0
  2  3  2  0  0  0
  3  4  1  0  0  0
  4  5  2  0  0  0
  5  6  1  0  0  0
  6  7  2  0  0  0
  7  8  1  0  0  0
  8  9  2  0  0  0
  9 11  1  0  0  0
 11 12  1  0  0  0
 12 13  1  0  0  0
 13 14  1  0  0  0
 14 15  1  0  0  0
 15 16  1  0  0  0
  9 10  1  0  0  0
 10 17  1  0  0  0
 17 18  2  0  0  0
 18 19  1  0  0  0
 19 20  2  0  0  0
 20 21  1  0  0  0
 21 22  2  0  0  0
 25 26  1  0  0  0
 26 28  1  0  0  0
 28 29  1  0  0  0
 29 30  2  0  0  0
 30 31  1  0  0  0
 31 32  2  0  0  0
 32 33  1  0  0  0
 33 34  2  0  0  0
 10  1  1  0  0  0
 22 17  1  0  0  0
 34 29  1  0  0  0
  7  2  1  0  0  0
 16 11  1  0  0  0
 26 27  1  0  0  0
M  END
> <minimizedAffinity>
-5.76459

> <CNNscore>
0.3381315172

> <CNNaffinity>
5.7715501785

> <CNN_VS>
1.9515429735

> <CNNaffinity_variance>
0.0568627715

$$$$
[H]c1c([H])c([H])c(N2C(N3C([H])([H])C([H])([H])C([H])([H])C([H])([H])C3([H])[H])=Nc3c([H])c([H])c([H])c([H])c3C2([H])C([H])([H])C(=O)N([H])C([H])([H])c2c([H])c([H])c([H])c([H])c2[H])c([H])c1[H]


 34 38  0  0  0  0  0  0  0  0999 V2000
  153.4348  138.0345  183.4814 C   0  0  0  0  0  0  0  0  0  0  0  0
  152.5034  138.6782  182.5495 C   0  0  0  0  0  0  0  0  0  0  0  0
  152.8591  139.6543  181.6411 C   0  0  0  0  0  0  0  0  0  0  0  0
  151.9190  140.0904  180.7114 C   0  0  0  0  0  0  0  0  0  0  0  0
  150.6444  139.5803  180.6700 C   0  0  0  0  0  0  0  0  0  0  0  0
  150.2774  138.6154  181.5687 C   0  0  0  0  0  0  0  0  0  0  0  0
  151.2179  138.1642  182.5195 C   0  0  0  0  0  0  0  0  0  0  0  0
  150.7456  137.3118  183.5579 N   0  0  0  0  0  0  0  0  0  0  0  0
  151.5134  137.0140  184.5658 C   0  0  0  0  0  0  0  0  0  0  0  0
  152.8036  137.5937  184.6808 N   0  0  0  0  0  0  0  0  0  0  0  0
  150.9814  136.1484  185.5679 N   0  0  0  0  0  0  0  0  0  0  0  0
  151.5049  134.8198  185.6734 C   0  0  0  0  0  0  0  0  0  0  0  0
  151.6194  134.3971  187.1501 C   0  0  0  0  0  0  0  0  0  0  0  0
  150.2320  134.5590  187.7295 C   0  0  0  0  0  0  0  0  0  0  0  0
  149.8961  136.0086  187.7656 C   0  0  0  0  0  0  0  0  0  0  0  0
  149.9473  136.6848  186.4199 C   0  0  0  0  0  0  0  0  0  0  0  0
  153.4189  137.7216  185.9465 C   0  0  0  0  0  0  0  0  0  0  0  0
  153.0188  138.6462  186.8850 C   0  0  0  0  0  0  0  0  0  0  0  0
  153.6469  138.7412  188.1037 C   0  0  0  0  0  0  0  0  0  0  0  0
  154.6990  137.9270  188.4503 C   0  0  0  0  0  0  0  0  0  0  0  0
  155.0958  137.0034  187.5076 C   0  0  0  0  0  0  0  0  0  0  0  0
  154.4836  136.8941  186.2908 C   0  0  0  0  0  0  0  0  0  0  0  0
  154.8144  138.5335  183.5793 C   0  0  0  0  0  0  0  0  0  0  0  0
  154.3399  140.7554  184.2928 O   0  0  0  0  0  0  0  0  0  0  0  0
  154.9616  140.0018  183.4996 C   0  0  0  0  0  0  0  0  0  0  0  0
  155.8048  140.6242  182.5317 N   0  0  0  0  0  0  0  0  0  0  0  0
  156.3541  140.0602  181.8376 H   0  0  0  0  0  0  0  0  0  0  0  0
  155.9195  142.0604  182.4866 C   0  0  0  0  0  0  0  0  0  0  0  0
  157.0728  142.5226  181.6794 C   0  0  0  0  0  0  0  0  0  0  0  0
  157.4993  141.7627  180.6198 C   0  0  0  0  0  0  0  0  0  0  0  0
  158.5772  142.1546  179.8283 C   0  0  0  0  0  0  0  0  0  0  0  0
  159.2377  143.3343  180.1096 C   0  0  0  0  0  0  0  0  0  0  0  0
  158.8014  144.1028  181.1864 C   0  0  0  0  0  0  0  0  0  0  0  0
  157.7226  143.6960  181.9667 C   0  0  0  0  0  0  0  0  0  0  0  0
 24 25  2  0  0  0
 25 23  1  0  0  0
 23  1  1  0  0  0
  1  2  1  0  0  0
  2  3  2  0  0  0
  3  4  1  0  0  0
  4  5  2  0  0  0
  5  6  1  0  0  0
  6  7  2  0  0  0
  7  8  1  0  0  0
  8  9  2  0  0  0
  9 11  1  0  0  0
 11 12  1  0  0  0
 12 13  1  0  0  0
 13 14  1  0  0  0
 14 15  1  0  0  0
 15 16  1  0  0  0
  9 10  1  0  0  0
 10 17  1  0  0  0
 17 18  2  0  0  0
 18 19  1  0  0  0
 19 20  2  0  0  0
 20 21  1  0  0  0
 21 22  2  0  0  0
 25 26  1  0  0  0
 26 28  1  0  0  0
 28 29  1  0  0  0
 29 30  2  0  0  0
 30 31  1  0  0  0
 31 32  2  0  0  0
 32 33  1  0  0  0
 33 34  2  0  0  0
 10  1  1  0  0  0
 22 17  1  0  0  0
 34 29  1  0  0  0
  7  2  1  0  0  0
 16 11  1  0  0  0
 26 27  1  0  0  0
M  END
> <minimizedAffinity>
-8.44336

> <CNNscore>
0.3267734945

> <CNNaffinity>
6.1045203209

> <CNN_VS>
1.9947954416

> <CNNaffinity_variance>
0.0293685403

$$$$
[H]c1c([H])c([H])c(N2C(N3C([H])([H])C([H])([H])C([H])([H])C([H])([H])C3([H])[H])=Nc3c([H])c([H])c([H])c([H])c3C2([H])C([H])([H])C(=O)N([H])C([H])([H])c2c([H])c([H])c([H])c([H])c2[H])c([H])c1[H]


 34 38  0  0  0  0  0  0  0  0999 V2000
  154.2023  139.0115  183.5891 C   0  0  0  0  0  0  0  0  0  0  0  0
  153.1622  139.1832  182.5698 C   0  0  0  0  0  0  0  0  0  0  0  0
  152.8806  140.3763  181.9361 C   0  0  0  0  0  0  0  0  0  0  0  0
  151.9679  140.3869  180.8849 C   0  0  0  0  0  0  0  0  0  0  0  0
  151.3352  139.2450  180.4578 C   0  0  0  0  0  0  0  0  0  0  0  0
  151.6019  138.0560  181.0812 C   0  0  0  0  0  0  0  0  0  0  0  0
  152.5227  138.0286  182.1504 C   0  0  0  0  0  0  0  0  0  0  0  0
  152.6246  136.8217  182.8994 N   0  0  0  0  0  0  0  0  0  0  0  0
  153.3105  136.7887  184.0051 C   0  0  0  0  0  0  0  0  0  0  0  0
  153.9034  137.9719  184.5172 N   0  0  0  0  0  0  0  0  0  0  0  0
  153.3788  135.5457  184.7028 N   0  0  0  0  0  0  0  0  0  0  0  0
  154.5435  134.7298  184.5358 C   0  0  0  0  0  0  0  0  0  0  0  0
  154.9350  134.0632  185.8681 C   0  0  0  0  0  0  0  0  0  0  0  0
  153.7093  133.3003  186.3180 C   0  0  0  0  0  0  0  0  0  0  0  0
  152.6425  134.2764  186.6711 C   0  0  0  0  0  0  0  0  0  0  0  0
  152.2584  135.2007  185.5447 C   0  0  0  0  0  0  0  0  0  0  0  0
  154.1759  138.0942  185.8983 C   0  0  0  0  0  0  0  0  0  0  0  0
  155.4091  137.8219  186.4467 C   0  0  0  0  0  0  0  0  0  0  0  0
  155.6320  137.9494  187.7968 C   0  0  0  0  0  0  0  0  0  0  0  0
  154.6462  138.3518  188.6665 C   0  0  0  0  0  0  0  0  0  0  0  0
  153.4137  138.6231  188.1130 C   0  0  0  0  0  0  0  0  0  0  0  0
  153.1732  138.5020  186.7732 C   0  0  0  0  0  0  0  0  0  0  0  0
  154.9167  140.1932  184.0941 C   0  0  0  0  0  0  0  0  0  0  0  0
  156.4900  140.5394  182.3403 O   0  0  0  0  0  0  0  0  0  0  0  0
  156.2871  140.3734  183.5711 C   0  0  0  0  0  0  0  0  0  0  0  0
  157.4283  140.3676  184.4270 N   0  0  0  0  0  0  0  0  0  0  0  0
  157.3367  140.2346  185.4642 H   0  0  0  0  0  0  0  0  0  0  0  0
  158.7486  140.5455  183.8765 C   0  0  0  0  0  0  0  0  0  0  0  0
  159.6271  141.3711  184.7377 C   0  0  0  0  0  0  0  0  0  0  0  0
  160.8754  141.7188  184.2874 C   0  0  0  0  0  0  0  0  0  0  0  0
  161.7384  142.4957  185.0579 C   0  0  0  0  0  0  0  0  0  0  0  0
  161.3362  142.9304  186.3054 C   0  0  0  0  0  0  0  0  0  0  0  0
  160.0679  142.5749  186.7587 C   0  0  0  0  0  0  0  0  0  0  0  0
  159.2186  141.7980  185.9757 C   0  0  0  0  0  0  0  0  0  0  0  0
 24 25  2  0  0  0
 25 23  1  0  0  0
 23  1  1  0  0  0
  1  2  1  0  0  0
  2  3  2  0  0  0
  3  4  1  0  0  0
  4  5  2  0  0  0
  5  6  1  0  0  0
  6  7  2  0  0  0
  7  8  1  0  0  0
  8  9  2  0  0  0
  9 11  1  0  0  0
 11 12  1  0  0  0
 12 13  1  0  0  0
 13 14  1  0  0  0
 14 15  1  0  0  0
 15 16  1  0  0  0
  9 10  1  0  0  0
 10 17  1  0  0  0
 17 18  2  0  0  0
 18 19  1  0  0  0
 19 20  2  0  0  0
 20 21  1  0  0  0
 21 22  2  0  0  0
 25 26  1  0  0  0
 26 28  1  0  0  0
 28 29  1  0  0  0
 29 30  2  0  0  0
 30 31  1  0  0  0
 31 32  2  0  0  0
 32 33  1  0  0  0
 33 34  2  0  0  0
 10  1  1  0  0  0
 22 17  1  0  0  0
 34 29  1  0  0  0
  7  2  1  0  0  0
 16 11  1  0  0  0
 26 27  1  0  0  0
M  END
> <minimizedAffinity>
-9.79903

> <CNNscore>
0.3086224794

> <CNNaffinity>
6.1501731873

> <CNN_VS>
1.8980816603

> <CNNaffinity_variance>
0.0746212229

$$$$
[H]c1c([H])c([H])c(C([H])(N2C([H])([H])C([H])([H])N(C([H])([H])C#N)C([H])([H])C2([H])[H])C([H])([H])OC([H])([H])c2c([H])c(C(F)(F)F)c([H])c(C(F)(F)F)c2[H])c([H])c1[H]


 33 35  0  0  0  0  0  0  0  0999 V2000
  154.9781  137.5276  185.7424 C   0  0  0  0  0  0  0  0  0  0  0  0
  154.3563  136.8524  186.9179 C   0  0  0  0  0  0  0  0  0  0  0  0
  150.1785  136.7681  186.4170 N   0  0  0  0  0  0  0  0  0  0  0  0
  150.7373  136.2489  187.6124 C   0  0  0  0  0  0  0  0  0  0  0  0
  152.1951  135.8406  187.4190 C   0  0  0  0  0  0  0  0  0  0  0  0
  152.9518  136.8979  186.8593 N   0  0  0  0  0  0  0  0  0  0  0  0
  152.3931  137.6112  185.7650 C   0  0  0  0  0  0  0  0  0  0  0  0
  151.1060  136.9488  185.3530 C   0  0  0  0  0  0  0  0  0  0  0  0
  148.8593  136.3845  186.0781 C   0  0  0  0  0  0  0  0  0  0  0  0
  147.3178  138.5377  185.9852 N   0  0  0  0  0  0  0  0  0  0  0  0
  148.0066  137.5832  186.0365 C   0  0  0  0  0  0  0  0  0  0  0  0
  154.9587  137.3854  188.1654 C   0  0  0  0  0  0  0  0  0  0  0  0
  156.2215  137.0628  188.6107 C   0  0  0  0  0  0  0  0  0  0  0  0
  156.7303  137.5514  189.7988 C   0  0  0  0  0  0  0  0  0  0  0  0
  155.9928  138.3902  190.6006 C   0  0  0  0  0  0  0  0  0  0  0  0
  154.7230  138.7281  190.1688 C   0  0  0  0  0  0  0  0  0  0  0  0
  154.2273  138.2299  188.9773 C   0  0  0  0  0  0  0  0  0  0  0  0
  155.2247  138.8893  185.8978 O   0  0  0  0  0  0  0  0  0  0  0  0
  156.4450  139.0798  185.2006 C   0  0  0  0  0  0  0  0  0  0  0  0
  156.5066  140.3093  184.4356 C   0  0  0  0  0  0  0  0  0  0  0  0
  157.7597  140.8257  184.0376 C   0  0  0  0  0  0  0  0  0  0  0  0
  157.8887  141.9717  183.3141 C   0  0  0  0  0  0  0  0  0  0  0  0
  156.7637  142.6677  182.9469 C   0  0  0  0  0  0  0  0  0  0  0  0
  155.5358  142.1797  183.3263 C   0  0  0  0  0  0  0  0  0  0  0  0
  155.3866  141.0055  184.0680 C   0  0  0  0  0  0  0  0  0  0  0  0
  159.2136  142.5194  182.8945 C   0  0  0  0  0  0  0  0  0  0  0  0
  159.6381  143.5082  183.7149 F   0  0  0  0  0  0  0  0  0  0  0  0
  159.0516  142.9441  181.5833 F   0  0  0  0  0  0  0  0  0  0  0  0
  160.0896  141.4464  182.8418 F   0  0  0  0  0  0  0  0  0  0  0  0
  154.3420  142.9718  182.8895 C   0  0  0  0  0  0  0  0  0  0  0  0
  153.7446  143.5832  183.9998 F   0  0  0  0  0  0  0  0  0  0  0  0
  154.8028  143.9577  182.0560 F   0  0  0  0  0  0  0  0  0  0  0  0
  153.3786  142.2002  182.2742 F   0  0  0  0  0  0  0  0  0  0  0  0
 10 11  3  0  0  0
 11  9  1  0  0  0
  9  3  1  0  0  0
  3  4  1  0  0  0
  4  5  1  0  0  0
  5  6  1  0  0  0
  6  2  1  0  0  0
  2  1  1  0  0  0
  1 18  1  0  0  0
 18 19  1  0  0  0
 19 20  1  0  0  0
 20 21  2  0  0  0
 21 22  1  0  0  0
 22 26  1  0  0  0
 26 27  1  0  0  0
 26 28  1  0  0  0
 26 29  1  0  0  0
 22 23  2  0  0  0
 23 24  1  0  0  0
 24 30  1  0  0  0
 30 31  1  0  0  0
 30 32  1  0  0  0
 30 33  1  0  0  0
 24 25  2  0  0  0
  2 12  1  0  0  0
 12 13  2  0  0  0
 13 14  1  0  0  0
 14 15  2  0  0  0
 15 16  1  0  0  0
 16 17  2  0  0  0
  6  7  1  0  0  0
  7  8  1  0  0  0
  8  3  1  0  0  0
 25 20  1  0  0  0
 17 12  1  0  0  0
M  END
> <minimizedAffinity>
-7.71720

> <CNNscore>
0.5311931968

> <CNNaffinity>
6.1690135002

> <CNN_VS>
3.2769379616

> <CNNaffinity_variance>
0.1478639990

$$$$
[H]c1c([H])c([H])c(C([H])(N2C([H])([H])C([H])([H])N(C([H])([H])C#N)C([H])([H])C2([H])[H])C([H])([H])OC([H])([H])c2c([H])c(C(F)(F)F)c([H])c(C(F)(F)F)c2[H])c([H])c1[H]


 33 35  0  0  0  0  0  0  0  0999 V2000
  154.3262  138.4973  186.7669 C   0  0  0  0  0  0  0  0  0  0  0  0
  154.1595  137.2416  187.5541 C   0  0  0  0  0  0  0  0  0  0  0  0
  150.1001  136.1375  187.6743 N   0  0  0  0  0  0  0  0  0  0  0  0
  151.0118  135.4986  188.5526 C   0  0  0  0  0  0  0  0  0  0  0  0
  152.4432  135.5760  188.0290 C   0  0  0  0  0  0  0  0  0  0  0  0
  152.8029  136.9099  187.7206 N   0  0  0  0  0  0  0  0  0  0  0  0
  151.8710  137.7018  186.9975 C   0  0  0  0  0  0  0  0  0  0  0  0
  150.7039  136.8410  186.5946 C   0  0  0  0  0  0  0  0  0  0  0  0
  148.8572  135.5065  187.4316 C   0  0  0  0  0  0  0  0  0  0  0  0
  146.9969  137.3669  187.1170 N   0  0  0  0  0  0  0  0  0  0  0  0
  147.8197  136.5371  187.2666 C   0  0  0  0  0  0  0  0  0  0  0  0
  154.9490  137.3396  188.8073 C   0  0  0  0  0  0  0  0  0  0  0  0
  155.8750  136.4031  189.2104 C   0  0  0  0  0  0  0  0  0  0  0  0
  156.5612  136.5129  190.4046 C   0  0  0  0  0  0  0  0  0  0  0  0
  156.3496  137.5720  191.2554 C   0  0  0  0  0  0  0  0  0  0  0  0
  155.4253  138.5246  190.8667 C   0  0  0  0  0  0  0  0  0  0  0  0
  154.7456  138.4000  189.6683 C   0  0  0  0  0  0  0  0  0  0  0  0
  155.3226  138.4643  185.7946 O   0  0  0  0  0  0  0  0  0  0  0  0
  154.6259  138.0533  184.6297 C   0  0  0  0  0  0  0  0  0  0  0  0
  154.1891  139.1450  183.7823 C   0  0  0  0  0  0  0  0  0  0  0  0
  153.2384  138.9064  182.7652 C   0  0  0  0  0  0  0  0  0  0  0  0
  152.7817  139.8866  181.9382 C   0  0  0  0  0  0  0  0  0  0  0  0
  153.2543  141.1672  182.0848 C   0  0  0  0  0  0  0  0  0  0  0  0
  154.1805  141.4173  183.0694 C   0  0  0  0  0  0  0  0  0  0  0  0
  154.6585  140.4229  183.9262 C   0  0  0  0  0  0  0  0  0  0  0  0
  151.7778  139.6345  180.8611 C   0  0  0  0  0  0  0  0  0  0  0  0
  150.7239  138.9123  181.3070 F   0  0  0  0  0  0  0  0  0  0  0  0
  152.4683  138.9989  179.8388 F   0  0  0  0  0  0  0  0  0  0  0  0
  151.4114  140.8739  180.3600 F   0  0  0  0  0  0  0  0  0  0  0  0
  154.6535  142.8330  183.1928 C   0  0  0  0  0  0  0  0  0  0  0  0
  154.1689  143.5917  182.1190 F   0  0  0  0  0  0  0  0  0  0  0  0
  154.1116  143.3336  184.3480 F   0  0  0  0  0  0  0  0  0  0  0  0
  156.0282  142.9444  183.1906 F   0  0  0  0  0  0  0  0  0  0  0  0
 10 11  3  0  0  0
 11  9  1  0  0  0
  9  3  1  0  0  0
  3  4  1  0  0  0
  4  5  1  0  0  0
  5  6  1  0  0  0
  6  2  1  0  0  0
  2  1  1  0  0  0
  1 18  1  0  0  0
 18 19  1  0  0  0
 19 20  1  0  0  0
 20 21  2  0  0  0
 21 22  1  0  0  0
 22 26  1  0  0  0
 26 27  1  0  0  0
 26 28  1  0  0  0
 26 29  1  0  0  0
 22 23  2  0  0  0
 23 24  1  0  0  0
 24 30  1  0  0  0
 30 31  1  0  0  0
 30 32  1  0  0  0
 30 33  1  0  0  0
 24 25  2  0  0  0
  2 12  1  0  0  0
 12 13  2  0  0  0
 13 14  1  0  0  0
 14 15  2  0  0  0
 15 16  1  0  0  0
 16 17  2  0  0  0
  6  7  1  0  0  0
  7  8  1  0  0  0
  8  3  1  0  0  0
 25 20  1  0  0  0
 17 12  1  0  0  0
M  END
> <minimizedAffinity>
-7.76151

> <CNNscore>
0.5311545134

> <CNNaffinity>
5.7778015137

> <CNN_VS>
3.0689053535

> <CNNaffinity_variance>
0.2852624059

$$$$
[H]c1c([H])c([H])c(C([H])(N2C([H])([H])C([H])([H])N(C([H])([H])C#N)C([H])([H])C2([H])[H])C([H])([H])OC([H])([H])c2c([H])c(C(F)(F)F)c([H])c(C(F)(F)F)c2[H])c([H])c1[H]


 33 35  0  0  0  0  0  0  0  0999 V2000
  155.6423  139.9821  184.2459 C   0  0  0  0  0  0  0  0  0  0  0  0
  154.8846  138.7173  184.4704 C   0  0  0  0  0  0  0  0  0  0  0  0
  151.5580  138.6022  181.8950 N   0  0  0  0  0  0  0  0  0  0  0  0
  151.7171  137.5732  182.8577 C   0  0  0  0  0  0  0  0  0  0  0  0
  153.1719  137.4372  183.2985 C   0  0  0  0  0  0  0  0  0  0  0  0
  153.6972  138.6832  183.7174 N   0  0  0  0  0  0  0  0  0  0  0  0
  153.4334  139.8231  182.9115 C   0  0  0  0  0  0  0  0  0  0  0  0
  152.7228  139.3850  181.6591 C   0  0  0  0  0  0  0  0  0  0  0  0
  150.6987  138.3591  180.7975 C   0  0  0  0  0  0  0  0  0  0  0  0
  151.0920  140.2170  178.9497 N   0  0  0  0  0  0  0  0  0  0  0  0
  150.9278  139.3887  179.7713 C   0  0  0  0  0  0  0  0  0  0  0  0
  154.7197  138.4964  185.9290 C   0  0  0  0  0  0  0  0  0  0  0  0
  153.5430  138.7089  186.6126 C   0  0  0  0  0  0  0  0  0  0  0  0
  153.4424  138.5280  187.9788 C   0  0  0  0  0  0  0  0  0  0  0  0
  154.5225  138.1241  188.7275 C   0  0  0  0  0  0  0  0  0  0  0  0
  155.7125  137.9028  188.0583 C   0  0  0  0  0  0  0  0  0  0  0  0
  155.7976  138.0893  186.6902 C   0  0  0  0  0  0  0  0  0  0  0  0
  156.6671  139.9052  183.3061 O   0  0  0  0  0  0  0  0  0  0  0  0
  157.8370  139.8479  184.1057 C   0  0  0  0  0  0  0  0  0  0  0  0
  158.6072  141.0756  184.1210 C   0  0  0  0  0  0  0  0  0  0  0  0
  158.4175  142.0353  183.1021 C   0  0  0  0  0  0  0  0  0  0  0  0
  159.1035  143.2105  183.0592 C   0  0  0  0  0  0  0  0  0  0  0  0
  160.0223  143.4912  184.0399 C   0  0  0  0  0  0  0  0  0  0  0  0
  160.2200  142.5680  185.0391 C   0  0  0  0  0  0  0  0  0  0  0  0
  159.5240  141.3584  185.0975 C   0  0  0  0  0  0  0  0  0  0  0  0
  158.9048  144.2250  181.9809 C   0  0  0  0  0  0  0  0  0  0  0  0
  159.2787  143.7574  180.7674 F   0  0  0  0  0  0  0  0  0  0  0  0
  159.6303  145.3418  182.3711 F   0  0  0  0  0  0  0  0  0  0  0  0
  157.5715  144.6012  182.0286 F   0  0  0  0  0  0  0  0  0  0  0  0
  161.2250  142.9300  186.0890 C   0  0  0  0  0  0  0  0  0  0  0  0
  161.5619  144.2855  185.9777 F   0  0  0  0  0  0  0  0  0  0  0  0
  160.6175  142.7395  187.3029 F   0  0  0  0  0  0  0  0  0  0  0  0
  162.3936  142.2040  185.9901 F   0  0  0  0  0  0  0  0  0  0  0  0
 10 11  3  0  0  0
 11  9  1  0  0  0
  9  3  1  0  0  0
  3  4  1  0  0  0
  4  5  1  0  0  0
  5  6  1  0  0  0
  6  2  1  0  0  0
  2  1  1  0  0  0
  1 18  1  0  0  0
 18 19  1  0  0  0
 19 20  1  0  0  0
 20 21  2  0  0  0
 21 22  1  0  0  0
 22 26  1  0  0  0
 26 27  1  0  0  0
 26 28  1  0  0  0
 26 29  1  0  0  0
 22 23  2  0  0  0
 23 24  1  0  0  0
 24 30  1  0  0  0
 30 31  1  0  0  0
 30 32  1  0  0  0
 30 33  1  0  0  0
 24 25  2  0  0  0
  2 12  1  0  0  0
 12 13  2  0  0  0
 13 14  1  0  0  0
 14 15  2  0  0  0
 15 16  1  0  0  0
 16 17  2  0  0  0
  6  7  1  0  0  0
  7  8  1  0  0  0
  8  3  1  0  0  0
 25 20  1  0  0  0
 17 12  1  0  0  0
M  END
> <minimizedAffinity>
-9.24323

> <CNNscore>
0.5219612122

> <CNNaffinity>
6.5365495682

> <CNN_VS>
3.4118254185

> <CNNaffinity_variance>
0.0892596915

$$$$
[H]c1c([H])c([H])c(C([H])(N2C([H])([H])C([H])([H])N(C([H])([H])C#N)C([H])([H])C2([H])[H])C([H])([H])OC([H])([H])c2c([H])c(C(F)(F)F)c([H])c(C(F)(F)F)c2[H])c([H])c1[H]


 33 35  0  0  0  0  0  0  0  0999 V2000
  154.1267  138.6220  186.3443 C   0  0  0  0  0  0  0  0  0  0  0  0
  154.1925  137.3643  187.1432 C   0  0  0  0  0  0  0  0  0  0  0  0
  150.3776  135.7465  187.8789 N   0  0  0  0  0  0  0  0  0  0  0  0
  150.5671  136.5674  186.7383 C   0  0  0  0  0  0  0  0  0  0  0  0
  151.7692  137.4926  186.9062 C   0  0  0  0  0  0  0  0  0  0  0  0
  152.9268  136.7646  187.2717 N   0  0  0  0  0  0  0  0  0  0  0  0
  152.8014  135.7773  188.2855 C   0  0  0  0  0  0  0  0  0  0  0  0
  151.4094  135.8328  188.8552 C   0  0  0  0  0  0  0  0  0  0  0  0
  149.0554  135.5426  188.3394 C   0  0  0  0  0  0  0  0  0  0  0  0
  147.4864  137.4577  187.3952 N   0  0  0  0  0  0  0  0  0  0  0  0
  148.1926  136.6108  187.8101 C   0  0  0  0  0  0  0  0  0  0  0  0
  154.9034  137.6299  188.4189 C   0  0  0  0  0  0  0  0  0  0  0  0
  156.0897  137.0302  188.7796 C   0  0  0  0  0  0  0  0  0  0  0  0
  156.6994  137.2766  189.9949 C   0  0  0  0  0  0  0  0  0  0  0  0
  156.1451  138.1397  190.9104 C   0  0  0  0  0  0  0  0  0  0  0  0
  154.9550  138.7540  190.5650 C   0  0  0  0  0  0  0  0  0  0  0  0
  154.3564  138.4962  189.3448 C   0  0  0  0  0  0  0  0  0  0  0  0
  155.2316  138.8736  185.5350 O   0  0  0  0  0  0  0  0  0  0  0  0
  154.8285  138.3731  184.2707 C   0  0  0  0  0  0  0  0  0  0  0  0
  154.1752  139.3522  183.4249 C   0  0  0  0  0  0  0  0  0  0  0  0
  154.5191  140.7175  183.5376 C   0  0  0  0  0  0  0  0  0  0  0  0
  153.9484  141.6873  182.7712 C   0  0  0  0  0  0  0  0  0  0  0  0
  152.9967  141.3414  181.8442 C   0  0  0  0  0  0  0  0  0  0  0  0
  152.6495  140.0169  181.7214 C   0  0  0  0  0  0  0  0  0  0  0  0
  153.2259  139.0103  182.4996 C   0  0  0  0  0  0  0  0  0  0  0  0
  154.3102  143.1316  182.8913 C   0  0  0  0  0  0  0  0  0  0  0  0
  155.3314  143.4702  182.0706 F   0  0  0  0  0  0  0  0  0  0  0  0
  154.6086  143.3388  184.2308 F   0  0  0  0  0  0  0  0  0  0  0  0
  153.1536  143.8540  182.6427 F   0  0  0  0  0  0  0  0  0  0  0  0
  151.6150  139.6942  180.6874 C   0  0  0  0  0  0  0  0  0  0  0  0
  150.5513  139.0002  181.2792 F   0  0  0  0  0  0  0  0  0  0  0  0
  151.1362  140.8897  180.2180 F   0  0  0  0  0  0  0  0  0  0  0  0
  152.1025  138.9089  179.6637 F   0  0  0  0  0  0  0  0  0  0  0  0
 10 11  3  0  0  0
 11  9  1  0  0  0
  9  3  1  0  0  0
  3  4  1  0  0  0
  4  5  1  0  0  0
  5  6  1  0  0  0
  6  2  1  0  0  0
  2  1  1  0  0  0
  1 18  1  0  0  0
 18 19  1  0  0  0
 19 20  1  0  0  0
 20 21  2  0  0  0
 21 22  1  0  0  0
 22 26  1  0  0  0
 26 27  1  0  0  0
 26 28  1  0  0  0
 26 29  1  0  0  0
 22 23  2  0  0  0
 23 24  1  0  0  0
 24 30  1  0  0  0
 30 31  1  0  0  0
 30 32  1  0  0  0
 30 33  1  0  0  0
 24 25  2  0  0  0
  2 12  1  0  0  0
 12 13  2  0  0  0
 13 14  1  0  0  0
 14 15  2  0  0  0
 15 16  1  0  0  0
 16 17  2  0  0  0
  6  7  1  0  0  0
  7  8  1  0  0  0
  8  3  1  0  0  0
 25 20  1  0  0  0
 17 12  1  0  0  0
M  END
> <minimizedAffinity>
-8.14734

> <CNNscore>
0.5167668462

> <CNNaffinity>
5.8215541840

> <CNN_VS>
3.0083861351

> <CNNaffinity_variance>
0.2806091607

$$$$
[H]c1c([H])c([H])c(C([H])(N2C([H])([H])C([H])([H])N(C([H])([H])C#N)C([H])([H])C2([H])[H])C([H])([H])OC([H])([H])c2c([H])c(C(F)(F)F)c([H])c(C(F)(F)F)c2[H])c([H])c1[H]


 33 35  0  0  0  0  0  0  0  0999 V2000
  156.0338  139.1943  184.3896 C   0  0  0  0  0  0  0  0  0  0  0  0
  154.6075  139.2725  184.8182 C   0  0  0  0  0  0  0  0  0  0  0  0
  154.1147  137.2627  188.4829 N   0  0  0  0  0  0  0  0  0  0  0  0
  152.9645  137.7141  187.7872 C   0  0  0  0  0  0  0  0  0  0  0  0
  153.2986  138.8575  186.8331 C   0  0  0  0  0  0  0  0  0  0  0  0
  154.3717  138.5115  185.9773 N   0  0  0  0  0  0  0  0  0  0  0  0
  155.5059  137.8781  186.5525 C   0  0  0  0  0  0  0  0  0  0  0  0
  155.3408  137.8394  188.0480 C   0  0  0  0  0  0  0  0  0  0  0  0
  153.9841  136.9618  189.8593 C   0  0  0  0  0  0  0  0  0  0  0  0
  155.0818  138.9190  191.2683 N   0  0  0  0  0  0  0  0  0  0  0  0
  154.5998  138.0415  190.6472 C   0  0  0  0  0  0  0  0  0  0  0  0
  153.7300  138.9601  183.6625 C   0  0  0  0  0  0  0  0  0  0  0  0
  153.2527  137.7004  183.3753 C   0  0  0  0  0  0  0  0  0  0  0  0
  152.4691  137.4453  182.2662 C   0  0  0  0  0  0  0  0  0  0  0  0
  152.1258  138.4463  181.3884 C   0  0  0  0  0  0  0  0  0  0  0  0
  152.5934  139.7191  181.6615 C   0  0  0  0  0  0  0  0  0  0  0  0
  153.3779  139.9583  182.7755 C   0  0  0  0  0  0  0  0  0  0  0  0
  156.4418  140.1769  183.4910 O   0  0  0  0  0  0  0  0  0  0  0  0
  157.8457  139.9891  183.4202 C   0  0  0  0  0  0  0  0  0  0  0  0
  158.6176  141.2016  183.6068 C   0  0  0  0  0  0  0  0  0  0  0  0
  158.3752  142.3216  182.7809 C   0  0  0  0  0  0  0  0  0  0  0  0
  159.0598  143.4917  182.9057 C   0  0  0  0  0  0  0  0  0  0  0  0
  160.0303  143.6057  183.8700 C   0  0  0  0  0  0  0  0  0  0  0  0
  160.2797  142.5252  184.6825 C   0  0  0  0  0  0  0  0  0  0  0  0
  159.5859  141.3183  184.5676 C   0  0  0  0  0  0  0  0  0  0  0  0
  158.8053  144.6758  182.0312 C   0  0  0  0  0  0  0  0  0  0  0  0
  157.5605  145.1775  182.2040 F   0  0  0  0  0  0  0  0  0  0  0  0
  159.0334  144.2450  180.7318 F   0  0  0  0  0  0  0  0  0  0  0  0
  159.8034  145.5971  182.3078 F   0  0  0  0  0  0  0  0  0  0  0  0
  161.3401  142.7079  185.7244 C   0  0  0  0  0  0  0  0  0  0  0  0
  161.5707  144.0740  185.9339 F   0  0  0  0  0  0  0  0  0  0  0  0
  160.8497  142.1745  186.8880 F   0  0  0  0  0  0  0  0  0  0  0  0
  162.5445  142.1341  185.3745 F   0  0  0  0  0  0  0  0  0  0  0  0
 10 11  3  0  0  0
 11  9  1  0  0  0
  9  3  1  0  0  0
  3  4  1  0  0  0
  4  5  1  0  0  0
  5  6  1  0  0  0
  6  2  1  0  0  0
  2  1  1  0  0  0
  1 18  1  0  0  0
 18 19  1  0  0  0
 19 20  1  0  0  0
 20 21  2  0  0  0
 21 22  1  0  0  0
 22 26  1  0  0  0
 26 27  1  0  0  0
 26 28  1  0  0  0
 26 29  1  0  0  0
 22 23  2  0  0  0
 23 24  1  0  0  0
 24 30  1  0  0  0
 30 31  1  0  0  0
 30 32  1  0  0  0
 30 33  1  0  0  0
 24 25  2  0  0  0
  2 12  1  0  0  0
 12 13  2  0  0  0
 13 14  1  0  0  0
 14 15  2  0  0  0
 15 16  1  0  0  0
 16 17  2  0  0  0
  6  7  1  0  0  0
  7  8  1  0  0  0
  8  3  1  0  0  0
 25 20  1  0  0  0
 17 12  1  0  0  0
M  END
> <minimizedAffinity>
-8.58622

> <CNNscore>
0.5162897110

> <CNNaffinity>
6.5310845375

> <CNN_VS>
3.3719317913

> <CNNaffinity_variance>
0.0983673111

$$$$
[H]c1c([H])c([H])c(C([H])(N2C([H])([H])C([H])([H])N(C([H])([H])C#N)C([H])([H])C2([H])[H])C([H])([H])OC([H])([H])c2c([H])c(C(F)(F)F)c([H])c(C(F)(F)F)c2[H])c([H])c1[H]


 33 35  0  0  0  0  0  0  0  0999 V2000
  155.6909  139.8965  184.2658 C   0  0  0  0  0  0  0  0  0  0  0  0
  154.9062  138.6527  184.5141 C   0  0  0  0  0  0  0  0  0  0  0  0
  151.5914  138.5589  181.9227 N   0  0  0  0  0  0  0  0  0  0  0  0
  151.7397  137.5285  182.8856 C   0  0  0  0  0  0  0  0  0  0  0  0
  153.1915  137.3836  183.3333 C   0  0  0  0  0  0  0  0  0  0  0  0
  153.7223  138.6261  183.7554 N   0  0  0  0  0  0  0  0  0  0  0  0
  153.4691  139.7681  182.9489 C   0  0  0  0  0  0  0  0  0  0  0  0
  152.7619  139.3349  181.6929 C   0  0  0  0  0  0  0  0  0  0  0  0
  150.7359  138.3216  180.8210 C   0  0  0  0  0  0  0  0  0  0  0  0
  151.1243  140.2020  178.9949 N   0  0  0  0  0  0  0  0  0  0  0  0
  150.9617  139.3622  179.8051 C   0  0  0  0  0  0  0  0  0  0  0  0
  154.7293  138.4678  185.9763 C   0  0  0  0  0  0  0  0  0  0  0  0
  153.5533  138.7182  186.6482 C   0  0  0  0  0  0  0  0  0  0  0  0
  153.4420  138.5700  188.0174 C   0  0  0  0  0  0  0  0  0  0  0  0
  154.5100  138.1621  188.7812 C   0  0  0  0  0  0  0  0  0  0  0  0
  155.6991  137.9030  188.1239 C   0  0  0  0  0  0  0  0  0  0  0  0
  155.7950  138.0571  186.7525 C   0  0  0  0  0  0  0  0  0  0  0  0
  156.7838  139.7529  183.4149 O   0  0  0  0  0  0  0  0  0  0  0  0
  157.8938  139.8656  184.2905 C   0  0  0  0  0  0  0  0  0  0  0  0
  158.6221  141.1128  184.1693 C   0  0  0  0  0  0  0  0  0  0  0  0
  159.6297  141.4307  185.1068 C   0  0  0  0  0  0  0  0  0  0  0  0
  160.3545  142.5816  185.0484 C   0  0  0  0  0  0  0  0  0  0  0  0
  160.1091  143.4829  184.0422 C   0  0  0  0  0  0  0  0  0  0  0  0
  159.1313  143.1898  183.1213 C   0  0  0  0  0  0  0  0  0  0  0  0
  158.3796  142.0134  183.1672 C   0  0  0  0  0  0  0  0  0  0  0  0
  161.4189  142.9193  186.0406 C   0  0  0  0  0  0  0  0  0  0  0  0
  162.5738  142.2594  185.7920 F   0  0  0  0  0  0  0  0  0  0  0  0
  160.8871  142.6173  187.2864 F   0  0  0  0  0  0  0  0  0  0  0  0
  161.5663  144.2973  186.0133 F   0  0  0  0  0  0  0  0  0  0  0  0
  158.9130  144.2018  182.0390 C   0  0  0  0  0  0  0  0  0  0  0  0
  157.5578  144.5537  181.9831 F   0  0  0  0  0  0  0  0  0  0  0  0
  159.6295  145.3172  182.3877 F   0  0  0  0  0  0  0  0  0  0  0  0
  159.2725  143.7413  180.7896 F   0  0  0  0  0  0  0  0  0  0  0  0
 10 11  3  0  0  0
 11  9  1  0  0  0
  9  3  1  0  0  0
  3  4  1  0  0  0
  4  5  1  0  0  0
  5  6  1  0  0  0
  6  2  1  0  0  0
  2  1  1  0  0  0
  1 18  1  0  0  0
 18 19  1  0  0  0
 19 20  1  0  0  0
 20 21  2  0  0  0
 21 22  1  0  0  0
 22 26  1  0  0  0
 26 27  1  0  0  0
 26 28  1  0  0  0
 26 29  1  0  0  0
 22 23  2  0  0  0
 23 24  1  0  0  0
 24 30  1  0  0  0
 30 31  1  0  0  0
 30 32  1  0  0  0
 30 33  1  0  0  0
 24 25  2  0  0  0
  2 12  1  0  0  0
 12 13  2  0  0  0
 13 14  1  0  0  0
 14 15  2  0  0  0
 15 16  1  0  0  0
 16 17  2  0  0  0
  6  7  1  0  0  0
  7  8  1  0  0  0
  8  3  1  0  0  0
 25 20  1  0  0  0
 17 12  1  0  0  0
M  END
> <minimizedAffinity>
-9.26934

> <CNNscore>
0.5071082115

> <CNNaffinity>
6.5090417862

> <CNN_VS>
3.3007886410

> <CNNaffinity_variance>
0.0870150775

$$$$
[H]c1c([H])c([H])c(C([H])(N2C([H])([H])C([H])([H])N(C([H])([H])C#N)C([H])([H])C2([H])[H])C([H])([H])OC([H])([H])c2c([H])c(C(F)(F)F)c([H])c(C(F)(F)F)c2[H])c([H])c1[H]


 33 35  0  0  0  0  0  0  0  0999 V2000
  153.6135  138.3846  186.6010 C   0  0  0  0  0  0  0  0  0  0  0  0
  154.5043  137.2882  187.0793 C   0  0  0  0  0  0  0  0  0  0  0  0
  152.4585  133.6656  186.4440 N   0  0  0  0  0  0  0  0  0  0  0  0
  153.8764  133.6635  186.4389 C   0  0  0  0  0  0  0  0  0  0  0  0
  154.4385  135.0466  186.1221 C   0  0  0  0  0  0  0  0  0  0  0  0
  153.8823  136.0312  186.9736 N   0  0  0  0  0  0  0  0  0  0  0  0
  152.4792  136.0057  187.1953 C   0  0  0  0  0  0  0  0  0  0  0  0
  151.8624  134.9515  186.3158 C   0  0  0  0  0  0  0  0  0  0  0  0
  151.7895  132.5710  185.8470 C   0  0  0  0  0  0  0  0  0  0  0  0
  149.3517  132.4084  186.8724 N   0  0  0  0  0  0  0  0  0  0  0  0
  150.4333  132.4725  186.4097 C   0  0  0  0  0  0  0  0  0  0  0  0
  155.0230  137.6302  188.4274 C   0  0  0  0  0  0  0  0  0  0  0  0
  154.3589  138.4334  189.3279 C   0  0  0  0  0  0  0  0  0  0  0  0
  154.8953  138.7588  190.5590 C   0  0  0  0  0  0  0  0  0  0  0  0
  156.1292  138.2923  190.9467 C   0  0  0  0  0  0  0  0  0  0  0  0
  156.8104  137.4817  190.0568 C   0  0  0  0  0  0  0  0  0  0  0  0
  156.2605  137.1657  188.8274 C   0  0  0  0  0  0  0  0  0  0  0  0
  153.6787  138.6542  185.2364 O   0  0  0  0  0  0  0  0  0  0  0  0
  155.0704  138.6213  184.9652 C   0  0  0  0  0  0  0  0  0  0  0  0
  155.5380  139.7065  184.1259 C   0  0  0  0  0  0  0  0  0  0  0  0
  154.7098  140.8291  183.9044 C   0  0  0  0  0  0  0  0  0  0  0  0
  155.0888  141.8841  183.1319 C   0  0  0  0  0  0  0  0  0  0  0  0
  156.3253  141.8733  182.5354 C   0  0  0  0  0  0  0  0  0  0  0  0
  157.1443  140.7883  182.7399 C   0  0  0  0  0  0  0  0  0  0  0  0
  156.7705  139.6987  183.5298 C   0  0  0  0  0  0  0  0  0  0  0  0
  154.2126  143.0706  182.8957 C   0  0  0  0  0  0  0  0  0  0  0  0
  153.0858  142.7446  182.2211 F   0  0  0  0  0  0  0  0  0  0  0  0
  154.9960  143.9925  182.2157 F   0  0  0  0  0  0  0  0  0  0  0  0
  153.9571  143.6307  184.1377 F   0  0  0  0  0  0  0  0  0  0  0  0
  158.4858  140.8337  182.0753 C   0  0  0  0  0  0  0  0  0  0  0  0
  158.9614  142.1516  182.0534 F   0  0  0  0  0  0  0  0  0  0  0  0
  159.3368  140.0857  182.8468 F   0  0  0  0  0  0  0  0  0  0  0  0
  158.4577  140.3826  180.7722 F   0  0  0  0  0  0  0  0  0  0  0  0
 10 11  3  0  0  0
 11  9  1  0  0  0
  9  3  1  0  0  0
  3  4  1  0  0  0
  4  5  1  0  0  0
  5  6  1  0  0  0
  6  2  1  0  0  0
  2  1  1  0  0  0
  1 18  1  0  0  0
 18 19  1  0  0  0
 19 20  1  0  0  0
 20 21  2  0  0  0
 21 22  1  0  0  0
 22 26  1  0  0  0
 26 27  1  0  0  0
 26 28  1  0  0  0
 26 29  1  0  0  0
 22 23  2  0  0  0
 23 24  1  0  0  0
 24 30  1  0  0  0
 30 31  1  0  0  0
 30 32  1  0  0  0
 30 33  1  0  0  0
 24 25  2  0  0  0
  2 12  1  0  0  0
 12 13  2  0  0  0
 13 14  1  0  0  0
 14 15  2  0  0  0
 15 16  1  0  0  0
 16 17  2  0  0  0
  6  7  1  0  0  0
  7  8  1  0  0  0
  8  3  1  0  0  0
 25 20  1  0  0  0
 17 12  1  0  0  0
M  END
> <minimizedAffinity>
-7.40241

> <CNNscore>
0.4599680305

> <CNNaffinity>
5.8635563850

> <CNN_VS>
2.6970484257

> <CNNaffinity_variance>
0.1901672781

$$$$
[H]c1c([H])c([H])c(C([H])(N2C([H])([H])C([H])([H])N(C([H])([H])C#N)C([H])([H])C2([H])[H])C([H])([H])OC([H])([H])c2c([H])c(C(F)(F)F)c([H])c(C(F)(F)F)c2[H])c([H])c1[H]


 33 35  0  0  0  0  0  0  0  0999 V2000
  153.9603  137.6088  186.5121 C   0  0  0  0  0  0  0  0  0  0  0  0
  153.9391  136.6047  187.6146 C   0  0  0  0  0  0  0  0  0  0  0  0
  150.0335  135.4932  188.7203 N   0  0  0  0  0  0  0  0  0  0  0  0
  150.2478  136.0688  187.4422 C   0  0  0  0  0  0  0  0  0  0  0  0
  151.5276  136.8997  187.4085 C   0  0  0  0  0  0  0  0  0  0  0  0
  152.6339  136.1529  187.8798 N   0  0  0  0  0  0  0  0  0  0  0  0
  152.4649  135.3852  189.0632 C   0  0  0  0  0  0  0  0  0  0  0  0
  151.1042  135.6675  189.6413 C   0  0  0  0  0  0  0  0  0  0  0  0
  148.7168  135.4951  189.2384 C   0  0  0  0  0  0  0  0  0  0  0  0
  148.5281  133.5952  191.0757 N   0  0  0  0  0  0  0  0  0  0  0  0
  148.6015  134.4424  190.2602 C   0  0  0  0  0  0  0  0  0  0  0  0
  154.6755  137.1450  188.7847 C   0  0  0  0  0  0  0  0  0  0  0  0
  154.3065  138.2813  189.4701 C   0  0  0  0  0  0  0  0  0  0  0  0
  155.0425  138.7725  190.5313 C   0  0  0  0  0  0  0  0  0  0  0  0
  156.1893  138.1446  190.9569 C   0  0  0  0  0  0  0  0  0  0  0  0
  156.5747  137.0000  190.2827 C   0  0  0  0  0  0  0  0  0  0  0  0
  155.8276  136.5213  189.2215 C   0  0  0  0  0  0  0  0  0  0  0  0
  155.2103  137.8486  185.9470 O   0  0  0  0  0  0  0  0  0  0  0  0
  154.8947  138.2924  184.6375 C   0  0  0  0  0  0  0  0  0  0  0  0
  155.3713  139.6265  184.3312 C   0  0  0  0  0  0  0  0  0  0  0  0
  156.7325  139.9477  184.5289 C   0  0  0  0  0  0  0  0  0  0  0  0
  157.2466  141.1786  184.2571 C   0  0  0  0  0  0  0  0  0  0  0  0
  156.4214  142.1614  183.7694 C   0  0  0  0  0  0  0  0  0  0  0  0
  155.0934  141.8663  183.5713 C   0  0  0  0  0  0  0  0  0  0  0  0
  154.5509  140.6086  183.8447 C   0  0  0  0  0  0  0  0  0  0  0  0
  158.6857  141.5195  184.4679 C   0  0  0  0  0  0  0  0  0  0  0  0
  159.5108  140.5540  184.0007 F   0  0  0  0  0  0  0  0  0  0  0  0
  158.8300  141.7336  185.8315 F   0  0  0  0  0  0  0  0  0  0  0  0
  158.8961  142.7498  183.8649 F   0  0  0  0  0  0  0  0  0  0  0  0
  154.2412  142.9712  183.0271 C   0  0  0  0  0  0  0  0  0  0  0  0
  155.0091  143.8004  182.1989 F   0  0  0  0  0  0  0  0  0  0  0  0
  153.2702  142.3824  182.2593 F   0  0  0  0  0  0  0  0  0  0  0  0
  153.6928  143.7648  184.0129 F   0  0  0  0  0  0  0  0  0  0  0  0
 10 11  3  0  0  0
 11  9  1  0  0  0
  9  3  1  0  0  0
  3  4  1  0  0  0
  4  5  1  0  0  0
  5  6  1  0  0  0
  6  2  1  0  0  0
  2  1  1  0  0  0
  1 18  1  0  0  0
 18 19  1  0  0  0
 19 20  1  0  0  0
 20 21  2  0  0  0
 21 22  1  0  0  0
 22 26  1  0  0  0
 26 27  1  0  0  0
 26 28  1  0  0  0
 26 29  1  0  0  0
 22 23  2  0  0  0
 23 24  1  0  0  0
 24 30  1  0  0  0
 30 31  1  0  0  0
 30 32  1  0  0  0
 30 33  1  0  0  0
 24 25  2  0  0  0
  2 12  1  0  0  0
 12 13  2  0  0  0
 13 14  1  0  0  0
 14 15  2  0  0  0
 15 16  1  0  0  0
 16 17  2  0  0  0
  6  7  1  0  0  0
  7  8  1  0  0  0
  8  3  1  0  0  0
 25 20  1  0  0  0
 17 12  1  0  0  0
M  END
> <minimizedAffinity>
-7.70261

> <CNNscore>
0.4508419633

> <CNNaffinity>
5.8147077560

> <CNN_VS>
2.6215143204

> <CNNaffinity_variance>
0.1702734530

$$$$
[H]c1c([H])c([H])c(C([H])(N2C([H])([H])C([H])([H])N(C([H])([H])C#N)C([H])([H])C2([H])[H])C([H])([H])OC([H])([H])c2c([H])c(C(F)(F)F)c([H])c(C(F)(F)F)c2[H])c([H])c1[H]


 33 35  0  0  0  0  0  0  0  0999 V2000
  155.7511  138.6033  186.1163 C   0  0  0  0  0  0  0  0  0  0  0  0
  155.7859  137.3967  186.9922 C   0  0  0  0  0  0  0  0  0  0  0  0
  153.3896  134.3883  185.2835 N   0  0  0  0  0  0  0  0  0  0  0  0
  154.0399  134.1304  186.5170 C   0  0  0  0  0  0  0  0  0  0  0  0
  155.2548  135.0337  186.7104 C   0  0  0  0  0  0  0  0  0  0  0  0
  154.9125  136.3954  186.5309 N   0  0  0  0  0  0  0  0  0  0  0  0
  154.0995  136.7376  185.4172 C   0  0  0  0  0  0  0  0  0  0  0  0
  153.8891  135.5126  184.5683 C   0  0  0  0  0  0  0  0  0  0  0  0
  152.9320  133.2824  184.5289 C   0  0  0  0  0  0  0  0  0  0  0  0
  154.9845  132.2234  183.2300 N   0  0  0  0  0  0  0  0  0  0  0  0
  154.0710  132.6852  183.8134 C   0  0  0  0  0  0  0  0  0  0  0  0
  155.5912  137.8098  188.4046 C   0  0  0  0  0  0  0  0  0  0  0  0
  154.4538  138.4260  188.8776 C   0  0  0  0  0  0  0  0  0  0  0  0
  154.3282  138.8298  190.1931 C   0  0  0  0  0  0  0  0  0  0  0  0
  155.3426  138.6341  191.1004 C   0  0  0  0  0  0  0  0  0  0  0  0
  156.4920  138.0142  190.6448 C   0  0  0  0  0  0  0  0  0  0  0  0
  156.6029  137.6166  189.3245 C   0  0  0  0  0  0  0  0  0  0  0  0
  156.9885  139.1851  185.8523 O   0  0  0  0  0  0  0  0  0  0  0  0
  156.7708  139.8700  184.6296 C   0  0  0  0  0  0  0  0  0  0  0  0
  157.7742  140.8695  184.3216 C   0  0  0  0  0  0  0  0  0  0  0  0
  157.7918  141.4759  183.0460 C   0  0  0  0  0  0  0  0  0  0  0  0
  158.7025  142.4242  182.6929 C   0  0  0  0  0  0  0  0  0  0  0  0
  159.6512  142.8201  183.6029 C   0  0  0  0  0  0  0  0  0  0  0  0
  159.6490  142.2399  184.8492 C   0  0  0  0  0  0  0  0  0  0  0  0
  158.7213  141.2663  185.2269 C   0  0  0  0  0  0  0  0  0  0  0  0
  158.7228  143.0645  181.3434 C   0  0  0  0  0  0  0  0  0  0  0  0
  159.4279  142.3375  180.4460 F   0  0  0  0  0  0  0  0  0  0  0  0
  159.2472  144.3353  181.5333 F   0  0  0  0  0  0  0  0  0  0  0  0
  157.4007  143.2499  180.9705 F   0  0  0  0  0  0  0  0  0  0  0  0
  160.6980  142.7168  185.8060 C   0  0  0  0  0  0  0  0  0  0  0  0
  161.8858  142.0012  185.6051 F   0  0  0  0  0  0  0  0  0  0  0  0
  160.9374  144.0334  185.5091 F   0  0  0  0  0  0  0  0  0  0  0  0
  160.3364  142.5552  187.1272 F   0  0  0  0  0  0  0  0  0  0  0  0
 10 11  3  0  0  0
 11  9  1  0  0  0
  9  3  1  0  0  0
  3  4  1  0  0  0
  4  5  1  0  0  0
  5  6  1  0  0  0
  6  2  1  0  0  0
  2  1  1  0  0  0
  1 18  1  0  0  0
 18 19  1  0  0  0
 19 20  1  0  0  0
 20 21  2  0  0  0
 21 22  1  0  0  0
 22 26  1  0  0  0
 26 27  1  0  0  0
 26 28  1  0  0  0
 26 29  1  0  0  0
 22 23  2  0  0  0
 23 24  1  0  0  0
 24 30  1  0  0  0
 30 31  1  0  0  0
 30 32  1  0  0  0
 30 33  1  0  0  0
 24 25  2  0  0  0
  2 12  1  0  0  0
 12 13  2  0  0  0
 13 14  1  0  0  0
 14 15  2  0  0  0
 15 16  1  0  0  0
 16 17  2  0  0  0
  6  7  1  0  0  0
  7  8  1  0  0  0
  8  3  1  0  0  0
 25 20  1  0  0  0
 17 12  1  0  0  0
M  END
> <minimizedAffinity>
-8.05602

> <CNNscore>
0.4501853585

> <CNNaffinity>
6.1820769310

> <CNN_VS>
2.7830805779

> <CNNaffinity_variance>
0.1341793388

$$$$
[H]OC(=O)c1c([H])c([H])c([H])c(O[H])c1C(=O)c1c(O[H])c([H])c(C(=O)OC([H])([H])[C@]2([H])C([H])([H])C([H])([H])C([H])([H])[C@@]2([H])N([H])C(=O)c2c([H])c([H])c(O[H])c([H])c2[H])c([H])c1O[H]


 45 48  0  0  0  0  0  0  0  0999 V2000
  155.0342  138.3520  186.2293 C   0  0  0  0  0  0  0  0  0  0  0  0
  153.6904  138.1321  186.2824 C   0  0  0  0  0  0  0  0  0  0  0  0
  153.1059  137.4459  187.3561 C   0  0  0  0  0  0  0  0  0  0  0  0
  151.7425  137.2874  187.3076 O   0  0  0  0  0  0  0  0  0  0  0  0
  153.8598  136.9629  188.4025 C   0  0  0  0  0  0  0  0  0  0  0  0
  155.2414  137.1928  188.3391 C   0  0  0  0  0  0  0  0  0  0  0  0
  156.1161  136.7412  189.3443 O   0  0  0  0  0  0  0  0  0  0  0  0
  155.7858  137.8702  187.2739 C   0  0  0  0  0  0  0  0  0  0  0  0
  151.1118  136.8767  187.9294 H   0  0  0  0  0  0  0  0  0  0  0  0
  157.0878  136.9153  189.2790 H   0  0  0  0  0  0  0  0  0  0  0  0
  155.6646  139.0778  185.1030 C   0  0  0  0  0  0  0  0  0  0  0  0
  156.8679  139.3512  185.2008 O   0  0  0  0  0  0  0  0  0  0  0  0
  154.9712  139.4201  184.0371 O   0  0  0  0  0  0  0  0  0  0  0  0
  154.5563  140.4722  183.3102 C   0  0  0  0  0  0  0  0  0  0  0  0
  156.4839  141.9136  183.0122 C   0  0  0  0  0  0  0  0  0  0  0  0
  156.3385  142.9833  181.9571 C   0  0  0  0  0  0  0  0  0  0  0  0
  155.0744  143.7298  182.2140 C   0  0  0  0  0  0  0  0  0  0  0  0
  154.3095  142.9744  183.2925 C   0  0  0  0  0  0  0  0  0  0  0  0
  155.0967  141.8073  183.6552 C   0  0  0  0  0  0  0  0  0  0  0  0
  159.0657  141.0576  182.7887 O   0  0  0  0  0  0  0  0  0  0  0  0
  158.8138  141.7741  183.8015 C   0  0  0  0  0  0  0  0  0  0  0  0
  157.5083  142.2483  183.9819 N   0  0  0  0  0  0  0  0  0  0  0  0
  157.2739  142.8435  184.8185 H   0  0  0  0  0  0  0  0  0  0  0  0
  159.8825  142.0656  184.7169 C   0  0  0  0  0  0  0  0  0  0  0  0
  161.1831  142.1149  184.2802 C   0  0  0  0  0  0  0  0  0  0  0  0
  162.2302  142.3954  185.1616 C   0  0  0  0  0  0  0  0  0  0  0  0
  161.9524  142.6259  186.4865 C   0  0  0  0  0  0  0  0  0  0  0  0
  162.9850  142.9083  187.3839 O   0  0  0  0  0  0  0  0  0  0  0  0
  160.6449  142.5759  186.9232 C   0  0  0  0  0  0  0  0  0  0  0  0
  159.6070  142.3003  186.0623 C   0  0  0  0  0  0  0  0  0  0  0  0
  163.2893  143.8477  187.5603 H   0  0  0  0  0  0  0  0  0  0  0  0
  153.3922  136.1196  189.4537 C   0  0  0  0  0  0  0  0  0  0  0  0
  153.9112  134.9138  189.4004 O   0  0  0  0  0  0  0  0  0  0  0  0
  152.4872  136.3427  190.5510 C   0  0  0  0  0  0  0  0  0  0  0  0
  153.1085  136.9286  191.6841 C   0  0  0  0  0  0  0  0  0  0  0  0
  154.4616  137.2332  191.6371 O   0  0  0  0  0  0  0  0  0  0  0  0
  152.4227  137.2062  192.8258 C   0  0  0  0  0  0  0  0  0  0  0  0
  151.0858  136.8932  192.8407 C   0  0  0  0  0  0  0  0  0  0  0  0
  150.4646  136.3279  191.7720 C   0  0  0  0  0  0  0  0  0  0  0  0
  151.1740  136.0279  190.5700 C   0  0  0  0  0  0  0  0  0  0  0  0
  154.8896  137.6483  192.4461 H   0  0  0  0  0  0  0  0  0  0  0  0
  150.4736  135.2299  189.5892 C   0  0  0  0  0  0  0  0  0  0  0  0
  150.5318  133.9592  189.7157 O   0  0  0  0  0  0  0  0  0  0  0  0
  149.7608  135.6677  188.5301 O   0  0  0  0  0  0  0  0  0  0  0  0
  149.4576  135.1350  187.7392 H   0  0  0  0  0  0  0  0  0  0  0  0
 20 21  2  0  0  0
 21 22  1  0  0  0
 22 15  1  0  0  0
 15 16  1  0  0  0
 16 17  1  0  0  0
 17 18  1  0  0  0
 18 19  1  0  0  0
 19 14  1  0  0  0
 14 13  1  0  0  0
 13 11  1  0  0  0
 11 12  2  0  0  0
 11  1  1  0  0  0
  1  2  2  0  0  0
  2  3  1  0  0  0
  3  4  1  0  0  0
  3  5  2  0  0  0
  5 32  1  0  0  0
 32 33  2  0  0  0
 32 34  1  0  0  0
 34 35  2  0  0  0
 35 36  1  0  0  0
 35 37  1  0  0  0
 37 38  2  0  0  0
 38 39  1  0  0  0
 39 40  2  0  0  0
 40 42  1  0  0  0
 42 43  2  0  0  0
 42 44  1  0  0  0
  5  6  1  0  0  0
  6  7  1  0  0  0
  6  8  2  0  0  0
 21 24  1  0  0  0
 24 25  2  0  0  0
 25 26  1  0  0  0
 26 27  2  0  0  0
 27 28  1  0  0  0
 27 29  1  0  0  0
 29 30  2  0  0  0
 19 15  1  0  0  0
  8  1  1  0  0  0
 30 24  1  0  0  0
 40 34  1  0  0  0
 22 23  1  0  0  0
  4  9  1  0  0  0
 36 41  1  0  0  0
 44 45  1  0  0  0
  7 10  1  0  0  0
 28 31  1  0  0  0
M  END
> <minimizedAffinity>
-9.99958

> <CNNscore>
0.5212625861

> <CNNaffinity>
6.1279263496

> <CNN_VS>
3.1942586899

> <CNNaffinity_variance>
0.1143857837

$$$$
[H]OC(=O)c1c([H])c([H])c([H])c(O[H])c1C(=O)c1c(O[H])c([H])c(C(=O)OC([H])([H])[C@]2([H])C([H])([H])C([H])([H])C([H])([H])[C@@]2([H])N([H])C(=O)c2c([H])c([H])c(O[H])c([H])c2[H])c([H])c1O[H]


 45 48  0  0  0  0  0  0  0  0999 V2000
  155.1410  138.2308  186.2307 C   0  0  0  0  0  0  0  0  0  0  0  0
  155.9620  137.5461  187.0758 C   0  0  0  0  0  0  0  0  0  0  0  0
  155.4454  136.7304  188.0922 C   0  0  0  0  0  0  0  0  0  0  0  0
  156.3654  136.0833  188.8803 O   0  0  0  0  0  0  0  0  0  0  0  0
  154.0894  136.5846  188.2839 C   0  0  0  0  0  0  0  0  0  0  0  0
  153.2524  137.2934  187.4107 C   0  0  0  0  0  0  0  0  0  0  0  0
  151.8504  137.2308  187.5116 O   0  0  0  0  0  0  0  0  0  0  0  0
  153.7882  138.0845  186.4223 C   0  0  0  0  0  0  0  0  0  0  0  0
  156.2621  135.4561  189.6212 H   0  0  0  0  0  0  0  0  0  0  0  0
  151.2791  137.7392  186.8839 H   0  0  0  0  0  0  0  0  0  0  0  0
  155.6727  139.0934  185.1510 C   0  0  0  0  0  0  0  0  0  0  0  0
  156.8505  139.4630  185.2420 O   0  0  0  0  0  0  0  0  0  0  0  0
  154.9207  139.4544  184.1320 O   0  0  0  0  0  0  0  0  0  0  0  0
  154.6689  140.4625  183.2788 C   0  0  0  0  0  0  0  0  0  0  0  0
  156.5369  141.9751  182.9554 C   0  0  0  0  0  0  0  0  0  0  0  0
  156.3264  143.0562  181.9232 C   0  0  0  0  0  0  0  0  0  0  0  0
  155.0446  143.7538  182.2260 C   0  0  0  0  0  0  0  0  0  0  0  0
  154.3354  142.9545  183.3109 C   0  0  0  0  0  0  0  0  0  0  0  0
  155.1719  141.8098  183.6326 C   0  0  0  0  0  0  0  0  0  0  0  0
  159.0456  140.9042  182.8685 O   0  0  0  0  0  0  0  0  0  0  0  0
  158.8407  141.7399  183.7969 C   0  0  0  0  0  0  0  0  0  0  0  0
  157.5747  142.3295  183.9037 N   0  0  0  0  0  0  0  0  0  0  0  0
  157.3794  143.0252  184.6698 H   0  0  0  0  0  0  0  0  0  0  0  0
  159.9198  142.0424  184.6964 C   0  0  0  0  0  0  0  0  0  0  0  0
  159.6724  142.3099  186.0200 C   0  0  0  0  0  0  0  0  0  0  0  0
  160.7135  142.6071  186.9031 C   0  0  0  0  0  0  0  0  0  0  0  0
  162.0053  142.6315  186.4382 C   0  0  0  0  0  0  0  0  0  0  0  0
  163.0604  142.9262  187.3049 O   0  0  0  0  0  0  0  0  0  0  0  0
  162.2518  142.3624  185.1078 C   0  0  0  0  0  0  0  0  0  0  0  0
  161.2326  142.0686  184.2307 C   0  0  0  0  0  0  0  0  0  0  0  0
  163.5407  142.2087  187.8154 H   0  0  0  0  0  0  0  0  0  0  0  0
  153.4644  135.9146  189.3772 C   0  0  0  0  0  0  0  0  0  0  0  0
  153.4608  134.6088  189.2317 O   0  0  0  0  0  0  0  0  0  0  0  0
  152.8622  136.3911  190.5950 C   0  0  0  0  0  0  0  0  0  0  0  0
  151.4787  136.0920  190.6944 C   0  0  0  0  0  0  0  0  0  0  0  0
  150.8584  135.3912  189.6698 O   0  0  0  0  0  0  0  0  0  0  0  0
  150.7294  136.4691  191.7656 C   0  0  0  0  0  0  0  0  0  0  0  0
  151.3723  137.1608  192.7624 C   0  0  0  0  0  0  0  0  0  0  0  0
  152.6953  137.4649  192.6929 C   0  0  0  0  0  0  0  0  0  0  0  0
  153.4913  137.0786  191.5726 C   0  0  0  0  0  0  0  0  0  0  0  0
  149.8782  135.1852  189.7524 H   0  0  0  0  0  0  0  0  0  0  0  0
  154.8197  137.6436  191.4990 C   0  0  0  0  0  0  0  0  0  0  0  0
  154.9151  138.8837  191.2041 O   0  0  0  0  0  0  0  0  0  0  0  0
  155.9949  137.0101  191.6965 O   0  0  0  0  0  0  0  0  0  0  0  0
  156.9084  137.3305  191.4434 H   0  0  0  0  0  0  0  0  0  0  0  0
 20 21  2  0  0  0
 21 22  1  0  0  0
 22 15  1  0  0  0
 15 16  1  0  0  0
 16 17  1  0  0  0
 17 18  1  0  0  0
 18 19  1  0  0  0
 19 14  1  0  0  0
 14 13  1  0  0  0
 13 11  1  0  0  0
 11 12  2  0  0  0
 11  1  1  0  0  0
  1  2  2  0  0  0
  2  3  1  0  0  0
  3  4  1  0  0  0
  3  5  2  0  0  0
  5 32  1  0  0  0
 32 33  2  0  0  0
 32 34  1  0  0  0
 34 35  2  0  0  0
 35 36  1  0  0  0
 35 37  1  0  0  0
 37 38  2  0  0  0
 38 39  1  0  0  0
 39 40  2  0  0  0
 40 42  1  0  0  0
 42 43  2  0  0  0
 42 44  1  0  0  0
  5  6  1  0  0  0
  6  7  1  0  0  0
  6  8  2  0  0  0
 21 24  1  0  0  0
 24 25  2  0  0  0
 25 26  1  0  0  0
 26 27  2  0  0  0
 27 28  1  0  0  0
 27 29  1  0  0  0
 29 30  2  0  0  0
 19 15  1  0  0  0
  8  1  1  0  0  0
 30 24  1  0  0  0
 40 34  1  0  0  0
 22 23  1  0  0  0
  4  9  1  0  0  0
 36 41  1  0  0  0
 44 45  1  0  0  0
  7 10  1  0  0  0
 28 31  1  0  0  0
M  END
> <minimizedAffinity>
-10.16535

> <CNNscore>
0.3889509439

> <CNNaffinity>
5.9225282669

> <CNN_VS>
2.3035728931

> <CNNaffinity_variance>
0.1482028514

$$$$
[H]OC(=O)c1c([H])c([H])c([H])c(O[H])c1C(=O)c1c(O[H])c([H])c(C(=O)OC([H])([H])[C@]2([H])C([H])([H])C([H])([H])C([H])([H])[C@@]2([H])N([H])C(=O)c2c([H])c([H])c(O[H])c([H])c2[H])c([H])c1O[H]


 45 48  0  0  0  0  0  0  0  0999 V2000
  155.1798  138.4814  185.8384 C   0  0  0  0  0  0  0  0  0  0  0  0
  153.8340  138.3691  186.0203 C   0  0  0  0  0  0  0  0  0  0  0  0
  153.3018  137.7050  187.1344 C   0  0  0  0  0  0  0  0  0  0  0  0
  151.9317  137.6580  187.2181 O   0  0  0  0  0  0  0  0  0  0  0  0
  154.1113  137.1363  188.0925 C   0  0  0  0  0  0  0  0  0  0  0  0
  155.4944  137.2557  187.8967 C   0  0  0  0  0  0  0  0  0  0  0  0
  156.4224  136.7096  188.8025 O   0  0  0  0  0  0  0  0  0  0  0  0
  155.9869  137.9140  186.7950 C   0  0  0  0  0  0  0  0  0  0  0  0
  151.3327  137.2838  187.8921 H   0  0  0  0  0  0  0  0  0  0  0  0
  157.3942  136.8065  188.6445 H   0  0  0  0  0  0  0  0  0  0  0  0
  155.7557  139.1825  184.6682 C   0  0  0  0  0  0  0  0  0  0  0  0
  156.9814  139.3541  184.6505 O   0  0  0  0  0  0  0  0  0  0  0  0
  154.9924  139.6081  183.6831 O   0  0  0  0  0  0  0  0  0  0  0  0
  154.6941  140.6849  182.9353 C   0  0  0  0  0  0  0  0  0  0  0  0
  156.6385  142.1320  182.8473 C   0  0  0  0  0  0  0  0  0  0  0  0
  156.5707  143.2504  181.8358 C   0  0  0  0  0  0  0  0  0  0  0  0
  155.2912  143.9885  182.0343 C   0  0  0  0  0  0  0  0  0  0  0  0
  154.4493  143.1859  183.0171 C   0  0  0  0  0  0  0  0  0  0  0  0
  155.2078  142.0004  183.3813 C   0  0  0  0  0  0  0  0  0  0  0  0
  159.2355  141.2973  182.7632 O   0  0  0  0  0  0  0  0  0  0  0  0
  158.9073  141.9575  183.7922 C   0  0  0  0  0  0  0  0  0  0  0  0
  157.5890  142.4173  183.9041 N   0  0  0  0  0  0  0  0  0  0  0  0
  157.2916  142.9659  184.7524 H   0  0  0  0  0  0  0  0  0  0  0  0
  159.9062  142.2028  184.7958 C   0  0  0  0  0  0  0  0  0  0  0  0
  161.2345  142.2761  184.4568 C   0  0  0  0  0  0  0  0  0  0  0  0
  162.2143  142.5121  185.4243 C   0  0  0  0  0  0  0  0  0  0  0  0
  161.8411  142.6737  186.7359 C   0  0  0  0  0  0  0  0  0  0  0  0
  162.8053  142.9109  187.7184 O   0  0  0  0  0  0  0  0  0  0  0  0
  160.5058  142.5998  187.0744 C   0  0  0  0  0  0  0  0  0  0  0  0
  159.5338  142.3676  186.1281 C   0  0  0  0  0  0  0  0  0  0  0  0
  163.0915  143.8403  187.9642 H   0  0  0  0  0  0  0  0  0  0  0  0
  153.6800  136.3068  189.1698 C   0  0  0  0  0  0  0  0  0  0  0  0
  153.9468  135.0367  188.9653 O   0  0  0  0  0  0  0  0  0  0  0  0
  153.0333  136.5968  190.4230 C   0  0  0  0  0  0  0  0  0  0  0  0
  151.6677  136.2128  190.4550 C   0  0  0  0  0  0  0  0  0  0  0  0
  151.1038  135.6102  189.3394 O   0  0  0  0  0  0  0  0  0  0  0  0
  150.8822  136.4143  191.5474 C   0  0  0  0  0  0  0  0  0  0  0  0
  151.4697  137.0126  192.6348 C   0  0  0  0  0  0  0  0  0  0  0  0
  152.7741  137.3945  192.6318 C   0  0  0  0  0  0  0  0  0  0  0  0
  153.6075  137.1925  191.4905 C   0  0  0  0  0  0  0  0  0  0  0  0
  150.1358  135.3425  189.3749 H   0  0  0  0  0  0  0  0  0  0  0  0
  154.9027  137.8339  191.5154 C   0  0  0  0  0  0  0  0  0  0  0  0
  154.9299  139.1071  191.4056 O   0  0  0  0  0  0  0  0  0  0  0  0
  156.1107  137.2434  191.6317 O   0  0  0  0  0  0  0  0  0  0  0  0
  157.0058  137.6467  191.4386 H   0  0  0  0  0  0  0  0  0  0  0  0
 20 21  2  0  0  0
 21 22  1  0  0  0
 22 15  1  0  0  0
 15 16  1  0  0  0
 16 17  1  0  0  0
 17 18  1  0  0  0
 18 19  1  0  0  0
 19 14  1  0  0  0
 14 13  1  0  0  0
 13 11  1  0  0  0
 11 12  2  0  0  0
 11  1  1  0  0  0
  1  2  2  0  0  0
  2  3  1  0  0  0
  3  4  1  0  0  0
  3  5  2  0  0  0
  5 32  1  0  0  0
 32 33  2  0  0  0
 32 34  1  0  0  0
 34 35  2  0  0  0
 35 36  1  0  0  0
 35 37  1  0  0  0
 37 38  2  0  0  0
 38 39  1  0  0  0
 39 40  2  0  0  0
 40 42  1  0  0  0
 42 43  2  0  0  0
 42 44  1  0  0  0
  5  6  1  0  0  0
  6  7  1  0  0  0
  6  8  2  0  0  0
 21 24  1  0  0  0
 24 25  2  0  0  0
 25 26  1  0  0  0
 26 27  2  0  0  0
 27 28  1  0  0  0
 27 29  1  0  0  0
 29 30  2  0  0  0
 19 15  1  0  0  0
  8  1  1  0  0  0
 30 24  1  0  0  0
 40 34  1  0  0  0
 22 23  1  0  0  0
  4  9  1  0  0  0
 36 41  1  0  0  0
 44 45  1  0  0  0
  7 10  1  0  0  0
 28 31  1  0  0  0
M  END
> <minimizedAffinity>
-10.21998

> <CNNscore>
0.3333046138

> <CNNaffinity>
5.8789305687

> <CNN_VS>
1.9594746828

> <CNNaffinity_variance>
0.1461394578

$$$$
[H]OC(=O)c1c([H])c([H])c([H])c(O[H])c1C(=O)c1c(O[H])c([H])c(C(=O)OC([H])([H])[C@]2([H])C([H])([H])C([H])([H])C([H])([H])[C@@]2([H])N([H])C(=O)c2c([H])c([H])c(O[H])c([H])c2[H])c([H])c1O[H]


 45 48  0  0  0  0  0  0  0  0999 V2000
  152.2240  139.0195  181.6854 C   0  0  0  0  0  0  0  0  0  0  0  0
  152.5173  137.8385  182.2988 C   0  0  0  0  0  0  0  0  0  0  0  0
  151.7144  136.7037  182.1176 C   0  0  0  0  0  0  0  0  0  0  0  0
  152.1085  135.5669  182.7799 O   0  0  0  0  0  0  0  0  0  0  0  0
  150.5954  136.7299  181.3152 C   0  0  0  0  0  0  0  0  0  0  0  0
  150.3006  137.9491  180.6890 C   0  0  0  0  0  0  0  0  0  0  0  0
  149.1801  138.1020  179.8518 O   0  0  0  0  0  0  0  0  0  0  0  0
  151.1076  139.0447  180.8846 C   0  0  0  0  0  0  0  0  0  0  0  0
  151.7407  134.6628  182.7977 H   0  0  0  0  0  0  0  0  0  0  0  0
  148.9918  138.9718  179.4198 H   0  0  0  0  0  0  0  0  0  0  0  0
  153.0648  140.2250  181.8653 C   0  0  0  0  0  0  0  0  0  0  0  0
  152.5830  141.3139  181.5274 O   0  0  0  0  0  0  0  0  0  0  0  0
  154.2801  140.1420  182.3658 O   0  0  0  0  0  0  0  0  0  0  0  0
  155.0031  140.3286  183.4839 C   0  0  0  0  0  0  0  0  0  0  0  0
  156.6709  142.0147  182.9765 C   0  0  0  0  0  0  0  0  0  0  0  0
  156.2345  143.0907  182.0119 C   0  0  0  0  0  0  0  0  0  0  0  0
  154.9439  143.6598  182.4930 C   0  0  0  0  0  0  0  0  0  0  0  0
  154.4530  142.7775  183.6329 C   0  0  0  0  0  0  0  0  0  0  0  0
  155.4233  141.7101  183.8131 C   0  0  0  0  0  0  0  0  0  0  0  0
  158.8411  140.4357  183.4716 O   0  0  0  0  0  0  0  0  0  0  0  0
  158.8661  141.5819  184.0083 C   0  0  0  0  0  0  0  0  0  0  0  0
  157.7843  142.4465  183.7985 N   0  0  0  0  0  0  0  0  0  0  0  0
  157.7811  143.4039  184.2372 H   0  0  0  0  0  0  0  0  0  0  0  0
  160.0059  141.9392  184.8073 C   0  0  0  0  0  0  0  0  0  0  0  0
  159.8499  142.3190  186.1172 C   0  0  0  0  0  0  0  0  0  0  0  0
  160.9506  142.6704  186.9028 C   0  0  0  0  0  0  0  0  0  0  0  0
  162.2089  142.6344  186.3542 C   0  0  0  0  0  0  0  0  0  0  0  0
  163.3225  142.9816  187.1228 O   0  0  0  0  0  0  0  0  0  0  0  0
  162.3635  142.2524  185.0377 C   0  0  0  0  0  0  0  0  0  0  0  0
  161.2851  141.9046  184.2564 C   0  0  0  0  0  0  0  0  0  0  0  0
  163.8274  142.3006  187.6590 H   0  0  0  0  0  0  0  0  0  0  0  0
  149.6284  135.6886  181.1907 C   0  0  0  0  0  0  0  0  0  0  0  0
  148.7159  135.7335  182.1349 O   0  0  0  0  0  0  0  0  0  0  0  0
  149.4590  134.6270  180.2331 C   0  0  0  0  0  0  0  0  0  0  0  0
  148.2637  134.7359  179.4762 C   0  0  0  0  0  0  0  0  0  0  0  0
  147.4103  135.8067  179.7017 O   0  0  0  0  0  0  0  0  0  0  0  0
  147.9185  133.8225  178.5288 C   0  0  0  0  0  0  0  0  0  0  0  0
  148.7836  132.7750  178.3295 C   0  0  0  0  0  0  0  0  0  0  0  0
  149.9335  132.6426  179.0419 C   0  0  0  0  0  0  0  0  0  0  0  0
  150.3048  133.5917  180.0415 C   0  0  0  0  0  0  0  0  0  0  0  0
  146.5673  135.8727  179.1587 H   0  0  0  0  0  0  0  0  0  0  0  0
  151.4230  133.2361  180.8857 C   0  0  0  0  0  0  0  0  0  0  0  0
  151.1580  132.7578  182.0411 O   0  0  0  0  0  0  0  0  0  0  0  0
  152.7373  133.3584  180.6044 O   0  0  0  0  0  0  0  0  0  0  0  0
  153.5030  133.3182  181.2473 H   0  0  0  0  0  0  0  0  0  0  0  0
 20 21  2  0  0  0
 21 22  1  0  0  0
 22 15  1  0  0  0
 15 16  1  0  0  0
 16 17  1  0  0  0
 17 18  1  0  0  0
 18 19  1  0  0  0
 19 14  1  0  0  0
 14 13  1  0  0  0
 13 11  1  0  0  0
 11 12  2  0  0  0
 11  1  1  0  0  0
  1  2  2  0  0  0
  2  3  1  0  0  0
  3  4  1  0  0  0
  3  5  2  0  0  0
  5 32  1  0  0  0
 32 33  2  0  0  0
 32 34  1  0  0  0
 34 35  2  0  0  0
 35 36  1  0  0  0
 35 37  1  0  0  0
 37 38  2  0  0  0
 38 39  1  0  0  0
 39 40  2  0  0  0
 40 42  1  0  0  0
 42 43  2  0  0  0
 42 44  1  0  0  0
  5  6  1  0  0  0
  6  7  1  0  0  0
  6  8  2  0  0  0
 21 24  1  0  0  0
 24 25  2  0  0  0
 25 26  1  0  0  0
 26 27  2  0  0  0
 27 28  1  0  0  0
 27 29  1  0  0  0
 29 30  2  0  0  0
 19 15  1  0  0  0
  8  1  1  0  0  0
 30 24  1  0  0  0
 40 34  1  0  0  0
 22 23  1  0  0  0
  4  9  1  0  0  0
 36 41  1  0  0  0
 44 45  1  0  0  0
  7 10  1  0  0  0
 28 31  1  0  0  0
M  END
> <minimizedAffinity>
-8.46127

> <CNNscore>
0.3018948734

> <CNNaffinity>
5.7131447792

> <CNN_VS>
1.7247691154

> <CNNaffinity_variance>
0.1302604377

$$$$
[H]OC(=O)c1c([H])c([H])c([H])c(O[H])c1C(=O)c1c(O[H])c([H])c(C(=O)OC([H])([H])[C@]2([H])C([H])([H])C([H])([H])C([H])([H])[C@@]2([H])N([H])C(=O)c2c([H])c([H])c(O[H])c([H])c2[H])c([H])c1O[H]


 45 48  0  0  0  0  0  0  0  0999 V2000
  153.9773  137.6285  185.7376 C   0  0  0  0  0  0  0  0  0  0  0  0
  153.9171  136.2698  185.8242 C   0  0  0  0  0  0  0  0  0  0  0  0
  154.2443  135.5998  187.0114 C   0  0  0  0  0  0  0  0  0  0  0  0
  154.1420  134.2305  186.9858 O   0  0  0  0  0  0  0  0  0  0  0  0
  154.6414  136.2809  188.1406 C   0  0  0  0  0  0  0  0  0  0  0  0
  154.7015  137.6781  188.0421 C   0  0  0  0  0  0  0  0  0  0  0  0
  155.1003  138.4823  189.1256 O   0  0  0  0  0  0  0  0  0  0  0  0
  154.3733  138.3073  186.8648 C   0  0  0  0  0  0  0  0  0  0  0  0
  154.2876  133.5533  187.6738 H   0  0  0  0  0  0  0  0  0  0  0  0
  155.1349  139.4668  189.0335 H   0  0  0  0  0  0  0  0  0  0  0  0
  153.6317  138.3494  184.4912 C   0  0  0  0  0  0  0  0  0  0  0  0
  152.8338  137.8042  183.7177 O   0  0  0  0  0  0  0  0  0  0  0  0
  154.1539  139.5264  184.2155 O   0  0  0  0  0  0  0  0  0  0  0  0
  154.9976  140.1668  183.3874 C   0  0  0  0  0  0  0  0  0  0  0  0
  156.5959  141.9175  182.8747 C   0  0  0  0  0  0  0  0  0  0  0  0
  156.1099  142.9820  181.9212 C   0  0  0  0  0  0  0  0  0  0  0  0
  154.8036  143.4993  182.4185 C   0  0  0  0  0  0  0  0  0  0  0  0
  154.3575  142.5924  183.5574 C   0  0  0  0  0  0  0  0  0  0  0  0
  155.3690  141.5611  183.7213 C   0  0  0  0  0  0  0  0  0  0  0  0
  158.6413  140.2928  183.6651 O   0  0  0  0  0  0  0  0  0  0  0  0
  158.7167  141.4946  184.0556 C   0  0  0  0  0  0  0  0  0  0  0  0
  157.7004  142.3859  183.6886 N   0  0  0  0  0  0  0  0  0  0  0  0
  157.7396  143.3898  184.0041 H   0  0  0  0  0  0  0  0  0  0  0  0
  159.8438  141.8848  184.8572 C   0  0  0  0  0  0  0  0  0  0  0  0
  159.6795  142.2193  186.1784 C   0  0  0  0  0  0  0  0  0  0  0  0
  160.7677  142.6020  186.9667 C   0  0  0  0  0  0  0  0  0  0  0  0
  162.0220  142.6434  186.4094 C   0  0  0  0  0  0  0  0  0  0  0  0
  163.1231  143.0232  187.1805 O   0  0  0  0  0  0  0  0  0  0  0  0
  162.1849  142.3069  185.0815 C   0  0  0  0  0  0  0  0  0  0  0  0
  161.1188  141.9287  184.2975 C   0  0  0  0  0  0  0  0  0  0  0  0
  163.6649  142.3530  187.6938 H   0  0  0  0  0  0  0  0  0  0  0  0
  155.1466  135.6948  189.3390 C   0  0  0  0  0  0  0  0  0  0  0  0
  156.4416  135.8682  189.4771 O   0  0  0  0  0  0  0  0  0  0  0  0
  154.5127  134.9760  190.4134 C   0  0  0  0  0  0  0  0  0  0  0  0
  153.9781  135.8219  191.4194 C   0  0  0  0  0  0  0  0  0  0  0  0
  154.0936  137.1981  191.2838 O   0  0  0  0  0  0  0  0  0  0  0  0
  153.3504  135.3314  192.5223 C   0  0  0  0  0  0  0  0  0  0  0  0
  153.2523  133.9658  192.6271 C   0  0  0  0  0  0  0  0  0  0  0  0
  153.7582  133.1308  191.6815 C   0  0  0  0  0  0  0  0  0  0  0  0
  154.4226  133.6328  190.5219 C   0  0  0  0  0  0  0  0  0  0  0  0
  153.7103  137.7863  192.0029 H   0  0  0  0  0  0  0  0  0  0  0  0
  155.1126  132.6624  189.7024 C   0  0  0  0  0  0  0  0  0  0  0  0
  154.4221  132.0330  188.8301 O   0  0  0  0  0  0  0  0  0  0  0  0
  156.4182  132.3242  189.7518 O   0  0  0  0  0  0  0  0  0  0  0  0
  156.8536  131.5193  189.3470 H   0  0  0  0  0  0  0  0  0  0  0  0
 20 21  2  0  0  0
 21 22  1  0  0  0
 22 15  1  0  0  0
 15 16  1  0  0  0
 16 17  1  0  0  0
 17 18  1  0  0  0
 18 19  1  0  0  0
 19 14  1  0  0  0
 14 13  1  0  0  0
 13 11  1  0  0  0
 11 12  2  0  0  0
 11  1  1  0  0  0
  1  2  2  0  0  0
  2  3  1  0  0  0
  3  4  1  0  0  0
  3  5  2  0  0  0
  5 32  1  0  0  0
 32 33  2  0  0  0
 32 34  1  0  0  0
 34 35  2  0  0  0
 35 36  1  0  0  0
 35 37  1  0  0  0
 37 38  2  0  0  0
 38 39  1  0  0  0
 39 40  2  0  0  0
 40 42  1  0  0  0
 42 43  2  0  0  0
 42 44  1  0  0  0
  5  6  1  0  0  0
  6  7  1  0  0  0
  6  8  2  0  0  0
 21 24  1  0  0  0
 24 25  2  0  0  0
 25 26  1  0  0  0
 26 27  2  0  0  0
 27 28  1  0  0  0
 27 29  1  0  0  0
 29 30  2  0  0  0
 19 15  1  0  0  0
  8  1  1  0  0  0
 30 24  1  0  0  0
 40 34  1  0  0  0
 22 23  1  0  0  0
  4  9  1  0  0  0
 36 41  1  0  0  0
 44 45  1  0  0  0
  7 10  1  0  0  0
 28 31  1  0  0  0
M  END
> <minimizedAffinity>
-8.49737

> <CNNscore>
0.2444508225

> <CNNaffinity>
5.9367189407

> <CNN_VS>
1.4512357712

> <CNNaffinity_variance>
0.2822056115

$$$$
[H]OC(=O)c1c([H])c([H])c([H])c(O[H])c1C(=O)c1c(O[H])c([H])c(C(=O)OC([H])([H])[C@]2([H])C([H])([H])C([H])([H])C([H])([H])[C@@]2([H])N([H])C(=O)c2c([H])c([H])c(O[H])c([H])c2[H])c([H])c1O[H]


 45 48  0  0  0  0  0  0  0  0999 V2000
  154.6234  138.6188  184.5464 C   0  0  0  0  0  0  0  0  0  0  0  0
  154.0333  138.6772  185.7734 C   0  0  0  0  0  0  0  0  0  0  0  0
  152.8957  137.9143  186.0723 C   0  0  0  0  0  0  0  0  0  0  0  0
  152.3893  138.0480  187.3419 O   0  0  0  0  0  0  0  0  0  0  0  0
  152.3230  137.0746  185.1429 C   0  0  0  0  0  0  0  0  0  0  0  0
  152.9360  137.0218  183.8831 C   0  0  0  0  0  0  0  0  0  0  0  0
  152.4389  136.2071  182.8492 O   0  0  0  0  0  0  0  0  0  0  0  0
  154.0517  137.7805  183.6198 C   0  0  0  0  0  0  0  0  0  0  0  0
  151.6371  137.6180  187.7919 H   0  0  0  0  0  0  0  0  0  0  0  0
  152.8881  136.1851  181.9680 H   0  0  0  0  0  0  0  0  0  0  0  0
  155.8268  139.4165  184.2180 C   0  0  0  0  0  0  0  0  0  0  0  0
  156.6123  139.6727  185.1397 O   0  0  0  0  0  0  0  0  0  0  0  0
  156.0531  139.8383  182.9911 O   0  0  0  0  0  0  0  0  0  0  0  0
  156.2168  140.9420  182.2411 C   0  0  0  0  0  0  0  0  0  0  0  0
  157.8396  142.7343  182.4315 C   0  0  0  0  0  0  0  0  0  0  0  0
  157.5088  143.9941  181.6685 C   0  0  0  0  0  0  0  0  0  0  0  0
  156.1223  144.4099  182.0237 C   0  0  0  0  0  0  0  0  0  0  0  0
  155.4994  143.2787  182.8307 C   0  0  0  0  0  0  0  0  0  0  0  0
  156.4887  142.2191  182.9402 C   0  0  0  0  0  0  0  0  0  0  0  0
  159.9414  141.0868  182.9936 O   0  0  0  0  0  0  0  0  0  0  0  0
  159.8251  142.0990  183.7449 C   0  0  0  0  0  0  0  0  0  0  0  0
  158.7677  142.9885  183.5159 N   0  0  0  0  0  0  0  0  0  0  0  0
  158.6484  143.8359  184.1297 H   0  0  0  0  0  0  0  0  0  0  0  0
  160.7860  142.2849  184.7971 C   0  0  0  0  0  0  0  0  0  0  0  0
  160.3792  142.6255  186.0632 C   0  0  0  0  0  0  0  0  0  0  0  0
  161.3047  142.8107  187.0934 C   0  0  0  0  0  0  0  0  0  0  0  0
  162.6433  142.6487  186.8337 C   0  0  0  0  0  0  0  0  0  0  0  0
  163.5847  142.8291  187.8499 O   0  0  0  0  0  0  0  0  0  0  0  0
  163.0501  142.3065  185.5608 C   0  0  0  0  0  0  0  0  0  0  0  0
  162.1456  142.1220  184.5399 C   0  0  0  0  0  0  0  0  0  0  0  0
  163.8800  142.0712  188.4369 H   0  0  0  0  0  0  0  0  0  0  0  0
  151.0839  136.3832  185.2886 C   0  0  0  0  0  0  0  0  0  0  0  0
  151.2324  135.0778  185.2861 O   0  0  0  0  0  0  0  0  0  0  0  0
  149.7280  136.8393  185.4508 C   0  0  0  0  0  0  0  0  0  0  0  0
  149.2343  136.6819  186.7718 C   0  0  0  0  0  0  0  0  0  0  0  0
  150.0606  136.1422  187.7474 O   0  0  0  0  0  0  0  0  0  0  0  0
  147.9704  137.0430  187.1224 C   0  0  0  0  0  0  0  0  0  0  0  0
  147.1779  137.5737  186.1346 C   0  0  0  0  0  0  0  0  0  0  0  0
  147.6222  137.7328  184.8599 C   0  0  0  0  0  0  0  0  0  0  0  0
  148.9446  137.3540  184.4785 C   0  0  0  0  0  0  0  0  0  0  0  0
  149.6992  136.0364  188.6792 H   0  0  0  0  0  0  0  0  0  0  0  0
  149.2340  137.3577  183.0622 C   0  0  0  0  0  0  0  0  0  0  0  0
  148.5928  136.5295  182.3295 O   0  0  0  0  0  0  0  0  0  0  0  0
  150.1216  138.1345  182.4063 O   0  0  0  0  0  0  0  0  0  0  0  0
  150.4786  138.0016  181.4810 H   0  0  0  0  0  0  0  0  0  0  0  0
 20 21  2  0  0  0
 21 22  1  0  0  0
 22 15  1  0  0  0
 15 16  1  0  0  0
 16 17  1  0  0  0
 17 18  1  0  0  0
 18 19  1  0  0  0
 19 14  1  0  0  0
 14 13  1  0  0  0
 13 11  1  0  0  0
 11 12  2  0  0  0
 11  1  1  0  0  0
  1  2  2  0  0  0
  2  3  1  0  0  0
  3  4  1  0  0  0
  3  5  2  0  0  0
  5 32  1  0  0  0
 32 33  2  0  0  0
 32 34  1  0  0  0
 34 35  2  0  0  0
 35 36  1  0  0  0
 35 37  1  0  0  0
 37 38  2  0  0  0
 38 39  1  0  0  0
 39 40  2  0  0  0
 40 42  1  0  0  0
 42 43  2  0  0  0
 42 44  1  0  0  0
  5  6  1  0  0  0
  6  7  1  0  0  0
  6  8  2  0  0  0
 21 24  1  0  0  0
 24 25  2  0  0  0
 25 26  1  0  0  0
 26 27  2  0  0  0
 27 28  1  0  0  0
 27 29  1  0  0  0
 29 30  2  0  0  0
 19 15  1  0  0  0
  8  1  1  0  0  0
 30 24  1  0  0  0
 40 34  1  0  0  0
 22 23  1  0  0  0
  4  9  1  0  0  0
 36 41  1  0  0  0
 44 45  1  0  0  0
  7 10  1  0  0  0
 28 31  1  0  0  0
M  END
> <minimizedAffinity>
-8.40411

> <CNNscore>
0.2412606180

> <CNNaffinity>
5.7713775635

> <CNN_VS>
1.3924061060

> <CNNaffinity_variance>
0.0844029039

$$$$
[H]OC(=O)c1c([H])c([H])c([H])c(O[H])c1C(=O)c1c(O[H])c([H])c(C(=O)OC([H])([H])[C@]2([H])C([H])([H])C([H])([H])C([H])([H])[C@@]2([H])N([H])C(=O)c2c([H])c([H])c(O[H])c([H])c2[H])c([H])c1O[H]


 45 48  0  0  0  0  0  0  0  0999 V2000
  153.9722  138.1187  186.0604 C   0  0  0  0  0  0  0  0  0  0  0  0
  153.9755  138.2148  187.4197 C   0  0  0  0  0  0  0  0  0  0  0  0
  153.1891  137.3671  188.2123 C   0  0  0  0  0  0  0  0  0  0  0  0
  153.2759  137.5497  189.5707 O   0  0  0  0  0  0  0  0  0  0  0  0
  152.3788  136.4023  187.6561 C   0  0  0  0  0  0  0  0  0  0  0  0
  152.3809  136.3113  186.2571 C   0  0  0  0  0  0  0  0  0  0  0  0
  151.5891  135.3707  185.5730 O   0  0  0  0  0  0  0  0  0  0  0  0
  153.1639  137.1557  185.5061 C   0  0  0  0  0  0  0  0  0  0  0  0
  152.8569  137.0831  190.3189 H   0  0  0  0  0  0  0  0  0  0  0  0
  151.6069  135.3240  184.5849 H   0  0  0  0  0  0  0  0  0  0  0  0
  154.8000  139.0054  185.2111 C   0  0  0  0  0  0  0  0  0  0  0  0
  156.0287  138.8663  185.2663 O   0  0  0  0  0  0  0  0  0  0  0  0
  154.2498  139.9086  184.4265 O   0  0  0  0  0  0  0  0  0  0  0  0
  154.4799  140.7032  183.3666 C   0  0  0  0  0  0  0  0  0  0  0  0
  156.4846  142.0140  182.9854 C   0  0  0  0  0  0  0  0  0  0  0  0
  156.4060  143.0062  181.8505 C   0  0  0  0  0  0  0  0  0  0  0  0
  155.1815  143.8358  182.0336 C   0  0  0  0  0  0  0  0  0  0  0  0
  154.3676  143.2063  183.1561 C   0  0  0  0  0  0  0  0  0  0  0  0
  155.0879  142.0304  183.6165 C   0  0  0  0  0  0  0  0  0  0  0  0
  158.9721  140.8918  182.9548 O   0  0  0  0  0  0  0  0  0  0  0  0
  158.7717  141.7506  183.8630 C   0  0  0  0  0  0  0  0  0  0  0  0
  157.5166  142.3674  183.9403 N   0  0  0  0  0  0  0  0  0  0  0  0
  157.3252  143.0826  184.6892 H   0  0  0  0  0  0  0  0  0  0  0  0
  159.8447  142.0502  184.7708 C   0  0  0  0  0  0  0  0  0  0  0  0
  161.1435  142.0934  184.3281 C   0  0  0  0  0  0  0  0  0  0  0  0
  162.1947  142.3817  185.2020 C   0  0  0  0  0  0  0  0  0  0  0  0
  161.9228  142.6262  186.5256 C   0  0  0  0  0  0  0  0  0  0  0  0
  162.9596  142.9166  187.4156 O   0  0  0  0  0  0  0  0  0  0  0  0
  160.6171  142.5823  186.9685 C   0  0  0  0  0  0  0  0  0  0  0  0
  159.5753  142.2991  186.1149 C   0  0  0  0  0  0  0  0  0  0  0  0
  163.2657  143.8574  187.5811 H   0  0  0  0  0  0  0  0  0  0  0  0
  151.4260  135.6029  188.3546 C   0  0  0  0  0  0  0  0  0  0  0  0
  150.1886  135.8771  188.0086 O   0  0  0  0  0  0  0  0  0  0  0  0
  151.5643  134.5603  189.3378 C   0  0  0  0  0  0  0  0  0  0  0  0
  151.7697  133.2753  188.7721 C   0  0  0  0  0  0  0  0  0  0  0  0
  151.8298  133.1408  187.3922 O   0  0  0  0  0  0  0  0  0  0  0  0
  151.9114  132.1593  189.5372 C   0  0  0  0  0  0  0  0  0  0  0  0
  151.8472  132.3257  190.8987 C   0  0  0  0  0  0  0  0  0  0  0  0
  151.6476  133.5433  191.4687 C   0  0  0  0  0  0  0  0  0  0  0  0
  151.4932  134.7211  190.6769 C   0  0  0  0  0  0  0  0  0  0  0  0
  151.9762  132.2255  187.0040 H   0  0  0  0  0  0  0  0  0  0  0  0
  151.0654  135.9144  191.3715 C   0  0  0  0  0  0  0  0  0  0  0  0
  149.8088  136.0783  191.5384 O   0  0  0  0  0  0  0  0  0  0  0  0
  151.8422  136.9012  191.8659 O   0  0  0  0  0  0  0  0  0  0  0  0
  151.5545  137.8159  192.1518 H   0  0  0  0  0  0  0  0  0  0  0  0
 20 21  2  0  0  0
 21 22  1  0  0  0
 22 15  1  0  0  0
 15 16  1  0  0  0
 16 17  1  0  0  0
 17 18  1  0  0  0
 18 19  1  0  0  0
 19 14  1  0  0  0
 14 13  1  0  0  0
 13 11  1  0  0  0
 11 12  2  0  0  0
 11  1  1  0  0  0
  1  2  2  0  0  0
  2  3  1  0  0  0
  3  4  1  0  0  0
  3  5  2  0  0  0
  5 32  1  0  0  0
 32 33  2  0  0  0
 32 34  1  0  0  0
 34 35  2  0  0  0
 35 36  1  0  0  0
 35 37  1  0  0  0
 37 38  2  0  0  0
 38 39  1  0  0  0
 39 40  2  0  0  0
 40 42  1  0  0  0
 42 43  2  0  0  0
 42 44  1  0  0  0
  5  6  1  0  0  0
  6  7  1  0  0  0
  6  8  2  0  0  0
 21 24  1  0  0  0
 24 25  2  0  0  0
 25 26  1  0  0  0
 26 27  2  0  0  0
 27 28  1  0  0  0
 27 29  1  0  0  0
 29 30  2  0  0  0
 19 15  1  0  0  0
  8  1  1  0  0  0
 30 24  1  0  0  0
 40 34  1  0  0  0
 22 23  1  0  0  0
  4  9  1  0  0  0
 36 41  1  0  0  0
 44 45  1  0  0  0
  7 10  1  0  0  0
 28 31  1  0  0  0
M  END
> <minimizedAffinity>
-8.22358

> <CNNscore>
0.2182086855

> <CNNaffinity>
5.7396764755

> <CNN_VS>
1.2524472475

> <CNNaffinity_variance>
0.2211490870

$$$$
[H]OC(=O)c1c([H])c([H])c([H])c(O[H])c1C(=O)c1c(O[H])c([H])c(C(=O)OC([H])([H])[C@]2([H])C([H])([H])C([H])([H])C([H])([H])[C@@]2([H])N([H])C(=O)c2c([H])c([H])c(O[H])c([H])c2[H])c([H])c1O[H]


 45 48  0  0  0  0  0  0  0  0999 V2000
  153.6406  138.0165  184.8112 C   0  0  0  0  0  0  0  0  0  0  0  0
  153.5976  138.6802  186.0007 C   0  0  0  0  0  0  0  0  0  0  0  0
  153.7787  138.0080  187.2175 C   0  0  0  0  0  0  0  0  0  0  0  0
  153.7211  138.7783  188.3531 O   0  0  0  0  0  0  0  0  0  0  0  0
  154.0063  136.6507  187.2673 C   0  0  0  0  0  0  0  0  0  0  0  0
  154.0478  135.9759  186.0391 C   0  0  0  0  0  0  0  0  0  0  0  0
  154.2656  134.5880  185.9614 O   0  0  0  0  0  0  0  0  0  0  0  0
  153.8681  136.6623  184.8617 C   0  0  0  0  0  0  0  0  0  0  0  0
  153.8363  138.5570  189.2969 H   0  0  0  0  0  0  0  0  0  0  0  0
  154.2914  134.1326  185.0835 H   0  0  0  0  0  0  0  0  0  0  0  0
  153.4540  138.7141  183.5185 C   0  0  0  0  0  0  0  0  0  0  0  0
  152.6455  138.2275  182.7175 O   0  0  0  0  0  0  0  0  0  0  0  0
  154.1235  139.8112  183.2312 O   0  0  0  0  0  0  0  0  0  0  0  0
  155.3598  140.3032  183.0387 C   0  0  0  0  0  0  0  0  0  0  0  0
  156.8773  142.1818  182.8148 C   0  0  0  0  0  0  0  0  0  0  0  0
  156.3504  143.3514  182.0192 C   0  0  0  0  0  0  0  0  0  0  0  0
  155.0159  143.7294  182.5644 C   0  0  0  0  0  0  0  0  0  0  0  0
  154.6023  142.6455  183.5508 C   0  0  0  0  0  0  0  0  0  0  0  0
  155.6604  141.6489  183.5792 C   0  0  0  0  0  0  0  0  0  0  0  0
  159.0571  140.6096  183.2889 O   0  0  0  0  0  0  0  0  0  0  0  0
  159.0394  141.7173  183.9014 C   0  0  0  0  0  0  0  0  0  0  0  0
  157.9498  142.5758  183.7071 N   0  0  0  0  0  0  0  0  0  0  0  0
  157.9112  143.5013  184.2082 H   0  0  0  0  0  0  0  0  0  0  0  0
  160.1406  142.0390  184.7668 C   0  0  0  0  0  0  0  0  0  0  0  0
  159.9190  142.4333  186.0630 C   0  0  0  0  0  0  0  0  0  0  0  0
  160.9817  142.7504  186.9126 C   0  0  0  0  0  0  0  0  0  0  0  0
  162.2690  142.6654  186.4422 C   0  0  0  0  0  0  0  0  0  0  0  0
  163.3456  142.9778  187.2758 O   0  0  0  0  0  0  0  0  0  0  0  0
  162.4896  142.2689  185.1395 C   0  0  0  0  0  0  0  0  0  0  0  0
  161.4489  141.9547  184.2954 C   0  0  0  0  0  0  0  0  0  0  0  0
  163.7918  142.2829  187.8451 H   0  0  0  0  0  0  0  0  0  0  0  0
  154.0432  135.8494  188.4469 C   0  0  0  0  0  0  0  0  0  0  0  0
  153.0006  135.0565  188.5496 O   0  0  0  0  0  0  0  0  0  0  0  0
  154.9986  135.7372  189.5180 C   0  0  0  0  0  0  0  0  0  0  0  0
  154.5826  136.3775  190.7140 C   0  0  0  0  0  0  0  0  0  0  0  0
  153.3495  137.0130  190.7525 O   0  0  0  0  0  0  0  0  0  0  0  0
  155.3529  136.3926  191.8353 C   0  0  0  0  0  0  0  0  0  0  0  0
  156.5671  135.7552  191.7651 C   0  0  0  0  0  0  0  0  0  0  0  0
  156.9936  135.1369  190.6323 C   0  0  0  0  0  0  0  0  0  0  0  0
  156.1966  135.1176  189.4481 C   0  0  0  0  0  0  0  0  0  0  0  0
  153.0663  137.4623  191.6056 H   0  0  0  0  0  0  0  0  0  0  0  0
  156.8372  134.6322  188.2466 C   0  0  0  0  0  0  0  0  0  0  0  0
  157.7068  135.3909  187.6969 O   0  0  0  0  0  0  0  0  0  0  0  0
  156.6197  133.4595  187.6151 O   0  0  0  0  0  0  0  0  0  0  0  0
  156.8931  133.2096  186.6855 H   0  0  0  0  0  0  0  0  0  0  0  0
 20 21  2  0  0  0
 21 22  1  0  0  0
 22 15  1  0  0  0
 15 16  1  0  0  0
 16 17  1  0  0  0
 17 18  1  0  0  0
 18 19  1  0  0  0
 19 14  1  0  0  0
 14 13  1  0  0  0
 13 11  1  0  0  0
 11 12  2  0  0  0
 11  1  1  0  0  0
  1  2  2  0  0  0
  2  3  1  0  0  0
  3  4  1  0  0  0
  3  5  2  0  0  0
  5 32  1  0  0  0
 32 33  2  0  0  0
 32 34  1  0  0  0
 34 35  2  0  0  0
 35 36  1  0  0  0
 35 37  1  0  0  0
 37 38  2  0  0  0
 38 39  1  0  0  0
 39 40  2  0  0  0
 40 42  1  0  0  0
 42 43  2  0  0  0
 42 44  1  0  0  0
  5  6  1  0  0  0
  6  7  1  0  0  0
  6  8  2  0  0  0
 21 24  1  0  0  0
 24 25  2  0  0  0
 25 26  1  0  0  0
 26 27  2  0  0  0
 27 28  1  0  0  0
 27 29  1  0  0  0
 29 30  2  0  0  0
 19 15  1  0  0  0
  8  1  1  0  0  0
 30 24  1  0  0  0
 40 34  1  0  0  0
 22 23  1  0  0  0
  4  9  1  0  0  0
 36 41  1  0  0  0
 44 45  1  0  0  0
  7 10  1  0  0  0
 28 31  1  0  0  0
M  END
> <minimizedAffinity>
-9.16068

> <CNNscore>
0.2165914327

> <CNNaffinity>
5.8894796371

> <CNN_VS>
1.2756108046

> <CNNaffinity_variance>
0.1180669069

$$$$
[H]OC(=O)c1c([H])c([H])c([H])c(O[H])c1C(=O)c1c(O[H])c([H])c(C(=O)OC([H])([H])[C@]2([H])C([H])([H])C([H])([H])C([H])([H])[C@@]2([H])N([H])C(=O)c2c([H])c([H])c(O[H])c([H])c2[H])c([H])c1O[H]


 45 48  0  0  0  0  0  0  0  0999 V2000
  154.6985  138.6420  185.0218 C   0  0  0  0  0  0  0  0  0  0  0  0
  154.4066  138.7128  186.3510 C   0  0  0  0  0  0  0  0  0  0  0  0
  153.3065  138.0336  186.8930 C   0  0  0  0  0  0  0  0  0  0  0  0
  153.1116  138.1717  188.2455 O   0  0  0  0  0  0  0  0  0  0  0  0
  152.4721  137.2670  186.1101 C   0  0  0  0  0  0  0  0  0  0  0  0
  152.7793  137.2007  184.7438 C   0  0  0  0  0  0  0  0  0  0  0  0
  151.9969  136.4561  183.8421 O   0  0  0  0  0  0  0  0  0  0  0  0
  153.8658  137.8767  184.2413 C   0  0  0  0  0  0  0  0  0  0  0  0
  152.4472  137.7898  188.8503 H   0  0  0  0  0  0  0  0  0  0  0  0
  152.2328  136.4231  182.8819 H   0  0  0  0  0  0  0  0  0  0  0  0
  155.8587  139.3517  184.4364 C   0  0  0  0  0  0  0  0  0  0  0  0
  156.8282  139.5691  185.1747 O   0  0  0  0  0  0  0  0  0  0  0  0
  155.8594  139.7376  183.1773 O   0  0  0  0  0  0  0  0  0  0  0  0
  155.9744  140.8115  182.3766 C   0  0  0  0  0  0  0  0  0  0  0  0
  157.6269  142.5857  182.4379 C   0  0  0  0  0  0  0  0  0  0  0  0
  157.2916  143.8142  181.6273 C   0  0  0  0  0  0  0  0  0  0  0  0
  155.9220  144.2668  182.0022 C   0  0  0  0  0  0  0  0  0  0  0  0
  155.3071  143.1833  182.8778 C   0  0  0  0  0  0  0  0  0  0  0  0
  156.2843  142.1149  183.0080 C   0  0  0  0  0  0  0  0  0  0  0  0
  159.7599  140.9687  182.9701 O   0  0  0  0  0  0  0  0  0  0  0  0
  159.6613  141.9994  183.6983 C   0  0  0  0  0  0  0  0  0  0  0  0
  158.5895  142.8750  183.4827 N   0  0  0  0  0  0  0  0  0  0  0  0
  158.4846  143.7375  184.0779 H   0  0  0  0  0  0  0  0  0  0  0  0
  160.6562  142.2199  184.7115 C   0  0  0  0  0  0  0  0  0  0  0  0
  160.2905  142.5947  185.9805 C   0  0  0  0  0  0  0  0  0  0  0  0
  161.2492  142.8136  186.9729 C   0  0  0  0  0  0  0  0  0  0  0  0
  162.5792  142.6506  186.6727 C   0  0  0  0  0  0  0  0  0  0  0  0
  163.5534  142.8644  187.6507 O   0  0  0  0  0  0  0  0  0  0  0  0
  162.9446  142.2740  185.3969 C   0  0  0  0  0  0  0  0  0  0  0  0
  162.0072  142.0562  184.4130 C   0  0  0  0  0  0  0  0  0  0  0  0
  163.8727  142.1251  188.2486 H   0  0  0  0  0  0  0  0  0  0  0  0
  151.2449  136.6711  186.5266 C   0  0  0  0  0  0  0  0  0  0  0  0
  150.2397  137.5167  186.4990 O   0  0  0  0  0  0  0  0  0  0  0  0
  150.9043  135.3374  186.9485 C   0  0  0  0  0  0  0  0  0  0  0  0
  150.0647  134.6531  186.0319 C   0  0  0  0  0  0  0  0  0  0  0  0
  149.6738  135.2886  184.8618 O   0  0  0  0  0  0  0  0  0  0  0  0
  149.6238  133.3860  186.2577 C   0  0  0  0  0  0  0  0  0  0  0  0
  150.0281  132.7848  187.4241 C   0  0  0  0  0  0  0  0  0  0  0  0
  150.8287  133.4168  188.3224 C   0  0  0  0  0  0  0  0  0  0  0  0
  151.2945  134.7476  188.0992 C   0  0  0  0  0  0  0  0  0  0  0  0
  149.0795  134.7931  184.2206 H   0  0  0  0  0  0  0  0  0  0  0  0
  151.9480  135.3981  189.2124 C   0  0  0  0  0  0  0  0  0  0  0  0
  151.2018  135.8808  190.1311 O   0  0  0  0  0  0  0  0  0  0  0  0
  153.2731  135.5717  189.4009 O   0  0  0  0  0  0  0  0  0  0  0  0
  153.7192  136.1945  190.0446 H   0  0  0  0  0  0  0  0  0  0  0  0
 20 21  2  0  0  0
 21 22  1  0  0  0
 22 15  1  0  0  0
 15 16  1  0  0  0
 16 17  1  0  0  0
 17 18  1  0  0  0
 18 19  1  0  0  0
 19 14  1  0  0  0
 14 13  1  0  0  0
 13 11  1  0  0  0
 11 12  2  0  0  0
 11  1  1  0  0  0
  1  2  2  0  0  0
  2  3  1  0  0  0
  3  4  1  0  0  0
  3  5  2  0  0  0
  5 32  1  0  0  0
 32 33  2  0  0  0
 32 34  1  0  0  0
 34 35  2  0  0  0
 35 36  1  0  0  0
 35 37  1  0  0  0
 37 38  2  0  0  0
 38 39  1  0  0  0
 39 40  2  0  0  0
 40 42  1  0  0  0
 42 43  2  0  0  0
 42 44  1  0  0  0
  5  6  1  0  0  0
  6  7  1  0  0  0
  6  8  2  0  0  0
 21 24  1  0  0  0
 24 25  2  0  0  0
 25 26  1  0  0  0
 26 27  2  0  0  0
 27 28  1  0  0  0
 27 29  1  0  0  0
 29 30  2  0  0  0
 19 15  1  0  0  0
  8  1  1  0  0  0
 30 24  1  0  0  0
 40 34  1  0  0  0
 22 23  1  0  0  0
  4  9  1  0  0  0
 36 41  1  0  0  0
 44 45  1  0  0  0
  7 10  1  0  0  0
 28 31  1  0  0  0
M  END
> <minimizedAffinity>
-8.01800

> <CNNscore>
0.2053892314

> <CNNaffinity>
5.7701539993

> <CNN_VS>
1.1851274967

> <CNNaffinity_variance>
0.1406050175

$$$$
[H]OC(=O)C([H])([H])C([H])([H])c1c2c(n([H])c1C([H])=C1C(=O)N([H])c3c([H])c([H])c(S(=O)(=O)N([H])C([H])([H])[H])c([H])c31)C([H])([H])C([H])([H])C([H])([H])C2=O


 35 38  0  0  0  0  0  0  0  0999 V2000
  149.8966  138.3309  180.0819 C   0  0  0  0  0  0  0  0  0  0  0  0
  150.3194  139.3258  179.2267 C   0  0  0  0  0  0  0  0  0  0  0  0
  151.4174  140.0978  179.5190 C   0  0  0  0  0  0  0  0  0  0  0  0
  152.1551  139.9102  180.6947 C   0  0  0  0  0  0  0  0  0  0  0  0
  151.7376  138.9182  181.5524 C   0  0  0  0  0  0  0  0  0  0  0  0
  150.6188  138.1540  181.2238 C   0  0  0  0  0  0  0  0  0  0  0  0
  152.6223  138.8509  182.7341 C   0  0  0  0  0  0  0  0  0  0  0  0
  152.5196  138.0027  183.7249 C   0  0  0  0  0  0  0  0  0  0  0  0
  153.5964  139.9006  182.4801 C   0  0  0  0  0  0  0  0  0  0  0  0
  154.5650  140.2293  183.2119 O   0  0  0  0  0  0  0  0  0  0  0  0
  153.2995  140.5438  181.2270 N   0  0  0  0  0  0  0  0  0  0  0  0
  153.8131  141.3252  180.7792 H   0  0  0  0  0  0  0  0  0  0  0  0
  153.3693  137.9167  184.8961 C   0  0  0  0  0  0  0  0  0  0  0  0
  154.6793  138.0576  185.0874 N   0  0  0  0  0  0  0  0  0  0  0  0
  155.0110  137.8567  186.3774 C   0  0  0  0  0  0  0  0  0  0  0  0
  153.8599  137.5681  187.0786 C   0  0  0  0  0  0  0  0  0  0  0  0
  152.8403  137.6066  186.1536 C   0  0  0  0  0  0  0  0  0  0  0  0
  153.9722  137.3119  188.5034 C   0  0  0  0  0  0  0  0  0  0  0  0
  152.9782  137.5775  189.2223 O   0  0  0  0  0  0  0  0  0  0  0  0
  155.2076  136.7543  189.1220 C   0  0  0  0  0  0  0  0  0  0  0  0
  156.2687  136.6101  188.0222 C   0  0  0  0  0  0  0  0  0  0  0  0
  156.2834  137.8798  187.1620 C   0  0  0  0  0  0  0  0  0  0  0  0
  155.3793  138.3029  184.3812 H   0  0  0  0  0  0  0  0  0  0  0  0
  151.4355  137.3595  186.4789 C   0  0  0  0  0  0  0  0  0  0  0  0
  151.0854  135.8964  186.6313 C   0  0  0  0  0  0  0  0  0  0  0  0
  150.2903  135.7654  187.8710 C   0  0  0  0  0  0  0  0  0  0  0  0
  149.0517  135.8953  187.8598 O   0  0  0  0  0  0  0  0  0  0  0  0
  150.9310  135.4943  189.0632 O   0  0  0  0  0  0  0  0  0  0  0  0
  151.6508  136.0814  189.4632 H   0  0  0  0  0  0  0  0  0  0  0  0
  148.5150  137.3303  179.7355 S   0  0  0  0  0  0  0  0  0  0  0  0
  148.9722  135.9002  179.8069 O   0  0  0  0  0  0  0  0  0  0  0  0
  147.9952  137.5824  178.3654 O   0  0  0  0  0  0  0  0  0  0  0  0
  146.8622  138.9164  181.0301 C   0  0  0  0  0  0  0  0  0  0  0  0
  147.2439  137.5253  180.8724 N   0  0  0  0  0  0  0  0  0  0  0  0
  147.3941  137.0415  181.7601 H   0  0  0  0  0  0  0  0  0  0  0  0
 33 34  1  0  0  0
 34 30  1  0  0  0
 30 31  2  0  0  0
 30 32  2  0  0  0
 30  1  1  0  0  0
  1  2  2  0  0  0
  2  3  1  0  0  0
  3  4  2  0  0  0
  4  5  1  0  0  0
  5  6  2  0  0  0
  5  7  1  0  0  0
  7  8  2  0  0  0
  8 13  1  0  0  0
 13 14  1  0  0  0
 14 15  1  0  0  0
 15 16  2  0  0  0
 16 17  1  0  0  0
 17 24  1  0  0  0
 24 25  1  0  0  0
 25 26  1  0  0  0
 26 27  2  0  0  0
 26 28  1  0  0  0
 16 18  1  0  0  0
 18 19  2  0  0  0
 18 20  1  0  0  0
 20 21  1  0  0  0
 21 22  1  0  0  0
  7  9  1  0  0  0
  9 10  2  0  0  0
  9 11  1  0  0  0
  6  1  1  0  0  0
 17 13  2  0  0  0
 11  4  1  0  0  0
 22 15  1  0  0  0
 34 35  1  0  0  0
 14 23  1  0  0  0
 28 29  1  0  0  0
 11 12  1  0  0  0
M  END
> <minimizedAffinity>
-6.57000

> <CNNscore>
0.4098540545

> <CNNaffinity>
5.5959181786

> <CNN_VS>
2.2935097218

> <CNNaffinity_variance>
0.0703203231

$$$$
[H]OC(=O)C([H])([H])C([H])([H])c1c2c(n([H])c1C([H])=C1C(=O)N([H])c3c([H])c([H])c(S(=O)(=O)N([H])C([H])([H])[H])c([H])c31)C([H])([H])C([H])([H])C([H])([H])C2=O


 35 38  0  0  0  0  0  0  0  0999 V2000
  149.7681  138.3795  179.8763 C   0  0  0  0  0  0  0  0  0  0  0  0
  150.2935  139.3774  179.0837 C   0  0  0  0  0  0  0  0  0  0  0  0
  151.4226  140.0645  179.4577 C   0  0  0  0  0  0  0  0  0  0  0  0
  152.0896  139.7838  180.6569 C   0  0  0  0  0  0  0  0  0  0  0  0
  151.5695  138.7885  181.4525 C   0  0  0  0  0  0  0  0  0  0  0  0
  150.4218  138.1119  181.0416 C   0  0  0  0  0  0  0  0  0  0  0  0
  152.3903  138.6179  182.6694 C   0  0  0  0  0  0  0  0  0  0  0  0
  152.1867  137.7404  183.6181 C   0  0  0  0  0  0  0  0  0  0  0  0
  153.4398  139.6112  182.5042 C   0  0  0  0  0  0  0  0  0  0  0  0
  154.3908  139.8476  183.2925 O   0  0  0  0  0  0  0  0  0  0  0  0
  153.2447  140.3205  181.2668 N   0  0  0  0  0  0  0  0  0  0  0  0
  153.8276  141.0837  180.8760 H   0  0  0  0  0  0  0  0  0  0  0  0
  152.9719  137.5539  184.8222 C   0  0  0  0  0  0  0  0  0  0  0  0
  153.3657  138.3755  185.7930 N   0  0  0  0  0  0  0  0  0  0  0  0
  154.1163  137.7305  186.7069 C   0  0  0  0  0  0  0  0  0  0  0  0
  154.2252  136.4114  186.3221 C   0  0  0  0  0  0  0  0  0  0  0  0
  153.5116  136.3052  185.1489 C   0  0  0  0  0  0  0  0  0  0  0  0
  154.9972  135.5143  187.1632 C   0  0  0  0  0  0  0  0  0  0  0  0
  154.6846  134.2988  187.1576 O   0  0  0  0  0  0  0  0  0  0  0  0
  156.1256  135.9865  188.0138 C   0  0  0  0  0  0  0  0  0  0  0  0
  156.2189  137.5127  187.8785 C   0  0  0  0  0  0  0  0  0  0  0  0
  154.8124  138.1172  187.9722 C   0  0  0  0  0  0  0  0  0  0  0  0
  153.1386  139.3699  185.8847 H   0  0  0  0  0  0  0  0  0  0  0  0
  153.3629  135.0598  184.3958 C   0  0  0  0  0  0  0  0  0  0  0  0
  154.4501  134.8242  183.3717 C   0  0  0  0  0  0  0  0  0  0  0  0
  154.9809  133.4641  183.6046 C   0  0  0  0  0  0  0  0  0  0  0  0
  154.6848  132.5181  182.8506 O   0  0  0  0  0  0  0  0  0  0  0  0
  155.8199  133.2369  184.6768 O   0  0  0  0  0  0  0  0  0  0  0  0
  155.5664  133.4155  185.6395 H   0  0  0  0  0  0  0  0  0  0  0  0
  148.3444  137.4851  179.4258 S   0  0  0  0  0  0  0  0  0  0  0  0
  148.7257  136.0317  179.3873 O   0  0  0  0  0  0  0  0  0  0  0  0
  147.8673  137.8746  178.0725 O   0  0  0  0  0  0  0  0  0  0  0  0
  146.8124  139.0435  180.8914 C   0  0  0  0  0  0  0  0  0  0  0  0
  147.0613  137.6544  180.5533 N   0  0  0  0  0  0  0  0  0  0  0  0
  147.1339  137.0437  181.3696 H   0  0  0  0  0  0  0  0  0  0  0  0
 33 34  1  0  0  0
 34 30  1  0  0  0
 30 31  2  0  0  0
 30 32  2  0  0  0
 30  1  1  0  0  0
  1  2  2  0  0  0
  2  3  1  0  0  0
  3  4  2  0  0  0
  4  5  1  0  0  0
  5  6  2  0  0  0
  5  7  1  0  0  0
  7  8  2  0  0  0
  8 13  1  0  0  0
 13 14  1  0  0  0
 14 15  1  0  0  0
 15 16  2  0  0  0
 16 17  1  0  0  0
 17 24  1  0  0  0
 24 25  1  0  0  0
 25 26  1  0  0  0
 26 27  2  0  0  0
 26 28  1  0  0  0
 16 18  1  0  0  0
 18 19  2  0  0  0
 18 20  1  0  0  0
 20 21  1  0  0  0
 21 22  1  0  0  0
  7  9  1  0  0  0
  9 10  2  0  0  0
  9 11  1  0  0  0
  6  1  1  0  0  0
 17 13  2  0  0  0
 11  4  1  0  0  0
 22 15  1  0  0  0
 34 35  1  0  0  0
 14 23  1  0  0  0
 28 29  1  0  0  0
 11 12  1  0  0  0
M  END
> <minimizedAffinity>
-6.36001

> <CNNscore>
0.3679265678

> <CNNaffinity>
5.4259538651

> <CNN_VS>
1.9963525534

> <CNNaffinity_variance>
0.0717720687

$$$$
[H]OC(=O)C([H])([H])C([H])([H])c1c2c(n([H])c1C([H])=C1C(=O)N([H])c3c([H])c([H])c(S(=O)(=O)N([H])C([H])([H])[H])c([H])c31)C([H])([H])C([H])([H])C([H])([H])C2=O


 35 38  0  0  0  0  0  0  0  0999 V2000
  160.4936  142.4464  185.3429 C   0  0  0  0  0  0  0  0  0  0  0  0
  161.5159  142.4701  184.4186 C   0  0  0  0  0  0  0  0  0  0  0  0
  161.3089  142.0834  183.1169 C   0  0  0  0  0  0  0  0  0  0  0  0
  160.0543  141.6492  182.6705 C   0  0  0  0  0  0  0  0  0  0  0  0
  159.0298  141.6233  183.5890 C   0  0  0  0  0  0  0  0  0  0  0  0
  159.2760  142.0227  184.9019 C   0  0  0  0  0  0  0  0  0  0  0  0
  157.7814  141.1479  182.9572 C   0  0  0  0  0  0  0  0  0  0  0  0
  156.6181  141.0310  183.5441 C   0  0  0  0  0  0  0  0  0  0  0  0
  158.1793  140.8999  181.5804 C   0  0  0  0  0  0  0  0  0  0  0  0
  157.4510  140.4815  180.6444 O   0  0  0  0  0  0  0  0  0  0  0  0
  159.5755  141.2102  181.4165 N   0  0  0  0  0  0  0  0  0  0  0  0
  160.1436  141.1343  180.5526 H   0  0  0  0  0  0  0  0  0  0  0  0
  155.3804  140.5646  182.9509 C   0  0  0  0  0  0  0  0  0  0  0  0
  154.6432  140.9849  181.9250 N   0  0  0  0  0  0  0  0  0  0  0  0
  153.5412  140.2259  181.7695 C   0  0  0  0  0  0  0  0  0  0  0  0
  153.5487  139.2504  182.7433 C   0  0  0  0  0  0  0  0  0  0  0  0
  154.6948  139.4641  183.4764 C   0  0  0  0  0  0  0  0  0  0  0  0
  152.4472  138.3048  182.7735 C   0  0  0  0  0  0  0  0  0  0  0  0
  152.6742  137.1624  183.2412 O   0  0  0  0  0  0  0  0  0  0  0  0
  151.0849  138.6458  182.2760 C   0  0  0  0  0  0  0  0  0  0  0  0
  151.1309  140.0657  181.6946 C   0  0  0  0  0  0  0  0  0  0  0  0
  152.3839  140.2167  180.8231 C   0  0  0  0  0  0  0  0  0  0  0  0
  154.8542  141.7663  181.2976 H   0  0  0  0  0  0  0  0  0  0  0  0
  155.0973  138.6416  184.6174 C   0  0  0  0  0  0  0  0  0  0  0  0
  154.1474  138.7085  185.7920 C   0  0  0  0  0  0  0  0  0  0  0  0
  154.8939  138.2494  186.9828 C   0  0  0  0  0  0  0  0  0  0  0  0
  156.0553  137.8101  186.8864 O   0  0  0  0  0  0  0  0  0  0  0  0
  154.2941  138.3080  188.2246 O   0  0  0  0  0  0  0  0  0  0  0  0
  153.4295  137.8374  188.4564 H   0  0  0  0  0  0  0  0  0  0  0  0
  160.7221  142.9386  186.9969 S   0  0  0  0  0  0  0  0  0  0  0  0
  159.4596  142.6021  187.7397 O   0  0  0  0  0  0  0  0  0  0  0  0
  160.9423  144.4056  187.0986 O   0  0  0  0  0  0  0  0  0  0  0  0
  163.3094  142.6138  187.3496 C   0  0  0  0  0  0  0  0  0  0  0  0
  162.0136  142.1133  187.7697 N   0  0  0  0  0  0  0  0  0  0  0  0
  161.9415  141.0943  187.7386 H   0  0  0  0  0  0  0  0  0  0  0  0
 33 34  1  0  0  0
 34 30  1  0  0  0
 30 31  2  0  0  0
 30 32  2  0  0  0
 30  1  1  0  0  0
  1  2  2  0  0  0
  2  3  1  0  0  0
  3  4  2  0  0  0
  4  5  1  0  0  0
  5  6  2  0  0  0
  5  7  1  0  0  0
  7  8  2  0  0  0
  8 13  1  0  0  0
 13 14  1  0  0  0
 14 15  1  0  0  0
 15 16  2  0  0  0
 16 17  1  0  0  0
 17 24  1  0  0  0
 24 25  1  0  0  0
 25 26  1  0  0  0
 26 27  2  0  0  0
 26 28  1  0  0  0
 16 18  1  0  0  0
 18 19  2  0  0  0
 18 20  1  0  0  0
 20 21  1  0  0  0
 21 22  1  0  0  0
  7  9  1  0  0  0
  9 10  2  0  0  0
  9 11  1  0  0  0
  6  1  1  0  0  0
 17 13  2  0  0  0
 11  4  1  0  0  0
 22 15  1  0  0  0
 34 35  1  0  0  0
 14 23  1  0  0  0
 28 29  1  0  0  0
 11 12  1  0  0  0
M  END
> <minimizedAffinity>
-5.81292

> <CNNscore>
0.3625420630

> <CNNaffinity>
6.3820729256

> <CNN_VS>
2.3137698174

> <CNNaffinity_variance>
0.4536929131

$$$$
[H]OC(=O)C([H])([H])C([H])([H])c1c2c(n([H])c1C([H])=C1C(=O)N([H])c3c([H])c([H])c(S(=O)(=O)N([H])C([H])([H])[H])c([H])c31)C([H])([H])C([H])([H])C([H])([H])C2=O


 35 38  0  0  0  0  0  0  0  0999 V2000
  153.9613  136.8688  189.0200 C   0  0  0  0  0  0  0  0  0  0  0  0
  155.2466  137.2945  189.2787 C   0  0  0  0  0  0  0  0  0  0  0  0
  156.0030  137.9073  188.3096 C   0  0  0  0  0  0  0  0  0  0  0  0
  155.5051  138.1271  187.0191 C   0  0  0  0  0  0  0  0  0  0  0  0
  154.2224  137.7041  186.7549 C   0  0  0  0  0  0  0  0  0  0  0  0
  153.4835  137.0856  187.7625 C   0  0  0  0  0  0  0  0  0  0  0  0
  153.8534  138.0144  185.3580 C   0  0  0  0  0  0  0  0  0  0  0  0
  152.6983  137.7697  184.7948 C   0  0  0  0  0  0  0  0  0  0  0  0
  155.0469  138.6602  184.8348 C   0  0  0  0  0  0  0  0  0  0  0  0
  155.2175  139.1109  183.6731 O   0  0  0  0  0  0  0  0  0  0  0  0
  156.0534  138.7232  185.8621 N   0  0  0  0  0  0  0  0  0  0  0  0
  157.0065  139.1248  185.7906 H   0  0  0  0  0  0  0  0  0  0  0  0
  152.3110  138.0592  183.4283 C   0  0  0  0  0  0  0  0  0  0  0  0
  152.8976  138.7200  182.4324 N   0  0  0  0  0  0  0  0  0  0  0  0
  152.1197  138.7418  181.3329 C   0  0  0  0  0  0  0  0  0  0  0  0
  150.9561  138.0586  181.6145 C   0  0  0  0  0  0  0  0  0  0  0  0
  151.0788  137.6350  182.9192 C   0  0  0  0  0  0  0  0  0  0  0  0
  149.9555  137.9501  180.5679 C   0  0  0  0  0  0  0  0  0  0  0  0
  149.1973  136.9501  180.5896 O   0  0  0  0  0  0  0  0  0  0  0  0
  149.8071  138.9708  179.4928 C   0  0  0  0  0  0  0  0  0  0  0  0
  150.9115  140.0210  179.6762 C   0  0  0  0  0  0  0  0  0  0  0  0
  152.2430  139.3132  179.9570 C   0  0  0  0  0  0  0  0  0  0  0  0
  153.8242  139.1561  182.4478 H   0  0  0  0  0  0  0  0  0  0  0  0
  150.0571  136.8604  183.6238 C   0  0  0  0  0  0  0  0  0  0  0  0
  148.8478  137.6675  184.0391 C   0  0  0  0  0  0  0  0  0  0  0  0
  148.6683  137.4671  185.4929 C   0  0  0  0  0  0  0  0  0  0  0  0
  149.1585  136.4803  186.0734 O   0  0  0  0  0  0  0  0  0  0  0  0
  147.9446  138.3895  186.2213 O   0  0  0  0  0  0  0  0  0  0  0  0
  146.9808  138.6290  186.0300 H   0  0  0  0  0  0  0  0  0  0  0  0
  152.9748  136.0975  190.2291 S   0  0  0  0  0  0  0  0  0  0  0  0
  153.0431  136.9469  191.4673 O   0  0  0  0  0  0  0  0  0  0  0  0
  153.4923  134.7450  190.5663 O   0  0  0  0  0  0  0  0  0  0  0  0
  150.4627  135.7077  190.9080 C   0  0  0  0  0  0  0  0  0  0  0  0
  151.3245  135.9790  189.7724 N   0  0  0  0  0  0  0  0  0  0  0  0
  151.1509  135.3648  188.9741 H   0  0  0  0  0  0  0  0  0  0  0  0
 33 34  1  0  0  0
 34 30  1  0  0  0
 30 31  2  0  0  0
 30 32  2  0  0  0
 30  1  1  0  0  0
  1  2  2  0  0  0
  2  3  1  0  0  0
  3  4  2  0  0  0
  4  5  1  0  0  0
  5  6  2  0  0  0
  5  7  1  0  0  0
  7  8  2  0  0  0
  8 13  1  0  0  0
 13 14  1  0  0  0
 14 15  1  0  0  0
 15 16  2  0  0  0
 16 17  1  0  0  0
 17 24  1  0  0  0
 24 25  1  0  0  0
 25 26  1  0  0  0
 26 27  2  0  0  0
 26 28  1  0  0  0
 16 18  1  0  0  0
 18 19  2  0  0  0
 18 20  1  0  0  0
 20 21  1  0  0  0
 21 22  1  0  0  0
  7  9  1  0  0  0
  9 10  2  0  0  0
  9 11  1  0  0  0
  6  1  1  0  0  0
 17 13  2  0  0  0
 11  4  1  0  0  0
 22 15  1  0  0  0
 34 35  1  0  0  0
 14 23  1  0  0  0
 28 29  1  0  0  0
 11 12  1  0  0  0
M  END
> <minimizedAffinity>
-6.38588

> <CNNscore>
0.2538073957

> <CNNaffinity>
5.3225107193

> <CNN_VS>
1.3508925438

> <CNNaffinity_variance>
0.1133307219

$$$$
[H]OC(=O)C([H])([H])C([H])([H])c1c2c(n([H])c1C([H])=C1C(=O)N([H])c3c([H])c([H])c(S(=O)(=O)N([H])C([H])([H])[H])c([H])c31)C([H])([H])C([H])([H])C([H])([H])C2=O


 35 38  0  0  0  0  0  0  0  0999 V2000
  153.1366  137.5928  184.6505 C   0  0  0  0  0  0  0  0  0  0  0  0
  154.3947  138.1295  184.4794 C   0  0  0  0  0  0  0  0  0  0  0  0
  155.2191  138.3694  185.5516 C   0  0  0  0  0  0  0  0  0  0  0  0
  154.8210  138.0807  186.8630 C   0  0  0  0  0  0  0  0  0  0  0  0
  153.5659  137.5447  187.0401 C   0  0  0  0  0  0  0  0  0  0  0  0
  152.7558  137.3146  185.9289 C   0  0  0  0  0  0  0  0  0  0  0  0
  153.3072  137.2972  188.4738 C   0  0  0  0  0  0  0  0  0  0  0  0
  152.2221  136.7704  188.9802 C   0  0  0  0  0  0  0  0  0  0  0  0
  154.5352  137.7411  189.1143 C   0  0  0  0  0  0  0  0  0  0  0  0
  154.7970  137.7258  190.3443 O   0  0  0  0  0  0  0  0  0  0  0  0
  155.4559  138.2201  188.1168 N   0  0  0  0  0  0  0  0  0  0  0  0
  156.4092  138.5997  188.2655 H   0  0  0  0  0  0  0  0  0  0  0  0
  151.9406  136.5203  190.3799 C   0  0  0  0  0  0  0  0  0  0  0  0
  152.4956  136.9433  191.5138 N   0  0  0  0  0  0  0  0  0  0  0  0
  151.8872  136.4051  192.5884 C   0  0  0  0  0  0  0  0  0  0  0  0
  150.8747  135.5823  192.1434 C   0  0  0  0  0  0  0  0  0  0  0  0
  150.9107  135.6567  190.7687 C   0  0  0  0  0  0  0  0  0  0  0  0
  150.0727  134.8867  193.1339 C   0  0  0  0  0  0  0  0  0  0  0  0
  148.8907  134.5974  192.8263 O   0  0  0  0  0  0  0  0  0  0  0  0
  150.6026  134.5146  194.4758 C   0  0  0  0  0  0  0  0  0  0  0  0
  152.0309  135.0642  194.5939 C   0  0  0  0  0  0  0  0  0  0  0  0
  152.0650  136.5051  194.0694 C   0  0  0  0  0  0  0  0  0  0  0  0
  153.2728  137.6038  191.6070 H   0  0  0  0  0  0  0  0  0  0  0  0
  149.9933  134.9320  189.8893 C   0  0  0  0  0  0  0  0  0  0  0  0
  148.7513  135.7101  189.5170 C   0  0  0  0  0  0  0  0  0  0  0  0
  148.6354  135.6669  188.0437 C   0  0  0  0  0  0  0  0  0  0  0  0
  149.1191  136.5671  187.3318 O   0  0  0  0  0  0  0  0  0  0  0  0
  147.9793  134.6104  187.4448 O   0  0  0  0  0  0  0  0  0  0  0  0
  147.0161  134.3652  187.6319 H   0  0  0  0  0  0  0  0  0  0  0  0
  152.0725  137.2690  183.3116 S   0  0  0  0  0  0  0  0  0  0  0  0
  152.8150  136.3740  182.3594 O   0  0  0  0  0  0  0  0  0  0  0  0
  151.7165  138.5192  182.5898 O   0  0  0  0  0  0  0  0  0  0  0  0
  149.4698  137.3102  183.6968 C   0  0  0  0  0  0  0  0  0  0  0  0
  150.6370  136.4517  183.7783 N   0  0  0  0  0  0  0  0  0  0  0  0
  150.7088  135.9455  184.6634 H   0  0  0  0  0  0  0  0  0  0  0  0
 33 34  1  0  0  0
 34 30  1  0  0  0
 30 31  2  0  0  0
 30 32  2  0  0  0
 30  1  1  0  0  0
  1  2  2  0  0  0
  2  3  1  0  0  0
  3  4  2  0  0  0
  4  5  1  0  0  0
  5  6  2  0  0  0
  5  7  1  0  0  0
  7  8  2  0  0  0
  8 13  1  0  0  0
 13 14  1  0  0  0
 14 15  1  0  0  0
 15 16  2  0  0  0
 16 17  1  0  0  0
 17 24  1  0  0  0
 24 25  1  0  0  0
 25 26  1  0  0  0
 26 27  2  0  0  0
 26 28  1  0  0  0
 16 18  1  0  0  0
 18 19  2  0  0  0
 18 20  1  0  0  0
 20 21  1  0  0  0
 21 22  1  0  0  0
  7  9  1  0  0  0
  9 10  2  0  0  0
  9 11  1  0  0  0
  6  1  1  0  0  0
 17 13  2  0  0  0
 11  4  1  0  0  0
 22 15  1  0  0  0
 34 35  1  0  0  0
 14 23  1  0  0  0
 28 29  1  0  0  0
 11 12  1  0  0  0
M  END
> <minimizedAffinity>
-5.49066

> <CNNscore>
0.2524886429

> <CNNaffinity>
5.4158301353

> <CNN_VS>
1.3674355745

> <CNNaffinity_variance>
0.1454688758

$$$$
[H]OC(=O)C([H])([H])C([H])([H])c1c2c(n([H])c1C([H])=C1C(=O)N([H])c3c([H])c([H])c(S(=O)(=O)N([H])C([H])([H])[H])c([H])c31)C([H])([H])C([H])([H])C([H])([H])C2=O


 35 38  0  0  0  0  0  0  0  0999 V2000
  155.6467  135.1401  187.8432 C   0  0  0  0  0  0  0  0  0  0  0  0
  156.3412  134.0493  187.3658 C   0  0  0  0  0  0  0  0  0  0  0  0
  156.0791  133.5257  186.1232 C   0  0  0  0  0  0  0  0  0  0  0  0
  155.0982  134.0740  185.2873 C   0  0  0  0  0  0  0  0  0  0  0  0
  154.4015  135.1631  185.7586 C   0  0  0  0  0  0  0  0  0  0  0  0
  154.6937  135.6682  187.0248 C   0  0  0  0  0  0  0  0  0  0  0  0
  153.4140  135.6176  184.7576 C   0  0  0  0  0  0  0  0  0  0  0  0
  152.6101  136.6424  184.8798 C   0  0  0  0  0  0  0  0  0  0  0  0
  153.6045  134.6864  183.6566 C   0  0  0  0  0  0  0  0  0  0  0  0
  152.9859  134.6703  182.5618 O   0  0  0  0  0  0  0  0  0  0  0  0
  154.6393  133.7440  183.9930 N   0  0  0  0  0  0  0  0  0  0  0  0
  154.9974  132.9631  183.4126 H   0  0  0  0  0  0  0  0  0  0  0  0
  151.6310  137.1075  183.9175 C   0  0  0  0  0  0  0  0  0  0  0  0
  151.7272  137.6762  182.7175 N   0  0  0  0  0  0  0  0  0  0  0  0
  150.5119  137.9565  182.2088 C   0  0  0  0  0  0  0  0  0  0  0  0
  149.5594  137.5515  183.1192 C   0  0  0  0  0  0  0  0  0  0  0  0
  150.2596  137.0234  184.1812 C   0  0  0  0  0  0  0  0  0  0  0  0
  148.1615  137.7548  182.7837 C   0  0  0  0  0  0  0  0  0  0  0  0
  147.3231  136.9642  183.2812 O   0  0  0  0  0  0  0  0  0  0  0  0
  147.7047  138.8521  181.8853 C   0  0  0  0  0  0  0  0  0  0  0  0
  148.9454  139.5952  181.3709 C   0  0  0  0  0  0  0  0  0  0  0  0
  150.0076  138.5743  180.9442 C   0  0  0  0  0  0  0  0  0  0  0  0
  152.5887  137.8779  182.2018 H   0  0  0  0  0  0  0  0  0  0  0  0
  149.6276  136.4675  185.3778 C   0  0  0  0  0  0  0  0  0  0  0  0
  149.1589  137.5090  186.3687 C   0  0  0  0  0  0  0  0  0  0  0  0
  147.8003  137.1183  186.8018 C   0  0  0  0  0  0  0  0  0  0  0  0
  147.2743  137.6244  187.8109 O   0  0  0  0  0  0  0  0  0  0  0  0
  147.1010  136.1755  186.0756 O   0  0  0  0  0  0  0  0  0  0  0  0
  147.4308  135.2344  185.9071 H   0  0  0  0  0  0  0  0  0  0  0  0
  155.9616  135.8319  189.4091 S   0  0  0  0  0  0  0  0  0  0  0  0
  156.7838  137.0711  189.1910 O   0  0  0  0  0  0  0  0  0  0  0  0
  156.7452  134.9008  190.2635 O   0  0  0  0  0  0  0  0  0  0  0  0
  154.3016  137.7289  190.1639 C   0  0  0  0  0  0  0  0  0  0  0  0
  154.5316  136.2979  190.2363 N   0  0  0  0  0  0  0  0  0  0  0  0
  154.4496  135.9200  191.1824 H   0  0  0  0  0  0  0  0  0  0  0  0
 33 34  1  0  0  0
 34 30  1  0  0  0
 30 31  2  0  0  0
 30 32  2  0  0  0
 30  1  1  0  0  0
  1  2  2  0  0  0
  2  3  1  0  0  0
  3  4  2  0  0  0
  4  5  1  0  0  0
  5  6  2  0  0  0
  5  7  1  0  0  0
  7  8  2  0  0  0
  8 13  1  0  0  0
 13 14  1  0  0  0
 14 15  1  0  0  0
 15 16  2  0  0  0
 16 17  1  0  0  0
 17 24  1  0  0  0
 24 25  1  0  0  0
 25 26  1  0  0  0
 26 27  2  0  0  0
 26 28  1  0  0  0
 16 18  1  0  0  0
 18 19  2  0  0  0
 18 20  1  0  0  0
 20 21  1  0  0  0
 21 22  1  0  0  0
  7  9  1  0  0  0
  9 10  2  0  0  0
  9 11  1  0  0  0
  6  1  1  0  0  0
 17 13  2  0  0  0
 11  4  1  0  0  0
 22 15  1  0  0  0
 34 35  1  0  0  0
 14 23  1  0  0  0
 28 29  1  0  0  0
 11 12  1  0  0  0
M  END
> <minimizedAffinity>
-4.73645

> <CNNscore>
0.2183976471

> <CNNaffinity>
5.3690214157

> <CNN_VS>
1.1725816727

> <CNNaffinity_variance>
0.2814521194

$$$$
[H]OC(=O)C([H])([H])C([H])([H])c1c2c(n([H])c1C([H])=C1C(=O)N([H])c3c([H])c([H])c(S(=O)(=O)N([H])C([H])([H])[H])c([H])c31)C([H])([H])C([H])([H])C([H])([H])C2=O


 35 38  0  0  0  0  0  0  0  0999 V2000
  153.2450  137.1492  191.1567 C   0  0  0  0  0  0  0  0  0  0  0  0
  154.5053  137.7030  191.2276 C   0  0  0  0  0  0  0  0  0  0  0  0
  155.1602  138.1311  190.0985 C   0  0  0  0  0  0  0  0  0  0  0  0
  154.5797  138.0253  188.8283 C   0  0  0  0  0  0  0  0  0  0  0  0
  153.3215  137.4730  188.7513 C   0  0  0  0  0  0  0  0  0  0  0  0
  152.6865  137.0491  189.9178 C   0  0  0  0  0  0  0  0  0  0  0  0
  152.8568  137.4397  187.3489 C   0  0  0  0  0  0  0  0  0  0  0  0
  151.6961  137.0022  186.9331 C   0  0  0  0  0  0  0  0  0  0  0  0
  153.9677  138.0273  186.6168 C   0  0  0  0  0  0  0  0  0  0  0  0
  154.0417  138.2175  185.3758 O   0  0  0  0  0  0  0  0  0  0  0  0
  155.0188  138.3820  187.5342 N   0  0  0  0  0  0  0  0  0  0  0  0
  155.9329  138.8175  187.3118 H   0  0  0  0  0  0  0  0  0  0  0  0
  151.2165  136.9543  185.5661 C   0  0  0  0  0  0  0  0  0  0  0  0
  151.8167  136.7648  184.3929 N   0  0  0  0  0  0  0  0  0  0  0  0
  150.9366  136.8318  183.3752 C   0  0  0  0  0  0  0  0  0  0  0  0
  149.6867  137.0778  183.9017 C   0  0  0  0  0  0  0  0  0  0  0  0
  149.8647  137.1532  185.2653 C   0  0  0  0  0  0  0  0  0  0  0  0
  148.5675  137.1918  182.9837 C   0  0  0  0  0  0  0  0  0  0  0  0
  147.4296  136.8810  183.4125 O   0  0  0  0  0  0  0  0  0  0  0  0
  148.7290  137.6577  181.5778 C   0  0  0  0  0  0  0  0  0  0  0  0
  150.2251  137.8831  181.3187 C   0  0  0  0  0  0  0  0  0  0  0  0
  151.0220  136.7029  181.8882 C   0  0  0  0  0  0  0  0  0  0  0  0
  152.8104  136.5730  184.2363 H   0  0  0  0  0  0  0  0  0  0  0  0
  148.7804  137.4003  186.2159 C   0  0  0  0  0  0  0  0  0  0  0  0
  148.1763  136.1446  186.8031 C   0  0  0  0  0  0  0  0  0  0  0  0
  147.8941  136.4217  188.2277 C   0  0  0  0  0  0  0  0  0  0  0  0
  148.5393  135.8617  189.1339 O   0  0  0  0  0  0  0  0  0  0  0  0
  146.8979  137.3171  188.5610 O   0  0  0  0  0  0  0  0  0  0  0  0
  145.9312  137.2155  188.2818 H   0  0  0  0  0  0  0  0  0  0  0  0
  152.3860  136.6058  192.5697 S   0  0  0  0  0  0  0  0  0  0  0  0
  151.0987  135.9893  192.0982 O   0  0  0  0  0  0  0  0  0  0  0  0
  152.0530  137.7415  193.4697 O   0  0  0  0  0  0  0  0  0  0  0  0
  152.4247  134.8172  194.4993 C   0  0  0  0  0  0  0  0  0  0  0  0
  153.2402  135.4085  193.4546 N   0  0  0  0  0  0  0  0  0  0  0  0
  154.1646  135.7019  193.7771 H   0  0  0  0  0  0  0  0  0  0  0  0
 33 34  1  0  0  0
 34 30  1  0  0  0
 30 31  2  0  0  0
 30 32  2  0  0  0
 30  1  1  0  0  0
  1  2  2  0  0  0
  2  3  1  0  0  0
  3  4  2  0  0  0
  4  5  1  0  0  0
  5  6  2  0  0  0
  5  7  1  0  0  0
  7  8  2  0  0  0
  8 13  1  0  0  0
 13 14  1  0  0  0
 14 15  1  0  0  0
 15 16  2  0  0  0
 16 17  1  0  0  0
 17 24  1  0  0  0
 24 25  1  0  0  0
 25 26  1  0  0  0
 26 27  2  0  0  0
 26 28  1  0  0  0
 16 18  1  0  0  0
 18 19  2  0  0  0
 18 20  1  0  0  0
 20 21  1  0  0  0
 21 22  1  0  0  0
  7  9  1  0  0  0
  9 10  2  0  0  0
  9 11  1  0  0  0
  6  1  1  0  0  0
 17 13  2  0  0  0
 11  4  1  0  0  0
 22 15  1  0  0  0
 34 35  1  0  0  0
 14 23  1  0  0  0
 28 29  1  0  0  0
 11 12  1  0  0  0
M  END
> <minimizedAffinity>
-6.11665

> <CNNscore>
0.2121960372

> <CNNaffinity>
5.4496912956

> <CNN_VS>
1.1564029455

> <CNNaffinity_variance>
0.0614514351

$$$$
[H]OC(=O)C([H])([H])C([H])([H])c1c2c(n([H])c1C([H])=C1C(=O)N([H])c3c([H])c([H])c(S(=O)(=O)N([H])C([H])([H])[H])c([H])c31)C([H])([H])C([H])([H])C([H])([H])C2=O


 35 38  0  0  0  0  0  0  0  0999 V2000
  160.9475  142.3802  185.6407 C   0  0  0  0  0  0  0  0  0  0  0  0
  161.8568  142.2473  184.6133 C   0  0  0  0  0  0  0  0  0  0  0  0
  161.5435  141.5540  183.4696 C   0  0  0  0  0  0  0  0  0  0  0  0
  160.2906  140.9528  183.2952 C   0  0  0  0  0  0  0  0  0  0  0  0
  159.3786  141.0821  184.3178 C   0  0  0  0  0  0  0  0  0  0  0  0
  159.7308  141.7926  185.4645 C   0  0  0  0  0  0  0  0  0  0  0  0
  158.1152  140.3977  183.9729 C   0  0  0  0  0  0  0  0  0  0  0  0
  157.0376  140.3526  184.7133 C   0  0  0  0  0  0  0  0  0  0  0  0
  158.3806  139.8577  182.6488 C   0  0  0  0  0  0  0  0  0  0  0  0
  157.5938  139.1883  181.9314 O   0  0  0  0  0  0  0  0  0  0  0  0
  159.7179  140.2038  182.2438 N   0  0  0  0  0  0  0  0  0  0  0  0
  160.1928  139.9612  181.3546 H   0  0  0  0  0  0  0  0  0  0  0  0
  155.7882  139.6867  184.4023 C   0  0  0  0  0  0  0  0  0  0  0  0
  155.1750  138.6147  184.8998 N   0  0  0  0  0  0  0  0  0  0  0  0
  154.0198  138.3662  184.2532 C   0  0  0  0  0  0  0  0  0  0  0  0
  153.8580  139.3246  183.2758 C   0  0  0  0  0  0  0  0  0  0  0  0
  154.9602  140.1447  183.3717 C   0  0  0  0  0  0  0  0  0  0  0  0
  152.6710  139.2586  182.4421 C   0  0  0  0  0  0  0  0  0  0  0  0
  152.2385  140.3337  181.9600 O   0  0  0  0  0  0  0  0  0  0  0  0
  151.9679  137.9781  182.1495 C   0  0  0  0  0  0  0  0  0  0  0  0
  152.6688  136.8592  182.9323 C   0  0  0  0  0  0  0  0  0  0  0  0
  152.9419  137.3362  184.3642 C   0  0  0  0  0  0  0  0  0  0  0  0
  155.4926  138.0343  185.6816 H   0  0  0  0  0  0  0  0  0  0  0  0
  155.1885  141.3064  182.5121 C   0  0  0  0  0  0  0  0  0  0  0  0
  155.0665  142.6346  183.2244 C   0  0  0  0  0  0  0  0  0  0  0  0
  156.0276  143.5603  182.5878 C   0  0  0  0  0  0  0  0  0  0  0  0
  155.6378  144.5504  181.9405 O   0  0  0  0  0  0  0  0  0  0  0  0
  157.3819  143.3244  182.7121 O   0  0  0  0  0  0  0  0  0  0  0  0
  157.8373  142.4750  182.4052 H   0  0  0  0  0  0  0  0  0  0  0  0
  161.3113  143.2597  187.0981 S   0  0  0  0  0  0  0  0  0  0  0  0
  160.0491  143.3131  187.9124 O   0  0  0  0  0  0  0  0  0  0  0  0
  161.7277  144.6551  186.7974 O   0  0  0  0  0  0  0  0  0  0  0  0
  163.7451  142.2840  187.3182 C   0  0  0  0  0  0  0  0  0  0  0  0
  162.5150  142.4998  188.0573 N   0  0  0  0  0  0  0  0  0  0  0  0
  162.1919  141.6709  188.5605 H   0  0  0  0  0  0  0  0  0  0  0  0
 33 34  1  0  0  0
 34 30  1  0  0  0
 30 31  2  0  0  0
 30 32  2  0  0  0
 30  1  1  0  0  0
  1  2  2  0  0  0
  2  3  1  0  0  0
  3  4  2  0  0  0
  4  5  1  0  0  0
  5  6  2  0  0  0
  5  7  1  0  0  0
  7  8  2  0  0  0
  8 13  1  0  0  0
 13 14  1  0  0  0
 14 15  1  0  0  0
 15 16  2  0  0  0
 16 17  1  0  0  0
 17 24  1  0  0  0
 24 25  1  0  0  0
 25 26  1  0  0  0
 26 27  2  0  0  0
 26 28  1  0  0  0
 16 18  1  0  0  0
 18 19  2  0  0  0
 18 20  1  0  0  0
 20 21  1  0  0  0
 21 22  1  0  0  0
  7  9  1  0  0  0
  9 10  2  0  0  0
  9 11  1  0  0  0
  6  1  1  0  0  0
 17 13  2  0  0  0
 11  4  1  0  0  0
 22 15  1  0  0  0
 34 35  1  0  0  0
 14 23  1  0  0  0
 28 29  1  0  0  0
 11 12  1  0  0  0
M  END
> <minimizedAffinity>
-6.52639

> <CNNscore>
0.2093698233

> <CNNaffinity>
6.0674982071

> <CNN_VS>
1.2703510523

> <CNNaffinity_variance>
0.1525912732

$$$$
[H]OC(=O)C([H])([H])C([H])([H])c1c2c(n([H])c1C([H])=C1C(=O)N([H])c3c([H])c([H])c(S(=O)(=O)N([H])C([H])([H])[H])c([H])c31)C([H])([H])C([H])([H])C([H])([H])C2=O


 35 38  0  0  0  0  0  0  0  0999 V2000
  154.3609  135.9733  188.4253 C   0  0  0  0  0  0  0  0  0  0  0  0
  155.0362  134.7744  188.3425 C   0  0  0  0  0  0  0  0  0  0  0  0
  155.2116  134.1370  187.1384 C   0  0  0  0  0  0  0  0  0  0  0  0
  154.7146  134.6739  185.9440 C   0  0  0  0  0  0  0  0  0  0  0  0
  154.0395  135.8707  186.0206 C   0  0  0  0  0  0  0  0  0  0  0  0
  153.8800  136.4897  187.2596 C   0  0  0  0  0  0  0  0  0  0  0  0
  153.5885  136.2963  184.6793 C   0  0  0  0  0  0  0  0  0  0  0  0
  152.9431  137.3990  184.3984 C   0  0  0  0  0  0  0  0  0  0  0  0
  154.0677  135.2301  183.8139 C   0  0  0  0  0  0  0  0  0  0  0  0
  153.9275  135.1450  182.5670 O   0  0  0  0  0  0  0  0  0  0  0  0
  154.7563  134.2405  184.6005 N   0  0  0  0  0  0  0  0  0  0  0  0
  155.2056  133.3675  184.2675 H   0  0  0  0  0  0  0  0  0  0  0  0
  152.4859  137.8389  183.0951 C   0  0  0  0  0  0  0  0  0  0  0  0
  153.0045  138.6404  182.1670 N   0  0  0  0  0  0  0  0  0  0  0  0
  152.1785  138.7662  181.1105 C   0  0  0  0  0  0  0  0  0  0  0  0
  151.0531  138.0073  181.3503 C   0  0  0  0  0  0  0  0  0  0  0  0
  151.2480  137.4315  182.5861 C   0  0  0  0  0  0  0  0  0  0  0  0
  150.0116  137.9884  180.3387 C   0  0  0  0  0  0  0  0  0  0  0  0
  149.2905  136.9638  180.2654 O   0  0  0  0  0  0  0  0  0  0  0  0
  149.7803  139.1270  179.4061 C   0  0  0  0  0  0  0  0  0  0  0  0
  150.8543  140.1901  179.6753 C   0  0  0  0  0  0  0  0  0  0  0  0
  152.2208  139.5072  179.8127 C   0  0  0  0  0  0  0  0  0  0  0  0
  153.9150  139.1081  182.2000 H   0  0  0  0  0  0  0  0  0  0  0  0
  150.2861  136.5356  183.2283 C   0  0  0  0  0  0  0  0  0  0  0  0
  149.1793  137.2489  183.9717 C   0  0  0  0  0  0  0  0  0  0  0  0
  149.3743  136.9748  185.4114 C   0  0  0  0  0  0  0  0  0  0  0  0
  148.8641  137.7048  186.2820 O   0  0  0  0  0  0  0  0  0  0  0  0
  150.1355  135.8907  185.7993 O   0  0  0  0  0  0  0  0  0  0  0  0
  151.1030  135.7574  185.5365 H   0  0  0  0  0  0  0  0  0  0  0  0
  154.1301  136.8095  189.9344 S   0  0  0  0  0  0  0  0  0  0  0  0
  154.6712  135.9236  191.0214 O   0  0  0  0  0  0  0  0  0  0  0  0
  152.6875  137.0466  190.2056 O   0  0  0  0  0  0  0  0  0  0  0  0
  156.1795  138.2033  190.8182 C   0  0  0  0  0  0  0  0  0  0  0  0
  154.9772  138.3004  190.0114 N   0  0  0  0  0  0  0  0  0  0  0  0
  154.3932  139.1055  190.2467 H   0  0  0  0  0  0  0  0  0  0  0  0
 33 34  1  0  0  0
 34 30  1  0  0  0
 30 31  2  0  0  0
 30 32  2  0  0  0
 30  1  1  0  0  0
  1  2  2  0  0  0
  2  3  1  0  0  0
  3  4  2  0  0  0
  4  5  1  0  0  0
  5  6  2  0  0  0
  5  7  1  0  0  0
  7  8  2  0  0  0
  8 13  1  0  0  0
 13 14  1  0  0  0
 14 15  1  0  0  0
 15 16  2  0  0  0
 16 17  1  0  0  0
 17 24  1  0  0  0
 24 25  1  0  0  0
 25 26  1  0  0  0
 26 27  2  0  0  0
 26 28  1  0  0  0
 16 18  1  0  0  0
 18 19  2  0  0  0
 18 20  1  0  0  0
 20 21  1  0  0  0
 21 22  1  0  0  0
  7  9  1  0  0  0
  9 10  2  0  0  0
  9 11  1  0  0  0
  6  1  1  0  0  0
 17 13  2  0  0  0
 11  4  1  0  0  0
 22 15  1  0  0  0
 34 35  1  0  0  0
 14 23  1  0  0  0
 28 29  1  0  0  0
 11 12  1  0  0  0
M  END
> <minimizedAffinity>
-5.62350

> <CNNscore>
0.1841499507

> <CNNaffinity>
5.1227960587

> <CNN_VS>
0.9433626533

> <CNNaffinity_variance>
0.1089359522

$$$$
[H]c1nc(OC([H])([H])[H])c(N([H])S(=O)(=O)c2c([H])c([H])c(F)c([H])c2F)c([H])c1-c1nc([H])c2nc(N([H])[H])c(-c3c([H])c([H])c([H])c([H])c3[H])c([H])c2c1[H]


 40 44  0  0  0  0  0  0  0  0999 V2000
  155.4717  138.3937  186.5156 C   0  0  0  0  0  0  0  0  0  0  0  0
  154.2039  137.9639  186.4426 N   0  0  0  0  0  0  0  0  0  0  0  0
  153.4140  138.1551  185.3398 C   0  0  0  0  0  0  0  0  0  0  0  0
  153.8962  138.8103  184.2348 C   0  0  0  0  0  0  0  0  0  0  0  0
  155.2052  139.2575  184.3027 C   0  0  0  0  0  0  0  0  0  0  0  0
  155.9978  139.0562  185.4308 C   0  0  0  0  0  0  0  0  0  0  0  0
  153.1004  139.0459  183.0251 C   0  0  0  0  0  0  0  0  0  0  0  0
  152.1495  138.1735  182.6145 C   0  0  0  0  0  0  0  0  0  0  0  0
  151.3949  138.4084  181.4574 C   0  0  0  0  0  0  0  0  0  0  0  0
  150.4317  137.5051  181.0589 C   0  0  0  0  0  0  0  0  0  0  0  0
  149.7084  137.7886  179.8973 C   0  0  0  0  0  0  0  0  0  0  0  0
  149.9730  138.9507  179.1877 C   0  0  0  0  0  0  0  0  0  0  0  0
  149.2029  139.1920  178.0206 N   0  0  0  0  0  0  0  0  0  0  0  0
  150.9262  139.8203  179.6033 N   0  0  0  0  0  0  0  0  0  0  0  0
  151.6238  139.5509  180.7197 C   0  0  0  0  0  0  0  0  0  0  0  0
  152.6087  140.4276  181.1689 C   0  0  0  0  0  0  0  0  0  0  0  0
  153.3060  140.1656  182.2788 N   0  0  0  0  0  0  0  0  0  0  0  0
  148.1785  139.0316  178.0721 H   0  0  0  0  0  0  0  0  0  0  0  0
  149.6334  139.5149  177.1472 H   0  0  0  0  0  0  0  0  0  0  0  0
  148.7157  136.8396  179.4875 C   0  0  0  0  0  0  0  0  0  0  0  0
  148.6813  135.5748  180.0253 C   0  0  0  0  0  0  0  0  0  0  0  0
  147.7518  134.6439  179.6493 C   0  0  0  0  0  0  0  0  0  0  0  0
  146.8118  134.9661  178.7023 C   0  0  0  0  0  0  0  0  0  0  0  0
  146.8121  136.2229  178.1386 C   0  0  0  0  0  0  0  0  0  0  0  0
  147.7688  137.1468  178.5409 C   0  0  0  0  0  0  0  0  0  0  0  0
  156.3488  136.9104  188.2682 C   0  0  0  0  0  0  0  0  0  0  0  0
  156.2304  138.1653  187.6781 O   0  0  0  0  0  0  0  0  0  0  0  0
  157.3346  139.5178  185.5035 N   0  0  0  0  0  0  0  0  0  0  0  0
  157.9537  139.0720  186.2395 H   0  0  0  0  0  0  0  0  0  0  0  0
  157.9868  140.7460  184.4748 S   0  0  0  0  0  0  0  0  0  0  0  0
  158.3171  140.1468  183.1260 O   0  0  0  0  0  0  0  0  0  0  0  0
  156.9246  141.7751  184.2229 O   0  0  0  0  0  0  0  0  0  0  0  0
  159.3791  141.5202  185.1467 C   0  0  0  0  0  0  0  0  0  0  0  0
  159.3940  141.9574  186.4501 C   0  0  0  0  0  0  0  0  0  0  0  0
  160.5297  142.5656  186.9482 C   0  0  0  0  0  0  0  0  0  0  0  0
  161.6425  142.7389  186.1595 C   0  0  0  0  0  0  0  0  0  0  0  0
  162.7768  143.3393  186.6358 F   0  0  0  0  0  0  0  0  0  0  0  0
  161.6483  142.3046  184.8409 C   0  0  0  0  0  0  0  0  0  0  0  0
  160.4992  141.7014  184.3736 C   0  0  0  0  0  0  0  0  0  0  0  0
  160.4674  141.2649  183.0923 F   0  0  0  0  0  0  0  0  0  0  0  0
 26 27  1  0  0  0
 27  1  1  0  0  0
  1  2  2  0  0  0
  2  3  1  0  0  0
  3  4  2  0  0  0
  4  7  1  0  0  0
  7  8  2  0  0  0
  8  9  1  0  0  0
  9 10  2  0  0  0
 10 11  1  0  0  0
 11 20  1  0  0  0
 20 21  2  0  0  0
 21 22  1  0  0  0
 22 23  2  0  0  0
 23 24  1  0  0  0
 24 25  2  0  0  0
 11 12  2  0  0  0
 12 13  1  0  0  0
 12 14  1  0  0  0
 14 15  2  0  0  0
 15 16  1  0  0  0
 16 17  2  0  0  0
  4  5  1  0  0  0
  5  6  2  0  0  0
  6 28  1  0  0  0
 28 30  1  0  0  0
 30 31  2  0  0  0
 30 32  2  0  0  0
 30 33  1  0  0  0
 33 34  2  0  0  0
 34 35  1  0  0  0
 35 36  2  0  0  0
 36 37  1  0  0  0
 36 38  1  0  0  0
 38 39  2  0  0  0
 39 40  1  0  0  0
  6  1  1  0  0  0
 39 33  1  0  0  0
 17  7  1  0  0  0
 15  9  1  0  0  0
 25 20  1  0  0  0
 13 18  1  0  0  0
 13 19  1  0  0  0
 28 29  1  0  0  0
M  END
> <minimizedAffinity>
-9.71209

> <CNNscore>
0.4072610140

> <CNNaffinity>
6.5132508278

> <CNN_VS>
2.6525931358

> <CNNaffinity_variance>
0.1355040520

$$$$
[H]c1nc(OC([H])([H])[H])c(N([H])S(=O)(=O)c2c([H])c([H])c(F)c([H])c2F)c([H])c1-c1nc([H])c2nc(N([H])[H])c(-c3c([H])c([H])c([H])c([H])c3[H])c([H])c2c1[H]


 40 44  0  0  0  0  0  0  0  0999 V2000
  156.1231  141.8272  182.1500 C   0  0  0  0  0  0  0  0  0  0  0  0
  154.9441  141.2308  181.9226 N   0  0  0  0  0  0  0  0  0  0  0  0
  154.4074  140.2941  182.7659 C   0  0  0  0  0  0  0  0  0  0  0  0
  155.0678  139.9155  183.9076 C   0  0  0  0  0  0  0  0  0  0  0  0
  156.2865  140.5272  184.1493 C   0  0  0  0  0  0  0  0  0  0  0  0
  156.8210  141.4788  183.2831 C   0  0  0  0  0  0  0  0  0  0  0  0
  154.5456  138.9190  184.8491 C   0  0  0  0  0  0  0  0  0  0  0  0
  155.2754  138.4798  185.9020 C   0  0  0  0  0  0  0  0  0  0  0  0
  154.7668  137.5276  186.7954 C   0  0  0  0  0  0  0  0  0  0  0  0
  155.5290  137.0954  187.8607 C   0  0  0  0  0  0  0  0  0  0  0  0
  154.9730  136.1446  188.7208 C   0  0  0  0  0  0  0  0  0  0  0  0
  153.6915  135.6687  188.4853 C   0  0  0  0  0  0  0  0  0  0  0  0
  153.1740  134.7106  189.3951 N   0  0  0  0  0  0  0  0  0  0  0  0
  152.9657  136.1118  187.4297 N   0  0  0  0  0  0  0  0  0  0  0  0
  153.4971  137.0259  186.6004 C   0  0  0  0  0  0  0  0  0  0  0  0
  152.7727  137.4981  185.5084 C   0  0  0  0  0  0  0  0  0  0  0  0
  153.2955  138.4075  184.6798 N   0  0  0  0  0  0  0  0  0  0  0  0
  153.3098  134.8810  190.4102 H   0  0  0  0  0  0  0  0  0  0  0  0
  152.6795  133.8719  189.0722 H   0  0  0  0  0  0  0  0  0  0  0  0
  155.7763  135.6960  189.8197 C   0  0  0  0  0  0  0  0  0  0  0  0
  156.5806  134.5873  189.7020 C   0  0  0  0  0  0  0  0  0  0  0  0
  157.3527  134.1294  190.7344 C   0  0  0  0  0  0  0  0  0  0  0  0
  157.3367  134.7876  191.9389 C   0  0  0  0  0  0  0  0  0  0  0  0
  156.5441  135.9028  192.0981 C   0  0  0  0  0  0  0  0  0  0  0  0
  155.7709  136.3437  191.0311 C   0  0  0  0  0  0  0  0  0  0  0  0
  157.5826  142.4838  180.2845 C   0  0  0  0  0  0  0  0  0  0  0  0
  156.6194  142.7821  181.2438 O   0  0  0  0  0  0  0  0  0  0  0  0
  158.0696  142.1009  183.5263 N   0  0  0  0  0  0  0  0  0  0  0  0
  158.0557  143.1467  183.6988 H   0  0  0  0  0  0  0  0  0  0  0  0
  159.5784  141.2552  183.5519 S   0  0  0  0  0  0  0  0  0  0  0  0
  159.3214  139.7774  183.7453 O   0  0  0  0  0  0  0  0  0  0  0  0
  160.2275  141.3909  182.2063 O   0  0  0  0  0  0  0  0  0  0  0  0
  160.6606  141.8419  184.7660 C   0  0  0  0  0  0  0  0  0  0  0  0
  162.0050  141.9849  184.5158 C   0  0  0  0  0  0  0  0  0  0  0  0
  162.8330  142.4628  185.5127 C   0  0  0  0  0  0  0  0  0  0  0  0
  162.3315  142.7964  186.7486 C   0  0  0  0  0  0  0  0  0  0  0  0
  163.1368  143.2715  187.7485 F   0  0  0  0  0  0  0  0  0  0  0  0
  160.9772  142.6596  187.0219 C   0  0  0  0  0  0  0  0  0  0  0  0
  160.1772  142.1799  186.0057 C   0  0  0  0  0  0  0  0  0  0  0  0
  158.8509  142.0329  186.2352 F   0  0  0  0  0  0  0  0  0  0  0  0
 26 27  1  0  0  0
 27  1  1  0  0  0
  1  2  2  0  0  0
  2  3  1  0  0  0
  3  4  2  0  0  0
  4  7  1  0  0  0
  7  8  2  0  0  0
  8  9  1  0  0  0
  9 10  2  0  0  0
 10 11  1  0  0  0
 11 20  1  0  0  0
 20 21  2  0  0  0
 21 22  1  0  0  0
 22 23  2  0  0  0
 23 24  1  0  0  0
 24 25  2  0  0  0
 11 12  2  0  0  0
 12 13  1  0  0  0
 12 14  1  0  0  0
 14 15  2  0  0  0
 15 16  1  0  0  0
 16 17  2  0  0  0
  4  5  1  0  0  0
  5  6  2  0  0  0
  6 28  1  0  0  0
 28 30  1  0  0  0
 30 31  2  0  0  0
 30 32  2  0  0  0
 30 33  1  0  0  0
 33 34  2  0  0  0
 34 35  1  0  0  0
 35 36  2  0  0  0
 36 37  1  0  0  0
 36 38  1  0  0  0
 38 39  2  0  0  0
 39 40  1  0  0  0
  6  1  1  0  0  0
 39 33  1  0  0  0
 17  7  1  0  0  0
 15  9  1  0  0  0
 25 20  1  0  0  0
 13 18  1  0  0  0
 13 19  1  0  0  0
 28 29  1  0  0  0
M  END
> <minimizedAffinity>
-9.96772

> <CNNscore>
0.4039825797

> <CNNaffinity>
7.0880928040

> <CNN_VS>
2.8634660244

> <CNNaffinity_variance>
0.1384669244

$$$$
[H]c1nc(OC([H])([H])[H])c(N([H])S(=O)(=O)c2c([H])c([H])c(F)c([H])c2F)c([H])c1-c1nc([H])c2nc(N([H])[H])c(-c3c([H])c([H])c([H])c([H])c3[H])c([H])c2c1[H]


 40 44  0  0  0  0  0  0  0  0999 V2000
  153.1720  139.4248  182.1438 C   0  0  0  0  0  0  0  0  0  0  0  0
  152.4358  138.5168  182.8003 N   0  0  0  0  0  0  0  0  0  0  0  0
  152.7142  138.1153  184.0801 C   0  0  0  0  0  0  0  0  0  0  0  0
  153.7840  138.6366  184.7632 C   0  0  0  0  0  0  0  0  0  0  0  0
  154.5495  139.5751  184.0916 C   0  0  0  0  0  0  0  0  0  0  0  0
  154.2549  139.9748  182.7897 C   0  0  0  0  0  0  0  0  0  0  0  0
  154.1335  138.2474  186.1339 C   0  0  0  0  0  0  0  0  0  0  0  0
  155.0520  137.2861  186.3913 C   0  0  0  0  0  0  0  0  0  0  0  0
  155.3785  136.9221  187.7045 C   0  0  0  0  0  0  0  0  0  0  0  0
  156.3174  135.9399  187.9418 C   0  0  0  0  0  0  0  0  0  0  0  0
  156.6050  135.6162  189.2705 C   0  0  0  0  0  0  0  0  0  0  0  0
  155.9505  136.2793  190.2981 C   0  0  0  0  0  0  0  0  0  0  0  0
  156.2875  135.9160  191.6277 N   0  0  0  0  0  0  0  0  0  0  0  0
  155.0318  137.2405  190.0345 N   0  0  0  0  0  0  0  0  0  0  0  0
  154.7526  137.5544  188.7581 C   0  0  0  0  0  0  0  0  0  0  0  0
  153.8129  138.5384  188.4596 C   0  0  0  0  0  0  0  0  0  0  0  0
  153.5307  138.8555  187.1920 N   0  0  0  0  0  0  0  0  0  0  0  0
  157.2927  135.8020  191.8607 H   0  0  0  0  0  0  0  0  0  0  0  0
  155.5693  135.7678  192.3452 H   0  0  0  0  0  0  0  0  0  0  0  0
  157.5758  134.5886  189.5061 C   0  0  0  0  0  0  0  0  0  0  0  0
  158.6872  134.4682  188.7058 C   0  0  0  0  0  0  0  0  0  0  0  0
  159.6275  133.4935  188.8997 C   0  0  0  0  0  0  0  0  0  0  0  0
  159.4728  132.5943  189.9252 C   0  0  0  0  0  0  0  0  0  0  0  0
  158.3729  132.6805  190.7500 C   0  0  0  0  0  0  0  0  0  0  0  0
  157.4350  133.6812  190.5278 C   0  0  0  0  0  0  0  0  0  0  0  0
  151.8136  139.1765  180.1105 C   0  0  0  0  0  0  0  0  0  0  0  0
  152.8326  139.7944  180.8295 O   0  0  0  0  0  0  0  0  0  0  0  0
  155.0400  140.9303  182.0999 N   0  0  0  0  0  0  0  0  0  0  0  0
  154.8070  141.0910  181.0784 H   0  0  0  0  0  0  0  0  0  0  0  0
  156.3305  141.8230  182.8279 S   0  0  0  0  0  0  0  0  0  0  0  0
  155.7548  142.9404  183.6691 O   0  0  0  0  0  0  0  0  0  0  0  0
  157.0609  140.9216  183.7790 O   0  0  0  0  0  0  0  0  0  0  0  0
  157.4500  142.4553  181.6720 C   0  0  0  0  0  0  0  0  0  0  0  0
  157.5720  141.9023  180.4191 C   0  0  0  0  0  0  0  0  0  0  0  0
  158.4750  142.4427  179.5246 C   0  0  0  0  0  0  0  0  0  0  0  0
  159.2514  143.5237  179.8698 C   0  0  0  0  0  0  0  0  0  0  0  0
  160.1514  144.0725  178.9965 F   0  0  0  0  0  0  0  0  0  0  0  0
  159.1438  144.0970  181.1296 C   0  0  0  0  0  0  0  0  0  0  0  0
  158.2332  143.5343  181.9997 C   0  0  0  0  0  0  0  0  0  0  0  0
  158.1004  144.0666  183.2376 F   0  0  0  0  0  0  0  0  0  0  0  0
 26 27  1  0  0  0
 27  1  1  0  0  0
  1  2  2  0  0  0
  2  3  1  0  0  0
  3  4  2  0  0  0
  4  7  1  0  0  0
  7  8  2  0  0  0
  8  9  1  0  0  0
  9 10  2  0  0  0
 10 11  1  0  0  0
 11 20  1  0  0  0
 20 21  2  0  0  0
 21 22  1  0  0  0
 22 23  2  0  0  0
 23 24  1  0  0  0
 24 25  2  0  0  0
 11 12  2  0  0  0
 12 13  1  0  0  0
 12 14  1  0  0  0
 14 15  2  0  0  0
 15 16  1  0  0  0
 16 17  2  0  0  0
  4  5  1  0  0  0
  5  6  2  0  0  0
  6 28  1  0  0  0
 28 30  1  0  0  0
 30 31  2  0  0  0
 30 32  2  0  0  0
 30 33  1  0  0  0
 33 34  2  0  0  0
 34 35  1  0  0  0
 35 36  2  0  0  0
 36 37  1  0  0  0
 36 38  1  0  0  0
 38 39  2  0  0  0
 39 40  1  0  0  0
  6  1  1  0  0  0
 39 33  1  0  0  0
 17  7  1  0  0  0
 15  9  1  0  0  0
 25 20  1  0  0  0
 13 18  1  0  0  0
 13 19  1  0  0  0
 28 29  1  0  0  0
M  END
> <minimizedAffinity>
-10.14777

> <CNNscore>
0.3447282314

> <CNNaffinity>
6.3729653358

> <CNN_VS>
2.1969411373

> <CNNaffinity_variance>
0.1726626903

$$$$
[H]c1nc(OC([H])([H])[H])c(N([H])S(=O)(=O)c2c([H])c([H])c(F)c([H])c2F)c([H])c1-c1nc([H])c2nc(N([H])[H])c(-c3c([H])c([H])c([H])c([H])c3[H])c([H])c2c1[H]


 40 44  0  0  0  0  0  0  0  0999 V2000
  153.5085  139.7369  182.3196 C   0  0  0  0  0  0  0  0  0  0  0  0
  152.6906  138.8570  182.9147 N   0  0  0  0  0  0  0  0  0  0  0  0
  152.9300  138.3413  184.1610 C   0  0  0  0  0  0  0  0  0  0  0  0
  154.0435  138.7108  184.8727 C   0  0  0  0  0  0  0  0  0  0  0  0
  154.8934  139.6194  184.2645 C   0  0  0  0  0  0  0  0  0  0  0  0
  154.6378  140.1364  182.9960 C   0  0  0  0  0  0  0  0  0  0  0  0
  154.3547  138.1942  186.2101 C   0  0  0  0  0  0  0  0  0  0  0  0
  153.3848  137.7772  187.0582 C   0  0  0  0  0  0  0  0  0  0  0  0
  153.6931  137.2853  188.3336 C   0  0  0  0  0  0  0  0  0  0  0  0
  152.6878  136.8664  189.1801 C   0  0  0  0  0  0  0  0  0  0  0  0
  153.0514  136.3848  190.4406 C   0  0  0  0  0  0  0  0  0  0  0  0
  154.3900  136.3410  190.8014 C   0  0  0  0  0  0  0  0  0  0  0  0
  154.7021  135.8352  192.0898 N   0  0  0  0  0  0  0  0  0  0  0  0
  155.3566  136.7599  189.9483 N   0  0  0  0  0  0  0  0  0  0  0  0
  155.0108  137.2238  188.7355 C   0  0  0  0  0  0  0  0  0  0  0  0
  155.9842  137.6603  187.8398 C   0  0  0  0  0  0  0  0  0  0  0  0
  155.6469  138.1227  186.6317 N   0  0  0  0  0  0  0  0  0  0  0  0
  154.2205  134.9703  192.4024 H   0  0  0  0  0  0  0  0  0  0  0  0
  155.3806  136.3006  192.7025 H   0  0  0  0  0  0  0  0  0  0  0  0
  151.9988  135.9598  191.3155 C   0  0  0  0  0  0  0  0  0  0  0  0
  151.5281  136.7852  192.3092 C   0  0  0  0  0  0  0  0  0  0  0  0
  150.5305  136.4059  193.1652 C   0  0  0  0  0  0  0  0  0  0  0  0
  149.9671  135.1602  193.0430 C   0  0  0  0  0  0  0  0  0  0  0  0
  150.4105  134.3028  192.0603 C   0  0  0  0  0  0  0  0  0  0  0  0
  151.4253  134.7164  191.2062 C   0  0  0  0  0  0  0  0  0  0  0  0
  152.1662  139.7249  180.2607 C   0  0  0  0  0  0  0  0  0  0  0  0
  153.2056  140.2291  181.0369 O   0  0  0  0  0  0  0  0  0  0  0  0
  155.5089  141.0613  182.3707 N   0  0  0  0  0  0  0  0  0  0  0  0
  155.1436  141.5492  181.5035 H   0  0  0  0  0  0  0  0  0  0  0  0
  157.1021  141.4208  182.9406 S   0  0  0  0  0  0  0  0  0  0  0  0
  157.0118  142.0783  184.2996 O   0  0  0  0  0  0  0  0  0  0  0  0
  157.8388  140.1312  183.1517 O   0  0  0  0  0  0  0  0  0  0  0  0
  158.0009  142.4159  181.8492 C   0  0  0  0  0  0  0  0  0  0  0  0
  158.3150  143.7172  182.1626 C   0  0  0  0  0  0  0  0  0  0  0  0
  159.0400  144.4750  181.2638 C   0  0  0  0  0  0  0  0  0  0  0  0
  159.4505  143.9463  180.0629 C   0  0  0  0  0  0  0  0  0  0  0  0
  160.1696  144.6821  179.1599 F   0  0  0  0  0  0  0  0  0  0  0  0
  159.1439  142.6346  179.7269 C   0  0  0  0  0  0  0  0  0  0  0  0
  158.4190  141.9043  180.6456 C   0  0  0  0  0  0  0  0  0  0  0  0
  158.1011  140.6212  180.3529 F   0  0  0  0  0  0  0  0  0  0  0  0
 26 27  1  0  0  0
 27  1  1  0  0  0
  1  2  2  0  0  0
  2  3  1  0  0  0
  3  4  2  0  0  0
  4  7  1  0  0  0
  7  8  2  0  0  0
  8  9  1  0  0  0
  9 10  2  0  0  0
 10 11  1  0  0  0
 11 20  1  0  0  0
 20 21  2  0  0  0
 21 22  1  0  0  0
 22 23  2  0  0  0
 23 24  1  0  0  0
 24 25  2  0  0  0
 11 12  2  0  0  0
 12 13  1  0  0  0
 12 14  1  0  0  0
 14 15  2  0  0  0
 15 16  1  0  0  0
 16 17  2  0  0  0
  4  5  1  0  0  0
  5  6  2  0  0  0
  6 28  1  0  0  0
 28 30  1  0  0  0
 30 31  2  0  0  0
 30 32  2  0  0  0
 30 33  1  0  0  0
 33 34  2  0  0  0
 34 35  1  0  0  0
 35 36  2  0  0  0
 36 37  1  0  0  0
 36 38  1  0  0  0
 38 39  2  0  0  0
 39 40  1  0  0  0
  6  1  1  0  0  0
 39 33  1  0  0  0
 17  7  1  0  0  0
 15  9  1  0  0  0
 25 20  1  0  0  0
 13 18  1  0  0  0
 13 19  1  0  0  0
 28 29  1  0  0  0
M  END
> <minimizedAffinity>
-10.14556

> <CNNscore>
0.3126306832

> <CNNaffinity>
6.3520574570

> <CNN_VS>
1.9858480692

> <CNNaffinity_variance>
0.1044850722

$$$$
[H]c1nc(OC([H])([H])[H])c(N([H])S(=O)(=O)c2c([H])c([H])c(F)c([H])c2F)c([H])c1-c1nc([H])c2nc(N([H])[H])c(-c3c([H])c([H])c([H])c([H])c3[H])c([H])c2c1[H]


 40 44  0  0  0  0  0  0  0  0999 V2000
  156.4016  140.3173  182.7792 C   0  0  0  0  0  0  0  0  0  0  0  0
  155.1149  139.9571  182.8885 N   0  0  0  0  0  0  0  0  0  0  0  0
  154.6016  139.3549  184.0067 C   0  0  0  0  0  0  0  0  0  0  0  0
  155.3999  139.0871  185.0901 C   0  0  0  0  0  0  0  0  0  0  0  0
  156.7306  139.4562  184.9847 C   0  0  0  0  0  0  0  0  0  0  0  0
  157.2397  140.0684  183.8413 C   0  0  0  0  0  0  0  0  0  0  0  0
  154.9097  138.4450  186.3148 C   0  0  0  0  0  0  0  0  0  0  0  0
  155.6183  137.4804  186.9483 C   0  0  0  0  0  0  0  0  0  0  0  0
  155.1408  136.8737  188.1177 C   0  0  0  0  0  0  0  0  0  0  0  0
  155.8806  135.8931  188.7454 C   0  0  0  0  0  0  0  0  0  0  0  0
  155.3573  135.3216  189.9084 C   0  0  0  0  0  0  0  0  0  0  0  0
  154.1294  135.7476  190.3929 C   0  0  0  0  0  0  0  0  0  0  0  0
  153.6502  135.1386  191.5816 N   0  0  0  0  0  0  0  0  0  0  0  0
  153.4244  136.7134  189.7544 N   0  0  0  0  0  0  0  0  0  0  0  0
  153.9243  137.2652  188.6358 C   0  0  0  0  0  0  0  0  0  0  0  0
  153.2204  138.2596  187.9604 C   0  0  0  0  0  0  0  0  0  0  0  0
  153.7122  138.8127  186.8473 N   0  0  0  0  0  0  0  0  0  0  0  0
  154.3181  135.0116  192.3661 H   0  0  0  0  0  0  0  0  0  0  0  0
  152.6765  134.8293  191.6748 H   0  0  0  0  0  0  0  0  0  0  0  0
  156.1298  134.2979  190.5482 C   0  0  0  0  0  0  0  0  0  0  0  0
  155.7025  132.9912  190.5586 C   0  0  0  0  0  0  0  0  0  0  0  0
  156.4129  131.9930  191.1674 C   0  0  0  0  0  0  0  0  0  0  0  0
  157.5972  132.2876  191.7958 C   0  0  0  0  0  0  0  0  0  0  0  0
  158.0603  133.5847  191.8083 C   0  0  0  0  0  0  0  0  0  0  0  0
  157.3165  134.5769  191.1814 C   0  0  0  0  0  0  0  0  0  0  0  0
  156.4965  142.2207  181.2269 C   0  0  0  0  0  0  0  0  0  0  0  0
  156.8666  140.9326  181.6026 O   0  0  0  0  0  0  0  0  0  0  0  0
  158.6013  140.4412  183.7301 N   0  0  0  0  0  0  0  0  0  0  0  0
  159.3044  139.6544  183.6289 H   0  0  0  0  0  0  0  0  0  0  0  0
  159.1564  142.0794  183.7538 S   0  0  0  0  0  0  0  0  0  0  0  0
  159.5774  142.4861  182.3593 O   0  0  0  0  0  0  0  0  0  0  0  0
  158.0058  142.9709  184.1167 O   0  0  0  0  0  0  0  0  0  0  0  0
  160.4494  142.3378  184.8722 C   0  0  0  0  0  0  0  0  0  0  0  0
  160.2176  142.8542  186.1252 C   0  0  0  0  0  0  0  0  0  0  0  0
  161.2792  143.0391  186.9893 C   0  0  0  0  0  0  0  0  0  0  0  0
  162.5612  142.7141  186.6136 C   0  0  0  0  0  0  0  0  0  0  0  0
  163.6255  142.8904  187.4565 F   0  0  0  0  0  0  0  0  0  0  0  0
  162.8170  142.1914  185.3532 C   0  0  0  0  0  0  0  0  0  0  0  0
  161.7359  142.0190  184.5140 C   0  0  0  0  0  0  0  0  0  0  0  0
  161.9464  141.5115  183.2765 F   0  0  0  0  0  0  0  0  0  0  0  0
 26 27  1  0  0  0
 27  1  1  0  0  0
  1  2  2  0  0  0
  2  3  1  0  0  0
  3  4  2  0  0  0
  4  7  1  0  0  0
  7  8  2  0  0  0
  8  9  1  0  0  0
  9 10  2  0  0  0
 10 11  1  0  0  0
 11 20  1  0  0  0
 20 21  2  0  0  0
 21 22  1  0  0  0
 22 23  2  0  0  0
 23 24  1  0  0  0
 24 25  2  0  0  0
 11 12  2  0  0  0
 12 13  1  0  0  0
 12 14  1  0  0  0
 14 15  2  0  0  0
 15 16  1  0  0  0
 16 17  2  0  0  0
  4  5  1  0  0  0
  5  6  2  0  0  0
  6 28  1  0  0  0
 28 30  1  0  0  0
 30 31  2  0  0  0
 30 32  2  0  0  0
 30 33  1  0  0  0
 33 34  2  0  0  0
 34 35  1  0  0  0
 35 36  2  0  0  0
 36 37  1  0  0  0
 36 38  1  0  0  0
 38 39  2  0  0  0
 39 40  1  0  0  0
  6  1  1  0  0  0
 39 33  1  0  0  0
 17  7  1  0  0  0
 15  9  1  0  0  0
 25 20  1  0  0  0
 13 18  1  0  0  0
 13 19  1  0  0  0
 28 29  1  0  0  0
M  END
> <minimizedAffinity>
-9.27038

> <CNNscore>
0.3070163429

> <CNNaffinity>
6.7864885330

> <CNN_VS>
2.0835628510

> <CNNaffinity_variance>
0.0685496032

$$$$
[H]c1nc(OC([H])([H])[H])c(N([H])S(=O)(=O)c2c([H])c([H])c(F)c([H])c2F)c([H])c1-c1nc([H])c2nc(N([H])[H])c(-c3c([H])c([H])c([H])c([H])c3[H])c([H])c2c1[H]


 40 44  0  0  0  0  0  0  0  0999 V2000
  152.4189  137.6435  183.5018 C   0  0  0  0  0  0  0  0  0  0  0  0
  152.3161  138.5877  182.5556 N   0  0  0  0  0  0  0  0  0  0  0  0
  153.2360  139.5909  182.4001 C   0  0  0  0  0  0  0  0  0  0  0  0
  154.3291  139.6762  183.2250 C   0  0  0  0  0  0  0  0  0  0  0  0
  154.4423  138.7043  184.2051 C   0  0  0  0  0  0  0  0  0  0  0  0
  153.4993  137.6891  184.3521 C   0  0  0  0  0  0  0  0  0  0  0  0
  155.3478  140.7256  183.1090 C   0  0  0  0  0  0  0  0  0  0  0  0
  156.4687  140.7202  183.8690 C   0  0  0  0  0  0  0  0  0  0  0  0
  157.4354  141.7275  183.7499 C   0  0  0  0  0  0  0  0  0  0  0  0
  158.5692  141.7008  184.5351 C   0  0  0  0  0  0  0  0  0  0  0  0
  159.5008  142.7302  184.3755 C   0  0  0  0  0  0  0  0  0  0  0  0
  159.2654  143.7344  183.4480 C   0  0  0  0  0  0  0  0  0  0  0  0
  160.2487  144.7496  183.3222 N   0  0  0  0  0  0  0  0  0  0  0  0
  158.1416  143.7347  182.6901 N   0  0  0  0  0  0  0  0  0  0  0  0
  157.2435  142.7466  182.8409 C   0  0  0  0  0  0  0  0  0  0  0  0
  156.0804  142.7231  182.0747 C   0  0  0  0  0  0  0  0  0  0  0  0
  155.1831  141.7428  182.2197 N   0  0  0  0  0  0  0  0  0  0  0  0
  161.2451  144.4601  183.2886 H   0  0  0  0  0  0  0  0  0  0  0  0
  159.9953  145.7421  183.2653 H   0  0  0  0  0  0  0  0  0  0  0  0
  160.6713  142.6975  185.2019 C   0  0  0  0  0  0  0  0  0  0  0  0
  160.6156  143.0746  186.5228 C   0  0  0  0  0  0  0  0  0  0  0  0
  161.7164  143.0622  187.3352 C   0  0  0  0  0  0  0  0  0  0  0  0
  162.9288  142.6621  186.8309 C   0  0  0  0  0  0  0  0  0  0  0  0
  163.0271  142.2766  185.5122 C   0  0  0  0  0  0  0  0  0  0  0  0
  161.8915  142.3000  184.7119 C   0  0  0  0  0  0  0  0  0  0  0  0
  150.0745  136.9127  183.6078 C   0  0  0  0  0  0  0  0  0  0  0  0
  151.4392  136.6395  183.6088 O   0  0  0  0  0  0  0  0  0  0  0  0
  153.6109  136.6981  185.3574 N   0  0  0  0  0  0  0  0  0  0  0  0
  154.1793  135.8363  185.1164 H   0  0  0  0  0  0  0  0  0  0  0  0
  152.8792  136.8241  186.9198 S   0  0  0  0  0  0  0  0  0  0  0  0
  151.7095  137.7802  186.8497 O   0  0  0  0  0  0  0  0  0  0  0  0
  152.3026  135.4892  187.2888 O   0  0  0  0  0  0  0  0  0  0  0  0
  153.9905  137.3214  188.1475 C   0  0  0  0  0  0  0  0  0  0  0  0
  155.2771  137.6944  187.8378 C   0  0  0  0  0  0  0  0  0  0  0  0
  156.1301  138.0905  188.8493 C   0  0  0  0  0  0  0  0  0  0  0  0
  155.7103  138.1166  190.1584 C   0  0  0  0  0  0  0  0  0  0  0  0
  156.5415  138.5063  191.1738 F   0  0  0  0  0  0  0  0  0  0  0  0
  154.4154  137.7440  190.4925 C   0  0  0  0  0  0  0  0  0  0  0  0
  153.5883  137.3536  189.4598 C   0  0  0  0  0  0  0  0  0  0  0  0
  152.3181  136.9830  189.7471 F   0  0  0  0  0  0  0  0  0  0  0  0
 26 27  1  0  0  0
 27  1  1  0  0  0
  1  2  2  0  0  0
  2  3  1  0  0  0
  3  4  2  0  0  0
  4  7  1  0  0  0
  7  8  2  0  0  0
  8  9  1  0  0  0
  9 10  2  0  0  0
 10 11  1  0  0  0
 11 20  1  0  0  0
 20 21  2  0  0  0
 21 22  1  0  0  0
 22 23  2  0  0  0
 23 24  1  0  0  0
 24 25  2  0  0  0
 11 12  2  0  0  0
 12 13  1  0  0  0
 12 14  1  0  0  0
 14 15  2  0  0  0
 15 16  1  0  0  0
 16 17  2  0  0  0
  4  5  1  0  0  0
  5  6  2  0  0  0
  6 28  1  0  0  0
 28 30  1  0  0  0
 30 31  2  0  0  0
 30 32  2  0  0  0
 30 33  1  0  0  0
 33 34  2  0  0  0
 34 35  1  0  0  0
 35 36  2  0  0  0
 36 37  1  0  0  0
 36 38  1  0  0  0
 38 39  2  0  0  0
 39 40  1  0  0  0
  6  1  1  0  0  0
 39 33  1  0  0  0
 17  7  1  0  0  0
 15  9  1  0  0  0
 25 20  1  0  0  0
 13 18  1  0  0  0
 13 19  1  0  0  0
 28 29  1  0  0  0
M  END
> <minimizedAffinity>
-10.48515

> <CNNscore>
0.3038632572

> <CNNaffinity>
7.0320205688

> <CNN_VS>
2.1367726326

> <CNNaffinity_variance>
0.3943426311

$$$$
[H]c1nc(OC([H])([H])[H])c(N([H])S(=O)(=O)c2c([H])c([H])c(F)c([H])c2F)c([H])c1-c1nc([H])c2nc(N([H])[H])c(-c3c([H])c([H])c([H])c([H])c3[H])c([H])c2c1[H]


 40 44  0  0  0  0  0  0  0  0999 V2000
  153.1859  139.7389  182.0168 C   0  0  0  0  0  0  0  0  0  0  0  0
  152.5513  138.7271  182.6256 N   0  0  0  0  0  0  0  0  0  0  0  0
  152.9158  138.2515  183.8575 C   0  0  0  0  0  0  0  0  0  0  0  0
  153.9716  138.8024  184.5393 C   0  0  0  0  0  0  0  0  0  0  0  0
  154.6324  139.8482  183.9168 C   0  0  0  0  0  0  0  0  0  0  0  0
  154.2509  140.3223  182.6633 C   0  0  0  0  0  0  0  0  0  0  0  0
  154.4100  138.3377  185.8600 C   0  0  0  0  0  0  0  0  0  0  0  0
  153.5287  138.0811  186.8557 C   0  0  0  0  0  0  0  0  0  0  0  0
  153.9583  137.6375  188.1136 C   0  0  0  0  0  0  0  0  0  0  0  0
  153.0417  137.3826  189.1124 C   0  0  0  0  0  0  0  0  0  0  0  0
  153.5247  136.9422  190.3476 C   0  0  0  0  0  0  0  0  0  0  0  0
  154.8891  136.7757  190.5340 C   0  0  0  0  0  0  0  0  0  0  0  0
  155.3228  136.3186  191.8054 N   0  0  0  0  0  0  0  0  0  0  0  0
  155.7666  137.0343  189.5337 N   0  0  0  0  0  0  0  0  0  0  0  0
  155.3059  137.4580  188.3447 C   0  0  0  0  0  0  0  0  0  0  0  0
  156.1861  137.7308  187.3000 C   0  0  0  0  0  0  0  0  0  0  0  0
  155.7342  138.1523  186.1147 N   0  0  0  0  0  0  0  0  0  0  0  0
  154.8050  135.5318  192.2419 H   0  0  0  0  0  0  0  0  0  0  0  0
  156.1216  136.7442  192.2881 H   0  0  0  0  0  0  0  0  0  0  0  0
  152.5648  136.6883  191.3812 C   0  0  0  0  0  0  0  0  0  0  0  0
  151.5387  135.7935  191.1896 C   0  0  0  0  0  0  0  0  0  0  0  0
  150.6024  135.5353  192.1531 C   0  0  0  0  0  0  0  0  0  0  0  0
  150.6736  136.1835  193.3610 C   0  0  0  0  0  0  0  0  0  0  0  0
  151.6864  137.0879  193.5930 C   0  0  0  0  0  0  0  0  0  0  0  0
  152.6224  137.3291  192.5949 C   0  0  0  0  0  0  0  0  0  0  0  0
  151.8748  139.4586  179.9568 C   0  0  0  0  0  0  0  0  0  0  0  0
  152.7616  140.1806  180.7503 O   0  0  0  0  0  0  0  0  0  0  0  0
  154.9292  141.3879  182.0233 N   0  0  0  0  0  0  0  0  0  0  0  0
  154.8912  141.4096  180.9642 H   0  0  0  0  0  0  0  0  0  0  0  0
  155.7971  142.6229  182.8682 S   0  0  0  0  0  0  0  0  0  0  0  0
  155.7914  143.8918  182.0453 O   0  0  0  0  0  0  0  0  0  0  0  0
  155.0608  142.9462  184.1346 O   0  0  0  0  0  0  0  0  0  0  0  0
  157.4185  142.1640  183.2556 C   0  0  0  0  0  0  0  0  0  0  0  0
  157.7759  141.8171  184.5371 C   0  0  0  0  0  0  0  0  0  0  0  0
  159.0813  141.4512  184.8013 C   0  0  0  0  0  0  0  0  0  0  0  0
  160.0254  141.4295  183.8020 C   0  0  0  0  0  0  0  0  0  0  0  0
  161.3236  141.0696  184.0451 F   0  0  0  0  0  0  0  0  0  0  0  0
  159.6854  141.7761  182.5014 C   0  0  0  0  0  0  0  0  0  0  0  0
  158.3741  142.1367  182.2702 C   0  0  0  0  0  0  0  0  0  0  0  0
  158.0051  142.4812  181.0139 F   0  0  0  0  0  0  0  0  0  0  0  0
 26 27  1  0  0  0
 27  1  1  0  0  0
  1  2  2  0  0  0
  2  3  1  0  0  0
  3  4  2  0  0  0
  4  7  1  0  0  0
  7  8  2  0  0  0
  8  9  1  0  0  0
  9 10  2  0  0  0
 10 11  1  0  0  0
 11 20  1  0  0  0
 20 21  2  0  0  0
 21 22  1  0  0  0
 22 23  2  0  0  0
 23 24  1  0  0  0
 24 25  2  0  0  0
 11 12  2  0  0  0
 12 13  1  0  0  0
 12 14  1  0  0  0
 14 15  2  0  0  0
 15 16  1  0  0  0
 16 17  2  0  0  0
  4  5  1  0  0  0
  5  6  2  0  0  0
  6 28  1  0  0  0
 28 30  1  0  0  0
 30 31  2  0  0  0
 30 32  2  0  0  0
 30 33  1  0  0  0
 33 34  2  0  0  0
 34 35  1  0  0  0
 35 36  2  0  0  0
 36 37  1  0  0  0
 36 38  1  0  0  0
 38 39  2  0  0  0
 39 40  1  0  0  0
  6  1  1  0  0  0
 39 33  1  0  0  0
 17  7  1  0  0  0
 15  9  1  0  0  0
 25 20  1  0  0  0
 13 18  1  0  0  0
 13 19  1  0  0  0
 28 29  1  0  0  0
M  END
> <minimizedAffinity>
-10.23149

> <CNNscore>
0.2860740423

> <CNNaffinity>
6.5763635635

> <CNN_VS>
1.8813269138

> <CNNaffinity_variance>
0.2964698076

$$$$
[H]c1nc(OC([H])([H])[H])c(N([H])S(=O)(=O)c2c([H])c([H])c(F)c([H])c2F)c([H])c1-c1nc([H])c2nc(N([H])[H])c(-c3c([H])c([H])c([H])c([H])c3[H])c([H])c2c1[H]


 40 44  0  0  0  0  0  0  0  0999 V2000
  155.6703  141.4719  182.6839 C   0  0  0  0  0  0  0  0  0  0  0  0
  154.5770  140.7892  182.3153 N   0  0  0  0  0  0  0  0  0  0  0  0
  154.0849  139.7281  183.0284 C   0  0  0  0  0  0  0  0  0  0  0  0
  154.7034  139.3066  184.1784 C   0  0  0  0  0  0  0  0  0  0  0  0
  155.8338  140.0069  184.5656 C   0  0  0  0  0  0  0  0  0  0  0  0
  156.3236  141.0848  183.8310 C   0  0  0  0  0  0  0  0  0  0  0  0
  154.2254  138.1781  184.9848 C   0  0  0  0  0  0  0  0  0  0  0  0
  153.8480  138.3321  186.2762 C   0  0  0  0  0  0  0  0  0  0  0  0
  153.3928  137.2473  187.0374 C   0  0  0  0  0  0  0  0  0  0  0  0
  153.0138  137.4288  188.3513 C   0  0  0  0  0  0  0  0  0  0  0  0
  152.5677  136.3128  189.0643 C   0  0  0  0  0  0  0  0  0  0  0  0
  152.5181  135.0735  188.4435 C   0  0  0  0  0  0  0  0  0  0  0  0
  152.0493  133.9769  189.2124 N   0  0  0  0  0  0  0  0  0  0  0  0
  152.8973  134.9252  187.1505 N   0  0  0  0  0  0  0  0  0  0  0  0
  153.3270  135.9959  186.4617 C   0  0  0  0  0  0  0  0  0  0  0  0
  153.7224  135.8711  185.1319 C   0  0  0  0  0  0  0  0  0  0  0  0
  154.1507  136.9324  184.4411 N   0  0  0  0  0  0  0  0  0  0  0  0
  151.2010  134.1181  189.7939 H   0  0  0  0  0  0  0  0  0  0  0  0
  152.5251  133.0681  189.2023 H   0  0  0  0  0  0  0  0  0  0  0  0
  152.1842  136.5107  190.4311 C   0  0  0  0  0  0  0  0  0  0  0  0
  150.8784  136.3497  190.8300 C   0  0  0  0  0  0  0  0  0  0  0  0
  150.4794  136.5390  192.1249 C   0  0  0  0  0  0  0  0  0  0  0  0
  151.4019  136.9030  193.0740 C   0  0  0  0  0  0  0  0  0  0  0  0
  152.7206  137.0747  192.7152 C   0  0  0  0  0  0  0  0  0  0  0  0
  153.0954  136.8754  191.3922 C   0  0  0  0  0  0  0  0  0  0  0  0
  155.8403  143.8795  182.2191 C   0  0  0  0  0  0  0  0  0  0  0  0
  156.1246  142.5533  181.9070 O   0  0  0  0  0  0  0  0  0  0  0  0
  157.4823  141.7982  184.2229 N   0  0  0  0  0  0  0  0  0  0  0  0
  157.3376  142.6222  184.8737 H   0  0  0  0  0  0  0  0  0  0  0  0
  159.0821  141.3988  183.6999 S   0  0  0  0  0  0  0  0  0  0  0  0
  159.1825  139.9044  183.4903 O   0  0  0  0  0  0  0  0  0  0  0  0
  159.3178  142.0231  182.3563 O   0  0  0  0  0  0  0  0  0  0  0  0
  160.3050  141.9360  184.7978 C   0  0  0  0  0  0  0  0  0  0  0  0
  159.9828  142.4323  186.0389 C   0  0  0  0  0  0  0  0  0  0  0  0
  160.9919  142.8450  186.8869 C   0  0  0  0  0  0  0  0  0  0  0  0
  162.3110  142.7661  186.5070 C   0  0  0  0  0  0  0  0  0  0  0  0
  163.3242  143.1702  187.3339 F   0  0  0  0  0  0  0  0  0  0  0  0
  162.6578  142.2681  185.2584 C   0  0  0  0  0  0  0  0  0  0  0  0
  161.6273  141.8644  184.4351 C   0  0  0  0  0  0  0  0  0  0  0  0
  161.9269  141.3732  183.2095 F   0  0  0  0  0  0  0  0  0  0  0  0
 26 27  1  0  0  0
 27  1  1  0  0  0
  1  2  2  0  0  0
  2  3  1  0  0  0
  3  4  2  0  0  0
  4  7  1  0  0  0
  7  8  2  0  0  0
  8  9  1  0  0  0
  9 10  2  0  0  0
 10 11  1  0  0  0
 11 20  1  0  0  0
 20 21  2  0  0  0
 21 22  1  0  0  0
 22 23  2  0  0  0
 23 24  1  0  0  0
 24 25  2  0  0  0
 11 12  2  0  0  0
 12 13  1  0  0  0
 12 14  1  0  0  0
 14 15  2  0  0  0
 15 16  1  0  0  0
 16 17  2  0  0  0
  4  5  1  0  0  0
  5  6  2  0  0  0
  6 28  1  0  0  0
 28 30  1  0  0  0
 30 31  2  0  0  0
 30 32  2  0  0  0
 30 33  1  0  0  0
 33 34  2  0  0  0
 34 35  1  0  0  0
 35 36  2  0  0  0
 36 37  1  0  0  0
 36 38  1  0  0  0
 38 39  2  0  0  0
 39 40  1  0  0  0
  6  1  1  0  0  0
 39 33  1  0  0  0
 17  7  1  0  0  0
 15  9  1  0  0  0
 25 20  1  0  0  0
 13 18  1  0  0  0
 13 19  1  0  0  0
 28 29  1  0  0  0
M  END
> <minimizedAffinity>
-10.71495

> <CNNscore>
0.2763339281

> <CNNaffinity>
6.6952066422

> <CNN_VS>
1.8501127958

> <CNNaffinity_variance>
0.0910608768

$$$$
[H]c1nc(OC([H])([H])[H])c(N([H])S(=O)(=O)c2c([H])c([H])c(F)c([H])c2F)c([H])c1-c1nc([H])c2nc(N([H])[H])c(-c3c([H])c([H])c([H])c([H])c3[H])c([H])c2c1[H]


 40 44  0  0  0  0  0  0  0  0999 V2000
  155.7149  140.7484  183.8024 C   0  0  0  0  0  0  0  0  0  0  0  0
  154.9072  139.7502  184.1879 N   0  0  0  0  0  0  0  0  0  0  0  0
  153.8182  139.3488  183.4603 C   0  0  0  0  0  0  0  0  0  0  0  0
  153.4978  139.9647  182.2767 C   0  0  0  0  0  0  0  0  0  0  0  0
  154.3274  140.9970  181.8718 C   0  0  0  0  0  0  0  0  0  0  0  0
  155.4322  141.3952  182.6216 C   0  0  0  0  0  0  0  0  0  0  0  0
  152.3458  139.5809  181.4532 C   0  0  0  0  0  0  0  0  0  0  0  0
  151.7469  138.3731  181.5813 C   0  0  0  0  0  0  0  0  0  0  0  0
  150.6470  138.0168  180.7897 C   0  0  0  0  0  0  0  0  0  0  0  0
  150.0536  136.7805  180.9382 C   0  0  0  0  0  0  0  0  0  0  0  0
  148.9598  136.4768  180.1230 C   0  0  0  0  0  0  0  0  0  0  0  0
  148.5072  137.4100  179.2020 C   0  0  0  0  0  0  0  0  0  0  0  0
  147.3883  137.0517  178.4064 N   0  0  0  0  0  0  0  0  0  0  0  0
  149.1107  138.6175  179.0781 N   0  0  0  0  0  0  0  0  0  0  0  0
  150.1628  138.9129  179.8601 C   0  0  0  0  0  0  0  0  0  0  0  0
  150.8010  140.1464  179.7532 C   0  0  0  0  0  0  0  0  0  0  0  0
  151.8479  140.4466  180.5283 N   0  0  0  0  0  0  0  0  0  0  0  0
  146.5829  136.5962  178.8771 H   0  0  0  0  0  0  0  0  0  0  0  0
  147.3641  137.2319  177.3968 H   0  0  0  0  0  0  0  0  0  0  0  0
  148.3557  135.1866  180.2795 C   0  0  0  0  0  0  0  0  0  0  0  0
  147.4046  134.9633  181.2467 C   0  0  0  0  0  0  0  0  0  0  0  0
  146.8154  133.7417  181.4265 C   0  0  0  0  0  0  0  0  0  0  0  0
  147.1741  132.6890  180.6219 C   0  0  0  0  0  0  0  0  0  0  0  0
  148.1237  132.8711  179.6408 C   0  0  0  0  0  0  0  0  0  0  0  0
  148.7043  134.1235  179.4825 C   0  0  0  0  0  0  0  0  0  0  0  0
  157.6655  140.1789  185.1851 C   0  0  0  0  0  0  0  0  0  0  0  0
  156.8181  141.1125  184.5958 O   0  0  0  0  0  0  0  0  0  0  0  0
  156.2781  142.4542  182.2114 N   0  0  0  0  0  0  0  0  0  0  0  0
  155.9145  143.4391  182.3582 H   0  0  0  0  0  0  0  0  0  0  0  0
  157.8364  142.2211  181.4976 S   0  0  0  0  0  0  0  0  0  0  0  0
  157.8845  140.8642  180.8313 O   0  0  0  0  0  0  0  0  0  0  0  0
  158.0176  143.2286  180.4009 O   0  0  0  0  0  0  0  0  0  0  0  0
  159.1299  142.3799  182.6338 C   0  0  0  0  0  0  0  0  0  0  0  0
  159.9491  141.3180  182.9366 C   0  0  0  0  0  0  0  0  0  0  0  0
  160.9744  141.4905  183.8458 C   0  0  0  0  0  0  0  0  0  0  0  0
  161.1859  142.7072  184.4503 C   0  0  0  0  0  0  0  0  0  0  0  0
  162.1968  142.8968  185.3537 F   0  0  0  0  0  0  0  0  0  0  0  0
  160.3703  143.7922  184.1586 C   0  0  0  0  0  0  0  0  0  0  0  0
  159.3557  143.5875  183.2468 C   0  0  0  0  0  0  0  0  0  0  0  0
  158.5396  144.6226  182.9371 F   0  0  0  0  0  0  0  0  0  0  0  0
 26 27  1  0  0  0
 27  1  1  0  0  0
  1  2  2  0  0  0
  2  3  1  0  0  0
  3  4  2  0  0  0
  4  7  1  0  0  0
  7  8  2  0  0  0
  8  9  1  0  0  0
  9 10  2  0  0  0
 10 11  1  0  0  0
 11 20  1  0  0  0
 20 21  2  0  0  0
 21 22  1  0  0  0
 22 23  2  0  0  0
 23 24  1  0  0  0
 24 25  2  0  0  0
 11 12  2  0  0  0
 12 13  1  0  0  0
 12 14  1  0  0  0
 14 15  2  0  0  0
 15 16  1  0  0  0
 16 17  2  0  0  0
  4  5  1  0  0  0
  5  6  2  0  0  0
  6 28  1  0  0  0
 28 30  1  0  0  0
 30 31  2  0  0  0
 30 32  2  0  0  0
 30 33  1  0  0  0
 33 34  2  0  0  0
 34 35  1  0  0  0
 35 36  2  0  0  0
 36 37  1  0  0  0
 36 38  1  0  0  0
 38 39  2  0  0  0
 39 40  1  0  0  0
  6  1  1  0  0  0
 39 33  1  0  0  0
 17  7  1  0  0  0
 15  9  1  0  0  0
 25 20  1  0  0  0
 13 18  1  0  0  0
 13 19  1  0  0  0
 28 29  1  0  0  0
M  END
> <minimizedAffinity>
-9.00083

> <CNNscore>
0.2481821179

> <CNNaffinity>
6.3802156448

> <CNN_VS>
1.5834554434

> <CNNaffinity_variance>
0.1875367016

$$$$
[H]c1c([H])c(S(=O)(=O)C([H])([H])C([H])([H])C([H])([H])C([H])([H])C([H])([H])C([H])([H])[H])c(Cl)c(Cl)c1C(=O)C([H])([H])C([H])([H])N1C([H])([H])C1([H])C([H])([H])[H]


 25 26  0  0  0  0  0  0  0  0999 V2000
  156.5550  140.6309  183.4739 C   0  0  0  0  0  0  0  0  0  0  0  0
  157.2166  140.0486  184.5414 C   0  0  0  0  0  0  0  0  0  0  0  0
  156.5757  139.1723  185.3757 C   0  0  0  0  0  0  0  0  0  0  0  0
  155.2676  138.8322  185.1938 C   0  0  0  0  0  0  0  0  0  0  0  0
  154.5765  139.4117  184.1215 C   0  0  0  0  0  0  0  0  0  0  0  0
  152.8831  138.9822  183.8833 Cl  0  0  0  0  0  0  0  0  0  0  0  0
  155.2322  140.2937  183.2930 C   0  0  0  0  0  0  0  0  0  0  0  0
  154.3645  141.0246  181.9649 Cl  0  0  0  0  0  0  0  0  0  0  0  0
  157.4222  141.6806  182.3752 S   0  0  0  0  0  0  0  0  0  0  0  0
  156.9364  143.1012  182.6698 O   0  0  0  0  0  0  0  0  0  0  0  0
  157.1925  141.3185  180.9630 O   0  0  0  0  0  0  0  0  0  0  0  0
  159.1355  141.5649  182.8367 C   0  0  0  0  0  0  0  0  0  0  0  0
  159.5667  142.6688  183.7368 C   0  0  0  0  0  0  0  0  0  0  0  0
  160.3721  142.0180  184.8730 C   0  0  0  0  0  0  0  0  0  0  0  0
  161.5009  142.9290  185.2665 C   0  0  0  0  0  0  0  0  0  0  0  0
  162.9412  142.7250  187.1998 C   0  0  0  0  0  0  0  0  0  0  0  0
  161.5999  143.2578  186.7116 C   0  0  0  0  0  0  0  0  0  0  0  0
  154.5886  137.7855  186.0042 C   0  0  0  0  0  0  0  0  0  0  0  0
  154.6082  136.6413  185.6519 O   0  0  0  0  0  0  0  0  0  0  0  0
  153.9251  138.2836  187.2065 C   0  0  0  0  0  0  0  0  0  0  0  0
  154.6350  138.1728  188.4976 C   0  0  0  0  0  0  0  0  0  0  0  0
  155.9208  137.6588  188.5933 N   0  0  0  0  0  0  0  0  0  0  0  0
  156.5144  136.5921  189.2434 C   0  0  0  0  0  0  0  0  0  0  0  0
  156.6428  137.9966  189.8366 C   0  0  0  0  0  0  0  0  0  0  0  0
  155.8171  138.2517  191.0601 C   0  0  0  0  0  0  0  0  0  0  0  0
 16 17  1  0  0  0
 17 15  1  0  0  0
 15 14  1  0  0  0
 14 13  1  0  0  0
 13 12  1  0  0  0
 12  9  1  0  0  0
  9 10  2  0  0  0
  9 11  2  0  0  0
  9  1  1  0  0  0
  1  2  2  0  0  0
  2  3  1  0  0  0
  3  4  2  0  0  0
  4 18  1  0  0  0
 18 19  2  0  0  0
 18 20  1  0  0  0
 20 21  1  0  0  0
 21 22  1  0  0  0
 22 23  1  0  0  0
 23 24  1  0  0  0
 24 25  1  0  0  0
  4  5  1  0  0  0
  5  6  1  0  0  0
  5  7  2  0  0  0
  7  8  1  0  0  0
  7  1  1  0  0  0
 24 22  1  0  0  0
M  END
> <minimizedAffinity>
-7.16255

> <CNNscore>
0.5570854545

> <CNNaffinity>
6.5519204140

> <CNN_VS>
3.6499795914

> <CNNaffinity_variance>
0.1005482450

$$$$
[H]c1c([H])c(S(=O)(=O)C([H])([H])C([H])([H])C([H])([H])C([H])([H])C([H])([H])C([H])([H])[H])c(Cl)c(Cl)c1C(=O)C([H])([H])C([H])([H])N1C([H])([H])C1([H])C([H])([H])[H]


 25 26  0  0  0  0  0  0  0  0999 V2000
  155.9048  140.2707  183.4456 C   0  0  0  0  0  0  0  0  0  0  0  0
  154.5403  140.1677  183.2361 C   0  0  0  0  0  0  0  0  0  0  0  0
  153.7554  139.4056  184.0595 C   0  0  0  0  0  0  0  0  0  0  0  0
  154.2760  138.7210  185.1177 C   0  0  0  0  0  0  0  0  0  0  0  0
  155.6555  138.8076  185.3476 C   0  0  0  0  0  0  0  0  0  0  0  0
  156.3375  137.9201  186.7100 Cl  0  0  0  0  0  0  0  0  0  0  0  0
  156.4330  139.5744  184.5098 C   0  0  0  0  0  0  0  0  0  0  0  0
  158.1542  139.6701  184.7909 Cl  0  0  0  0  0  0  0  0  0  0  0  0
  156.8688  141.3187  182.4291 S   0  0  0  0  0  0  0  0  0  0  0  0
  155.8827  142.2457  181.7155 O   0  0  0  0  0  0  0  0  0  0  0  0
  157.6842  140.5583  181.4621 O   0  0  0  0  0  0  0  0  0  0  0  0
  157.8608  142.2963  183.5344 C   0  0  0  0  0  0  0  0  0  0  0  0
  159.0908  142.8291  182.8878 C   0  0  0  0  0  0  0  0  0  0  0  0
  160.0201  143.2856  184.0241 C   0  0  0  0  0  0  0  0  0  0  0  0
  160.8163  142.1100  184.5170 C   0  0  0  0  0  0  0  0  0  0  0  0
  161.8799  142.9210  186.5332 C   0  0  0  0  0  0  0  0  0  0  0  0
  162.1387  142.4234  185.1166 C   0  0  0  0  0  0  0  0  0  0  0  0
  153.4283  137.9954  186.1018 C   0  0  0  0  0  0  0  0  0  0  0  0
  153.1561  136.8421  185.9303 O   0  0  0  0  0  0  0  0  0  0  0  0
  152.9831  138.8049  187.2334 C   0  0  0  0  0  0  0  0  0  0  0  0
  153.6694  138.6361  188.5310 C   0  0  0  0  0  0  0  0  0  0  0  0
  153.7034  137.4189  189.1973 N   0  0  0  0  0  0  0  0  0  0  0  0
  153.3984  136.9800  190.4729 C   0  0  0  0  0  0  0  0  0  0  0  0
  154.8605  137.2243  190.0941 C   0  0  0  0  0  0  0  0  0  0  0  0
  155.4788  138.4516  190.6901 C   0  0  0  0  0  0  0  0  0  0  0  0
 16 17  1  0  0  0
 17 15  1  0  0  0
 15 14  1  0  0  0
 14 13  1  0  0  0
 13 12  1  0  0  0
 12  9  1  0  0  0
  9 10  2  0  0  0
  9 11  2  0  0  0
  9  1  1  0  0  0
  1  2  2  0  0  0
  2  3  1  0  0  0
  3  4  2  0  0  0
  4 18  1  0  0  0
 18 19  2  0  0  0
 18 20  1  0  0  0
 20 21  1  0  0  0
 21 22  1  0  0  0
 22 23  1  0  0  0
 23 24  1  0  0  0
 24 25  1  0  0  0
  4  5  1  0  0  0
  5  6  1  0  0  0
  5  7  2  0  0  0
  7  8  1  0  0  0
  7  1  1  0  0  0
 24 22  1  0  0  0
M  END
> <minimizedAffinity>
-6.77091

> <CNNscore>
0.5002911091

> <CNNaffinity>
6.5311918259

> <CNN_VS>
3.2674973011

> <CNNaffinity_variance>
0.0642357394

$$$$
[H]c1c([H])c(S(=O)(=O)C([H])([H])C([H])([H])C([H])([H])C([H])([H])C([H])([H])C([H])([H])[H])c(Cl)c(Cl)c1C(=O)C([H])([H])C([H])([H])N1C([H])([H])C1([H])C([H])([H])[H]


 25 26  0  0  0  0  0  0  0  0999 V2000
  154.1161  141.0777  182.7156 C   0  0  0  0  0  0  0  0  0  0  0  0
  153.1059  140.9858  181.7735 C   0  0  0  0  0  0  0  0  0  0  0  0
  152.4170  139.8170  181.5892 C   0  0  0  0  0  0  0  0  0  0  0  0
  152.6889  138.6990  182.3212 C   0  0  0  0  0  0  0  0  0  0  0  0
  153.7097  138.7672  183.2786 C   0  0  0  0  0  0  0  0  0  0  0  0
  154.0719  137.3241  184.2246 Cl  0  0  0  0  0  0  0  0  0  0  0  0
  154.3965  139.9475  183.4507 C   0  0  0  0  0  0  0  0  0  0  0  0
  155.6771  140.0259  184.6358 Cl  0  0  0  0  0  0  0  0  0  0  0  0
  154.9211  142.6069  182.9880 S   0  0  0  0  0  0  0  0  0  0  0  0
  154.6445  142.9809  184.4455 O   0  0  0  0  0  0  0  0  0  0  0  0
  154.4457  143.6571  182.0664 O   0  0  0  0  0  0  0  0  0  0  0  0
  156.6606  142.2834  182.8106 C   0  0  0  0  0  0  0  0  0  0  0  0
  157.0107  141.7249  181.4763 C   0  0  0  0  0  0  0  0  0  0  0  0
  158.2838  140.8862  181.6732 C   0  0  0  0  0  0  0  0  0  0  0  0
  159.2839  141.6801  182.4658 C   0  0  0  0  0  0  0  0  0  0  0  0
  159.1676  139.7101  183.8655 C   0  0  0  0  0  0  0  0  0  0  0  0
  160.0020  140.9415  183.5359 C   0  0  0  0  0  0  0  0  0  0  0  0
  151.8693  137.4605  182.2325 C   0  0  0  0  0  0  0  0  0  0  0  0
  152.2206  136.5520  181.5362 O   0  0  0  0  0  0  0  0  0  0  0  0
  150.6513  137.4793  183.0388 C   0  0  0  0  0  0  0  0  0  0  0  0
  149.3517  137.5969  182.3457 C   0  0  0  0  0  0  0  0  0  0  0  0
  148.7791  138.8264  182.0505 N   0  0  0  0  0  0  0  0  0  0  0  0
  147.6471  139.2561  181.3821 C   0  0  0  0  0  0  0  0  0  0  0  0
  149.0019  139.3100  180.6730 C   0  0  0  0  0  0  0  0  0  0  0  0
  149.2083  138.2758  179.6093 C   0  0  0  0  0  0  0  0  0  0  0  0
 16 17  1  0  0  0
 17 15  1  0  0  0
 15 14  1  0  0  0
 14 13  1  0  0  0
 13 12  1  0  0  0
 12  9  1  0  0  0
  9 10  2  0  0  0
  9 11  2  0  0  0
  9  1  1  0  0  0
  1  2  2  0  0  0
  2  3  1  0  0  0
  3  4  2  0  0  0
  4 18  1  0  0  0
 18 19  2  0  0  0
 18 20  1  0  0  0
 20 21  1  0  0  0
 21 22  1  0  0  0
 22 23  1  0  0  0
 23 24  1  0  0  0
 24 25  1  0  0  0
  4  5  1  0  0  0
  5  6  1  0  0  0
  5  7  2  0  0  0
  7  8  1  0  0  0
  7  1  1  0  0  0
 24 22  1  0  0  0
M  END
> <minimizedAffinity>
-5.80378

> <CNNscore>
0.4733858109

> <CNNaffinity>
6.1797184944

> <CNN_VS>
2.9253909588

> <CNNaffinity_variance>
0.0864031389

$$$$
[H]c1c([H])c(S(=O)(=O)C([H])([H])C([H])([H])C([H])([H])C([H])([H])C([H])([H])C([H])([H])[H])c(Cl)c(Cl)c1C(=O)C([H])([H])C([H])([H])N1C([H])([H])C1([H])C([H])([H])[H]


 25 26  0  0  0  0  0  0  0  0999 V2000
  154.0021  140.8965  182.6487 C   0  0  0  0  0  0  0  0  0  0  0  0
  152.8939  140.7720  181.8283 C   0  0  0  0  0  0  0  0  0  0  0  0
  152.2051  139.5915  181.7471 C   0  0  0  0  0  0  0  0  0  0  0  0
  152.5730  138.4933  182.4670 C   0  0  0  0  0  0  0  0  0  0  0  0
  153.6936  138.5946  183.3020 C   0  0  0  0  0  0  0  0  0  0  0  0
  154.1797  137.1772  184.2312 Cl  0  0  0  0  0  0  0  0  0  0  0  0
  154.3788  139.7863  183.3711 C   0  0  0  0  0  0  0  0  0  0  0  0
  155.7832  139.9058  184.4027 Cl  0  0  0  0  0  0  0  0  0  0  0  0
  154.8112  142.4406  182.7969 S   0  0  0  0  0  0  0  0  0  0  0  0
  155.1420  142.6081  184.2813 O   0  0  0  0  0  0  0  0  0  0  0  0
  153.9771  143.5545  182.3054 O   0  0  0  0  0  0  0  0  0  0  0  0
  156.3356  142.2835  181.8950 C   0  0  0  0  0  0  0  0  0  0  0  0
  157.5235  142.6900  182.6940 C   0  0  0  0  0  0  0  0  0  0  0  0
  158.7584  142.1857  181.9299 C   0  0  0  0  0  0  0  0  0  0  0  0
  158.3300  141.6473  180.5937 C   0  0  0  0  0  0  0  0  0  0  0  0
  159.4786  143.6634  179.9083 C   0  0  0  0  0  0  0  0  0  0  0  0
  158.5909  142.5240  179.4234 C   0  0  0  0  0  0  0  0  0  0  0  0
  151.7658  137.2438  182.4969 C   0  0  0  0  0  0  0  0  0  0  0  0
  152.0696  136.3117  181.8096 O   0  0  0  0  0  0  0  0  0  0  0  0
  150.6201  137.2825  183.4024 C   0  0  0  0  0  0  0  0  0  0  0  0
  149.3226  137.7517  182.8739 C   0  0  0  0  0  0  0  0  0  0  0  0
  148.8546  137.3773  181.6219 N   0  0  0  0  0  0  0  0  0  0  0  0
  149.1122  137.7528  180.3160 C   0  0  0  0  0  0  0  0  0  0  0  0
  147.8660  138.2941  181.0194 C   0  0  0  0  0  0  0  0  0  0  0  0
  147.9343  139.7353  181.4221 C   0  0  0  0  0  0  0  0  0  0  0  0
 16 17  1  0  0  0
 17 15  1  0  0  0
 15 14  1  0  0  0
 14 13  1  0  0  0
 13 12  1  0  0  0
 12  9  1  0  0  0
  9 10  2  0  0  0
  9 11  2  0  0  0
  9  1  1  0  0  0
  1  2  2  0  0  0
  2  3  1  0  0  0
  3  4  2  0  0  0
  4 18  1  0  0  0
 18 19  2  0  0  0
 18 20  1  0  0  0
 20 21  1  0  0  0
 21 22  1  0  0  0
 22 23  1  0  0  0
 23 24  1  0  0  0
 24 25  1  0  0  0
  4  5  1  0  0  0
  5  6  1  0  0  0
  5  7  2  0  0  0
  7  8  1  0  0  0
  7  1  1  0  0  0
 24 22  1  0  0  0
M  END
> <minimizedAffinity>
-5.97387

> <CNNscore>
0.4642112255

> <CNNaffinity>
6.1900129318

> <CNN_VS>
2.8734734058

> <CNNaffinity_variance>
0.1134982854

$$$$
[H]c1c([H])c(S(=O)(=O)C([H])([H])C([H])([H])C([H])([H])C([H])([H])C([H])([H])C([H])([H])[H])c(Cl)c(Cl)c1C(=O)C([H])([H])C([H])([H])N1C([H])([H])C1([H])C([H])([H])[H]


 25 26  0  0  0  0  0  0  0  0999 V2000
  153.1920  138.7039  183.2086 C   0  0  0  0  0  0  0  0  0  0  0  0
  153.4466  139.8079  182.4131 C   0  0  0  0  0  0  0  0  0  0  0  0
  154.5595  140.5800  182.6127 C   0  0  0  0  0  0  0  0  0  0  0  0
  155.4637  140.2982  183.5939 C   0  0  0  0  0  0  0  0  0  0  0  0
  155.2253  139.1872  184.4138 C   0  0  0  0  0  0  0  0  0  0  0  0
  156.3863  138.8198  185.6890 Cl  0  0  0  0  0  0  0  0  0  0  0  0
  154.1006  138.4220  184.2043 C   0  0  0  0  0  0  0  0  0  0  0  0
  153.7993  137.0455  185.2362 Cl  0  0  0  0  0  0  0  0  0  0  0  0
  151.8075  137.6872  182.8763 S   0  0  0  0  0  0  0  0  0  0  0  0
  151.1434  137.4159  184.2277 O   0  0  0  0  0  0  0  0  0  0  0  0
  152.1899  136.4294  182.2057 O   0  0  0  0  0  0  0  0  0  0  0  0
  150.7008  138.6725  181.8933 C   0  0  0  0  0  0  0  0  0  0  0  0
  150.7089  138.2887  180.4555 C   0  0  0  0  0  0  0  0  0  0  0  0
  149.4244  138.8677  179.8406 C   0  0  0  0  0  0  0  0  0  0  0  0
  148.6001  139.5067  180.9227 C   0  0  0  0  0  0  0  0  0  0  0  0
  146.8175  138.5146  182.2233 C   0  0  0  0  0  0  0  0  0  0  0  0
  147.1470  139.1995  180.9029 C   0  0  0  0  0  0  0  0  0  0  0  0
  156.7438  141.0411  183.7455 C   0  0  0  0  0  0  0  0  0  0  0  0
  156.7791  142.0631  184.3681 O   0  0  0  0  0  0  0  0  0  0  0  0
  157.8875  140.4225  183.0796 C   0  0  0  0  0  0  0  0  0  0  0  0
  158.5497  141.1643  181.9867 C   0  0  0  0  0  0  0  0  0  0  0  0
  157.8606  141.5957  180.8617 N   0  0  0  0  0  0  0  0  0  0  0  0
  158.2079  142.0630  179.6071 C   0  0  0  0  0  0  0  0  0  0  0  0
  157.7912  143.0609  180.6895 C   0  0  0  0  0  0  0  0  0  0  0  0
  158.9061  143.8726  181.2741 C   0  0  0  0  0  0  0  0  0  0  0  0
 16 17  1  0  0  0
 17 15  1  0  0  0
 15 14  1  0  0  0
 14 13  1  0  0  0
 13 12  1  0  0  0
 12  9  1  0  0  0
  9 10  2  0  0  0
  9 11  2  0  0  0
  9  1  1  0  0  0
  1  2  2  0  0  0
  2  3  1  0  0  0
  3  4  2  0  0  0
  4 18  1  0  0  0
 18 19  2  0  0  0
 18 20  1  0  0  0
 20 21  1  0  0  0
 21 22  1  0  0  0
 22 23  1  0  0  0
 23 24  1  0  0  0
 24 25  1  0  0  0
  4  5  1  0  0  0
  5  6  1  0  0  0
  5  7  2  0  0  0
  7  8  1  0  0  0
  7  1  1  0  0  0
 24 22  1  0  0  0
M  END
> <minimizedAffinity>
-5.85430

> <CNNscore>
0.4641515613

> <CNNaffinity>
6.2293868065

> <CNN_VS>
2.8913795948

> <CNNaffinity_variance>
0.0453858487

$$$$
[H]c1c([H])c(S(=O)(=O)C([H])([H])C([H])([H])C([H])([H])C([H])([H])C([H])([H])C([H])([H])[H])c(Cl)c(Cl)c1C(=O)C([H])([H])C([H])([H])N1C([H])([H])C1([H])C([H])([H])[H]


 25 26  0  0  0  0  0  0  0  0999 V2000
  155.2651  139.8760  183.6803 C   0  0  0  0  0  0  0  0  0  0  0  0
  154.0359  139.3340  183.3462 C   0  0  0  0  0  0  0  0  0  0  0  0
  153.4457  138.3834  184.1354 C   0  0  0  0  0  0  0  0  0  0  0  0
  154.0345  137.9323  185.2798 C   0  0  0  0  0  0  0  0  0  0  0  0
  155.2807  138.4642  185.6366 C   0  0  0  0  0  0  0  0  0  0  0  0
  156.0516  137.8815  187.1113 Cl  0  0  0  0  0  0  0  0  0  0  0  0
  155.8640  139.4165  184.8320 C   0  0  0  0  0  0  0  0  0  0  0  0
  157.4235  140.0682  185.2723 Cl  0  0  0  0  0  0  0  0  0  0  0  0
  155.9550  141.1494  182.6988 S   0  0  0  0  0  0  0  0  0  0  0  0
  156.2006  142.3291  183.6417 O   0  0  0  0  0  0  0  0  0  0  0  0
  155.0692  141.5322  181.5821 O   0  0  0  0  0  0  0  0  0  0  0  0
  157.5287  140.5390  182.1397 C   0  0  0  0  0  0  0  0  0  0  0  0
  158.0448  141.2747  180.9534 C   0  0  0  0  0  0  0  0  0  0  0  0
  159.2678  142.0738  181.4319 C   0  0  0  0  0  0  0  0  0  0  0  0
  159.7001  141.5620  182.7772 C   0  0  0  0  0  0  0  0  0  0  0  0
  161.0795  142.1467  184.6770 C   0  0  0  0  0  0  0  0  0  0  0  0
  159.8885  142.5875  183.8352 C   0  0  0  0  0  0  0  0  0  0  0  0
  153.3556  137.0005  186.2202 C   0  0  0  0  0  0  0  0  0  0  0  0
  153.6385  135.8372  186.2276 O   0  0  0  0  0  0  0  0  0  0  0  0
  152.3548  137.6277  187.0799 C   0  0  0  0  0  0  0  0  0  0  0  0
  150.9277  137.3558  186.8107 C   0  0  0  0  0  0  0  0  0  0  0  0
  150.3240  136.1560  187.1612 N   0  0  0  0  0  0  0  0  0  0  0  0
  149.5580  135.2062  186.5101 C   0  0  0  0  0  0  0  0  0  0  0  0
  148.8709  136.2325  187.4132 C   0  0  0  0  0  0  0  0  0  0  0  0
  148.1073  137.3041  186.6974 C   0  0  0  0  0  0  0  0  0  0  0  0
 16 17  1  0  0  0
 17 15  1  0  0  0
 15 14  1  0  0  0
 14 13  1  0  0  0
 13 12  1  0  0  0
 12  9  1  0  0  0
  9 10  2  0  0  0
  9 11  2  0  0  0
  9  1  1  0  0  0
  1  2  2  0  0  0
  2  3  1  0  0  0
  3  4  2  0  0  0
  4 18  1  0  0  0
 18 19  2  0  0  0
 18 20  1  0  0  0
 20 21  1  0  0  0
 21 22  1  0  0  0
 22 23  1  0  0  0
 23 24  1  0  0  0
 24 25  1  0  0  0
  4  5  1  0  0  0
  5  6  1  0  0  0
  5  7  2  0  0  0
  7  8  1  0  0  0
  7  1  1  0  0  0
 24 22  1  0  0  0
M  END
> <minimizedAffinity>
-5.61555

> <CNNscore>
0.4272598028

> <CNNaffinity>
6.0425367355

> <CNN_VS>
2.5817329884

> <CNNaffinity_variance>
0.0757995993

$$$$
[H]c1c([H])c(S(=O)(=O)C([H])([H])C([H])([H])C([H])([H])C([H])([H])C([H])([H])C([H])([H])[H])c(Cl)c(Cl)c1C(=O)C([H])([H])C([H])([H])N1C([H])([H])C1([H])C([H])([H])[H]


 25 26  0  0  0  0  0  0  0  0999 V2000
  157.3826  140.6361  183.8267 C   0  0  0  0  0  0  0  0  0  0  0  0
  157.5569  139.8432  184.9481 C   0  0  0  0  0  0  0  0  0  0  0  0
  156.5240  139.1012  185.4552 C   0  0  0  0  0  0  0  0  0  0  0  0
  155.2865  139.1055  184.8822 C   0  0  0  0  0  0  0  0  0  0  0  0
  155.0855  139.9031  183.7478 C   0  0  0  0  0  0  0  0  0  0  0  0
  153.4865  139.9193  183.0049 Cl  0  0  0  0  0  0  0  0  0  0  0  0
  156.1317  140.6468  183.2511 C   0  0  0  0  0  0  0  0  0  0  0  0
  155.8748  141.6502  181.8448 Cl  0  0  0  0  0  0  0  0  0  0  0  0
  158.7418  141.5067  183.1517 S   0  0  0  0  0  0  0  0  0  0  0  0
  158.3783  142.9909  183.2285 O   0  0  0  0  0  0  0  0  0  0  0  0
  159.0298  141.0973  181.7633 O   0  0  0  0  0  0  0  0  0  0  0  0
  160.1097  141.2051  184.2470 C   0  0  0  0  0  0  0  0  0  0  0  0
  161.4156  141.6219  183.6678 C   0  0  0  0  0  0  0  0  0  0  0  0
  162.2338  142.2245  184.8214 C   0  0  0  0  0  0  0  0  0  0  0  0
  161.3732  143.1868  185.5909 C   0  0  0  0  0  0  0  0  0  0  0  0
  163.0522  142.6451  187.2464 C   0  0  0  0  0  0  0  0  0  0  0  0
  161.8015  143.4744  186.9838 C   0  0  0  0  0  0  0  0  0  0  0  0
  154.1879  138.2095  185.3337 C   0  0  0  0  0  0  0  0  0  0  0  0
  153.9888  137.1692  184.7755 O   0  0  0  0  0  0  0  0  0  0  0  0
  153.4172  138.7168  186.4663 C   0  0  0  0  0  0  0  0  0  0  0  0
  153.6828  138.1526  187.8058 C   0  0  0  0  0  0  0  0  0  0  0  0
  154.8087  137.3872  188.0764 N   0  0  0  0  0  0  0  0  0  0  0  0
  155.1553  136.4349  189.0177 C   0  0  0  0  0  0  0  0  0  0  0  0
  155.6474  137.8733  189.1905 C   0  0  0  0  0  0  0  0  0  0  0  0
  154.9655  138.6570  190.2696 C   0  0  0  0  0  0  0  0  0  0  0  0
 16 17  1  0  0  0
 17 15  1  0  0  0
 15 14  1  0  0  0
 14 13  1  0  0  0
 13 12  1  0  0  0
 12  9  1  0  0  0
  9 10  2  0  0  0
  9 11  2  0  0  0
  9  1  1  0  0  0
  1  2  2  0  0  0
  2  3  1  0  0  0
  3  4  2  0  0  0
  4 18  1  0  0  0
 18 19  2  0  0  0
 18 20  1  0  0  0
 20 21  1  0  0  0
 21 22  1  0  0  0
 22 23  1  0  0  0
 23 24  1  0  0  0
 24 25  1  0  0  0
  4  5  1  0  0  0
  5  6  1  0  0  0
  5  7  2  0  0  0
  7  8  1  0  0  0
  7  1  1  0  0  0
 24 22  1  0  0  0
M  END
> <minimizedAffinity>
-7.13068

> <CNNscore>
0.4147525132

> <CNNaffinity>
6.4739866257

> <CNN_VS>
2.6851022243

> <CNNaffinity_variance>
0.1803777516

$$$$
[H]c1c([H])c(S(=O)(=O)C([H])([H])C([H])([H])C([H])([H])C([H])([H])C([H])([H])C([H])([H])[H])c(Cl)c(Cl)c1C(=O)C([H])([H])C([H])([H])N1C([H])([H])C1([H])C([H])([H])[H]


 25 26  0  0  0  0  0  0  0  0999 V2000
  154.7492  140.2367  183.5957 C   0  0  0  0  0  0  0  0  0  0  0  0
  155.2796  139.3766  184.5419 C   0  0  0  0  0  0  0  0  0  0  0  0
  154.7242  138.1456  184.7667 C   0  0  0  0  0  0  0  0  0  0  0  0
  153.6338  137.7110  184.0725 C   0  0  0  0  0  0  0  0  0  0  0  0
  153.0775  138.5659  183.1117 C   0  0  0  0  0  0  0  0  0  0  0  0
  151.6635  138.0141  182.2144 Cl  0  0  0  0  0  0  0  0  0  0  0  0
  153.6439  139.8021  182.8987 C   0  0  0  0  0  0  0  0  0  0  0  0
  152.9405  140.8708  181.7097 Cl  0  0  0  0  0  0  0  0  0  0  0  0
  155.5303  141.7681  183.2704 S   0  0  0  0  0  0  0  0  0  0  0  0
  154.6251  142.8449  183.8721 O   0  0  0  0  0  0  0  0  0  0  0  0
  155.7389  141.9899  181.8263 O   0  0  0  0  0  0  0  0  0  0  0  0
  157.0569  141.7427  184.1818 C   0  0  0  0  0  0  0  0  0  0  0  0
  158.2520  141.6254  183.3028 C   0  0  0  0  0  0  0  0  0  0  0  0
  158.8173  143.0458  183.1407 C   0  0  0  0  0  0  0  0  0  0  0  0
  158.9335  143.3700  181.6777 C   0  0  0  0  0  0  0  0  0  0  0  0
  158.3875  142.4920  179.4904 C   0  0  0  0  0  0  0  0  0  0  0  0
  159.1660  142.2169  180.7708 C   0  0  0  0  0  0  0  0  0  0  0  0
  153.0940  136.3309  184.2043 C   0  0  0  0  0  0  0  0  0  0  0  0
  152.1132  136.1258  184.8596 O   0  0  0  0  0  0  0  0  0  0  0  0
  153.8571  135.3096  183.4910 C   0  0  0  0  0  0  0  0  0  0  0  0
  153.4621  134.9767  182.1067 C   0  0  0  0  0  0  0  0  0  0  0  0
  153.1809  133.6766  181.7098 N   0  0  0  0  0  0  0  0  0  0  0  0
  153.8757  132.4814  181.6712 C   0  0  0  0  0  0  0  0  0  0  0  0
  153.7109  133.2942  180.3855 C   0  0  0  0  0  0  0  0  0  0  0  0
  154.9449  133.9992  179.9122 C   0  0  0  0  0  0  0  0  0  0  0  0
 16 17  1  0  0  0
 17 15  1  0  0  0
 15 14  1  0  0  0
 14 13  1  0  0  0
 13 12  1  0  0  0
 12  9  1  0  0  0
  9 10  2  0  0  0
  9 11  2  0  0  0
  9  1  1  0  0  0
  1  2  2  0  0  0
  2  3  1  0  0  0
  3  4  2  0  0  0
  4 18  1  0  0  0
 18 19  2  0  0  0
 18 20  1  0  0  0
 20 21  1  0  0  0
 21 22  1  0  0  0
 22 23  1  0  0  0
 23 24  1  0  0  0
 24 25  1  0  0  0
  4  5  1  0  0  0
  5  6  1  0  0  0
  5  7  2  0  0  0
  7  8  1  0  0  0
  7  1  1  0  0  0
 24 22  1  0  0  0
M  END
> <minimizedAffinity>
-5.71734

> <CNNscore>
0.3677483499

> <CNNaffinity>
5.9366054535

> <CNN_VS>
2.1831767559

> <CNNaffinity_variance>
0.0811835974

$$$$
[H]c1c([H])c(S(=O)(=O)C([H])([H])C([H])([H])C([H])([H])C([H])([H])C([H])([H])C([H])([H])[H])c(Cl)c(Cl)c1C(=O)C([H])([H])C([H])([H])N1C([H])([H])C1([H])C([H])([H])[H]


 25 26  0  0  0  0  0  0  0  0999 V2000
  154.9910  140.8753  182.8286 C   0  0  0  0  0  0  0  0  0  0  0  0
  153.8532  141.0053  182.0508 C   0  0  0  0  0  0  0  0  0  0  0  0
  152.8911  140.0311  182.0393 C   0  0  0  0  0  0  0  0  0  0  0  0
  153.0059  138.8983  182.7898 C   0  0  0  0  0  0  0  0  0  0  0  0
  154.1507  138.7433  183.5827 C   0  0  0  0  0  0  0  0  0  0  0  0
  154.3098  137.2784  184.5510 Cl  0  0  0  0  0  0  0  0  0  0  0  0
  155.1115  139.7288  183.5817 C   0  0  0  0  0  0  0  0  0  0  0  0
  156.5436  139.5268  184.5609 Cl  0  0  0  0  0  0  0  0  0  0  0  0
  156.1622  142.1736  182.8885 S   0  0  0  0  0  0  0  0  0  0  0  0
  156.5659  142.3164  184.3573 O   0  0  0  0  0  0  0  0  0  0  0  0
  155.6173  143.4385  182.3578 O   0  0  0  0  0  0  0  0  0  0  0  0
  157.5737  141.6030  181.9699 C   0  0  0  0  0  0  0  0  0  0  0  0
  158.8249  142.3256  182.3263 C   0  0  0  0  0  0  0  0  0  0  0  0
  159.7832  141.2776  182.9150 C   0  0  0  0  0  0  0  0  0  0  0  0
  160.1922  141.7000  184.2981 C   0  0  0  0  0  0  0  0  0  0  0  0
  161.7943  142.6024  185.8705 C   0  0  0  0  0  0  0  0  0  0  0  0
  161.6417  141.9533  184.5006 C   0  0  0  0  0  0  0  0  0  0  0  0
  151.9169  137.8901  182.8960 C   0  0  0  0  0  0  0  0  0  0  0  0
  151.3279  137.7435  183.9279 O   0  0  0  0  0  0  0  0  0  0  0  0
  151.6665  137.1354  181.6705 C   0  0  0  0  0  0  0  0  0  0  0  0
  150.2850  137.0805  181.1493 C   0  0  0  0  0  0  0  0  0  0  0  0
  149.8751  137.8347  180.0585 N   0  0  0  0  0  0  0  0  0  0  0  0
  150.0907  139.1253  179.6105 C   0  0  0  0  0  0  0  0  0  0  0  0
  148.7821  138.7903  180.3290 C   0  0  0  0  0  0  0  0  0  0  0  0
  148.6656  139.3200  181.7253 C   0  0  0  0  0  0  0  0  0  0  0  0
 16 17  1  0  0  0
 17 15  1  0  0  0
 15 14  1  0  0  0
 14 13  1  0  0  0
 13 12  1  0  0  0
 12  9  1  0  0  0
  9 10  2  0  0  0
  9 11  2  0  0  0
  9  1  1  0  0  0
  1  2  2  0  0  0
  2  3  1  0  0  0
  3  4  2  0  0  0
  4 18  1  0  0  0
 18 19  2  0  0  0
 18 20  1  0  0  0
 20 21  1  0  0  0
 21 22  1  0  0  0
 22 23  1  0  0  0
 23 24  1  0  0  0
 24 25  1  0  0  0
  4  5  1  0  0  0
  5  6  1  0  0  0
  5  7  2  0  0  0
  7  8  1  0  0  0
  7  1  1  0  0  0
 24 22  1  0  0  0
M  END
> <minimizedAffinity>
-6.14634

> <CNNscore>
0.3612219989

> <CNNaffinity>
6.0535321236

> <CNN_VS>
2.1866688728

> <CNNaffinity_variance>
0.0338873789

$$$$
[H]OC([H])([H])C([H])([H])N1C([H])([H])C([H])([H])N(c2c(Cl)c([H])c3nc(SC(C([H])([H])[H])(C([H])([H])[H])C([H])([H])[H])n([H])c3c2[H])[C@]([H])(C([H])([H])[H])C1([H])[H]


 27 29  0  0  0  0  0  0  0  0999 V2000
  151.6286  138.1829  181.8873 C   0  0  0  0  0  0  0  0  0  0  0  0
  152.6195  138.4202  182.8557 C   0  0  0  0  0  0  0  0  0  0  0  0
  153.4635  139.5027  182.7953 C   0  0  0  0  0  0  0  0  0  0  0  0
  154.4595  139.9009  183.6079 N   0  0  0  0  0  0  0  0  0  0  0  0
  154.9514  141.0315  183.0709 C   0  0  0  0  0  0  0  0  0  0  0  0
  154.2781  141.3324  181.9487 N   0  0  0  0  0  0  0  0  0  0  0  0
  153.3353  140.4057  181.7319 C   0  0  0  0  0  0  0  0  0  0  0  0
  152.3681  140.1875  180.7731 C   0  0  0  0  0  0  0  0  0  0  0  0
  151.5216  139.0853  180.8492 C   0  0  0  0  0  0  0  0  0  0  0  0
  150.3445  138.8895  179.5640 Cl  0  0  0  0  0  0  0  0  0  0  0  0
  154.7574  139.3989  184.4750 H   0  0  0  0  0  0  0  0  0  0  0  0
  148.7808  138.1018  183.1145 C   0  0  0  0  0  0  0  0  0  0  0  0
  149.3850  137.0379  182.3053 C   0  0  0  0  0  0  0  0  0  0  0  0
  149.1296  135.7427  183.0872 C   0  0  0  0  0  0  0  0  0  0  0  0
  149.0988  134.6596  182.1504 N   0  0  0  0  0  0  0  0  0  0  0  0
  150.2046  134.7943  181.2787 C   0  0  0  0  0  0  0  0  0  0  0  0
  151.2930  135.7341  181.8613 C   0  0  0  0  0  0  0  0  0  0  0  0
  150.7838  137.0768  182.0350 N   0  0  0  0  0  0  0  0  0  0  0  0
  148.9774  133.4397  182.8764 C   0  0  0  0  0  0  0  0  0  0  0  0
  149.5392  133.4306  184.2558 C   0  0  0  0  0  0  0  0  0  0  0  0
  150.7937  132.7912  184.1989 O   0  0  0  0  0  0  0  0  0  0  0  0
  151.1019  132.6587  183.2757 H   0  0  0  0  0  0  0  0  0  0  0  0
  156.2982  141.9629  183.7753 S   0  0  0  0  0  0  0  0  0  0  0  0
  157.8131  140.9756  183.5468 C   0  0  0  0  0  0  0  0  0  0  0  0
  158.9887  141.9053  183.7098 C   0  0  0  0  0  0  0  0  0  0  0  0
  157.8933  139.9468  184.6578 C   0  0  0  0  0  0  0  0  0  0  0  0
  157.7426  140.3372  182.1933 C   0  0  0  0  0  0  0  0  0  0  0  0
 12 13  1  0  0  0
 13 14  1  0  0  0
 14 15  1  0  0  0
 15 19  1  0  0  0
 19 20  1  0  0  0
 20 21  1  0  0  0
 15 16  1  0  0  0
 16 17  1  0  0  0
 17 18  1  0  0  0
 18  1  1  0  0  0
  1  2  2  0  0  0
  2  3  1  0  0  0
  3  4  1  0  0  0
  4  5  1  0  0  0
  5 23  1  0  0  0
 23 24  1  0  0  0
 24 25  1  0  0  0
 24 26  1  0  0  0
 24 27  1  0  0  0
  5  6  2  0  0  0
  6  7  1  0  0  0
  7  8  1  0  0  0
  8  9  2  0  0  0
  9 10  1  0  0  0
 18 13  1  0  0  0
  9  1  1  0  0  0
  7  3  2  0  0  0
 21 22  1  0  0  0
  4 11  1  0  0  0
M  END
> <minimizedAffinity>
-5.37561

> <CNNscore>
0.4352020025

> <CNNaffinity>
5.7853307724

> <CNN_VS>
2.5177874565

> <CNNaffinity_variance>
0.1085201502

$$$$
[H]OC([H])([H])C([H])([H])N1C([H])([H])C([H])([H])N(c2c(Cl)c([H])c3nc(SC(C([H])([H])[H])(C([H])([H])[H])C([H])([H])[H])n([H])c3c2[H])[C@]([H])(C([H])([H])[H])C1([H])[H]


 27 29  0  0  0  0  0  0  0  0999 V2000
  154.5798  140.2099  182.9160 C   0  0  0  0  0  0  0  0  0  0  0  0
  153.6826  140.3431  181.8421 C   0  0  0  0  0  0  0  0  0  0  0  0
  152.5729  139.5444  181.7067 C   0  0  0  0  0  0  0  0  0  0  0  0
  151.6085  139.5126  180.7687 N   0  0  0  0  0  0  0  0  0  0  0  0
  150.7653  138.5299  181.1319 C   0  0  0  0  0  0  0  0  0  0  0  0
  151.1931  137.9610  182.2705 N   0  0  0  0  0  0  0  0  0  0  0  0
  152.3220  138.5604  182.6719 C   0  0  0  0  0  0  0  0  0  0  0  0
  153.1924  138.4165  183.7321 C   0  0  0  0  0  0  0  0  0  0  0  0
  154.3125  139.2338  183.8537 C   0  0  0  0  0  0  0  0  0  0  0  0
  155.3665  138.9488  185.2262 Cl  0  0  0  0  0  0  0  0  0  0  0  0
  151.5641  140.1461  179.9385 H   0  0  0  0  0  0  0  0  0  0  0  0
  154.5512  143.2468  183.5477 C   0  0  0  0  0  0  0  0  0  0  0  0
  155.7393  142.3871  183.5758 C   0  0  0  0  0  0  0  0  0  0  0  0
  156.8088  143.1516  182.7848 C   0  0  0  0  0  0  0  0  0  0  0  0
  158.0934  142.7423  183.2686 N   0  0  0  0  0  0  0  0  0  0  0  0
  158.1051  141.3308  183.3593 C   0  0  0  0  0  0  0  0  0  0  0  0
  156.9727  140.6848  182.5181 C   0  0  0  0  0  0  0  0  0  0  0  0
  155.6700  141.0833  183.0043 N   0  0  0  0  0  0  0  0  0  0  0  0
  159.0948  143.3588  182.4642 C   0  0  0  0  0  0  0  0  0  0  0  0
  159.0356  144.8430  182.3539 C   0  0  0  0  0  0  0  0  0  0  0  0
  159.9445  145.3748  183.2902 O   0  0  0  0  0  0  0  0  0  0  0  0
  160.5330  144.6860  183.6697 H   0  0  0  0  0  0  0  0  0  0  0  0
  149.3067  138.0804  180.2110 S   0  0  0  0  0  0  0  0  0  0  0  0
  147.8654  138.5363  181.2292 C   0  0  0  0  0  0  0  0  0  0  0  0
  147.4306  137.3018  181.9776 C   0  0  0  0  0  0  0  0  0  0  0  0
  148.3038  139.5585  182.2598 C   0  0  0  0  0  0  0  0  0  0  0  0
  146.8115  139.0783  180.3126 C   0  0  0  0  0  0  0  0  0  0  0  0
 12 13  1  0  0  0
 13 14  1  0  0  0
 14 15  1  0  0  0
 15 19  1  0  0  0
 19 20  1  0  0  0
 20 21  1  0  0  0
 15 16  1  0  0  0
 16 17  1  0  0  0
 17 18  1  0  0  0
 18  1  1  0  0  0
  1  2  2  0  0  0
  2  3  1  0  0  0
  3  4  1  0  0  0
  4  5  1  0  0  0
  5 23  1  0  0  0
 23 24  1  0  0  0
 24 25  1  0  0  0
 24 26  1  0  0  0
 24 27  1  0  0  0
  5  6  2  0  0  0
  6  7  1  0  0  0
  7  8  1  0  0  0
  8  9  2  0  0  0
  9 10  1  0  0  0
 18 13  1  0  0  0
  9  1  1  0  0  0
  7  3  2  0  0  0
 21 22  1  0  0  0
  4 11  1  0  0  0
M  END
> <minimizedAffinity>
-6.82905

> <CNNscore>
0.4125570059

> <CNNaffinity>
6.4086012840

> <CNN_VS>
2.6439132690

> <CNNaffinity_variance>
0.0215621442

$$$$
[H]OC([H])([H])C([H])([H])N1C([H])([H])C([H])([H])N(c2c(Cl)c([H])c3nc(SC(C([H])([H])[H])(C([H])([H])[H])C([H])([H])[H])n([H])c3c2[H])[C@]([H])(C([H])([H])[H])C1([H])[H]


 27 29  0  0  0  0  0  0  0  0999 V2000
  155.4074  138.2875  186.3788 C   0  0  0  0  0  0  0  0  0  0  0  0
  156.5517  138.7492  185.7054 C   0  0  0  0  0  0  0  0  0  0  0  0
  156.4788  139.4522  184.5271 C   0  0  0  0  0  0  0  0  0  0  0  0
  157.4388  139.9723  183.7405 N   0  0  0  0  0  0  0  0  0  0  0  0
  156.8023  140.5582  182.7108 C   0  0  0  0  0  0  0  0  0  0  0  0
  155.4754  140.4074  182.8510 N   0  0  0  0  0  0  0  0  0  0  0  0
  155.2205  139.7214  183.9732 C   0  0  0  0  0  0  0  0  0  0  0  0
  154.0876  139.2755  184.6212 C   0  0  0  0  0  0  0  0  0  0  0  0
  154.1793  138.5640  185.8140 C   0  0  0  0  0  0  0  0  0  0  0  0
  152.6779  138.0223  186.5408 Cl  0  0  0  0  0  0  0  0  0  0  0  0
  158.4644  139.9091  183.9316 H   0  0  0  0  0  0  0  0  0  0  0  0
  155.3661  135.2256  186.8740 C   0  0  0  0  0  0  0  0  0  0  0  0
  155.8465  136.2313  187.8276 C   0  0  0  0  0  0  0  0  0  0  0  0
  155.1815  135.8711  189.1625 C   0  0  0  0  0  0  0  0  0  0  0  0
  156.0230  136.3487  190.2186 N   0  0  0  0  0  0  0  0  0  0  0  0
  156.4070  137.6758  189.9153 C   0  0  0  0  0  0  0  0  0  0  0  0
  155.4816  138.3196  188.8492 C   0  0  0  0  0  0  0  0  0  0  0  0
  155.5601  137.6076  187.5926 N   0  0  0  0  0  0  0  0  0  0  0  0
  155.3605  136.1221  191.4595 C   0  0  0  0  0  0  0  0  0  0  0  0
  153.8722  136.0820  191.4187 C   0  0  0  0  0  0  0  0  0  0  0  0
  153.4009  137.3223  191.8933 O   0  0  0  0  0  0  0  0  0  0  0  0
  154.1193  137.9877  191.9716 H   0  0  0  0  0  0  0  0  0  0  0  0
  157.6335  141.4001  181.3774 S   0  0  0  0  0  0  0  0  0  0  0  0
  157.9943  143.0921  181.9509 C   0  0  0  0  0  0  0  0  0  0  0  0
  158.8727  142.9793  183.1710 C   0  0  0  0  0  0  0  0  0  0  0  0
  158.7970  143.8058  180.8806 C   0  0  0  0  0  0  0  0  0  0  0  0
  156.6866  143.7719  182.2201 C   0  0  0  0  0  0  0  0  0  0  0  0
 12 13  1  0  0  0
 13 14  1  0  0  0
 14 15  1  0  0  0
 15 19  1  0  0  0
 19 20  1  0  0  0
 20 21  1  0  0  0
 15 16  1  0  0  0
 16 17  1  0  0  0
 17 18  1  0  0  0
 18  1  1  0  0  0
  1  2  2  0  0  0
  2  3  1  0  0  0
  3  4  1  0  0  0
  4  5  1  0  0  0
  5 23  1  0  0  0
 23 24  1  0  0  0
 24 25  1  0  0  0
 24 26  1  0  0  0
 24 27  1  0  0  0
  5  6  2  0  0  0
  6  7  1  0  0  0
  7  8  1  0  0  0
  8  9  2  0  0  0
  9 10  1  0  0  0
 18 13  1  0  0  0
  9  1  1  0  0  0
  7  3  2  0  0  0
 21 22  1  0  0  0
  4 11  1  0  0  0
M  END
> <minimizedAffinity>
-6.32494

> <CNNscore>
0.3104564846

> <CNNaffinity>
6.0513353348

> <CNN_VS>
1.8786762953

> <CNNaffinity_variance>
0.0013806020

$$$$
[H]OC([H])([H])C([H])([H])N1C([H])([H])C([H])([H])N(c2c(Cl)c([H])c3nc(SC(C([H])([H])[H])(C([H])([H])[H])C([H])([H])[H])n([H])c3c2[H])[C@]([H])(C([H])([H])[H])C1([H])[H]


 27 29  0  0  0  0  0  0  0  0999 V2000
  152.6106  139.3349  182.3441 C   0  0  0  0  0  0  0  0  0  0  0  0
  152.9805  140.6095  181.8810 C   0  0  0  0  0  0  0  0  0  0  0  0
  154.1187  141.2474  182.3116 C   0  0  0  0  0  0  0  0  0  0  0  0
  154.6398  142.4473  181.9960 N   0  0  0  0  0  0  0  0  0  0  0  0
  155.7704  142.5651  182.7146 C   0  0  0  0  0  0  0  0  0  0  0  0
  155.9512  141.4642  183.4619 N   0  0  0  0  0  0  0  0  0  0  0  0
  154.9439  140.6079  183.2458 C   0  0  0  0  0  0  0  0  0  0  0  0
  154.5954  139.3569  183.7105 C   0  0  0  0  0  0  0  0  0  0  0  0
  153.4384  138.7250  183.2642 C   0  0  0  0  0  0  0  0  0  0  0  0
  153.0766  137.1471  183.9388 Cl  0  0  0  0  0  0  0  0  0  0  0  0
  154.2150  143.1218  181.3199 H   0  0  0  0  0  0  0  0  0  0  0  0
  151.4319  139.5793  179.4852 C   0  0  0  0  0  0  0  0  0  0  0  0
  151.0434  138.5720  180.4782 C   0  0  0  0  0  0  0  0  0  0  0  0
  149.5092  138.5837  180.4851 C   0  0  0  0  0  0  0  0  0  0  0  0
  149.0592  137.2889  180.9007 N   0  0  0  0  0  0  0  0  0  0  0  0
  149.8033  136.9044  182.0405 C   0  0  0  0  0  0  0  0  0  0  0  0
  150.4932  138.1164  182.7204 C   0  0  0  0  0  0  0  0  0  0  0  0
  151.4541  138.7344  181.8333 N   0  0  0  0  0  0  0  0  0  0  0  0
  147.6399  137.3230  181.0216 C   0  0  0  0  0  0  0  0  0  0  0  0
  147.0451  138.6061  181.4886 C   0  0  0  0  0  0  0  0  0  0  0  0
  147.0436  138.5853  182.8976 O   0  0  0  0  0  0  0  0  0  0  0  0
  147.5793  137.8456  183.2591 H   0  0  0  0  0  0  0  0  0  0  0  0
  156.8425  143.9881  182.6554 S   0  0  0  0  0  0  0  0  0  0  0  0
  158.3918  143.4618  181.8526 C   0  0  0  0  0  0  0  0  0  0  0  0
  159.1830  142.6751  182.8666 C   0  0  0  0  0  0  0  0  0  0  0  0
  158.0521  142.5192  180.7144 C   0  0  0  0  0  0  0  0  0  0  0  0
  159.0982  144.6925  181.3718 C   0  0  0  0  0  0  0  0  0  0  0  0
 12 13  1  0  0  0
 13 14  1  0  0  0
 14 15  1  0  0  0
 15 19  1  0  0  0
 19 20  1  0  0  0
 20 21  1  0  0  0
 15 16  1  0  0  0
 16 17  1  0  0  0
 17 18  1  0  0  0
 18  1  1  0  0  0
  1  2  2  0  0  0
  2  3  1  0  0  0
  3  4  1  0  0  0
  4  5  1  0  0  0
  5 23  1  0  0  0
 23 24  1  0  0  0
 24 25  1  0  0  0
 24 26  1  0  0  0
 24 27  1  0  0  0
  5  6  2  0  0  0
  6  7  1  0  0  0
  7  8  1  0  0  0
  8  9  2  0  0  0
  9 10  1  0  0  0
 18 13  1  0  0  0
  9  1  1  0  0  0
  7  3  2  0  0  0
 21 22  1  0  0  0
  4 11  1  0  0  0
M  END
> <minimizedAffinity>
-6.35547

> <CNNscore>
0.3000557125

> <CNNaffinity>
6.0352416039

> <CNN_VS>
1.8109086752

> <CNNaffinity_variance>
0.0594624877

$$$$
[H]OC([H])([H])C([H])([H])N1C([H])([H])C([H])([H])N(c2c(Cl)c([H])c3nc(SC(C([H])([H])[H])(C([H])([H])[H])C([H])([H])[H])n([H])c3c2[H])[C@]([H])(C([H])([H])[H])C1([H])[H]


 27 29  0  0  0  0  0  0  0  0999 V2000
  149.5575  136.2004  187.0514 C   0  0  0  0  0  0  0  0  0  0  0  0
  150.9507  136.3038  186.8954 C   0  0  0  0  0  0  0  0  0  0  0  0
  151.8286  136.0145  187.9119 C   0  0  0  0  0  0  0  0  0  0  0  0
  153.1729  136.0500  187.9639 N   0  0  0  0  0  0  0  0  0  0  0  0
  153.5097  135.6670  189.2082 C   0  0  0  0  0  0  0  0  0  0  0  0
  152.4014  135.3984  189.9172 N   0  0  0  0  0  0  0  0  0  0  0  0
  151.3215  135.6006  189.1506 C   0  0  0  0  0  0  0  0  0  0  0  0
  149.9569  135.4939  189.3204 C   0  0  0  0  0  0  0  0  0  0  0  0
  149.0814  135.7915  188.2801 C   0  0  0  0  0  0  0  0  0  0  0  0
  147.3653  135.6468  188.6116 Cl  0  0  0  0  0  0  0  0  0  0  0  0
  153.7924  136.3271  187.1689 H   0  0  0  0  0  0  0  0  0  0  0  0
  148.7585  134.3107  184.7248 C   0  0  0  0  0  0  0  0  0  0  0  0
  148.0996  135.5806  185.0489 C   0  0  0  0  0  0  0  0  0  0  0  0
  147.9830  136.3264  183.7132 C   0  0  0  0  0  0  0  0  0  0  0  0
  146.8604  137.2120  183.7980 N   0  0  0  0  0  0  0  0  0  0  0  0
  146.9318  137.9033  185.0300 C   0  0  0  0  0  0  0  0  0  0  0  0
  148.3529  137.8417  185.6497 C   0  0  0  0  0  0  0  0  0  0  0  0
  148.7279  136.4794  185.9592 N   0  0  0  0  0  0  0  0  0  0  0  0
  146.8115  137.9924  182.6069 C   0  0  0  0  0  0  0  0  0  0  0  0
  148.1207  138.3338  181.9841 C   0  0  0  0  0  0  0  0  0  0  0  0
  148.3904  139.6856  182.2770 O   0  0  0  0  0  0  0  0  0  0  0  0
  147.7784  140.0485  182.9542 H   0  0  0  0  0  0  0  0  0  0  0  0
  155.1901  135.5464  189.7908 S   0  0  0  0  0  0  0  0  0  0  0  0
  155.5157  137.0253  190.8051 C   0  0  0  0  0  0  0  0  0  0  0  0
  156.0161  138.1068  189.8815 C   0  0  0  0  0  0  0  0  0  0  0  0
  154.2045  137.5063  191.3956 C   0  0  0  0  0  0  0  0  0  0  0  0
  156.5035  136.6440  191.8650 C   0  0  0  0  0  0  0  0  0  0  0  0
 12 13  1  0  0  0
 13 14  1  0  0  0
 14 15  1  0  0  0
 15 19  1  0  0  0
 19 20  1  0  0  0
 20 21  1  0  0  0
 15 16  1  0  0  0
 16 17  1  0  0  0
 17 18  1  0  0  0
 18  1  1  0  0  0
  1  2  2  0  0  0
  2  3  1  0  0  0
  3  4  1  0  0  0
  4  5  1  0  0  0
  5 23  1  0  0  0
 23 24  1  0  0  0
 24 25  1  0  0  0
 24 26  1  0  0  0
 24 27  1  0  0  0
  5  6  2  0  0  0
  6  7  1  0  0  0
  7  8  1  0  0  0
  8  9  2  0  0  0
  9 10  1  0  0  0
 18 13  1  0  0  0
  9  1  1  0  0  0
  7  3  2  0  0  0
 21 22  1  0  0  0
  4 11  1  0  0  0
M  END
> <minimizedAffinity>
-3.98317

> <CNNscore>
0.2960093021

> <CNNaffinity>
5.2367277145

> <CNN_VS>
1.5501201153

> <CNNaffinity_variance>
0.1398882121

$$$$
[H]OC([H])([H])C([H])([H])N1C([H])([H])C([H])([H])N(c2c(Cl)c([H])c3nc(SC(C([H])([H])[H])(C([H])([H])[H])C([H])([H])[H])n([H])c3c2[H])[C@]([H])(C([H])([H])[H])C1([H])[H]


 27 29  0  0  0  0  0  0  0  0999 V2000
  150.4365  138.1704  181.8607 C   0  0  0  0  0  0  0  0  0  0  0  0
  151.5907  138.2763  182.6560 C   0  0  0  0  0  0  0  0  0  0  0  0
  152.6083  139.1519  182.3635 C   0  0  0  0  0  0  0  0  0  0  0  0
  153.7747  139.4008  182.9867 N   0  0  0  0  0  0  0  0  0  0  0  0
  154.3875  140.3568  182.2663 C   0  0  0  0  0  0  0  0  0  0  0  0
  153.6215  140.6972  181.2172 N   0  0  0  0  0  0  0  0  0  0  0  0
  152.4958  139.9711  181.2326 C   0  0  0  0  0  0  0  0  0  0  0  0
  151.3697  139.8797  180.4415 C   0  0  0  0  0  0  0  0  0  0  0  0
  150.3482  138.9867  180.7519 C   0  0  0  0  0  0  0  0  0  0  0  0
  148.9730  138.9338  179.6648 Cl  0  0  0  0  0  0  0  0  0  0  0  0
  154.0991  138.9212  183.8569 H   0  0  0  0  0  0  0  0  0  0  0  0
  147.7886  138.8028  183.3477 C   0  0  0  0  0  0  0  0  0  0  0  0
  148.0868  137.5505  182.6446 C   0  0  0  0  0  0  0  0  0  0  0  0
  147.6931  136.4357  183.6225 C   0  0  0  0  0  0  0  0  0  0  0  0
  147.3530  135.2747  182.8556 N   0  0  0  0  0  0  0  0  0  0  0  0
  148.3531  135.0817  181.8741 C   0  0  0  0  0  0  0  0  0  0  0  0
  149.6568  135.8514  182.2133 C   0  0  0  0  0  0  0  0  0  0  0  0
  149.4268  137.2792  182.2419 N   0  0  0  0  0  0  0  0  0  0  0  0
  147.0971  134.1999  183.7553 C   0  0  0  0  0  0  0  0  0  0  0  0
  147.7945  134.2559  185.0701 C   0  0  0  0  0  0  0  0  0  0  0  0
  146.8124  134.1586  186.0760 O   0  0  0  0  0  0  0  0  0  0  0  0
  145.9359  133.8996  185.7160 H   0  0  0  0  0  0  0  0  0  0  0  0
  155.9803  141.0440  182.6769 S   0  0  0  0  0  0  0  0  0  0  0  0
  155.7206  142.8028  183.0782 C   0  0  0  0  0  0  0  0  0  0  0  0
  157.0032  143.3258  183.6737 C   0  0  0  0  0  0  0  0  0  0  0  0
  155.4778  143.5634  181.7892 C   0  0  0  0  0  0  0  0  0  0  0  0
  154.5521  142.8907  184.0117 C   0  0  0  0  0  0  0  0  0  0  0  0
 12 13  1  0  0  0
 13 14  1  0  0  0
 14 15  1  0  0  0
 15 19  1  0  0  0
 19 20  1  0  0  0
 20 21  1  0  0  0
 15 16  1  0  0  0
 16 17  1  0  0  0
 17 18  1  0  0  0
 18  1  1  0  0  0
  1  2  2  0  0  0
  2  3  1  0  0  0
  3  4  1  0  0  0
  4  5  1  0  0  0
  5 23  1  0  0  0
 23 24  1  0  0  0
 24 25  1  0  0  0
 24 26  1  0  0  0
 24 27  1  0  0  0
  5  6  2  0  0  0
  6  7  1  0  0  0
  7  8  1  0  0  0
  8  9  2  0  0  0
  9 10  1  0  0  0
 18 13  1  0  0  0
  9  1  1  0  0  0
  7  3  2  0  0  0
 21 22  1  0  0  0
  4 11  1  0  0  0
M  END
> <minimizedAffinity>
-4.25017

> <CNNscore>
0.2821038663

> <CNNaffinity>
5.6703786850

> <CNN_VS>
1.5996357203

> <CNNaffinity_variance>
0.0825559869

$$$$
[H]OC([H])([H])C([H])([H])N1C([H])([H])C([H])([H])N(c2c(Cl)c([H])c3nc(SC(C([H])([H])[H])(C([H])([H])[H])C([H])([H])[H])n([H])c3c2[H])[C@]([H])(C([H])([H])[H])C1([H])[H]


 27 29  0  0  0  0  0  0  0  0999 V2000
  153.6780  137.7450  185.7383 C   0  0  0  0  0  0  0  0  0  0  0  0
  152.4619  137.2195  185.2683 C   0  0  0  0  0  0  0  0  0  0  0  0
  152.0535  137.3622  183.9642 C   0  0  0  0  0  0  0  0  0  0  0  0
  150.9451  136.9413  183.3278 N   0  0  0  0  0  0  0  0  0  0  0  0
  151.0628  137.3590  182.0549 C   0  0  0  0  0  0  0  0  0  0  0  0
  152.2182  138.0255  181.8999 N   0  0  0  0  0  0  0  0  0  0  0  0
  152.8759  138.0557  183.0667 C   0  0  0  0  0  0  0  0  0  0  0  0
  154.0724  138.5776  183.5117 C   0  0  0  0  0  0  0  0  0  0  0  0
  154.4709  138.4244  184.8365 C   0  0  0  0  0  0  0  0  0  0  0  0
  155.9984  139.1493  185.3022 Cl  0  0  0  0  0  0  0  0  0  0  0  0
  150.1712  136.3994  183.7749 H   0  0  0  0  0  0  0  0  0  0  0  0
  155.1766  135.3105  186.9425 C   0  0  0  0  0  0  0  0  0  0  0  0
  154.9740  136.5979  187.6156 C   0  0  0  0  0  0  0  0  0  0  0  0
  154.4655  136.2431  189.0191 C   0  0  0  0  0  0  0  0  0  0  0  0
  154.8331  137.3074  189.9045 N   0  0  0  0  0  0  0  0  0  0  0  0
  154.5036  138.5352  189.2844 C   0  0  0  0  0  0  0  0  0  0  0  0
  153.4865  138.3479  188.1278 C   0  0  0  0  0  0  0  0  0  0  0  0
  154.0421  137.5294  187.0725 N   0  0  0  0  0  0  0  0  0  0  0  0
  154.2668  137.0435  191.1850 C   0  0  0  0  0  0  0  0  0  0  0  0
  153.1300  136.0820  191.2216 C   0  0  0  0  0  0  0  0  0  0  0  0
  151.9562  136.8215  191.4690 O   0  0  0  0  0  0  0  0  0  0  0  0
  152.1017  137.7892  191.3840 H   0  0  0  0  0  0  0  0  0  0  0  0
  149.8436  137.0527  180.7910 S   0  0  0  0  0  0  0  0  0  0  0  0
  149.1923  138.6724  180.2674 C   0  0  0  0  0  0  0  0  0  0  0  0
  147.9147  138.4226  179.5068 C   0  0  0  0  0  0  0  0  0  0  0  0
  148.8328  139.4731  181.5040 C   0  0  0  0  0  0  0  0  0  0  0  0
  150.2500  139.3471  179.4485 C   0  0  0  0  0  0  0  0  0  0  0  0
 12 13  1  0  0  0
 13 14  1  0  0  0
 14 15  1  0  0  0
 15 19  1  0  0  0
 19 20  1  0  0  0
 20 21  1  0  0  0
 15 16  1  0  0  0
 16 17  1  0  0  0
 17 18  1  0  0  0
 18  1  1  0  0  0
  1  2  2  0  0  0
  2  3  1  0  0  0
  3  4  1  0  0  0
  4  5  1  0  0  0
  5 23  1  0  0  0
 23 24  1  0  0  0
 24 25  1  0  0  0
 24 26  1  0  0  0
 24 27  1  0  0  0
  5  6  2  0  0  0
  6  7  1  0  0  0
  7  8  1  0  0  0
  8  9  2  0  0  0
  9 10  1  0  0  0
 18 13  1  0  0  0
  9  1  1  0  0  0
  7  3  2  0  0  0
 21 22  1  0  0  0
  4 11  1  0  0  0
M  END
> <minimizedAffinity>
-5.06155

> <CNNscore>
0.2756341994

> <CNNaffinity>
5.3533811569

> <CNN_VS>
1.4755749702

> <CNNaffinity_variance>
0.0915990546

$$$$
[H]OC([H])([H])C([H])([H])N1C([H])([H])C([H])([H])N(c2c(Cl)c([H])c3nc(SC(C([H])([H])[H])(C([H])([H])[H])C([H])([H])[H])n([H])c3c2[H])[C@]([H])(C([H])([H])[H])C1([H])[H]


 27 29  0  0  0  0  0  0  0  0999 V2000
  156.0066  139.7406  184.3142 C   0  0  0  0  0  0  0  0  0  0  0  0
  156.5340  139.1622  185.4818 C   0  0  0  0  0  0  0  0  0  0  0  0
  155.7841  138.3636  186.3110 C   0  0  0  0  0  0  0  0  0  0  0  0
  156.0965  137.7268  187.4545 N   0  0  0  0  0  0  0  0  0  0  0  0
  154.9794  137.0873  187.8441 C   0  0  0  0  0  0  0  0  0  0  0  0
  153.9920  137.3195  186.9642 N   0  0  0  0  0  0  0  0  0  0  0  0
  154.4448  138.1135  185.9848 C   0  0  0  0  0  0  0  0  0  0  0  0
  153.9117  138.6735  184.8426 C   0  0  0  0  0  0  0  0  0  0  0  0
  154.6853  139.4808  184.0138 C   0  0  0  0  0  0  0  0  0  0  0  0
  153.9011  140.1623  182.6009 Cl  0  0  0  0  0  0  0  0  0  0  0  0
  157.0355  137.7524  187.9131 H   0  0  0  0  0  0  0  0  0  0  0  0
  155.8186  142.7803  183.7246 C   0  0  0  0  0  0  0  0  0  0  0  0
  156.9808  141.9323  183.4383 C   0  0  0  0  0  0  0  0  0  0  0  0
  157.3771  142.2662  181.9941 C   0  0  0  0  0  0  0  0  0  0  0  0
  158.7778  142.0041  181.8484 N   0  0  0  0  0  0  0  0  0  0  0  0
  159.0555  140.7408  182.4208 C   0  0  0  0  0  0  0  0  0  0  0  0
  157.7726  139.8848  182.5907 C   0  0  0  0  0  0  0  0  0  0  0  0
  156.8421  140.5153  183.5012 N   0  0  0  0  0  0  0  0  0  0  0  0
  159.1328  142.2005  180.4825 C   0  0  0  0  0  0  0  0  0  0  0  0
  158.0295  142.5882  179.5601 C   0  0  0  0  0  0  0  0  0  0  0  0
  157.5834  141.4168  178.9160 O   0  0  0  0  0  0  0  0  0  0  0  0
  157.9496  140.6037  179.3278 H   0  0  0  0  0  0  0  0  0  0  0  0
  154.8673  136.0893  189.3169 S   0  0  0  0  0  0  0  0  0  0  0  0
  154.9179  137.2247  190.7418 C   0  0  0  0  0  0  0  0  0  0  0  0
  156.2924  137.1236  191.3530 C   0  0  0  0  0  0  0  0  0  0  0  0
  154.7514  138.6445  190.2363 C   0  0  0  0  0  0  0  0  0  0  0  0
  153.8189  136.8294  191.6802 C   0  0  0  0  0  0  0  0  0  0  0  0
 12 13  1  0  0  0
 13 14  1  0  0  0
 14 15  1  0  0  0
 15 19  1  0  0  0
 19 20  1  0  0  0
 20 21  1  0  0  0
 15 16  1  0  0  0
 16 17  1  0  0  0
 17 18  1  0  0  0
 18  1  1  0  0  0
  1  2  2  0  0  0
  2  3  1  0  0  0
  3  4  1  0  0  0
  4  5  1  0  0  0
  5 23  1  0  0  0
 23 24  1  0  0  0
 24 25  1  0  0  0
 24 26  1  0  0  0
 24 27  1  0  0  0
  5  6  2  0  0  0
  6  7  1  0  0  0
  7  8  1  0  0  0
  8  9  2  0  0  0
  9 10  1  0  0  0
 18 13  1  0  0  0
  9  1  1  0  0  0
  7  3  2  0  0  0
 21 22  1  0  0  0
  4 11  1  0  0  0
M  END
> <minimizedAffinity>
-7.39981

> <CNNscore>
0.2625541389

> <CNNaffinity>
6.1625227928

> <CNN_VS>
1.6179958582

> <CNNaffinity_variance>
0.0566204488

$$$$
[H]OC([H])([H])C([H])([H])N1C([H])([H])C([H])([H])N(c2c(Cl)c([H])c3nc(SC(C([H])([H])[H])(C([H])([H])[H])C([H])([H])[H])n([H])c3c2[H])[C@]([H])(C([H])([H])[H])C1([H])[H]


 27 29  0  0  0  0  0  0  0  0999 V2000
  155.9008  140.6035  183.6223 C   0  0  0  0  0  0  0  0  0  0  0  0
  156.4508  139.9180  184.7193 C   0  0  0  0  0  0  0  0  0  0  0  0
  155.7660  138.9344  185.3912 C   0  0  0  0  0  0  0  0  0  0  0  0
  156.1095  138.1730  186.4462 N   0  0  0  0  0  0  0  0  0  0  0  0
  155.0564  137.3726  186.6888 C   0  0  0  0  0  0  0  0  0  0  0  0
  154.0777  137.6283  185.8057 N   0  0  0  0  0  0  0  0  0  0  0  0
  154.4724  138.5988  184.9709 C   0  0  0  0  0  0  0  0  0  0  0  0
  153.9180  139.2618  183.8961 C   0  0  0  0  0  0  0  0  0  0  0  0
  154.6254  140.2563  183.2269 C   0  0  0  0  0  0  0  0  0  0  0  0
  153.8167  141.0527  181.8899 Cl  0  0  0  0  0  0  0  0  0  0  0  0
  157.0253  138.2275  186.9470 H   0  0  0  0  0  0  0  0  0  0  0  0
  158.3216  140.1596  181.7340 C   0  0  0  0  0  0  0  0  0  0  0  0
  157.5788  141.4163  181.8776 C   0  0  0  0  0  0  0  0  0  0  0  0
  158.6507  142.5007  182.0481 C   0  0  0  0  0  0  0  0  0  0  0  0
  158.1064  143.7384  181.5751 N   0  0  0  0  0  0  0  0  0  0  0  0
  156.8074  143.8878  182.1149 C   0  0  0  0  0  0  0  0  0  0  0  0
  156.5772  142.9641  183.3401 C   0  0  0  0  0  0  0  0  0  0  0  0
  156.6728  141.5699  182.9671 N   0  0  0  0  0  0  0  0  0  0  0  0
  159.0503  144.7737  181.8346 C   0  0  0  0  0  0  0  0  0  0  0  0
  159.8252  144.6618  183.1016 C   0  0  0  0  0  0  0  0  0  0  0  0
  160.2961  145.9497  183.4262 O   0  0  0  0  0  0  0  0  0  0  0  0
  159.8784  146.6479  182.8759 H   0  0  0  0  0  0  0  0  0  0  0  0
  155.0067  136.1642  187.9985 S   0  0  0  0  0  0  0  0  0  0  0  0
  155.0538  137.0771  189.5753 C   0  0  0  0  0  0  0  0  0  0  0  0
  156.5005  137.3600  189.8919 C   0  0  0  0  0  0  0  0  0  0  0  0
  154.3637  138.4134  189.3826 C   0  0  0  0  0  0  0  0  0  0  0  0
  154.3717  136.2361  190.6107 C   0  0  0  0  0  0  0  0  0  0  0  0
 12 13  1  0  0  0
 13 14  1  0  0  0
 14 15  1  0  0  0
 15 19  1  0  0  0
 19 20  1  0  0  0
 20 21  1  0  0  0
 15 16  1  0  0  0
 16 17  1  0  0  0
 17 18  1  0  0  0
 18  1  1  0  0  0
  1  2  2  0  0  0
  2  3  1  0  0  0
  3  4  1  0  0  0
  4  5  1  0  0  0
  5 23  1  0  0  0
 23 24  1  0  0  0
 24 25  1  0  0  0
 24 26  1  0  0  0
 24 27  1  0  0  0
  5  6  2  0  0  0
  6  7  1  0  0  0
  7  8  1  0  0  0
  8  9  2  0  0  0
  9 10  1  0  0  0
 18 13  1  0  0  0
  9  1  1  0  0  0
  7  3  2  0  0  0
 21 22  1  0  0  0
  4 11  1  0  0  0
M  END
> <minimizedAffinity>
-7.17398

> <CNNscore>
0.2468638420

> <CNNaffinity>
6.2996783257

> <CNN_VS>
1.5551627874

> <CNNaffinity_variance>
0.0059373481

$$$$
[H]c1nc(N([H])S(=O)(=O)c2c([H])c(Cl)c(N(C([H])([H])[H])[C@]3([H])C([H])([H])N(C([H])([H])c4c([H])c([H])c(Cl)c([H])c4[H])C([H])([H])C3([H])[H])c([H])c2F)c([H])s1


 33 36  0  0  0  0  0  0  0  0999 V2000
  155.3206  140.3502  183.2115 C   0  0  0  0  0  0  0  0  0  0  0  0
  156.4598  139.6260  182.9326 C   0  0  0  0  0  0  0  0  0  0  0  0
  157.6601  140.2430  182.6628 C   0  0  0  0  0  0  0  0  0  0  0  0
  158.7826  139.5128  182.3876 F   0  0  0  0  0  0  0  0  0  0  0  0
  157.7869  141.6351  182.6575 C   0  0  0  0  0  0  0  0  0  0  0  0
  156.6444  142.3498  182.9376 C   0  0  0  0  0  0  0  0  0  0  0  0
  155.4458  141.7238  183.2066 C   0  0  0  0  0  0  0  0  0  0  0  0
  153.9985  142.6802  183.5616 Cl  0  0  0  0  0  0  0  0  0  0  0  0
  159.3417  142.3701  182.3334 S   0  0  0  0  0  0  0  0  0  0  0  0
  159.1918  143.8400  182.6808 O   0  0  0  0  0  0  0  0  0  0  0  0
  159.6980  142.3000  180.8873 O   0  0  0  0  0  0  0  0  0  0  0  0
  160.6030  141.7543  183.3045 N   0  0  0  0  0  0  0  0  0  0  0  0
  161.2383  141.0519  182.8707 H   0  0  0  0  0  0  0  0  0  0  0  0
  160.8119  142.1701  184.6862 C   0  0  0  0  0  0  0  0  0  0  0  0
  162.0622  142.5299  185.1357 C   0  0  0  0  0  0  0  0  0  0  0  0
  161.7428  142.9136  186.7675 S   0  0  0  0  0  0  0  0  0  0  0  0
  160.0656  142.5995  186.7838 C   0  0  0  0  0  0  0  0  0  0  0  0
  159.8394  142.2179  185.5396 N   0  0  0  0  0  0  0  0  0  0  0  0
  153.0856  139.5991  182.4388 C   0  0  0  0  0  0  0  0  0  0  0  0
  154.0711  139.7463  183.4927 N   0  0  0  0  0  0  0  0  0  0  0  0
  153.7461  139.2713  184.7973 C   0  0  0  0  0  0  0  0  0  0  0  0
  153.0890  137.9063  184.8032 C   0  0  0  0  0  0  0  0  0  0  0  0
  153.2850  137.5120  186.2631 C   0  0  0  0  0  0  0  0  0  0  0  0
  154.5825  138.0000  186.6065 N   0  0  0  0  0  0  0  0  0  0  0  0
  154.9948  138.9695  185.6381 C   0  0  0  0  0  0  0  0  0  0  0  0
  155.4840  136.9009  186.7806 C   0  0  0  0  0  0  0  0  0  0  0  0
  155.8090  136.7630  188.2210 C   0  0  0  0  0  0  0  0  0  0  0  0
  156.0744  135.4959  188.7508 C   0  0  0  0  0  0  0  0  0  0  0  0
  156.3882  135.3019  190.0782 C   0  0  0  0  0  0  0  0  0  0  0  0
  156.4492  136.3771  190.9337 C   0  0  0  0  0  0  0  0  0  0  0  0
  156.8496  136.1060  192.6147 Cl  0  0  0  0  0  0  0  0  0  0  0  0
  156.1957  137.6340  190.4527 C   0  0  0  0  0  0  0  0  0  0  0  0
  155.8808  137.8077  189.1091 C   0  0  0  0  0  0  0  0  0  0  0  0
 19 20  1  0  0  0
 20  1  1  0  0  0
  1  2  2  0  0  0
  2  3  1  0  0  0
  3  4  1  0  0  0
  3  5  2  0  0  0
  5  9  1  0  0  0
  9 10  2  0  0  0
  9 11  2  0  0  0
  9 12  1  0  0  0
 12 14  1  0  0  0
 14 15  2  0  0  0
 15 16  1  0  0  0
 16 17  1  0  0  0
 17 18  2  0  0  0
  5  6  1  0  0  0
  6  7  2  0  0  0
  7  8  1  0  0  0
 20 21  1  0  0  0
 21 22  1  0  0  0
 22 23  1  0  0  0
 23 24  1  0  0  0
 24 26  1  0  0  0
 26 27  1  0  0  0
 27 28  2  0  0  0
 28 29  1  0  0  0
 29 30  2  0  0  0
 30 31  1  0  0  0
 30 32  1  0  0  0
 32 33  2  0  0  0
 24 25  1  0  0  0
  7  1  1  0  0  0
 25 21  1  0  0  0
 18 14  1  0  0  0
 33 27  1  0  0  0
 12 13  1  0  0  0
M  END
> <minimizedAffinity>
-8.04528

> <CNNscore>
0.5889501572

> <CNNaffinity>
7.3238143921

> <CNN_VS>
4.3133616447

> <CNNaffinity_variance>
0.0638037696

$$$$
[H]c1nc(N([H])S(=O)(=O)c2c([H])c(Cl)c(N(C([H])([H])[H])[C@]3([H])C([H])([H])N(C([H])([H])c4c([H])c([H])c(Cl)c([H])c4[H])C([H])([H])C3([H])[H])c([H])c2F)c([H])s1


 33 36  0  0  0  0  0  0  0  0999 V2000
  155.6411  139.6812  184.0863 C   0  0  0  0  0  0  0  0  0  0  0  0
  156.9044  139.1306  184.0563 C   0  0  0  0  0  0  0  0  0  0  0  0
  157.9862  139.8303  183.5720 C   0  0  0  0  0  0  0  0  0  0  0  0
  159.2340  139.2723  183.5480 F   0  0  0  0  0  0  0  0  0  0  0  0
  157.8606  141.1348  183.0856 C   0  0  0  0  0  0  0  0  0  0  0  0
  156.5957  141.6764  183.1200 C   0  0  0  0  0  0  0  0  0  0  0  0
  155.5173  140.9684  183.6065 C   0  0  0  0  0  0  0  0  0  0  0  0
  153.9058  141.7016  183.6326 Cl  0  0  0  0  0  0  0  0  0  0  0  0
  159.2721  141.9907  182.5043 S   0  0  0  0  0  0  0  0  0  0  0  0
  159.0127  143.4613  182.7758 O   0  0  0  0  0  0  0  0  0  0  0  0
  159.4415  141.8447  181.0302 O   0  0  0  0  0  0  0  0  0  0  0  0
  160.7081  141.5770  183.3288 N   0  0  0  0  0  0  0  0  0  0  0  0
  161.3768  140.9493  182.8348 H   0  0  0  0  0  0  0  0  0  0  0  0
  161.0185  142.0623  184.6681 C   0  0  0  0  0  0  0  0  0  0  0  0
  162.3011  142.4279  185.0089 C   0  0  0  0  0  0  0  0  0  0  0  0
  162.1018  142.9017  186.6361 S   0  0  0  0  0  0  0  0  0  0  0  0
  160.4268  142.6124  186.7867 C   0  0  0  0  0  0  0  0  0  0  0  0
  160.1093  142.1687  185.5838 N   0  0  0  0  0  0  0  0  0  0  0  0
  153.5351  138.4439  183.6498 C   0  0  0  0  0  0  0  0  0  0  0  0
  154.5081  138.9882  184.5774 N   0  0  0  0  0  0  0  0  0  0  0  0
  154.2901  138.8058  185.9747 C   0  0  0  0  0  0  0  0  0  0  0  0
  152.9119  138.2752  186.3127 C   0  0  0  0  0  0  0  0  0  0  0  0
  153.1473  137.7832  187.7367 C   0  0  0  0  0  0  0  0  0  0  0  0
  154.4602  137.2215  187.7211 N   0  0  0  0  0  0  0  0  0  0  0  0
  155.1588  137.6836  186.5609 C   0  0  0  0  0  0  0  0  0  0  0  0
  154.3804  135.7974  187.8492 C   0  0  0  0  0  0  0  0  0  0  0  0
  155.7521  135.2341  187.8704 C   0  0  0  0  0  0  0  0  0  0  0  0
  156.1068  134.2451  186.9469 C   0  0  0  0  0  0  0  0  0  0  0  0
  157.3657  133.6864  186.9109 C   0  0  0  0  0  0  0  0  0  0  0  0
  158.3260  134.0992  187.8047 C   0  0  0  0  0  0  0  0  0  0  0  0
  159.9171  133.3752  187.7397 Cl  0  0  0  0  0  0  0  0  0  0  0  0
  158.0172  135.0656  188.7245 C   0  0  0  0  0  0  0  0  0  0  0  0
  156.7402  135.6166  188.7437 C   0  0  0  0  0  0  0  0  0  0  0  0
 19 20  1  0  0  0
 20  1  1  0  0  0
  1  2  2  0  0  0
  2  3  1  0  0  0
  3  4  1  0  0  0
  3  5  2  0  0  0
  5  9  1  0  0  0
  9 10  2  0  0  0
  9 11  2  0  0  0
  9 12  1  0  0  0
 12 14  1  0  0  0
 14 15  2  0  0  0
 15 16  1  0  0  0
 16 17  1  0  0  0
 17 18  2  0  0  0
  5  6  1  0  0  0
  6  7  2  0  0  0
  7  8  1  0  0  0
 20 21  1  0  0  0
 21 22  1  0  0  0
 22 23  1  0  0  0
 23 24  1  0  0  0
 24 26  1  0  0  0
 26 27  1  0  0  0
 27 28  2  0  0  0
 28 29  1  0  0  0
 29 30  2  0  0  0
 30 31  1  0  0  0
 30 32  1  0  0  0
 32 33  2  0  0  0
 24 25  1  0  0  0
  7  1  1  0  0  0
 25 21  1  0  0  0
 18 14  1  0  0  0
 33 27  1  0  0  0
 12 13  1  0  0  0
M  END
> <minimizedAffinity>
-7.78770

> <CNNscore>
0.5627353191

> <CNNaffinity>
7.1236701012

> <CNN_VS>
4.0087409019

> <CNNaffinity_variance>
0.0903841481

$$$$
[H]c1nc(N([H])S(=O)(=O)c2c([H])c(Cl)c(N(C([H])([H])[H])[C@]3([H])C([H])([H])N(C([H])([H])c4c([H])c([H])c(Cl)c([H])c4[H])C([H])([H])C3([H])[H])c([H])c2F)c([H])s1


 33 36  0  0  0  0  0  0  0  0999 V2000
  154.3215  140.3265  183.0417 C   0  0  0  0  0  0  0  0  0  0  0  0
  153.3187  140.3870  182.0978 C   0  0  0  0  0  0  0  0  0  0  0  0
  152.3485  139.4146  182.0112 C   0  0  0  0  0  0  0  0  0  0  0  0
  151.3594  139.4867  181.0702 F   0  0  0  0  0  0  0  0  0  0  0  0
  152.3290  138.3157  182.8750 C   0  0  0  0  0  0  0  0  0  0  0  0
  153.3337  138.2641  183.8144 C   0  0  0  0  0  0  0  0  0  0  0  0
  154.3020  139.2424  183.8942 C   0  0  0  0  0  0  0  0  0  0  0  0
  155.5783  139.1383  185.1172 Cl  0  0  0  0  0  0  0  0  0  0  0  0
  151.0585  137.1199  182.7399 S   0  0  0  0  0  0  0  0  0  0  0  0
  151.4087  136.0218  183.7275 O   0  0  0  0  0  0  0  0  0  0  0  0
  151.0277  136.4935  181.3872 O   0  0  0  0  0  0  0  0  0  0  0  0
  149.5174  137.7098  183.1757 N   0  0  0  0  0  0  0  0  0  0  0  0
  149.3314  137.8515  184.1908 H   0  0  0  0  0  0  0  0  0  0  0  0
  148.4809  138.0127  182.1962 C   0  0  0  0  0  0  0  0  0  0  0  0
  148.1752  139.3143  181.8687 C   0  0  0  0  0  0  0  0  0  0  0  0
  146.9359  139.0961  180.7160 S   0  0  0  0  0  0  0  0  0  0  0  0
  146.8790  137.3905  180.7170 C   0  0  0  0  0  0  0  0  0  0  0  0
  147.8113  137.0791  181.5992 N   0  0  0  0  0  0  0  0  0  0  0  0
  154.9902  142.6568  183.5697 C   0  0  0  0  0  0  0  0  0  0  0  0
  155.3339  141.3097  183.1568 N   0  0  0  0  0  0  0  0  0  0  0  0
  156.7002  141.0135  182.8757 C   0  0  0  0  0  0  0  0  0  0  0  0
  157.2250  141.6867  181.6241 C   0  0  0  0  0  0  0  0  0  0  0  0
  158.7274  141.5552  181.8494 C   0  0  0  0  0  0  0  0  0  0  0  0
  158.9104  141.7640  183.2503 N   0  0  0  0  0  0  0  0  0  0  0  0
  157.6550  141.6103  183.9195 C   0  0  0  0  0  0  0  0  0  0  0  0
  159.5622  143.0196  183.4727 C   0  0  0  0  0  0  0  0  0  0  0  0
  160.5018  142.8839  184.6121 C   0  0  0  0  0  0  0  0  0  0  0  0
  161.8156  142.4650  184.3777 C   0  0  0  0  0  0  0  0  0  0  0  0
  162.7377  142.3251  185.3917 C   0  0  0  0  0  0  0  0  0  0  0  0
  162.3779  142.6014  186.6901 C   0  0  0  0  0  0  0  0  0  0  0  0
  163.5659  142.4164  187.9606 Cl  0  0  0  0  0  0  0  0  0  0  0  0
  161.1004  143.0142  186.9602 C   0  0  0  0  0  0  0  0  0  0  0  0
  160.1850  143.1489  185.9216 C   0  0  0  0  0  0  0  0  0  0  0  0
 19 20  1  0  0  0
 20  1  1  0  0  0
  1  2  2  0  0  0
  2  3  1  0  0  0
  3  4  1  0  0  0
  3  5  2  0  0  0
  5  9  1  0  0  0
  9 10  2  0  0  0
  9 11  2  0  0  0
  9 12  1  0  0  0
 12 14  1  0  0  0
 14 15  2  0  0  0
 15 16  1  0  0  0
 16 17  1  0  0  0
 17 18  2  0  0  0
  5  6  1  0  0  0
  6  7  2  0  0  0
  7  8  1  0  0  0
 20 21  1  0  0  0
 21 22  1  0  0  0
 22 23  1  0  0  0
 23 24  1  0  0  0
 24 26  1  0  0  0
 26 27  1  0  0  0
 27 28  2  0  0  0
 28 29  1  0  0  0
 29 30  2  0  0  0
 30 31  1  0  0  0
 30 32  1  0  0  0
 32 33  2  0  0  0
 24 25  1  0  0  0
  7  1  1  0  0  0
 25 21  1  0  0  0
 18 14  1  0  0  0
 33 27  1  0  0  0
 12 13  1  0  0  0
M  END
> <minimizedAffinity>
-8.54423

> <CNNscore>
0.5180126429

> <CNNaffinity>
6.9915285110

> <CNN_VS>
3.6217000484

> <CNNaffinity_variance>
0.1739639342

$$$$
[H]c1nc(N([H])S(=O)(=O)c2c([H])c(Cl)c(N(C([H])([H])[H])[C@]3([H])C([H])([H])N(C([H])([H])c4c([H])c([H])c(Cl)c([H])c4[H])C([H])([H])C3([H])[H])c([H])c2F)c([H])s1


 33 36  0  0  0  0  0  0  0  0999 V2000
  154.1356  140.6449  182.8066 C   0  0  0  0  0  0  0  0  0  0  0  0
  153.2561  140.9774  181.7987 C   0  0  0  0  0  0  0  0  0  0  0  0
  152.1892  140.1701  181.4753 C   0  0  0  0  0  0  0  0  0  0  0  0
  151.3243  140.5117  180.4732 F   0  0  0  0  0  0  0  0  0  0  0  0
  151.9418  138.9719  182.1514 C   0  0  0  0  0  0  0  0  0  0  0  0
  152.8248  138.6485  183.1565 C   0  0  0  0  0  0  0  0  0  0  0  0
  153.8913  139.4627  183.4739 C   0  0  0  0  0  0  0  0  0  0  0  0
  155.0050  139.0098  184.7738 Cl  0  0  0  0  0  0  0  0  0  0  0  0
  150.5566  137.9939  181.7187 S   0  0  0  0  0  0  0  0  0  0  0  0
  149.3492  138.6837  182.3268 O   0  0  0  0  0  0  0  0  0  0  0  0
  150.6283  136.6324  182.3222 O   0  0  0  0  0  0  0  0  0  0  0  0
  150.2845  137.9034  180.0361 N   0  0  0  0  0  0  0  0  0  0  0  0
  151.0854  138.1340  179.4113 H   0  0  0  0  0  0  0  0  0  0  0  0
  148.9990  137.5237  179.4626 C   0  0  0  0  0  0  0  0  0  0  0  0
  148.3297  138.3674  178.6053 C   0  0  0  0  0  0  0  0  0  0  0  0
  146.9316  137.4559  178.2491 S   0  0  0  0  0  0  0  0  0  0  0  0
  147.2733  136.0775  179.1953 C   0  0  0  0  0  0  0  0  0  0  0  0
  148.4389  136.3882  179.7332 N   0  0  0  0  0  0  0  0  0  0  0  0
  155.0236  142.7772  183.7127 C   0  0  0  0  0  0  0  0  0  0  0  0
  155.2423  141.4528  183.1635 N   0  0  0  0  0  0  0  0  0  0  0  0
  156.5841  140.9996  182.9978 C   0  0  0  0  0  0  0  0  0  0  0  0
  157.2210  141.4423  181.6964 C   0  0  0  0  0  0  0  0  0  0  0  0
  158.6936  141.2099  182.0169 C   0  0  0  0  0  0  0  0  0  0  0  0
  158.8392  141.5945  183.3845 N   0  0  0  0  0  0  0  0  0  0  0  0
  157.5489  141.6483  184.0008 C   0  0  0  0  0  0  0  0  0  0  0  0
  159.5988  142.8056  183.4698 C   0  0  0  0  0  0  0  0  0  0  0  0
  160.5023  142.7306  184.6434 C   0  0  0  0  0  0  0  0  0  0  0  0
  161.8526  142.4172  184.4565 C   0  0  0  0  0  0  0  0  0  0  0  0
  162.7437  142.3380  185.5042 C   0  0  0  0  0  0  0  0  0  0  0  0
  162.3147  142.5714  186.7899 C   0  0  0  0  0  0  0  0  0  0  0  0
  163.4646  142.4651  188.1037 Cl  0  0  0  0  0  0  0  0  0  0  0  0
  160.9997  142.8812  187.0138 C   0  0  0  0  0  0  0  0  0  0  0  0
  160.1165  142.9560  185.9418 C   0  0  0  0  0  0  0  0  0  0  0  0
 19 20  1  0  0  0
 20  1  1  0  0  0
  1  2  2  0  0  0
  2  3  1  0  0  0
  3  4  1  0  0  0
  3  5  2  0  0  0
  5  9  1  0  0  0
  9 10  2  0  0  0
  9 11  2  0  0  0
  9 12  1  0  0  0
 12 14  1  0  0  0
 14 15  2  0  0  0
 15 16  1  0  0  0
 16 17  1  0  0  0
 17 18  2  0  0  0
  5  6  1  0  0  0
  6  7  2  0  0  0
  7  8  1  0  0  0
 20 21  1  0  0  0
 21 22  1  0  0  0
 22 23  1  0  0  0
 23 24  1  0  0  0
 24 26  1  0  0  0
 26 27  1  0  0  0
 27 28  2  0  0  0
 28 29  1  0  0  0
 29 30  2  0  0  0
 30 31  1  0  0  0
 30 32  1  0  0  0
 32 33  2  0  0  0
 24 25  1  0  0  0
  7  1  1  0  0  0
 25 21  1  0  0  0
 18 14  1  0  0  0
 33 27  1  0  0  0
 12 13  1  0  0  0
M  END
> <minimizedAffinity>
-8.93777

> <CNNscore>
0.5138385892

> <CNNaffinity>
6.9136171341

> <CNN_VS>
3.5524833202

> <CNNaffinity_variance>
0.2934207022

$$$$
[H]c1nc(N([H])S(=O)(=O)c2c([H])c(Cl)c(N(C([H])([H])[H])[C@]3([H])C([H])([H])N(C([H])([H])c4c([H])c([H])c(Cl)c([H])c4[H])C([H])([H])C3([H])[H])c([H])c2F)c([H])s1


 33 36  0  0  0  0  0  0  0  0999 V2000
  154.1717  140.6643  182.8182 C   0  0  0  0  0  0  0  0  0  0  0  0
  153.3047  140.9758  181.7929 C   0  0  0  0  0  0  0  0  0  0  0  0
  152.2444  140.1596  181.4702 C   0  0  0  0  0  0  0  0  0  0  0  0
  151.3919  140.4804  180.4507 F   0  0  0  0  0  0  0  0  0  0  0  0
  151.9914  138.9732  182.1648 C   0  0  0  0  0  0  0  0  0  0  0  0
  152.8619  138.6708  183.1871 C   0  0  0  0  0  0  0  0  0  0  0  0
  153.9218  139.4938  183.5036 C   0  0  0  0  0  0  0  0  0  0  0  0
  155.0194  139.0679  184.8262 Cl  0  0  0  0  0  0  0  0  0  0  0  0
  150.6147  137.9833  181.7317 S   0  0  0  0  0  0  0  0  0  0  0  0
  150.6689  137.8258  180.2231 O   0  0  0  0  0  0  0  0  0  0  0  0
  149.3239  138.6575  182.0516 O   0  0  0  0  0  0  0  0  0  0  0  0
  150.6665  136.4134  182.3993 N   0  0  0  0  0  0  0  0  0  0  0  0
  150.0855  136.2365  183.2456 H   0  0  0  0  0  0  0  0  0  0  0  0
  151.4783  135.3413  181.8360 C   0  0  0  0  0  0  0  0  0  0  0  0
  150.9028  134.1632  181.4169 C   0  0  0  0  0  0  0  0  0  0  0  0
  152.2635  133.2941  180.8645 S   0  0  0  0  0  0  0  0  0  0  0  0
  153.4659  134.4597  181.1930 C   0  0  0  0  0  0  0  0  0  0  0  0
  152.7619  135.4517  181.7077 N   0  0  0  0  0  0  0  0  0  0  0  0
  155.0411  142.7910  183.7552 C   0  0  0  0  0  0  0  0  0  0  0  0
  155.2714  141.4819  183.1748 N   0  0  0  0  0  0  0  0  0  0  0  0
  156.6172  141.0534  182.9788 C   0  0  0  0  0  0  0  0  0  0  0  0
  157.2338  141.5513  181.6877 C   0  0  0  0  0  0  0  0  0  0  0  0
  158.7128  141.3277  181.9841 C   0  0  0  0  0  0  0  0  0  0  0  0
  158.8683  141.6647  183.3631 N   0  0  0  0  0  0  0  0  0  0  0  0
  157.5842  141.6785  183.9944 C   0  0  0  0  0  0  0  0  0  0  0  0
  159.6126  142.8822  183.4842 C   0  0  0  0  0  0  0  0  0  0  0  0
  160.5228  142.7810  184.6507 C   0  0  0  0  0  0  0  0  0  0  0  0
  161.8650  142.4412  184.4518 C   0  0  0  0  0  0  0  0  0  0  0  0
  162.7619  142.3369  185.4924 C   0  0  0  0  0  0  0  0  0  0  0  0
  162.3470  142.5706  186.7826 C   0  0  0  0  0  0  0  0  0  0  0  0
  163.5040  142.4321  188.0873 Cl  0  0  0  0  0  0  0  0  0  0  0  0
  161.0403  142.9058  187.0182 C   0  0  0  0  0  0  0  0  0  0  0  0
  160.1512  143.0058  185.9532 C   0  0  0  0  0  0  0  0  0  0  0  0
 19 20  1  0  0  0
 20  1  1  0  0  0
  1  2  2  0  0  0
  2  3  1  0  0  0
  3  4  1  0  0  0
  3  5  2  0  0  0
  5  9  1  0  0  0
  9 10  2  0  0  0
  9 11  2  0  0  0
  9 12  1  0  0  0
 12 14  1  0  0  0
 14 15  2  0  0  0
 15 16  1  0  0  0
 16 17  1  0  0  0
 17 18  2  0  0  0
  5  6  1  0  0  0
  6  7  2  0  0  0
  7  8  1  0  0  0
 20 21  1  0  0  0
 21 22  1  0  0  0
 22 23  1  0  0  0
 23 24  1  0  0  0
 24 26  1  0  0  0
 26 27  1  0  0  0
 27 28  2  0  0  0
 28 29  1  0  0  0
 29 30  2  0  0  0
 30 31  1  0  0  0
 30 32  1  0  0  0
 32 33  2  0  0  0
 24 25  1  0  0  0
  7  1  1  0  0  0
 25 21  1  0  0  0
 18 14  1  0  0  0
 33 27  1  0  0  0
 12 13  1  0  0  0
M  END
> <minimizedAffinity>
-8.60407

> <CNNscore>
0.4449617565

> <CNNaffinity>
6.9430108070

> <CNN_VS>
3.0893743038

> <CNNaffinity_variance>
0.0966265276

$$$$
[H]c1nc(N([H])S(=O)(=O)c2c([H])c(Cl)c(N(C([H])([H])[H])[C@]3([H])C([H])([H])N(C([H])([H])c4c([H])c([H])c(Cl)c([H])c4[H])C([H])([H])C3([H])[H])c([H])c2F)c([H])s1


 33 36  0  0  0  0  0  0  0  0999 V2000
  155.2255  138.1256  185.9417 C   0  0  0  0  0  0  0  0  0  0  0  0
  155.7452  138.4198  187.1840 C   0  0  0  0  0  0  0  0  0  0  0  0
  155.7529  137.4933  188.2018 C   0  0  0  0  0  0  0  0  0  0  0  0
  156.2715  137.7982  189.4294 F   0  0  0  0  0  0  0  0  0  0  0  0
  155.2346  136.2066  188.0293 C   0  0  0  0  0  0  0  0  0  0  0  0
  154.7184  135.9218  186.7855 C   0  0  0  0  0  0  0  0  0  0  0  0
  154.7143  136.8559  185.7715 C   0  0  0  0  0  0  0  0  0  0  0  0
  154.0398  136.4496  184.1855 Cl  0  0  0  0  0  0  0  0  0  0  0  0
  155.2914  135.0572  189.3477 S   0  0  0  0  0  0  0  0  0  0  0  0
  154.9194  133.7130  188.7491 O   0  0  0  0  0  0  0  0  0  0  0  0
  154.2745  135.3627  190.3944 O   0  0  0  0  0  0  0  0  0  0  0  0
  156.8439  134.8844  190.0354 N   0  0  0  0  0  0  0  0  0  0  0  0
  156.9997  135.3116  190.9726 H   0  0  0  0  0  0  0  0  0  0  0  0
  157.9297  134.1763  189.3681 C   0  0  0  0  0  0  0  0  0  0  0  0
  158.6003  134.7453  188.3091 C   0  0  0  0  0  0  0  0  0  0  0  0
  159.7307  133.5263  187.9241 S   0  0  0  0  0  0  0  0  0  0  0  0
  159.2926  132.3824  189.1123 C   0  0  0  0  0  0  0  0  0  0  0  0
  158.3048  132.9943  189.7403 N   0  0  0  0  0  0  0  0  0  0  0  0
  153.9832  139.7821  184.5746 C   0  0  0  0  0  0  0  0  0  0  0  0
  155.2022  139.0558  184.8743 N   0  0  0  0  0  0  0  0  0  0  0  0
  156.3553  139.3048  184.0733 C   0  0  0  0  0  0  0  0  0  0  0  0
  156.0915  140.2143  182.8908 C   0  0  0  0  0  0  0  0  0  0  0  0
  157.5160  140.6286  182.5383 C   0  0  0  0  0  0  0  0  0  0  0  0
  158.1765  140.7861  183.7946 N   0  0  0  0  0  0  0  0  0  0  0  0
  157.4152  140.1322  184.8146 C   0  0  0  0  0  0  0  0  0  0  0  0
  158.4391  142.1734  184.0344 C   0  0  0  0  0  0  0  0  0  0  0  0
  159.6970  142.3027  184.8092 C   0  0  0  0  0  0  0  0  0  0  0  0
  159.6385  142.5251  186.1889 C   0  0  0  0  0  0  0  0  0  0  0  0
  160.7699  142.6481  186.9653 C   0  0  0  0  0  0  0  0  0  0  0  0
  162.0138  142.5524  186.3864 C   0  0  0  0  0  0  0  0  0  0  0  0
  163.4358  142.7119  187.3925 Cl  0  0  0  0  0  0  0  0  0  0  0  0
  162.1127  142.3350  185.0379 C   0  0  0  0  0  0  0  0  0  0  0  0
  160.9577  142.2137  184.2724 C   0  0  0  0  0  0  0  0  0  0  0  0
 19 20  1  0  0  0
 20  1  1  0  0  0
  1  2  2  0  0  0
  2  3  1  0  0  0
  3  4  1  0  0  0
  3  5  2  0  0  0
  5  9  1  0  0  0
  9 10  2  0  0  0
  9 11  2  0  0  0
  9 12  1  0  0  0
 12 14  1  0  0  0
 14 15  2  0  0  0
 15 16  1  0  0  0
 16 17  1  0  0  0
 17 18  2  0  0  0
  5  6  1  0  0  0
  6  7  2  0  0  0
  7  8  1  0  0  0
 20 21  1  0  0  0
 21 22  1  0  0  0
 22 23  1  0  0  0
 23 24  1  0  0  0
 24 26  1  0  0  0
 26 27  1  0  0  0
 27 28  2  0  0  0
 28 29  1  0  0  0
 29 30  2  0  0  0
 30 31  1  0  0  0
 30 32  1  0  0  0
 32 33  2  0  0  0
 24 25  1  0  0  0
  7  1  1  0  0  0
 25 21  1  0  0  0
 18 14  1  0  0  0
 33 27  1  0  0  0
 12 13  1  0  0  0
M  END
> <minimizedAffinity>
-7.64265

> <CNNscore>
0.4172528684

> <CNNaffinity>
7.0476708412

> <CNN_VS>
2.9406609535

> <CNNaffinity_variance>
0.0718794689

$$$$
[H]c1nc(N([H])S(=O)(=O)c2c([H])c(Cl)c(N(C([H])([H])[H])[C@]3([H])C([H])([H])N(C([H])([H])c4c([H])c([H])c(Cl)c([H])c4[H])C([H])([H])C3([H])[H])c([H])c2F)c([H])s1


 33 36  0  0  0  0  0  0  0  0999 V2000
  154.5129  139.4177  183.6381 C   0  0  0  0  0  0  0  0  0  0  0  0
  153.4709  139.1270  182.7839 C   0  0  0  0  0  0  0  0  0  0  0  0
  152.7269  137.9767  182.9171 C   0  0  0  0  0  0  0  0  0  0  0  0
  151.6958  137.7005  182.0629 F   0  0  0  0  0  0  0  0  0  0  0  0
  152.9886  137.0438  183.9246 C   0  0  0  0  0  0  0  0  0  0  0  0
  154.0305  137.3428  184.7729 C   0  0  0  0  0  0  0  0  0  0  0  0
  154.7710  138.4972  184.6324 C   0  0  0  0  0  0  0  0  0  0  0  0
  156.1042  138.8443  185.7448 Cl  0  0  0  0  0  0  0  0  0  0  0  0
  151.9967  135.6091  184.0667 S   0  0  0  0  0  0  0  0  0  0  0  0
  150.5577  136.0918  184.0665 O   0  0  0  0  0  0  0  0  0  0  0  0
  152.2188  134.9071  185.3631 O   0  0  0  0  0  0  0  0  0  0  0  0
  152.1619  134.5328  182.7524 N   0  0  0  0  0  0  0  0  0  0  0  0
  151.2862  134.1555  182.3330 H   0  0  0  0  0  0  0  0  0  0  0  0
  153.4573  134.1358  182.2138 C   0  0  0  0  0  0  0  0  0  0  0  0
  153.7938  134.4072  180.9070 C   0  0  0  0  0  0  0  0  0  0  0  0
  155.3644  133.7466  180.8128 S   0  0  0  0  0  0  0  0  0  0  0  0
  155.5003  133.1727  182.4141 C   0  0  0  0  0  0  0  0  0  0  0  0
  154.3366  133.5174  182.9355 N   0  0  0  0  0  0  0  0  0  0  0  0
  154.7302  141.8767  183.8883 C   0  0  0  0  0  0  0  0  0  0  0  0
  155.2973  140.5914  183.5279 N   0  0  0  0  0  0  0  0  0  0  0  0
  156.6462  140.5496  183.0674 C   0  0  0  0  0  0  0  0  0  0  0  0
  156.9094  141.4389  181.8695 C   0  0  0  0  0  0  0  0  0  0  0  0
  158.4314  141.5208  181.9159 C   0  0  0  0  0  0  0  0  0  0  0  0
  158.7555  141.5904  183.3050 N   0  0  0  0  0  0  0  0  0  0  0  0
  157.6281  141.1633  184.0757 C   0  0  0  0  0  0  0  0  0  0  0  0
  159.2433  142.8985  183.6245 C   0  0  0  0  0  0  0  0  0  0  0  0
  160.3205  142.7811  184.6370 C   0  0  0  0  0  0  0  0  0  0  0  0
  160.0404  143.0601  185.9787 C   0  0  0  0  0  0  0  0  0  0  0  0
  160.9951  142.9639  186.9674 C   0  0  0  0  0  0  0  0  0  0  0  0
  162.2773  142.5815  186.6491 C   0  0  0  0  0  0  0  0  0  0  0  0
  163.4722  142.4665  187.9214 Cl  0  0  0  0  0  0  0  0  0  0  0  0
  162.5908  142.2998  185.3461 C   0  0  0  0  0  0  0  0  0  0  0  0
  161.6118  142.4031  184.3634 C   0  0  0  0  0  0  0  0  0  0  0  0
 19 20  1  0  0  0
 20  1  1  0  0  0
  1  2  2  0  0  0
  2  3  1  0  0  0
  3  4  1  0  0  0
  3  5  2  0  0  0
  5  9  1  0  0  0
  9 10  2  0  0  0
  9 11  2  0  0  0
  9 12  1  0  0  0
 12 14  1  0  0  0
 14 15  2  0  0  0
 15 16  1  0  0  0
 16 17  1  0  0  0
 17 18  2  0  0  0
  5  6  1  0  0  0
  6  7  2  0  0  0
  7  8  1  0  0  0
 20 21  1  0  0  0
 21 22  1  0  0  0
 22 23  1  0  0  0
 23 24  1  0  0  0
 24 26  1  0  0  0
 26 27  1  0  0  0
 27 28  2  0  0  0
 28 29  1  0  0  0
 29 30  2  0  0  0
 30 31  1  0  0  0
 30 32  1  0  0  0
 32 33  2  0  0  0
 24 25  1  0  0  0
  7  1  1  0  0  0
 25 21  1  0  0  0
 18 14  1  0  0  0
 33 27  1  0  0  0
 12 13  1  0  0  0
M  END
> <minimizedAffinity>
-7.49850

> <CNNscore>
0.3662174344

> <CNNaffinity>
6.9076271057

> <CNN_VS>
2.5296933651

> <CNNaffinity_variance>
0.1722731739

$$$$
[H]c1nc(N([H])S(=O)(=O)c2c([H])c(Cl)c(N(C([H])([H])[H])[C@]3([H])C([H])([H])N(C([H])([H])c4c([H])c([H])c(Cl)c([H])c4[H])C([H])([H])C3([H])[H])c([H])c2F)c([H])s1


 33 36  0  0  0  0  0  0  0  0999 V2000
  154.3718  140.7715  182.8748 C   0  0  0  0  0  0  0  0  0  0  0  0
  153.4555  141.0231  181.8762 C   0  0  0  0  0  0  0  0  0  0  0  0
  152.4140  140.1613  181.6175 C   0  0  0  0  0  0  0  0  0  0  0  0
  151.5120  140.4227  180.6239 F   0  0  0  0  0  0  0  0  0  0  0  0
  152.2308  138.9868  182.3532 C   0  0  0  0  0  0  0  0  0  0  0  0
  153.1501  138.7444  183.3485 C   0  0  0  0  0  0  0  0  0  0  0  0
  154.1908  139.6128  183.6008 C   0  0  0  0  0  0  0  0  0  0  0  0
  155.3529  139.2636  184.8904 Cl  0  0  0  0  0  0  0  0  0  0  0  0
  150.8754  137.9373  182.0013 S   0  0  0  0  0  0  0  0  0  0  0  0
  151.0686  137.4673  180.5711 O   0  0  0  0  0  0  0  0  0  0  0  0
  149.5787  138.6718  182.0455 O   0  0  0  0  0  0  0  0  0  0  0  0
  150.8211  136.5414  182.9820 N   0  0  0  0  0  0  0  0  0  0  0  0
  151.2118  135.6627  182.5815 H   0  0  0  0  0  0  0  0  0  0  0  0
  150.2588  136.5418  184.3272 C   0  0  0  0  0  0  0  0  0  0  0  0
  148.9962  136.0485  184.5667 C   0  0  0  0  0  0  0  0  0  0  0  0
  148.8491  136.2852  186.2503 S   0  0  0  0  0  0  0  0  0  0  0  0
  150.3763  136.9862  186.5475 C   0  0  0  0  0  0  0  0  0  0  0  0
  150.9174  137.0017  185.3427 N   0  0  0  0  0  0  0  0  0  0  0  0
  155.1995  142.9478  183.7321 C   0  0  0  0  0  0  0  0  0  0  0  0
  155.4539  141.6371  183.1658 N   0  0  0  0  0  0  0  0  0  0  0  0
  156.8051  141.2560  182.9163 C   0  0  0  0  0  0  0  0  0  0  0  0
  157.3917  141.8740  181.6637 C   0  0  0  0  0  0  0  0  0  0  0  0
  158.8793  141.6584  181.9203 C   0  0  0  0  0  0  0  0  0  0  0  0
  159.0487  141.8817  183.3206 N   0  0  0  0  0  0  0  0  0  0  0  0
  157.7744  141.8145  183.9680 C   0  0  0  0  0  0  0  0  0  0  0  0
  159.7695  143.1007  183.5340 C   0  0  0  0  0  0  0  0  0  0  0  0
  160.7345  142.9065  184.6433 C   0  0  0  0  0  0  0  0  0  0  0  0
  160.3338  143.1595  185.9593 C   0  0  0  0  0  0  0  0  0  0  0  0
  161.1802  142.9926  187.0335 C   0  0  0  0  0  0  0  0  0  0  0  0
  162.4707  142.5624  186.8306 C   0  0  0  0  0  0  0  0  0  0  0  0
  163.5267  142.3579  188.2101 Cl  0  0  0  0  0  0  0  0  0  0  0  0
  162.9006  142.3041  185.5564 C   0  0  0  0  0  0  0  0  0  0  0  0
  162.0298  142.4791  184.4859 C   0  0  0  0  0  0  0  0  0  0  0  0
 19 20  1  0  0  0
 20  1  1  0  0  0
  1  2  2  0  0  0
  2  3  1  0  0  0
  3  4  1  0  0  0
  3  5  2  0  0  0
  5  9  1  0  0  0
  9 10  2  0  0  0
  9 11  2  0  0  0
  9 12  1  0  0  0
 12 14  1  0  0  0
 14 15  2  0  0  0
 15 16  1  0  0  0
 16 17  1  0  0  0
 17 18  2  0  0  0
  5  6  1  0  0  0
  6  7  2  0  0  0
  7  8  1  0  0  0
 20 21  1  0  0  0
 21 22  1  0  0  0
 22 23  1  0  0  0
 23 24  1  0  0  0
 24 26  1  0  0  0
 26 27  1  0  0  0
 27 28  2  0  0  0
 28 29  1  0  0  0
 29 30  2  0  0  0
 30 31  1  0  0  0
 30 32  1  0  0  0
 32 33  2  0  0  0
 24 25  1  0  0  0
  7  1  1  0  0  0
 25 21  1  0  0  0
 18 14  1  0  0  0
 33 27  1  0  0  0
 12 13  1  0  0  0
M  END
> <minimizedAffinity>
-8.48066

> <CNNscore>
0.3636682034

> <CNNaffinity>
6.8491353989

> <CNN_VS>
2.4908127785

> <CNNaffinity_variance>
0.1795704663

$$$$
[H]c1nc(N([H])S(=O)(=O)c2c([H])c(Cl)c(N(C([H])([H])[H])[C@]3([H])C([H])([H])N(C([H])([H])c4c([H])c([H])c(Cl)c([H])c4[H])C([H])([H])C3([H])[H])c([H])c2F)c([H])s1


 33 36  0  0  0  0  0  0  0  0999 V2000
  154.1132  140.6372  182.7807 C   0  0  0  0  0  0  0  0  0  0  0  0
  153.2587  140.9971  181.7608 C   0  0  0  0  0  0  0  0  0  0  0  0
  152.2056  140.1952  181.3837 C   0  0  0  0  0  0  0  0  0  0  0  0
  151.3654  140.5642  180.3703 F   0  0  0  0  0  0  0  0  0  0  0  0
  151.9475  138.9748  182.0146 C   0  0  0  0  0  0  0  0  0  0  0  0
  152.8056  138.6240  183.0320 C   0  0  0  0  0  0  0  0  0  0  0  0
  153.8584  139.4331  183.4033 C   0  0  0  0  0  0  0  0  0  0  0  0
  154.9400  138.9446  184.7174 Cl  0  0  0  0  0  0  0  0  0  0  0  0
  150.5800  138.0040  181.5143 S   0  0  0  0  0  0  0  0  0  0  0  0
  150.9413  136.5675  181.8456 O   0  0  0  0  0  0  0  0  0  0  0  0
  150.3634  138.0682  180.0406 O   0  0  0  0  0  0  0  0  0  0  0  0
  149.1420  138.3643  182.3600 N   0  0  0  0  0  0  0  0  0  0  0  0
  148.6716  139.2665  182.1366 H   0  0  0  0  0  0  0  0  0  0  0  0
  148.5679  137.4715  183.3595 C   0  0  0  0  0  0  0  0  0  0  0  0
  147.4875  136.6734  183.0584 C   0  0  0  0  0  0  0  0  0  0  0  0
  147.2374  135.8620  184.5387 S   0  0  0  0  0  0  0  0  0  0  0  0
  148.5000  136.5728  185.4401 C   0  0  0  0  0  0  0  0  0  0  0  0
  149.0457  137.3930  184.5603 N   0  0  0  0  0  0  0  0  0  0  0  0
  154.9631  142.7236  183.8203 C   0  0  0  0  0  0  0  0  0  0  0  0
  155.2053  141.4389  183.1923 N   0  0  0  0  0  0  0  0  0  0  0  0
  156.5549  141.0178  183.0065 C   0  0  0  0  0  0  0  0  0  0  0  0
  157.1692  141.4950  181.7065 C   0  0  0  0  0  0  0  0  0  0  0  0
  158.6495  141.2896  182.0091 C   0  0  0  0  0  0  0  0  0  0  0  0
  158.8003  141.6554  183.3813 N   0  0  0  0  0  0  0  0  0  0  0  0
  157.5153  141.6711  184.0106 C   0  0  0  0  0  0  0  0  0  0  0  0
  159.5343  142.8812  183.4789 C   0  0  0  0  0  0  0  0  0  0  0  0
  160.5352  142.7626  184.5668 C   0  0  0  0  0  0  0  0  0  0  0  0
  160.1520  143.0147  185.8882 C   0  0  0  0  0  0  0  0  0  0  0  0
  161.0322  142.9158  186.9435 C   0  0  0  0  0  0  0  0  0  0  0  0
  162.3404  142.5578  186.7155 C   0  0  0  0  0  0  0  0  0  0  0  0
  163.4393  142.4389  188.0712 Cl  0  0  0  0  0  0  0  0  0  0  0  0
  162.7541  142.3029  185.4352 C   0  0  0  0  0  0  0  0  0  0  0  0
  161.8492  142.4085  184.3841 C   0  0  0  0  0  0  0  0  0  0  0  0
 19 20  1  0  0  0
 20  1  1  0  0  0
  1  2  2  0  0  0
  2  3  1  0  0  0
  3  4  1  0  0  0
  3  5  2  0  0  0
  5  9  1  0  0  0
  9 10  2  0  0  0
  9 11  2  0  0  0
  9 12  1  0  0  0
 12 14  1  0  0  0
 14 15  2  0  0  0
 15 16  1  0  0  0
 16 17  1  0  0  0
 17 18  2  0  0  0
  5  6  1  0  0  0
  6  7  2  0  0  0
  7  8  1  0  0  0
 20 21  1  0  0  0
 21 22  1  0  0  0
 22 23  1  0  0  0
 23 24  1  0  0  0
 24 26  1  0  0  0
 26 27  1  0  0  0
 27 28  2  0  0  0
 28 29  1  0  0  0
 29 30  2  0  0  0
 30 31  1  0  0  0
 30 32  1  0  0  0
 32 33  2  0  0  0
 24 25  1  0  0  0
  7  1  1  0  0  0
 25 21  1  0  0  0
 18 14  1  0  0  0
 33 27  1  0  0  0
 12 13  1  0  0  0
M  END
> <minimizedAffinity>
-8.65202

> <CNNscore>
0.3401192129

> <CNNaffinity>
6.7853078842

> <CNN_VS>
2.3078136444

> <CNNaffinity_variance>
0.1255658716

$$$$
[H]OC1([H])C([H])([H])OC([H])([H])C([H])([H])C1(c1c([H])c([H])c(C(F)(F)F)c([H])c1F)N([H])C(=O)c1c([H])nn2c([H])c(C([H])([H])[H])c([H])nc12


 33 36  0  0  0  0  0  0  0  0999 V2000
  153.8027  137.5919  185.3097 C   0  0  0  0  0  0  0  0  0  0  0  0
  152.4195  137.5538  185.6156 C   0  0  0  0  0  0  0  0  0  0  0  0
  151.4386  137.0101  184.5878 C   0  0  0  0  0  0  0  0  0  0  0  0
  151.9226  136.5302  183.4270 O   0  0  0  0  0  0  0  0  0  0  0  0
  153.1302  135.9463  183.4778 C   0  0  0  0  0  0  0  0  0  0  0  0
  154.1566  136.3736  184.4194 C   0  0  0  0  0  0  0  0  0  0  0  0
  154.5026  135.2668  185.2210 O   0  0  0  0  0  0  0  0  0  0  0  0
  155.2905  134.8171  184.8940 H   0  0  0  0  0  0  0  0  0  0  0  0
  154.5334  138.7008  184.7198 C   0  0  0  0  0  0  0  0  0  0  0  0
  153.7876  139.5455  183.8790 C   0  0  0  0  0  0  0  0  0  0  0  0
  154.2931  140.7131  183.3557 C   0  0  0  0  0  0  0  0  0  0  0  0
  155.5560  141.1317  183.6159 C   0  0  0  0  0  0  0  0  0  0  0  0
  156.3284  140.3197  184.4485 C   0  0  0  0  0  0  0  0  0  0  0  0
  155.7875  139.1526  184.9586 C   0  0  0  0  0  0  0  0  0  0  0  0
  156.5989  138.4100  185.7141 F   0  0  0  0  0  0  0  0  0  0  0  0
  156.0901  142.4080  183.0873 C   0  0  0  0  0  0  0  0  0  0  0  0
  155.3706  143.4924  183.6032 F   0  0  0  0  0  0  0  0  0  0  0  0
  157.4204  142.4960  183.4254 F   0  0  0  0  0  0  0  0  0  0  0  0
  156.0866  142.4626  181.6955 F   0  0  0  0  0  0  0  0  0  0  0  0
  154.1542  137.9540  187.7242 C   0  0  0  0  0  0  0  0  0  0  0  0
  153.1365  138.7042  187.6832 O   0  0  0  0  0  0  0  0  0  0  0  0
  154.6110  137.2807  186.5336 N   0  0  0  0  0  0  0  0  0  0  0  0
  155.4158  136.6800  186.5770 H   0  0  0  0  0  0  0  0  0  0  0  0
  157.6817  133.8358  191.6611 C   0  0  0  0  0  0  0  0  0  0  0  0
  156.9121  134.8759  190.8900 C   0  0  0  0  0  0  0  0  0  0  0  0
  156.5164  134.6690  189.5869 C   0  0  0  0  0  0  0  0  0  0  0  0
  155.8253  135.6099  188.9161 N   0  0  0  0  0  0  0  0  0  0  0  0
  155.5110  136.7645  189.5101 C   0  0  0  0  0  0  0  0  0  0  0  0
  154.7811  137.8581  189.0172 C   0  0  0  0  0  0  0  0  0  0  0  0
  154.7632  138.7335  190.0607 C   0  0  0  0  0  0  0  0  0  0  0  0
  155.4339  138.1915  191.0999 N   0  0  0  0  0  0  0  0  0  0  0  0
  155.8833  136.9905  190.7622 N   0  0  0  0  0  0  0  0  0  0  0  0
  156.5817  136.0858  191.4936 C   0  0  0  0  0  0  0  0  0  0  0  0
 24 25  1  0  0  0
 25 26  1  0  0  0
 26 27  2  0  0  0
 27 28  1  0  0  0
 28 29  2  0  0  0
 29 20  1  0  0  0
 20 21  2  0  0  0
 20 22  1  0  0  0
 22  1  1  0  0  0
  1  9  1  0  0  0
  9 10  2  0  0  0
 10 11  1  0  0  0
 11 12  2  0  0  0
 12 16  1  0  0  0
 16 17  1  0  0  0
 16 18  1  0  0  0
 16 19  1  0  0  0
 12 13  1  0  0  0
 13 14  2  0  0  0
 14 15  1  0  0  0
  1  2  1  0  0  0
  2  3  1  0  0  0
  3  4  1  0  0  0
  4  5  1  0  0  0
  5  6  1  0  0  0
  6  7  1  0  0  0
 29 30  1  0  0  0
 30 31  2  0  0  0
 31 32  1  0  0  0
 32 33  1  0  0  0
 33 25  2  0  0  0
 32 28  1  0  0  0
  6  1  1  0  0  0
 14  9  1  0  0  0
 22 23  1  0  0  0
  7  8  1  0  0  0
M  END
> <minimizedAffinity>
-7.54935

> <CNNscore>
0.4378929734

> <CNNaffinity>
5.7593221664

> <CNN_VS>
2.5219666958

> <CNNaffinity_variance>
0.1058219671

$$$$
[H]OC1([H])C([H])([H])OC([H])([H])C([H])([H])C1(c1c([H])c([H])c(C(F)(F)F)c([H])c1F)N([H])C(=O)c1c([H])nn2c([H])c(C([H])([H])[H])c([H])nc12


 33 36  0  0  0  0  0  0  0  0999 V2000
  151.6930  136.0950  186.9838 C   0  0  0  0  0  0  0  0  0  0  0  0
  150.8973  134.9675  187.3061 C   0  0  0  0  0  0  0  0  0  0  0  0
  149.4473  135.1665  187.7207 C   0  0  0  0  0  0  0  0  0  0  0  0
  148.9433  136.4147  187.7207 O   0  0  0  0  0  0  0  0  0  0  0  0
  149.4276  137.2558  186.7934 C   0  0  0  0  0  0  0  0  0  0  0  0
  150.7995  137.1678  186.3109 C   0  0  0  0  0  0  0  0  0  0  0  0
  150.7604  136.9661  184.9162 O   0  0  0  0  0  0  0  0  0  0  0  0
  150.8672  137.7918  184.4295 H   0  0  0  0  0  0  0  0  0  0  0  0
  152.5467  136.8453  187.8892 C   0  0  0  0  0  0  0  0  0  0  0  0
  152.6480  136.3365  189.1959 C   0  0  0  0  0  0  0  0  0  0  0  0
  153.5192  136.8471  190.1302 C   0  0  0  0  0  0  0  0  0  0  0  0
  154.3453  137.8856  189.8530 C   0  0  0  0  0  0  0  0  0  0  0  0
  154.2750  138.4182  188.5643 C   0  0  0  0  0  0  0  0  0  0  0  0
  153.3881  137.8790  187.6491 C   0  0  0  0  0  0  0  0  0  0  0  0
  153.3504  138.4660  186.4513 F   0  0  0  0  0  0  0  0  0  0  0  0
  155.3129  138.4118  190.8431 C   0  0  0  0  0  0  0  0  0  0  0  0
  156.5686  138.5962  190.2523 F   0  0  0  0  0  0  0  0  0  0  0  0
  154.8252  139.5979  191.3401 F   0  0  0  0  0  0  0  0  0  0  0  0
  155.4382  137.5964  191.9655 F   0  0  0  0  0  0  0  0  0  0  0  0
  153.3815  134.5555  186.0547 C   0  0  0  0  0  0  0  0  0  0  0  0
  153.2114  133.8598  187.0974 O   0  0  0  0  0  0  0  0  0  0  0  0
  152.6225  135.7652  185.8545 N   0  0  0  0  0  0  0  0  0  0  0  0
  152.7583  136.3076  185.0191 H   0  0  0  0  0  0  0  0  0  0  0  0
  154.8229  133.9179  179.5417 C   0  0  0  0  0  0  0  0  0  0  0  0
  154.6471  134.0001  181.0354 C   0  0  0  0  0  0  0  0  0  0  0  0
  153.5841  134.6644  181.6063 C   0  0  0  0  0  0  0  0  0  0  0  0
  153.4426  134.7229  182.9440 N   0  0  0  0  0  0  0  0  0  0  0  0
  154.3372  134.1322  183.7411 C   0  0  0  0  0  0  0  0  0  0  0  0
  154.3703  134.0423  185.1420 C   0  0  0  0  0  0  0  0  0  0  0  0
  155.4942  133.3151  185.3943 C   0  0  0  0  0  0  0  0  0  0  0  0
  156.0821  132.9945  184.2217 N   0  0  0  0  0  0  0  0  0  0  0  0
  155.3718  133.4897  183.2173 N   0  0  0  0  0  0  0  0  0  0  0  0
  155.5738  133.3940  181.8790 C   0  0  0  0  0  0  0  0  0  0  0  0
 24 25  1  0  0  0
 25 26  1  0  0  0
 26 27  2  0  0  0
 27 28  1  0  0  0
 28 29  2  0  0  0
 29 20  1  0  0  0
 20 21  2  0  0  0
 20 22  1  0  0  0
 22  1  1  0  0  0
  1  9  1  0  0  0
  9 10  2  0  0  0
 10 11  1  0  0  0
 11 12  2  0  0  0
 12 16  1  0  0  0
 16 17  1  0  0  0
 16 18  1  0  0  0
 16 19  1  0  0  0
 12 13  1  0  0  0
 13 14  2  0  0  0
 14 15  1  0  0  0
  1  2  1  0  0  0
  2  3  1  0  0  0
  3  4  1  0  0  0
  4  5  1  0  0  0
  5  6  1  0  0  0
  6  7  1  0  0  0
 29 30  1  0  0  0
 30 31  2  0  0  0
 31 32  1  0  0  0
 32 33  1  0  0  0
 33 25  2  0  0  0
 32 28  1  0  0  0
  6  1  1  0  0  0
 14  9  1  0  0  0
 22 23  1  0  0  0
  7  8  1  0  0  0
M  END
> <minimizedAffinity>
-6.19916

> <CNNscore>
0.4271429479

> <CNNaffinity>
5.2014412880

> <CNN_VS>
2.2217590809

> <CNNaffinity_variance>
0.0627161786

$$$$
[H]OC1([H])C([H])([H])OC([H])([H])C([H])([H])C1(c1c([H])c([H])c(C(F)(F)F)c([H])c1F)N([H])C(=O)c1c([H])nn2c([H])c(C([H])([H])[H])c([H])nc12


 33 36  0  0  0  0  0  0  0  0999 V2000
  157.3070  142.1001  183.4796 C   0  0  0  0  0  0  0  0  0  0  0  0
  156.1840  142.9201  183.2062 C   0  0  0  0  0  0  0  0  0  0  0  0
  156.1701  143.7789  181.9507 C   0  0  0  0  0  0  0  0  0  0  0  0
  157.2123  143.6963  181.1027 O   0  0  0  0  0  0  0  0  0  0  0  0
  157.8154  142.5007  181.0104 C   0  0  0  0  0  0  0  0  0  0  0  0
  157.8938  141.5849  182.1407 C   0  0  0  0  0  0  0  0  0  0  0  0
  157.2719  140.3759  181.7679 O   0  0  0  0  0  0  0  0  0  0  0  0
  157.9111  139.7201  181.4654 H   0  0  0  0  0  0  0  0  0  0  0  0
  158.4695  142.4536  184.2766 C   0  0  0  0  0  0  0  0  0  0  0  0
  158.6870  141.6677  185.4219 C   0  0  0  0  0  0  0  0  0  0  0  0
  159.8139  141.7823  186.2027 C   0  0  0  0  0  0  0  0  0  0  0  0
  160.7990  142.6696  185.9198 C   0  0  0  0  0  0  0  0  0  0  0  0
  160.6201  143.4682  184.7886 C   0  0  0  0  0  0  0  0  0  0  0  0
  159.4750  143.3252  184.0249 C   0  0  0  0  0  0  0  0  0  0  0  0
  159.3571  144.1499  182.9826 F   0  0  0  0  0  0  0  0  0  0  0  0
  162.0319  142.7679  186.7347 C   0  0  0  0  0  0  0  0  0  0  0  0
  163.1426  142.3393  185.9982 F   0  0  0  0  0  0  0  0  0  0  0  0
  162.1841  144.0741  187.1373 F   0  0  0  0  0  0  0  0  0  0  0  0
  161.9537  142.0497  187.9256 F   0  0  0  0  0  0  0  0  0  0  0  0
  155.4774  140.4917  183.8665 C   0  0  0  0  0  0  0  0  0  0  0  0
  154.7557  141.2592  183.1662 O   0  0  0  0  0  0  0  0  0  0  0  0
  156.8647  140.8086  184.0997 N   0  0  0  0  0  0  0  0  0  0  0  0
  157.4329  140.1889  184.6507 H   0  0  0  0  0  0  0  0  0  0  0  0
  155.7932  135.8122  188.6524 C   0  0  0  0  0  0  0  0  0  0  0  0
  155.5768  136.8016  187.5375 C   0  0  0  0  0  0  0  0  0  0  0  0
  156.4026  137.8899  187.3615 C   0  0  0  0  0  0  0  0  0  0  0  0
  156.1946  138.7607  186.3560 N   0  0  0  0  0  0  0  0  0  0  0  0
  155.1779  138.5789  185.5087 C   0  0  0  0  0  0  0  0  0  0  0  0
  154.7976  139.3338  184.3874 C   0  0  0  0  0  0  0  0  0  0  0  0
  153.7093  138.6721  183.9043 C   0  0  0  0  0  0  0  0  0  0  0  0
  153.4663  137.5977  184.6854 N   0  0  0  0  0  0  0  0  0  0  0  0
  154.3658  137.5417  185.6582 N   0  0  0  0  0  0  0  0  0  0  0  0
  154.5187  136.6283  186.6499 C   0  0  0  0  0  0  0  0  0  0  0  0
 24 25  1  0  0  0
 25 26  1  0  0  0
 26 27  2  0  0  0
 27 28  1  0  0  0
 28 29  2  0  0  0
 29 20  1  0  0  0
 20 21  2  0  0  0
 20 22  1  0  0  0
 22  1  1  0  0  0
  1  9  1  0  0  0
  9 10  2  0  0  0
 10 11  1  0  0  0
 11 12  2  0  0  0
 12 16  1  0  0  0
 16 17  1  0  0  0
 16 18  1  0  0  0
 16 19  1  0  0  0
 12 13  1  0  0  0
 13 14  2  0  0  0
 14 15  1  0  0  0
  1  2  1  0  0  0
  2  3  1  0  0  0
  3  4  1  0  0  0
  4  5  1  0  0  0
  5  6  1  0  0  0
  6  7  1  0  0  0
 29 30  1  0  0  0
 30 31  2  0  0  0
 31 32  1  0  0  0
 32 33  1  0  0  0
 33 25  2  0  0  0
 32 28  1  0  0  0
  6  1  1  0  0  0
 14  9  1  0  0  0
 22 23  1  0  0  0
  7  8  1  0  0  0
M  END
> <minimizedAffinity>
-9.36032

> <CNNscore>
0.4120343626

> <CNNaffinity>
6.6996536255

> <CNN_VS>
2.7604875565

> <CNNaffinity_variance>
0.0895636231

$$$$
[H]OC1([H])C([H])([H])OC([H])([H])C([H])([H])C1(c1c([H])c([H])c(C(F)(F)F)c([H])c1F)N([H])C(=O)c1c([H])nn2c([H])c(C([H])([H])[H])c([H])nc12


 33 36  0  0  0  0  0  0  0  0999 V2000
  153.6218  138.1237  184.0616 C   0  0  0  0  0  0  0  0  0  0  0  0
  153.4798  138.6657  185.3633 C   0  0  0  0  0  0  0  0  0  0  0  0
  152.5481  137.9915  186.3591 C   0  0  0  0  0  0  0  0  0  0  0  0
  151.9186  136.8610  185.9880 O   0  0  0  0  0  0  0  0  0  0  0  0
  152.5806  136.0578  185.1406 C   0  0  0  0  0  0  0  0  0  0  0  0
  153.5036  136.5804  184.1417 C   0  0  0  0  0  0  0  0  0  0  0  0
  154.7696  136.0048  184.3727 O   0  0  0  0  0  0  0  0  0  0  0  0
  154.9260  135.2392  183.8075 H   0  0  0  0  0  0  0  0  0  0  0  0
  152.8599  138.4881  182.8792 C   0  0  0  0  0  0  0  0  0  0  0  0
  152.1215  137.4501  182.2842 C   0  0  0  0  0  0  0  0  0  0  0  0
  151.2431  137.6591  181.2462 C   0  0  0  0  0  0  0  0  0  0  0  0
  151.0290  138.8902  180.7206 C   0  0  0  0  0  0  0  0  0  0  0  0
  151.7436  139.9482  181.2858 C   0  0  0  0  0  0  0  0  0  0  0  0
  152.6178  139.7021  182.3299 C   0  0  0  0  0  0  0  0  0  0  0  0
  153.2933  140.7563  182.7914 F   0  0  0  0  0  0  0  0  0  0  0  0
  150.0544  139.1254  179.6304 C   0  0  0  0  0  0  0  0  0  0  0  0
  150.5860  140.0026  178.6776 F   0  0  0  0  0  0  0  0  0  0  0  0
  149.7387  137.9142  179.0605 F   0  0  0  0  0  0  0  0  0  0  0  0
  148.8343  139.6157  180.0898 F   0  0  0  0  0  0  0  0  0  0  0  0
  155.7007  139.4512  184.0823 C   0  0  0  0  0  0  0  0  0  0  0  0
  155.0958  140.2470  184.8575 O   0  0  0  0  0  0  0  0  0  0  0  0
  155.0396  138.2659  183.5949 N   0  0  0  0  0  0  0  0  0  0  0  0
  155.5305  137.6348  182.9857 H   0  0  0  0  0  0  0  0  0  0  0  0
  159.2848  143.1266  179.7756 C   0  0  0  0  0  0  0  0  0  0  0  0
  158.6188  142.2740  180.8236 C   0  0  0  0  0  0  0  0  0  0  0  0
  157.2480  142.1809  180.9207 C   0  0  0  0  0  0  0  0  0  0  0  0
  156.6720  141.4098  181.8622 N   0  0  0  0  0  0  0  0  0  0  0  0
  157.4278  140.7188  182.7201 C   0  0  0  0  0  0  0  0  0  0  0  0
  157.0460  139.8411  183.7476 C   0  0  0  0  0  0  0  0  0  0  0  0
  158.2307  139.4214  184.2730 C   0  0  0  0  0  0  0  0  0  0  0  0
  159.2426  140.0087  183.5988 N   0  0  0  0  0  0  0  0  0  0  0  0
  158.7495  140.7941  182.6508 N   0  0  0  0  0  0  0  0  0  0  0  0
  159.3929  141.5524  181.7278 C   0  0  0  0  0  0  0  0  0  0  0  0
 24 25  1  0  0  0
 25 26  1  0  0  0
 26 27  2  0  0  0
 27 28  1  0  0  0
 28 29  2  0  0  0
 29 20  1  0  0  0
 20 21  2  0  0  0
 20 22  1  0  0  0
 22  1  1  0  0  0
  1  9  1  0  0  0
  9 10  2  0  0  0
 10 11  1  0  0  0
 11 12  2  0  0  0
 12 16  1  0  0  0
 16 17  1  0  0  0
 16 18  1  0  0  0
 16 19  1  0  0  0
 12 13  1  0  0  0
 13 14  2  0  0  0
 14 15  1  0  0  0
  1  2  1  0  0  0
  2  3  1  0  0  0
  3  4  1  0  0  0
  4  5  1  0  0  0
  5  6  1  0  0  0
  6  7  1  0  0  0
 29 30  1  0  0  0
 30 31  2  0  0  0
 31 32  1  0  0  0
 32 33  1  0  0  0
 33 25  2  0  0  0
 32 28  1  0  0  0
  6  1  1  0  0  0
 14  9  1  0  0  0
 22 23  1  0  0  0
  7  8  1  0  0  0
M  END
> <minimizedAffinity>
-7.76402

> <CNNscore>
0.4105999470

> <CNNaffinity>
6.0031509399

> <CNN_VS>
2.4648933411

> <CNNaffinity_variance>
0.1194291711

$$$$
[H]OC1([H])C([H])([H])OC([H])([H])C([H])([H])C1(c1c([H])c([H])c(C(F)(F)F)c([H])c1F)N([H])C(=O)c1c([H])nn2c([H])c(C([H])([H])[H])c([H])nc12


 33 36  0  0  0  0  0  0  0  0999 V2000
  151.6421  135.7350  187.4236 C   0  0  0  0  0  0  0  0  0  0  0  0
  151.8018  134.4210  186.9176 C   0  0  0  0  0  0  0  0  0  0  0  0
  151.2920  133.2383  187.7272 C   0  0  0  0  0  0  0  0  0  0  0  0
  150.6533  133.4798  188.8873 O   0  0  0  0  0  0  0  0  0  0  0  0
  149.9326  134.6104  188.9497 C   0  0  0  0  0  0  0  0  0  0  0  0
  150.3141  135.8118  188.2190 C   0  0  0  0  0  0  0  0  0  0  0  0
  149.2502  136.1581  187.3613 O   0  0  0  0  0  0  0  0  0  0  0  0
  148.6796  136.8321  187.7488 H   0  0  0  0  0  0  0  0  0  0  0  0
  152.5950  136.4791  188.2298 C   0  0  0  0  0  0  0  0  0  0  0  0
  153.3575  135.7175  189.1326 C   0  0  0  0  0  0  0  0  0  0  0  0
  154.3946  136.2469  189.8653 C   0  0  0  0  0  0  0  0  0  0  0  0
  154.7542  137.5503  189.7674 C   0  0  0  0  0  0  0  0  0  0  0  0
  154.0207  138.3397  188.8796 C   0  0  0  0  0  0  0  0  0  0  0  0
  152.9847  137.7741  188.1572 C   0  0  0  0  0  0  0  0  0  0  0  0
  152.3055  138.5999  187.3590 F   0  0  0  0  0  0  0  0  0  0  0  0
  155.8956  138.1142  190.5242 C   0  0  0  0  0  0  0  0  0  0  0  0
  156.4170  137.1620  191.4080 F   0  0  0  0  0  0  0  0  0  0  0  0
  156.8521  138.5261  189.6259 F   0  0  0  0  0  0  0  0  0  0  0  0
  155.5633  139.2715  191.2247 F   0  0  0  0  0  0  0  0  0  0  0  0
  152.0543  136.3935  185.0825 C   0  0  0  0  0  0  0  0  0  0  0  0
  152.8202  135.3890  185.0139 O   0  0  0  0  0  0  0  0  0  0  0  0
  151.3460  136.6871  186.3038 N   0  0  0  0  0  0  0  0  0  0  0  0
  150.7332  137.4828  186.3470 H   0  0  0  0  0  0  0  0  0  0  0  0
  147.7369  139.2941  180.8577 C   0  0  0  0  0  0  0  0  0  0  0  0
  148.8259  138.7136  181.7213 C   0  0  0  0  0  0  0  0  0  0  0  0
  148.5472  138.0667  182.9050 C   0  0  0  0  0  0  0  0  0  0  0  0
  149.5350  137.5510  183.6608 N   0  0  0  0  0  0  0  0  0  0  0  0
  150.8076  137.6596  183.2692 C   0  0  0  0  0  0  0  0  0  0  0  0
  151.9781  137.1772  183.8767 C   0  0  0  0  0  0  0  0  0  0  0  0
  152.9692  137.5672  183.0273 C   0  0  0  0  0  0  0  0  0  0  0  0
  152.4202  138.2311  181.9875 N   0  0  0  0  0  0  0  0  0  0  0  0
  151.1034  138.2809  182.1361 N   0  0  0  0  0  0  0  0  0  0  0  0
  150.1570  138.8233  181.3292 C   0  0  0  0  0  0  0  0  0  0  0  0
 24 25  1  0  0  0
 25 26  1  0  0  0
 26 27  2  0  0  0
 27 28  1  0  0  0
 28 29  2  0  0  0
 29 20  1  0  0  0
 20 21  2  0  0  0
 20 22  1  0  0  0
 22  1  1  0  0  0
  1  9  1  0  0  0
  9 10  2  0  0  0
 10 11  1  0  0  0
 11 12  2  0  0  0
 12 16  1  0  0  0
 16 17  1  0  0  0
 16 18  1  0  0  0
 16 19  1  0  0  0
 12 13  1  0  0  0
 13 14  2  0  0  0
 14 15  1  0  0  0
  1  2  1  0  0  0
  2  3  1  0  0  0
  3  4  1  0  0  0
  4  5  1  0  0  0
  5  6  1  0  0  0
  6  7  1  0  0  0
 29 30  1  0  0  0
 30 31  2  0  0  0
 31 32  1  0  0  0
 32 33  1  0  0  0
 33 25  2  0  0  0
 32 28  1  0  0  0
  6  1  1  0  0  0
 14  9  1  0  0  0
 22 23  1  0  0  0
  7  8  1  0  0  0
M  END
> <minimizedAffinity>
-6.36767

> <CNNscore>
0.4095697701

> <CNNaffinity>
5.3617753983

> <CNN_VS>
2.1960210800

> <CNNaffinity_variance>
0.0739259422

$$$$
[H]OC1([H])C([H])([H])OC([H])([H])C([H])([H])C1(c1c([H])c([H])c(C(F)(F)F)c([H])c1F)N([H])C(=O)c1c([H])nn2c([H])c(C([H])([H])[H])c([H])nc12


 33 36  0  0  0  0  0  0  0  0999 V2000
  152.4740  136.2596  186.6808 C   0  0  0  0  0  0  0  0  0  0  0  0
  152.4096  135.0606  185.9280 C   0  0  0  0  0  0  0  0  0  0  0  0
  151.6920  133.8500  186.5056 C   0  0  0  0  0  0  0  0  0  0  0  0
  151.0905  133.9693  187.7039 O   0  0  0  0  0  0  0  0  0  0  0  0
  150.5762  135.1738  187.9981 C   0  0  0  0  0  0  0  0  0  0  0  0
  151.1696  136.4094  187.5043 C   0  0  0  0  0  0  0  0  0  0  0  0
  150.1929  137.0934  186.7522 O   0  0  0  0  0  0  0  0  0  0  0  0
  149.7430  137.7680  187.2744 H   0  0  0  0  0  0  0  0  0  0  0  0
  153.5314  136.6579  187.5945 C   0  0  0  0  0  0  0  0  0  0  0  0
  153.4072  137.9437  188.1493 C   0  0  0  0  0  0  0  0  0  0  0  0
  154.2451  138.4162  189.1330 C   0  0  0  0  0  0  0  0  0  0  0  0
  155.2571  137.6686  189.6375 C   0  0  0  0  0  0  0  0  0  0  0  0
  155.4123  136.3842  189.1124 C   0  0  0  0  0  0  0  0  0  0  0  0
  154.5505  135.9407  188.1247 C   0  0  0  0  0  0  0  0  0  0  0  0
  154.7859  134.7179  187.6452 F   0  0  0  0  0  0  0  0  0  0  0  0
  156.1357  138.1586  190.7245 C   0  0  0  0  0  0  0  0  0  0  0  0
  157.3989  138.4925  190.2218 F   0  0  0  0  0  0  0  0  0  0  0  0
  155.5363  139.2492  191.3100 F   0  0  0  0  0  0  0  0  0  0  0  0
  156.2725  137.2435  191.7657 F   0  0  0  0  0  0  0  0  0  0  0  0
  153.3644  137.4883  184.7361 C   0  0  0  0  0  0  0  0  0  0  0  0
  154.2177  136.5599  184.6353 O   0  0  0  0  0  0  0  0  0  0  0  0
  152.3618  137.4467  185.7717 N   0  0  0  0  0  0  0  0  0  0  0  0
  151.6826  138.1846  185.8395 H   0  0  0  0  0  0  0  0  0  0  0  0
  150.7004  139.9312  179.0936 C   0  0  0  0  0  0  0  0  0  0  0  0
  151.3959  139.5134  180.3627 C   0  0  0  0  0  0  0  0  0  0  0  0
  150.9369  138.4671  181.1320 C   0  0  0  0  0  0  0  0  0  0  0  0
  151.5754  138.1065  182.2612 N   0  0  0  0  0  0  0  0  0  0  0  0
  152.6712  138.7626  182.6526 C   0  0  0  0  0  0  0  0  0  0  0  0
  153.5013  138.5415  183.7634 C   0  0  0  0  0  0  0  0  0  0  0  0
  154.4650  139.4969  183.6440 C   0  0  0  0  0  0  0  0  0  0  0  0
  154.2220  140.2294  182.5360 N   0  0  0  0  0  0  0  0  0  0  0  0
  153.1317  139.7760  181.9325 N   0  0  0  0  0  0  0  0  0  0  0  0
  152.5358  140.1908  180.7862 C   0  0  0  0  0  0  0  0  0  0  0  0
 24 25  1  0  0  0
 25 26  1  0  0  0
 26 27  2  0  0  0
 27 28  1  0  0  0
 28 29  2  0  0  0
 29 20  1  0  0  0
 20 21  2  0  0  0
 20 22  1  0  0  0
 22  1  1  0  0  0
  1  9  1  0  0  0
  9 10  2  0  0  0
 10 11  1  0  0  0
 11 12  2  0  0  0
 12 16  1  0  0  0
 16 17  1  0  0  0
 16 18  1  0  0  0
 16 19  1  0  0  0
 12 13  1  0  0  0
 13 14  2  0  0  0
 14 15  1  0  0  0
  1  2  1  0  0  0
  2  3  1  0  0  0
  3  4  1  0  0  0
  4  5  1  0  0  0
  5  6  1  0  0  0
  6  7  1  0  0  0
 29 30  1  0  0  0
 30 31  2  0  0  0
 31 32  1  0  0  0
 32 33  1  0  0  0
 33 25  2  0  0  0
 32 28  1  0  0  0
  6  1  1  0  0  0
 14  9  1  0  0  0
 22 23  1  0  0  0
  7  8  1  0  0  0
M  END
> <minimizedAffinity>
-7.60636

> <CNNscore>
0.3996978104

> <CNNaffinity>
5.3573451042

> <CNN_VS>
2.1413190365

> <CNNaffinity_variance>
0.1094726324

$$$$
[H]OC1([H])C([H])([H])OC([H])([H])C([H])([H])C1(c1c([H])c([H])c(C(F)(F)F)c([H])c1F)N([H])C(=O)c1c([H])nn2c([H])c(C([H])([H])[H])c([H])nc12


 33 36  0  0  0  0  0  0  0  0999 V2000
  153.9166  137.7290  185.3174 C   0  0  0  0  0  0  0  0  0  0  0  0
  152.5285  137.6822  185.5990 C   0  0  0  0  0  0  0  0  0  0  0  0
  151.5643  137.1758  184.5369 C   0  0  0  0  0  0  0  0  0  0  0  0
  152.0671  136.7356  183.3684 O   0  0  0  0  0  0  0  0  0  0  0  0
  153.2732  136.1487  183.4189 C   0  0  0  0  0  0  0  0  0  0  0  0
  154.2842  136.5418  184.3915 C   0  0  0  0  0  0  0  0  0  0  0  0
  154.6160  135.4075  185.1600 O   0  0  0  0  0  0  0  0  0  0  0  0
  155.4090  134.9683  184.8307 H   0  0  0  0  0  0  0  0  0  0  0  0
  154.6578  138.8567  184.7783 C   0  0  0  0  0  0  0  0  0  0  0  0
  155.9773  138.9986  185.2424 C   0  0  0  0  0  0  0  0  0  0  0  0
  156.8533  139.9268  184.7288 C   0  0  0  0  0  0  0  0  0  0  0  0
  156.5006  140.7763  183.7330 C   0  0  0  0  0  0  0  0  0  0  0  0
  155.1975  140.6655  183.2442 C   0  0  0  0  0  0  0  0  0  0  0  0
  154.3432  139.7195  183.7830 C   0  0  0  0  0  0  0  0  0  0  0  0
  153.1028  139.7001  183.2915 F   0  0  0  0  0  0  0  0  0  0  0  0
  157.4529  141.7494  183.1500 C   0  0  0  0  0  0  0  0  0  0  0  0
  158.5760  141.8907  183.9737 F   0  0  0  0  0  0  0  0  0  0  0  0
  157.8142  141.3080  181.8985 F   0  0  0  0  0  0  0  0  0  0  0  0
  156.8801  142.9980  182.9202 F   0  0  0  0  0  0  0  0  0  0  0  0
  154.2312  138.0106  187.7477 C   0  0  0  0  0  0  0  0  0  0  0  0
  153.2170  138.7660  187.7153 O   0  0  0  0  0  0  0  0  0  0  0  0
  154.7043  137.3746  186.5430 N   0  0  0  0  0  0  0  0  0  0  0  0
  155.5062  136.7695  186.5793 H   0  0  0  0  0  0  0  0  0  0  0  0
  157.7311  133.7732  191.5815 C   0  0  0  0  0  0  0  0  0  0  0  0
  156.9647  134.8357  190.8383 C   0  0  0  0  0  0  0  0  0  0  0  0
  156.5928  134.6764  189.5216 C   0  0  0  0  0  0  0  0  0  0  0  0
  155.9043  135.6366  188.8761 N   0  0  0  0  0  0  0  0  0  0  0  0
  155.5691  136.7644  189.5090 C   0  0  0  0  0  0  0  0  0  0  0  0
  154.8372  137.8699  189.0465 C   0  0  0  0  0  0  0  0  0  0  0  0
  154.7937  138.7038  190.1228 C   0  0  0  0  0  0  0  0  0  0  0  0
  155.4519  138.1275  191.1515 N   0  0  0  0  0  0  0  0  0  0  0  0
  155.9183  136.9446  190.7751 N   0  0  0  0  0  0  0  0  0  0  0  0
  156.6128  136.0183  191.4827 C   0  0  0  0  0  0  0  0  0  0  0  0
 24 25  1  0  0  0
 25 26  1  0  0  0
 26 27  2  0  0  0
 27 28  1  0  0  0
 28 29  2  0  0  0
 29 20  1  0  0  0
 20 21  2  0  0  0
 20 22  1  0  0  0
 22  1  1  0  0  0
  1  9  1  0  0  0
  9 10  2  0  0  0
 10 11  1  0  0  0
 11 12  2  0  0  0
 12 16  1  0  0  0
 16 17  1  0  0  0
 16 18  1  0  0  0
 16 19  1  0  0  0
 12 13  1  0  0  0
 13 14  2  0  0  0
 14 15  1  0  0  0
  1  2  1  0  0  0
  2  3  1  0  0  0
  3  4  1  0  0  0
  4  5  1  0  0  0
  5  6  1  0  0  0
  6  7  1  0  0  0
 29 30  1  0  0  0
 30 31  2  0  0  0
 31 32  1  0  0  0
 32 33  1  0  0  0
 33 25  2  0  0  0
 32 28  1  0  0  0
  6  1  1  0  0  0
 14  9  1  0  0  0
 22 23  1  0  0  0
  7  8  1  0  0  0
M  END
> <minimizedAffinity>
-7.60837

> <CNNscore>
0.3546212316

> <CNNaffinity>
5.6965532303

> <CNN_VS>
2.0201187134

> <CNNaffinity_variance>
0.1676261276

$$$$
[H]OC1([H])C([H])([H])OC([H])([H])C([H])([H])C1(c1c([H])c([H])c(C(F)(F)F)c([H])c1F)N([H])C(=O)c1c([H])nn2c([H])c(C([H])([H])[H])c([H])nc12


 33 36  0  0  0  0  0  0  0  0999 V2000
  153.0469  136.8629  184.2255 C   0  0  0  0  0  0  0  0  0  0  0  0
  152.8943  136.6249  185.6142 C   0  0  0  0  0  0  0  0  0  0  0  0
  152.2110  135.3504  186.0862 C   0  0  0  0  0  0  0  0  0  0  0  0
  151.8126  134.4543  185.1642 O   0  0  0  0  0  0  0  0  0  0  0  0
  152.5634  134.3623  184.0553 C   0  0  0  0  0  0  0  0  0  0  0  0
  153.2706  135.5101  183.5031 C   0  0  0  0  0  0  0  0  0  0  0  0
  154.6451  135.1990  183.4632 O   0  0  0  0  0  0  0  0  0  0  0  0
  154.9178  134.8819  182.5942 H   0  0  0  0  0  0  0  0  0  0  0  0
  152.1338  137.5923  183.3620 C   0  0  0  0  0  0  0  0  0  0  0  0
  152.7337  138.3671  182.3538 C   0  0  0  0  0  0  0  0  0  0  0  0
  152.0104  139.0038  181.3720 C   0  0  0  0  0  0  0  0  0  0  0  0
  150.6583  138.9286  181.3100 C   0  0  0  0  0  0  0  0  0  0  0  0
  150.0252  138.1669  182.2940 C   0  0  0  0  0  0  0  0  0  0  0  0
  150.7840  137.5386  183.2658 C   0  0  0  0  0  0  0  0  0  0  0  0
  150.1057  136.8614  184.1942 F   0  0  0  0  0  0  0  0  0  0  0  0
  149.8793  139.5794  180.2314 C   0  0  0  0  0  0  0  0  0  0  0  0
  148.6024  139.9260  180.6888 F   0  0  0  0  0  0  0  0  0  0  0  0
  150.5679  140.6921  179.8080 F   0  0  0  0  0  0  0  0  0  0  0  0
  149.7697  138.7898  179.0892 F   0  0  0  0  0  0  0  0  0  0  0  0
  154.5834  138.7193  184.7521 C   0  0  0  0  0  0  0  0  0  0  0  0
  153.7249  139.0884  185.6047 O   0  0  0  0  0  0  0  0  0  0  0  0
  154.3595  137.5365  183.9582 N   0  0  0  0  0  0  0  0  0  0  0  0
  155.0508  137.2459  183.2887 H   0  0  0  0  0  0  0  0  0  0  0  0
  156.8066  144.4470  182.0776 C   0  0  0  0  0  0  0  0  0  0  0  0
  156.4497  143.1508  182.7568 C   0  0  0  0  0  0  0  0  0  0  0  0
  155.1722  142.6374  182.7169 C   0  0  0  0  0  0  0  0  0  0  0  0
  154.8744  141.4748  183.3272 N   0  0  0  0  0  0  0  0  0  0  0  0
  155.8212  140.7983  183.9834 C   0  0  0  0  0  0  0  0  0  0  0  0
  155.7426  139.5686  184.6569 C   0  0  0  0  0  0  0  0  0  0  0  0
  157.0098  139.3672  185.1141 C   0  0  0  0  0  0  0  0  0  0  0  0
  157.7843  140.4056  184.7330 N   0  0  0  0  0  0  0  0  0  0  0  0
  157.0579  141.2724  184.0405 N   0  0  0  0  0  0  0  0  0  0  0  0
  157.4242  142.4372  183.4487 C   0  0  0  0  0  0  0  0  0  0  0  0
 24 25  1  0  0  0
 25 26  1  0  0  0
 26 27  2  0  0  0
 27 28  1  0  0  0
 28 29  2  0  0  0
 29 20  1  0  0  0
 20 21  2  0  0  0
 20 22  1  0  0  0
 22  1  1  0  0  0
  1  9  1  0  0  0
  9 10  2  0  0  0
 10 11  1  0  0  0
 11 12  2  0  0  0
 12 16  1  0  0  0
 16 17  1  0  0  0
 16 18  1  0  0  0
 16 19  1  0  0  0
 12 13  1  0  0  0
 13 14  2  0  0  0
 14 15  1  0  0  0
  1  2  1  0  0  0
  2  3  1  0  0  0
  3  4  1  0  0  0
  4  5  1  0  0  0
  5  6  1  0  0  0
  6  7  1  0  0  0
 29 30  1  0  0  0
 30 31  2  0  0  0
 31 32  1  0  0  0
 32 33  1  0  0  0
 33 25  2  0  0  0
 32 28  1  0  0  0
  6  1  1  0  0  0
 14  9  1  0  0  0
 22 23  1  0  0  0
  7  8  1  0  0  0
M  END
> <minimizedAffinity>
-7.15027

> <CNNscore>
0.3164331615

> <CNNaffinity>
5.7722692490

> <CNN_VS>
1.8265373707

> <CNNaffinity_variance>
0.1301633716

$$$$
[H]OC1([H])C([H])([H])OC([H])([H])C([H])([H])C1(c1c([H])c([H])c(C(F)(F)F)c([H])c1F)N([H])C(=O)c1c([H])nn2c([H])c(C([H])([H])[H])c([H])nc12


 33 36  0  0  0  0  0  0  0  0999 V2000
  153.7550  136.6456  186.3290 C   0  0  0  0  0  0  0  0  0  0  0  0
  153.3934  138.0030  186.1413 C   0  0  0  0  0  0  0  0  0  0  0  0
  153.7499  138.7008  184.8375 C   0  0  0  0  0  0  0  0  0  0  0  0
  154.3592  137.9882  183.8716 O   0  0  0  0  0  0  0  0  0  0  0  0
  154.0349  136.6881  183.7921 C   0  0  0  0  0  0  0  0  0  0  0  0
  153.6723  135.9084  184.9682 C   0  0  0  0  0  0  0  0  0  0  0  0
  152.3748  135.3944  184.7691 O   0  0  0  0  0  0  0  0  0  0  0  0
  152.3927  134.4892  184.4370 H   0  0  0  0  0  0  0  0  0  0  0  0
  154.9742  136.1465  186.9422 C   0  0  0  0  0  0  0  0  0  0  0  0
  155.2555  134.7864  186.7236 C   0  0  0  0  0  0  0  0  0  0  0  0
  156.4342  134.1956  187.1164 C   0  0  0  0  0  0  0  0  0  0  0  0
  157.4125  134.8898  187.7478 C   0  0  0  0  0  0  0  0  0  0  0  0
  157.1709  136.2448  187.9822 C   0  0  0  0  0  0  0  0  0  0  0  0
  155.9746  136.8069  187.5723 C   0  0  0  0  0  0  0  0  0  0  0  0
  155.8004  138.0968  187.8660 F   0  0  0  0  0  0  0  0  0  0  0  0
  158.6989  134.2669  188.1361 C   0  0  0  0  0  0  0  0  0  0  0  0
  159.7742  135.0591  187.7165 F   0  0  0  0  0  0  0  0  0  0  0  0
  158.7102  134.1074  189.5021 F   0  0  0  0  0  0  0  0  0  0  0  0
  158.8474  132.9741  187.6394 F   0  0  0  0  0  0  0  0  0  0  0  0
  152.3225  136.5673  188.3355 C   0  0  0  0  0  0  0  0  0  0  0  0
  152.8722  137.6539  188.6782 O   0  0  0  0  0  0  0  0  0  0  0  0
  152.6848  135.9274  187.0951 N   0  0  0  0  0  0  0  0  0  0  0  0
  152.2372  135.0683  186.8268 H   0  0  0  0  0  0  0  0  0  0  0  0
  151.2811  135.4418  194.8586 C   0  0  0  0  0  0  0  0  0  0  0  0
  151.3601  135.6502  193.3690 C   0  0  0  0  0  0  0  0  0  0  0  0
  152.4396  136.2691  192.7783 C   0  0  0  0  0  0  0  0  0  0  0  0
  152.4931  136.4422  191.4441 N   0  0  0  0  0  0  0  0  0  0  0  0
  151.4932  136.0117  190.6698 C   0  0  0  0  0  0  0  0  0  0  0  0
  151.3548  136.0591  189.2732 C   0  0  0  0  0  0  0  0  0  0  0  0
  150.1519  135.4617  189.0456 C   0  0  0  0  0  0  0  0  0  0  0  0
  149.6187  135.0841  190.2274 N   0  0  0  0  0  0  0  0  0  0  0  0
  150.4408  135.4164  191.2134 N   0  0  0  0  0  0  0  0  0  0  0  0
  150.3237  135.2118  192.5496 C   0  0  0  0  0  0  0  0  0  0  0  0
 24 25  1  0  0  0
 25 26  1  0  0  0
 26 27  2  0  0  0
 27 28  1  0  0  0
 28 29  2  0  0  0
 29 20  1  0  0  0
 20 21  2  0  0  0
 20 22  1  0  0  0
 22  1  1  0  0  0
  1  9  1  0  0  0
  9 10  2  0  0  0
 10 11  1  0  0  0
 11 12  2  0  0  0
 12 16  1  0  0  0
 16 17  1  0  0  0
 16 18  1  0  0  0
 16 19  1  0  0  0
 12 13  1  0  0  0
 13 14  2  0  0  0
 14 15  1  0  0  0
  1  2  1  0  0  0
  2  3  1  0  0  0
  3  4  1  0  0  0
  4  5  1  0  0  0
  5  6  1  0  0  0
  6  7  1  0  0  0
 29 30  1  0  0  0
 30 31  2  0  0  0
 31 32  1  0  0  0
 32 33  1  0  0  0
 33 25  2  0  0  0
 32 28  1  0  0  0
  6  1  1  0  0  0
 14  9  1  0  0  0
 22 23  1  0  0  0
  7  8  1  0  0  0
M  END
> <minimizedAffinity>
-5.82729

> <CNNscore>
0.3132791519

> <CNNaffinity>
5.4126286507

> <CNN_VS>
1.6956636906

> <CNNaffinity_variance>
0.0257836692

$$$$
[H]OC(=O)C([H])([H])C([H])([H])[C@@]([H])(C(=O)N1C([H])([H])C([H])([H])C([H])([H])[C@@]1([H])C(=O)N([H])[C@]([H])(C(=O)OC([H])([H])[H])C([H])([H])c1c([H])c([H])c([H])c([H])c1[H])N([H])C(=O)[C@@]([H])(N([H])C(=O)OC([H])([H])c1c([H])c([H])c([H])c([H])c1[H])[C@@]([H])(C([H])([H])[H])C([H])([H])C([H])([H])[H]


 51 53  0  0  0  0  0  0  0  0999 V2000
  153.5786  137.9022  184.9944 C   0  0  0  0  0  0  0  0  0  0  0  0
  153.4735  137.7353  186.4162 C   0  0  0  0  0  0  0  0  0  0  0  0
  152.1847  137.9352  186.8042 O   0  0  0  0  0  0  0  0  0  0  0  0
  154.2616  137.4459  187.5099 N   0  0  0  0  0  0  0  0  0  0  0  0
  153.6926  137.3326  188.8834 C   0  0  0  0  0  0  0  0  0  0  0  0
  154.5820  138.3117  189.6208 C   0  0  0  0  0  0  0  0  0  0  0  0
  155.9210  138.0660  189.0127 C   0  0  0  0  0  0  0  0  0  0  0  0
  155.6473  137.2528  187.7206 C   0  0  0  0  0  0  0  0  0  0  0  0
  156.0734  135.8815  188.0463 C   0  0  0  0  0  0  0  0  0  0  0  0
  155.6658  134.9195  187.3742 O   0  0  0  0  0  0  0  0  0  0  0  0
  156.9516  135.6596  189.1347 N   0  0  0  0  0  0  0  0  0  0  0  0
  157.3285  136.4365  189.7195 H   0  0  0  0  0  0  0  0  0  0  0  0
  157.3541  134.2782  189.4658 C   0  0  0  0  0  0  0  0  0  0  0  0
  156.9612  133.9461  190.8405 C   0  0  0  0  0  0  0  0  0  0  0  0
  157.3597  134.6983  191.8069 O   0  0  0  0  0  0  0  0  0  0  0  0
  156.1886  132.8883  191.2055 O   0  0  0  0  0  0  0  0  0  0  0  0
  156.7498  131.6626  191.7005 C   0  0  0  0  0  0  0  0  0  0  0  0
  158.8332  134.1678  189.2837 C   0  0  0  0  0  0  0  0  0  0  0  0
  159.3417  132.8811  188.8262 C   0  0  0  0  0  0  0  0  0  0  0  0
  159.4199  132.6891  187.4486 C   0  0  0  0  0  0  0  0  0  0  0  0
  159.9126  131.5038  186.9837 C   0  0  0  0  0  0  0  0  0  0  0  0
  160.3337  130.4960  187.8256 C   0  0  0  0  0  0  0  0  0  0  0  0
  160.2419  130.7240  189.2106 C   0  0  0  0  0  0  0  0  0  0  0  0
  159.7529  131.8974  189.6885 C   0  0  0  0  0  0  0  0  0  0  0  0
  154.4103  140.0175  183.8500 C   0  0  0  0  0  0  0  0  0  0  0  0
  153.4858  139.7972  182.9832 O   0  0  0  0  0  0  0  0  0  0  0  0
  154.5248  139.1058  184.9007 N   0  0  0  0  0  0  0  0  0  0  0  0
  155.2421  139.2001  185.6427 H   0  0  0  0  0  0  0  0  0  0  0  0
  155.2269  141.1913  183.6181 C   0  0  0  0  0  0  0  0  0  0  0  0
  156.6246  140.8807  183.4628 N   0  0  0  0  0  0  0  0  0  0  0  0
  157.4995  140.2168  184.3311 C   0  0  0  0  0  0  0  0  0  0  0  0
  157.2624  139.7433  185.4577 O   0  0  0  0  0  0  0  0  0  0  0  0
  157.0815  141.2066  182.5322 H   0  0  0  0  0  0  0  0  0  0  0  0
  158.8510  140.0329  183.9274 O   0  0  0  0  0  0  0  0  0  0  0  0
  159.6705  141.1134  183.5637 C   0  0  0  0  0  0  0  0  0  0  0  0
  160.3774  141.7488  184.6693 C   0  0  0  0  0  0  0  0  0  0  0  0
  161.7545  141.9305  184.5926 C   0  0  0  0  0  0  0  0  0  0  0  0
  162.4863  142.5145  185.5940 C   0  0  0  0  0  0  0  0  0  0  0  0
  161.8439  142.9529  186.7484 C   0  0  0  0  0  0  0  0  0  0  0  0
  160.4750  142.7769  186.8339 C   0  0  0  0  0  0  0  0  0  0  0  0
  159.7531  142.1864  185.8147 C   0  0  0  0  0  0  0  0  0  0  0  0
  154.8003  142.0879  182.4770 C   0  0  0  0  0  0  0  0  0  0  0  0
  153.9441  143.2652  182.9208 C   0  0  0  0  0  0  0  0  0  0  0  0
  156.1272  144.2088  182.1683 C   0  0  0  0  0  0  0  0  0  0  0  0
  156.0664  142.7161  181.9079 C   0  0  0  0  0  0  0  0  0  0  0  0
  153.9943  136.9166  184.0183 C   0  0  0  0  0  0  0  0  0  0  0  0
  153.0444  135.8508  183.5775 C   0  0  0  0  0  0  0  0  0  0  0  0
  152.5144  136.1400  182.1942 C   0  0  0  0  0  0  0  0  0  0  0  0
  152.0282  135.2165  181.5071 O   0  0  0  0  0  0  0  0  0  0  0  0
  152.5436  137.4172  181.6418 O   0  0  0  0  0  0  0  0  0  0  0  0
  151.8835  137.7439  180.9757 H   0  0  0  0  0  0  0  0  0  0  0  0
 44 45  1  0  0  0
 45 42  1  0  0  0
 42 43  1  0  0  0
 42 29  1  0  0  0
 29 30  1  0  0  0
 30 31  1  0  0  0
 31 32  2  0  0  0
 31 34  1  0  0  0
 34 35  1  0  0  0
 35 36  1  0  0  0
 36 37  2  0  0  0
 37 38  1  0  0  0
 38 39  2  0  0  0
 39 40  1  0  0  0
 40 41  2  0  0  0
 29 25  1  0  0  0
 25 26  2  0  0  0
 25 27  1  0  0  0
 27  1  1  0  0  0
  1 46  1  0  0  0
 46 47  1  0  0  0
 47 48  1  0  0  0
 48 49  2  0  0  0
 48 50  1  0  0  0
  1  2  1  0  0  0
  2  3  2  0  0  0
  2  4  1  0  0  0
  4  5  1  0  0  0
  5  6  1  0  0  0
  6  7  1  0  0  0
  7  8  1  0  0  0
  8  9  1  0  0  0
  9 10  2  0  0  0
  9 11  1  0  0  0
 11 13  1  0  0  0
 13 18  1  0  0  0
 18 19  1  0  0  0
 19 20  2  0  0  0
 20 21  1  0  0  0
 21 22  2  0  0  0
 22 23  1  0  0  0
 23 24  2  0  0  0
 13 14  1  0  0  0
 14 15  2  0  0  0
 14 16  1  0  0  0
 16 17  1  0  0  0
 41 36  1  0  0  0
  8  4  1  0  0  0
 24 19  1  0  0  0
 30 33  1  0  0  0
 27 28  1  0  0  0
 50 51  1  0  0  0
 11 12  1  0  0  0
M  END
> <minimizedAffinity>
-8.35332

> <CNNscore>
0.5777022839

> <CNNaffinity>
6.9343657494

> <CNN_VS>
4.0059990883

> <CNNaffinity_variance>
0.1890032142

$$$$
[H]OC(=O)C([H])([H])C([H])([H])[C@@]([H])(C(=O)N1C([H])([H])C([H])([H])C([H])([H])[C@@]1([H])C(=O)N([H])[C@]([H])(C(=O)OC([H])([H])[H])C([H])([H])c1c([H])c([H])c([H])c([H])c1[H])N([H])C(=O)[C@@]([H])(N([H])C(=O)OC([H])([H])c1c([H])c([H])c([H])c([H])c1[H])[C@@]([H])(C([H])([H])[H])C([H])([H])C([H])([H])[H]


 51 53  0  0  0  0  0  0  0  0999 V2000
  152.2832  135.7626  184.5227 C   0  0  0  0  0  0  0  0  0  0  0  0
  152.2683  136.4433  185.7864 C   0  0  0  0  0  0  0  0  0  0  0  0
  151.0254  136.9463  186.0182 O   0  0  0  0  0  0  0  0  0  0  0  0
  153.1117  136.7549  186.8317 N   0  0  0  0  0  0  0  0  0  0  0  0
  152.6350  137.4949  188.0351 C   0  0  0  0  0  0  0  0  0  0  0  0
  153.6346  138.6323  188.0606 C   0  0  0  0  0  0  0  0  0  0  0  0
  154.9090  137.9622  187.6734 C   0  0  0  0  0  0  0  0  0  0  0  0
  154.4937  136.5885  187.0849 C   0  0  0  0  0  0  0  0  0  0  0  0
  154.8538  135.6126  188.1270 C   0  0  0  0  0  0  0  0  0  0  0  0
  154.4975  134.4266  188.0285 O   0  0  0  0  0  0  0  0  0  0  0  0
  155.6091  136.0312  189.2493 N   0  0  0  0  0  0  0  0  0  0  0  0
  155.9400  137.0129  189.3689 H   0  0  0  0  0  0  0  0  0  0  0  0
  155.9450  135.0486  190.2988 C   0  0  0  0  0  0  0  0  0  0  0  0
  156.9160  134.0710  189.7930 C   0  0  0  0  0  0  0  0  0  0  0  0
  158.0137  134.4906  189.2663 O   0  0  0  0  0  0  0  0  0  0  0  0
  156.7665  132.7199  189.8305 O   0  0  0  0  0  0  0  0  0  0  0  0
  157.7198  131.8598  190.4737 C   0  0  0  0  0  0  0  0  0  0  0  0
  154.6806  134.3810  190.7334 C   0  0  0  0  0  0  0  0  0  0  0  0
  153.8489  135.1097  191.6825 C   0  0  0  0  0  0  0  0  0  0  0  0
  153.7422  136.4864  191.4982 C   0  0  0  0  0  0  0  0  0  0  0  0
  152.9534  137.1985  192.3552 C   0  0  0  0  0  0  0  0  0  0  0  0
  152.2619  136.6055  193.3907 C   0  0  0  0  0  0  0  0  0  0  0  0
  152.3913  135.2136  193.5469 C   0  0  0  0  0  0  0  0  0  0  0  0
  153.1732  134.4917  192.7033 C   0  0  0  0  0  0  0  0  0  0  0  0
  152.6443  137.9001  183.1898 C   0  0  0  0  0  0  0  0  0  0  0  0
  153.8428  137.8749  183.6563 O   0  0  0  0  0  0  0  0  0  0  0  0
  151.7905  136.8667  183.5790 N   0  0  0  0  0  0  0  0  0  0  0  0
  150.8073  136.8071  183.2568 H   0  0  0  0  0  0  0  0  0  0  0  0
  152.3292  139.0129  182.3176 C   0  0  0  0  0  0  0  0  0  0  0  0
  153.5005  139.7078  181.8492 N   0  0  0  0  0  0  0  0  0  0  0  0
  154.2407  140.7304  182.4543 C   0  0  0  0  0  0  0  0  0  0  0  0
  154.0442  141.2845  183.5516 O   0  0  0  0  0  0  0  0  0  0  0  0
  153.8770  139.3992  180.8775 H   0  0  0  0  0  0  0  0  0  0  0  0
  155.3761  141.2462  181.7701 O   0  0  0  0  0  0  0  0  0  0  0  0
  156.3140  142.0739  182.4076 C   0  0  0  0  0  0  0  0  0  0  0  0
  157.3706  142.5862  181.5433 C   0  0  0  0  0  0  0  0  0  0  0  0
  158.0036  143.7827  181.8643 C   0  0  0  0  0  0  0  0  0  0  0  0
  159.0003  144.3279  181.0972 C   0  0  0  0  0  0  0  0  0  0  0  0
  159.4139  143.6727  179.9409 C   0  0  0  0  0  0  0  0  0  0  0  0
  158.7908  142.4823  179.6134 C   0  0  0  0  0  0  0  0  0  0  0  0
  157.7879  141.9471  180.3984 C   0  0  0  0  0  0  0  0  0  0  0  0
  151.4431  138.7028  181.1315 C   0  0  0  0  0  0  0  0  0  0  0  0
  150.0126  139.1937  181.3009 C   0  0  0  0  0  0  0  0  0  0  0  0
  150.8850  140.1127  179.1178 C   0  0  0  0  0  0  0  0  0  0  0  0
  151.9912  139.4919  179.9489 C   0  0  0  0  0  0  0  0  0  0  0  0
  153.4021  135.0903  183.8954 C   0  0  0  0  0  0  0  0  0  0  0  0
  153.1806  134.2222  182.6997 C   0  0  0  0  0  0  0  0  0  0  0  0
  154.4720  133.9949  181.9523 C   0  0  0  0  0  0  0  0  0  0  0  0
  155.5077  133.6821  182.5777 O   0  0  0  0  0  0  0  0  0  0  0  0
  154.5591  134.1202  180.5689 O   0  0  0  0  0  0  0  0  0  0  0  0
  155.2037  133.6122  180.0098 H   0  0  0  0  0  0  0  0  0  0  0  0
 44 45  1  0  0  0
 45 42  1  0  0  0
 42 43  1  0  0  0
 42 29  1  0  0  0
 29 30  1  0  0  0
 30 31  1  0  0  0
 31 32  2  0  0  0
 31 34  1  0  0  0
 34 35  1  0  0  0
 35 36  1  0  0  0
 36 37  2  0  0  0
 37 38  1  0  0  0
 38 39  2  0  0  0
 39 40  1  0  0  0
 40 41  2  0  0  0
 29 25  1  0  0  0
 25 26  2  0  0  0
 25 27  1  0  0  0
 27  1  1  0  0  0
  1 46  1  0  0  0
 46 47  1  0  0  0
 47 48  1  0  0  0
 48 49  2  0  0  0
 48 50  1  0  0  0
  1  2  1  0  0  0
  2  3  2  0  0  0
  2  4  1  0  0  0
  4  5  1  0  0  0
  5  6  1  0  0  0
  6  7  1  0  0  0
  7  8  1  0  0  0
  8  9  1  0  0  0
  9 10  2  0  0  0
  9 11  1  0  0  0
 11 13  1  0  0  0
 13 18  1  0  0  0
 18 19  1  0  0  0
 19 20  2  0  0  0
 20 21  1  0  0  0
 21 22  2  0  0  0
 22 23  1  0  0  0
 23 24  2  0  0  0
 13 14  1  0  0  0
 14 15  2  0  0  0
 14 16  1  0  0  0
 16 17  1  0  0  0
 41 36  1  0  0  0
  8  4  1  0  0  0
 24 19  1  0  0  0
 30 33  1  0  0  0
 27 28  1  0  0  0
 50 51  1  0  0  0
 11 12  1  0  0  0
M  END
> <minimizedAffinity>
-7.54221

> <CNNscore>
0.3524079323

> <CNNaffinity>
6.1795110703

> <CNN_VS>
2.1777086258

> <CNNaffinity_variance>
0.1030274257

$$$$
[H]OC(=O)C([H])([H])C([H])([H])[C@@]([H])(C(=O)N1C([H])([H])C([H])([H])C([H])([H])[C@@]1([H])C(=O)N([H])[C@]([H])(C(=O)OC([H])([H])[H])C([H])([H])c1c([H])c([H])c([H])c([H])c1[H])N([H])C(=O)[C@@]([H])(N([H])C(=O)OC([H])([H])c1c([H])c([H])c([H])c([H])c1[H])[C@@]([H])(C([H])([H])[H])C([H])([H])C([H])([H])[H]


 51 53  0  0  0  0  0  0  0  0999 V2000
  152.5868  135.7834  186.2515 C   0  0  0  0  0  0  0  0  0  0  0  0
  152.7814  136.5490  187.4500 C   0  0  0  0  0  0  0  0  0  0  0  0
  151.6755  137.3036  187.6931 O   0  0  0  0  0  0  0  0  0  0  0  0
  153.7320  136.7680  188.4244 N   0  0  0  0  0  0  0  0  0  0  0  0
  153.4821  137.6780  189.5787 C   0  0  0  0  0  0  0  0  0  0  0  0
  154.6818  138.5945  189.4588 C   0  0  0  0  0  0  0  0  0  0  0  0
  155.7768  137.6585  189.0742 C   0  0  0  0  0  0  0  0  0  0  0  0
  155.0690  136.3524  188.6280 C   0  0  0  0  0  0  0  0  0  0  0  0
  155.2981  135.4081  189.7342 C   0  0  0  0  0  0  0  0  0  0  0  0
  156.3607  135.4378  190.3771 O   0  0  0  0  0  0  0  0  0  0  0  0
  154.3005  134.4589  190.0644 N   0  0  0  0  0  0  0  0  0  0  0  0
  153.3890  134.4041  189.5608 H   0  0  0  0  0  0  0  0  0  0  0  0
  154.5508  133.5024  191.1609 C   0  0  0  0  0  0  0  0  0  0  0  0
  154.8802  132.1782  190.6199 C   0  0  0  0  0  0  0  0  0  0  0  0
  153.9467  131.4654  190.0918 O   0  0  0  0  0  0  0  0  0  0  0  0
  156.1170  131.6130  190.6184 O   0  0  0  0  0  0  0  0  0  0  0  0
  157.2180  132.1737  191.3503 C   0  0  0  0  0  0  0  0  0  0  0  0
  153.3287  133.4479  192.0193 C   0  0  0  0  0  0  0  0  0  0  0  0
  152.6142  134.7018  192.2205 C   0  0  0  0  0  0  0  0  0  0  0  0
  151.3518  134.8069  191.6408 C   0  0  0  0  0  0  0  0  0  0  0  0
  150.6440  135.9592  191.8273 C   0  0  0  0  0  0  0  0  0  0  0  0
  151.1322  137.0166  192.5659 C   0  0  0  0  0  0  0  0  0  0  0  0
  152.4095  136.8762  193.1380 C   0  0  0  0  0  0  0  0  0  0  0  0
  153.1264  135.7365  192.9605 C   0  0  0  0  0  0  0  0  0  0  0  0
  153.4814  137.5632  184.6680 C   0  0  0  0  0  0  0  0  0  0  0  0
  154.6472  137.2038  185.0760 O   0  0  0  0  0  0  0  0  0  0  0  0
  152.3846  136.8939  185.2130 N   0  0  0  0  0  0  0  0  0  0  0  0
  151.4083  137.1185  184.9474 H   0  0  0  0  0  0  0  0  0  0  0  0
  153.4561  138.6324  183.6909 C   0  0  0  0  0  0  0  0  0  0  0  0
  154.6997  139.3549  183.6173 N   0  0  0  0  0  0  0  0  0  0  0  0
  154.9374  140.7343  183.5898 C   0  0  0  0  0  0  0  0  0  0  0  0
  154.1100  141.6640  183.6160 O   0  0  0  0  0  0  0  0  0  0  0  0
  155.5991  138.7462  183.5765 H   0  0  0  0  0  0  0  0  0  0  0  0
  156.2821  141.1927  183.5197 O   0  0  0  0  0  0  0  0  0  0  0  0
  157.1916  140.6838  182.5789 C   0  0  0  0  0  0  0  0  0  0  0  0
  157.8379  141.6879  181.7424 C   0  0  0  0  0  0  0  0  0  0  0  0
  158.0390  141.4317  180.3898 C   0  0  0  0  0  0  0  0  0  0  0  0
  158.6439  142.3248  179.5438 C   0  0  0  0  0  0  0  0  0  0  0  0
  159.0847  143.5491  180.0380 C   0  0  0  0  0  0  0  0  0  0  0  0
  158.8891  143.8131  181.3813 C   0  0  0  0  0  0  0  0  0  0  0  0
  158.2773  142.9014  182.2196 C   0  0  0  0  0  0  0  0  0  0  0  0
  153.0355  138.2479  182.2897 C   0  0  0  0  0  0  0  0  0  0  0  0
  152.5438  136.8120  182.1786 C   0  0  0  0  0  0  0  0  0  0  0  0
  152.1776  140.2113  180.9618 C   0  0  0  0  0  0  0  0  0  0  0  0
  151.8259  139.1051  181.9377 C   0  0  0  0  0  0  0  0  0  0  0  0
  153.4724  134.7858  185.6878 C   0  0  0  0  0  0  0  0  0  0  0  0
  154.0512  133.7188  186.5590 C   0  0  0  0  0  0  0  0  0  0  0  0
  152.9732  132.7895  187.0611 C   0  0  0  0  0  0  0  0  0  0  0  0
  152.6781  131.7660  186.4076 O   0  0  0  0  0  0  0  0  0  0  0  0
  152.2815  133.0284  188.2450 O   0  0  0  0  0  0  0  0  0  0  0  0
  151.8991  132.3097  188.8136 H   0  0  0  0  0  0  0  0  0  0  0  0
 44 45  1  0  0  0
 45 42  1  0  0  0
 42 43  1  0  0  0
 42 29  1  0  0  0
 29 30  1  0  0  0
 30 31  1  0  0  0
 31 32  2  0  0  0
 31 34  1  0  0  0
 34 35  1  0  0  0
 35 36  1  0  0  0
 36 37  2  0  0  0
 37 38  1  0  0  0
 38 39  2  0  0  0
 39 40  1  0  0  0
 40 41  2  0  0  0
 29 25  1  0  0  0
 25 26  2  0  0  0
 25 27  1  0  0  0
 27  1  1  0  0  0
  1 46  1  0  0  0
 46 47  1  0  0  0
 47 48  1  0  0  0
 48 49  2  0  0  0
 48 50  1  0  0  0
  1  2  1  0  0  0
  2  3  2  0  0  0
  2  4  1  0  0  0
  4  5  1  0  0  0
  5  6  1  0  0  0
  6  7  1  0  0  0
  7  8  1  0  0  0
  8  9  1  0  0  0
  9 10  2  0  0  0
  9 11  1  0  0  0
 11 13  1  0  0  0
 13 18  1  0  0  0
 18 19  1  0  0  0
 19 20  2  0  0  0
 20 21  1  0  0  0
 21 22  2  0  0  0
 22 23  1  0  0  0
 23 24  2  0  0  0
 13 14  1  0  0  0
 14 15  2  0  0  0
 14 16  1  0  0  0
 16 17  1  0  0  0
 41 36  1  0  0  0
  8  4  1  0  0  0
 24 19  1  0  0  0
 30 33  1  0  0  0
 27 28  1  0  0  0
 50 51  1  0  0  0
 11 12  1  0  0  0
M  END
> <minimizedAffinity>
-6.42596

> <CNNscore>
0.3515552282

> <CNNaffinity>
6.2644863129

> <CNN_VS>
2.2023129463

> <CNNaffinity_variance>
0.1582470387

$$$$
[H]OC(=O)C([H])([H])C([H])([H])[C@@]([H])(C(=O)N1C([H])([H])C([H])([H])C([H])([H])[C@@]1([H])C(=O)N([H])[C@]([H])(C(=O)OC([H])([H])[H])C([H])([H])c1c([H])c([H])c([H])c([H])c1[H])N([H])C(=O)[C@@]([H])(N([H])C(=O)OC([H])([H])c1c([H])c([H])c([H])c([H])c1[H])[C@@]([H])(C([H])([H])[H])C([H])([H])C([H])([H])[H]


 51 53  0  0  0  0  0  0  0  0999 V2000
  154.7029  137.8507  185.0016 C   0  0  0  0  0  0  0  0  0  0  0  0
  154.4386  139.1853  184.5438 C   0  0  0  0  0  0  0  0  0  0  0  0
  153.1915  139.5627  184.9360 O   0  0  0  0  0  0  0  0  0  0  0  0
  155.0412  140.1988  183.8292 N   0  0  0  0  0  0  0  0  0  0  0  0
  154.3727  141.5132  183.6093 C   0  0  0  0  0  0  0  0  0  0  0  0
  154.4589  141.6056  182.1001 C   0  0  0  0  0  0  0  0  0  0  0  0
  155.8127  141.0519  181.8110 C   0  0  0  0  0  0  0  0  0  0  0  0
  156.2537  140.3324  183.1124 C   0  0  0  0  0  0  0  0  0  0  0  0
  157.2676  141.2212  183.7040 C   0  0  0  0  0  0  0  0  0  0  0  0
  157.4649  141.2220  184.9306 O   0  0  0  0  0  0  0  0  0  0  0  0
  158.0199  142.0817  182.8682 N   0  0  0  0  0  0  0  0  0  0  0  0
  157.8973  142.1072  181.8329 H   0  0  0  0  0  0  0  0  0  0  0  0
  159.0179  142.9846  183.4754 C   0  0  0  0  0  0  0  0  0  0  0  0
  159.1990  144.1806  182.6438 C   0  0  0  0  0  0  0  0  0  0  0  0
  159.8912  145.1652  183.1019 O   0  0  0  0  0  0  0  0  0  0  0  0
  158.6935  144.3550  181.3936 O   0  0  0  0  0  0  0  0  0  0  0  0
  159.3970  143.9318  180.2153 C   0  0  0  0  0  0  0  0  0  0  0  0
  160.2990  142.2298  183.6246 C   0  0  0  0  0  0  0  0  0  0  0  0
  161.0340  142.4279  184.8671 C   0  0  0  0  0  0  0  0  0  0  0  0
  162.4105  142.2175  184.8244 C   0  0  0  0  0  0  0  0  0  0  0  0
  163.1347  142.4156  185.9646 C   0  0  0  0  0  0  0  0  0  0  0  0
  162.5544  142.8151  187.1502 C   0  0  0  0  0  0  0  0  0  0  0  0
  161.1628  143.0195  187.1573 C   0  0  0  0  0  0  0  0  0  0  0  0
  160.4285  142.8255  186.0315 C   0  0  0  0  0  0  0  0  0  0  0  0
  154.9791  137.9646  187.5288 C   0  0  0  0  0  0  0  0  0  0  0  0
  156.2437  137.9812  187.2937 O   0  0  0  0  0  0  0  0  0  0  0  0
  154.1294  137.8999  186.4234 N   0  0  0  0  0  0  0  0  0  0  0  0
  153.0975  137.8779  186.5161 H   0  0  0  0  0  0  0  0  0  0  0  0
  154.5956  138.0081  188.9250 C   0  0  0  0  0  0  0  0  0  0  0  0
  153.7347  136.9177  189.3047 N   0  0  0  0  0  0  0  0  0  0  0  0
  152.4985  136.5237  188.7789 C   0  0  0  0  0  0  0  0  0  0  0  0
  151.8498  137.0423  187.8516 O   0  0  0  0  0  0  0  0  0  0  0  0
  154.0890  136.2982  190.1243 H   0  0  0  0  0  0  0  0  0  0  0  0
  151.8493  135.3896  189.3409 O   0  0  0  0  0  0  0  0  0  0  0  0
  150.6250  135.4961  190.0199 C   0  0  0  0  0  0  0  0  0  0  0  0
  150.7348  135.6569  191.4648 C   0  0  0  0  0  0  0  0  0  0  0  0
  149.8400  134.9971  192.3012 C   0  0  0  0  0  0  0  0  0  0  0  0
  149.8785  135.1048  193.6673 C   0  0  0  0  0  0  0  0  0  0  0  0
  150.8475  135.9044  194.2665 C   0  0  0  0  0  0  0  0  0  0  0  0
  151.7418  136.5641  193.4434 C   0  0  0  0  0  0  0  0  0  0  0  0
  151.6886  136.4440  192.0683 C   0  0  0  0  0  0  0  0  0  0  0  0
  155.7253  138.1046  189.9262 C   0  0  0  0  0  0  0  0  0  0  0  0
  155.3315  138.8095  191.2162 C   0  0  0  0  0  0  0  0  0  0  0  0
  156.2193  136.5524  191.8499 C   0  0  0  0  0  0  0  0  0  0  0  0
  156.0699  136.6811  190.3463 C   0  0  0  0  0  0  0  0  0  0  0  0
  154.2895  136.6077  184.3843 C   0  0  0  0  0  0  0  0  0  0  0  0
  153.2469  136.6123  183.3141 C   0  0  0  0  0  0  0  0  0  0  0  0
  151.8723  136.4004  183.9002 C   0  0  0  0  0  0  0  0  0  0  0  0
  151.1034  135.5538  183.3965 O   0  0  0  0  0  0  0  0  0  0  0  0
  151.4167  137.1212  185.0002 O   0  0  0  0  0  0  0  0  0  0  0  0
  150.7555  136.7703  185.6527 H   0  0  0  0  0  0  0  0  0  0  0  0
 44 45  1  0  0  0
 45 42  1  0  0  0
 42 43  1  0  0  0
 42 29  1  0  0  0
 29 30  1  0  0  0
 30 31  1  0  0  0
 31 32  2  0  0  0
 31 34  1  0  0  0
 34 35  1  0  0  0
 35 36  1  0  0  0
 36 37  2  0  0  0
 37 38  1  0  0  0
 38 39  2  0  0  0
 39 40  1  0  0  0
 40 41  2  0  0  0
 29 25  1  0  0  0
 25 26  2  0  0  0
 25 27  1  0  0  0
 27  1  1  0  0  0
  1 46  1  0  0  0
 46 47  1  0  0  0
 47 48  1  0  0  0
 48 49  2  0  0  0
 48 50  1  0  0  0
  1  2  1  0  0  0
  2  3  2  0  0  0
  2  4  1  0  0  0
  4  5  1  0  0  0
  5  6  1  0  0  0
  6  7  1  0  0  0
  7  8  1  0  0  0
  8  9  1  0  0  0
  9 10  2  0  0  0
  9 11  1  0  0  0
 11 13  1  0  0  0
 13 18  1  0  0  0
 18 19  1  0  0  0
 19 20  2  0  0  0
 20 21  1  0  0  0
 21 22  2  0  0  0
 22 23  1  0  0  0
 23 24  2  0  0  0
 13 14  1  0  0  0
 14 15  2  0  0  0
 14 16  1  0  0  0
 16 17  1  0  0  0
 41 36  1  0  0  0
  8  4  1  0  0  0
 24 19  1  0  0  0
 30 33  1  0  0  0
 27 28  1  0  0  0
 50 51  1  0  0  0
 11 12  1  0  0  0
M  END
> <minimizedAffinity>
-8.15244

> <CNNscore>
0.2840968668

> <CNNaffinity>
6.7841901779

> <CNN_VS>
1.9273672104

> <CNNaffinity_variance>
0.0465983823

$$$$
[H]OC(=O)C([H])([H])C([H])([H])[C@@]([H])(C(=O)N1C([H])([H])C([H])([H])C([H])([H])[C@@]1([H])C(=O)N([H])[C@]([H])(C(=O)OC([H])([H])[H])C([H])([H])c1c([H])c([H])c([H])c([H])c1[H])N([H])C(=O)[C@@]([H])(N([H])C(=O)OC([H])([H])c1c([H])c([H])c([H])c([H])c1[H])[C@@]([H])(C([H])([H])[H])C([H])([H])C([H])([H])[H]


 51 53  0  0  0  0  0  0  0  0999 V2000
  153.8309  136.4072  186.8082 C   0  0  0  0  0  0  0  0  0  0  0  0
  153.8617  137.0236  188.1042 C   0  0  0  0  0  0  0  0  0  0  0  0
  152.7979  137.8619  188.2353 O   0  0  0  0  0  0  0  0  0  0  0  0
  154.6279  137.0422  189.2504 N   0  0  0  0  0  0  0  0  0  0  0  0
  154.2443  137.8527  190.4416 C   0  0  0  0  0  0  0  0  0  0  0  0
  155.5186  138.6454  190.6449 C   0  0  0  0  0  0  0  0  0  0  0  0
  156.5827  137.6429  190.3522 C   0  0  0  0  0  0  0  0  0  0  0  0
  155.8629  136.4700  189.6367 C   0  0  0  0  0  0  0  0  0  0  0  0
  155.7995  135.4004  190.6465 C   0  0  0  0  0  0  0  0  0  0  0  0
  156.5608  135.4159  191.6281 O   0  0  0  0  0  0  0  0  0  0  0  0
  154.8658  134.3467  190.4948 N   0  0  0  0  0  0  0  0  0  0  0  0
  154.1994  134.2979  189.6941 H   0  0  0  0  0  0  0  0  0  0  0  0
  154.8269  133.2678  191.5019 C   0  0  0  0  0  0  0  0  0  0  0  0
  155.4983  132.0665  190.9913 C   0  0  0  0  0  0  0  0  0  0  0  0
  154.8082  130.9973  190.7936 O   0  0  0  0  0  0  0  0  0  0  0  0
  156.8215  131.9698  190.6932 O   0  0  0  0  0  0  0  0  0  0  0  0
  157.8316  131.8675  191.7088 C   0  0  0  0  0  0  0  0  0  0  0  0
  153.3961  132.9897  191.8315 C   0  0  0  0  0  0  0  0  0  0  0  0
  152.8717  133.6080  193.0424 C   0  0  0  0  0  0  0  0  0  0  0  0
  152.8492  135.0004  193.0791 C   0  0  0  0  0  0  0  0  0  0  0  0
  152.3439  135.6141  194.1890 C   0  0  0  0  0  0  0  0  0  0  0  0
  151.8571  134.9074  195.2686 C   0  0  0  0  0  0  0  0  0  0  0  0
  151.8939  133.5031  195.1975 C   0  0  0  0  0  0  0  0  0  0  0  0
  152.3947  132.8780  194.1008 C   0  0  0  0  0  0  0  0  0  0  0  0
  155.1367  138.2851  185.6929 C   0  0  0  0  0  0  0  0  0  0  0  0
  156.1600  137.8122  186.3125 O   0  0  0  0  0  0  0  0  0  0  0  0
  153.9189  137.6318  185.8890 N   0  0  0  0  0  0  0  0  0  0  0  0
  153.0413  137.9440  185.4346 H   0  0  0  0  0  0  0  0  0  0  0  0
  155.3806  139.4511  184.8687 C   0  0  0  0  0  0  0  0  0  0  0  0
  156.7823  139.7046  184.6559 N   0  0  0  0  0  0  0  0  0  0  0  0
  157.4778  140.9184  184.6012 C   0  0  0  0  0  0  0  0  0  0  0  0
  157.0305  142.0741  184.7194 O   0  0  0  0  0  0  0  0  0  0  0  0
  157.4062  138.8260  184.5149 H   0  0  0  0  0  0  0  0  0  0  0  0
  158.8827  140.8893  184.3807 O   0  0  0  0  0  0  0  0  0  0  0  0
  159.4327  140.5007  183.1487 C   0  0  0  0  0  0  0  0  0  0  0  0
  159.0402  141.3253  182.0122 C   0  0  0  0  0  0  0  0  0  0  0  0
  159.2977  142.6923  182.0316 C   0  0  0  0  0  0  0  0  0  0  0  0
  158.9530  143.5305  181.0030 C   0  0  0  0  0  0  0  0  0  0  0  0
  158.3160  143.0128  179.8788 C   0  0  0  0  0  0  0  0  0  0  0  0
  158.0560  141.6549  179.8501 C   0  0  0  0  0  0  0  0  0  0  0  0
  158.4106  140.8247  180.8958 C   0  0  0  0  0  0  0  0  0  0  0  0
  154.6738  139.4847  183.5318 C   0  0  0  0  0  0  0  0  0  0  0  0
  153.4480  138.5846  183.4732 C   0  0  0  0  0  0  0  0  0  0  0  0
  154.7121  141.5758  182.1247 C   0  0  0  0  0  0  0  0  0  0  0  0
  154.1322  140.8974  183.3507 C   0  0  0  0  0  0  0  0  0  0  0  0
  154.7198  135.3854  186.2954 C   0  0  0  0  0  0  0  0  0  0  0  0
  154.1761  134.2609  185.4755 C   0  0  0  0  0  0  0  0  0  0  0  0
  153.6863  134.7577  184.1372 C   0  0  0  0  0  0  0  0  0  0  0  0
  154.5072  135.1309  183.2721 O   0  0  0  0  0  0  0  0  0  0  0  0
  152.3325  134.8174  183.8194 O   0  0  0  0  0  0  0  0  0  0  0  0
  151.9798  134.7292  182.8953 H   0  0  0  0  0  0  0  0  0  0  0  0
 44 45  1  0  0  0
 45 42  1  0  0  0
 42 43  1  0  0  0
 42 29  1  0  0  0
 29 30  1  0  0  0
 30 31  1  0  0  0
 31 32  2  0  0  0
 31 34  1  0  0  0
 34 35  1  0  0  0
 35 36  1  0  0  0
 36 37  2  0  0  0
 37 38  1  0  0  0
 38 39  2  0  0  0
 39 40  1  0  0  0
 40 41  2  0  0  0
 29 25  1  0  0  0
 25 26  2  0  0  0
 25 27  1  0  0  0
 27  1  1  0  0  0
  1 46  1  0  0  0
 46 47  1  0  0  0
 47 48  1  0  0  0
 48 49  2  0  0  0
 48 50  1  0  0  0
  1  2  1  0  0  0
  2  3  2  0  0  0
  2  4  1  0  0  0
  4  5  1  0  0  0
  5  6  1  0  0  0
  6  7  1  0  0  0
  7  8  1  0  0  0
  8  9  1  0  0  0
  9 10  2  0  0  0
  9 11  1  0  0  0
 11 13  1  0  0  0
 13 18  1  0  0  0
 18 19  1  0  0  0
 19 20  2  0  0  0
 20 21  1  0  0  0
 21 22  2  0  0  0
 22 23  1  0  0  0
 23 24  2  0  0  0
 13 14  1  0  0  0
 14 15  2  0  0  0
 14 16  1  0  0  0
 16 17  1  0  0  0
 41 36  1  0  0  0
  8  4  1  0  0  0
 24 19  1  0  0  0
 30 33  1  0  0  0
 27 28  1  0  0  0
 50 51  1  0  0  0
 11 12  1  0  0  0
M  END
> <minimizedAffinity>
-7.02449

> <CNNscore>
0.2428988069

> <CNNaffinity>
6.2016692162

> <CNN_VS>
1.5063780546

> <CNNaffinity_variance>
0.1309430301

$$$$
[H]OC(=O)C([H])([H])C([H])([H])[C@@]([H])(C(=O)N1C([H])([H])C([H])([H])C([H])([H])[C@@]1([H])C(=O)N([H])[C@]([H])(C(=O)OC([H])([H])[H])C([H])([H])c1c([H])c([H])c([H])c([H])c1[H])N([H])C(=O)[C@@]([H])(N([H])C(=O)OC([H])([H])c1c([H])c([H])c([H])c([H])c1[H])[C@@]([H])(C([H])([H])[H])C([H])([H])C([H])([H])[H]


 51 53  0  0  0  0  0  0  0  0999 V2000
  151.4954  135.9567  184.6865 C   0  0  0  0  0  0  0  0  0  0  0  0
  151.8545  136.5118  185.9606 C   0  0  0  0  0  0  0  0  0  0  0  0
  150.7317  136.9177  186.6134 O   0  0  0  0  0  0  0  0  0  0  0  0
  152.9715  136.7707  186.7264 N   0  0  0  0  0  0  0  0  0  0  0  0
  152.8714  137.3638  188.0907 C   0  0  0  0  0  0  0  0  0  0  0  0
  153.8003  138.5495  187.9335 C   0  0  0  0  0  0  0  0  0  0  0  0
  154.9093  137.9943  187.1059 C   0  0  0  0  0  0  0  0  0  0  0  0
  154.3678  136.6612  186.5265 C   0  0  0  0  0  0  0  0  0  0  0  0
  155.0575  135.6130  187.2969 C   0  0  0  0  0  0  0  0  0  0  0  0
  154.5689  134.4744  187.3877 O   0  0  0  0  0  0  0  0  0  0  0  0
  156.2844  135.9072  187.9398 N   0  0  0  0  0  0  0  0  0  0  0  0
  156.7380  136.8444  187.8819 H   0  0  0  0  0  0  0  0  0  0  0  0
  156.9554  134.8544  188.7281 C   0  0  0  0  0  0  0  0  0  0  0  0
  156.9299  135.1901  190.1568 C   0  0  0  0  0  0  0  0  0  0  0  0
  156.3088  136.2504  190.5420 O   0  0  0  0  0  0  0  0  0  0  0  0
  157.5147  134.4648  191.1472 O   0  0  0  0  0  0  0  0  0  0  0  0
  157.2571  133.0634  191.3268 C   0  0  0  0  0  0  0  0  0  0  0  0
  158.3573  134.7206  188.2282 C   0  0  0  0  0  0  0  0  0  0  0  0
  158.7050  133.4597  187.5857 C   0  0  0  0  0  0  0  0  0  0  0  0
  157.7096  132.8418  186.8320 C   0  0  0  0  0  0  0  0  0  0  0  0
  158.0066  131.6702  186.1974 C   0  0  0  0  0  0  0  0  0  0  0  0
  159.2509  131.0807  186.2756 C   0  0  0  0  0  0  0  0  0  0  0  0
  160.2326  131.7321  187.0440 C   0  0  0  0  0  0  0  0  0  0  0  0
  159.9521  132.8976  187.6822 C   0  0  0  0  0  0  0  0  0  0  0  0
  152.2224  137.8298  183.1249 C   0  0  0  0  0  0  0  0  0  0  0  0
  153.3821  137.2740  183.1537 O   0  0  0  0  0  0  0  0  0  0  0  0
  151.2110  137.2258  183.8734 N   0  0  0  0  0  0  0  0  0  0  0  0
  150.2473  137.6050  183.9135 H   0  0  0  0  0  0  0  0  0  0  0  0
  152.1159  139.0276  182.3171 C   0  0  0  0  0  0  0  0  0  0  0  0
  153.3962  139.6048  181.9979 N   0  0  0  0  0  0  0  0  0  0  0  0
  154.2743  140.3430  182.8004 C   0  0  0  0  0  0  0  0  0  0  0  0
  154.1393  140.6789  183.9915 O   0  0  0  0  0  0  0  0  0  0  0  0
  153.7449  139.4499  180.9804 H   0  0  0  0  0  0  0  0  0  0  0  0
  155.4963  140.7987  182.2327 O   0  0  0  0  0  0  0  0  0  0  0  0
  156.0135  142.0741  182.5103 C   0  0  0  0  0  0  0  0  0  0  0  0
  157.1217  142.4876  181.6579 C   0  0  0  0  0  0  0  0  0  0  0  0
  157.5089  141.6816  180.5921 C   0  0  0  0  0  0  0  0  0  0  0  0
  158.5439  142.0024  179.7525 C   0  0  0  0  0  0  0  0  0  0  0  0
  159.2535  143.1824  179.9561 C   0  0  0  0  0  0  0  0  0  0  0  0
  158.8760  143.9905  181.0129 C   0  0  0  0  0  0  0  0  0  0  0  0
  157.8300  143.6517  181.8493 C   0  0  0  0  0  0  0  0  0  0  0  0
  151.3084  138.9059  181.0439 C   0  0  0  0  0  0  0  0  0  0  0  0
  149.8332  139.2302  181.2302 C   0  0  0  0  0  0  0  0  0  0  0  0
  150.8491  140.2458  178.9588 C   0  0  0  0  0  0  0  0  0  0  0  0
  151.8263  139.9711  180.0854 C   0  0  0  0  0  0  0  0  0  0  0  0
  152.2748  135.0530  183.8661 C   0  0  0  0  0  0  0  0  0  0  0  0
  153.0145  133.9178  184.4958 C   0  0  0  0  0  0  0  0  0  0  0  0
  154.4102  133.8057  183.9325 C   0  0  0  0  0  0  0  0  0  0  0  0
  155.1884  132.9285  184.3645 O   0  0  0  0  0  0  0  0  0  0  0  0
  154.8755  134.6538  182.9318 O   0  0  0  0  0  0  0  0  0  0  0  0
  155.5643  134.3931  182.2657 H   0  0  0  0  0  0  0  0  0  0  0  0
 44 45  1  0  0  0
 45 42  1  0  0  0
 42 43  1  0  0  0
 42 29  1  0  0  0
 29 30  1  0  0  0
 30 31  1  0  0  0
 31 32  2  0  0  0
 31 34  1  0  0  0
 34 35  1  0  0  0
 35 36  1  0  0  0
 36 37  2  0  0  0
 37 38  1  0  0  0
 38 39  2  0  0  0
 39 40  1  0  0  0
 40 41  2  0  0  0
 29 25  1  0  0  0
 25 26  2  0  0  0
 25 27  1  0  0  0
 27  1  1  0  0  0
  1 46  1  0  0  0
 46 47  1  0  0  0
 47 48  1  0  0  0
 48 49  2  0  0  0
 48 50  1  0  0  0
  1  2  1  0  0  0
  2  3  2  0  0  0
  2  4  1  0  0  0
  4  5  1  0  0  0
  5  6  1  0  0  0
  6  7  1  0  0  0
  7  8  1  0  0  0
  8  9  1  0  0  0
  9 10  2  0  0  0
  9 11  1  0  0  0
 11 13  1  0  0  0
 13 18  1  0  0  0
 18 19  1  0  0  0
 19 20  2  0  0  0
 20 21  1  0  0  0
 21 22  2  0  0  0
 22 23  1  0  0  0
 23 24  2  0  0  0
 13 14  1  0  0  0
 14 15  2  0  0  0
 14 16  1  0  0  0
 16 17  1  0  0  0
 41 36  1  0  0  0
  8  4  1  0  0  0
 24 19  1  0  0  0
 30 33  1  0  0  0
 27 28  1  0  0  0
 50 51  1  0  0  0
 11 12  1  0  0  0
M  END
> <minimizedAffinity>
-7.32400

> <CNNscore>
0.2268260121

> <CNNaffinity>
5.9879198074

> <CNN_VS>
1.3582159281

> <CNNaffinity_variance>
0.1774650365

$$$$
[H]OC(=O)C([H])([H])C([H])([H])[C@@]([H])(C(=O)N1C([H])([H])C([H])([H])C([H])([H])[C@@]1([H])C(=O)N([H])[C@]([H])(C(=O)OC([H])([H])[H])C([H])([H])c1c([H])c([H])c([H])c([H])c1[H])N([H])C(=O)[C@@]([H])(N([H])C(=O)OC([H])([H])c1c([H])c([H])c([H])c([H])c1[H])[C@@]([H])(C([H])([H])[H])C([H])([H])C([H])([H])[H]


 51 53  0  0  0  0  0  0  0  0999 V2000
  150.8623  137.4751  182.3323 C   0  0  0  0  0  0  0  0  0  0  0  0
  152.1070  136.8209  182.6211 C   0  0  0  0  0  0  0  0  0  0  0  0
  152.3808  135.9120  181.6462 O   0  0  0  0  0  0  0  0  0  0  0  0
  153.1049  136.8152  183.5725 N   0  0  0  0  0  0  0  0  0  0  0  0
  154.3084  135.9441  183.4470 C   0  0  0  0  0  0  0  0  0  0  0  0
  154.2590  135.2292  184.7811 C   0  0  0  0  0  0  0  0  0  0  0  0
  153.8330  136.3070  185.7191 C   0  0  0  0  0  0  0  0  0  0  0  0
  153.3002  137.4532  184.8201 C   0  0  0  0  0  0  0  0  0  0  0  0
  154.3506  138.4839  184.8692 C   0  0  0  0  0  0  0  0  0  0  0  0
  155.0492  138.6224  185.8871 O   0  0  0  0  0  0  0  0  0  0  0  0
  154.5628  139.3233  183.7487 N   0  0  0  0  0  0  0  0  0  0  0  0
  154.0092  139.2364  182.8692 H   0  0  0  0  0  0  0  0  0  0  0  0
  155.6038  140.3680  183.8179 C   0  0  0  0  0  0  0  0  0  0  0  0
  155.3183  141.4395  182.8562 C   0  0  0  0  0  0  0  0  0  0  0  0
  154.8227  141.1365  181.7068 O   0  0  0  0  0  0  0  0  0  0  0  0
  155.5297  142.7659  183.0685 O   0  0  0  0  0  0  0  0  0  0  0  0
  156.5602  143.4977  182.3866 C   0  0  0  0  0  0  0  0  0  0  0  0
  156.9251  139.7279  183.5390 C   0  0  0  0  0  0  0  0  0  0  0  0
  158.1109  140.4740  183.9397 C   0  0  0  0  0  0  0  0  0  0  0  0
  158.1220  140.9905  185.2335 C   0  0  0  0  0  0  0  0  0  0  0  0
  159.2263  141.6762  185.6510 C   0  0  0  0  0  0  0  0  0  0  0  0
  160.3251  141.8736  184.8413 C   0  0  0  0  0  0  0  0  0  0  0  0
  160.2805  141.3376  183.5416 C   0  0  0  0  0  0  0  0  0  0  0  0
  159.1887  140.6541  183.1113 C   0  0  0  0  0  0  0  0  0  0  0  0
  149.3143  136.4622  184.0797 C   0  0  0  0  0  0  0  0  0  0  0  0
  149.0965  135.5379  183.2120 O   0  0  0  0  0  0  0  0  0  0  0  0
  150.1962  137.4804  183.7139 N   0  0  0  0  0  0  0  0  0  0  0  0
  150.4285  138.2681  184.3459 H   0  0  0  0  0  0  0  0  0  0  0  0
  148.6034  136.3304  185.3350 C   0  0  0  0  0  0  0  0  0  0  0  0
  149.4012  136.7057  186.4738 N   0  0  0  0  0  0  0  0  0  0  0  0
  150.4197  136.0026  187.1284 C   0  0  0  0  0  0  0  0  0  0  0  0
  150.8678  134.8698  186.8722 O   0  0  0  0  0  0  0  0  0  0  0  0
  149.1893  137.6831  186.8989 H   0  0  0  0  0  0  0  0  0  0  0  0
  151.0611  136.6120  188.2421 O   0  0  0  0  0  0  0  0  0  0  0  0
  151.9645  135.9085  189.0546 C   0  0  0  0  0  0  0  0  0  0  0  0
  153.0085  136.7241  189.6634 C   0  0  0  0  0  0  0  0  0  0  0  0
  153.5593  137.7833  188.9492 C   0  0  0  0  0  0  0  0  0  0  0  0
  154.5468  138.5891  189.4540 C   0  0  0  0  0  0  0  0  0  0  0  0
  155.0358  138.3559  190.7361 C   0  0  0  0  0  0  0  0  0  0  0  0
  154.4943  137.3053  191.4541 C   0  0  0  0  0  0  0  0  0  0  0  0
  153.4992  136.5032  190.9298 C   0  0  0  0  0  0  0  0  0  0  0  0
  147.2686  137.0364  185.4249 C   0  0  0  0  0  0  0  0  0  0  0  0
  146.3900  136.5262  186.5579 C   0  0  0  0  0  0  0  0  0  0  0  0
  147.1014  139.4407  184.6863 C   0  0  0  0  0  0  0  0  0  0  0  0
  147.5576  138.4905  185.7766 C   0  0  0  0  0  0  0  0  0  0  0  0
  150.6687  138.7759  181.7261 C   0  0  0  0  0  0  0  0  0  0  0  0
  150.2838  138.8825  180.2863 C   0  0  0  0  0  0  0  0  0  0  0  0
  151.3056  139.6799  179.5130 C   0  0  0  0  0  0  0  0  0  0  0  0
  152.5152  139.6055  179.8178 O   0  0  0  0  0  0  0  0  0  0  0  0
  150.9505  140.5094  178.4533 O   0  0  0  0  0  0  0  0  0  0  0  0
  151.5500  140.7116  177.6880 H   0  0  0  0  0  0  0  0  0  0  0  0
 44 45  1  0  0  0
 45 42  1  0  0  0
 42 43  1  0  0  0
 42 29  1  0  0  0
 29 30  1  0  0  0
 30 31  1  0  0  0
 31 32  2  0  0  0
 31 34  1  0  0  0
 34 35  1  0  0  0
 35 36  1  0  0  0
 36 37  2  0  0  0
 37 38  1  0  0  0
 38 39  2  0  0  0
 39 40  1  0  0  0
 40 41  2  0  0  0
 29 25  1  0  0  0
 25 26  2  0  0  0
 25 27  1  0  0  0
 27  1  1  0  0  0
  1 46  1  0  0  0
 46 47  1  0  0  0
 47 48  1  0  0  0
 48 49  2  0  0  0
 48 50  1  0  0  0
  1  2  1  0  0  0
  2  3  2  0  0  0
  2  4  1  0  0  0
  4  5  1  0  0  0
  5  6  1  0  0  0
  6  7  1  0  0  0
  7  8  1  0  0  0
  8  9  1  0  0  0
  9 10  2  0  0  0
  9 11  1  0  0  0
 11 13  1  0  0  0
 13 18  1  0  0  0
 18 19  1  0  0  0
 19 20  2  0  0  0
 20 21  1  0  0  0
 21 22  2  0  0  0
 22 23  1  0  0  0
 23 24  2  0  0  0
 13 14  1  0  0  0
 14 15  2  0  0  0
 14 16  1  0  0  0
 16 17  1  0  0  0
 41 36  1  0  0  0
  8  4  1  0  0  0
 24 19  1  0  0  0
 30 33  1  0  0  0
 27 28  1  0  0  0
 50 51  1  0  0  0
 11 12  1  0  0  0
M  END
> <minimizedAffinity>
-7.72530

> <CNNscore>
0.2027309388

> <CNNaffinity>
6.3069891930

> <CNN_VS>
1.2786217928

> <CNNaffinity_variance>
0.6341351271

$$$$
[H]OC(=O)C([H])([H])C([H])([H])[C@@]([H])(C(=O)N1C([H])([H])C([H])([H])C([H])([H])[C@@]1([H])C(=O)N([H])[C@]([H])(C(=O)OC([H])([H])[H])C([H])([H])c1c([H])c([H])c([H])c([H])c1[H])N([H])C(=O)[C@@]([H])(N([H])C(=O)OC([H])([H])c1c([H])c([H])c([H])c([H])c1[H])[C@@]([H])(C([H])([H])[H])C([H])([H])C([H])([H])[H]


 51 53  0  0  0  0  0  0  0  0999 V2000
  153.2477  135.6127  184.6624 C   0  0  0  0  0  0  0  0  0  0  0  0
  152.0860  135.0703  185.3080 C   0  0  0  0  0  0  0  0  0  0  0  0
  151.5854  134.0486  184.5616 O   0  0  0  0  0  0  0  0  0  0  0  0
  151.3148  135.2601  186.4350 N   0  0  0  0  0  0  0  0  0  0  0  0
  150.1456  134.3887  186.7458 C   0  0  0  0  0  0  0  0  0  0  0  0
  149.0694  135.4401  186.9185 C   0  0  0  0  0  0  0  0  0  0  0  0
  149.7865  136.5340  187.6341 C   0  0  0  0  0  0  0  0  0  0  0  0
  151.2956  136.2081  187.4852 C   0  0  0  0  0  0  0  0  0  0  0  0
  151.7041  135.7202  188.8130 C   0  0  0  0  0  0  0  0  0  0  0  0
  152.4948  134.7677  188.9174 O   0  0  0  0  0  0  0  0  0  0  0  0
  151.1892  136.3402  189.9772 N   0  0  0  0  0  0  0  0  0  0  0  0
  150.5326  137.1494  189.9388 H   0  0  0  0  0  0  0  0  0  0  0  0
  151.5885  135.8277  191.3030 C   0  0  0  0  0  0  0  0  0  0  0  0
  150.4082  135.3962  192.0617 C   0  0  0  0  0  0  0  0  0  0  0  0
  149.4084  134.8853  191.4310 O   0  0  0  0  0  0  0  0  0  0  0  0
  150.2639  135.4827  193.4110 O   0  0  0  0  0  0  0  0  0  0  0  0
  149.7389  134.4019  194.1976 C   0  0  0  0  0  0  0  0  0  0  0  0
  152.3255  136.9127  192.0191 C   0  0  0  0  0  0  0  0  0  0  0  0
  153.7475  137.0402  191.7274 C   0  0  0  0  0  0  0  0  0  0  0  0
  154.5371  135.9123  191.9400 C   0  0  0  0  0  0  0  0  0  0  0  0
  155.8703  135.9884  191.6561 C   0  0  0  0  0  0  0  0  0  0  0  0
  156.4590  137.1362  191.1685 C   0  0  0  0  0  0  0  0  0  0  0  0
  155.6322  138.2557  190.9646 C   0  0  0  0  0  0  0  0  0  0  0  0
  154.3044  138.1960  191.2433 C   0  0  0  0  0  0  0  0  0  0  0  0
  152.6183  137.4238  182.9891 C   0  0  0  0  0  0  0  0  0  0  0  0
  152.8965  136.5515  182.0856 O   0  0  0  0  0  0  0  0  0  0  0  0
  152.7691  137.0291  184.3194 N   0  0  0  0  0  0  0  0  0  0  0  0
  152.5725  137.6652  185.1136 H   0  0  0  0  0  0  0  0  0  0  0  0
  152.1872  138.7192  182.5051 C   0  0  0  0  0  0  0  0  0  0  0  0
  153.2794  139.6375  182.3105 N   0  0  0  0  0  0  0  0  0  0  0  0
  154.1843  140.1672  183.2382 C   0  0  0  0  0  0  0  0  0  0  0  0
  154.2442  139.9648  184.4650 O   0  0  0  0  0  0  0  0  0  0  0  0
  153.4350  139.9787  181.2905 H   0  0  0  0  0  0  0  0  0  0  0  0
  155.1877  141.0632  182.7761 O   0  0  0  0  0  0  0  0  0  0  0  0
  156.4919  140.6313  182.4861 C   0  0  0  0  0  0  0  0  0  0  0  0
  157.3238  141.6079  181.7935 C   0  0  0  0  0  0  0  0  0  0  0  0
  157.3346  142.9312  182.2227 C   0  0  0  0  0  0  0  0  0  0  0  0
  158.0867  143.9048  181.6180 C   0  0  0  0  0  0  0  0  0  0  0  0
  158.8828  143.5780  180.5240 C   0  0  0  0  0  0  0  0  0  0  0  0
  158.8790  142.2649  180.0900 C   0  0  0  0  0  0  0  0  0  0  0  0
  158.1148  141.2963  180.7116 C   0  0  0  0  0  0  0  0  0  0  0  0
  151.3293  138.7159  181.2592 C   0  0  0  0  0  0  0  0  0  0  0  0
  149.8689  139.0477  181.5299 C   0  0  0  0  0  0  0  0  0  0  0  0
  150.9220  140.0810  179.1796 C   0  0  0  0  0  0  0  0  0  0  0  0
  151.8307  139.8479  180.3711 C   0  0  0  0  0  0  0  0  0  0  0  0
  154.5923  135.7002  185.1929 C   0  0  0  0  0  0  0  0  0  0  0  0
  154.8105  135.8303  186.6653 C   0  0  0  0  0  0  0  0  0  0  0  0
  154.9950  137.2762  187.0569 C   0  0  0  0  0  0  0  0  0  0  0  0
  154.0053  138.0365  187.1193 O   0  0  0  0  0  0  0  0  0  0  0  0
  156.2453  137.8082  187.3588 O   0  0  0  0  0  0  0  0  0  0  0  0
  156.3843  138.5650  187.9865 H   0  0  0  0  0  0  0  0  0  0  0  0
 44 45  1  0  0  0
 45 42  1  0  0  0
 42 43  1  0  0  0
 42 29  1  0  0  0
 29 30  1  0  0  0
 30 31  1  0  0  0
 31 32  2  0  0  0
 31 34  1  0  0  0
 34 35  1  0  0  0
 35 36  1  0  0  0
 36 37  2  0  0  0
 37 38  1  0  0  0
 38 39  2  0  0  0
 39 40  1  0  0  0
 40 41  2  0  0  0
 29 25  1  0  0  0
 25 26  2  0  0  0
 25 27  1  0  0  0
 27  1  1  0  0  0
  1 46  1  0  0  0
 46 47  1  0  0  0
 47 48  1  0  0  0
 48 49  2  0  0  0
 48 50  1  0  0  0
  1  2  1  0  0  0
  2  3  2  0  0  0
  2  4  1  0  0  0
  4  5  1  0  0  0
  5  6  1  0  0  0
  6  7  1  0  0  0
  7  8  1  0  0  0
  8  9  1  0  0  0
  9 10  2  0  0  0
  9 11  1  0  0  0
 11 13  1  0  0  0
 13 18  1  0  0  0
 18 19  1  0  0  0
 19 20  2  0  0  0
 20 21  1  0  0  0
 21 22  2  0  0  0
 22 23  1  0  0  0
 23 24  2  0  0  0
 13 14  1  0  0  0
 14 15  2  0  0  0
 14 16  1  0  0  0
 16 17  1  0  0  0
 41 36  1  0  0  0
  8  4  1  0  0  0
 24 19  1  0  0  0
 30 33  1  0  0  0
 27 28  1  0  0  0
 50 51  1  0  0  0
 11 12  1  0  0  0
M  END
> <minimizedAffinity>
-7.10039

> <CNNscore>
0.1899077147

> <CNNaffinity>
5.9578084946

> <CNN_VS>
1.1314338446

> <CNNaffinity_variance>
0.1901998222

$$$$
[H]OC(=O)C([H])([H])C([H])([H])[C@@]([H])(C(=O)N1C([H])([H])C([H])([H])C([H])([H])[C@@]1([H])C(=O)N([H])[C@]([H])(C(=O)OC([H])([H])[H])C([H])([H])c1c([H])c([H])c([H])c([H])c1[H])N([H])C(=O)[C@@]([H])(N([H])C(=O)OC([H])([H])c1c([H])c([H])c([H])c([H])c1[H])[C@@]([H])(C([H])([H])[H])C([H])([H])C([H])([H])[H]


 51 53  0  0  0  0  0  0  0  0999 V2000
  152.9855  136.8226  184.3275 C   0  0  0  0  0  0  0  0  0  0  0  0
  153.8781  135.7030  184.4293 C   0  0  0  0  0  0  0  0  0  0  0  0
  154.2635  135.3132  183.1839 O   0  0  0  0  0  0  0  0  0  0  0  0
  154.4600  134.8956  185.3835 N   0  0  0  0  0  0  0  0  0  0  0  0
  155.4099  133.8054  185.0202 C   0  0  0  0  0  0  0  0  0  0  0  0
  154.7481  132.6340  185.7156 C   0  0  0  0  0  0  0  0  0  0  0  0
  154.2736  133.2335  186.9956 C   0  0  0  0  0  0  0  0  0  0  0  0
  154.3492  134.7688  186.7883 C   0  0  0  0  0  0  0  0  0  0  0  0
  155.5179  135.1940  187.5765 C   0  0  0  0  0  0  0  0  0  0  0  0
  156.0455  136.3001  187.3728 O   0  0  0  0  0  0  0  0  0  0  0  0
  156.0438  134.3342  188.5711 N   0  0  0  0  0  0  0  0  0  0  0  0
  155.6274  133.4024  188.7851 H   0  0  0  0  0  0  0  0  0  0  0  0
  157.2297  134.7619  189.3396 C   0  0  0  0  0  0  0  0  0  0  0  0
  158.2826  133.7419  189.2659 C   0  0  0  0  0  0  0  0  0  0  0  0
  159.4680  134.0880  188.9006 O   0  0  0  0  0  0  0  0  0  0  0  0
  158.1245  132.4235  189.5590 O   0  0  0  0  0  0  0  0  0  0  0  0
  158.6239  131.8419  190.7734 C   0  0  0  0  0  0  0  0  0  0  0  0
  156.8069  135.0026  190.7526 C   0  0  0  0  0  0  0  0  0  0  0  0
  155.9934  136.1862  190.9993 C   0  0  0  0  0  0  0  0  0  0  0  0
  156.5880  137.4214  190.7512 C   0  0  0  0  0  0  0  0  0  0  0  0
  155.8481  138.5514  190.9501 C   0  0  0  0  0  0  0  0  0  0  0  0
  154.5399  138.5127  191.3849 C   0  0  0  0  0  0  0  0  0  0  0  0
  153.9707  137.2489  191.6244 C   0  0  0  0  0  0  0  0  0  0  0  0
  154.6942  136.1158  191.4324 C   0  0  0  0  0  0  0  0  0  0  0  0
  154.1391  139.0882  184.2181 C   0  0  0  0  0  0  0  0  0  0  0  0
  153.6080  139.3070  185.3691 O   0  0  0  0  0  0  0  0  0  0  0  0
  153.8743  137.8544  183.6217 N   0  0  0  0  0  0  0  0  0  0  0  0
  154.2556  137.5921  182.6944 H   0  0  0  0  0  0  0  0  0  0  0  0
  154.9460  140.1642  183.6799 C   0  0  0  0  0  0  0  0  0  0  0  0
  156.3497  139.8453  183.6364 N   0  0  0  0  0  0  0  0  0  0  0  0
  157.4344  140.4768  184.2567 C   0  0  0  0  0  0  0  0  0  0  0  0
  157.4293  141.4800  184.9938 O   0  0  0  0  0  0  0  0  0  0  0  0
  156.6209  138.9836  183.0323 H   0  0  0  0  0  0  0  0  0  0  0  0
  158.7390  139.9485  184.0511 O   0  0  0  0  0  0  0  0  0  0  0  0
  159.7163  140.6469  183.3242 C   0  0  0  0  0  0  0  0  0  0  0  0
  159.2079  141.4302  182.2045 C   0  0  0  0  0  0  0  0  0  0  0  0
  158.6697  140.7812  181.0980 C   0  0  0  0  0  0  0  0  0  0  0  0
  158.1781  141.4505  180.0073 C   0  0  0  0  0  0  0  0  0  0  0  0
  158.2084  142.8419  179.9838 C   0  0  0  0  0  0  0  0  0  0  0  0
  158.7413  143.4962  181.0794 C   0  0  0  0  0  0  0  0  0  0  0  0
  159.2322  142.8056  182.1705 C   0  0  0  0  0  0  0  0  0  0  0  0
  154.5290  140.7012  182.3287 C   0  0  0  0  0  0  0  0  0  0  0  0
  153.0208  140.7265  182.1273 C   0  0  0  0  0  0  0  0  0  0  0  0
  154.4322  142.9480  183.4674 C   0  0  0  0  0  0  0  0  0  0  0  0
  154.9559  142.1631  182.2802 C   0  0  0  0  0  0  0  0  0  0  0  0
  151.6739  136.8530  183.7142 C   0  0  0  0  0  0  0  0  0  0  0  0
  150.4480  136.8956  184.5673 C   0  0  0  0  0  0  0  0  0  0  0  0
  150.7746  136.5421  185.9978 C   0  0  0  0  0  0  0  0  0  0  0  0
  150.7137  135.3525  186.3757 O   0  0  0  0  0  0  0  0  0  0  0  0
  151.1493  137.5039  186.9315 O   0  0  0  0  0  0  0  0  0  0  0  0
  151.7444  137.3181  187.7045 H   0  0  0  0  0  0  0  0  0  0  0  0
 44 45  1  0  0  0
 45 42  1  0  0  0
 42 43  1  0  0  0
 42 29  1  0  0  0
 29 30  1  0  0  0
 30 31  1  0  0  0
 31 32  2  0  0  0
 31 34  1  0  0  0
 34 35  1  0  0  0
 35 36  1  0  0  0
 36 37  2  0  0  0
 37 38  1  0  0  0
 38 39  2  0  0  0
 39 40  1  0  0  0
 40 41  2  0  0  0
 29 25  1  0  0  0
 25 26  2  0  0  0
 25 27  1  0  0  0
 27  1  1  0  0  0
  1 46  1  0  0  0
 46 47  1  0  0  0
 47 48  1  0  0  0
 48 49  2  0  0  0
 48 50  1  0  0  0
  1  2  1  0  0  0
  2  3  2  0  0  0
  2  4  1  0  0  0
  4  5  1  0  0  0
  5  6  1  0  0  0
  6  7  1  0  0  0
  7  8  1  0  0  0
  8  9  1  0  0  0
  9 10  2  0  0  0
  9 11  1  0  0  0
 11 13  1  0  0  0
 13 18  1  0  0  0
 18 19  1  0  0  0
 19 20  2  0  0  0
 20 21  1  0  0  0
 21 22  2  0  0  0
 22 23  1  0  0  0
 23 24  2  0  0  0
 13 14  1  0  0  0
 14 15  2  0  0  0
 14 16  1  0  0  0
 16 17  1  0  0  0
 41 36  1  0  0  0
  8  4  1  0  0  0
 24 19  1  0  0  0
 30 33  1  0  0  0
 27 28  1  0  0  0
 50 51  1  0  0  0
 11 12  1  0  0  0
M  END
> <minimizedAffinity>
-7.31292

> <CNNscore>
0.1874851733

> <CNNaffinity>
6.1850166321

> <CNN_VS>
1.1595989466

> <CNNaffinity_variance>
0.5451976657

$$$$
[H]Oc1c([H])c([H])c([H])c(C2([H])C([H])([H])N(C([H])([H])C([H])([H])C([H])([H])C([H])([H])C([H])([H])C([H])([H])C([H])([H])C([H])([H])C([H])([H])[H])C([H])([H])C2([H])[H])c1[H]


 22 23  0  0  0  0  0  0  0  0999 V2000
  156.9224  142.0976  182.2076 N   0  0  0  0  0  0  0  0  0  0  0  0
  157.8703  141.3315  181.4455 C   0  0  0  0  0  0  0  0  0  0  0  0
  159.2366  141.8659  181.7945 C   0  0  0  0  0  0  0  0  0  0  0  0
  158.9900  142.7845  182.9557 C   0  0  0  0  0  0  0  0  0  0  0  0
  157.6373  142.4298  183.4491 C   0  0  0  0  0  0  0  0  0  0  0  0
  160.0409  142.6473  184.0027 C   0  0  0  0  0  0  0  0  0  0  0  0
  161.2916  142.2154  183.6189 C   0  0  0  0  0  0  0  0  0  0  0  0
  162.3158  142.0736  184.5612 C   0  0  0  0  0  0  0  0  0  0  0  0
  162.0471  142.3746  185.8783 C   0  0  0  0  0  0  0  0  0  0  0  0
  160.7961  142.8020  186.2353 C   0  0  0  0  0  0  0  0  0  0  0  0
  160.5488  143.0988  187.5651 O   0  0  0  0  0  0  0  0  0  0  0  0
  159.7625  142.9490  185.3086 C   0  0  0  0  0  0  0  0  0  0  0  0
  161.2703  143.0054  188.2746 H   0  0  0  0  0  0  0  0  0  0  0  0
  155.6990  141.4267  182.4986 C   0  0  0  0  0  0  0  0  0  0  0  0
  155.7602  140.4685  183.6449 C   0  0  0  0  0  0  0  0  0  0  0  0
  154.5075  139.6976  183.8689 C   0  0  0  0  0  0  0  0  0  0  0  0
  154.6313  138.4834  184.7274 C   0  0  0  0  0  0  0  0  0  0  0  0
  153.8440  138.6484  186.0522 C   0  0  0  0  0  0  0  0  0  0  0  0
  154.6472  138.1659  187.1961 C   0  0  0  0  0  0  0  0  0  0  0  0
  154.0520  138.1058  188.5351 C   0  0  0  0  0  0  0  0  0  0  0  0
  156.2158  138.0867  189.7218 C   0  0  0  0  0  0  0  0  0  0  0  0
  154.8118  138.5772  189.7202 C   0  0  0  0  0  0  0  0  0  0  0  0
 21 22  1  0  0  0
 22 20  1  0  0  0
 20 19  1  0  0  0
 19 18  1  0  0  0
 18 17  1  0  0  0
 17 16  1  0  0  0
 16 15  1  0  0  0
 15 14  1  0  0  0
 14  1  1  0  0  0
  1  2  1  0  0  0
  2  3  1  0  0  0
  3  4  1  0  0  0
  4  6  1  0  0  0
  6  7  2  0  0  0
  7  8  1  0  0  0
  8  9  2  0  0  0
  9 10  1  0  0  0
 10 11  1  0  0  0
 10 12  2  0  0  0
  4  5  1  0  0  0
  5  1  1  0  0  0
 12  6  1  0  0  0
 11 13  1  0  0  0
M  END
> <minimizedAffinity>
-6.63052

> <CNNscore>
0.6414031386

> <CNNaffinity>
6.3555135727

> <CNN_VS>
4.0764465332

> <CNNaffinity_variance>
0.3015281558

$$$$
[H]Oc1c([H])c([H])c([H])c(C2([H])C([H])([H])N(C([H])([H])C([H])([H])C([H])([H])C([H])([H])C([H])([H])C([H])([H])C([H])([H])C([H])([H])C([H])([H])[H])C([H])([H])C2([H])[H])c1[H]


 22 23  0  0  0  0  0  0  0  0999 V2000
  154.8839  138.4472  185.1299 N   0  0  0  0  0  0  0  0  0  0  0  0
  153.5674  138.8118  185.5775 C   0  0  0  0  0  0  0  0  0  0  0  0
  153.3359  138.0814  186.8764 C   0  0  0  0  0  0  0  0  0  0  0  0
  154.6779  137.5046  187.2217 C   0  0  0  0  0  0  0  0  0  0  0  0
  155.6453  138.2389  186.3708 C   0  0  0  0  0  0  0  0  0  0  0  0
  154.9766  137.6301  188.6759 C   0  0  0  0  0  0  0  0  0  0  0  0
  156.2739  137.8974  189.0547 C   0  0  0  0  0  0  0  0  0  0  0  0
  156.6077  138.0294  190.4068 C   0  0  0  0  0  0  0  0  0  0  0  0
  155.6131  137.8866  191.3491 C   0  0  0  0  0  0  0  0  0  0  0  0
  154.3311  137.6209  190.9479 C   0  0  0  0  0  0  0  0  0  0  0  0
  153.3475  137.4812  191.9127 O   0  0  0  0  0  0  0  0  0  0  0  0
  153.9802  137.4858  189.6035 C   0  0  0  0  0  0  0  0  0  0  0  0
  153.5569  137.5699  192.9031 H   0  0  0  0  0  0  0  0  0  0  0  0
  155.5289  139.4123  184.3028 C   0  0  0  0  0  0  0  0  0  0  0  0
  156.8887  139.8314  184.7623 C   0  0  0  0  0  0  0  0  0  0  0  0
  157.8580  140.0842  183.6623 C   0  0  0  0  0  0  0  0  0  0  0  0
  159.2900  140.2005  184.0660 C   0  0  0  0  0  0  0  0  0  0  0  0
  160.0163  141.3018  183.2526 C   0  0  0  0  0  0  0  0  0  0  0  0
  160.3123  142.4695  184.1102 C   0  0  0  0  0  0  0  0  0  0  0  0
  160.1177  142.3803  185.5610 C   0  0  0  0  0  0  0  0  0  0  0  0
  161.7281  143.7753  186.8065 C   0  0  0  0  0  0  0  0  0  0  0  0
  161.2830  142.3942  186.4807 C   0  0  0  0  0  0  0  0  0  0  0  0
 21 22  1  0  0  0
 22 20  1  0  0  0
 20 19  1  0  0  0
 19 18  1  0  0  0
 18 17  1  0  0  0
 17 16  1  0  0  0
 16 15  1  0  0  0
 15 14  1  0  0  0
 14  1  1  0  0  0
  1  2  1  0  0  0
  2  3  1  0  0  0
  3  4  1  0  0  0
  4  6  1  0  0  0
  6  7  2  0  0  0
  7  8  1  0  0  0
  8  9  2  0  0  0
  9 10  1  0  0  0
 10 11  1  0  0  0
 10 12  2  0  0  0
  4  5  1  0  0  0
  5  1  1  0  0  0
 12  6  1  0  0  0
 11 13  1  0  0  0
M  END
> <minimizedAffinity>
-6.34069

> <CNNscore>
0.6263174415

> <CNNaffinity>
5.6836228371

> <CNN_VS>
3.5597522259

> <CNNaffinity_variance>
0.0181066841

$$$$
[H]Oc1c([H])c([H])c([H])c(C2([H])C([H])([H])N(C([H])([H])C([H])([H])C([H])([H])C([H])([H])C([H])([H])C([H])([H])C([H])([H])C([H])([H])C([H])([H])[H])C([H])([H])C2([H])[H])c1[H]


 22 23  0  0  0  0  0  0  0  0999 V2000
  156.7133  140.6336  183.6792 N   0  0  0  0  0  0  0  0  0  0  0  0
  157.5859  140.5610  182.5392 C   0  0  0  0  0  0  0  0  0  0  0  0
  158.6546  141.6045  182.7471 C   0  0  0  0  0  0  0  0  0  0  0  0
  158.4509  142.0675  184.1603 C   0  0  0  0  0  0  0  0  0  0  0  0
  157.5948  141.0316  184.7872 C   0  0  0  0  0  0  0  0  0  0  0  0
  159.7455  142.2556  184.8730 C   0  0  0  0  0  0  0  0  0  0  0  0
  159.7133  142.6834  186.1822 C   0  0  0  0  0  0  0  0  0  0  0  0
  160.8999  142.8717  186.8988 C   0  0  0  0  0  0  0  0  0  0  0  0
  162.0986  142.6207  186.2683 C   0  0  0  0  0  0  0  0  0  0  0  0
  162.1049  142.1963  184.9663 C   0  0  0  0  0  0  0  0  0  0  0  0
  163.3217  141.9502  184.3527 O   0  0  0  0  0  0  0  0  0  0  0  0
  160.9308  142.0033  184.2362 C   0  0  0  0  0  0  0  0  0  0  0  0
  164.2016  142.0783  184.8447 H   0  0  0  0  0  0  0  0  0  0  0  0
  156.0293  139.4233  183.9937 C   0  0  0  0  0  0  0  0  0  0  0  0
  154.5495  139.5582  184.1611 C   0  0  0  0  0  0  0  0  0  0  0  0
  154.0143  138.9490  185.4084 C   0  0  0  0  0  0  0  0  0  0  0  0
  155.0004  138.2122  186.2520 C   0  0  0  0  0  0  0  0  0  0  0  0
  154.5345  138.1397  187.7285 C   0  0  0  0  0  0  0  0  0  0  0  0
  155.4930  137.3554  188.5365 C   0  0  0  0  0  0  0  0  0  0  0  0
  156.4637  138.0441  189.3933 C   0  0  0  0  0  0  0  0  0  0  0  0
  155.0181  138.8585  191.2202 C   0  0  0  0  0  0  0  0  0  0  0  0
  156.2561  138.1166  190.8615 C   0  0  0  0  0  0  0  0  0  0  0  0
 21 22  1  0  0  0
 22 20  1  0  0  0
 20 19  1  0  0  0
 19 18  1  0  0  0
 18 17  1  0  0  0
 17 16  1  0  0  0
 16 15  1  0  0  0
 15 14  1  0  0  0
 14  1  1  0  0  0
  1  2  1  0  0  0
  2  3  1  0  0  0
  3  4  1  0  0  0
  4  6  1  0  0  0
  6  7  2  0  0  0
  7  8  1  0  0  0
  8  9  2  0  0  0
  9 10  1  0  0  0
 10 11  1  0  0  0
 10 12  2  0  0  0
  4  5  1  0  0  0
  5  1  1  0  0  0
 12  6  1  0  0  0
 11 13  1  0  0  0
M  END
> <minimizedAffinity>
-7.21864

> <CNNscore>
0.6049228311

> <CNNaffinity>
6.0830135345

> <CNN_VS>
3.6797537804

> <CNNaffinity_variance>
0.0638590306

$$$$
[H]Oc1c([H])c([H])c([H])c(C2([H])C([H])([H])N(C([H])([H])C([H])([H])C([H])([H])C([H])([H])C([H])([H])C([H])([H])C([H])([H])C([H])([H])C([H])([H])[H])C([H])([H])C2([H])[H])c1[H]


 22 23  0  0  0  0  0  0  0  0999 V2000
  154.8042  139.6373  183.2243 N   0  0  0  0  0  0  0  0  0  0  0  0
  153.4313  139.2350  183.3635 C   0  0  0  0  0  0  0  0  0  0  0  0
  153.4060  138.1392  184.3993 C   0  0  0  0  0  0  0  0  0  0  0  0
  154.7904  138.1449  184.9790 C   0  0  0  0  0  0  0  0  0  0  0  0
  155.3783  139.4416  184.5641 C   0  0  0  0  0  0  0  0  0  0  0  0
  154.7717  137.9663  186.4580 C   0  0  0  0  0  0  0  0  0  0  0  0
  155.9557  138.1107  187.1475 C   0  0  0  0  0  0  0  0  0  0  0  0
  155.9929  137.9578  188.5376 C   0  0  0  0  0  0  0  0  0  0  0  0
  154.8226  137.6604  189.2004 C   0  0  0  0  0  0  0  0  0  0  0  0
  153.6583  137.5217  188.4930 C   0  0  0  0  0  0  0  0  0  0  0  0
  152.4939  137.2226  189.1804 O   0  0  0  0  0  0  0  0  0  0  0  0
  153.6028  137.6706  187.1061 C   0  0  0  0  0  0  0  0  0  0  0  0
  152.4869  137.1040  190.1896 H   0  0  0  0  0  0  0  0  0  0  0  0
  154.9983  140.9802  182.7878 C   0  0  0  0  0  0  0  0  0  0  0  0
  156.3507  141.5495  183.0755 C   0  0  0  0  0  0  0  0  0  0  0  0
  157.2655  141.5829  181.9026 C   0  0  0  0  0  0  0  0  0  0  0  0
  158.6998  141.8681  182.1995 C   0  0  0  0  0  0  0  0  0  0  0  0
  159.3419  140.7239  183.0247 C   0  0  0  0  0  0  0  0  0  0  0  0
  160.3542  141.2629  183.9581 C   0  0  0  0  0  0  0  0  0  0  0  0
  160.0515  142.4542  184.7581 C   0  0  0  0  0  0  0  0  0  0  0  0
  161.3556  142.9720  186.7884 C   0  0  0  0  0  0  0  0  0  0  0  0
  160.0972  142.3987  186.2410 C   0  0  0  0  0  0  0  0  0  0  0  0
 21 22  1  0  0  0
 22 20  1  0  0  0
 20 19  1  0  0  0
 19 18  1  0  0  0
 18 17  1  0  0  0
 17 16  1  0  0  0
 16 15  1  0  0  0
 15 14  1  0  0  0
 14  1  1  0  0  0
  1  2  1  0  0  0
  2  3  1  0  0  0
  3  4  1  0  0  0
  4  6  1  0  0  0
  6  7  2  0  0  0
  7  8  1  0  0  0
  8  9  2  0  0  0
  9 10  1  0  0  0
 10 11  1  0  0  0
 10 12  2  0  0  0
  4  5  1  0  0  0
  5  1  1  0  0  0
 12  6  1  0  0  0
 11 13  1  0  0  0
M  END
> <minimizedAffinity>
-5.91656

> <CNNscore>
0.5809797049

> <CNNaffinity>
5.7722840309

> <CNN_VS>
3.3535797596

> <CNNaffinity_variance>
0.0954841822

$$$$
[H]Oc1c([H])c([H])c([H])c(C2([H])C([H])([H])N(C([H])([H])C([H])([H])C([H])([H])C([H])([H])C([H])([H])C([H])([H])C([H])([H])C([H])([H])C([H])([H])[H])C([H])([H])C2([H])[H])c1[H]


 22 23  0  0  0  0  0  0  0  0999 V2000
  154.6571  140.2557  184.0135 N   0  0  0  0  0  0  0  0  0  0  0  0
  153.9221  140.4351  182.7914 C   0  0  0  0  0  0  0  0  0  0  0  0
  154.4172  141.7192  182.1749 C   0  0  0  0  0  0  0  0  0  0  0  0
  155.6165  142.0877  182.9987 C   0  0  0  0  0  0  0  0  0  0  0  0
  155.9727  140.8523  183.7377 C   0  0  0  0  0  0  0  0  0  0  0  0
  156.7327  142.5974  182.1539 C   0  0  0  0  0  0  0  0  0  0  0  0
  157.3568  143.7657  182.5330 C   0  0  0  0  0  0  0  0  0  0  0  0
  158.4133  144.2857  181.7776 C   0  0  0  0  0  0  0  0  0  0  0  0
  158.8151  143.6056  180.6492 C   0  0  0  0  0  0  0  0  0  0  0  0
  158.1792  142.4464  180.2927 C   0  0  0  0  0  0  0  0  0  0  0  0
  158.6001  141.7797  179.1544 O   0  0  0  0  0  0  0  0  0  0  0  0
  157.1234  141.9133  181.0343 C   0  0  0  0  0  0  0  0  0  0  0  0
  159.3635  142.1311  178.5831 H   0  0  0  0  0  0  0  0  0  0  0  0
  154.8002  138.9028  184.4387 C   0  0  0  0  0  0  0  0  0  0  0  0
  153.8399  138.4682  185.4993 C   0  0  0  0  0  0  0  0  0  0  0  0
  154.4697  138.1717  186.8142 C   0  0  0  0  0  0  0  0  0  0  0  0
  153.7270  138.6485  188.0176 C   0  0  0  0  0  0  0  0  0  0  0  0
  153.1815  137.4600  188.8495 C   0  0  0  0  0  0  0  0  0  0  0  0
  153.8693  137.3830  190.1562 C   0  0  0  0  0  0  0  0  0  0  0  0
  154.7573  138.4699  190.5813 C   0  0  0  0  0  0  0  0  0  0  0  0
  156.4021  136.8609  191.4739 C   0  0  0  0  0  0  0  0  0  0  0  0
  156.1886  138.2043  190.8727 C   0  0  0  0  0  0  0  0  0  0  0  0
 21 22  1  0  0  0
 22 20  1  0  0  0
 20 19  1  0  0  0
 19 18  1  0  0  0
 18 17  1  0  0  0
 17 16  1  0  0  0
 16 15  1  0  0  0
 15 14  1  0  0  0
 14  1  1  0  0  0
  1  2  1  0  0  0
  2  3  1  0  0  0
  3  4  1  0  0  0
  4  6  1  0  0  0
  6  7  2  0  0  0
  7  8  1  0  0  0
  8  9  2  0  0  0
  9 10  1  0  0  0
 10 11  1  0  0  0
 10 12  2  0  0  0
  4  5  1  0  0  0
  5  1  1  0  0  0
 12  6  1  0  0  0
 11 13  1  0  0  0
M  END
> <minimizedAffinity>
-6.93109

> <CNNscore>
0.5510852933

> <CNNaffinity>
5.6616964340

> <CNN_VS>
3.1200776100

> <CNNaffinity_variance>
0.0279938094

$$$$
[H]Oc1c([H])c([H])c([H])c(C2([H])C([H])([H])N(C([H])([H])C([H])([H])C([H])([H])C([H])([H])C([H])([H])C([H])([H])C([H])([H])C([H])([H])C([H])([H])[H])C([H])([H])C2([H])[H])c1[H]


 22 23  0  0  0  0  0  0  0  0999 V2000
  158.1942  141.4850  181.7595 N   0  0  0  0  0  0  0  0  0  0  0  0
  157.9413  140.3571  182.6139 C   0  0  0  0  0  0  0  0  0  0  0  0
  159.1913  140.1461  183.4308 C   0  0  0  0  0  0  0  0  0  0  0  0
  160.0290  141.3588  183.1465 C   0  0  0  0  0  0  0  0  0  0  0  0
  159.0956  142.3415  182.5448 C   0  0  0  0  0  0  0  0  0  0  0  0
  160.6943  141.8724  184.3766 C   0  0  0  0  0  0  0  0  0  0  0  0
  162.0693  141.9587  184.3870 C   0  0  0  0  0  0  0  0  0  0  0  0
  162.7437  142.4383  185.5149 C   0  0  0  0  0  0  0  0  0  0  0  0
  162.0048  142.8215  186.6124 C   0  0  0  0  0  0  0  0  0  0  0  0
  160.6392  142.7263  186.5782 C   0  0  0  0  0  0  0  0  0  0  0  0
  159.9169  143.1172  187.6931 O   0  0  0  0  0  0  0  0  0  0  0  0
  159.9498  142.2500  185.4616 C   0  0  0  0  0  0  0  0  0  0  0  0
  160.3761  143.4688  188.5286 H   0  0  0  0  0  0  0  0  0  0  0  0
  157.0348  142.2117  181.3603 C   0  0  0  0  0  0  0  0  0  0  0  0
  156.5406  143.2111  182.3568 C   0  0  0  0  0  0  0  0  0  0  0  0
  155.0706  143.1770  182.5839 C   0  0  0  0  0  0  0  0  0  0  0  0
  154.5028  141.8598  182.9957 C   0  0  0  0  0  0  0  0  0  0  0  0
  153.4097  141.3840  182.0052 C   0  0  0  0  0  0  0  0  0  0  0  0
  153.1157  139.9491  182.2078 C   0  0  0  0  0  0  0  0  0  0  0  0
  152.2644  139.2340  181.2514 C   0  0  0  0  0  0  0  0  0  0  0  0
  150.6476  139.6039  179.4238 C   0  0  0  0  0  0  0  0  0  0  0  0
  152.0524  139.7695  179.8830 C   0  0  0  0  0  0  0  0  0  0  0  0
 21 22  1  0  0  0
 22 20  1  0  0  0
 20 19  1  0  0  0
 19 18  1  0  0  0
 18 17  1  0  0  0
 17 16  1  0  0  0
 16 15  1  0  0  0
 15 14  1  0  0  0
 14  1  1  0  0  0
  1  2  1  0  0  0
  2  3  1  0  0  0
  3  4  1  0  0  0
  4  6  1  0  0  0
  6  7  2  0  0  0
  7  8  1  0  0  0
  8  9  2  0  0  0
  9 10  1  0  0  0
 10 11  1  0  0  0
 10 12  2  0  0  0
  4  5  1  0  0  0
  5  1  1  0  0  0
 12  6  1  0  0  0
 11 13  1  0  0  0
M  END
> <minimizedAffinity>
-8.04732

> <CNNscore>
0.5474321842

> <CNNaffinity>
6.2076692581

> <CNN_VS>
3.3982779980

> <CNNaffinity_variance>
0.1662043333

$$$$
[H]Oc1c([H])c([H])c([H])c(C2([H])C([H])([H])N(C([H])([H])C([H])([H])C([H])([H])C([H])([H])C([H])([H])C([H])([H])C([H])([H])C([H])([H])C([H])([H])[H])C([H])([H])C2([H])[H])c1[H]


 22 23  0  0  0  0  0  0  0  0999 V2000
  155.6307  141.4734  182.1226 N   0  0  0  0  0  0  0  0  0  0  0  0
  156.6324  140.9444  181.2378 C   0  0  0  0  0  0  0  0  0  0  0  0
  157.7934  141.9061  181.2766 C   0  0  0  0  0  0  0  0  0  0  0  0
  157.4634  142.8403  182.4041 C   0  0  0  0  0  0  0  0  0  0  0  0
  156.3987  142.1547  183.1757 C   0  0  0  0  0  0  0  0  0  0  0  0
  158.6626  143.1563  183.2298 C   0  0  0  0  0  0  0  0  0  0  0  0
  159.1388  142.1875  184.0859 C   0  0  0  0  0  0  0  0  0  0  0  0
  160.2643  142.4308  184.8804 C   0  0  0  0  0  0  0  0  0  0  0  0
  160.8845  143.6573  184.7883 C   0  0  0  0  0  0  0  0  0  0  0  0
  160.3924  144.6042  183.9301 C   0  0  0  0  0  0  0  0  0  0  0  0
  161.0320  145.8300  183.8542 O   0  0  0  0  0  0  0  0  0  0  0  0
  159.2707  144.3787  183.1303 C   0  0  0  0  0  0  0  0  0  0  0  0
  161.8510  146.0391  184.4184 H   0  0  0  0  0  0  0  0  0  0  0  0
  154.7540  140.5036  182.6903 C   0  0  0  0  0  0  0  0  0  0  0  0
  155.1516  140.0066  184.0434 C   0  0  0  0  0  0  0  0  0  0  0  0
  154.1411  139.1327  184.6983 C   0  0  0  0  0  0  0  0  0  0  0  0
  154.6515  138.2378  185.7779 C   0  0  0  0  0  0  0  0  0  0  0  0
  153.9234  138.5036  187.1201 C   0  0  0  0  0  0  0  0  0  0  0  0
  154.8029  138.1717  188.2615 C   0  0  0  0  0  0  0  0  0  0  0  0
  154.2379  138.0473  189.6091 C   0  0  0  0  0  0  0  0  0  0  0  0
  156.3908  138.0817  190.8152 C   0  0  0  0  0  0  0  0  0  0  0  0
  154.9816  138.5563  190.7889 C   0  0  0  0  0  0  0  0  0  0  0  0
 21 22  1  0  0  0
 22 20  1  0  0  0
 20 19  1  0  0  0
 19 18  1  0  0  0
 18 17  1  0  0  0
 17 16  1  0  0  0
 16 15  1  0  0  0
 15 14  1  0  0  0
 14  1  1  0  0  0
  1  2  1  0  0  0
  2  3  1  0  0  0
  3  4  1  0  0  0
  4  6  1  0  0  0
  6  7  2  0  0  0
  7  8  1  0  0  0
  8  9  2  0  0  0
  9 10  1  0  0  0
 10 11  1  0  0  0
 10 12  2  0  0  0
  4  5  1  0  0  0
  5  1  1  0  0  0
 12  6  1  0  0  0
 11 13  1  0  0  0
M  END
> <minimizedAffinity>
-6.21967

> <CNNscore>
0.5468144417

> <CNNaffinity>
6.2204422951

> <CNN_VS>
3.4014277458

> <CNNaffinity_variance>
0.5192465186

$$$$
[H]Oc1c([H])c([H])c([H])c(C2([H])C([H])([H])N(C([H])([H])C([H])([H])C([H])([H])C([H])([H])C([H])([H])C([H])([H])C([H])([H])C([H])([H])C([H])([H])[H])C([H])([H])C2([H])[H])c1[H]


 22 23  0  0  0  0  0  0  0  0999 V2000
  153.2686  139.2365  182.3754 N   0  0  0  0  0  0  0  0  0  0  0  0
  153.1057  140.5125  181.7339 C   0  0  0  0  0  0  0  0  0  0  0  0
  152.1076  140.3115  180.6215 C   0  0  0  0  0  0  0  0  0  0  0  0
  151.5660  138.9311  180.8541 C   0  0  0  0  0  0  0  0  0  0  0  0
  151.9524  138.5932  182.2453 C   0  0  0  0  0  0  0  0  0  0  0  0
  150.0940  138.8696  180.6325 C   0  0  0  0  0  0  0  0  0  0  0  0
  149.2623  139.2015  181.6795 C   0  0  0  0  0  0  0  0  0  0  0  0
  147.8726  139.1648  181.5236 C   0  0  0  0  0  0  0  0  0  0  0  0
  147.3550  138.7905  180.3032 C   0  0  0  0  0  0  0  0  0  0  0  0
  148.2021  138.4650  179.2776 C   0  0  0  0  0  0  0  0  0  0  0  0
  147.6594  138.0915  178.0596 O   0  0  0  0  0  0  0  0  0  0  0  0
  149.5909  138.4959  179.4155 C   0  0  0  0  0  0  0  0  0  0  0  0
  146.6544  138.0534  177.9137 H   0  0  0  0  0  0  0  0  0  0  0  0
  153.6642  139.2949  183.7435 C   0  0  0  0  0  0  0  0  0  0  0  0
  154.8339  140.1824  184.0263 C   0  0  0  0  0  0  0  0  0  0  0  0
  156.1583  139.5276  183.8515 C   0  0  0  0  0  0  0  0  0  0  0  0
  157.2988  140.1526  184.5834 C   0  0  0  0  0  0  0  0  0  0  0  0
  158.6582  139.7450  183.9604 C   0  0  0  0  0  0  0  0  0  0  0  0
  159.5656  140.9104  183.8883 C   0  0  0  0  0  0  0  0  0  0  0  0
  159.7967  141.5799  182.6041 C   0  0  0  0  0  0  0  0  0  0  0  0
  158.8964  142.3983  180.4569 C   0  0  0  0  0  0  0  0  0  0  0  0
  158.9420  141.2740  181.4293 C   0  0  0  0  0  0  0  0  0  0  0  0
 21 22  1  0  0  0
 22 20  1  0  0  0
 20 19  1  0  0  0
 19 18  1  0  0  0
 18 17  1  0  0  0
 17 16  1  0  0  0
 16 15  1  0  0  0
 15 14  1  0  0  0
 14  1  1  0  0  0
  1  2  1  0  0  0
  2  3  1  0  0  0
  3  4  1  0  0  0
  4  6  1  0  0  0
  6  7  2  0  0  0
  7  8  1  0  0  0
  8  9  2  0  0  0
  9 10  1  0  0  0
 10 11  1  0  0  0
 10 12  2  0  0  0
  4  5  1  0  0  0
  5  1  1  0  0  0
 12  6  1  0  0  0
 11 13  1  0  0  0
M  END
> <minimizedAffinity>
-6.26835

> <CNNscore>
0.5094261765

> <CNNaffinity>
5.2280325890

> <CNN_VS>
2.6632966995

> <CNNaffinity_variance>
0.0250101034

$$$$
[H]Oc1c([H])c([H])c([H])c(C2([H])C([H])([H])N(C([H])([H])C([H])([H])C([H])([H])C([H])([H])C([H])([H])C([H])([H])C([H])([H])C([H])([H])C([H])([H])[H])C([H])([H])C2([H])[H])c1[H]


 22 23  0  0  0  0  0  0  0  0999 V2000
  155.7004  142.8687  183.2530 N   0  0  0  0  0  0  0  0  0  0  0  0
  156.4278  141.6800  183.6055 C   0  0  0  0  0  0  0  0  0  0  0  0
  155.4064  140.5830  183.7721 C   0  0  0  0  0  0  0  0  0  0  0  0
  154.1308  141.1827  183.2562 C   0  0  0  0  0  0  0  0  0  0  0  0
  154.5496  142.3757  182.4814 C   0  0  0  0  0  0  0  0  0  0  0  0
  153.3516  140.2090  182.4411 C   0  0  0  0  0  0  0  0  0  0  0  0
  153.1488  138.9456  182.9519 C   0  0  0  0  0  0  0  0  0  0  0  0
  152.4204  137.9944  182.2295 C   0  0  0  0  0  0  0  0  0  0  0  0
  151.9117  138.3477  180.9991 C   0  0  0  0  0  0  0  0  0  0  0  0
  152.1267  139.6096  180.5126 C   0  0  0  0  0  0  0  0  0  0  0  0
  151.6059  139.9425  179.2734 O   0  0  0  0  0  0  0  0  0  0  0  0
  152.8510  140.5710  181.2195 C   0  0  0  0  0  0  0  0  0  0  0  0
  151.0734  139.2747  178.7228 H   0  0  0  0  0  0  0  0  0  0  0  0
  156.4378  143.8253  182.4962 C   0  0  0  0  0  0  0  0  0  0  0  0
  157.3382  143.2473  181.4516 C   0  0  0  0  0  0  0  0  0  0  0  0
  158.7859  143.5052  181.6774 C   0  0  0  0  0  0  0  0  0  0  0  0
  159.1160  144.7030  182.5040 C   0  0  0  0  0  0  0  0  0  0  0  0
  159.9980  144.3218  183.7201 C   0  0  0  0  0  0  0  0  0  0  0  0
  159.8793  142.8775  184.0140 C   0  0  0  0  0  0  0  0  0  0  0  0
  160.5696  142.3077  185.1758 C   0  0  0  0  0  0  0  0  0  0  0  0
  162.1395  143.0693  186.9211 C   0  0  0  0  0  0  0  0  0  0  0  0
  161.9662  142.7005  185.4908 C   0  0  0  0  0  0  0  0  0  0  0  0
 21 22  1  0  0  0
 22 20  1  0  0  0
 20 19  1  0  0  0
 19 18  1  0  0  0
 18 17  1  0  0  0
 17 16  1  0  0  0
 16 15  1  0  0  0
 15 14  1  0  0  0
 14  1  1  0  0  0
  1  2  1  0  0  0
  2  3  1  0  0  0
  3  4  1  0  0  0
  4  6  1  0  0  0
  6  7  2  0  0  0
  7  8  1  0  0  0
  8  9  2  0  0  0
  9 10  1  0  0  0
 10 11  1  0  0  0
 10 12  2  0  0  0
  4  5  1  0  0  0
  5  1  1  0  0  0
 12  6  1  0  0  0
 11 13  1  0  0  0
M  END
> <minimizedAffinity>
-7.15205

> <CNNscore>
0.4899401665

> <CNNaffinity>
6.1916518211

> <CNN_VS>
3.0335388184

> <CNNaffinity_variance>
0.0349272862

$$$$
[H]OC(=O)/C([H])=C(\[H])c1c([H])c([H])c(Oc2c(-c3c([H])c([H])c(OC(F)(F)F)c([H])c3C([H])([H])[H])c(=O)oc3c([H])c(OC([H])([H])C([H])([H])[H])c([H])c([H])c23)c([H])c1[H]


 39 42  0  0  0  0  0  0  0  0999 V2000
  153.9719  136.7729  190.1019 C   0  0  0  0  0  0  0  0  0  0  0  0
  154.2441  137.3585  188.8898 C   0  0  0  0  0  0  0  0  0  0  0  0
  153.6495  136.8407  187.7601 C   0  0  0  0  0  0  0  0  0  0  0  0
  152.7943  135.7579  187.8096 C   0  0  0  0  0  0  0  0  0  0  0  0
  152.1808  135.2256  186.6626 C   0  0  0  0  0  0  0  0  0  0  0  0
  151.3491  134.1463  186.8800 C   0  0  0  0  0  0  0  0  0  0  0  0
  151.1105  133.5955  188.1375 C   0  0  0  0  0  0  0  0  0  0  0  0
  150.3350  132.6011  188.2828 O   0  0  0  0  0  0  0  0  0  0  0  0
  151.7074  134.1317  189.1587 O   0  0  0  0  0  0  0  0  0  0  0  0
  152.5166  135.1679  189.0177 C   0  0  0  0  0  0  0  0  0  0  0  0
  153.1210  135.6961  190.1544 C   0  0  0  0  0  0  0  0  0  0  0  0
  150.6806  133.5000  185.7698 C   0  0  0  0  0  0  0  0  0  0  0  0
  149.3751  133.7960  185.5119 C   0  0  0  0  0  0  0  0  0  0  0  0
  148.7133  133.2039  184.4662 C   0  0  0  0  0  0  0  0  0  0  0  0
  149.3809  132.3026  183.6732 C   0  0  0  0  0  0  0  0  0  0  0  0
  150.7056  132.0013  183.9337 C   0  0  0  0  0  0  0  0  0  0  0  0
  151.3501  132.6023  184.9824 C   0  0  0  0  0  0  0  0  0  0  0  0
  152.7707  132.2258  185.2016 C   0  0  0  0  0  0  0  0  0  0  0  0
  148.7056  131.6986  182.6062 O   0  0  0  0  0  0  0  0  0  0  0  0
  147.7147  132.4097  181.8725 C   0  0  0  0  0  0  0  0  0  0  0  0
  147.0689  131.5193  181.0509 F   0  0  0  0  0  0  0  0  0  0  0  0
  146.8158  132.9838  182.7522 F   0  0  0  0  0  0  0  0  0  0  0  0
  148.2729  133.4375  181.1272 F   0  0  0  0  0  0  0  0  0  0  0  0
  154.5595  137.2797  191.2390 O   0  0  0  0  0  0  0  0  0  0  0  0
  152.8370  137.6096  192.8676 C   0  0  0  0  0  0  0  0  0  0  0  0
  153.9459  138.2505  192.0646 C   0  0  0  0  0  0  0  0  0  0  0  0
  152.4535  135.8028  185.4799 O   0  0  0  0  0  0  0  0  0  0  0  0
  151.7442  136.1974  184.4060 C   0  0  0  0  0  0  0  0  0  0  0  0
  152.1058  136.0531  183.0927 C   0  0  0  0  0  0  0  0  0  0  0  0
  151.3259  136.4886  182.0218 C   0  0  0  0  0  0  0  0  0  0  0  0
  150.1030  137.1102  182.2553 C   0  0  0  0  0  0  0  0  0  0  0  0
  149.7163  137.2670  183.5655 C   0  0  0  0  0  0  0  0  0  0  0  0
  150.5028  136.8293  184.6048 C   0  0  0  0  0  0  0  0  0  0  0  0
  149.3074  137.5558  181.1247 C   0  0  0  0  0  0  0  0  0  0  0  0
  148.0702  137.1692  180.8892 C   0  0  0  0  0  0  0  0  0  0  0  0
  147.3687  137.6967  179.7026 C   0  0  0  0  0  0  0  0  0  0  0  0
  147.2574  137.0266  178.6530 O   0  0  0  0  0  0  0  0  0  0  0  0
  146.8121  138.9594  179.7262 O   0  0  0  0  0  0  0  0  0  0  0  0
  145.7991  139.1236  179.7025 H   0  0  0  0  0  0  0  0  0  0  0  0
 25 26  1  0  0  0
 26 24  1  0  0  0
 24  1  1  0  0  0
  1  2  2  0  0  0
  2  3  1  0  0  0
  3  4  2  0  0  0
  4  5  1  0  0  0
  5 27  1  0  0  0
 27 28  1  0  0  0
 28 29  2  0  0  0
 29 30  1  0  0  0
 30 31  2  0  0  0
 31 34  1  0  0  0
 34 35  2  0  0  0
 35 36  1  0  0  0
 36 37  2  0  0  0
 36 38  1  0  0  0
 31 32  1  0  0  0
 32 33  2  0  0  0
  5  6  2  0  0  0
  6 12  1  0  0  0
 12 13  2  0  0  0
 13 14  1  0  0  0
 14 15  2  0  0  0
 15 19  1  0  0  0
 19 20  1  0  0  0
 20 21  1  0  0  0
 20 22  1  0  0  0
 20 23  1  0  0  0
 15 16  1  0  0  0
 16 17  2  0  0  0
 17 18  1  0  0  0
  6  7  1  0  0  0
  7  8  2  0  0  0
  7  9  1  0  0  0
  9 10  1  0  0  0
 10 11  2  0  0  0
 11  1  1  0  0  0
 10  4  1  0  0  0
 33 28  1  0  0  0
 17 12  1  0  0  0
 38 39  1  0  0  0
M  END
> <minimizedAffinity>
-2.48893

> <CNNscore>
0.4276840091

> <CNNaffinity>
6.4423255920

> <CNN_VS>
2.7552795410

> <CNNaffinity_variance>
2.3251276016

$$$$
[H]OC(=O)/C([H])=C(\[H])c1c([H])c([H])c(Oc2c(-c3c([H])c([H])c(OC(F)(F)F)c([H])c3C([H])([H])[H])c(=O)oc3c([H])c(OC([H])([H])C([H])([H])[H])c([H])c([H])c23)c([H])c1[H]


 39 42  0  0  0  0  0  0  0  0999 V2000
  151.7565  137.5617  183.3994 C   0  0  0  0  0  0  0  0  0  0  0  0
  153.0841  137.3588  183.6863 C   0  0  0  0  0  0  0  0  0  0  0  0
  153.4131  136.7062  184.8542 C   0  0  0  0  0  0  0  0  0  0  0  0
  152.4545  136.2537  185.7389 C   0  0  0  0  0  0  0  0  0  0  0  0
  152.7812  135.5841  186.9306 C   0  0  0  0  0  0  0  0  0  0  0  0
  151.7087  135.1906  187.7045 C   0  0  0  0  0  0  0  0  0  0  0  0
  150.3792  135.4245  187.3589 C   0  0  0  0  0  0  0  0  0  0  0  0
  149.4285  135.0408  188.1074 O   0  0  0  0  0  0  0  0  0  0  0  0
  150.1420  136.0487  186.2450 O   0  0  0  0  0  0  0  0  0  0  0  0
  151.1253  136.4519  185.4583 C   0  0  0  0  0  0  0  0  0  0  0  0
  150.8007  137.1119  184.2771 C   0  0  0  0  0  0  0  0  0  0  0  0
  151.9239  134.5130  188.9662 C   0  0  0  0  0  0  0  0  0  0  0  0
  151.9140  133.1503  189.0031 C   0  0  0  0  0  0  0  0  0  0  0  0
  152.1177  132.4774  190.1811 C   0  0  0  0  0  0  0  0  0  0  0  0
  152.3336  133.1923  191.3340 C   0  0  0  0  0  0  0  0  0  0  0  0
  152.3438  134.5750  191.2981 C   0  0  0  0  0  0  0  0  0  0  0  0
  152.1385  135.2299  190.1125 C   0  0  0  0  0  0  0  0  0  0  0  0
  152.1603  136.7150  190.1536 C   0  0  0  0  0  0  0  0  0  0  0  0
  152.5415  132.5056  192.5359 O   0  0  0  0  0  0  0  0  0  0  0  0
  151.6816  132.7093  193.6517 C   0  0  0  0  0  0  0  0  0  0  0  0
  152.3450  133.4884  194.5670 F   0  0  0  0  0  0  0  0  0  0  0  0
  150.5280  133.3455  193.2323 F   0  0  0  0  0  0  0  0  0  0  0  0
  151.3006  131.5062  194.2271 F   0  0  0  0  0  0  0  0  0  0  0  0
  151.4134  138.2128  182.2359 O   0  0  0  0  0  0  0  0  0  0  0  0
  153.2175  139.7842  182.3000 C   0  0  0  0  0  0  0  0  0  0  0  0
  151.7608  139.5570  181.9658 C   0  0  0  0  0  0  0  0  0  0  0  0
  154.0824  135.3909  187.2056 O   0  0  0  0  0  0  0  0  0  0  0  0
  154.8067  135.0628  188.2918 C   0  0  0  0  0  0  0  0  0  0  0  0
  155.3268  135.9291  189.2166 C   0  0  0  0  0  0  0  0  0  0  0  0
  156.0750  135.5253  190.3220 C   0  0  0  0  0  0  0  0  0  0  0  0
  156.3314  134.1745  190.5365 C   0  0  0  0  0  0  0  0  0  0  0  0
  155.8200  133.2836  189.6224 C   0  0  0  0  0  0  0  0  0  0  0  0
  155.0851  133.7059  188.5399 C   0  0  0  0  0  0  0  0  0  0  0  0
  157.1131  133.7769  191.6943 C   0  0  0  0  0  0  0  0  0  0  0  0
  158.1800  133.0058  191.6405 C   0  0  0  0  0  0  0  0  0  0  0  0
  158.8878  132.6742  192.8924 C   0  0  0  0  0  0  0  0  0  0  0  0
  159.2834  131.5135  193.1361 O   0  0  0  0  0  0  0  0  0  0  0  0
  159.1321  133.6524  193.8348 O   0  0  0  0  0  0  0  0  0  0  0  0
  160.0749  133.9955  194.0520 H   0  0  0  0  0  0  0  0  0  0  0  0
 25 26  1  0  0  0
 26 24  1  0  0  0
 24  1  1  0  0  0
  1  2  2  0  0  0
  2  3  1  0  0  0
  3  4  2  0  0  0
  4  5  1  0  0  0
  5 27  1  0  0  0
 27 28  1  0  0  0
 28 29  2  0  0  0
 29 30  1  0  0  0
 30 31  2  0  0  0
 31 34  1  0  0  0
 34 35  2  0  0  0
 35 36  1  0  0  0
 36 37  2  0  0  0
 36 38  1  0  0  0
 31 32  1  0  0  0
 32 33  2  0  0  0
  5  6  2  0  0  0
  6 12  1  0  0  0
 12 13  2  0  0  0
 13 14  1  0  0  0
 14 15  2  0  0  0
 15 19  1  0  0  0
 19 20  1  0  0  0
 20 21  1  0  0  0
 20 22  1  0  0  0
 20 23  1  0  0  0
 15 16  1  0  0  0
 16 17  2  0  0  0
 17 18  1  0  0  0
  6  7  1  0  0  0
  7  8  2  0  0  0
  7  9  1  0  0  0
  9 10  1  0  0  0
 10 11  2  0  0  0
 11  1  1  0  0  0
 10  4  1  0  0  0
 33 28  1  0  0  0
 17 12  1  0  0  0
 38 39  1  0  0  0
M  END
> <minimizedAffinity>
-2.65331

> <CNNscore>
0.3575539291

> <CNNaffinity>
6.4542465210

> <CNN_VS>
2.3077411652

> <CNNaffinity_variance>
2.6120748520

$$$$
[H]OC(=O)/C([H])=C(\[H])c1c([H])c([H])c(Oc2c(-c3c([H])c([H])c(OC(F)(F)F)c([H])c3C([H])([H])[H])c(=O)oc3c([H])c(OC([H])([H])C([H])([H])[H])c([H])c([H])c23)c([H])c1[H]


 39 42  0  0  0  0  0  0  0  0999 V2000
  151.5467  139.3934  181.5126 C   0  0  0  0  0  0  0  0  0  0  0  0
  151.8628  138.4308  182.4397 C   0  0  0  0  0  0  0  0  0  0  0  0
  153.0651  138.5273  183.1053 C   0  0  0  0  0  0  0  0  0  0  0  0
  153.9558  139.5556  182.8695 C   0  0  0  0  0  0  0  0  0  0  0  0
  155.1827  139.6637  183.5465 C   0  0  0  0  0  0  0  0  0  0  0  0
  155.9582  140.7515  183.2015 C   0  0  0  0  0  0  0  0  0  0  0  0
  155.5820  141.6984  182.2510 C   0  0  0  0  0  0  0  0  0  0  0  0
  156.3336  142.6822  181.9704 O   0  0  0  0  0  0  0  0  0  0  0  0
  154.4363  141.5432  181.6593 O   0  0  0  0  0  0  0  0  0  0  0  0
  153.6462  140.5222  181.9450 C   0  0  0  0  0  0  0  0  0  0  0  0
  152.4303  140.4180  181.2764 C   0  0  0  0  0  0  0  0  0  0  0  0
  157.2537  140.9535  183.8164 C   0  0  0  0  0  0  0  0  0  0  0  0
  157.3376  141.6528  184.9837 C   0  0  0  0  0  0  0  0  0  0  0  0
  158.5488  141.8594  185.5939 C   0  0  0  0  0  0  0  0  0  0  0  0
  159.6870  141.3524  185.0158 C   0  0  0  0  0  0  0  0  0  0  0  0
  159.6034  140.6427  183.8315 C   0  0  0  0  0  0  0  0  0  0  0  0
  158.3853  140.4464  183.2364 C   0  0  0  0  0  0  0  0  0  0  0  0
  158.3756  139.6776  181.9649 C   0  0  0  0  0  0  0  0  0  0  0  0
  160.9228  141.5632  185.6386 O   0  0  0  0  0  0  0  0  0  0  0  0
  161.8319  142.5411  185.1456 C   0  0  0  0  0  0  0  0  0  0  0  0
  162.5419  143.0406  186.2092 F   0  0  0  0  0  0  0  0  0  0  0  0
  162.6898  141.9527  184.2349 F   0  0  0  0  0  0  0  0  0  0  0  0
  161.1695  143.5640  184.4836 F   0  0  0  0  0  0  0  0  0  0  0  0
  150.3486  139.3092  180.8397 O   0  0  0  0  0  0  0  0  0  0  0  0
  149.0315  138.3751  179.0731 C   0  0  0  0  0  0  0  0  0  0  0  0
  150.2535  139.1887  179.4336 C   0  0  0  0  0  0  0  0  0  0  0  0
  155.4860  138.7169  184.4509 O   0  0  0  0  0  0  0  0  0  0  0  0
  155.2545  138.5172  185.7619 C   0  0  0  0  0  0  0  0  0  0  0  0
  156.1860  138.2000  186.7148 C   0  0  0  0  0  0  0  0  0  0  0  0
  155.8807  138.0010  188.0609 C   0  0  0  0  0  0  0  0  0  0  0  0
  154.5675  138.1220  188.5049 C   0  0  0  0  0  0  0  0  0  0  0  0
  153.6128  138.4402  187.5679 C   0  0  0  0  0  0  0  0  0  0  0  0
  153.9382  138.6316  186.2459 C   0  0  0  0  0  0  0  0  0  0  0  0
  154.2727  137.9101  189.9113 C   0  0  0  0  0  0  0  0  0  0  0  0
  153.7599  136.8008  190.4033 C   0  0  0  0  0  0  0  0  0  0  0  0
  153.5068  136.7110  191.8546 C   0  0  0  0  0  0  0  0  0  0  0  0
  152.7704  137.5308  192.4453 O   0  0  0  0  0  0  0  0  0  0  0  0
  154.0858  135.7057  192.6020 O   0  0  0  0  0  0  0  0  0  0  0  0
  153.5446  134.9453  193.0294 H   0  0  0  0  0  0  0  0  0  0  0  0
 25 26  1  0  0  0
 26 24  1  0  0  0
 24  1  1  0  0  0
  1  2  2  0  0  0
  2  3  1  0  0  0
  3  4  2  0  0  0
  4  5  1  0  0  0
  5 27  1  0  0  0
 27 28  1  0  0  0
 28 29  2  0  0  0
 29 30  1  0  0  0
 30 31  2  0  0  0
 31 34  1  0  0  0
 34 35  2  0  0  0
 35 36  1  0  0  0
 36 37  2  0  0  0
 36 38  1  0  0  0
 31 32  1  0  0  0
 32 33  2  0  0  0
  5  6  2  0  0  0
  6 12  1  0  0  0
 12 13  2  0  0  0
 13 14  1  0  0  0
 14 15  2  0  0  0
 15 19  1  0  0  0
 19 20  1  0  0  0
 20 21  1  0  0  0
 20 22  1  0  0  0
 20 23  1  0  0  0
 15 16  1  0  0  0
 16 17  2  0  0  0
 17 18  1  0  0  0
  6  7  1  0  0  0
  7  8  2  0  0  0
  7  9  1  0  0  0
  9 10  1  0  0  0
 10 11  2  0  0  0
 11  1  1  0  0  0
 10  4  1  0  0  0
 33 28  1  0  0  0
 17 12  1  0  0  0
 38 39  1  0  0  0
M  END
> <minimizedAffinity>
-10.37330

> <CNNscore>
0.3184473217

> <CNNaffinity>
6.7542982101

> <CNN_VS>
2.1508882046

> <CNNaffinity_variance>
0.1090045795

$$$$
[H]OC(=O)/C([H])=C(\[H])c1c([H])c([H])c(Oc2c(-c3c([H])c([H])c(OC(F)(F)F)c([H])c3C([H])([H])[H])c(=O)oc3c([H])c(OC([H])([H])C([H])([H])[H])c([H])c([H])c23)c([H])c1[H]


 39 42  0  0  0  0  0  0  0  0999 V2000
  154.0340  137.4315  187.4259 C   0  0  0  0  0  0  0  0  0  0  0  0
  153.0272  137.9072  186.6219 C   0  0  0  0  0  0  0  0  0  0  0  0
  153.3630  138.6954  185.5430 C   0  0  0  0  0  0  0  0  0  0  0  0
  154.6723  139.0195  185.2481 C   0  0  0  0  0  0  0  0  0  0  0  0
  155.0238  139.8199  184.1477 C   0  0  0  0  0  0  0  0  0  0  0  0
  156.3750  140.0479  183.9861 C   0  0  0  0  0  0  0  0  0  0  0  0
  157.3524  139.5354  184.8368 C   0  0  0  0  0  0  0  0  0  0  0  0
  158.5837  139.7755  184.6429 O   0  0  0  0  0  0  0  0  0  0  0  0
  156.9642  138.8030  185.8365 O   0  0  0  0  0  0  0  0  0  0  0  0
  155.6841  138.5467  186.0466 C   0  0  0  0  0  0  0  0  0  0  0  0
  155.3374  137.7516  187.1346 C   0  0  0  0  0  0  0  0  0  0  0  0
  156.8542  140.8779  182.9004 C   0  0  0  0  0  0  0  0  0  0  0  0
  157.6158  140.3186  181.9176 C   0  0  0  0  0  0  0  0  0  0  0  0
  158.0830  141.0760  180.8735 C   0  0  0  0  0  0  0  0  0  0  0  0
  157.7757  142.4138  180.8242 C   0  0  0  0  0  0  0  0  0  0  0  0
  157.0031  142.9827  181.8207 C   0  0  0  0  0  0  0  0  0  0  0  0
  156.5454  142.2108  182.8557 C   0  0  0  0  0  0  0  0  0  0  0  0
  155.7247  142.8929  183.8896 C   0  0  0  0  0  0  0  0  0  0  0  0
  158.2524  143.1865  179.7587 O   0  0  0  0  0  0  0  0  0  0  0  0
  159.5297  143.8112  179.8235 C   0  0  0  0  0  0  0  0  0  0  0  0
  160.3997  142.9444  180.4372 F   0  0  0  0  0  0  0  0  0  0  0  0
  159.9665  144.0971  178.5433 F   0  0  0  0  0  0  0  0  0  0  0  0
  159.4747  145.0116  180.5159 F   0  0  0  0  0  0  0  0  0  0  0  0
  153.7128  136.6431  188.5077 O   0  0  0  0  0  0  0  0  0  0  0  0
  154.3404  137.8712  190.4638 C   0  0  0  0  0  0  0  0  0  0  0  0
  153.2254  137.1615  189.7302 C   0  0  0  0  0  0  0  0  0  0  0  0
  154.0331  140.2832  183.3667 O   0  0  0  0  0  0  0  0  0  0  0  0
  153.1622  139.7539  182.4871 C   0  0  0  0  0  0  0  0  0  0  0  0
  152.7571  138.4467  182.4277 C   0  0  0  0  0  0  0  0  0  0  0  0
  151.8519  137.9581  181.4862 C   0  0  0  0  0  0  0  0  0  0  0  0
  151.3040  138.8126  180.5344 C   0  0  0  0  0  0  0  0  0  0  0  0
  151.6942  140.1306  180.5725 C   0  0  0  0  0  0  0  0  0  0  0  0
  152.5886  140.5891  181.5107 C   0  0  0  0  0  0  0  0  0  0  0  0
  150.3634  138.2817  179.5633 C   0  0  0  0  0  0  0  0  0  0  0  0
  149.2673  138.9015  179.1758 C   0  0  0  0  0  0  0  0  0  0  0  0
  148.3921  138.2533  178.1797 C   0  0  0  0  0  0  0  0  0  0  0  0
  147.6105  137.3294  178.4937 O   0  0  0  0  0  0  0  0  0  0  0  0
  148.4178  138.6590  176.8608 O   0  0  0  0  0  0  0  0  0  0  0  0
  147.6317  139.1406  176.4093 H   0  0  0  0  0  0  0  0  0  0  0  0
 25 26  1  0  0  0
 26 24  1  0  0  0
 24  1  1  0  0  0
  1  2  2  0  0  0
  2  3  1  0  0  0
  3  4  2  0  0  0
  4  5  1  0  0  0
  5 27  1  0  0  0
 27 28  1  0  0  0
 28 29  2  0  0  0
 29 30  1  0  0  0
 30 31  2  0  0  0
 31 34  1  0  0  0
 34 35  2  0  0  0
 35 36  1  0  0  0
 36 37  2  0  0  0
 36 38  1  0  0  0
 31 32  1  0  0  0
 32 33  2  0  0  0
  5  6  2  0  0  0
  6 12  1  0  0  0
 12 13  2  0  0  0
 13 14  1  0  0  0
 14 15  2  0  0  0
 15 19  1  0  0  0
 19 20  1  0  0  0
 20 21  1  0  0  0
 20 22  1  0  0  0
 20 23  1  0  0  0
 15 16  1  0  0  0
 16 17  2  0  0  0
 17 18  1  0  0  0
  6  7  1  0  0  0
  7  8  2  0  0  0
  7  9  1  0  0  0
  9 10  1  0  0  0
 10 11  2  0  0  0
 11  1  1  0  0  0
 10  4  1  0  0  0
 33 28  1  0  0  0
 17 12  1  0  0  0
 38 39  1  0  0  0
M  END
> <minimizedAffinity>
-9.04344

> <CNNscore>
0.1436886787

> <CNNaffinity>
6.3742341995

> <CNN_VS>
0.9159052968

> <CNNaffinity_variance>
0.2040156424

$$$$
[H]OC(=O)/C([H])=C(\[H])c1c([H])c([H])c(Oc2c(-c3c([H])c([H])c(OC(F)(F)F)c([H])c3C([H])([H])[H])c(=O)oc3c([H])c(OC([H])([H])C([H])([H])[H])c([H])c([H])c23)c([H])c1[H]


 39 42  0  0  0  0  0  0  0  0999 V2000
  149.2478  137.2243  181.6167 C   0  0  0  0  0  0  0  0  0  0  0  0
  150.5095  137.4980  181.1482 C   0  0  0  0  0  0  0  0  0  0  0  0
  151.5439  137.5842  182.0540 C   0  0  0  0  0  0  0  0  0  0  0  0
  151.3513  137.4053  183.4095 C   0  0  0  0  0  0  0  0  0  0  0  0
  152.4014  137.4880  184.3399 C   0  0  0  0  0  0  0  0  0  0  0  0
  152.0464  137.2793  185.6569 C   0  0  0  0  0  0  0  0  0  0  0  0
  150.7453  137.0031  186.0721 C   0  0  0  0  0  0  0  0  0  0  0  0
  150.4720  136.8187  187.2979 O   0  0  0  0  0  0  0  0  0  0  0  0
  149.8185  136.9402  185.1645 O   0  0  0  0  0  0  0  0  0  0  0  0
  150.0932  137.1302  183.8851 C   0  0  0  0  0  0  0  0  0  0  0  0
  149.0533  137.0450  182.9644 C   0  0  0  0  0  0  0  0  0  0  0  0
  153.0405  137.3631  186.7067 C   0  0  0  0  0  0  0  0  0  0  0  0
  153.1587  138.5161  187.4245 C   0  0  0  0  0  0  0  0  0  0  0  0
  154.0878  138.6275  188.4277 C   0  0  0  0  0  0  0  0  0  0  0  0
  154.9059  137.5600  188.7068 C   0  0  0  0  0  0  0  0  0  0  0  0
  154.7871  136.3895  187.9792 C   0  0  0  0  0  0  0  0  0  0  0  0
  153.8536  136.2965  186.9810 C   0  0  0  0  0  0  0  0  0  0  0  0
  153.7877  135.0094  186.2416 C   0  0  0  0  0  0  0  0  0  0  0  0
  155.8538  137.6738  189.7305 O   0  0  0  0  0  0  0  0  0  0  0  0
  155.4506  137.7693  191.0921 C   0  0  0  0  0  0  0  0  0  0  0  0
  154.3217  137.0060  191.2590 F   0  0  0  0  0  0  0  0  0  0  0  0
  156.4660  137.3015  191.9056 F   0  0  0  0  0  0  0  0  0  0  0  0
  155.2036  139.0838  191.4588 F   0  0  0  0  0  0  0  0  0  0  0  0
  148.2047  137.1357  180.7227 O   0  0  0  0  0  0  0  0  0  0  0  0
  146.9809  139.1918  180.6663 C   0  0  0  0  0  0  0  0  0  0  0  0
  146.9321  137.7085  180.9536 C   0  0  0  0  0  0  0  0  0  0  0  0
  153.6328  137.7581  183.8742 O   0  0  0  0  0  0  0  0  0  0  0  0
  154.4196  138.8467  183.7849 C   0  0  0  0  0  0  0  0  0  0  0  0
  154.1654  139.9783  183.0559 C   0  0  0  0  0  0  0  0  0  0  0  0
  155.0258  141.0743  183.0009 C   0  0  0  0  0  0  0  0  0  0  0  0
  156.2217  141.0601  183.7122 C   0  0  0  0  0  0  0  0  0  0  0  0
  156.5007  139.9356  184.4527 C   0  0  0  0  0  0  0  0  0  0  0  0
  155.6364  138.8671  184.4912 C   0  0  0  0  0  0  0  0  0  0  0  0
  157.1027  142.2127  183.6401 C   0  0  0  0  0  0  0  0  0  0  0  0
  158.3477  142.1698  183.2113 C   0  0  0  0  0  0  0  0  0  0  0  0
  159.1401  143.4147  183.1871 C   0  0  0  0  0  0  0  0  0  0  0  0
  158.9164  144.3200  182.3543 O   0  0  0  0  0  0  0  0  0  0  0  0
  160.1599  143.6094  184.0963 O   0  0  0  0  0  0  0  0  0  0  0  0
  160.1167  144.3145  184.8412 H   0  0  0  0  0  0  0  0  0  0  0  0
 25 26  1  0  0  0
 26 24  1  0  0  0
 24  1  1  0  0  0
  1  2  2  0  0  0
  2  3  1  0  0  0
  3  4  2  0  0  0
  4  5  1  0  0  0
  5 27  1  0  0  0
 27 28  1  0  0  0
 28 29  2  0  0  0
 29 30  1  0  0  0
 30 31  2  0  0  0
 31 34  1  0  0  0
 34 35  2  0  0  0
 35 36  1  0  0  0
 36 37  2  0  0  0
 36 38  1  0  0  0
 31 32  1  0  0  0
 32 33  2  0  0  0
  5  6  2  0  0  0
  6 12  1  0  0  0
 12 13  2  0  0  0
 13 14  1  0  0  0
 14 15  2  0  0  0
 15 19  1  0  0  0
 19 20  1  0  0  0
 20 21  1  0  0  0
 20 22  1  0  0  0
 20 23  1  0  0  0
 15 16  1  0  0  0
 16 17  2  0  0  0
 17 18  1  0  0  0
  6  7  1  0  0  0
  7  8  2  0  0  0
  7  9  1  0  0  0
  9 10  1  0  0  0
 10 11  2  0  0  0
 11  1  1  0  0  0
 10  4  1  0  0  0
 33 28  1  0  0  0
 17 12  1  0  0  0
 38 39  1  0  0  0
M  END
> <minimizedAffinity>
-7.89117

> <CNNscore>
0.1423968226

> <CNNaffinity>
6.1652936935

> <CNN_VS>
0.8779182434

> <CNNaffinity_variance>
0.1447668374

$$$$
[H]OC(=O)/C([H])=C(\[H])c1c([H])c([H])c(Oc2c(-c3c([H])c([H])c(OC(F)(F)F)c([H])c3C([H])([H])[H])c(=O)oc3c([H])c(OC([H])([H])C([H])([H])[H])c([H])c([H])c23)c([H])c1[H]


 39 42  0  0  0  0  0  0  0  0999 V2000
  156.3379  135.9731  188.7425 C   0  0  0  0  0  0  0  0  0  0  0  0
  156.3355  137.3189  188.4684 C   0  0  0  0  0  0  0  0  0  0  0  0
  155.5495  137.7788  187.4347 C   0  0  0  0  0  0  0  0  0  0  0  0
  154.7698  136.9331  186.6710 C   0  0  0  0  0  0  0  0  0  0  0  0
  153.9624  137.3943  185.6171 C   0  0  0  0  0  0  0  0  0  0  0  0
  153.2392  136.4242  184.9540 C   0  0  0  0  0  0  0  0  0  0  0  0
  153.2821  135.0701  185.2800 C   0  0  0  0  0  0  0  0  0  0  0  0
  152.5957  134.2175  184.6372 O   0  0  0  0  0  0  0  0  0  0  0  0
  154.0478  134.7062  186.2639 O   0  0  0  0  0  0  0  0  0  0  0  0
  154.7662  135.5868  186.9399 C   0  0  0  0  0  0  0  0  0  0  0  0
  155.5627  135.1294  187.9851 C   0  0  0  0  0  0  0  0  0  0  0  0
  152.3905  136.7783  183.8353 C   0  0  0  0  0  0  0  0  0  0  0  0
  152.9218  136.8210  182.5806 C   0  0  0  0  0  0  0  0  0  0  0  0
  152.1448  137.1497  181.4989 C   0  0  0  0  0  0  0  0  0  0  0  0
  150.8155  137.4382  181.6899 C   0  0  0  0  0  0  0  0  0  0  0  0
  150.2749  137.3953  182.9624 C   0  0  0  0  0  0  0  0  0  0  0  0
  151.0662  137.0652  184.0308 C   0  0  0  0  0  0  0  0  0  0  0  0
  150.4156  137.0433  185.3664 C   0  0  0  0  0  0  0  0  0  0  0  0
  150.0227  137.7736  180.5860 O   0  0  0  0  0  0  0  0  0  0  0  0
  149.8515  139.1314  180.1951 C   0  0  0  0  0  0  0  0  0  0  0  0
  150.0058  139.2076  178.8331 F   0  0  0  0  0  0  0  0  0  0  0  0
  148.5862  139.5569  180.5553 F   0  0  0  0  0  0  0  0  0  0  0  0
  150.7607  139.9629  180.8318 F   0  0  0  0  0  0  0  0  0  0  0  0
  157.1190  135.4996  189.7725 O   0  0  0  0  0  0  0  0  0  0  0  0
  156.5665  136.1149  192.0184 C   0  0  0  0  0  0  0  0  0  0  0  0
  156.5885  135.0087  190.9883 C   0  0  0  0  0  0  0  0  0  0  0  0
  153.9668  138.7121  185.3536 O   0  0  0  0  0  0  0  0  0  0  0  0
  154.5669  139.5215  184.4609 C   0  0  0  0  0  0  0  0  0  0  0  0
  153.9492  140.2620  183.4881 C   0  0  0  0  0  0  0  0  0  0  0  0
  154.6301  141.0809  182.5879 C   0  0  0  0  0  0  0  0  0  0  0  0
  156.0168  141.1814  182.6457 C   0  0  0  0  0  0  0  0  0  0  0  0
  156.6614  140.4480  183.6139 C   0  0  0  0  0  0  0  0  0  0  0  0
  155.9681  139.6473  184.4905 C   0  0  0  0  0  0  0  0  0  0  0  0
  156.7050  142.0402  181.6979 C   0  0  0  0  0  0  0  0  0  0  0  0
  157.7644  141.6795  181.0027 C   0  0  0  0  0  0  0  0  0  0  0  0
  158.3727  142.6481  180.0699 C   0  0  0  0  0  0  0  0  0  0  0  0
  158.7707  143.7694  180.4538 O   0  0  0  0  0  0  0  0  0  0  0  0
  158.5176  142.3325  178.7342 O   0  0  0  0  0  0  0  0  0  0  0  0
  159.4318  142.1842  178.2915 H   0  0  0  0  0  0  0  0  0  0  0  0
 25 26  1  0  0  0
 26 24  1  0  0  0
 24  1  1  0  0  0
  1  2  2  0  0  0
  2  3  1  0  0  0
  3  4  2  0  0  0
  4  5  1  0  0  0
  5 27  1  0  0  0
 27 28  1  0  0  0
 28 29  2  0  0  0
 29 30  1  0  0  0
 30 31  2  0  0  0
 31 34  1  0  0  0
 34 35  2  0  0  0
 35 36  1  0  0  0
 36 37  2  0  0  0
 36 38  1  0  0  0
 31 32  1  0  0  0
 32 33  2  0  0  0
  5  6  2  0  0  0
  6 12  1  0  0  0
 12 13  2  0  0  0
 13 14  1  0  0  0
 14 15  2  0  0  0
 15 19  1  0  0  0
 19 20  1  0  0  0
 20 21  1  0  0  0
 20 22  1  0  0  0
 20 23  1  0  0  0
 15 16  1  0  0  0
 16 17  2  0  0  0
 17 18  1  0  0  0
  6  7  1  0  0  0
  7  8  2  0  0  0
  7  9  1  0  0  0
  9 10  1  0  0  0
 10 11  2  0  0  0
 11  1  1  0  0  0
 10  4  1  0  0  0
 33 28  1  0  0  0
 17 12  1  0  0  0
 38 39  1  0  0  0
M  END
> <minimizedAffinity>
-8.00244

> <CNNscore>
0.1254632026

> <CNNaffinity>
6.1583323479

> <CNN_VS>
0.7726441026

> <CNNaffinity_variance>
0.1612494439

$$$$
[H]OC(=O)/C([H])=C(\[H])c1c([H])c([H])c(Oc2c(-c3c([H])c([H])c(OC(F)(F)F)c([H])c3C([H])([H])[H])c(=O)oc3c([H])c(OC([H])([H])C([H])([H])[H])c([H])c([H])c23)c([H])c1[H]


 39 42  0  0  0  0  0  0  0  0999 V2000
  158.1690  141.4492  183.2788 C   0  0  0  0  0  0  0  0  0  0  0  0
  158.6286  140.8558  184.4289 C   0  0  0  0  0  0  0  0  0  0  0  0
  157.7951  139.9889  185.1010 C   0  0  0  0  0  0  0  0  0  0  0  0
  156.5201  139.7012  184.6561 C   0  0  0  0  0  0  0  0  0  0  0  0
  155.6646  138.8155  185.3335 C   0  0  0  0  0  0  0  0  0  0  0  0
  154.4244  138.6299  184.7578 C   0  0  0  0  0  0  0  0  0  0  0  0
  154.0144  139.2611  183.5852 C   0  0  0  0  0  0  0  0  0  0  0  0
  152.8610  139.0550  183.0968 O   0  0  0  0  0  0  0  0  0  0  0  0
  154.8503  140.0689  183.0060 O   0  0  0  0  0  0  0  0  0  0  0  0
  156.0541  140.2897  183.5066 C   0  0  0  0  0  0  0  0  0  0  0  0
  156.9014  141.1644  182.8334 C   0  0  0  0  0  0  0  0  0  0  0  0
  153.4500  137.7576  185.3799 C   0  0  0  0  0  0  0  0  0  0  0  0
  152.6243  138.2573  186.3429 C   0  0  0  0  0  0  0  0  0  0  0  0
  151.6883  137.4589  186.9499 C   0  0  0  0  0  0  0  0  0  0  0  0
  151.5874  136.1405  186.5778 C   0  0  0  0  0  0  0  0  0  0  0  0
  152.4246  135.6322  185.6009 C   0  0  0  0  0  0  0  0  0  0  0  0
  153.3534  136.4443  185.0058 C   0  0  0  0  0  0  0  0  0  0  0  0
  154.2187  135.8263  183.9681 C   0  0  0  0  0  0  0  0  0  0  0  0
  150.6323  135.3260  187.1971 O   0  0  0  0  0  0  0  0  0  0  0  0
  150.8344  134.8390  188.5192 C   0  0  0  0  0  0  0  0  0  0  0  0
  152.1328  134.4049  188.6218 F   0  0  0  0  0  0  0  0  0  0  0  0
  150.5999  135.8573  189.4245 F   0  0  0  0  0  0  0  0  0  0  0  0
  149.9554  133.8099  188.8224 F   0  0  0  0  0  0  0  0  0  0  0  0
  158.9912  142.3180  182.5973 O   0  0  0  0  0  0  0  0  0  0  0  0
  159.0939  142.9417  180.2889 C   0  0  0  0  0  0  0  0  0  0  0  0
  158.5172  143.2559  181.6505 C   0  0  0  0  0  0  0  0  0  0  0  0
  156.1206  138.2401  186.4592 O   0  0  0  0  0  0  0  0  0  0  0  0
  155.5823  137.8057  187.6140 C   0  0  0  0  0  0  0  0  0  0  0  0
  155.0665  138.5840  188.6163 C   0  0  0  0  0  0  0  0  0  0  0  0
  154.5250  138.0715  189.7948 C   0  0  0  0  0  0  0  0  0  0  0  0
  154.4861  136.6966  190.0058 C   0  0  0  0  0  0  0  0  0  0  0  0
  154.9974  135.8927  189.0144 C   0  0  0  0  0  0  0  0  0  0  0  0
  155.5264  136.4215  187.8608 C   0  0  0  0  0  0  0  0  0  0  0  0
  153.9177  136.1852  191.2408 C   0  0  0  0  0  0  0  0  0  0  0  0
  152.8683  136.7037  191.8456 C   0  0  0  0  0  0  0  0  0  0  0  0
  152.3877  136.0891  193.0984 C   0  0  0  0  0  0  0  0  0  0  0  0
  153.0904  135.2840  193.7474 O   0  0  0  0  0  0  0  0  0  0  0  0
  151.1340  136.3943  193.5880 O   0  0  0  0  0  0  0  0  0  0  0  0
  150.9869  136.9282  194.4524 H   0  0  0  0  0  0  0  0  0  0  0  0
 25 26  1  0  0  0
 26 24  1  0  0  0
 24  1  1  0  0  0
  1  2  2  0  0  0
  2  3  1  0  0  0
  3  4  2  0  0  0
  4  5  1  0  0  0
  5 27  1  0  0  0
 27 28  1  0  0  0
 28 29  2  0  0  0
 29 30  1  0  0  0
 30 31  2  0  0  0
 31 34  1  0  0  0
 34 35  2  0  0  0
 35 36  1  0  0  0
 36 37  2  0  0  0
 36 38  1  0  0  0
 31 32  1  0  0  0
 32 33  2  0  0  0
  5  6  2  0  0  0
  6 12  1  0  0  0
 12 13  2  0  0  0
 13 14  1  0  0  0
 14 15  2  0  0  0
 15 19  1  0  0  0
 19 20  1  0  0  0
 20 21  1  0  0  0
 20 22  1  0  0  0
 20 23  1  0  0  0
 15 16  1  0  0  0
 16 17  2  0  0  0
 17 18  1  0  0  0
  6  7  1  0  0  0
  7  8  2  0  0  0
  7  9  1  0  0  0
  9 10  1  0  0  0
 10 11  2  0  0  0
 11  1  1  0  0  0
 10  4  1  0  0  0
 33 28  1  0  0  0
 17 12  1  0  0  0
 38 39  1  0  0  0
M  END
> <minimizedAffinity>
-7.49035

> <CNNscore>
0.1229255944

> <CNNaffinity>
6.1427793503

> <CNN_VS>
0.7551047802

> <CNNaffinity_variance>
0.2397989482

$$$$
[H]OC(=O)/C([H])=C(\[H])c1c([H])c([H])c(Oc2c(-c3c([H])c([H])c(OC(F)(F)F)c([H])c3C([H])([H])[H])c(=O)oc3c([H])c(OC([H])([H])C([H])([H])[H])c([H])c([H])c23)c([H])c1[H]


 39 42  0  0  0  0  0  0  0  0999 V2000
  151.1662  139.0941  180.3657 C   0  0  0  0  0  0  0  0  0  0  0  0
  152.0502  140.0898  180.7024 C   0  0  0  0  0  0  0  0  0  0  0  0
  152.6880  140.0193  181.9215 C   0  0  0  0  0  0  0  0  0  0  0  0
  152.4663  138.9851  182.8089 C   0  0  0  0  0  0  0  0  0  0  0  0
  153.1152  138.9036  184.0529 C   0  0  0  0  0  0  0  0  0  0  0  0
  152.7894  137.8057  184.8226 C   0  0  0  0  0  0  0  0  0  0  0  0
  151.8829  136.8249  184.4251 C   0  0  0  0  0  0  0  0  0  0  0  0
  151.6184  135.8333  185.1721 O   0  0  0  0  0  0  0  0  0  0  0  0
  151.3155  136.9567  183.2643 O   0  0  0  0  0  0  0  0  0  0  0  0
  151.5848  137.9856  182.4787 C   0  0  0  0  0  0  0  0  0  0  0  0
  150.9441  138.0636  181.2460 C   0  0  0  0  0  0  0  0  0  0  0  0
  153.3779  137.6283  186.1338 C   0  0  0  0  0  0  0  0  0  0  0  0
  152.9796  138.4332  187.1595 C   0  0  0  0  0  0  0  0  0  0  0  0
  153.5147  138.2895  188.4145 C   0  0  0  0  0  0  0  0  0  0  0  0
  154.4634  137.3204  188.6329 C   0  0  0  0  0  0  0  0  0  0  0  0
  154.8686  136.5031  187.5931 C   0  0  0  0  0  0  0  0  0  0  0  0
  154.3232  136.6612  186.3466 C   0  0  0  0  0  0  0  0  0  0  0  0
  154.8107  135.7488  185.2800 C   0  0  0  0  0  0  0  0  0  0  0  0
  155.0093  137.1738  189.9135 O   0  0  0  0  0  0  0  0  0  0  0  0
  155.9642  138.1045  190.4115 C   0  0  0  0  0  0  0  0  0  0  0  0
  155.2847  139.1379  191.0073 F   0  0  0  0  0  0  0  0  0  0  0  0
  156.7796  137.4762  191.3345 F   0  0  0  0  0  0  0  0  0  0  0  0
  156.7829  138.5841  189.4000 F   0  0  0  0  0  0  0  0  0  0  0  0
  150.5214  139.1521  179.1507 O   0  0  0  0  0  0  0  0  0  0  0  0
  148.2150  138.9169  179.7450 C   0  0  0  0  0  0  0  0  0  0  0  0
  149.3406  138.4288  178.8619 C   0  0  0  0  0  0  0  0  0  0  0  0
  153.9774  139.8825  184.3763 O   0  0  0  0  0  0  0  0  0  0  0  0
  155.3131  140.0476  184.3492 C   0  0  0  0  0  0  0  0  0  0  0  0
  156.2368  139.3374  185.0695 C   0  0  0  0  0  0  0  0  0  0  0  0
  157.6116  139.5602  185.0000 C   0  0  0  0  0  0  0  0  0  0  0  0
  158.1176  140.5507  184.1637 C   0  0  0  0  0  0  0  0  0  0  0  0
  157.2110  141.2782  183.4291 C   0  0  0  0  0  0  0  0  0  0  0  0
  155.8597  141.0400  183.5146 C   0  0  0  0  0  0  0  0  0  0  0  0
  159.5530  140.7654  184.1075 C   0  0  0  0  0  0  0  0  0  0  0  0
  160.1708  141.7973  184.6451 C   0  0  0  0  0  0  0  0  0  0  0  0
  161.6377  141.8997  184.5178 C   0  0  0  0  0  0  0  0  0  0  0  0
  162.3097  142.6574  185.2508 O   0  0  0  0  0  0  0  0  0  0  0  0
  162.3091  141.1503  183.5732 O   0  0  0  0  0  0  0  0  0  0  0  0
  162.9466  140.3840  183.8185 H   0  0  0  0  0  0  0  0  0  0  0  0
 25 26  1  0  0  0
 26 24  1  0  0  0
 24  1  1  0  0  0
  1  2  2  0  0  0
  2  3  1  0  0  0
  3  4  2  0  0  0
  4  5  1  0  0  0
  5 27  1  0  0  0
 27 28  1  0  0  0
 28 29  2  0  0  0
 29 30  1  0  0  0
 30 31  2  0  0  0
 31 34  1  0  0  0
 34 35  2  0  0  0
 35 36  1  0  0  0
 36 37  2  0  0  0
 36 38  1  0  0  0
 31 32  1  0  0  0
 32 33  2  0  0  0
  5  6  2  0  0  0
  6 12  1  0  0  0
 12 13  2  0  0  0
 13 14  1  0  0  0
 14 15  2  0  0  0
 15 19  1  0  0  0
 19 20  1  0  0  0
 20 21  1  0  0  0
 20 22  1  0  0  0
 20 23  1  0  0  0
 15 16  1  0  0  0
 16 17  2  0  0  0
 17 18  1  0  0  0
  6  7  1  0  0  0
  7  8  2  0  0  0
  7  9  1  0  0  0
  9 10  1  0  0  0
 10 11  2  0  0  0
 11  1  1  0  0  0
 10  4  1  0  0  0
 33 28  1  0  0  0
 17 12  1  0  0  0
 38 39  1  0  0  0
M  END
> <minimizedAffinity>
-9.03758

> <CNNscore>
0.1212433428

> <CNNaffinity>
6.2555041313

> <CNN_VS>
0.7584382296

> <CNNaffinity_variance>
0.2618710697

$$$$
[H]OC(=O)/C([H])=C(\[H])c1c([H])c([H])c(Oc2c(-c3c([H])c([H])c(OC(F)(F)F)c([H])c3C([H])([H])[H])c(=O)oc3c([H])c(OC([H])([H])C([H])([H])[H])c([H])c([H])c23)c([H])c1[H]


 39 42  0  0  0  0  0  0  0  0999 V2000
  157.9929  141.9574  182.2578 C   0  0  0  0  0  0  0  0  0  0  0  0
  156.7482  142.2860  181.7793 C   0  0  0  0  0  0  0  0  0  0  0  0
  155.6483  141.6538  182.3165 C   0  0  0  0  0  0  0  0  0  0  0  0
  155.7592  140.7061  183.3144 C   0  0  0  0  0  0  0  0  0  0  0  0
  154.6423  140.0591  183.8704 C   0  0  0  0  0  0  0  0  0  0  0  0
  154.9199  139.1413  184.8626 C   0  0  0  0  0  0  0  0  0  0  0  0
  156.2078  138.8506  185.3081 C   0  0  0  0  0  0  0  0  0  0  0  0
  156.4086  137.9966  186.2254 O   0  0  0  0  0  0  0  0  0  0  0  0
  157.1989  139.4816  184.7545 O   0  0  0  0  0  0  0  0  0  0  0  0
  157.0000  140.3733  183.7986 C   0  0  0  0  0  0  0  0  0  0  0  0
  158.1063  141.0155  183.2510 C   0  0  0  0  0  0  0  0  0  0  0  0
  153.8501  138.3957  185.4925 C   0  0  0  0  0  0  0  0  0  0  0  0
  153.2310  138.9141  186.5910 C   0  0  0  0  0  0  0  0  0  0  0  0
  152.2120  138.2352  187.2096 C   0  0  0  0  0  0  0  0  0  0  0  0
  151.8158  137.0183  186.7105 C   0  0  0  0  0  0  0  0  0  0  0  0
  152.4431  136.4910  185.5960 C   0  0  0  0  0  0  0  0  0  0  0  0
  153.4589  137.1833  184.9915 C   0  0  0  0  0  0  0  0  0  0  0  0
  154.0862  136.5517  183.8018 C   0  0  0  0  0  0  0  0  0  0  0  0
  150.7760  136.3256  187.3417 O   0  0  0  0  0  0  0  0  0  0  0  0
  151.0172  135.5562  188.5146 C   0  0  0  0  0  0  0  0  0  0  0  0
  149.8050  135.1677  189.0287 F   0  0  0  0  0  0  0  0  0  0  0  0
  151.7736  134.4458  188.1878 F   0  0  0  0  0  0  0  0  0  0  0  0
  151.7335  136.2774  189.4581 F   0  0  0  0  0  0  0  0  0  0  0  0
  159.1008  142.5809  181.7298 O   0  0  0  0  0  0  0  0  0  0  0  0
  159.4285  143.5517  179.5668 C   0  0  0  0  0  0  0  0  0  0  0  0
  159.0390  143.7952  181.0070 C   0  0  0  0  0  0  0  0  0  0  0  0
  153.4278  140.3844  183.3957 O   0  0  0  0  0  0  0  0  0  0  0  0
  152.5825  139.8904  182.4718 C   0  0  0  0  0  0  0  0  0  0  0  0
  151.7205  138.8385  182.6356 C   0  0  0  0  0  0  0  0  0  0  0  0
  150.8702  138.3703  181.6343 C   0  0  0  0  0  0  0  0  0  0  0  0
  150.8643  138.9773  180.3822 C   0  0  0  0  0  0  0  0  0  0  0  0
  151.7206  140.0362  180.1918 C   0  0  0  0  0  0  0  0  0  0  0  0
  152.5499  140.4799  181.1945 C   0  0  0  0  0  0  0  0  0  0  0  0
  149.9706  138.4727  179.3544 C   0  0  0  0  0  0  0  0  0  0  0  0
  148.7311  138.0841  179.5740 C   0  0  0  0  0  0  0  0  0  0  0  0
  147.9242  137.5898  178.4412 C   0  0  0  0  0  0  0  0  0  0  0  0
  147.9301  138.1635  177.3304 O   0  0  0  0  0  0  0  0  0  0  0  0
  147.1344  136.4674  178.5857 O   0  0  0  0  0  0  0  0  0  0  0  0
  147.3293  135.5818  178.1046 H   0  0  0  0  0  0  0  0  0  0  0  0
 25 26  1  0  0  0
 26 24  1  0  0  0
 24  1  1  0  0  0
  1  2  2  0  0  0
  2  3  1  0  0  0
  3  4  2  0  0  0
  4  5  1  0  0  0
  5 27  1  0  0  0
 27 28  1  0  0  0
 28 29  2  0  0  0
 29 30  1  0  0  0
 30 31  2  0  0  0
 31 34  1  0  0  0
 34 35  2  0  0  0
 35 36  1  0  0  0
 36 37  2  0  0  0
 36 38  1  0  0  0
 31 32  1  0  0  0
 32 33  2  0  0  0
  5  6  2  0  0  0
  6 12  1  0  0  0
 12 13  2  0  0  0
 13 14  1  0  0  0
 14 15  2  0  0  0
 15 19  1  0  0  0
 19 20  1  0  0  0
 20 21  1  0  0  0
 20 22  1  0  0  0
 20 23  1  0  0  0
 15 16  1  0  0  0
 16 17  2  0  0  0
 17 18  1  0  0  0
  6  7  1  0  0  0
  7  8  2  0  0  0
  7  9  1  0  0  0
  9 10  1  0  0  0
 10 11  2  0  0  0
 11  1  1  0  0  0
 10  4  1  0  0  0
 33 28  1  0  0  0
 17 12  1  0  0  0
 38 39  1  0  0  0
M  END
> <minimizedAffinity>
-7.61172

> <CNNscore>
0.1095650122

> <CNNaffinity>
6.0518965721

> <CNN_VS>
0.6630761027

> <CNNaffinity_variance>
0.2017333508

$$$$
[H]N=C(c1c([H])c([H])c([H])c(Oc2c([H])c([H])c(N([H])[H])c([H])c2C(=O)N([H])c2c([H])c([H])c(-c3c([H])c([H])c([H])c([H])c3S(=O)(=O)N([H])[H])c([H])c2[H])c1[H])N([H])[H]


 44 47  0  0  0  0  0  0  0  0999 V2000
  159.3243  140.7501  183.8743 C   0  0  0  0  0  0  0  0  0  0  0  0
  160.5683  141.3968  184.0867 C   0  0  0  0  0  0  0  0  0  0  0  0
  160.8088  142.0619  185.2588 C   0  0  0  0  0  0  0  0  0  0  0  0
  159.8174  142.0821  186.2076 C   0  0  0  0  0  0  0  0  0  0  0  0
  160.0842  142.7878  187.4064 N   0  0  0  0  0  0  0  0  0  0  0  0
  158.6168  141.4508  186.0032 C   0  0  0  0  0  0  0  0  0  0  0  0
  158.3435  140.7411  184.7864 C   0  0  0  0  0  0  0  0  0  0  0  0
  159.8754  142.3852  188.3250 H   0  0  0  0  0  0  0  0  0  0  0  0
  160.4920  143.7315  187.3079 H   0  0  0  0  0  0  0  0  0  0  0  0
  157.1919  139.8025  184.8745 C   0  0  0  0  0  0  0  0  0  0  0  0
  156.6504  139.6606  183.6995 O   0  0  0  0  0  0  0  0  0  0  0  0
  156.7010  139.1513  185.9085 N   0  0  0  0  0  0  0  0  0  0  0  0
  156.0344  138.3086  185.0245 H   0  0  0  0  0  0  0  0  0  0  0  0
  156.1870  138.4692  186.9916 C   0  0  0  0  0  0  0  0  0  0  0  0
  154.9054  137.8780  186.8958 C   0  0  0  0  0  0  0  0  0  0  0  0
  154.3085  137.2588  187.9703 C   0  0  0  0  0  0  0  0  0  0  0  0
  154.9348  137.1875  189.1884 C   0  0  0  0  0  0  0  0  0  0  0  0
  156.1800  137.7478  189.3091 C   0  0  0  0  0  0  0  0  0  0  0  0
  156.7901  138.3734  188.2353 C   0  0  0  0  0  0  0  0  0  0  0  0
  154.3180  136.5911  190.3514 C   0  0  0  0  0  0  0  0  0  0  0  0
  153.4817  137.3182  191.1775 C   0  0  0  0  0  0  0  0  0  0  0  0
  152.9202  136.7726  192.3036 C   0  0  0  0  0  0  0  0  0  0  0  0
  153.1971  135.4611  192.6223 C   0  0  0  0  0  0  0  0  0  0  0  0
  154.0217  134.7248  191.8162 C   0  0  0  0  0  0  0  0  0  0  0  0
  154.5868  135.2837  190.6748 C   0  0  0  0  0  0  0  0  0  0  0  0
  155.5848  134.2862  189.6998 S   0  0  0  0  0  0  0  0  0  0  0  0
  155.6320  132.6815  190.4051 N   0  0  0  0  0  0  0  0  0  0  0  0
  157.0280  134.7524  189.7948 O   0  0  0  0  0  0  0  0  0  0  0  0
  155.1404  134.1588  188.2714 O   0  0  0  0  0  0  0  0  0  0  0  0
  156.1935  132.6764  191.2826 H   0  0  0  0  0  0  0  0  0  0  0  0
  154.6691  132.3806  190.6292 H   0  0  0  0  0  0  0  0  0  0  0  0
  159.1799  140.1229  182.6140 O   0  0  0  0  0  0  0  0  0  0  0  0
  158.5773  143.4238  181.1512 C   0  0  0  0  0  0  0  0  0  0  0  0
  158.1823  143.1133  179.8666 C   0  0  0  0  0  0  0  0  0  0  0  0
  158.0988  141.8169  179.4240 C   0  0  0  0  0  0  0  0  0  0  0  0
  158.4361  140.8103  180.3443 C   0  0  0  0  0  0  0  0  0  0  0  0
  158.8249  141.0511  181.6057 C   0  0  0  0  0  0  0  0  0  0  0  0
  158.8974  142.4115  182.0183 C   0  0  0  0  0  0  0  0  0  0  0  0
  159.5610  145.6326  181.2847 N   0  0  0  0  0  0  0  0  0  0  0  0
  158.6478  144.8171  181.6089 C   0  0  0  0  0  0  0  0  0  0  0  0
  157.6330  145.2796  182.4880 N   0  0  0  0  0  0  0  0  0  0  0  0
  160.3690  145.5081  180.6776 H   0  0  0  0  0  0  0  0  0  0  0  0
  157.9549  145.5304  183.4582 H   0  0  0  0  0  0  0  0  0  0  0  0
  156.6373  145.3912  182.2772 H   0  0  0  0  0  0  0  0  0  0  0  0
 39 40  2  0  0  0
 40 41  1  0  0  0
 40 33  1  0  0  0
 33 34  2  0  0  0
 34 35  1  0  0  0
 35 36  2  0  0  0
 36 37  1  0  0  0
 37 32  1  0  0  0
 32  1  1  0  0  0
  1  2  2  0  0  0
  2  3  1  0  0  0
  3  4  2  0  0  0
  4  5  1  0  0  0
  4  6  1  0  0  0
  6  7  2  0  0  0
  7 10  1  0  0  0
 10 11  2  0  0  0
 10 12  1  0  0  0
 12 14  1  0  0  0
 14 15  2  0  0  0
 15 16  1  0  0  0
 16 17  2  0  0  0
 17 20  1  0  0  0
 20 21  2  0  0  0
 21 22  1  0  0  0
 22 23  2  0  0  0
 23 24  1  0  0  0
 24 25  2  0  0  0
 25 26  1  0  0  0
 26 27  1  0  0  0
 26 28  2  0  0  0
 26 29  2  0  0  0
 17 18  1  0  0  0
 18 19  2  0  0  0
 37 38  2  0  0  0
 38 33  1  0  0  0
  7  1  1  0  0  0
 19 14  1  0  0  0
 25 20  1  0  0  0
 39 42  1  0  0  0
 41 43  1  0  0  0
 41 44  1  0  0  0
  5  8  1  0  0  0
  5  9  1  0  0  0
 12 13  1  0  0  0
 27 30  1  0  0  0
 27 31  1  0  0  0
M  END
> <minimizedAffinity>
-8.51194

> <CNNscore>
0.2368458807

> <CNNaffinity>
6.4041185379

> <CNN_VS>
1.5167890787

> <CNNaffinity_variance>
0.1283091605

$$$$
[H]N=C(c1c([H])c([H])c([H])c(Oc2c([H])c([H])c(N([H])[H])c([H])c2C(=O)N([H])c2c([H])c([H])c(-c3c([H])c([H])c([H])c([H])c3S(=O)(=O)N([H])[H])c([H])c2[H])c1[H])N([H])[H]


 44 47  0  0  0  0  0  0  0  0999 V2000
  151.2865  138.1066  181.9615 C   0  0  0  0  0  0  0  0  0  0  0  0
  150.3732  137.7374  180.9414 C   0  0  0  0  0  0  0  0  0  0  0  0
  150.2107  138.5336  179.8397 C   0  0  0  0  0  0  0  0  0  0  0  0
  150.9509  139.6864  179.7585 C   0  0  0  0  0  0  0  0  0  0  0  0
  150.7557  140.5008  178.6161 N   0  0  0  0  0  0  0  0  0  0  0  0
  151.8386  140.0391  180.7431 C   0  0  0  0  0  0  0  0  0  0  0  0
  152.0321  139.2178  181.9037 C   0  0  0  0  0  0  0  0  0  0  0  0
  151.5454  140.8852  178.0886 H   0  0  0  0  0  0  0  0  0  0  0  0
  149.7778  140.6945  178.3465 H   0  0  0  0  0  0  0  0  0  0  0  0
  153.2775  139.5179  182.6612 C   0  0  0  0  0  0  0  0  0  0  0  0
  154.0141  140.3494  181.9831 O   0  0  0  0  0  0  0  0  0  0  0  0
  153.6854  139.0840  183.8357 N   0  0  0  0  0  0  0  0  0  0  0  0
  154.5984  140.1334  183.8738 H   0  0  0  0  0  0  0  0  0  0  0  0
  154.1127  138.6296  185.0660 C   0  0  0  0  0  0  0  0  0  0  0  0
  153.1590  138.3464  186.0717 C   0  0  0  0  0  0  0  0  0  0  0  0
  153.5321  137.9716  187.3423 C   0  0  0  0  0  0  0  0  0  0  0  0
  154.8536  137.8553  187.6905 C   0  0  0  0  0  0  0  0  0  0  0  0
  155.7999  138.1190  186.7346 C   0  0  0  0  0  0  0  0  0  0  0  0
  155.4364  138.4970  185.4533 C   0  0  0  0  0  0  0  0  0  0  0  0
  155.2830  137.5143  189.0277 C   0  0  0  0  0  0  0  0  0  0  0  0
  155.5224  138.4880  189.9790 C   0  0  0  0  0  0  0  0  0  0  0  0
  155.9650  138.1778  191.2396 C   0  0  0  0  0  0  0  0  0  0  0  0
  156.1782  136.8569  191.5687 C   0  0  0  0  0  0  0  0  0  0  0  0
  155.9457  135.8788  190.6409 C   0  0  0  0  0  0  0  0  0  0  0  0
  155.4955  136.2000  189.3647 C   0  0  0  0  0  0  0  0  0  0  0  0
  155.1980  134.9145  188.2689 S   0  0  0  0  0  0  0  0  0  0  0  0
  153.4648  134.7420  188.0656 N   0  0  0  0  0  0  0  0  0  0  0  0
  155.6089  133.5948  188.9002 O   0  0  0  0  0  0  0  0  0  0  0  0
  155.8150  135.0912  186.9118 O   0  0  0  0  0  0  0  0  0  0  0  0
  153.0275  134.3396  188.9212 H   0  0  0  0  0  0  0  0  0  0  0  0
  153.0493  135.6718  187.8901 H   0  0  0  0  0  0  0  0  0  0  0  0
  151.3457  137.2223  183.0647 O   0  0  0  0  0  0  0  0  0  0  0  0
  149.3081  136.7676  186.0715 C   0  0  0  0  0  0  0  0  0  0  0  0
  148.1119  137.3530  185.7126 C   0  0  0  0  0  0  0  0  0  0  0  0
  147.9212  137.9217  184.4783 C   0  0  0  0  0  0  0  0  0  0  0  0
  149.0070  137.8816  183.5876 C   0  0  0  0  0  0  0  0  0  0  0  0
  150.1926  137.3251  183.8795 C   0  0  0  0  0  0  0  0  0  0  0  0
  150.3428  136.7491  185.1725 C   0  0  0  0  0  0  0  0  0  0  0  0
  150.5536  135.5919  187.7834 N   0  0  0  0  0  0  0  0  0  0  0  0
  149.4875  136.1531  187.3929 C   0  0  0  0  0  0  0  0  0  0  0  0
  148.3870  136.1739  188.2900 N   0  0  0  0  0  0  0  0  0  0  0  0
  151.4446  135.4678  187.3063 H   0  0  0  0  0  0  0  0  0  0  0  0
  147.9779  135.2332  188.5258 H   0  0  0  0  0  0  0  0  0  0  0  0
  147.9584  136.9970  188.7224 H   0  0  0  0  0  0  0  0  0  0  0  0
 39 40  2  0  0  0
 40 41  1  0  0  0
 40 33  1  0  0  0
 33 34  2  0  0  0
 34 35  1  0  0  0
 35 36  2  0  0  0
 36 37  1  0  0  0
 37 32  1  0  0  0
 32  1  1  0  0  0
  1  2  2  0  0  0
  2  3  1  0  0  0
  3  4  2  0  0  0
  4  5  1  0  0  0
  4  6  1  0  0  0
  6  7  2  0  0  0
  7 10  1  0  0  0
 10 11  2  0  0  0
 10 12  1  0  0  0
 12 14  1  0  0  0
 14 15  2  0  0  0
 15 16  1  0  0  0
 16 17  2  0  0  0
 17 20  1  0  0  0
 20 21  2  0  0  0
 21 22  1  0  0  0
 22 23  2  0  0  0
 23 24  1  0  0  0
 24 25  2  0  0  0
 25 26  1  0  0  0
 26 27  1  0  0  0
 26 28  2  0  0  0
 26 29  2  0  0  0
 17 18  1  0  0  0
 18 19  2  0  0  0
 37 38  2  0  0  0
 38 33  1  0  0  0
  7  1  1  0  0  0
 19 14  1  0  0  0
 25 20  1  0  0  0
 39 42  1  0  0  0
 41 43  1  0  0  0
 41 44  1  0  0  0
  5  8  1  0  0  0
  5  9  1  0  0  0
 12 13  1  0  0  0
 27 30  1  0  0  0
 27 31  1  0  0  0
M  END
> <minimizedAffinity>
-8.02676

> <CNNscore>
0.2181032896

> <CNNaffinity>
5.7446250916

> <CNN_VS>
1.2529215813

> <CNNaffinity_variance>
0.2621775270

$$$$
[H]N=C(c1c([H])c([H])c([H])c(Oc2c([H])c([H])c(N([H])[H])c([H])c2C(=O)N([H])c2c([H])c([H])c(-c3c([H])c([H])c([H])c([H])c3S(=O)(=O)N([H])[H])c([H])c2[H])c1[H])N([H])[H]


 44 47  0  0  0  0  0  0  0  0999 V2000
  150.3437  137.8585  182.0428 C   0  0  0  0  0  0  0  0  0  0  0  0
  149.5772  137.8245  180.8502 C   0  0  0  0  0  0  0  0  0  0  0  0
  149.8930  138.6482  179.8034 C   0  0  0  0  0  0  0  0  0  0  0  0
  150.9616  139.4975  179.9467 C   0  0  0  0  0  0  0  0  0  0  0  0
  151.2607  140.3498  178.8555 N   0  0  0  0  0  0  0  0  0  0  0  0
  151.7059  139.5248  181.0986 C   0  0  0  0  0  0  0  0  0  0  0  0
  151.3994  138.6662  182.2067 C   0  0  0  0  0  0  0  0  0  0  0  0
  152.2182  140.4639  178.5095 H   0  0  0  0  0  0  0  0  0  0  0  0
  150.4668  140.8565  178.4318 H   0  0  0  0  0  0  0  0  0  0  0  0
  152.5034  138.5309  183.1956 C   0  0  0  0  0  0  0  0  0  0  0  0
  152.2504  137.5423  184.0034 O   0  0  0  0  0  0  0  0  0  0  0  0
  153.6117  139.2283  183.3356 N   0  0  0  0  0  0  0  0  0  0  0  0
  154.1262  138.1989  184.1178 H   0  0  0  0  0  0  0  0  0  0  0  0
  154.7726  139.9587  183.4822 C   0  0  0  0  0  0  0  0  0  0  0  0
  156.0208  139.2940  183.4475 C   0  0  0  0  0  0  0  0  0  0  0  0
  157.2047  139.9588  183.6720 C   0  0  0  0  0  0  0  0  0  0  0  0
  157.2256  141.3037  183.9404 C   0  0  0  0  0  0  0  0  0  0  0  0
  156.0309  141.9748  183.9755 C   0  0  0  0  0  0  0  0  0  0  0  0
  154.8338  141.3165  183.7515 C   0  0  0  0  0  0  0  0  0  0  0  0
  158.4441  142.0243  184.2315 C   0  0  0  0  0  0  0  0  0  0  0  0
  159.1040  141.8691  185.4360 C   0  0  0  0  0  0  0  0  0  0  0  0
  160.2407  142.5751  185.7370 C   0  0  0  0  0  0  0  0  0  0  0  0
  160.7405  143.4661  184.8125 C   0  0  0  0  0  0  0  0  0  0  0  0
  160.1019  143.6327  183.6142 C   0  0  0  0  0  0  0  0  0  0  0  0
  158.9503  142.9126  183.3146 C   0  0  0  0  0  0  0  0  0  0  0  0
  158.2260  143.1553  181.7789 S   0  0  0  0  0  0  0  0  0  0  0  0
  158.1876  141.6218  180.9294 N   0  0  0  0  0  0  0  0  0  0  0  0
  159.1331  144.0125  180.9119 O   0  0  0  0  0  0  0  0  0  0  0  0
  156.8289  143.7030  181.8235 O   0  0  0  0  0  0  0  0  0  0  0  0
  159.1430  141.3412  180.6234 H   0  0  0  0  0  0  0  0  0  0  0  0
  157.8174  140.8927  181.5614 H   0  0  0  0  0  0  0  0  0  0  0  0
  149.9037  136.9852  183.0656 O   0  0  0  0  0  0  0  0  0  0  0  0
  147.5555  137.2867  185.8575 C   0  0  0  0  0  0  0  0  0  0  0  0
  146.8221  138.4024  185.5113 C   0  0  0  0  0  0  0  0  0  0  0  0
  147.0641  139.1031  184.3564 C   0  0  0  0  0  0  0  0  0  0  0  0
  148.1008  138.6307  183.5342 C   0  0  0  0  0  0  0  0  0  0  0  0
  148.8462  137.5515  183.8174 C   0  0  0  0  0  0  0  0  0  0  0  0
  148.5584  136.8584  185.0270 C   0  0  0  0  0  0  0  0  0  0  0  0
  147.0904  135.2914  187.1485 N   0  0  0  0  0  0  0  0  0  0  0  0
  147.2720  136.5435  187.0917 C   0  0  0  0  0  0  0  0  0  0  0  0
  147.1786  137.2785  188.3031 N   0  0  0  0  0  0  0  0  0  0  0  0
  147.1119  134.5894  186.4111 H   0  0  0  0  0  0  0  0  0  0  0  0
  146.2271  137.2901  188.7529 H   0  0  0  0  0  0  0  0  0  0  0  0
  147.9300  137.7899  188.7744 H   0  0  0  0  0  0  0  0  0  0  0  0
 39 40  2  0  0  0
 40 41  1  0  0  0
 40 33  1  0  0  0
 33 34  2  0  0  0
 34 35  1  0  0  0
 35 36  2  0  0  0
 36 37  1  0  0  0
 37 32  1  0  0  0
 32  1  1  0  0  0
  1  2  2  0  0  0
  2  3  1  0  0  0
  3  4  2  0  0  0
  4  5  1  0  0  0
  4  6  1  0  0  0
  6  7  2  0  0  0
  7 10  1  0  0  0
 10 11  2  0  0  0
 10 12  1  0  0  0
 12 14  1  0  0  0
 14 15  2  0  0  0
 15 16  1  0  0  0
 16 17  2  0  0  0
 17 20  1  0  0  0
 20 21  2  0  0  0
 21 22  1  0  0  0
 22 23  2  0  0  0
 23 24  1  0  0  0
 24 25  2  0  0  0
 25 26  1  0  0  0
 26 27  1  0  0  0
 26 28  2  0  0  0
 26 29  2  0  0  0
 17 18  1  0  0  0
 18 19  2  0  0  0
 37 38  2  0  0  0
 38 33  1  0  0  0
  7  1  1  0  0  0
 19 14  1  0  0  0
 25 20  1  0  0  0
 39 42  1  0  0  0
 41 43  1  0  0  0
 41 44  1  0  0  0
  5  8  1  0  0  0
  5  9  1  0  0  0
 12 13  1  0  0  0
 27 30  1  0  0  0
 27 31  1  0  0  0
M  END
> <minimizedAffinity>
-9.07319

> <CNNscore>
0.2039739341

> <CNNaffinity>
6.1228423119

> <CNN_VS>
1.2489001751

> <CNNaffinity_variance>
0.0910357311

$$$$
[H]N=C(c1c([H])c([H])c([H])c(Oc2c([H])c([H])c(N([H])[H])c([H])c2C(=O)N([H])c2c([H])c([H])c(-c3c([H])c([H])c([H])c([H])c3S(=O)(=O)N([H])[H])c([H])c2[H])c1[H])N([H])[H]


 44 47  0  0  0  0  0  0  0  0999 V2000
  152.5219  139.1585  181.4978 C   0  0  0  0  0  0  0  0  0  0  0  0
  152.5085  139.9923  180.3509 C   0  0  0  0  0  0  0  0  0  0  0  0
  151.4756  139.9175  179.4556 C   0  0  0  0  0  0  0  0  0  0  0  0
  150.4681  139.0189  179.7023 C   0  0  0  0  0  0  0  0  0  0  0  0
  149.4172  138.9499  178.7550 N   0  0  0  0  0  0  0  0  0  0  0  0
  150.4792  138.2173  180.8154 C   0  0  0  0  0  0  0  0  0  0  0  0
  151.5468  138.2822  181.7721 C   0  0  0  0  0  0  0  0  0  0  0  0
  148.4340  138.9400  179.0427 H   0  0  0  0  0  0  0  0  0  0  0  0
  149.6918  138.9017  177.7606 H   0  0  0  0  0  0  0  0  0  0  0  0
  151.2261  137.6599  183.0854 C   0  0  0  0  0  0  0  0  0  0  0  0
  150.0308  137.1463  183.0476 O   0  0  0  0  0  0  0  0  0  0  0  0
  151.9466  137.5704  184.1841 N   0  0  0  0  0  0  0  0  0  0  0  0
  151.0942  136.5634  184.6263 H   0  0  0  0  0  0  0  0  0  0  0  0
  152.7013  137.4765  185.3349 C   0  0  0  0  0  0  0  0  0  0  0  0
  152.0847  137.0606  186.5382 C   0  0  0  0  0  0  0  0  0  0  0  0
  152.7683  137.0299  187.7323 C   0  0  0  0  0  0  0  0  0  0  0  0
  154.0859  137.4032  187.8075 C   0  0  0  0  0  0  0  0  0  0  0  0
  154.7106  137.8062  186.6559 C   0  0  0  0  0  0  0  0  0  0  0  0
  154.0330  137.8414  185.4491 C   0  0  0  0  0  0  0  0  0  0  0  0
  154.8207  137.4325  189.0517 C   0  0  0  0  0  0  0  0  0  0  0  0
  154.8276  138.5542  189.8593 C   0  0  0  0  0  0  0  0  0  0  0  0
  155.5507  138.6057  191.0237 C   0  0  0  0  0  0  0  0  0  0  0  0
  156.2929  137.5077  191.4005 C   0  0  0  0  0  0  0  0  0  0  0  0
  156.2978  136.3877  190.6148 C   0  0  0  0  0  0  0  0  0  0  0  0
  155.5612  136.3416  189.4359 C   0  0  0  0  0  0  0  0  0  0  0  0
  155.5948  134.8904  188.5222 S   0  0  0  0  0  0  0  0  0  0  0  0
  156.5172  133.6916  189.4093 N   0  0  0  0  0  0  0  0  0  0  0  0
  156.4134  135.0967  187.2587 O   0  0  0  0  0  0  0  0  0  0  0  0
  154.2444  134.3110  188.2147 O   0  0  0  0  0  0  0  0  0  0  0  0
  157.5333  133.9212  189.3996 H   0  0  0  0  0  0  0  0  0  0  0  0
  156.1938  133.6722  190.3906 H   0  0  0  0  0  0  0  0  0  0  0  0
  153.6549  139.3030  182.3333 O   0  0  0  0  0  0  0  0  0  0  0  0
  155.9822  142.1151  182.6069 C   0  0  0  0  0  0  0  0  0  0  0  0
  155.1325  143.1978  182.6978 C   0  0  0  0  0  0  0  0  0  0  0  0
  153.7677  143.0564  182.6709 C   0  0  0  0  0  0  0  0  0  0  0  0
  153.2686  141.7490  182.5457 C   0  0  0  0  0  0  0  0  0  0  0  0
  154.0450  140.6584  182.4552 C   0  0  0  0  0  0  0  0  0  0  0  0
  155.4543  140.8558  182.4864 C   0  0  0  0  0  0  0  0  0  0  0  0
  158.0437  143.3616  182.3598 N   0  0  0  0  0  0  0  0  0  0  0  0
  157.4397  142.2869  182.6505 C   0  0  0  0  0  0  0  0  0  0  0  0
  158.2294  141.1689  183.0284 N   0  0  0  0  0  0  0  0  0  0  0  0
  157.6753  144.2651  182.0685 H   0  0  0  0  0  0  0  0  0  0  0  0
  158.8573  140.7837  182.2766 H   0  0  0  0  0  0  0  0  0  0  0  0
  158.2487  140.7072  183.9421 H   0  0  0  0  0  0  0  0  0  0  0  0
 39 40  2  0  0  0
 40 41  1  0  0  0
 40 33  1  0  0  0
 33 34  2  0  0  0
 34 35  1  0  0  0
 35 36  2  0  0  0
 36 37  1  0  0  0
 37 32  1  0  0  0
 32  1  1  0  0  0
  1  2  2  0  0  0
  2  3  1  0  0  0
  3  4  2  0  0  0
  4  5  1  0  0  0
  4  6  1  0  0  0
  6  7  2  0  0  0
  7 10  1  0  0  0
 10 11  2  0  0  0
 10 12  1  0  0  0
 12 14  1  0  0  0
 14 15  2  0  0  0
 15 16  1  0  0  0
 16 17  2  0  0  0
 17 20  1  0  0  0
 20 21  2  0  0  0
 21 22  1  0  0  0
 22 23  2  0  0  0
 23 24  1  0  0  0
 24 25  2  0  0  0
 25 26  1  0  0  0
 26 27  1  0  0  0
 26 28  2  0  0  0
 26 29  2  0  0  0
 17 18  1  0  0  0
 18 19  2  0  0  0
 37 38  2  0  0  0
 38 33  1  0  0  0
  7  1  1  0  0  0
 19 14  1  0  0  0
 25 20  1  0  0  0
 39 42  1  0  0  0
 41 43  1  0  0  0
 41 44  1  0  0  0
  5  8  1  0  0  0
  5  9  1  0  0  0
 12 13  1  0  0  0
 27 30  1  0  0  0
 27 31  1  0  0  0
M  END
> <minimizedAffinity>
-8.98803

> <CNNscore>
0.1754942983

> <CNNaffinity>
6.1165452003

> <CNN_VS>
1.0734188557

> <CNNaffinity_variance>
0.1729824394

$$$$
[H]N=C(c1c([H])c([H])c([H])c(Oc2c([H])c([H])c(N([H])[H])c([H])c2C(=O)N([H])c2c([H])c([H])c(-c3c([H])c([H])c([H])c([H])c3S(=O)(=O)N([H])[H])c([H])c2[H])c1[H])N([H])[H]


 44 47  0  0  0  0  0  0  0  0999 V2000
  153.3625  139.8278  182.9616 C   0  0  0  0  0  0  0  0  0  0  0  0
  153.2655  140.8563  181.9901 C   0  0  0  0  0  0  0  0  0  0  0  0
  153.9675  142.0212  182.1463 C   0  0  0  0  0  0  0  0  0  0  0  0
  154.7563  142.1579  183.2609 C   0  0  0  0  0  0  0  0  0  0  0  0
  155.4623  143.3772  183.4076 N   0  0  0  0  0  0  0  0  0  0  0  0
  154.8540  141.1597  184.1967 C   0  0  0  0  0  0  0  0  0  0  0  0
  154.1341  139.9269  184.0520 C   0  0  0  0  0  0  0  0  0  0  0  0
  156.4541  143.3965  183.6637 H   0  0  0  0  0  0  0  0  0  0  0  0
  154.9254  144.2455  183.2517 H   0  0  0  0  0  0  0  0  0  0  0  0
  154.6385  138.8225  184.9127 C   0  0  0  0  0  0  0  0  0  0  0  0
  155.6153  138.2081  184.3108 O   0  0  0  0  0  0  0  0  0  0  0  0
  154.2515  138.4301  186.1087 N   0  0  0  0  0  0  0  0  0  0  0  0
  155.4521  137.7388  186.2385 H   0  0  0  0  0  0  0  0  0  0  0  0
  153.8461  138.0190  187.3614 C   0  0  0  0  0  0  0  0  0  0  0  0
  154.5932  138.4110  188.4969 C   0  0  0  0  0  0  0  0  0  0  0  0
  154.2845  137.9618  189.7606 C   0  0  0  0  0  0  0  0  0  0  0  0
  153.2316  137.1094  189.9751 C   0  0  0  0  0  0  0  0  0  0  0  0
  152.4867  136.7166  188.8935 C   0  0  0  0  0  0  0  0  0  0  0  0
  152.7882  137.1618  187.6177 C   0  0  0  0  0  0  0  0  0  0  0  0
  152.9094  136.5771  191.2796 C   0  0  0  0  0  0  0  0  0  0  0  0
  151.9519  137.1670  192.0832 C   0  0  0  0  0  0  0  0  0  0  0  0
  151.6641  136.6919  193.3373 C   0  0  0  0  0  0  0  0  0  0  0  0
  152.3492  135.5946  193.8115 C   0  0  0  0  0  0  0  0  0  0  0  0
  153.2997  134.9963  193.0303 C   0  0  0  0  0  0  0  0  0  0  0  0
  153.5858  135.4822  191.7589 C   0  0  0  0  0  0  0  0  0  0  0  0
  154.7687  134.6582  190.8297 S   0  0  0  0  0  0  0  0  0  0  0  0
  156.1872  135.6803  190.6957 N   0  0  0  0  0  0  0  0  0  0  0  0
  154.2946  134.5280  189.3918 O   0  0  0  0  0  0  0  0  0  0  0  0
  155.1958  133.3327  191.3905 O   0  0  0  0  0  0  0  0  0  0  0  0
  156.0065  136.4874  190.0623 H   0  0  0  0  0  0  0  0  0  0  0  0
  156.4326  136.0449  191.6311 H   0  0  0  0  0  0  0  0  0  0  0  0
  152.5680  138.6845  182.7085 O   0  0  0  0  0  0  0  0  0  0  0  0
  149.2892  139.1791  181.1580 C   0  0  0  0  0  0  0  0  0  0  0  0
  149.6089  139.3257  179.8243 C   0  0  0  0  0  0  0  0  0  0  0  0
  150.9050  139.2722  179.3763 C   0  0  0  0  0  0  0  0  0  0  0  0
  151.9015  139.0596  180.3436 C   0  0  0  0  0  0  0  0  0  0  0  0
  151.6512  138.9083  181.6532 C   0  0  0  0  0  0  0  0  0  0  0  0
  150.2917  138.9727  182.0699 C   0  0  0  0  0  0  0  0  0  0  0  0
  147.5363  139.1772  182.8289 N   0  0  0  0  0  0  0  0  0  0  0  0
  147.8947  139.2268  181.6151 C   0  0  0  0  0  0  0  0  0  0  0  0
  146.8757  139.3186  180.6305 N   0  0  0  0  0  0  0  0  0  0  0  0
  148.0950  139.1104  183.6776 H   0  0  0  0  0  0  0  0  0  0  0  0
  146.2385  138.4838  180.5598 H   0  0  0  0  0  0  0  0  0  0  0  0
  146.7016  140.1008  179.9931 H   0  0  0  0  0  0  0  0  0  0  0  0
 39 40  2  0  0  0
 40 41  1  0  0  0
 40 33  1  0  0  0
 33 34  2  0  0  0
 34 35  1  0  0  0
 35 36  2  0  0  0
 36 37  1  0  0  0
 37 32  1  0  0  0
 32  1  1  0  0  0
  1  2  2  0  0  0
  2  3  1  0  0  0
  3  4  2  0  0  0
  4  5  1  0  0  0
  4  6  1  0  0  0
  6  7  2  0  0  0
  7 10  1  0  0  0
 10 11  2  0  0  0
 10 12  1  0  0  0
 12 14  1  0  0  0
 14 15  2  0  0  0
 15 16  1  0  0  0
 16 17  2  0  0  0
 17 20  1  0  0  0
 20 21  2  0  0  0
 21 22  1  0  0  0
 22 23  2  0  0  0
 23 24  1  0  0  0
 24 25  2  0  0  0
 25 26  1  0  0  0
 26 27  1  0  0  0
 26 28  2  0  0  0
 26 29  2  0  0  0
 17 18  1  0  0  0
 18 19  2  0  0  0
 37 38  2  0  0  0
 38 33  1  0  0  0
  7  1  1  0  0  0
 19 14  1  0  0  0
 25 20  1  0  0  0
 39 42  1  0  0  0
 41 43  1  0  0  0
 41 44  1  0  0  0
  5  8  1  0  0  0
  5  9  1  0  0  0
 12 13  1  0  0  0
 27 30  1  0  0  0
 27 31  1  0  0  0
M  END
> <minimizedAffinity>
-8.64100

> <CNNscore>
0.1594284177

> <CNNaffinity>
5.7040762901

> <CNN_VS>
0.9093918800

> <CNNaffinity_variance>
0.0927078873

$$$$
[H]N=C(c1c([H])c([H])c([H])c(Oc2c([H])c([H])c(N([H])[H])c([H])c2C(=O)N([H])c2c([H])c([H])c(-c3c([H])c([H])c([H])c([H])c3S(=O)(=O)N([H])[H])c([H])c2[H])c1[H])N([H])[H]


 44 47  0  0  0  0  0  0  0  0999 V2000
  155.8050  141.2415  183.9401 C   0  0  0  0  0  0  0  0  0  0  0  0
  156.0010  142.6384  183.7946 C   0  0  0  0  0  0  0  0  0  0  0  0
  155.0264  143.4167  183.2301 C   0  0  0  0  0  0  0  0  0  0  0  0
  153.8696  142.8064  182.8143 C   0  0  0  0  0  0  0  0  0  0  0  0
  152.8815  143.6298  182.2210 N   0  0  0  0  0  0  0  0  0  0  0  0
  153.6789  141.4559  182.9614 C   0  0  0  0  0  0  0  0  0  0  0  0
  154.6822  140.6201  183.5565 C   0  0  0  0  0  0  0  0  0  0  0  0
  151.8949  143.5634  182.4888 H   0  0  0  0  0  0  0  0  0  0  0  0
  153.2041  144.2944  181.4994 H   0  0  0  0  0  0  0  0  0  0  0  0
  154.1827  139.2895  183.9978 C   0  0  0  0  0  0  0  0  0  0  0  0
  153.2213  138.8989  183.2124 O   0  0  0  0  0  0  0  0  0  0  0  0
  154.5673  138.5244  184.9983 N   0  0  0  0  0  0  0  0  0  0  0  0
  153.9179  137.4539  184.3912 H   0  0  0  0  0  0  0  0  0  0  0  0
  154.9701  137.7230  186.0462 C   0  0  0  0  0  0  0  0  0  0  0  0
  155.7956  138.2659  187.0586 C   0  0  0  0  0  0  0  0  0  0  0  0
  156.2958  137.4923  188.0811 C   0  0  0  0  0  0  0  0  0  0  0  0
  156.0133  136.1527  188.1634 C   0  0  0  0  0  0  0  0  0  0  0  0
  155.2116  135.6004  187.1983 C   0  0  0  0  0  0  0  0  0  0  0  0
  154.7030  136.3686  186.1651 C   0  0  0  0  0  0  0  0  0  0  0  0
  156.5619  135.2994  189.1927 C   0  0  0  0  0  0  0  0  0  0  0  0
  157.7261  134.5822  188.9909 C   0  0  0  0  0  0  0  0  0  0  0  0
  158.2358  133.7416  189.9473 C   0  0  0  0  0  0  0  0  0  0  0  0
  157.5684  133.6067  191.1452 C   0  0  0  0  0  0  0  0  0  0  0  0
  156.4151  134.3092  191.3641 C   0  0  0  0  0  0  0  0  0  0  0  0
  155.9043  135.1611  190.3905 C   0  0  0  0  0  0  0  0  0  0  0  0
  154.4707  136.0301  190.7531 S   0  0  0  0  0  0  0  0  0  0  0  0
  153.8962  135.5283  192.3321 N   0  0  0  0  0  0  0  0  0  0  0  0
  153.3540  135.5929  189.8198 O   0  0  0  0  0  0  0  0  0  0  0  0
  154.6272  137.5231  190.7627 O   0  0  0  0  0  0  0  0  0  0  0  0
  153.5050  134.5634  192.2970 H   0  0  0  0  0  0  0  0  0  0  0  0
  154.6851  135.5392  192.9996 H   0  0  0  0  0  0  0  0  0  0  0  0
  156.8933  140.5374  184.5078 O   0  0  0  0  0  0  0  0  0  0  0  0
  159.1193  141.7305  181.8581 C   0  0  0  0  0  0  0  0  0  0  0  0
  160.3544  141.7032  182.4713 C   0  0  0  0  0  0  0  0  0  0  0  0
  160.5122  141.2980  183.7730 C   0  0  0  0  0  0  0  0  0  0  0  0
  159.3505  140.9083  184.4604 C   0  0  0  0  0  0  0  0  0  0  0  0
  158.1238  140.9120  183.9166 C   0  0  0  0  0  0  0  0  0  0  0  0
  158.0105  141.3416  182.5643 C   0  0  0  0  0  0  0  0  0  0  0  0
  159.5155  143.1875  179.9649 N   0  0  0  0  0  0  0  0  0  0  0  0
  158.9738  142.1554  180.4602 C   0  0  0  0  0  0  0  0  0  0  0  0
  158.1576  141.3660  179.6075 N   0  0  0  0  0  0  0  0  0  0  0  0
  160.1268  143.8798  180.3938 H   0  0  0  0  0  0  0  0  0  0  0  0
  157.2829  141.8351  179.2573 H   0  0  0  0  0  0  0  0  0  0  0  0
  158.3307  140.4033  179.3050 H   0  0  0  0  0  0  0  0  0  0  0  0
 39 40  2  0  0  0
 40 41  1  0  0  0
 40 33  1  0  0  0
 33 34  2  0  0  0
 34 35  1  0  0  0
 35 36  2  0  0  0
 36 37  1  0  0  0
 37 32  1  0  0  0
 32  1  1  0  0  0
  1  2  2  0  0  0
  2  3  1  0  0  0
  3  4  2  0  0  0
  4  5  1  0  0  0
  4  6  1  0  0  0
  6  7  2  0  0  0
  7 10  1  0  0  0
 10 11  2  0  0  0
 10 12  1  0  0  0
 12 14  1  0  0  0
 14 15  2  0  0  0
 15 16  1  0  0  0
 16 17  2  0  0  0
 17 20  1  0  0  0
 20 21  2  0  0  0
 21 22  1  0  0  0
 22 23  2  0  0  0
 23 24  1  0  0  0
 24 25  2  0  0  0
 25 26  1  0  0  0
 26 27  1  0  0  0
 26 28  2  0  0  0
 26 29  2  0  0  0
 17 18  1  0  0  0
 18 19  2  0  0  0
 37 38  2  0  0  0
 38 33  1  0  0  0
  7  1  1  0  0  0
 19 14  1  0  0  0
 25 20  1  0  0  0
 39 42  1  0  0  0
 41 43  1  0  0  0
 41 44  1  0  0  0
  5  8  1  0  0  0
  5  9  1  0  0  0
 12 13  1  0  0  0
 27 30  1  0  0  0
 27 31  1  0  0  0
M  END
> <minimizedAffinity>
-8.25373

> <CNNscore>
0.1477060318

> <CNNaffinity>
6.1992902756

> <CNN_VS>
0.9156725407

> <CNNaffinity_variance>
0.1350450069

$$$$
[H]N=C(c1c([H])c([H])c([H])c(Oc2c([H])c([H])c(N([H])[H])c([H])c2C(=O)N([H])c2c([H])c([H])c(-c3c([H])c([H])c([H])c([H])c3S(=O)(=O)N([H])[H])c([H])c2[H])c1[H])N([H])[H]


 44 47  0  0  0  0  0  0  0  0999 V2000
  155.0031  140.3793  183.7036 C   0  0  0  0  0  0  0  0  0  0  0  0
  154.0602  140.7896  182.7271 C   0  0  0  0  0  0  0  0  0  0  0  0
  153.0161  139.9710  182.3896 C   0  0  0  0  0  0  0  0  0  0  0  0
  152.9156  138.7558  183.0194 C   0  0  0  0  0  0  0  0  0  0  0  0
  151.8350  137.9205  182.6439 N   0  0  0  0  0  0  0  0  0  0  0  0
  153.8250  138.3629  183.9683 C   0  0  0  0  0  0  0  0  0  0  0  0
  154.9237  139.2059  184.3444 C   0  0  0  0  0  0  0  0  0  0  0  0
  151.2517  137.4497  183.3423 H   0  0  0  0  0  0  0  0  0  0  0  0
  151.6697  137.8033  181.6313 H   0  0  0  0  0  0  0  0  0  0  0  0
  155.5704  138.8259  185.6298 C   0  0  0  0  0  0  0  0  0  0  0  0
  156.8630  138.9283  185.5179 O   0  0  0  0  0  0  0  0  0  0  0  0
  155.0370  138.4369  186.7693 N   0  0  0  0  0  0  0  0  0  0  0  0
  156.2441  138.7243  187.3989 H   0  0  0  0  0  0  0  0  0  0  0  0
  154.4783  138.0294  187.9628 C   0  0  0  0  0  0  0  0  0  0  0  0
  155.2192  138.1680  189.1599 C   0  0  0  0  0  0  0  0  0  0  0  0
  154.7462  137.7021  190.3655 C   0  0  0  0  0  0  0  0  0  0  0  0
  153.5277  137.0796  190.4589 C   0  0  0  0  0  0  0  0  0  0  0  0
  152.7856  136.9357  189.3154 C   0  0  0  0  0  0  0  0  0  0  0  0
  153.2513  137.4001  188.0972 C   0  0  0  0  0  0  0  0  0  0  0  0
  153.0218  136.5325  191.6973 C   0  0  0  0  0  0  0  0  0  0  0  0
  152.1824  137.2615  192.5185 C   0  0  0  0  0  0  0  0  0  0  0  0
  151.7258  136.7660  193.7131 C   0  0  0  0  0  0  0  0  0  0  0  0
  152.1148  135.5045  194.1078 C   0  0  0  0  0  0  0  0  0  0  0  0
  152.9444  134.7672  193.3079 C   0  0  0  0  0  0  0  0  0  0  0  0
  153.4027  135.2751  192.0969 C   0  0  0  0  0  0  0  0  0  0  0  0
  154.4145  134.2768  191.1369 S   0  0  0  0  0  0  0  0  0  0  0  0
  154.4118  132.6598  191.8152 N   0  0  0  0  0  0  0  0  0  0  0  0
  155.8616  134.7160  191.2861 O   0  0  0  0  0  0  0  0  0  0  0  0
  154.0144  134.1814  189.6931 O   0  0  0  0  0  0  0  0  0  0  0  0
  154.9445  132.6301  192.7099 H   0  0  0  0  0  0  0  0  0  0  0  0
  153.4371  132.3721  192.0032 H   0  0  0  0  0  0  0  0  0  0  0  0
  156.0547  141.2946  183.9460 O   0  0  0  0  0  0  0  0  0  0  0  0
  158.5023  142.5576  181.5349 C   0  0  0  0  0  0  0  0  0  0  0  0
  159.0190  141.3968  180.9983 C   0  0  0  0  0  0  0  0  0  0  0  0
  158.5934  140.1560  181.4016 C   0  0  0  0  0  0  0  0  0  0  0  0
  157.5994  140.1187  182.3939 C   0  0  0  0  0  0  0  0  0  0  0  0
  157.0585  141.2131  182.9510 C   0  0  0  0  0  0  0  0  0  0  0  0
  157.5331  142.4774  182.5010 C   0  0  0  0  0  0  0  0  0  0  0  0
  159.4958  144.0991  179.9534 N   0  0  0  0  0  0  0  0  0  0  0  0
  158.9624  143.8757  181.0802 C   0  0  0  0  0  0  0  0  0  0  0  0
  158.8152  144.9736  181.9687 N   0  0  0  0  0  0  0  0  0  0  0  0
  159.6927  143.4649  179.1814 H   0  0  0  0  0  0  0  0  0  0  0  0
  159.7136  145.3987  182.3151 H   0  0  0  0  0  0  0  0  0  0  0  0
  157.9388  145.3855  182.3011 H   0  0  0  0  0  0  0  0  0  0  0  0
 39 40  2  0  0  0
 40 41  1  0  0  0
 40 33  1  0  0  0
 33 34  2  0  0  0
 34 35  1  0  0  0
 35 36  2  0  0  0
 36 37  1  0  0  0
 37 32  1  0  0  0
 32  1  1  0  0  0
  1  2  2  0  0  0
  2  3  1  0  0  0
  3  4  2  0  0  0
  4  5  1  0  0  0
  4  6  1  0  0  0
  6  7  2  0  0  0
  7 10  1  0  0  0
 10 11  2  0  0  0
 10 12  1  0  0  0
 12 14  1  0  0  0
 14 15  2  0  0  0
 15 16  1  0  0  0
 16 17  2  0  0  0
 17 20  1  0  0  0
 20 21  2  0  0  0
 21 22  1  0  0  0
 22 23  2  0  0  0
 23 24  1  0  0  0
 24 25  2  0  0  0
 25 26  1  0  0  0
 26 27  1  0  0  0
 26 28  2  0  0  0
 26 29  2  0  0  0
 17 18  1  0  0  0
 18 19  2  0  0  0
 37 38  2  0  0  0
 38 33  1  0  0  0
  7  1  1  0  0  0
 19 14  1  0  0  0
 25 20  1  0  0  0
 39 42  1  0  0  0
 41 43  1  0  0  0
 41 44  1  0  0  0
  5  8  1  0  0  0
  5  9  1  0  0  0
 12 13  1  0  0  0
 27 30  1  0  0  0
 27 31  1  0  0  0
M  END
> <minimizedAffinity>
-9.32583

> <CNNscore>
0.1446663737

> <CNNaffinity>
5.9083595276

> <CNN_VS>
0.8547409773

> <CNNaffinity_variance>
0.0820948929

$$$$
[H]N=C(c1c([H])c([H])c([H])c(Oc2c([H])c([H])c(N([H])[H])c([H])c2C(=O)N([H])c2c([H])c([H])c(-c3c([H])c([H])c([H])c([H])c3S(=O)(=O)N([H])[H])c([H])c2[H])c1[H])N([H])[H]


 44 47  0  0  0  0  0  0  0  0999 V2000
  154.9650  140.4987  183.7660 C   0  0  0  0  0  0  0  0  0  0  0  0
  154.0105  140.8997  182.7969 C   0  0  0  0  0  0  0  0  0  0  0  0
  153.0509  140.0220  182.3694 C   0  0  0  0  0  0  0  0  0  0  0  0
  153.0455  138.7574  182.9027 C   0  0  0  0  0  0  0  0  0  0  0  0
  152.0518  137.8628  182.4350 N   0  0  0  0  0  0  0  0  0  0  0  0
  153.9656  138.3729  183.8447 C   0  0  0  0  0  0  0  0  0  0  0  0
  154.9765  139.2767  184.3141 C   0  0  0  0  0  0  0  0  0  0  0  0
  151.4979  137.2903  183.0791 H   0  0  0  0  0  0  0  0  0  0  0  0
  151.9194  137.8105  181.4121 H   0  0  0  0  0  0  0  0  0  0  0  0
  155.6267  138.8559  185.5849 C   0  0  0  0  0  0  0  0  0  0  0  0
  156.9205  138.9164  185.4570 O   0  0  0  0  0  0  0  0  0  0  0  0
  155.0954  138.4681  186.7258 N   0  0  0  0  0  0  0  0  0  0  0  0
  156.3197  138.7053  187.3431 H   0  0  0  0  0  0  0  0  0  0  0  0
  154.5389  138.0619  187.9208 C   0  0  0  0  0  0  0  0  0  0  0  0
  155.2955  138.1683  189.1113 C   0  0  0  0  0  0  0  0  0  0  0  0
  154.8232  137.7013  190.3167 C   0  0  0  0  0  0  0  0  0  0  0  0
  153.5901  137.1091  190.4164 C   0  0  0  0  0  0  0  0  0  0  0  0
  152.8327  136.9969  189.2795 C   0  0  0  0  0  0  0  0  0  0  0  0
  153.2975  137.4627  188.0614 C   0  0  0  0  0  0  0  0  0  0  0  0
  153.0832  136.5615  191.6542 C   0  0  0  0  0  0  0  0  0  0  0  0
  152.2492  137.2929  192.4787 C   0  0  0  0  0  0  0  0  0  0  0  0
  151.7918  136.7967  193.6728 C   0  0  0  0  0  0  0  0  0  0  0  0
  152.1745  135.5320  194.0634 C   0  0  0  0  0  0  0  0  0  0  0  0
  152.9986  134.7923  193.2602 C   0  0  0  0  0  0  0  0  0  0  0  0
  153.4578  135.3009  192.0498 C   0  0  0  0  0  0  0  0  0  0  0  0
  154.4625  134.2997  191.0854 S   0  0  0  0  0  0  0  0  0  0  0  0
  154.4514  132.6807  191.7590 N   0  0  0  0  0  0  0  0  0  0  0  0
  155.9123  134.7301  191.2339 O   0  0  0  0  0  0  0  0  0  0  0  0
  154.0598  134.2108  189.6419 O   0  0  0  0  0  0  0  0  0  0  0  0
  154.9852  132.6453  192.6529 H   0  0  0  0  0  0  0  0  0  0  0  0
  153.4753  132.3981  191.9474 H   0  0  0  0  0  0  0  0  0  0  0  0
  155.9255  141.4806  184.1063 O   0  0  0  0  0  0  0  0  0  0  0  0
  159.5121  141.5090  183.3751 C   0  0  0  0  0  0  0  0  0  0  0  0
  159.5430  141.2416  182.0223 C   0  0  0  0  0  0  0  0  0  0  0  0
  158.3976  141.0385  181.2941 C   0  0  0  0  0  0  0  0  0  0  0  0
  157.1808  141.1155  181.9924 C   0  0  0  0  0  0  0  0  0  0  0  0
  157.0883  141.3739  183.3059 C   0  0  0  0  0  0  0  0  0  0  0  0
  158.3037  141.5761  184.0188 C   0  0  0  0  0  0  0  0  0  0  0  0
  161.8741  141.2372  183.8351 N   0  0  0  0  0  0  0  0  0  0  0  0
  160.7487  141.7359  184.1335 C   0  0  0  0  0  0  0  0  0  0  0  0
  160.6776  142.5570  185.2898 N   0  0  0  0  0  0  0  0  0  0  0  0
  162.1407  140.6310  183.0617 H   0  0  0  0  0  0  0  0  0  0  0  0
  160.8670  142.0693  186.2032 H   0  0  0  0  0  0  0  0  0  0  0  0
  160.4637  143.5576  185.3243 H   0  0  0  0  0  0  0  0  0  0  0  0
 39 40  2  0  0  0
 40 41  1  0  0  0
 40 33  1  0  0  0
 33 34  2  0  0  0
 34 35  1  0  0  0
 35 36  2  0  0  0
 36 37  1  0  0  0
 37 32  1  0  0  0
 32  1  1  0  0  0
  1  2  2  0  0  0
  2  3  1  0  0  0
  3  4  2  0  0  0
  4  5  1  0  0  0
  4  6  1  0  0  0
  6  7  2  0  0  0
  7 10  1  0  0  0
 10 11  2  0  0  0
 10 12  1  0  0  0
 12 14  1  0  0  0
 14 15  2  0  0  0
 15 16  1  0  0  0
 16 17  2  0  0  0
 17 20  1  0  0  0
 20 21  2  0  0  0
 21 22  1  0  0  0
 22 23  2  0  0  0
 23 24  1  0  0  0
 24 25  2  0  0  0
 25 26  1  0  0  0
 26 27  1  0  0  0
 26 28  2  0  0  0
 26 29  2  0  0  0
 17 18  1  0  0  0
 18 19  2  0  0  0
 37 38  2  0  0  0
 38 33  1  0  0  0
  7  1  1  0  0  0
 19 14  1  0  0  0
 25 20  1  0  0  0
 39 42  1  0  0  0
 41 43  1  0  0  0
 41 44  1  0  0  0
  5  8  1  0  0  0
  5  9  1  0  0  0
 12 13  1  0  0  0
 27 30  1  0  0  0
 27 31  1  0  0  0
M  END
> <minimizedAffinity>
-9.55905

> <CNNscore>
0.1296195537

> <CNNaffinity>
5.9452323914

> <CNN_VS>
0.7706183791

> <CNNaffinity_variance>
0.1212661639

$$$$
[H]N=C(c1c([H])c([H])c([H])c(Oc2c([H])c([H])c(N([H])[H])c([H])c2C(=O)N([H])c2c([H])c([H])c(-c3c([H])c([H])c([H])c([H])c3S(=O)(=O)N([H])[H])c([H])c2[H])c1[H])N([H])[H]


 44 47  0  0  0  0  0  0  0  0999 V2000
  151.2485  138.1492  181.9458 C   0  0  0  0  0  0  0  0  0  0  0  0
  150.3085  137.8067  180.9408 C   0  0  0  0  0  0  0  0  0  0  0  0
  150.1586  138.6020  179.8366 C   0  0  0  0  0  0  0  0  0  0  0  0
  150.9377  139.7275  179.7381 C   0  0  0  0  0  0  0  0  0  0  0  0
  150.7552  140.5419  178.5936 N   0  0  0  0  0  0  0  0  0  0  0  0
  151.8510  140.0542  180.7081 C   0  0  0  0  0  0  0  0  0  0  0  0
  152.0318  139.2330  181.8709 C   0  0  0  0  0  0  0  0  0  0  0  0
  151.5504  140.8952  178.0529 H   0  0  0  0  0  0  0  0  0  0  0  0
  149.7810  140.7685  178.3364 H   0  0  0  0  0  0  0  0  0  0  0  0
  153.2975  139.4933  182.6092 C   0  0  0  0  0  0  0  0  0  0  0  0
  154.0627  140.2768  181.9061 O   0  0  0  0  0  0  0  0  0  0  0  0
  153.6988  139.0664  183.7886 N   0  0  0  0  0  0  0  0  0  0  0  0
  154.6577  140.0747  183.7950 H   0  0  0  0  0  0  0  0  0  0  0  0
  154.1191  138.6193  185.0240 C   0  0  0  0  0  0  0  0  0  0  0  0
  153.1576  138.2984  186.0107 C   0  0  0  0  0  0  0  0  0  0  0  0
  153.5203  137.9288  187.2859 C   0  0  0  0  0  0  0  0  0  0  0  0
  154.8385  137.8548  187.6573 C   0  0  0  0  0  0  0  0  0  0  0  0
  155.7924  138.1557  186.7200 C   0  0  0  0  0  0  0  0  0  0  0  0
  155.4394  138.5289  185.4344 C   0  0  0  0  0  0  0  0  0  0  0  0
  155.2552  137.5205  189.0002 C   0  0  0  0  0  0  0  0  0  0  0  0
  155.4576  138.4971  189.9571 C   0  0  0  0  0  0  0  0  0  0  0  0
  155.8880  138.1942  191.2237 C   0  0  0  0  0  0  0  0  0  0  0  0
  156.1264  136.8777  191.5532 C   0  0  0  0  0  0  0  0  0  0  0  0
  155.9306  135.8967  190.6200 C   0  0  0  0  0  0  0  0  0  0  0  0
  155.4927  136.2106  189.3377 C   0  0  0  0  0  0  0  0  0  0  0  0
  155.2415  134.9213  188.2348 S   0  0  0  0  0  0  0  0  0  0  0  0
  155.6065  133.4107  189.0471 N   0  0  0  0  0  0  0  0  0  0  0  0
  156.2799  134.9822  187.1270 O   0  0  0  0  0  0  0  0  0  0  0  0
  153.8494  134.8321  187.6801 O   0  0  0  0  0  0  0  0  0  0  0  0
  156.6320  133.3070  189.1980 H   0  0  0  0  0  0  0  0  0  0  0  0
  155.1358  133.3975  189.9671 H   0  0  0  0  0  0  0  0  0  0  0  0
  151.2920  137.2695  183.0535 O   0  0  0  0  0  0  0  0  0  0  0  0
  153.0420  134.3744  181.6553 C   0  0  0  0  0  0  0  0  0  0  0  0
  152.0909  133.3794  181.7441 C   0  0  0  0  0  0  0  0  0  0  0  0
  150.8425  133.6101  182.2652 C   0  0  0  0  0  0  0  0  0  0  0  0
  150.5723  134.9157  182.7084 C   0  0  0  0  0  0  0  0  0  0  0  0
  151.4558  135.9237  182.6460 C   0  0  0  0  0  0  0  0  0  0  0  0
  152.7378  135.6353  182.0988 C   0  0  0  0  0  0  0  0  0  0  0  0
  154.6161  134.0631  179.8415 N   0  0  0  0  0  0  0  0  0  0  0  0
  154.3679  134.1097  181.0826 C   0  0  0  0  0  0  0  0  0  0  0  0
  155.4435  133.8736  181.9790 N   0  0  0  0  0  0  0  0  0  0  0  0
  154.0005  134.1996  179.0419 H   0  0  0  0  0  0  0  0  0  0  0  0
  155.8528  132.9043  181.9491 H   0  0  0  0  0  0  0  0  0  0  0  0
  155.8535  134.5390  182.6404 H   0  0  0  0  0  0  0  0  0  0  0  0
 39 40  2  0  0  0
 40 41  1  0  0  0
 40 33  1  0  0  0
 33 34  2  0  0  0
 34 35  1  0  0  0
 35 36  2  0  0  0
 36 37  1  0  0  0
 37 32  1  0  0  0
 32  1  1  0  0  0
  1  2  2  0  0  0
  2  3  1  0  0  0
  3  4  2  0  0  0
  4  5  1  0  0  0
  4  6  1  0  0  0
  6  7  2  0  0  0
  7 10  1  0  0  0
 10 11  2  0  0  0
 10 12  1  0  0  0
 12 14  1  0  0  0
 14 15  2  0  0  0
 15 16  1  0  0  0
 16 17  2  0  0  0
 17 20  1  0  0  0
 20 21  2  0  0  0
 21 22  1  0  0  0
 22 23  2  0  0  0
 23 24  1  0  0  0
 24 25  2  0  0  0
 25 26  1  0  0  0
 26 27  1  0  0  0
 26 28  2  0  0  0
 26 29  2  0  0  0
 17 18  1  0  0  0
 18 19  2  0  0  0
 37 38  2  0  0  0
 38 33  1  0  0  0
  7  1  1  0  0  0
 19 14  1  0  0  0
 25 20  1  0  0  0
 39 42  1  0  0  0
 41 43  1  0  0  0
 41 44  1  0  0  0
  5  8  1  0  0  0
  5  9  1  0  0  0
 12 13  1  0  0  0
 27 30  1  0  0  0
 27 31  1  0  0  0
M  END
> <minimizedAffinity>
-7.97103

> <CNNscore>
0.1215723902

> <CNNaffinity>
5.5207905769

> <CNN_VS>
0.6711757183

> <CNNaffinity_variance>
0.2622117400

$$$$
[H]N1C(=NC2([H])C([H])([H])C([H])([H])C([H])([H])C([H])([H])C([H])([H])C([H])([H])C2([H])[H])O[C@@]2([H])C([H])([H])C([H])([H])C([H])([H])C([H])([H])[C@@]2([H])S1(=O)=O


 22 24  0  0  0  0  0  0  0  0999 V2000
  153.1903  133.4440  185.2389 O   0  0  0  0  0  0  0  0  0  0  0  0
  153.5258  134.1234  183.9479 S   0  0  0  0  0  0  0  0  0  0  0  0
  154.7507  134.9864  184.0685 O   0  0  0  0  0  0  0  0  0  0  0  0
  152.1883  135.0961  183.3867 N   0  0  0  0  0  0  0  0  0  0  0  0
  152.0102  135.2406  181.9942 C   0  0  0  0  0  0  0  0  0  0  0  0
  151.4242  136.2779  181.5411 N   0  0  0  0  0  0  0  0  0  0  0  0
  152.4555  134.2871  181.1243 O   0  0  0  0  0  0  0  0  0  0  0  0
  153.5073  133.4090  181.3137 C   0  0  0  0  0  0  0  0  0  0  0  0
  154.7450  134.0376  180.6559 C   0  0  0  0  0  0  0  0  0  0  0  0
  155.6834  132.9096  180.3333 C   0  0  0  0  0  0  0  0  0  0  0  0
  155.6844  131.8835  181.4177 C   0  0  0  0  0  0  0  0  0  0  0  0
  155.2704  132.5251  182.7435 C   0  0  0  0  0  0  0  0  0  0  0  0
  153.8154  132.9403  182.6730 C   0  0  0  0  0  0  0  0  0  0  0  0
  151.6048  135.5063  184.1070 H   0  0  0  0  0  0  0  0  0  0  0  0
  150.9179  137.3401  182.3624 C   0  0  0  0  0  0  0  0  0  0  0  0
  151.9156  138.4590  182.5423 C   0  0  0  0  0  0  0  0  0  0  0  0
  151.7655  139.5825  181.5734 C   0  0  0  0  0  0  0  0  0  0  0  0
  152.0211  139.2319  180.1470 C   0  0  0  0  0  0  0  0  0  0  0  0
  150.8547  139.6065  179.2400 C   0  0  0  0  0  0  0  0  0  0  0  0
  149.5292  139.2296  179.8175 C   0  0  0  0  0  0  0  0  0  0  0  0
  149.5657  137.8179  180.3064 C   0  0  0  0  0  0  0  0  0  0  0  0
  149.6000  137.8357  181.8171 C   0  0  0  0  0  0  0  0  0  0  0  0
  1  2  2  0  0  0
  2  3  2  0  0  0
  2  4  1  0  0  0
  4  5  1  0  0  0
  5  6  2  0  0  0
  6 15  1  0  0  0
 15 16  1  0  0  0
 16 17  1  0  0  0
 17 18  1  0  0  0
 18 19  1  0  0  0
 19 20  1  0  0  0
 20 21  1  0  0  0
 21 22  1  0  0  0
  5  7  1  0  0  0
  7  8  1  0  0  0
  8  9  1  0  0  0
  9 10  1  0  0  0
 10 11  1  0  0  0
 11 12  1  0  0  0
 12 13  1  0  0  0
 13  2  1  0  0  0
 22 15  1  0  0  0
 13  8  1  0  0  0
  4 14  1  0  0  0
M  END
> <minimizedAffinity>
-4.91306

> <CNNscore>
0.5013659596

> <CNNaffinity>
4.7155675888

> <CNN_VS>
2.3642251492

> <CNNaffinity_variance>
0.1709571332

$$$$
[H]N1C(=NC2([H])C([H])([H])C([H])([H])C([H])([H])C([H])([H])C([H])([H])C([H])([H])C2([H])[H])O[C@@]2([H])C([H])([H])C([H])([H])C([H])([H])C([H])([H])[C@@]2([H])S1(=O)=O


 22 24  0  0  0  0  0  0  0  0999 V2000
  154.1516  138.5511  186.5204 O   0  0  0  0  0  0  0  0  0  0  0  0
  154.1176  137.4724  187.5577 S   0  0  0  0  0  0  0  0  0  0  0  0
  155.0424  136.3368  187.2186 O   0  0  0  0  0  0  0  0  0  0  0  0
  152.4974  136.8541  187.7645 N   0  0  0  0  0  0  0  0  0  0  0  0
  152.1200  136.3947  189.0445 C   0  0  0  0  0  0  0  0  0  0  0  0
  151.2070  135.5115  189.1499 N   0  0  0  0  0  0  0  0  0  0  0  0
  152.7171  136.8810  190.1719 O   0  0  0  0  0  0  0  0  0  0  0  0
  153.9942  137.4005  190.2835 C   0  0  0  0  0  0  0  0  0  0  0  0
  154.9067  136.2592  190.7573 C   0  0  0  0  0  0  0  0  0  0  0  0
  156.0880  136.9000  191.4287 C   0  0  0  0  0  0  0  0  0  0  0  0
  156.5179  138.1310  190.7015 C   0  0  0  0  0  0  0  0  0  0  0  0
  156.0960  138.0439  189.2335 C   0  0  0  0  0  0  0  0  0  0  0  0
  154.5856  138.1044  189.1359 C   0  0  0  0  0  0  0  0  0  0  0  0
  151.9099  136.8635  186.9385 H   0  0  0  0  0  0  0  0  0  0  0  0
  150.5145  134.9323  188.0345 C   0  0  0  0  0  0  0  0  0  0  0  0
  150.6359  133.4278  187.9953 C   0  0  0  0  0  0  0  0  0  0  0  0
  149.5101  132.6997  188.6478 C   0  0  0  0  0  0  0  0  0  0  0  0
  149.3807  132.9128  190.1178 C   0  0  0  0  0  0  0  0  0  0  0  0
  147.9894  133.3935  190.5136 C   0  0  0  0  0  0  0  0  0  0  0  0
  147.4698  134.4653  189.6117 C   0  0  0  0  0  0  0  0  0  0  0  0
  148.5092  135.5215  189.4187 C   0  0  0  0  0  0  0  0  0  0  0  0
  149.0747  135.3869  188.0237 C   0  0  0  0  0  0  0  0  0  0  0  0
  1  2  2  0  0  0
  2  3  2  0  0  0
  2  4  1  0  0  0
  4  5  1  0  0  0
  5  6  2  0  0  0
  6 15  1  0  0  0
 15 16  1  0  0  0
 16 17  1  0  0  0
 17 18  1  0  0  0
 18 19  1  0  0  0
 19 20  1  0  0  0
 20 21  1  0  0  0
 21 22  1  0  0  0
  5  7  1  0  0  0
  7  8  1  0  0  0
  8  9  1  0  0  0
  9 10  1  0  0  0
 10 11  1  0  0  0
 11 12  1  0  0  0
 12 13  1  0  0  0
 13  2  1  0  0  0
 22 15  1  0  0  0
 13  8  1  0  0  0
  4 14  1  0  0  0
M  END
> <minimizedAffinity>
-4.75059

> <CNNscore>
0.4864631295

> <CNNaffinity>
4.9796643257

> <CNN_VS>
2.4224231243

> <CNNaffinity_variance>
0.2545892596

$$$$
[H]N1C(=NC2([H])C([H])([H])C([H])([H])C([H])([H])C([H])([H])C([H])([H])C([H])([H])C2([H])[H])O[C@@]2([H])C([H])([H])C([H])([H])C([H])([H])C([H])([H])[C@@]2([H])S1(=O)=O


 22 24  0  0  0  0  0  0  0  0999 V2000
  150.6879  135.2956  184.5176 O   0  0  0  0  0  0  0  0  0  0  0  0
  150.5214  135.8070  185.9145 S   0  0  0  0  0  0  0  0  0  0  0  0
  149.8093  137.1306  185.9477 O   0  0  0  0  0  0  0  0  0  0  0  0
  152.0672  135.9641  186.7119 N   0  0  0  0  0  0  0  0  0  0  0  0
  152.1188  135.7594  188.1073 C   0  0  0  0  0  0  0  0  0  0  0  0
  153.0327  136.3268  188.7910 N   0  0  0  0  0  0  0  0  0  0  0  0
  151.2055  134.9635  188.7369 O   0  0  0  0  0  0  0  0  0  0  0  0
  149.9106  134.6951  188.3313 C   0  0  0  0  0  0  0  0  0  0  0  0
  148.9918  135.6777  189.0729 C   0  0  0  0  0  0  0  0  0  0  0  0
  147.6290  135.0471  189.1162 C   0  0  0  0  0  0  0  0  0  0  0  0
  147.3204  134.3438  187.8360 C   0  0  0  0  0  0  0  0  0  0  0  0
  148.1277  134.9626  186.6931 C   0  0  0  0  0  0  0  0  0  0  0  0
  149.5996  134.6671  186.8944 C   0  0  0  0  0  0  0  0  0  0  0  0
  152.8532  136.1949  186.1148 H   0  0  0  0  0  0  0  0  0  0  0  0
  154.0414  137.1822  188.2341 C   0  0  0  0  0  0  0  0  0  0  0  0
  154.1162  138.5194  188.9312 C   0  0  0  0  0  0  0  0  0  0  0  0
  155.1284  138.5909  190.0238 C   0  0  0  0  0  0  0  0  0  0  0  0
  154.8685  137.7019  191.1921 C   0  0  0  0  0  0  0  0  0  0  0  0
  156.0523  136.7940  191.5045 C   0  0  0  0  0  0  0  0  0  0  0  0
  156.6426  136.1722  190.2808 C   0  0  0  0  0  0  0  0  0  0  0  0
  155.5617  135.5879  189.4303 C   0  0  0  0  0  0  0  0  0  0  0  0
  155.3743  136.4730  188.2199 C   0  0  0  0  0  0  0  0  0  0  0  0
  1  2  2  0  0  0
  2  3  2  0  0  0
  2  4  1  0  0  0
  4  5  1  0  0  0
  5  6  2  0  0  0
  6 15  1  0  0  0
 15 16  1  0  0  0
 16 17  1  0  0  0
 17 18  1  0  0  0
 18 19  1  0  0  0
 19 20  1  0  0  0
 20 21  1  0  0  0
 21 22  1  0  0  0
  5  7  1  0  0  0
  7  8  1  0  0  0
  8  9  1  0  0  0
  9 10  1  0  0  0
 10 11  1  0  0  0
 11 12  1  0  0  0
 12 13  1  0  0  0
 13  2  1  0  0  0
 22 15  1  0  0  0
 13  8  1  0  0  0
  4 14  1  0  0  0
M  END
> <minimizedAffinity>
-4.70146

> <CNNscore>
0.4714311063

> <CNNaffinity>
5.0572614670

> <CNN_VS>
2.3841502666

> <CNNaffinity_variance>
0.2326545268

$$$$
[H]N1C(=NC2([H])C([H])([H])C([H])([H])C([H])([H])C([H])([H])C([H])([H])C([H])([H])C2([H])[H])O[C@@]2([H])C([H])([H])C([H])([H])C([H])([H])C([H])([H])[C@@]2([H])S1(=O)=O


 22 24  0  0  0  0  0  0  0  0999 V2000
  149.1529  133.5623  189.5809 O   0  0  0  0  0  0  0  0  0  0  0  0
  150.0206  134.3887  190.4782 S   0  0  0  0  0  0  0  0  0  0  0  0
  149.4181  135.7375  190.7567 O   0  0  0  0  0  0  0  0  0  0  0  0
  151.6116  134.5992  189.7896 N   0  0  0  0  0  0  0  0  0  0  0  0
  152.7076  134.7128  190.6716 C   0  0  0  0  0  0  0  0  0  0  0  0
  153.7493  135.3460  190.2993 N   0  0  0  0  0  0  0  0  0  0  0  0
  152.6700  134.1554  191.9173 O   0  0  0  0  0  0  0  0  0  0  0  0
  151.5486  133.9057  192.6877 C   0  0  0  0  0  0  0  0  0  0  0  0
  151.3776  135.1006  193.6378 C   0  0  0  0  0  0  0  0  0  0  0  0
  150.5887  134.6064  194.8168 C   0  0  0  0  0  0  0  0  0  0  0  0
  149.5182  133.6579  194.3887 C   0  0  0  0  0  0  0  0  0  0  0  0
  149.1255  133.9354  192.9363 C   0  0  0  0  0  0  0  0  0  0  0  0
  150.2791  133.5774  192.0222 C   0  0  0  0  0  0  0  0  0  0  0  0
  151.6573  134.6255  188.7773 H   0  0  0  0  0  0  0  0  0  0  0  0
  153.8964  135.9701  189.0155 C   0  0  0  0  0  0  0  0  0  0  0  0
  153.3217  137.3658  188.9808 C   0  0  0  0  0  0  0  0  0  0  0  0
  154.3107  138.4483  189.2514 C   0  0  0  0  0  0  0  0  0  0  0  0
  154.9016  138.4436  190.6203 C   0  0  0  0  0  0  0  0  0  0  0  0
  156.4255  138.4201  190.5939 C   0  0  0  0  0  0  0  0  0  0  0  0
  156.9714  137.4450  189.6022 C   0  0  0  0  0  0  0  0  0  0  0  0
  156.2878  136.1247  189.7515 C   0  0  0  0  0  0  0  0  0  0  0  0
  155.3437  135.9403  188.5860 C   0  0  0  0  0  0  0  0  0  0  0  0
  1  2  2  0  0  0
  2  3  2  0  0  0
  2  4  1  0  0  0
  4  5  1  0  0  0
  5  6  2  0  0  0
  6 15  1  0  0  0
 15 16  1  0  0  0
 16 17  1  0  0  0
 17 18  1  0  0  0
 18 19  1  0  0  0
 19 20  1  0  0  0
 20 21  1  0  0  0
 21 22  1  0  0  0
  5  7  1  0  0  0
  7  8  1  0  0  0
  8  9  1  0  0  0
  9 10  1  0  0  0
 10 11  1  0  0  0
 11 12  1  0  0  0
 12 13  1  0  0  0
 13  2  1  0  0  0
 22 15  1  0  0  0
 13  8  1  0  0  0
  4 14  1  0  0  0
M  END
> <minimizedAffinity>
-5.44349

> <CNNscore>
0.4211159348

> <CNNaffinity>
4.9804897308

> <CNN_VS>
2.0973634720

> <CNNaffinity_variance>
0.1892636269

$$$$
[H]N1C(=NC2([H])C([H])([H])C([H])([H])C([H])([H])C([H])([H])C([H])([H])C([H])([H])C2([H])[H])O[C@@]2([H])C([H])([H])C([H])([H])C([H])([H])C([H])([H])[C@@]2([H])S1(=O)=O


 22 24  0  0  0  0  0  0  0  0999 V2000
  150.4340  135.0103  185.1029 O   0  0  0  0  0  0  0  0  0  0  0  0
  151.7963  134.5652  185.5349 S   0  0  0  0  0  0  0  0  0  0  0  0
  151.8199  133.1094  185.9091 O   0  0  0  0  0  0  0  0  0  0  0  0
  152.3669  135.5163  186.8838 N   0  0  0  0  0  0  0  0  0  0  0  0
  153.7549  135.7468  186.9943 C   0  0  0  0  0  0  0  0  0  0  0  0
  154.2649  135.9657  188.1418 N   0  0  0  0  0  0  0  0  0  0  0  0
  154.5603  135.7390  185.8920 O   0  0  0  0  0  0  0  0  0  0  0  0
  154.3523  135.0517  184.7098 C   0  0  0  0  0  0  0  0  0  0  0  0
  155.1300  133.7309  184.8120 C   0  0  0  0  0  0  0  0  0  0  0  0
  155.4028  133.2794  183.4054 C   0  0  0  0  0  0  0  0  0  0  0  0
  154.2337  133.5499  182.5171 C   0  0  0  0  0  0  0  0  0  0  0  0
  152.9490  133.6005  183.3463 C   0  0  0  0  0  0  0  0  0  0  0  0
  152.9759  134.8169  184.2486 C   0  0  0  0  0  0  0  0  0  0  0  0
  151.6547  135.8565  187.5199 H   0  0  0  0  0  0  0  0  0  0  0  0
  153.5140  135.9960  189.3642 C   0  0  0  0  0  0  0  0  0  0  0  0
  154.1313  135.1409  190.4446 C   0  0  0  0  0  0  0  0  0  0  0  0
  155.0391  135.8760  191.3714 C   0  0  0  0  0  0  0  0  0  0  0  0
  156.2713  136.4355  190.7456 C   0  0  0  0  0  0  0  0  0  0  0  0
  156.4240  137.9304  191.0014 C   0  0  0  0  0  0  0  0  0  0  0  0
  155.1479  138.6832  190.8082 C   0  0  0  0  0  0  0  0  0  0  0  0
  154.5120  138.2908  189.5141 C   0  0  0  0  0  0  0  0  0  0  0  0
  153.3118  137.4230  189.8146 C   0  0  0  0  0  0  0  0  0  0  0  0
  1  2  2  0  0  0
  2  3  2  0  0  0
  2  4  1  0  0  0
  4  5  1  0  0  0
  5  6  2  0  0  0
  6 15  1  0  0  0
 15 16  1  0  0  0
 16 17  1  0  0  0
 17 18  1  0  0  0
 18 19  1  0  0  0
 19 20  1  0  0  0
 20 21  1  0  0  0
 21 22  1  0  0  0
  5  7  1  0  0  0
  7  8  1  0  0  0
  8  9  1  0  0  0
  9 10  1  0  0  0
 10 11  1  0  0  0
 11 12  1  0  0  0
 12 13  1  0  0  0
 13  2  1  0  0  0
 22 15  1  0  0  0
 13  8  1  0  0  0
  4 14  1  0  0  0
M  END
> <minimizedAffinity>
-4.75718

> <CNNscore>
0.4127476811

> <CNNaffinity>
4.9213051796

> <CNN_VS>
2.0312573910

> <CNNaffinity_variance>
0.3141486347

$$$$
[H]N1C(=NC2([H])C([H])([H])C([H])([H])C([H])([H])C([H])([H])C([H])([H])C([H])([H])C2([H])[H])O[C@@]2([H])C([H])([H])C([H])([H])C([H])([H])C([H])([H])[C@@]2([H])S1(=O)=O


 22 24  0  0  0  0  0  0  0  0999 V2000
  155.0033  134.4730  185.5327 O   0  0  0  0  0  0  0  0  0  0  0  0
  154.0909  135.3090  186.3750 S   0  0  0  0  0  0  0  0  0  0  0  0
  153.6885  134.6026  187.6395 O   0  0  0  0  0  0  0  0  0  0  0  0
  152.6572  135.7604  185.4858 N   0  0  0  0  0  0  0  0  0  0  0  0
  152.0556  137.0025  185.7814 C   0  0  0  0  0  0  0  0  0  0  0  0
  150.8087  137.1614  185.5706 N   0  0  0  0  0  0  0  0  0  0  0  0
  152.7879  138.0366  186.2898 O   0  0  0  0  0  0  0  0  0  0  0  0
  153.9424  137.9503  187.0466 C   0  0  0  0  0  0  0  0  0  0  0  0
  153.5226  138.0289  188.5222 C   0  0  0  0  0  0  0  0  0  0  0  0
  154.7183  138.5219  189.2866 C   0  0  0  0  0  0  0  0  0  0  0  0
  155.9795  137.9234  188.7576 C   0  0  0  0  0  0  0  0  0  0  0  0
  155.6775  136.5864  188.0778 C   0  0  0  0  0  0  0  0  0  0  0  0
  154.8659  136.8284  186.8219 C   0  0  0  0  0  0  0  0  0  0  0  0
  152.3354  135.0931  184.7939 H   0  0  0  0  0  0  0  0  0  0  0  0
  149.9456  136.1448  185.0409 C   0  0  0  0  0  0  0  0  0  0  0  0
  148.6538  136.0217  185.8128 C   0  0  0  0  0  0  0  0  0  0  0  0
  147.5204  136.8109  185.2508 C   0  0  0  0  0  0  0  0  0  0  0  0
  147.6999  138.2908  185.2769 C   0  0  0  0  0  0  0  0  0  0  0  0
  147.5201  138.9210  183.9007 C   0  0  0  0  0  0  0  0  0  0  0  0
  148.2171  138.1593  182.8207 C   0  0  0  0  0  0  0  0  0  0  0  0
  149.6198  137.8513  183.2337 C   0  0  0  0  0  0  0  0  0  0  0  0
  149.7078  136.3803  183.5685 C   0  0  0  0  0  0  0  0  0  0  0  0
  1  2  2  0  0  0
  2  3  2  0  0  0
  2  4  1  0  0  0
  4  5  1  0  0  0
  5  6  2  0  0  0
  6 15  1  0  0  0
 15 16  1  0  0  0
 16 17  1  0  0  0
 17 18  1  0  0  0
 18 19  1  0  0  0
 19 20  1  0  0  0
 20 21  1  0  0  0
 21 22  1  0  0  0
  5  7  1  0  0  0
  7  8  1  0  0  0
  8  9  1  0  0  0
  9 10  1  0  0  0
 10 11  1  0  0  0
 11 12  1  0  0  0
 12 13  1  0  0  0
 13  2  1  0  0  0
 22 15  1  0  0  0
 13  8  1  0  0  0
  4 14  1  0  0  0
M  END
> <minimizedAffinity>
-4.61887

> <CNNscore>
0.4081605673

> <CNNaffinity>
5.0559186935

> <CNN_VS>
2.0636265278

> <CNNaffinity_variance>
0.2669163644

$$$$
[H]N1C(=NC2([H])C([H])([H])C([H])([H])C([H])([H])C([H])([H])C([H])([H])C([H])([H])C2([H])[H])O[C@@]2([H])C([H])([H])C([H])([H])C([H])([H])C([H])([H])[C@@]2([H])S1(=O)=O


 22 24  0  0  0  0  0  0  0  0999 V2000
  156.0424  134.8912  186.9489 O   0  0  0  0  0  0  0  0  0  0  0  0
  155.0836  135.4051  187.9771 S   0  0  0  0  0  0  0  0  0  0  0  0
  155.0411  134.5256  189.1956 O   0  0  0  0  0  0  0  0  0  0  0  0
  153.4743  135.5505  187.3148 N   0  0  0  0  0  0  0  0  0  0  0  0
  152.6416  136.5761  187.8114 C   0  0  0  0  0  0  0  0  0  0  0  0
  151.3758  136.4338  187.7653 N   0  0  0  0  0  0  0  0  0  0  0  0
  153.1700  137.7183  188.3406 O   0  0  0  0  0  0  0  0  0  0  0  0
  154.4057  137.8658  188.9444 C   0  0  0  0  0  0  0  0  0  0  0  0
  154.1889  137.7233  190.4585 C   0  0  0  0  0  0  0  0  0  0  0  0
  155.3272  138.4396  191.1279 C   0  0  0  0  0  0  0  0  0  0  0  0
  156.6084  138.2180  190.3941 C   0  0  0  0  0  0  0  0  0  0  0  0
  156.5417  136.9042  189.6128 C   0  0  0  0  0  0  0  0  0  0  0  0
  155.5292  137.0312  188.4934 C   0  0  0  0  0  0  0  0  0  0  0  0
  153.2275  134.8790  186.5966 H   0  0  0  0  0  0  0  0  0  0  0  0
  150.7144  135.2773  187.2321 C   0  0  0  0  0  0  0  0  0  0  0  0
  150.1826  134.3651  188.3113 C   0  0  0  0  0  0  0  0  0  0  0  0
  148.7562  134.6038  188.6746 C   0  0  0  0  0  0  0  0  0  0  0  0
  148.4691  135.9311  189.2900 C   0  0  0  0  0  0  0  0  0  0  0  0
  147.3733  136.6887  188.5493 C   0  0  0  0  0  0  0  0  0  0  0  0
  147.5361  136.6359  187.0650 C   0  0  0  0  0  0  0  0  0  0  0  0
  148.9443  136.9681  186.6915 C   0  0  0  0  0  0  0  0  0  0  0  0
  149.6375  135.6964  186.2602 C   0  0  0  0  0  0  0  0  0  0  0  0
  1  2  2  0  0  0
  2  3  2  0  0  0
  2  4  1  0  0  0
  4  5  1  0  0  0
  5  6  2  0  0  0
  6 15  1  0  0  0
 15 16  1  0  0  0
 16 17  1  0  0  0
 17 18  1  0  0  0
 18 19  1  0  0  0
 19 20  1  0  0  0
 20 21  1  0  0  0
 21 22  1  0  0  0
  5  7  1  0  0  0
  7  8  1  0  0  0
  8  9  1  0  0  0
  9 10  1  0  0  0
 10 11  1  0  0  0
 11 12  1  0  0  0
 12 13  1  0  0  0
 13  2  1  0  0  0
 22 15  1  0  0  0
 13  8  1  0  0  0
  4 14  1  0  0  0
M  END
> <minimizedAffinity>
-5.07412

> <CNNscore>
0.4049261510

> <CNNaffinity>
4.9859704971

> <CNN_VS>
2.0189497471

> <CNNaffinity_variance>
0.1213315502

$$$$
[H]N1C(=NC2([H])C([H])([H])C([H])([H])C([H])([H])C([H])([H])C([H])([H])C([H])([H])C2([H])[H])O[C@@]2([H])C([H])([H])C([H])([H])C([H])([H])C([H])([H])[C@@]2([H])S1(=O)=O


 22 24  0  0  0  0  0  0  0  0999 V2000
  152.5824  138.0075  184.6165 O   0  0  0  0  0  0  0  0  0  0  0  0
  153.0471  138.4656  183.2694 S   0  0  0  0  0  0  0  0  0  0  0  0
  153.5436  137.3234  182.4275 O   0  0  0  0  0  0  0  0  0  0  0  0
  154.3090  139.6640  183.4168 N   0  0  0  0  0  0  0  0  0  0  0  0
  154.3960  140.6628  182.4236 C   0  0  0  0  0  0  0  0  0  0  0  0
  155.5194  141.2171  182.1882 N   0  0  0  0  0  0  0  0  0  0  0  0
  153.2962  141.0450  181.7105 O   0  0  0  0  0  0  0  0  0  0  0  0
  152.1772  140.2827  181.4277 C   0  0  0  0  0  0  0  0  0  0  0  0
  152.3893  139.6676  180.0361 C   0  0  0  0  0  0  0  0  0  0  0  0
  151.0254  139.3595  179.4868 C   0  0  0  0  0  0  0  0  0  0  0  0
  150.1203  138.8392  180.5541 C   0  0  0  0  0  0  0  0  0  0  0  0
  150.9455  138.1949  181.6697 C   0  0  0  0  0  0  0  0  0  0  0  0
  151.7412  139.2622  182.3924 C   0  0  0  0  0  0  0  0  0  0  0  0
  154.9157  139.5727  184.2238 H   0  0  0  0  0  0  0  0  0  0  0  0
  156.7368  140.8933  182.8755 C   0  0  0  0  0  0  0  0  0  0  0  0
  157.6561  140.0271  182.0484 C   0  0  0  0  0  0  0  0  0  0  0  0
  158.6832  140.7803  181.2731 C   0  0  0  0  0  0  0  0  0  0  0  0
  158.1471  141.6796  180.2116 C   0  0  0  0  0  0  0  0  0  0  0  0
  158.6443  143.1128  180.3605 C   0  0  0  0  0  0  0  0  0  0  0  0
  158.5889  143.6001  181.7719 C   0  0  0  0  0  0  0  0  0  0  0  0
  157.2536  143.2932  182.3683 C   0  0  0  0  0  0  0  0  0  0  0  0
  157.4177  142.1551  183.3488 C   0  0  0  0  0  0  0  0  0  0  0  0
  1  2  2  0  0  0
  2  3  2  0  0  0
  2  4  1  0  0  0
  4  5  1  0  0  0
  5  6  2  0  0  0
  6 15  1  0  0  0
 15 16  1  0  0  0
 16 17  1  0  0  0
 17 18  1  0  0  0
 18 19  1  0  0  0
 19 20  1  0  0  0
 20 21  1  0  0  0
 21 22  1  0  0  0
  5  7  1  0  0  0
  7  8  1  0  0  0
  8  9  1  0  0  0
  9 10  1  0  0  0
 10 11  1  0  0  0
 11 12  1  0  0  0
 12 13  1  0  0  0
 13  2  1  0  0  0
 22 15  1  0  0  0
 13  8  1  0  0  0
  4 14  1  0  0  0
M  END
> <minimizedAffinity>
-7.65365

> <CNNscore>
0.3848111629

> <CNNaffinity>
5.6672925949

> <CNN_VS>
2.1808373928

> <CNNaffinity_variance>
0.0849212557

$$$$
[H]N1C(=NC2([H])C([H])([H])C([H])([H])C([H])([H])C([H])([H])C([H])([H])C([H])([H])C2([H])[H])O[C@@]2([H])C([H])([H])C([H])([H])C([H])([H])C([H])([H])[C@@]2([H])S1(=O)=O


 22 24  0  0  0  0  0  0  0  0999 V2000
  149.6725  134.1368  187.1963 O   0  0  0  0  0  0  0  0  0  0  0  0
  150.0095  135.5547  186.8549 S   0  0  0  0  0  0  0  0  0  0  0  0
  149.3038  136.5323  187.7528 O   0  0  0  0  0  0  0  0  0  0  0  0
  149.6122  135.9093  185.1917 N   0  0  0  0  0  0  0  0  0  0  0  0
  150.4094  136.8490  184.5039 C   0  0  0  0  0  0  0  0  0  0  0  0
  149.9085  137.5052  183.5327 N   0  0  0  0  0  0  0  0  0  0  0  0
  151.7088  137.0669  184.8621 O   0  0  0  0  0  0  0  0  0  0  0  0
  152.2716  136.8901  186.1132 C   0  0  0  0  0  0  0  0  0  0  0  0
  152.2523  138.2566  186.8148 C   0  0  0  0  0  0  0  0  0  0  0  0
  153.3363  138.2245  187.8544 C   0  0  0  0  0  0  0  0  0  0  0  0
  153.4037  136.8902  188.5207 C   0  0  0  0  0  0  0  0  0  0  0  0
  152.0429  136.1959  188.4370 C   0  0  0  0  0  0  0  0  0  0  0  0
  151.7440  135.8388  186.9956 C   0  0  0  0  0  0  0  0  0  0  0  0
  148.8186  135.4083  184.8083 H   0  0  0  0  0  0  0  0  0  0  0  0
  148.5573  137.3570  183.0727 C   0  0  0  0  0  0  0  0  0  0  0  0
  147.8534  138.6823  182.9066 C   0  0  0  0  0  0  0  0  0  0  0  0
  147.9111  139.2440  181.5265 C   0  0  0  0  0  0  0  0  0  0  0  0
  149.2736  139.6100  181.0442 C   0  0  0  0  0  0  0  0  0  0  0  0
  149.6181  138.9419  179.7182 C   0  0  0  0  0  0  0  0  0  0  0  0
  149.2374  137.4975  179.6825 C   0  0  0  0  0  0  0  0  0  0  0  0
  149.7180  136.8099  180.9191 C   0  0  0  0  0  0  0  0  0  0  0  0
  148.5266  136.5342  181.8070 C   0  0  0  0  0  0  0  0  0  0  0  0
  1  2  2  0  0  0
  2  3  2  0  0  0
  2  4  1  0  0  0
  4  5  1  0  0  0
  5  6  2  0  0  0
  6 15  1  0  0  0
 15 16  1  0  0  0
 16 17  1  0  0  0
 17 18  1  0  0  0
 18 19  1  0  0  0
 19 20  1  0  0  0
 20 21  1  0  0  0
 21 22  1  0  0  0
  5  7  1  0  0  0
  7  8  1  0  0  0
  8  9  1  0  0  0
  9 10  1  0  0  0
 10 11  1  0  0  0
 11 12  1  0  0  0
 12 13  1  0  0  0
 13  2  1  0  0  0
 22 15  1  0  0  0
 13  8  1  0  0  0
  4 14  1  0  0  0
M  END
> <minimizedAffinity>
-4.87531

> <CNNscore>
0.3826906085

> <CNNaffinity>
4.9350075722

> <CNN_VS>
1.8885810375

> <CNNaffinity_variance>
0.2512608469

$$$$
[H]C(=NN([H])C(=S)N([H])C([H])([H])c1c([H])c([H])c(OC([H])(C([H])([H])[H])C([H])([H])[H])c([H])c1[H])c1c([H])c([H])c([N+](=O)[O-])c([H])c1[H]


 28 29  0  0  0  0  0  0  0  0999 V2000
  155.4663  140.9659  182.8976 C   0  0  0  0  0  0  0  0  0  0  0  0
  154.4338  142.1544  182.4886 S   0  0  0  0  0  0  0  0  0  0  0  0
  156.5400  140.6558  182.0415 N   0  0  0  0  0  0  0  0  0  0  0  0
  156.7411  139.6726  181.7800 H   0  0  0  0  0  0  0  0  0  0  0  0
  157.3781  141.7068  181.5146 C   0  0  0  0  0  0  0  0  0  0  0  0
  160.6201  142.5966  184.1820 C   0  0  0  0  0  0  0  0  0  0  0  0
  160.3075  141.2863  183.8176 C   0  0  0  0  0  0  0  0  0  0  0  0
  159.2646  141.0200  182.9614 C   0  0  0  0  0  0  0  0  0  0  0  0
  158.4935  142.0322  182.4340 C   0  0  0  0  0  0  0  0  0  0  0  0
  158.8287  143.3082  182.8132 C   0  0  0  0  0  0  0  0  0  0  0  0
  159.8764  143.6131  183.6768 C   0  0  0  0  0  0  0  0  0  0  0  0
  161.6693  142.8105  185.0387 O   0  0  0  0  0  0  0  0  0  0  0  0
  162.7432  142.7442  187.2075 C   0  0  0  0  0  0  0  0  0  0  0  0
  161.6022  143.2730  186.3394 C   0  0  0  0  0  0  0  0  0  0  0  0
  160.3018  142.7899  186.9836 C   0  0  0  0  0  0  0  0  0  0  0  0
  155.2926  140.2391  184.1114 N   0  0  0  0  0  0  0  0  0  0  0  0
  155.8327  140.5011  184.9870 H   0  0  0  0  0  0  0  0  0  0  0  0
  154.4398  139.1888  184.2020 N   0  0  0  0  0  0  0  0  0  0  0  0
  154.0830  138.3965  185.0678 C   0  0  0  0  0  0  0  0  0  0  0  0
  154.5167  138.3251  186.4422 C   0  0  0  0  0  0  0  0  0  0  0  0
  155.7888  138.0068  186.8578 C   0  0  0  0  0  0  0  0  0  0  0  0
  156.1533  137.9526  188.2016 C   0  0  0  0  0  0  0  0  0  0  0  0
  155.2423  138.2195  189.1968 C   0  0  0  0  0  0  0  0  0  0  0  0
  153.9618  138.5408  188.8121 C   0  0  0  0  0  0  0  0  0  0  0  0
  153.6157  138.5909  187.4886 C   0  0  0  0  0  0  0  0  0  0  0  0
  155.6252  138.1614  190.5727 N   0  0  0  0  0  0  0  0  0  0  0  0
  156.5789  137.4332  190.9061 O   0  0  0  0  0  0  0  0  0  0  0  0
  154.9091  138.9227  191.4603 O   0  0  0  0  0  0  0  0  0  0  0  0
 13 14  1  0  0  0
 14 15  1  0  0  0
 14 12  1  0  0  0
 12  6  1  0  0  0
  6  7  2  0  0  0
  7  8  1  0  0  0
  8  9  2  0  0  0
  9  5  1  0  0  0
  5  3  1  0  0  0
  3  1  1  0  0  0
  1  2  2  0  0  0
  1 16  1  0  0  0
 16 18  1  0  0  0
 18 19  2  0  0  0
 19 20  1  0  0  0
 20 21  2  0  0  0
 21 22  1  0  0  0
 22 23  2  0  0  0
 23 26  1  0  0  0
 26 27  2  0  0  0
 26 28  1  0  0  0
 23 24  1  0  0  0
 24 25  2  0  0  0
  9 10  1  0  0  0
 10 11  2  0  0  0
 11  6  1  0  0  0
 25 20  1  0  0  0
  3  4  1  0  0  0
 16 17  1  0  0  0
M  CHG 1  26   1
M  CHG 1  28  -1
M  END
> <minimizedAffinity>
-8.16592

> <CNNscore>
0.6253330708

> <CNNaffinity>
6.4003419876

> <CNN_VS>
4.0023455620

> <CNNaffinity_variance>
0.0554857925

$$$$
[H]C(=NN([H])C(=S)N([H])C([H])([H])c1c([H])c([H])c(OC([H])(C([H])([H])[H])C([H])([H])[H])c([H])c1[H])c1c([H])c([H])c([N+](=O)[O-])c([H])c1[H]


 28 29  0  0  0  0  0  0  0  0999 V2000
  155.1993  141.2037  183.1077 C   0  0  0  0  0  0  0  0  0  0  0  0
  154.8341  142.7840  183.2301 S   0  0  0  0  0  0  0  0  0  0  0  0
  154.6300  140.2888  184.0135 N   0  0  0  0  0  0  0  0  0  0  0  0
  153.6591  140.4170  184.3548 H   0  0  0  0  0  0  0  0  0  0  0  0
  155.3935  139.1559  184.4808 C   0  0  0  0  0  0  0  0  0  0  0  0
  154.0686  137.7623  188.3176 C   0  0  0  0  0  0  0  0  0  0  0  0
  155.3783  137.5665  187.8773 C   0  0  0  0  0  0  0  0  0  0  0  0
  155.7852  138.0201  186.6443 C   0  0  0  0  0  0  0  0  0  0  0  0
  154.9191  138.6817  185.8020 C   0  0  0  0  0  0  0  0  0  0  0  0
  153.6394  138.8570  186.2665 C   0  0  0  0  0  0  0  0  0  0  0  0
  153.1944  138.4114  187.5075 C   0  0  0  0  0  0  0  0  0  0  0  0
  153.7114  137.2915  189.5549 O   0  0  0  0  0  0  0  0  0  0  0  0
  153.6067  137.0316  191.9597 C   0  0  0  0  0  0  0  0  0  0  0  0
  154.4331  137.4012  190.7286 C   0  0  0  0  0  0  0  0  0  0  0  0
  154.8763  138.8527  190.9183 C   0  0  0  0  0  0  0  0  0  0  0  0
  156.0880  140.7403  182.0941 N   0  0  0  0  0  0  0  0  0  0  0  0
  156.2564  139.7024  181.9481 H   0  0  0  0  0  0  0  0  0  0  0  0
  156.7542  141.5954  181.2795 N   0  0  0  0  0  0  0  0  0  0  0  0
  157.8196  142.2030  181.2972 C   0  0  0  0  0  0  0  0  0  0  0  0
  158.8306  142.1969  182.3268 C   0  0  0  0  0  0  0  0  0  0  0  0
  159.5852  141.1063  182.6921 C   0  0  0  0  0  0  0  0  0  0  0  0
  160.5503  141.1572  183.6958 C   0  0  0  0  0  0  0  0  0  0  0  0
  160.8005  142.3218  184.3835 C   0  0  0  0  0  0  0  0  0  0  0  0
  160.0615  143.4296  184.0405 C   0  0  0  0  0  0  0  0  0  0  0  0
  159.1160  143.3672  183.0524 C   0  0  0  0  0  0  0  0  0  0  0  0
  161.7925  142.3647  185.4116 N   0  0  0  0  0  0  0  0  0  0  0  0
  162.9731  142.0891  185.1265 O   0  0  0  0  0  0  0  0  0  0  0  0
  161.3807  142.7121  186.6725 O   0  0  0  0  0  0  0  0  0  0  0  0
 13 14  1  0  0  0
 14 15  1  0  0  0
 14 12  1  0  0  0
 12  6  1  0  0  0
  6  7  2  0  0  0
  7  8  1  0  0  0
  8  9  2  0  0  0
  9  5  1  0  0  0
  5  3  1  0  0  0
  3  1  1  0  0  0
  1  2  2  0  0  0
  1 16  1  0  0  0
 16 18  1  0  0  0
 18 19  2  0  0  0
 19 20  1  0  0  0
 20 21  2  0  0  0
 21 22  1  0  0  0
 22 23  2  0  0  0
 23 26  1  0  0  0
 26 27  2  0  0  0
 26 28  1  0  0  0
 23 24  1  0  0  0
 24 25  2  0  0  0
  9 10  1  0  0  0
 10 11  2  0  0  0
 11  6  1  0  0  0
 25 20  1  0  0  0
  3  4  1  0  0  0
 16 17  1  0  0  0
M  CHG 1  26   1
M  CHG 1  28  -1
M  END
> <minimizedAffinity>
-7.66211

> <CNNscore>
0.6152924895

> <CNNaffinity>
6.2956223488

> <CNN_VS>
3.8736491203

> <CNNaffinity_variance>
0.0311034080

$$$$
[H]C(=NN([H])C(=S)N([H])C([H])([H])c1c([H])c([H])c(OC([H])(C([H])([H])[H])C([H])([H])[H])c([H])c1[H])c1c([H])c([H])c([N+](=O)[O-])c([H])c1[H]


 28 29  0  0  0  0  0  0  0  0999 V2000
  157.8287  143.1947  181.8247 C   0  0  0  0  0  0  0  0  0  0  0  0
  158.8037  144.4391  182.2075 S   0  0  0  0  0  0  0  0  0  0  0  0
  156.4399  143.3171  182.0201 N   0  0  0  0  0  0  0  0  0  0  0  0
  155.8284  143.6733  181.2620 H   0  0  0  0  0  0  0  0  0  0  0  0
  155.8469  142.9466  183.2834 C   0  0  0  0  0  0  0  0  0  0  0  0
  153.3631  139.4701  182.8802 C   0  0  0  0  0  0  0  0  0  0  0  0
  153.1948  140.5912  182.0665 C   0  0  0  0  0  0  0  0  0  0  0  0
  154.0003  141.6967  182.2100 C   0  0  0  0  0  0  0  0  0  0  0  0
  154.9988  141.7381  183.1581 C   0  0  0  0  0  0  0  0  0  0  0  0
  155.1365  140.6189  183.9407 C   0  0  0  0  0  0  0  0  0  0  0  0
  154.3396  139.4841  183.8225 C   0  0  0  0  0  0  0  0  0  0  0  0
  152.5348  138.3925  182.6981 O   0  0  0  0  0  0  0  0  0  0  0  0
  150.8200  137.9488  181.0476 C   0  0  0  0  0  0  0  0  0  0  0  0
  152.2621  137.7425  181.5092 C   0  0  0  0  0  0  0  0  0  0  0  0
  152.4498  136.2366  181.6993 C   0  0  0  0  0  0  0  0  0  0  0  0
  158.3679  141.9862  181.2952 N   0  0  0  0  0  0  0  0  0  0  0  0
  158.8186  141.9641  180.3343 H   0  0  0  0  0  0  0  0  0  0  0  0
  158.3283  140.8204  181.9865 N   0  0  0  0  0  0  0  0  0  0  0  0
  158.7575  140.3973  183.0549 C   0  0  0  0  0  0  0  0  0  0  0  0
  159.5426  141.1010  184.0401 C   0  0  0  0  0  0  0  0  0  0  0  0
  159.0892  141.5085  185.2732 C   0  0  0  0  0  0  0  0  0  0  0  0
  159.8928  142.1862  186.1877 C   0  0  0  0  0  0  0  0  0  0  0  0
  161.2031  142.4868  185.8970 C   0  0  0  0  0  0  0  0  0  0  0  0
  161.6852  142.0921  184.6711 C   0  0  0  0  0  0  0  0  0  0  0  0
  160.8858  141.4266  183.7810 C   0  0  0  0  0  0  0  0  0  0  0  0
  162.0201  143.1824  186.8412 N   0  0  0  0  0  0  0  0  0  0  0  0
  161.6496  144.2956  187.2591 O   0  0  0  0  0  0  0  0  0  0  0  0
  163.1831  142.5746  187.2389 O   0  0  0  0  0  0  0  0  0  0  0  0
 13 14  1  0  0  0
 14 15  1  0  0  0
 14 12  1  0  0  0
 12  6  1  0  0  0
  6  7  2  0  0  0
  7  8  1  0  0  0
  8  9  2  0  0  0
  9  5  1  0  0  0
  5  3  1  0  0  0
  3  1  1  0  0  0
  1  2  2  0  0  0
  1 16  1  0  0  0
 16 18  1  0  0  0
 18 19  2  0  0  0
 19 20  1  0  0  0
 20 21  2  0  0  0
 21 22  1  0  0  0
 22 23  2  0  0  0
 23 26  1  0  0  0
 26 27  2  0  0  0
 26 28  1  0  0  0
 23 24  1  0  0  0
 24 25  2  0  0  0
  9 10  1  0  0  0
 10 11  2  0  0  0
 11  6  1  0  0  0
 25 20  1  0  0  0
  3  4  1  0  0  0
 16 17  1  0  0  0
M  CHG 1  26   1
M  CHG 1  28  -1
M  END
> <minimizedAffinity>
-7.97261

> <CNNscore>
0.5780555010

> <CNNaffinity>
6.6669731140

> <CNN_VS>
3.8538804054

> <CNNaffinity_variance>
0.1680363119

$$$$
[H]C(=NN([H])C(=S)N([H])C([H])([H])c1c([H])c([H])c(OC([H])(C([H])([H])[H])C([H])([H])[H])c([H])c1[H])c1c([H])c([H])c([N+](=O)[O-])c([H])c1[H]


 28 29  0  0  0  0  0  0  0  0999 V2000
  156.9057  142.9923  182.0511 C   0  0  0  0  0  0  0  0  0  0  0  0
  157.9837  144.2101  182.0270 S   0  0  0  0  0  0  0  0  0  0  0  0
  155.8393  143.0291  182.9693 N   0  0  0  0  0  0  0  0  0  0  0  0
  156.0172  143.1715  183.9811 H   0  0  0  0  0  0  0  0  0  0  0  0
  154.4791  142.8683  182.5125 C   0  0  0  0  0  0  0  0  0  0  0  0
  153.1500  138.8174  183.0035 C   0  0  0  0  0  0  0  0  0  0  0  0
  154.0330  139.4148  183.9040 C   0  0  0  0  0  0  0  0  0  0  0  0
  154.4482  140.7144  183.7306 C   0  0  0  0  0  0  0  0  0  0  0  0
  154.0099  141.4714  182.6665 C   0  0  0  0  0  0  0  0  0  0  0  0
  153.1426  140.8528  181.8008 C   0  0  0  0  0  0  0  0  0  0  0  0
  152.7023  139.5407  181.9461 C   0  0  0  0  0  0  0  0  0  0  0  0
  152.7654  137.5190  183.2198 O   0  0  0  0  0  0  0  0  0  0  0  0
  150.4777  136.8780  183.6856 C   0  0  0  0  0  0  0  0  0  0  0  0
  151.6507  136.8835  182.7061 C   0  0  0  0  0  0  0  0  0  0  0  0
  151.9881  135.4196  182.4190 C   0  0  0  0  0  0  0  0  0  0  0  0
  157.0324  141.8928  181.1530 N   0  0  0  0  0  0  0  0  0  0  0  0
  156.9206  142.0270  180.1059 H   0  0  0  0  0  0  0  0  0  0  0  0
  157.2966  140.6368  181.5906 N   0  0  0  0  0  0  0  0  0  0  0  0
  157.9775  140.1190  182.4697 C   0  0  0  0  0  0  0  0  0  0  0  0
  158.8220  140.7709  183.4415 C   0  0  0  0  0  0  0  0  0  0  0  0
  160.0971  141.2296  183.2047 C   0  0  0  0  0  0  0  0  0  0  0  0
  160.8694  141.8533  184.1824 C   0  0  0  0  0  0  0  0  0  0  0  0
  160.3860  142.0444  185.4558 C   0  0  0  0  0  0  0  0  0  0  0  0
  159.1137  141.5961  185.7229 C   0  0  0  0  0  0  0  0  0  0  0  0
  158.3644  140.9848  184.7538 C   0  0  0  0  0  0  0  0  0  0  0  0
  161.1854  142.6852  186.4524 N   0  0  0  0  0  0  0  0  0  0  0  0
  160.6225  143.2884  187.3853 O   0  0  0  0  0  0  0  0  0  0  0  0
  162.5476  142.5979  186.3218 O   0  0  0  0  0  0  0  0  0  0  0  0
 13 14  1  0  0  0
 14 15  1  0  0  0
 14 12  1  0  0  0
 12  6  1  0  0  0
  6  7  2  0  0  0
  7  8  1  0  0  0
  8  9  2  0  0  0
  9  5  1  0  0  0
  5  3  1  0  0  0
  3  1  1  0  0  0
  1  2  2  0  0  0
  1 16  1  0  0  0
 16 18  1  0  0  0
 18 19  2  0  0  0
 19 20  1  0  0  0
 20 21  2  0  0  0
 21 22  1  0  0  0
 22 23  2  0  0  0
 23 26  1  0  0  0
 26 27  2  0  0  0
 26 28  1  0  0  0
 23 24  1  0  0  0
 24 25  2  0  0  0
  9 10  1  0  0  0
 10 11  2  0  0  0
 11  6  1  0  0  0
 25 20  1  0  0  0
  3  4  1  0  0  0
 16 17  1  0  0  0
M  CHG 1  26   1
M  CHG 1  28  -1
M  END
> <minimizedAffinity>
-7.70662

> <CNNscore>
0.5342413187

> <CNNaffinity>
6.4783630371

> <CNN_VS>
3.4610092640

> <CNNaffinity_variance>
0.0865442902

$$$$
[H]C(=NN([H])C(=S)N([H])C([H])([H])c1c([H])c([H])c(OC([H])(C([H])([H])[H])C([H])([H])[H])c([H])c1[H])c1c([H])c([H])c([N+](=O)[O-])c([H])c1[H]


 28 29  0  0  0  0  0  0  0  0999 V2000
  155.5461  141.2563  182.6616 C   0  0  0  0  0  0  0  0  0  0  0  0
  154.0335  141.5557  182.1438 S   0  0  0  0  0  0  0  0  0  0  0  0
  156.5692  141.0337  181.7206 N   0  0  0  0  0  0  0  0  0  0  0  0
  156.7092  140.0944  181.3037 H   0  0  0  0  0  0  0  0  0  0  0  0
  157.4399  142.1143  181.3222 C   0  0  0  0  0  0  0  0  0  0  0  0
  160.6562  142.6311  184.1162 C   0  0  0  0  0  0  0  0  0  0  0  0
  160.3080  141.3735  183.6216 C   0  0  0  0  0  0  0  0  0  0  0  0
  159.2741  141.2269  182.7266 C   0  0  0  0  0  0  0  0  0  0  0  0
  158.5471  142.3112  182.2870 C   0  0  0  0  0  0  0  0  0  0  0  0
  158.9163  143.5324  182.7934 C   0  0  0  0  0  0  0  0  0  0  0  0
  159.9563  143.7166  183.6995 C   0  0  0  0  0  0  0  0  0  0  0  0
  161.6947  142.7253  185.0066 O   0  0  0  0  0  0  0  0  0  0  0  0
  162.8081  142.7418  187.1564 C   0  0  0  0  0  0  0  0  0  0  0  0
  161.6471  143.2316  186.2919 C   0  0  0  0  0  0  0  0  0  0  0  0
  160.3628  142.7605  186.9759 C   0  0  0  0  0  0  0  0  0  0  0  0
  155.8420  141.2179  184.0553 N   0  0  0  0  0  0  0  0  0  0  0  0
  155.5722  142.0223  184.6934 H   0  0  0  0  0  0  0  0  0  0  0  0
  156.4774  140.1638  184.6242 N   0  0  0  0  0  0  0  0  0  0  0  0
  156.1592  139.0933  185.1316 C   0  0  0  0  0  0  0  0  0  0  0  0
  154.8339  138.5493  185.3044 C   0  0  0  0  0  0  0  0  0  0  0  0
  154.0279  138.0847  184.2911 C   0  0  0  0  0  0  0  0  0  0  0  0
  152.7534  137.5684  184.5157 C   0  0  0  0  0  0  0  0  0  0  0  0
  152.2287  137.4968  185.7850 C   0  0  0  0  0  0  0  0  0  0  0  0
  153.0112  137.9541  186.8192 C   0  0  0  0  0  0  0  0  0  0  0  0
  154.2621  138.4591  186.5860 C   0  0  0  0  0  0  0  0  0  0  0  0
  150.9202  136.9657  186.0060 N   0  0  0  0  0  0  0  0  0  0  0  0
  150.5822  136.6484  187.1619 O   0  0  0  0  0  0  0  0  0  0  0  0
  150.0996  136.8339  184.9154 O   0  0  0  0  0  0  0  0  0  0  0  0
 13 14  1  0  0  0
 14 15  1  0  0  0
 14 12  1  0  0  0
 12  6  1  0  0  0
  6  7  2  0  0  0
  7  8  1  0  0  0
  8  9  2  0  0  0
  9  5  1  0  0  0
  5  3  1  0  0  0
  3  1  1  0  0  0
  1  2  2  0  0  0
  1 16  1  0  0  0
 16 18  1  0  0  0
 18 19  2  0  0  0
 19 20  1  0  0  0
 20 21  2  0  0  0
 21 22  1  0  0  0
 22 23  2  0  0  0
 23 26  1  0  0  0
 26 27  2  0  0  0
 26 28  1  0  0  0
 23 24  1  0  0  0
 24 25  2  0  0  0
  9 10  1  0  0  0
 10 11  2  0  0  0
 11  6  1  0  0  0
 25 20  1  0  0  0
  3  4  1  0  0  0
 16 17  1  0  0  0
M  CHG 1  26   1
M  CHG 1  28  -1
M  END
> <minimizedAffinity>
-7.09160

> <CNNscore>
0.5053835511

> <CNNaffinity>
6.2986040115

> <CNN_VS>
3.1832108498

> <CNNaffinity_variance>
0.1047731638

$$$$
[H]C(=NN([H])C(=S)N([H])C([H])([H])c1c([H])c([H])c(OC([H])(C([H])([H])[H])C([H])([H])[H])c([H])c1[H])c1c([H])c([H])c([N+](=O)[O-])c([H])c1[H]


 28 29  0  0  0  0  0  0  0  0999 V2000
  153.4690  140.1418  182.0903 C   0  0  0  0  0  0  0  0  0  0  0  0
  152.2496  139.7106  181.1040 S   0  0  0  0  0  0  0  0  0  0  0  0
  154.4189  141.0817  181.6477 N   0  0  0  0  0  0  0  0  0  0  0  0
  154.8950  140.9625  180.7341 H   0  0  0  0  0  0  0  0  0  0  0  0
  154.7436  142.2282  182.4631 C   0  0  0  0  0  0  0  0  0  0  0  0
  158.7270  141.9672  184.0387 C   0  0  0  0  0  0  0  0  0  0  0  0
  157.6740  141.2272  184.5780 C   0  0  0  0  0  0  0  0  0  0  0  0
  156.4035  141.3235  184.0600 C   0  0  0  0  0  0  0  0  0  0  0  0
  156.1246  142.1505  182.9942 C   0  0  0  0  0  0  0  0  0  0  0  0
  157.1831  142.8634  182.4886 C   0  0  0  0  0  0  0  0  0  0  0  0
  158.4799  142.7899  182.9880 C   0  0  0  0  0  0  0  0  0  0  0  0
  159.9755  141.8364  184.5903 O   0  0  0  0  0  0  0  0  0  0  0  0
  162.1675  142.5152  185.3622 C   0  0  0  0  0  0  0  0  0  0  0  0
  160.6629  142.7804  185.3297 C   0  0  0  0  0  0  0  0  0  0  0  0
  160.1797  142.7393  186.7803 C   0  0  0  0  0  0  0  0  0  0  0  0
  153.5824  139.5772  183.3942 N   0  0  0  0  0  0  0  0  0  0  0  0
  154.0844  140.0961  184.1724 H   0  0  0  0  0  0  0  0  0  0  0  0
  153.0614  138.3625  183.6969 N   0  0  0  0  0  0  0  0  0  0  0  0
  153.0484  137.6091  184.6649 C   0  0  0  0  0  0  0  0  0  0  0  0
  153.6651  137.8062  185.9544 C   0  0  0  0  0  0  0  0  0  0  0  0
  153.0067  138.1931  187.0986 C   0  0  0  0  0  0  0  0  0  0  0  0
  153.6538  138.3686  188.3201 C   0  0  0  0  0  0  0  0  0  0  0  0
  155.0076  138.1600  188.4441 C   0  0  0  0  0  0  0  0  0  0  0  0
  155.6933  137.7725  187.3169 C   0  0  0  0  0  0  0  0  0  0  0  0
  155.0464  137.6032  186.1223 C   0  0  0  0  0  0  0  0  0  0  0  0
  155.6629  138.3425  189.7011 N   0  0  0  0  0  0  0  0  0  0  0  0
  156.8114  137.8870  189.8576 O   0  0  0  0  0  0  0  0  0  0  0  0
  154.9786  139.0191  190.6779 O   0  0  0  0  0  0  0  0  0  0  0  0
 13 14  1  0  0  0
 14 15  1  0  0  0
 14 12  1  0  0  0
 12  6  1  0  0  0
  6  7  2  0  0  0
  7  8  1  0  0  0
  8  9  2  0  0  0
  9  5  1  0  0  0
  5  3  1  0  0  0
  3  1  1  0  0  0
  1  2  2  0  0  0
  1 16  1  0  0  0
 16 18  1  0  0  0
 18 19  2  0  0  0
 19 20  1  0  0  0
 20 21  2  0  0  0
 21 22  1  0  0  0
 22 23  2  0  0  0
 23 26  1  0  0  0
 26 27  2  0  0  0
 26 28  1  0  0  0
 23 24  1  0  0  0
 24 25  2  0  0  0
  9 10  1  0  0  0
 10 11  2  0  0  0
 11  6  1  0  0  0
 25 20  1  0  0  0
  3  4  1  0  0  0
 16 17  1  0  0  0
M  CHG 1  26   1
M  CHG 1  28  -1
M  END
> <minimizedAffinity>
-7.27845

> <CNNscore>
0.4790344834

> <CNNaffinity>
5.9217863083

> <CNN_VS>
2.8367397785

> <CNNaffinity_variance>
0.0253763013

$$$$
[H]C(=NN([H])C(=S)N([H])C([H])([H])c1c([H])c([H])c(OC([H])(C([H])([H])[H])C([H])([H])[H])c([H])c1[H])c1c([H])c([H])c([N+](=O)[O-])c([H])c1[H]


 28 29  0  0  0  0  0  0  0  0999 V2000
  155.5482  141.7999  182.1705 C   0  0  0  0  0  0  0  0  0  0  0  0
  155.4722  142.8107  183.4426 S   0  0  0  0  0  0  0  0  0  0  0  0
  154.3630  141.2344  181.6632 N   0  0  0  0  0  0  0  0  0  0  0  0
  154.0332  141.4660  180.7076 H   0  0  0  0  0  0  0  0  0  0  0  0
  153.5885  140.3211  182.4699 C   0  0  0  0  0  0  0  0  0  0  0  0
  150.4316  138.4452  180.2487 C   0  0  0  0  0  0  0  0  0  0  0  0
  150.7753  138.0249  181.5343 C   0  0  0  0  0  0  0  0  0  0  0  0
  151.7900  138.6380  182.2313 C   0  0  0  0  0  0  0  0  0  0  0  0
  152.5018  139.6852  181.6888 C   0  0  0  0  0  0  0  0  0  0  0  0
  152.1375  140.0727  180.4234 C   0  0  0  0  0  0  0  0  0  0  0  0
  151.1168  139.4751  179.6903 C   0  0  0  0  0  0  0  0  0  0  0  0
  149.4124  137.8019  179.5948 O   0  0  0  0  0  0  0  0  0  0  0  0
  147.0069  137.5710  179.7418 C   0  0  0  0  0  0  0  0  0  0  0  0
  148.2059  138.3443  179.1943 C   0  0  0  0  0  0  0  0  0  0  0  0
  148.1046  138.2867  177.6693 C   0  0  0  0  0  0  0  0  0  0  0  0
  156.8008  141.4837  181.5683 N   0  0  0  0  0  0  0  0  0  0  0  0
  157.2771  142.1653  180.9084 H   0  0  0  0  0  0  0  0  0  0  0  0
  157.4341  140.3087  181.8064 N   0  0  0  0  0  0  0  0  0  0  0  0
  158.2965  139.8952  182.5746 C   0  0  0  0  0  0  0  0  0  0  0  0
  158.9995  140.6271  183.6005 C   0  0  0  0  0  0  0  0  0  0  0  0
  158.5204  140.8804  184.8648 C   0  0  0  0  0  0  0  0  0  0  0  0
  159.2439  141.5941  185.8180 C   0  0  0  0  0  0  0  0  0  0  0  0
  160.4956  142.0897  185.5365 C   0  0  0  0  0  0  0  0  0  0  0  0
  161.0015  141.8524  184.2800 C   0  0  0  0  0  0  0  0  0  0  0  0
  160.2811  141.1496  183.3519 C   0  0  0  0  0  0  0  0  0  0  0  0
  161.2305  142.8207  186.5206 N   0  0  0  0  0  0  0  0  0  0  0  0
  160.6107  143.5179  187.3457 O   0  0  0  0  0  0  0  0  0  0  0  0
  162.5971  142.7108  186.4991 O   0  0  0  0  0  0  0  0  0  0  0  0
 13 14  1  0  0  0
 14 15  1  0  0  0
 14 12  1  0  0  0
 12  6  1  0  0  0
  6  7  2  0  0  0
  7  8  1  0  0  0
  8  9  2  0  0  0
  9  5  1  0  0  0
  5  3  1  0  0  0
  3  1  1  0  0  0
  1  2  2  0  0  0
  1 16  1  0  0  0
 16 18  1  0  0  0
 18 19  2  0  0  0
 19 20  1  0  0  0
 20 21  2  0  0  0
 21 22  1  0  0  0
 22 23  2  0  0  0
 23 26  1  0  0  0
 26 27  2  0  0  0
 26 28  1  0  0  0
 23 24  1  0  0  0
 24 25  2  0  0  0
  9 10  1  0  0  0
 10 11  2  0  0  0
 11  6  1  0  0  0
 25 20  1  0  0  0
  3  4  1  0  0  0
 16 17  1  0  0  0
M  CHG 1  26   1
M  CHG 1  28  -1
M  END
> <minimizedAffinity>
-7.85566

> <CNNscore>
0.4593053162

> <CNNaffinity>
5.6567201614

> <CNN_VS>
2.5981616974

> <CNNaffinity_variance>
0.0647417977

$$$$
[H]C(=NN([H])C(=S)N([H])C([H])([H])c1c([H])c([H])c(OC([H])(C([H])([H])[H])C([H])([H])[H])c([H])c1[H])c1c([H])c([H])c([N+](=O)[O-])c([H])c1[H]


 28 29  0  0  0  0  0  0  0  0999 V2000
  154.4230  139.9433  183.2113 C   0  0  0  0  0  0  0  0  0  0  0  0
  154.4552  139.4329  184.7554 S   0  0  0  0  0  0  0  0  0  0  0  0
  153.1844  140.1828  182.5865 N   0  0  0  0  0  0  0  0  0  0  0  0
  152.3584  140.4718  183.1430 H   0  0  0  0  0  0  0  0  0  0  0  0
  153.0479  140.0287  181.1574 C   0  0  0  0  0  0  0  0  0  0  0  0
  149.0311  138.9475  180.1015 C   0  0  0  0  0  0  0  0  0  0  0  0
  149.4864  138.8842  181.4191 C   0  0  0  0  0  0  0  0  0  0  0  0
  150.7773  139.2346  181.7390 C   0  0  0  0  0  0  0  0  0  0  0  0
  151.6648  139.6593  180.7749 C   0  0  0  0  0  0  0  0  0  0  0  0
  151.1840  139.7097  179.4903 C   0  0  0  0  0  0  0  0  0  0  0  0
  149.8849  139.3627  179.1317 C   0  0  0  0  0  0  0  0  0  0  0  0
  147.7354  138.5876  179.8333 O   0  0  0  0  0  0  0  0  0  0  0  0
  148.2535  136.2511  179.4671 C   0  0  0  0  0  0  0  0  0  0  0  0
  147.3023  137.4230  179.2280 C   0  0  0  0  0  0  0  0  0  0  0  0
  147.2365  137.6316  177.7142 C   0  0  0  0  0  0  0  0  0  0  0  0
  155.6345  140.1488  182.4892 N   0  0  0  0  0  0  0  0  0  0  0  0
  156.3722  139.3875  182.4319 H   0  0  0  0  0  0  0  0  0  0  0  0
  155.8990  141.3153  181.8504 N   0  0  0  0  0  0  0  0  0  0  0  0
  156.8251  142.1180  181.7979 C   0  0  0  0  0  0  0  0  0  0  0  0
  158.0895  142.0648  182.4911 C   0  0  0  0  0  0  0  0  0  0  0  0
  159.1575  141.2743  182.1350 C   0  0  0  0  0  0  0  0  0  0  0  0
  160.3580  141.2628  182.8422 C   0  0  0  0  0  0  0  0  0  0  0  0
  160.5375  142.0557  183.9516 C   0  0  0  0  0  0  0  0  0  0  0  0
  159.4870  142.8572  184.3323 C   0  0  0  0  0  0  0  0  0  0  0  0
  158.3123  142.8599  183.6293 C   0  0  0  0  0  0  0  0  0  0  0  0
  161.7725  142.0372  184.6709 N   0  0  0  0  0  0  0  0  0  0  0  0
  162.8004  141.6267  184.0999 O   0  0  0  0  0  0  0  0  0  0  0  0
  161.7543  142.4794  185.9687 O   0  0  0  0  0  0  0  0  0  0  0  0
 13 14  1  0  0  0
 14 15  1  0  0  0
 14 12  1  0  0  0
 12  6  1  0  0  0
  6  7  2  0  0  0
  7  8  1  0  0  0
  8  9  2  0  0  0
  9  5  1  0  0  0
  5  3  1  0  0  0
  3  1  1  0  0  0
  1  2  2  0  0  0
  1 16  1  0  0  0
 16 18  1  0  0  0
 18 19  2  0  0  0
 19 20  1  0  0  0
 20 21  2  0  0  0
 21 22  1  0  0  0
 22 23  2  0  0  0
 23 26  1  0  0  0
 26 27  2  0  0  0
 26 28  1  0  0  0
 23 24  1  0  0  0
 24 25  2  0  0  0
  9 10  1  0  0  0
 10 11  2  0  0  0
 11  6  1  0  0  0
 25 20  1  0  0  0
  3  4  1  0  0  0
 16 17  1  0  0  0
M  CHG 1  26   1
M  CHG 1  28  -1
M  END
> <minimizedAffinity>
-6.69776

> <CNNscore>
0.3949288130

> <CNNaffinity>
5.5835728645

> <CNN_VS>
2.2051138878

> <CNNaffinity_variance>
0.0531127676

$$$$
[H]C(=NN([H])C(=S)N([H])C([H])([H])c1c([H])c([H])c(OC([H])(C([H])([H])[H])C([H])([H])[H])c([H])c1[H])c1c([H])c([H])c([N+](=O)[O-])c([H])c1[H]


 28 29  0  0  0  0  0  0  0  0999 V2000
  155.9574  141.9730  181.9534 C   0  0  0  0  0  0  0  0  0  0  0  0
  155.8975  143.3904  182.7492 S   0  0  0  0  0  0  0  0  0  0  0  0
  154.7612  141.2880  181.6674 N   0  0  0  0  0  0  0  0  0  0  0  0
  154.2310  141.4891  180.7991 H   0  0  0  0  0  0  0  0  0  0  0  0
  154.2554  140.2927  182.5830 C   0  0  0  0  0  0  0  0  0  0  0  0
  150.5234  138.6852  181.2024 C   0  0  0  0  0  0  0  0  0  0  0  0
  151.0955  139.8172  180.6206 C   0  0  0  0  0  0  0  0  0  0  0  0
  152.2925  140.3184  181.0763 C   0  0  0  0  0  0  0  0  0  0  0  0
  152.9681  139.7242  182.1193 C   0  0  0  0  0  0  0  0  0  0  0  0
  152.3772  138.6133  182.6679 C   0  0  0  0  0  0  0  0  0  0  0  0
  151.1681  138.0799  182.2319 C   0  0  0  0  0  0  0  0  0  0  0  0
  149.3286  138.2240  180.7124 O   0  0  0  0  0  0  0  0  0  0  0  0
  147.4669  136.7467  181.1740 C   0  0  0  0  0  0  0  0  0  0  0  0
  148.1369  138.1011  181.4017 C   0  0  0  0  0  0  0  0  0  0  0  0
  147.1537  139.1643  180.9095 C   0  0  0  0  0  0  0  0  0  0  0  0
  157.2068  141.4218  181.5452 N   0  0  0  0  0  0  0  0  0  0  0  0
  157.8322  141.9357  180.8583 H   0  0  0  0  0  0  0  0  0  0  0  0
  157.6486  140.2267  182.0089 N   0  0  0  0  0  0  0  0  0  0  0  0
  158.4489  139.8327  182.8508 C   0  0  0  0  0  0  0  0  0  0  0  0
  159.2805  140.6224  183.7266 C   0  0  0  0  0  0  0  0  0  0  0  0
  160.5344  141.0959  183.4171 C   0  0  0  0  0  0  0  0  0  0  0  0
  161.2951  141.8559  184.3033 C   0  0  0  0  0  0  0  0  0  0  0  0
  160.8210  142.1757  185.5542 C   0  0  0  0  0  0  0  0  0  0  0  0
  159.5699  141.7160  185.8925 C   0  0  0  0  0  0  0  0  0  0  0  0
  158.8319  140.9703  185.0131 C   0  0  0  0  0  0  0  0  0  0  0  0
  161.6083  142.9557  186.4567 N   0  0  0  0  0  0  0  0  0  0  0  0
  162.8105  142.6711  186.6137 O   0  0  0  0  0  0  0  0  0  0  0  0
  160.9849  143.9888  187.1081 O   0  0  0  0  0  0  0  0  0  0  0  0
 13 14  1  0  0  0
 14 15  1  0  0  0
 14 12  1  0  0  0
 12  6  1  0  0  0
  6  7  2  0  0  0
  7  8  1  0  0  0
  8  9  2  0  0  0
  9  5  1  0  0  0
  5  3  1  0  0  0
  3  1  1  0  0  0
  1  2  2  0  0  0
  1 16  1  0  0  0
 16 18  1  0  0  0
 18 19  2  0  0  0
 19 20  1  0  0  0
 20 21  2  0  0  0
 21 22  1  0  0  0
 22 23  2  0  0  0
 23 26  1  0  0  0
 26 27  2  0  0  0
 26 28  1  0  0  0
 23 24  1  0  0  0
 24 25  2  0  0  0
  9 10  1  0  0  0
 10 11  2  0  0  0
 11  6  1  0  0  0
 25 20  1  0  0  0
  3  4  1  0  0  0
 16 17  1  0  0  0
M  CHG 1  26   1
M  CHG 1  28  -1
M  END
> <minimizedAffinity>
-7.31544

> <CNNscore>
0.3935409784

> <CNNaffinity>
5.7816944122

> <CNN_VS>
2.2753336430

> <CNNaffinity_variance>
0.0576960072

$$$$
[H]c1nc(N([H])[H])c(C(=O)N([H])c2c([H])nc([H])c([H])c2N2C([H])([H])C([H])([H])C([H])(N([H])[H])C([H])([H])C2([H])[H])nc1-c1c([H])c([H])c(OC([H])([H])[H])c([H])c1[H]


 36 39  0  0  0  0  0  0  0  0999 V2000
  153.5340  139.9696  182.6493 C   0  0  0  0  0  0  0  0  0  0  0  0
  153.4189  141.2003  182.4884 O   0  0  0  0  0  0  0  0  0  0  0  0
  152.8477  138.9494  181.9762 N   0  0  0  0  0  0  0  0  0  0  0  0
  153.1236  137.9589  182.2661 H   0  0  0  0  0  0  0  0  0  0  0  0
  156.6682  139.9342  184.6463 C   0  0  0  0  0  0  0  0  0  0  0  0
  156.3884  138.9392  185.5434 C   0  0  0  0  0  0  0  0  0  0  0  0
  155.1951  138.2703  185.5188 N   0  0  0  0  0  0  0  0  0  0  0  0
  154.2660  138.5966  184.5875 C   0  0  0  0  0  0  0  0  0  0  0  0
  153.0071  137.9186  184.5332 N   0  0  0  0  0  0  0  0  0  0  0  0
  154.5272  139.5836  183.6874 C   0  0  0  0  0  0  0  0  0  0  0  0
  155.7249  140.2302  183.7387 N   0  0  0  0  0  0  0  0  0  0  0  0
  152.8297  137.1610  183.8434 H   0  0  0  0  0  0  0  0  0  0  0  0
  152.2692  138.1887  185.1888 H   0  0  0  0  0  0  0  0  0  0  0  0
  160.3724  142.0534  184.5291 C   0  0  0  0  0  0  0  0  0  0  0  0
  159.6011  142.0904  185.6643 C   0  0  0  0  0  0  0  0  0  0  0  0
  158.4127  141.4027  185.6824 C   0  0  0  0  0  0  0  0  0  0  0  0
  157.9192  140.6644  184.6378 C   0  0  0  0  0  0  0  0  0  0  0  0
  158.7296  140.6463  183.4933 C   0  0  0  0  0  0  0  0  0  0  0  0
  159.9307  141.3247  183.4361 C   0  0  0  0  0  0  0  0  0  0  0  0
  162.7834  142.0424  184.5685 C   0  0  0  0  0  0  0  0  0  0  0  0
  161.5667  142.7428  184.5072 O   0  0  0  0  0  0  0  0  0  0  0  0
  151.8720  139.0606  180.9643 C   0  0  0  0  0  0  0  0  0  0  0  0
  151.9683  139.9488  179.9359 C   0  0  0  0  0  0  0  0  0  0  0  0
  151.0477  140.0054  178.9574 N   0  0  0  0  0  0  0  0  0  0  0  0
  149.9865  139.1909  178.9417 C   0  0  0  0  0  0  0  0  0  0  0  0
  149.8344  138.2751  179.9515 C   0  0  0  0  0  0  0  0  0  0  0  0
  150.7783  138.2023  180.9751 C   0  0  0  0  0  0  0  0  0  0  0  0
  150.5879  137.2807  182.0303 N   0  0  0  0  0  0  0  0  0  0  0  0
  149.7549  137.5074  183.1768 C   0  0  0  0  0  0  0  0  0  0  0  0
  148.8438  136.3207  183.3905 C   0  0  0  0  0  0  0  0  0  0  0  0
  148.8702  135.4146  182.2011 C   0  0  0  0  0  0  0  0  0  0  0  0
  148.0844  134.2034  182.4748 N   0  0  0  0  0  0  0  0  0  0  0  0
  150.2404  134.9273  181.8154 C   0  0  0  0  0  0  0  0  0  0  0  0
  151.2790  136.0006  181.9587 C   0  0  0  0  0  0  0  0  0  0  0  0
  148.2934  133.4876  181.7721 H   0  0  0  0  0  0  0  0  0  0  0  0
  147.0761  134.4279  182.5910 H   0  0  0  0  0  0  0  0  0  0  0  0
 20 21  1  0  0  0
 21 14  1  0  0  0
 14 15  2  0  0  0
 15 16  1  0  0  0
 16 17  2  0  0  0
 17  5  1  0  0  0
  5  6  2  0  0  0
  6  7  1  0  0  0
  7  8  2  0  0  0
  8  9  1  0  0  0
  8 10  1  0  0  0
 10  1  1  0  0  0
  1  2  2  0  0  0
  1  3  1  0  0  0
  3 22  1  0  0  0
 22 23  2  0  0  0
 23 24  1  0  0  0
 24 25  2  0  0  0
 25 26  1  0  0  0
 26 27  2  0  0  0
 27 28  1  0  0  0
 28 29  1  0  0  0
 29 30  1  0  0  0
 30 31  1  0  0  0
 31 32  1  0  0  0
 31 33  1  0  0  0
 33 34  1  0  0  0
 10 11  2  0  0  0
 17 18  1  0  0  0
 18 19  2  0  0  0
 19 14  1  0  0  0
 11  5  1  0  0  0
 27 22  1  0  0  0
 34 28  1  0  0  0
  9 12  1  0  0  0
  9 13  1  0  0  0
  3  4  1  0  0  0
 32 35  1  0  0  0
 32 36  1  0  0  0
M  END
> <minimizedAffinity>
-7.47044

> <CNNscore>
0.3898046613

> <CNNaffinity>
6.0056142807

> <CNN_VS>
2.3410165310

> <CNNaffinity_variance>
0.2437208593

$$$$
[H]c1nc(N([H])[H])c(C(=O)N([H])c2c([H])nc([H])c([H])c2N2C([H])([H])C([H])([H])C([H])(N([H])[H])C([H])([H])C2([H])[H])nc1-c1c([H])c([H])c(OC([H])([H])[H])c([H])c1[H]


 36 39  0  0  0  0  0  0  0  0999 V2000
  151.3568  136.4799  183.1357 C   0  0  0  0  0  0  0  0  0  0  0  0
  151.7688  135.6331  182.3192 O   0  0  0  0  0  0  0  0  0  0  0  0
  151.0498  137.8259  182.8931 N   0  0  0  0  0  0  0  0  0  0  0  0
  150.6919  138.3629  183.7444 H   0  0  0  0  0  0  0  0  0  0  0  0
  151.7944  136.0938  186.8062 C   0  0  0  0  0  0  0  0  0  0  0  0
  150.9321  135.0616  187.0592 C   0  0  0  0  0  0  0  0  0  0  0  0
  150.2023  134.4794  186.0590 N   0  0  0  0  0  0  0  0  0  0  0  0
  150.3322  134.9312  184.7878 C   0  0  0  0  0  0  0  0  0  0  0  0
  149.5840  134.3464  183.7176 N   0  0  0  0  0  0  0  0  0  0  0  0
  151.1852  135.9569  184.5179 C   0  0  0  0  0  0  0  0  0  0  0  0
  151.8975  136.5148  185.5360 N   0  0  0  0  0  0  0  0  0  0  0  0
  150.0128  133.6514  183.0739 H   0  0  0  0  0  0  0  0  0  0  0  0
  148.6069  134.6213  183.5870 H   0  0  0  0  0  0  0  0  0  0  0  0
  154.0959  137.9164  189.9057 C   0  0  0  0  0  0  0  0  0  0  0  0
  154.0847  138.4697  188.6493 C   0  0  0  0  0  0  0  0  0  0  0  0
  153.3387  137.8686  187.6656 C   0  0  0  0  0  0  0  0  0  0  0  0
  152.5859  136.7354  187.8358 C   0  0  0  0  0  0  0  0  0  0  0  0
  152.6180  136.1946  189.1295 C   0  0  0  0  0  0  0  0  0  0  0  0
  153.3556  136.7694  190.1451 C   0  0  0  0  0  0  0  0  0  0  0  0
  156.1613  138.0921  191.1378 C   0  0  0  0  0  0  0  0  0  0  0  0
  154.8439  138.5173  190.8964 O   0  0  0  0  0  0  0  0  0  0  0  0
  151.1288  138.5450  181.6827 C   0  0  0  0  0  0  0  0  0  0  0  0
  152.3110  138.9195  181.1187 C   0  0  0  0  0  0  0  0  0  0  0  0
  152.3630  139.5653  179.9404 N   0  0  0  0  0  0  0  0  0  0  0  0
  151.2545  139.8746  179.2580 C   0  0  0  0  0  0  0  0  0  0  0  0
  150.0337  139.5239  179.7757 C   0  0  0  0  0  0  0  0  0  0  0  0
  149.9599  138.8547  180.9966 C   0  0  0  0  0  0  0  0  0  0  0  0
  148.6932  138.5348  181.5372 N   0  0  0  0  0  0  0  0  0  0  0  0
  148.1250  137.2173  181.5705 C   0  0  0  0  0  0  0  0  0  0  0  0
  147.6166  136.9140  182.9610 C   0  0  0  0  0  0  0  0  0  0  0  0
  148.1113  137.9329  183.9374 C   0  0  0  0  0  0  0  0  0  0  0  0
  147.5051  137.7011  185.2558 N   0  0  0  0  0  0  0  0  0  0  0  0
  147.7735  139.3556  183.5831 C   0  0  0  0  0  0  0  0  0  0  0  0
  147.8977  139.6120  182.1100 C   0  0  0  0  0  0  0  0  0  0  0  0
  147.6489  138.5210  185.8531 H   0  0  0  0  0  0  0  0  0  0  0  0
  147.8213  136.7977  185.6612 H   0  0  0  0  0  0  0  0  0  0  0  0
 20 21  1  0  0  0
 21 14  1  0  0  0
 14 15  2  0  0  0
 15 16  1  0  0  0
 16 17  2  0  0  0
 17  5  1  0  0  0
  5  6  2  0  0  0
  6  7  1  0  0  0
  7  8  2  0  0  0
  8  9  1  0  0  0
  8 10  1  0  0  0
 10  1  1  0  0  0
  1  2  2  0  0  0
  1  3  1  0  0  0
  3 22  1  0  0  0
 22 23  2  0  0  0
 23 24  1  0  0  0
 24 25  2  0  0  0
 25 26  1  0  0  0
 26 27  2  0  0  0
 27 28  1  0  0  0
 28 29  1  0  0  0
 29 30  1  0  0  0
 30 31  1  0  0  0
 31 32  1  0  0  0
 31 33  1  0  0  0
 33 34  1  0  0  0
 10 11  2  0  0  0
 17 18  1  0  0  0
 18 19  2  0  0  0
 19 14  1  0  0  0
 11  5  1  0  0  0
 27 22  1  0  0  0
 34 28  1  0  0  0
  9 12  1  0  0  0
  9 13  1  0  0  0
  3  4  1  0  0  0
 32 35  1  0  0  0
 32 36  1  0  0  0
M  END
> <minimizedAffinity>
-6.05645

> <CNNscore>
0.3356534243

> <CNNaffinity>
5.7453889847

> <CNN_VS>
1.9284595251

> <CNNaffinity_variance>
0.1449522823

$$$$
[H]c1nc(N([H])[H])c(C(=O)N([H])c2c([H])nc([H])c([H])c2N2C([H])([H])C([H])([H])C([H])(N([H])[H])C([H])([H])C2([H])[H])nc1-c1c([H])c([H])c(OC([H])([H])[H])c([H])c1[H]


 36 39  0  0  0  0  0  0  0  0999 V2000
  155.8144  141.5759  182.1081 C   0  0  0  0  0  0  0  0  0  0  0  0
  155.6040  142.7320  182.5238 O   0  0  0  0  0  0  0  0  0  0  0  0
  156.8187  141.1515  181.2271 N   0  0  0  0  0  0  0  0  0  0  0  0
  156.8208  140.1026  181.0242 H   0  0  0  0  0  0  0  0  0  0  0  0
  152.8264  139.3793  182.3516 C   0  0  0  0  0  0  0  0  0  0  0  0
  153.0845  138.7259  183.5260 C   0  0  0  0  0  0  0  0  0  0  0  0
  154.2164  138.9810  184.2513 N   0  0  0  0  0  0  0  0  0  0  0  0
  155.1049  139.9000  183.8009 C   0  0  0  0  0  0  0  0  0  0  0  0
  156.2992  140.1911  184.5331 N   0  0  0  0  0  0  0  0  0  0  0  0
  154.8644  140.5594  182.6347 C   0  0  0  0  0  0  0  0  0  0  0  0
  153.7281  140.2824  181.9365 N   0  0  0  0  0  0  0  0  0  0  0  0
  156.3695  141.0310  185.1422 H   0  0  0  0  0  0  0  0  0  0  0  0
  157.0981  139.5567  184.4522 H   0  0  0  0  0  0  0  0  0  0  0  0
  149.3730  138.7190  179.9301 C   0  0  0  0  0  0  0  0  0  0  0  0
  149.3800  138.2988  181.2370 C   0  0  0  0  0  0  0  0  0  0  0  0
  150.5003  138.5198  181.9997 C   0  0  0  0  0  0  0  0  0  0  0  0
  151.6399  139.1396  181.5559 C   0  0  0  0  0  0  0  0  0  0  0  0
  151.6015  139.5571  180.2175 C   0  0  0  0  0  0  0  0  0  0  0  0
  150.4942  139.3531  179.4186 C   0  0  0  0  0  0  0  0  0  0  0  0
  146.9798  138.4747  179.7627 C   0  0  0  0  0  0  0  0  0  0  0  0
  148.2495  138.4989  179.1610 O   0  0  0  0  0  0  0  0  0  0  0  0
  157.8256  141.9157  180.6024 C   0  0  0  0  0  0  0  0  0  0  0  0
  157.7775  142.2733  179.2887 C   0  0  0  0  0  0  0  0  0  0  0  0
  158.7273  143.0411  178.7261 N   0  0  0  0  0  0  0  0  0  0  0  0
  159.7718  143.4956  179.4279 C   0  0  0  0  0  0  0  0  0  0  0  0
  159.8755  143.1682  180.7558 C   0  0  0  0  0  0  0  0  0  0  0  0
  158.9008  142.3724  181.3563 C   0  0  0  0  0  0  0  0  0  0  0  0
  159.0415  142.0101  182.7157 N   0  0  0  0  0  0  0  0  0  0  0  0
  159.4133  140.7048  183.1822 C   0  0  0  0  0  0  0  0  0  0  0  0
  160.5279  140.8217  184.1960 C   0  0  0  0  0  0  0  0  0  0  0  0
  161.1019  142.2026  184.1921 C   0  0  0  0  0  0  0  0  0  0  0  0
  162.0920  142.3382  185.2694 N   0  0  0  0  0  0  0  0  0  0  0  0
  160.0982  143.2986  184.4270 C   0  0  0  0  0  0  0  0  0  0  0  0
  158.7983  143.0289  183.7278 C   0  0  0  0  0  0  0  0  0  0  0  0
  162.3061  143.3285  185.4217 H   0  0  0  0  0  0  0  0  0  0  0  0
  162.9167  141.7283  185.1008 H   0  0  0  0  0  0  0  0  0  0  0  0
 20 21  1  0  0  0
 21 14  1  0  0  0
 14 15  2  0  0  0
 15 16  1  0  0  0
 16 17  2  0  0  0
 17  5  1  0  0  0
  5  6  2  0  0  0
  6  7  1  0  0  0
  7  8  2  0  0  0
  8  9  1  0  0  0
  8 10  1  0  0  0
 10  1  1  0  0  0
  1  2  2  0  0  0
  1  3  1  0  0  0
  3 22  1  0  0  0
 22 23  2  0  0  0
 23 24  1  0  0  0
 24 25  2  0  0  0
 25 26  1  0  0  0
 26 27  2  0  0  0
 27 28  1  0  0  0
 28 29  1  0  0  0
 29 30  1  0  0  0
 30 31  1  0  0  0
 31 32  1  0  0  0
 31 33  1  0  0  0
 33 34  1  0  0  0
 10 11  2  0  0  0
 17 18  1  0  0  0
 18 19  2  0  0  0
 19 14  1  0  0  0
 11  5  1  0  0  0
 27 22  1  0  0  0
 34 28  1  0  0  0
  9 12  1  0  0  0
  9 13  1  0  0  0
  3  4  1  0  0  0
 32 35  1  0  0  0
 32 36  1  0  0  0
M  END
> <minimizedAffinity>
-8.42715

> <CNNscore>
0.2775537372

> <CNNaffinity>
6.8499159813

> <CNN_VS>
1.9012197256

> <CNNaffinity_variance>
0.0303402580

$$$$
[H]c1nc(N([H])[H])c(C(=O)N([H])c2c([H])nc([H])c([H])c2N2C([H])([H])C([H])([H])C([H])(N([H])[H])C([H])([H])C2([H])[H])nc1-c1c([H])c([H])c(OC([H])([H])[H])c([H])c1[H]


 36 39  0  0  0  0  0  0  0  0999 V2000
  153.5589  140.2243  182.3900 C   0  0  0  0  0  0  0  0  0  0  0  0
  153.2611  141.4306  182.2918 O   0  0  0  0  0  0  0  0  0  0  0  0
  152.9659  139.1387  181.7306 N   0  0  0  0  0  0  0  0  0  0  0  0
  153.4001  138.1887  181.9547 H   0  0  0  0  0  0  0  0  0  0  0  0
  155.3971  138.9908  185.3754 C   0  0  0  0  0  0  0  0  0  0  0  0
  156.6660  139.4149  185.0875 C   0  0  0  0  0  0  0  0  0  0  0  0
  156.9463  140.0990  183.9362 N   0  0  0  0  0  0  0  0  0  0  0  0
  155.9488  140.3649  183.0578 C   0  0  0  0  0  0  0  0  0  0  0  0
  156.2061  141.0770  181.8438 N   0  0  0  0  0  0  0  0  0  0  0  0
  154.6808  139.9505  183.3279 C   0  0  0  0  0  0  0  0  0  0  0  0
  154.4349  139.2719  184.4830 N   0  0  0  0  0  0  0  0  0  0  0  0
  155.9927  142.0909  181.7554 H   0  0  0  0  0  0  0  0  0  0  0  0
  156.6083  140.5736  181.0488 H   0  0  0  0  0  0  0  0  0  0  0  0
  154.3166  136.9080  188.9419 C   0  0  0  0  0  0  0  0  0  0  0  0
  155.5069  136.6232  188.3198 C   0  0  0  0  0  0  0  0  0  0  0  0
  155.8365  137.3034  187.1734 C   0  0  0  0  0  0  0  0  0  0  0  0
  155.0589  138.2662  186.5832 C   0  0  0  0  0  0  0  0  0  0  0  0
  153.8502  138.5343  187.2422 C   0  0  0  0  0  0  0  0  0  0  0  0
  153.4833  137.8718  188.3966 C   0  0  0  0  0  0  0  0  0  0  0  0
  153.3589  136.9048  191.1550 C   0  0  0  0  0  0  0  0  0  0  0  0
  153.9822  136.2269  190.0936 O   0  0  0  0  0  0  0  0  0  0  0  0
  151.9017  139.1423  180.8056 C   0  0  0  0  0  0  0  0  0  0  0  0
  151.8305  140.0133  179.7606 C   0  0  0  0  0  0  0  0  0  0  0  0
  150.8287  139.9680  178.8648 N   0  0  0  0  0  0  0  0  0  0  0  0
  149.8469  139.0633  178.9523 C   0  0  0  0  0  0  0  0  0  0  0  0
  149.8636  138.1595  179.9839 C   0  0  0  0  0  0  0  0  0  0  0  0
  150.8938  138.1917  180.9228 C   0  0  0  0  0  0  0  0  0  0  0  0
  150.8769  137.2796  182.0031 N   0  0  0  0  0  0  0  0  0  0  0  0
  150.2348  137.5149  183.2649 C   0  0  0  0  0  0  0  0  0  0  0  0
  149.3743  136.3277  183.6308 C   0  0  0  0  0  0  0  0  0  0  0  0
  149.2161  135.4102  182.4604 C   0  0  0  0  0  0  0  0  0  0  0  0
  148.4889  134.1995  182.8659 N   0  0  0  0  0  0  0  0  0  0  0  0
  150.5102  134.9233  181.8670 C   0  0  0  0  0  0  0  0  0  0  0  0
  151.5536  136.0010  181.8345 C   0  0  0  0  0  0  0  0  0  0  0  0
  148.5873  133.4776  182.1455 H   0  0  0  0  0  0  0  0  0  0  0  0
  147.5108  134.4221  183.1383 H   0  0  0  0  0  0  0  0  0  0  0  0
 20 21  1  0  0  0
 21 14  1  0  0  0
 14 15  2  0  0  0
 15 16  1  0  0  0
 16 17  2  0  0  0
 17  5  1  0  0  0
  5  6  2  0  0  0
  6  7  1  0  0  0
  7  8  2  0  0  0
  8  9  1  0  0  0
  8 10  1  0  0  0
 10  1  1  0  0  0
  1  2  2  0  0  0
  1  3  1  0  0  0
  3 22  1  0  0  0
 22 23  2  0  0  0
 23 24  1  0  0  0
 24 25  2  0  0  0
 25 26  1  0  0  0
 26 27  2  0  0  0
 27 28  1  0  0  0
 28 29  1  0  0  0
 29 30  1  0  0  0
 30 31  1  0  0  0
 31 32  1  0  0  0
 31 33  1  0  0  0
 33 34  1  0  0  0
 10 11  2  0  0  0
 17 18  1  0  0  0
 18 19  2  0  0  0
 19 14  1  0  0  0
 11  5  1  0  0  0
 27 22  1  0  0  0
 34 28  1  0  0  0
  9 12  1  0  0  0
  9 13  1  0  0  0
  3  4  1  0  0  0
 32 35  1  0  0  0
 32 36  1  0  0  0
M  END
> <minimizedAffinity>
-7.03674

> <CNNscore>
0.2696277499

> <CNNaffinity>
5.7192802429

> <CNN_VS>
1.5420767069

> <CNNaffinity_variance>
0.3691224456

$$$$
[H]c1nc(N([H])[H])c(C(=O)N([H])c2c([H])nc([H])c([H])c2N2C([H])([H])C([H])([H])C([H])(N([H])[H])C([H])([H])C2([H])[H])nc1-c1c([H])c([H])c(OC([H])([H])[H])c([H])c1[H]


 36 39  0  0  0  0  0  0  0  0999 V2000
  154.9321  137.8849  186.3245 C   0  0  0  0  0  0  0  0  0  0  0  0
  154.0230  137.1294  185.9291 O   0  0  0  0  0  0  0  0  0  0  0  0
  155.4832  137.9623  187.6111 N   0  0  0  0  0  0  0  0  0  0  0  0
  156.2720  138.6749  187.7170 H   0  0  0  0  0  0  0  0  0  0  0  0
  157.1948  140.2601  184.5778 C   0  0  0  0  0  0  0  0  0  0  0  0
  156.5022  140.4650  183.4154 C   0  0  0  0  0  0  0  0  0  0  0  0
  155.3053  139.8457  183.1786 N   0  0  0  0  0  0  0  0  0  0  0  0
  154.7900  139.0096  184.1126 C   0  0  0  0  0  0  0  0  0  0  0  0
  153.5415  138.3446  183.8980 N   0  0  0  0  0  0  0  0  0  0  0  0
  155.4653  138.7940  185.2745 C   0  0  0  0  0  0  0  0  0  0  0  0
  156.6544  139.4259  185.4796 N   0  0  0  0  0  0  0  0  0  0  0  0
  152.6609  138.6952  184.3257 H   0  0  0  0  0  0  0  0  0  0  0  0
  153.5199  137.5067  183.3108 H   0  0  0  0  0  0  0  0  0  0  0  0
  160.9673  142.1060  185.3441 C   0  0  0  0  0  0  0  0  0  0  0  0
  159.9666  142.1848  186.2808 C   0  0  0  0  0  0  0  0  0  0  0  0
  158.7601  141.5850  186.0157 C   0  0  0  0  0  0  0  0  0  0  0  0
  158.4630  140.8976  184.8673 C   0  0  0  0  0  0  0  0  0  0  0  0
  159.5051  140.8348  183.9308 C   0  0  0  0  0  0  0  0  0  0  0  0
  160.7319  141.4248  184.1603 C   0  0  0  0  0  0  0  0  0  0  0  0
  162.6098  142.8722  186.9347 C   0  0  0  0  0  0  0  0  0  0  0  0
  162.1804  142.7070  185.6069 O   0  0  0  0  0  0  0  0  0  0  0  0
  155.1513  137.2151  188.7599 C   0  0  0  0  0  0  0  0  0  0  0  0
  154.3311  137.6870  189.7399 C   0  0  0  0  0  0  0  0  0  0  0  0
  153.9925  136.9386  190.8046 N   0  0  0  0  0  0  0  0  0  0  0  0
  154.4438  135.6885  190.9581 C   0  0  0  0  0  0  0  0  0  0  0  0
  155.2743  135.1580  190.0040 C   0  0  0  0  0  0  0  0  0  0  0  0
  155.6370  135.9192  188.8936 C   0  0  0  0  0  0  0  0  0  0  0  0
  156.5253  135.3737  187.9384 N   0  0  0  0  0  0  0  0  0  0  0  0
  157.9348  135.6383  187.8843 C   0  0  0  0  0  0  0  0  0  0  0  0
  158.6961  134.3376  187.7725 C   0  0  0  0  0  0  0  0  0  0  0  0
  157.7962  133.1747  188.0446 C   0  0  0  0  0  0  0  0  0  0  0  0
  158.5155  131.9160  187.8049 N   0  0  0  0  0  0  0  0  0  0  0  0
  156.5725  133.1120  187.1715 C   0  0  0  0  0  0  0  0  0  0  0  0
  155.9835  134.4710  186.9319 C   0  0  0  0  0  0  0  0  0  0  0  0
  157.8493  131.1390  187.7564 H   0  0  0  0  0  0  0  0  0  0  0  0
  159.2916  131.7912  188.4851 H   0  0  0  0  0  0  0  0  0  0  0  0
 20 21  1  0  0  0
 21 14  1  0  0  0
 14 15  2  0  0  0
 15 16  1  0  0  0
 16 17  2  0  0  0
 17  5  1  0  0  0
  5  6  2  0  0  0
  6  7  1  0  0  0
  7  8  2  0  0  0
  8  9  1  0  0  0
  8 10  1  0  0  0
 10  1  1  0  0  0
  1  2  2  0  0  0
  1  3  1  0  0  0
  3 22  1  0  0  0
 22 23  2  0  0  0
 23 24  1  0  0  0
 24 25  2  0  0  0
 25 26  1  0  0  0
 26 27  2  0  0  0
 27 28  1  0  0  0
 28 29  1  0  0  0
 29 30  1  0  0  0
 30 31  1  0  0  0
 31 32  1  0  0  0
 31 33  1  0  0  0
 33 34  1  0  0  0
 10 11  2  0  0  0
 17 18  1  0  0  0
 18 19  2  0  0  0
 19 14  1  0  0  0
 11  5  1  0  0  0
 27 22  1  0  0  0
 34 28  1  0  0  0
  9 12  1  0  0  0
  9 13  1  0  0  0
  3  4  1  0  0  0
 32 35  1  0  0  0
 32 36  1  0  0  0
M  END
> <minimizedAffinity>
-7.55462

> <CNNscore>
0.2370794863

> <CNNaffinity>
6.3666944504

> <CNN_VS>
1.5094126463

> <CNNaffinity_variance>
0.0455244109

$$$$
[H]c1nc(N([H])[H])c(C(=O)N([H])c2c([H])nc([H])c([H])c2N2C([H])([H])C([H])([H])C([H])(N([H])[H])C([H])([H])C2([H])[H])nc1-c1c([H])c([H])c(OC([H])([H])[H])c([H])c1[H]


 36 39  0  0  0  0  0  0  0  0999 V2000
  156.2027  137.3793  187.9119 C   0  0  0  0  0  0  0  0  0  0  0  0
  156.5125  138.1266  188.8602 O   0  0  0  0  0  0  0  0  0  0  0  0
  156.4569  136.0068  187.7840 N   0  0  0  0  0  0  0  0  0  0  0  0
  156.0797  135.5643  186.8878 H   0  0  0  0  0  0  0  0  0  0  0  0
  155.6070  139.2816  184.7752 C   0  0  0  0  0  0  0  0  0  0  0  0
  154.2397  139.3390  184.7668 C   0  0  0  0  0  0  0  0  0  0  0  0
  153.4949  138.7700  185.7637 N   0  0  0  0  0  0  0  0  0  0  0  0
  154.1203  138.1339  186.7841 C   0  0  0  0  0  0  0  0  0  0  0  0
  153.3731  137.5268  187.8426 N   0  0  0  0  0  0  0  0  0  0  0  0
  155.4795  138.0670  186.8086 C   0  0  0  0  0  0  0  0  0  0  0  0
  156.1918  138.6439  185.8011 N   0  0  0  0  0  0  0  0  0  0  0  0
  153.2523  138.0003  188.7605 H   0  0  0  0  0  0  0  0  0  0  0  0
  152.9509  136.6075  187.6882 H   0  0  0  0  0  0  0  0  0  0  0  0
  158.1131  140.9706  181.7598 C   0  0  0  0  0  0  0  0  0  0  0  0
  156.8002  141.3612  181.8531 C   0  0  0  0  0  0  0  0  0  0  0  0
  156.0099  140.8062  182.8293 C   0  0  0  0  0  0  0  0  0  0  0  0
  156.4311  139.8725  183.7408 C   0  0  0  0  0  0  0  0  0  0  0  0
  157.7762  139.4944  183.6195 C   0  0  0  0  0  0  0  0  0  0  0  0
  158.6025  140.0293  182.6515 C   0  0  0  0  0  0  0  0  0  0  0  0
  158.3263  142.0610  179.6195 C   0  0  0  0  0  0  0  0  0  0  0  0
  158.9098  141.5259  180.7806 O   0  0  0  0  0  0  0  0  0  0  0  0
  157.1158  135.1436  188.6834 C   0  0  0  0  0  0  0  0  0  0  0  0
  158.3998  134.7254  188.5039 C   0  0  0  0  0  0  0  0  0  0  0  0
  159.0225  133.9383  189.3988 N   0  0  0  0  0  0  0  0  0  0  0  0
  158.4130  133.5235  190.5153 C   0  0  0  0  0  0  0  0  0  0  0  0
  157.1187  133.9114  190.7513 C   0  0  0  0  0  0  0  0  0  0  0  0
  156.4565  134.7266  189.8343 C   0  0  0  0  0  0  0  0  0  0  0  0
  155.1097  135.0859  190.0712 N   0  0  0  0  0  0  0  0  0  0  0  0
  153.9729  134.4462  189.4726 C   0  0  0  0  0  0  0  0  0  0  0  0
  152.9598  134.0999  190.5392 C   0  0  0  0  0  0  0  0  0  0  0  0
  153.5558  134.2525  191.9022 C   0  0  0  0  0  0  0  0  0  0  0  0
  152.5251  134.0399  192.9278 N   0  0  0  0  0  0  0  0  0  0  0  0
  154.1312  135.6136  192.1853 C   0  0  0  0  0  0  0  0  0  0  0  0
  154.8420  136.1819  190.9924 C   0  0  0  0  0  0  0  0  0  0  0  0
  152.8641  134.3738  193.8353 H   0  0  0  0  0  0  0  0  0  0  0  0
  152.1816  133.0589  192.9177 H   0  0  0  0  0  0  0  0  0  0  0  0
 20 21  1  0  0  0
 21 14  1  0  0  0
 14 15  2  0  0  0
 15 16  1  0  0  0
 16 17  2  0  0  0
 17  5  1  0  0  0
  5  6  2  0  0  0
  6  7  1  0  0  0
  7  8  2  0  0  0
  8  9  1  0  0  0
  8 10  1  0  0  0
 10  1  1  0  0  0
  1  2  2  0  0  0
  1  3  1  0  0  0
  3 22  1  0  0  0
 22 23  2  0  0  0
 23 24  1  0  0  0
 24 25  2  0  0  0
 25 26  1  0  0  0
 26 27  2  0  0  0
 27 28  1  0  0  0
 28 29  1  0  0  0
 29 30  1  0  0  0
 30 31  1  0  0  0
 31 32  1  0  0  0
 31 33  1  0  0  0
 33 34  1  0  0  0
 10 11  2  0  0  0
 17 18  1  0  0  0
 18 19  2  0  0  0
 19 14  1  0  0  0
 11  5  1  0  0  0
 27 22  1  0  0  0
 34 28  1  0  0  0
  9 12  1  0  0  0
  9 13  1  0  0  0
  3  4  1  0  0  0
 32 35  1  0  0  0
 32 36  1  0  0  0
M  END
> <minimizedAffinity>
-6.90122

> <CNNscore>
0.2266946882

> <CNNaffinity>
5.7571229935

> <CNN_VS>
1.3051091433

> <CNNaffinity_variance>
0.1423898190

$$$$
[H]c1nc(N([H])[H])c(C(=O)N([H])c2c([H])nc([H])c([H])c2N2C([H])([H])C([H])([H])C([H])(N([H])[H])C([H])([H])C2([H])[H])nc1-c1c([H])c([H])c(OC([H])([H])[H])c([H])c1[H]


 36 39  0  0  0  0  0  0  0  0999 V2000
  154.4702  138.0840  187.6894 C   0  0  0  0  0  0  0  0  0  0  0  0
  153.6887  138.7307  188.4138 O   0  0  0  0  0  0  0  0  0  0  0  0
  155.4799  137.1997  188.0935 N   0  0  0  0  0  0  0  0  0  0  0  0
  156.0173  136.7395  187.2930 H   0  0  0  0  0  0  0  0  0  0  0  0
  155.1228  139.1946  184.2032 C   0  0  0  0  0  0  0  0  0  0  0  0
  153.9869  138.7561  183.5784 C   0  0  0  0  0  0  0  0  0  0  0  0
  153.0015  138.1010  184.2654 N   0  0  0  0  0  0  0  0  0  0  0  0
  153.1489  137.8786  185.5943 C   0  0  0  0  0  0  0  0  0  0  0  0
  152.1391  137.1959  186.3437 N   0  0  0  0  0  0  0  0  0  0  0  0
  154.2722  138.3077  186.2320 C   0  0  0  0  0  0  0  0  0  0  0  0
  155.2344  138.9569  185.5193 N   0  0  0  0  0  0  0  0  0  0  0  0
  151.4543  137.7162  186.9282 H   0  0  0  0  0  0  0  0  0  0  0  0
  152.0943  136.1745  186.3006 H   0  0  0  0  0  0  0  0  0  0  0  0
  158.3269  141.2016  182.2204 C   0  0  0  0  0  0  0  0  0  0  0  0
  157.0278  141.5338  181.9258 C   0  0  0  0  0  0  0  0  0  0  0  0
  156.0110  140.8767  182.5738 C   0  0  0  0  0  0  0  0  0  0  0  0
  156.1874  139.8932  183.5126 C   0  0  0  0  0  0  0  0  0  0  0  0
  157.5250  139.5768  183.7915 C   0  0  0  0  0  0  0  0  0  0  0  0
  158.5747  140.2146  183.1613 C   0  0  0  0  0  0  0  0  0  0  0  0
  159.0578  142.8040  180.5733 C   0  0  0  0  0  0  0  0  0  0  0  0
  159.3508  141.8595  181.5717 O   0  0  0  0  0  0  0  0  0  0  0  0
  155.8559  136.8270  189.4004 C   0  0  0  0  0  0  0  0  0  0  0  0
  156.3374  137.7145  190.3148 C   0  0  0  0  0  0  0  0  0  0  0  0
  156.6468  137.3441  191.5699 N   0  0  0  0  0  0  0  0  0  0  0  0
  156.4976  136.0820  191.9881 C   0  0  0  0  0  0  0  0  0  0  0  0
  156.0172  135.1422  191.1120 C   0  0  0  0  0  0  0  0  0  0  0  0
  155.6919  135.5074  189.8064 C   0  0  0  0  0  0  0  0  0  0  0  0
  155.2354  134.5203  188.9029 N   0  0  0  0  0  0  0  0  0  0  0  0
  153.8595  134.2914  188.5650 C   0  0  0  0  0  0  0  0  0  0  0  0
  153.7053  134.2252  187.0631 C   0  0  0  0  0  0  0  0  0  0  0  0
  154.9492  134.7023  186.3836 C   0  0  0  0  0  0  0  0  0  0  0  0
  154.8336  134.5099  184.9314 N   0  0  0  0  0  0  0  0  0  0  0  0
  156.2022  133.9743  186.7881 C   0  0  0  0  0  0  0  0  0  0  0  0
  156.2249  133.6688  188.2569 C   0  0  0  0  0  0  0  0  0  0  0  0
  155.7549  134.6076  184.4938 H   0  0  0  0  0  0  0  0  0  0  0  0
  154.0875  135.1125  184.5307 H   0  0  0  0  0  0  0  0  0  0  0  0
 20 21  1  0  0  0
 21 14  1  0  0  0
 14 15  2  0  0  0
 15 16  1  0  0  0
 16 17  2  0  0  0
 17  5  1  0  0  0
  5  6  2  0  0  0
  6  7  1  0  0  0
  7  8  2  0  0  0
  8  9  1  0  0  0
  8 10  1  0  0  0
 10  1  1  0  0  0
  1  2  2  0  0  0
  1  3  1  0  0  0
  3 22  1  0  0  0
 22 23  2  0  0  0
 23 24  1  0  0  0
 24 25  2  0  0  0
 25 26  1  0  0  0
 26 27  2  0  0  0
 27 28  1  0  0  0
 28 29  1  0  0  0
 29 30  1  0  0  0
 30 31  1  0  0  0
 31 32  1  0  0  0
 31 33  1  0  0  0
 33 34  1  0  0  0
 10 11  2  0  0  0
 17 18  1  0  0  0
 18 19  2  0  0  0
 19 14  1  0  0  0
 11  5  1  0  0  0
 27 22  1  0  0  0
 34 28  1  0  0  0
  9 12  1  0  0  0
  9 13  1  0  0  0
  3  4  1  0  0  0
 32 35  1  0  0  0
 32 36  1  0  0  0
M  END
> <minimizedAffinity>
-6.63535

> <CNNscore>
0.2261012644

> <CNNaffinity>
5.8098039627

> <CNN_VS>
1.3136039972

> <CNNaffinity_variance>
0.1525831670

$$$$
[H]c1nc(N([H])[H])c(C(=O)N([H])c2c([H])nc([H])c([H])c2N2C([H])([H])C([H])([H])C([H])(N([H])[H])C([H])([H])C2([H])[H])nc1-c1c([H])c([H])c(OC([H])([H])[H])c([H])c1[H]


 36 39  0  0  0  0  0  0  0  0999 V2000
  154.0101  138.2056  187.3710 C   0  0  0  0  0  0  0  0  0  0  0  0
  153.0481  138.5993  188.0589 O   0  0  0  0  0  0  0  0  0  0  0  0
  155.1751  137.5643  187.8143 N   0  0  0  0  0  0  0  0  0  0  0  0
  155.8607  137.2979  187.0395 H   0  0  0  0  0  0  0  0  0  0  0  0
  154.3747  139.8584  184.0622 C   0  0  0  0  0  0  0  0  0  0  0  0
  153.6388  139.0163  183.2734 C   0  0  0  0  0  0  0  0  0  0  0  0
  153.0192  137.9119  183.7915 N   0  0  0  0  0  0  0  0  0  0  0  0
  153.1339  137.6412  185.1146 C   0  0  0  0  0  0  0  0  0  0  0  0
  152.5002  136.4947  185.6900 N   0  0  0  0  0  0  0  0  0  0  0  0
  153.8619  138.4678  185.9141 C   0  0  0  0  0  0  0  0  0  0  0  0
  154.4663  139.5592  185.3673 N   0  0  0  0  0  0  0  0  0  0  0  0
  151.6019  136.5754  186.2077 H   0  0  0  0  0  0  0  0  0  0  0  0
  152.9442  135.5784  185.5874 H   0  0  0  0  0  0  0  0  0  0  0  0
  156.2584  143.3737  182.5390 C   0  0  0  0  0  0  0  0  0  0  0  0
  157.0264  142.3427  183.0209 C   0  0  0  0  0  0  0  0  0  0  0  0
  156.4020  141.2205  183.5070 C   0  0  0  0  0  0  0  0  0  0  0  0
  155.0439  141.0380  183.5531 C   0  0  0  0  0  0  0  0  0  0  0  0
  154.2874  142.1083  183.0539 C   0  0  0  0  0  0  0  0  0  0  0  0
  154.8779  143.2529  182.5569 C   0  0  0  0  0  0  0  0  0  0  0  0
  158.2785  144.6296  182.1425 C   0  0  0  0  0  0  0  0  0  0  0  0
  156.8820  144.5024  182.0499 O   0  0  0  0  0  0  0  0  0  0  0  0
  155.5418  137.2098  189.1288 C   0  0  0  0  0  0  0  0  0  0  0  0
  156.3663  137.9725  189.8998 C   0  0  0  0  0  0  0  0  0  0  0  0
  156.6657  137.6370  191.1670 N   0  0  0  0  0  0  0  0  0  0  0  0
  156.1687  136.5344  191.7392 C   0  0  0  0  0  0  0  0  0  0  0  0
  155.3326  135.7256  191.0124 C   0  0  0  0  0  0  0  0  0  0  0  0
  155.0116  136.0568  189.6966 C   0  0  0  0  0  0  0  0  0  0  0  0
  154.1805  135.1931  188.9467 N   0  0  0  0  0  0  0  0  0  0  0  0
  154.6509  134.1917  188.0326 C   0  0  0  0  0  0  0  0  0  0  0  0
  153.9654  132.8754  188.3179 C   0  0  0  0  0  0  0  0  0  0  0  0
  153.2401  132.9308  189.6245 C   0  0  0  0  0  0  0  0  0  0  0  0
  152.4731  131.6937  189.8262 N   0  0  0  0  0  0  0  0  0  0  0  0
  152.2393  134.0484  189.7384 C   0  0  0  0  0  0  0  0  0  0  0  0
  152.7380  135.3152  189.1077 C   0  0  0  0  0  0  0  0  0  0  0  0
  151.7987  131.8232  190.5865 H   0  0  0  0  0  0  0  0  0  0  0  0
  153.1033  130.8734  189.9289 H   0  0  0  0  0  0  0  0  0  0  0  0
 20 21  1  0  0  0
 21 14  1  0  0  0
 14 15  2  0  0  0
 15 16  1  0  0  0
 16 17  2  0  0  0
 17  5  1  0  0  0
  5  6  2  0  0  0
  6  7  1  0  0  0
  7  8  2  0  0  0
  8  9  1  0  0  0
  8 10  1  0  0  0
 10  1  1  0  0  0
  1  2  2  0  0  0
  1  3  1  0  0  0
  3 22  1  0  0  0
 22 23  2  0  0  0
 23 24  1  0  0  0
 24 25  2  0  0  0
 25 26  1  0  0  0
 26 27  2  0  0  0
 27 28  1  0  0  0
 28 29  1  0  0  0
 29 30  1  0  0  0
 30 31  1  0  0  0
 31 32  1  0  0  0
 31 33  1  0  0  0
 33 34  1  0  0  0
 10 11  2  0  0  0
 17 18  1  0  0  0
 18 19  2  0  0  0
 19 14  1  0  0  0
 11  5  1  0  0  0
 27 22  1  0  0  0
 34 28  1  0  0  0
  9 12  1  0  0  0
  9 13  1  0  0  0
  3  4  1  0  0  0
 32 35  1  0  0  0
 32 36  1  0  0  0
M  END
> <minimizedAffinity>
-6.37311

> <CNNscore>
0.2227032036

> <CNNaffinity>
5.8011012077

> <CNN_VS>
1.2919238806

> <CNNaffinity_variance>
0.1358090192

$$$$
[H]c1nc(N([H])[H])c(C(=O)N([H])c2c([H])nc([H])c([H])c2N2C([H])([H])C([H])([H])C([H])(N([H])[H])C([H])([H])C2([H])[H])nc1-c1c([H])c([H])c(OC([H])([H])[H])c([H])c1[H]


 36 39  0  0  0  0  0  0  0  0999 V2000
  153.8983  137.6400  187.4957 C   0  0  0  0  0  0  0  0  0  0  0  0
  152.8319  137.6191  188.1406 O   0  0  0  0  0  0  0  0  0  0  0  0
  155.1967  137.4274  187.9794 N   0  0  0  0  0  0  0  0  0  0  0  0
  155.9633  137.4743  187.2368 H   0  0  0  0  0  0  0  0  0  0  0  0
  154.1563  139.3833  184.2236 C   0  0  0  0  0  0  0  0  0  0  0  0
  153.4543  138.5255  183.4209 C   0  0  0  0  0  0  0  0  0  0  0  0
  152.8920  137.3814  183.9179 N   0  0  0  0  0  0  0  0  0  0  0  0
  153.0305  137.0863  185.2334 C   0  0  0  0  0  0  0  0  0  0  0  0
  152.4566  135.8982  185.7867 N   0  0  0  0  0  0  0  0  0  0  0  0
  153.7255  137.9281  186.0465 C   0  0  0  0  0  0  0  0  0  0  0  0
  154.2730  139.0590  185.5206 N   0  0  0  0  0  0  0  0  0  0  0  0
  151.5600  135.9245  186.3128 H   0  0  0  0  0  0  0  0  0  0  0  0
  152.9424  135.0066  185.6597 H   0  0  0  0  0  0  0  0  0  0  0  0
  155.8631  143.0073  182.7473 C   0  0  0  0  0  0  0  0  0  0  0  0
  156.6404  142.1281  183.4598 C   0  0  0  0  0  0  0  0  0  0  0  0
  156.0731  140.9680  183.9267 C   0  0  0  0  0  0  0  0  0  0  0  0
  154.7647  140.6046  183.7371 C   0  0  0  0  0  0  0  0  0  0  0  0
  153.9973  141.5230  183.0060 C   0  0  0  0  0  0  0  0  0  0  0  0
  154.5310  142.6998  182.5199 C   0  0  0  0  0  0  0  0  0  0  0  0
  157.7699  144.1833  181.8551 C   0  0  0  0  0  0  0  0  0  0  0  0
  156.4294  144.1734  182.2766 O   0  0  0  0  0  0  0  0  0  0  0  0
  155.6122  137.1404  189.2960 C   0  0  0  0  0  0  0  0  0  0  0  0
  155.3005  137.9309  190.3607 C   0  0  0  0  0  0  0  0  0  0  0  0
  155.6695  137.6128  191.6140 N   0  0  0  0  0  0  0  0  0  0  0  0
  156.3636  136.5009  191.8824 C   0  0  0  0  0  0  0  0  0  0  0  0
  156.7077  135.6649  190.8508 C   0  0  0  0  0  0  0  0  0  0  0  0
  156.3346  135.9788  189.5445 C   0  0  0  0  0  0  0  0  0  0  0  0
  156.7303  135.1284  188.4865 N   0  0  0  0  0  0  0  0  0  0  0  0
  157.9220  135.2933  187.7040 C   0  0  0  0  0  0  0  0  0  0  0  0
  158.6693  133.9820  187.6266 C   0  0  0  0  0  0  0  0  0  0  0  0
  158.1157  133.0006  188.6099 C   0  0  0  0  0  0  0  0  0  0  0  0
  158.7628  131.6932  188.4333 N   0  0  0  0  0  0  0  0  0  0  0  0
  156.6399  132.7416  188.4729 C   0  0  0  0  0  0  0  0  0  0  0  0
  155.8766  133.9947  188.1591 C   0  0  0  0  0  0  0  0  0  0  0  0
  158.2293  130.9720  188.9283 H   0  0  0  0  0  0  0  0  0  0  0  0
  159.7732  131.7385  188.6730 H   0  0  0  0  0  0  0  0  0  0  0  0
 20 21  1  0  0  0
 21 14  1  0  0  0
 14 15  2  0  0  0
 15 16  1  0  0  0
 16 17  2  0  0  0
 17  5  1  0  0  0
  5  6  2  0  0  0
  6  7  1  0  0  0
  7  8  2  0  0  0
  8  9  1  0  0  0
  8 10  1  0  0  0
 10  1  1  0  0  0
  1  2  2  0  0  0
  1  3  1  0  0  0
  3 22  1  0  0  0
 22 23  2  0  0  0
 23 24  1  0  0  0
 24 25  2  0  0  0
 25 26  1  0  0  0
 26 27  2  0  0  0
 27 28  1  0  0  0
 28 29  1  0  0  0
 29 30  1  0  0  0
 30 31  1  0  0  0
 31 32  1  0  0  0
 31 33  1  0  0  0
 33 34  1  0  0  0
 10 11  2  0  0  0
 17 18  1  0  0  0
 18 19  2  0  0  0
 19 14  1  0  0  0
 11  5  1  0  0  0
 27 22  1  0  0  0
 34 28  1  0  0  0
  9 12  1  0  0  0
  9 13  1  0  0  0
  3  4  1  0  0  0
 32 35  1  0  0  0
 32 36  1  0  0  0
M  END
> <minimizedAffinity>
-6.63036

> <CNNscore>
0.2002796680

> <CNNaffinity>
5.8519277573

> <CNN_VS>
1.1720221043

> <CNNaffinity_variance>
0.2149651796

$$$$
[H]c1c([H])c(N([H])C(=O)N([H])[C@]([H])(C(=O)N([H])[C@]([H])(C(=O)N([H])[H])C([H])([H])C([H])([H])C([H])([H])[H])C([H])([H])C([H])(C([H])([H])[H])C([H])([H])[H])c([H])c([H])c1Br


 31 31  0  0  0  0  0  0  0  0999 V2000
  155.6259  140.1587  183.8254 C   0  0  0  0  0  0  0  0  0  0  0  0
  154.9929  140.3673  182.5287 N   0  0  0  0  0  0  0  0  0  0  0  0
  153.6772  139.8959  182.3125 C   0  0  0  0  0  0  0  0  0  0  0  0
  153.0488  139.2930  183.2430 O   0  0  0  0  0  0  0  0  0  0  0  0
  153.0484  140.0837  181.0790 N   0  0  0  0  0  0  0  0  0  0  0  0
  155.5035  140.8487  181.7944 H   0  0  0  0  0  0  0  0  0  0  0  0
  153.6473  140.5929  180.3490 H   0  0  0  0  0  0  0  0  0  0  0  0
  151.7472  139.6982  180.6865 C   0  0  0  0  0  0  0  0  0  0  0  0
  151.2401  139.7563  179.4175 C   0  0  0  0  0  0  0  0  0  0  0  0
  149.9203  139.3696  179.1208 C   0  0  0  0  0  0  0  0  0  0  0  0
  149.0749  138.9119  180.0992 C   0  0  0  0  0  0  0  0  0  0  0  0
  147.2814  138.3869  179.6943 Br  0  0  0  0  0  0  0  0  0  0  0  0
  149.5696  138.8477  181.3764 C   0  0  0  0  0  0  0  0  0  0  0  0
  150.8579  139.2253  181.6670 C   0  0  0  0  0  0  0  0  0  0  0  0
  157.5821  141.7212  183.9608 N   0  0  0  0  0  0  0  0  0  0  0  0
  157.0529  140.4252  183.6447 C   0  0  0  0  0  0  0  0  0  0  0  0
  157.8308  139.5180  183.1987 O   0  0  0  0  0  0  0  0  0  0  0  0
  156.9220  142.4319  184.3316 H   0  0  0  0  0  0  0  0  0  0  0  0
  158.9826  142.0253  183.7693 C   0  0  0  0  0  0  0  0  0  0  0  0
  159.6489  142.1309  185.0900 C   0  0  0  0  0  0  0  0  0  0  0  0
  160.9733  142.6840  185.1590 N   0  0  0  0  0  0  0  0  0  0  0  0
  159.1366  141.7698  186.1587 O   0  0  0  0  0  0  0  0  0  0  0  0
  161.5708  142.5937  184.3206 H   0  0  0  0  0  0  0  0  0  0  0  0
  161.3317  143.1624  186.0184 H   0  0  0  0  0  0  0  0  0  0  0  0
  159.1444  143.3251  183.0404 C   0  0  0  0  0  0  0  0  0  0  0  0
  159.0854  142.5920  180.6102 C   0  0  0  0  0  0  0  0  0  0  0  0
  158.5670  143.4560  181.6953 C   0  0  0  0  0  0  0  0  0  0  0  0
  155.2106  138.8852  184.4357 C   0  0  0  0  0  0  0  0  0  0  0  0
  154.8665  138.7991  185.8556 C   0  0  0  0  0  0  0  0  0  0  0  0
  156.0515  138.1064  186.5974 C   0  0  0  0  0  0  0  0  0  0  0  0
  153.6916  137.9304  186.2086 C   0  0  0  0  0  0  0  0  0  0  0  0
 26 27  1  0  0  0
 27 25  1  0  0  0
 25 19  1  0  0  0
 19 15  1  0  0  0
 15 16  1  0  0  0
 16 17  2  0  0  0
 16  1  1  0  0  0
  1 28  1  0  0  0
 28 29  1  0  0  0
 29 30  1  0  0  0
 29 31  1  0  0  0
  1  2  1  0  0  0
  2  3  1  0  0  0
  3  4  2  0  0  0
  3  5  1  0  0  0
  5  8  1  0  0  0
  8  9  2  0  0  0
  9 10  1  0  0  0
 10 11  2  0  0  0
 11 12  1  0  0  0
 11 13  1  0  0  0
 13 14  2  0  0  0
 19 20  1  0  0  0
 20 21  1  0  0  0
 20 22  2  0  0  0
 14  8  1  0  0  0
 15 18  1  0  0  0
  2  6  1  0  0  0
  5  7  1  0  0  0
 21 23  1  0  0  0
 21 24  1  0  0  0
M  END
> <minimizedAffinity>
-7.19095

> <CNNscore>
0.4764105678

> <CNNaffinity>
6.0009164810

> <CNN_VS>
2.8589000702

> <CNNaffinity_variance>
0.0581042394

$$$$
[H]c1c([H])c(N([H])C(=O)N([H])[C@]([H])(C(=O)N([H])[C@]([H])(C(=O)N([H])[H])C([H])([H])C([H])([H])C([H])([H])[H])C([H])([H])C([H])(C([H])([H])[H])C([H])([H])[H])c([H])c([H])c1Br


 31 31  0  0  0  0  0  0  0  0999 V2000
  152.9118  138.9182  183.0498 C   0  0  0  0  0  0  0  0  0  0  0  0
  154.1827  139.2428  182.4133 N   0  0  0  0  0  0  0  0  0  0  0  0
  155.1220  140.0441  183.1031 C   0  0  0  0  0  0  0  0  0  0  0  0
  154.8605  140.4799  184.2717 O   0  0  0  0  0  0  0  0  0  0  0  0
  156.3472  140.3689  182.5152 N   0  0  0  0  0  0  0  0  0  0  0  0
  154.3800  138.8902  181.4816 H   0  0  0  0  0  0  0  0  0  0  0  0
  156.4857  139.9690  181.5294 H   0  0  0  0  0  0  0  0  0  0  0  0
  157.4042  141.1378  183.0509 C   0  0  0  0  0  0  0  0  0  0  0  0
  157.8216  142.3582  182.5952 C   0  0  0  0  0  0  0  0  0  0  0  0
  158.9015  143.0454  183.1791 C   0  0  0  0  0  0  0  0  0  0  0  0
  159.5905  142.5185  184.2418 C   0  0  0  0  0  0  0  0  0  0  0  0
  161.0581  143.4538  185.0341 Br  0  0  0  0  0  0  0  0  0  0  0  0
  159.1830  141.2958  184.7098 C   0  0  0  0  0  0  0  0  0  0  0  0
  158.1290  140.6241  184.1401 C   0  0  0  0  0  0  0  0  0  0  0  0
  153.2664  138.2374  185.4367 N   0  0  0  0  0  0  0  0  0  0  0  0
  153.1925  137.8856  184.0473 C   0  0  0  0  0  0  0  0  0  0  0  0
  153.3823  136.6752  183.6922 O   0  0  0  0  0  0  0  0  0  0  0  0
  153.0961  139.2297  185.6904 H   0  0  0  0  0  0  0  0  0  0  0  0
  153.5674  137.2459  186.4452 C   0  0  0  0  0  0  0  0  0  0  0  0
  153.1639  137.7593  187.7767 C   0  0  0  0  0  0  0  0  0  0  0  0
  152.6492  136.8373  188.7512 N   0  0  0  0  0  0  0  0  0  0  0  0
  153.2399  138.9484  188.1163 O   0  0  0  0  0  0  0  0  0  0  0  0
  152.1843  135.9839  188.3996 H   0  0  0  0  0  0  0  0  0  0  0  0
  152.7348  137.0108  189.7800 H   0  0  0  0  0  0  0  0  0  0  0  0
  155.0359  136.9459  186.4669 C   0  0  0  0  0  0  0  0  0  0  0  0
  156.5012  136.5692  188.5060 C   0  0  0  0  0  0  0  0  0  0  0  0
  155.8532  137.5011  187.5549 C   0  0  0  0  0  0  0  0  0  0  0  0
  151.8507  138.6807  182.0577 C   0  0  0  0  0  0  0  0  0  0  0  0
  151.3803  139.7506  181.1767 C   0  0  0  0  0  0  0  0  0  0  0  0
  149.8485  139.5540  180.9555 C   0  0  0  0  0  0  0  0  0  0  0  0
  151.9272  139.7544  179.7766 C   0  0  0  0  0  0  0  0  0  0  0  0
 26 27  1  0  0  0
 27 25  1  0  0  0
 25 19  1  0  0  0
 19 15  1  0  0  0
 15 16  1  0  0  0
 16 17  2  0  0  0
 16  1  1  0  0  0
  1 28  1  0  0  0
 28 29  1  0  0  0
 29 30  1  0  0  0
 29 31  1  0  0  0
  1  2  1  0  0  0
  2  3  1  0  0  0
  3  4  2  0  0  0
  3  5  1  0  0  0
  5  8  1  0  0  0
  8  9  2  0  0  0
  9 10  1  0  0  0
 10 11  2  0  0  0
 11 12  1  0  0  0
 11 13  1  0  0  0
 13 14  2  0  0  0
 19 20  1  0  0  0
 20 21  1  0  0  0
 20 22  2  0  0  0
 14  8  1  0  0  0
 15 18  1  0  0  0
  2  6  1  0  0  0
  5  7  1  0  0  0
 21 23  1  0  0  0
 21 24  1  0  0  0
M  END
> <minimizedAffinity>
-5.89820

> <CNNscore>
0.4275276661

> <CNNaffinity>
5.8682374954

> <CNN_VS>
2.5088338852

> <CNNaffinity_variance>
0.4900884628

$$$$
[H]c1c([H])c(N([H])C(=O)N([H])[C@]([H])(C(=O)N([H])[C@]([H])(C(=O)N([H])[H])C([H])([H])C([H])([H])C([H])([H])[H])C([H])([H])C([H])(C([H])([H])[H])C([H])([H])[H])c([H])c([H])c1Br


 31 31  0  0  0  0  0  0  0  0999 V2000
  154.4481  137.6694  186.5043 C   0  0  0  0  0  0  0  0  0  0  0  0
  155.7591  138.2666  186.2793 N   0  0  0  0  0  0  0  0  0  0  0  0
  155.9753  139.0569  185.1266 C   0  0  0  0  0  0  0  0  0  0  0  0
  155.0326  139.2460  184.2902 O   0  0  0  0  0  0  0  0  0  0  0  0
  157.2222  139.6405  184.8883 N   0  0  0  0  0  0  0  0  0  0  0  0
  156.5029  138.1087  186.9525 H   0  0  0  0  0  0  0  0  0  0  0  0
  157.9618  139.4270  185.6356 H   0  0  0  0  0  0  0  0  0  0  0  0
  157.6174  140.4635  183.8103 C   0  0  0  0  0  0  0  0  0  0  0  0
  157.4350  141.8163  183.7228 C   0  0  0  0  0  0  0  0  0  0  0  0
  157.8434  142.5550  182.5973 C   0  0  0  0  0  0  0  0  0  0  0  0
  158.4491  141.9469  181.5273 C   0  0  0  0  0  0  0  0  0  0  0  0
  159.0035  142.9524  179.9982 Br  0  0  0  0  0  0  0  0  0  0  0  0
  158.6391  140.5910  181.6010 C   0  0  0  0  0  0  0  0  0  0  0  0
  158.2404  139.8690  182.6993 C   0  0  0  0  0  0  0  0  0  0  0  0
  154.5871  137.3784  188.9908 N   0  0  0  0  0  0  0  0  0  0  0  0
  154.0352  138.0571  187.8531 C   0  0  0  0  0  0  0  0  0  0  0  0
  153.1803  138.9876  188.0274 O   0  0  0  0  0  0  0  0  0  0  0  0
  155.2881  136.6335  188.8119 H   0  0  0  0  0  0  0  0  0  0  0  0
  154.1811  137.7195  190.3359 C   0  0  0  0  0  0  0  0  0  0  0  0
  155.2375  138.5400  190.9762 C   0  0  0  0  0  0  0  0  0  0  0  0
  156.6131  138.1636  190.8008 N   0  0  0  0  0  0  0  0  0  0  0  0
  155.0158  139.5459  191.6648 O   0  0  0  0  0  0  0  0  0  0  0  0
  156.8144  137.1652  190.6257 H   0  0  0  0  0  0  0  0  0  0  0  0
  157.3908  138.8629  190.8462 H   0  0  0  0  0  0  0  0  0  0  0  0
  153.9695  136.4803  191.1524 C   0  0  0  0  0  0  0  0  0  0  0  0
  152.2395  137.2152  192.8593 C   0  0  0  0  0  0  0  0  0  0  0  0
  152.6651  136.2749  191.7975 C   0  0  0  0  0  0  0  0  0  0  0  0
  154.4279  136.2448  186.1349 C   0  0  0  0  0  0  0  0  0  0  0  0
  153.4521  135.7212  185.1779 C   0  0  0  0  0  0  0  0  0  0  0  0
  154.1764  135.5244  183.8102 C   0  0  0  0  0  0  0  0  0  0  0  0
  152.3054  136.6276  184.8270 C   0  0  0  0  0  0  0  0  0  0  0  0
 26 27  1  0  0  0
 27 25  1  0  0  0
 25 19  1  0  0  0
 19 15  1  0  0  0
 15 16  1  0  0  0
 16 17  2  0  0  0
 16  1  1  0  0  0
  1 28  1  0  0  0
 28 29  1  0  0  0
 29 30  1  0  0  0
 29 31  1  0  0  0
  1  2  1  0  0  0
  2  3  1  0  0  0
  3  4  2  0  0  0
  3  5  1  0  0  0
  5  8  1  0  0  0
  8  9  2  0  0  0
  9 10  1  0  0  0
 10 11  2  0  0  0
 11 12  1  0  0  0
 11 13  1  0  0  0
 13 14  2  0  0  0
 19 20  1  0  0  0
 20 21  1  0  0  0
 20 22  2  0  0  0
 14  8  1  0  0  0
 15 18  1  0  0  0
  2  6  1  0  0  0
  5  7  1  0  0  0
 21 23  1  0  0  0
 21 24  1  0  0  0
M  END
> <minimizedAffinity>
-6.16924

> <CNNscore>
0.4006337523

> <CNNaffinity>
5.4899687767

> <CNN_VS>
2.1994667053

> <CNNaffinity_variance>
0.2573043406

$$$$
[H]c1c([H])c(N([H])C(=O)N([H])[C@]([H])(C(=O)N([H])[C@]([H])(C(=O)N([H])[H])C([H])([H])C([H])([H])C([H])([H])[H])C([H])([H])C([H])(C([H])([H])[H])C([H])([H])[H])c([H])c([H])c1Br


 31 31  0  0  0  0  0  0  0  0999 V2000
  155.1077  141.9980  182.8064 C   0  0  0  0  0  0  0  0  0  0  0  0
  154.7586  141.0685  181.7387 N   0  0  0  0  0  0  0  0  0  0  0  0
  153.4154  140.6513  181.5906 C   0  0  0  0  0  0  0  0  0  0  0  0
  152.5164  141.0834  182.3838 O   0  0  0  0  0  0  0  0  0  0  0  0
  153.0550  139.7617  180.5753 N   0  0  0  0  0  0  0  0  0  0  0  0
  155.4835  140.7305  181.1128 H   0  0  0  0  0  0  0  0  0  0  0  0
  153.8708  139.4411  179.9566 H   0  0  0  0  0  0  0  0  0  0  0  0
  151.7753  139.2487  180.2675 C   0  0  0  0  0  0  0  0  0  0  0  0
  151.1748  138.1748  180.8650 C   0  0  0  0  0  0  0  0  0  0  0  0
  149.9012  137.7190  180.4783 C   0  0  0  0  0  0  0  0  0  0  0  0
  149.1972  138.3368  179.4762 C   0  0  0  0  0  0  0  0  0  0  0  0
  147.4664  137.7159  178.9518 Br  0  0  0  0  0  0  0  0  0  0  0  0
  149.7865  139.4153  178.8682 C   0  0  0  0  0  0  0  0  0  0  0  0
  151.0300  139.8608  179.2449 C   0  0  0  0  0  0  0  0  0  0  0  0
  157.2887  142.6136  181.7337 N   0  0  0  0  0  0  0  0  0  0  0  0
  155.9944  143.0014  182.2174 C   0  0  0  0  0  0  0  0  0  0  0  0
  155.6313  144.2217  182.1387 O   0  0  0  0  0  0  0  0  0  0  0  0
  157.5466  141.6102  181.8040 H   0  0  0  0  0  0  0  0  0  0  0  0
  158.1992  143.5848  181.1696 C   0  0  0  0  0  0  0  0  0  0  0  0
  158.7991  143.0358  179.9295 C   0  0  0  0  0  0  0  0  0  0  0  0
  158.2851  141.8057  179.3934 N   0  0  0  0  0  0  0  0  0  0  0  0
  159.7292  143.5710  179.3103 O   0  0  0  0  0  0  0  0  0  0  0  0
  157.8507  141.1425  180.0564 H   0  0  0  0  0  0  0  0  0  0  0  0
  158.3417  141.5774  178.3733 H   0  0  0  0  0  0  0  0  0  0  0  0
  159.2976  143.9020  182.1391 C   0  0  0  0  0  0  0  0  0  0  0  0
  160.2006  141.9521  183.4915 C   0  0  0  0  0  0  0  0  0  0  0  0
  159.3531  143.1635  183.4085 C   0  0  0  0  0  0  0  0  0  0  0  0
  155.5397  141.2919  184.0236 C   0  0  0  0  0  0  0  0  0  0  0  0
  156.1700  139.9729  183.9542 C   0  0  0  0  0  0  0  0  0  0  0  0
  155.2218  138.9486  184.6512 C   0  0  0  0  0  0  0  0  0  0  0  0
  157.4605  139.8068  184.7068 C   0  0  0  0  0  0  0  0  0  0  0  0
 26 27  1  0  0  0
 27 25  1  0  0  0
 25 19  1  0  0  0
 19 15  1  0  0  0
 15 16  1  0  0  0
 16 17  2  0  0  0
 16  1  1  0  0  0
  1 28  1  0  0  0
 28 29  1  0  0  0
 29 30  1  0  0  0
 29 31  1  0  0  0
  1  2  1  0  0  0
  2  3  1  0  0  0
  3  4  2  0  0  0
  3  5  1  0  0  0
  5  8  1  0  0  0
  8  9  2  0  0  0
  9 10  1  0  0  0
 10 11  2  0  0  0
 11 12  1  0  0  0
 11 13  1  0  0  0
 13 14  2  0  0  0
 19 20  1  0  0  0
 20 21  1  0  0  0
 20 22  2  0  0  0
 14  8  1  0  0  0
 15 18  1  0  0  0
  2  6  1  0  0  0
  5  7  1  0  0  0
 21 23  1  0  0  0
 21 24  1  0  0  0
M  END
> <minimizedAffinity>
-7.13553

> <CNNscore>
0.3992148042

> <CNNaffinity>
5.6695709229

> <CNN_VS>
2.2633767128

> <CNNaffinity_variance>
0.4214591980

$$$$
[H]c1c([H])c(N([H])C(=O)N([H])[C@]([H])(C(=O)N([H])[C@]([H])(C(=O)N([H])[H])C([H])([H])C([H])([H])C([H])([H])[H])C([H])([H])C([H])(C([H])([H])[H])C([H])([H])[H])c([H])c([H])c1Br


 31 31  0  0  0  0  0  0  0  0999 V2000
  155.6855  140.2670  183.9733 C   0  0  0  0  0  0  0  0  0  0  0  0
  155.0569  140.4180  182.6664 N   0  0  0  0  0  0  0  0  0  0  0  0
  153.7389  139.9445  182.4691 C   0  0  0  0  0  0  0  0  0  0  0  0
  153.1048  139.3898  183.4252 O   0  0  0  0  0  0  0  0  0  0  0  0
  153.1142  140.0777  181.2265 N   0  0  0  0  0  0  0  0  0  0  0  0
  155.5720  140.8614  181.9117 H   0  0  0  0  0  0  0  0  0  0  0  0
  153.7178  140.5485  180.4749 H   0  0  0  0  0  0  0  0  0  0  0  0
  151.8117  139.6816  180.8490 C   0  0  0  0  0  0  0  0  0  0  0  0
  150.8242  139.2561  181.6945 C   0  0  0  0  0  0  0  0  0  0  0  0
  149.5582  138.8595  181.2264 C   0  0  0  0  0  0  0  0  0  0  0  0
  149.2536  138.8822  179.8892 C   0  0  0  0  0  0  0  0  0  0  0  0
  147.5324  138.3425  179.2546 Br  0  0  0  0  0  0  0  0  0  0  0  0
  150.2338  139.3069  179.0295 C   0  0  0  0  0  0  0  0  0  0  0  0
  151.4702  139.6941  179.4856 C   0  0  0  0  0  0  0  0  0  0  0  0
  157.1841  142.0130  182.9772 N   0  0  0  0  0  0  0  0  0  0  0  0
  156.9903  140.9233  183.8908 C   0  0  0  0  0  0  0  0  0  0  0  0
  157.9617  140.5290  184.6173 O   0  0  0  0  0  0  0  0  0  0  0  0
  156.3686  142.3142  182.4094 H   0  0  0  0  0  0  0  0  0  0  0  0
  158.4679  142.6663  182.8526 C   0  0  0  0  0  0  0  0  0  0  0  0
  158.2619  144.1092  182.5790 C   0  0  0  0  0  0  0  0  0  0  0  0
  159.3840  145.0021  182.6710 N   0  0  0  0  0  0  0  0  0  0  0  0
  157.1715  144.6104  182.2711 O   0  0  0  0  0  0  0  0  0  0  0  0
  160.1541  144.7343  183.3060 H   0  0  0  0  0  0  0  0  0  0  0  0
  159.4325  145.8921  182.1220 H   0  0  0  0  0  0  0  0  0  0  0  0
  159.2561  142.0681  181.7266 C   0  0  0  0  0  0  0  0  0  0  0  0
  158.0766  141.9747  179.4801 C   0  0  0  0  0  0  0  0  0  0  0  0
  159.0737  142.6091  180.3724 C   0  0  0  0  0  0  0  0  0  0  0  0
  155.6159  138.8775  184.4539 C   0  0  0  0  0  0  0  0  0  0  0  0
  155.0457  138.5531  185.7622 C   0  0  0  0  0  0  0  0  0  0  0  0
  156.2243  138.3405  186.7621 C   0  0  0  0  0  0  0  0  0  0  0  0
  154.2824  137.2617  185.8586 C   0  0  0  0  0  0  0  0  0  0  0  0
 26 27  1  0  0  0
 27 25  1  0  0  0
 25 19  1  0  0  0
 19 15  1  0  0  0
 15 16  1  0  0  0
 16 17  2  0  0  0
 16  1  1  0  0  0
  1 28  1  0  0  0
 28 29  1  0  0  0
 29 30  1  0  0  0
 29 31  1  0  0  0
  1  2  1  0  0  0
  2  3  1  0  0  0
  3  4  2  0  0  0
  3  5  1  0  0  0
  5  8  1  0  0  0
  8  9  2  0  0  0
  9 10  1  0  0  0
 10 11  2  0  0  0
 11 12  1  0  0  0
 11 13  1  0  0  0
 13 14  2  0  0  0
 19 20  1  0  0  0
 20 21  1  0  0  0
 20 22  2  0  0  0
 14  8  1  0  0  0
 15 18  1  0  0  0
  2  6  1  0  0  0
  5  7  1  0  0  0
 21 23  1  0  0  0
 21 24  1  0  0  0
M  END
> <minimizedAffinity>
-7.17764

> <CNNscore>
0.3883081079

> <CNNaffinity>
6.0300531387

> <CNN_VS>
2.3415186405

> <CNNaffinity_variance>
0.0223234687

$$$$
[H]c1c([H])c(N([H])C(=O)N([H])[C@]([H])(C(=O)N([H])[C@]([H])(C(=O)N([H])[H])C([H])([H])C([H])([H])C([H])([H])[H])C([H])([H])C([H])(C([H])([H])[H])C([H])([H])[H])c([H])c([H])c1Br


 31 31  0  0  0  0  0  0  0  0999 V2000
  154.7158  137.7681  186.4398 C   0  0  0  0  0  0  0  0  0  0  0  0
  155.9955  138.4219  186.1935 N   0  0  0  0  0  0  0  0  0  0  0  0
  156.1878  139.1456  184.9937 C   0  0  0  0  0  0  0  0  0  0  0  0
  155.2508  139.2259  184.1337 O   0  0  0  0  0  0  0  0  0  0  0  0
  157.4045  139.7814  184.7341 N   0  0  0  0  0  0  0  0  0  0  0  0
  156.7351  138.3508  186.8858 H   0  0  0  0  0  0  0  0  0  0  0  0
  158.1416  139.6595  185.5041 H   0  0  0  0  0  0  0  0  0  0  0  0
  157.7725  140.5526  183.6092 C   0  0  0  0  0  0  0  0  0  0  0  0
  157.9558  140.0828  182.3377 C   0  0  0  0  0  0  0  0  0  0  0  0
  158.3444  140.9233  181.2784 C   0  0  0  0  0  0  0  0  0  0  0  0
  158.5583  142.2639  181.4742 C   0  0  0  0  0  0  0  0  0  0  0  0
  159.0866  143.4048  180.0334 Br  0  0  0  0  0  0  0  0  0  0  0  0
  158.3778  142.7494  182.7438 C   0  0  0  0  0  0  0  0  0  0  0  0
  157.9987  141.9295  183.7786 C   0  0  0  0  0  0  0  0  0  0  0  0
  153.8075  137.4766  188.7585 N   0  0  0  0  0  0  0  0  0  0  0  0
  154.8005  137.1655  187.7702 C   0  0  0  0  0  0  0  0  0  0  0  0
  155.7557  136.3728  188.0635 O   0  0  0  0  0  0  0  0  0  0  0  0
  153.0387  138.1171  188.4816 H   0  0  0  0  0  0  0  0  0  0  0  0
  153.8764  136.9185  190.0906 C   0  0  0  0  0  0  0  0  0  0  0  0
  152.5034  136.6599  190.5879 C   0  0  0  0  0  0  0  0  0  0  0  0
  152.2154  136.8741  191.9793 N   0  0  0  0  0  0  0  0  0  0  0  0
  151.5687  136.2648  189.8772 O   0  0  0  0  0  0  0  0  0  0  0  0
  152.9985  136.7801  192.6471 H   0  0  0  0  0  0  0  0  0  0  0  0
  151.2547  137.1165  192.3171 H   0  0  0  0  0  0  0  0  0  0  0  0
  154.5585  137.8708  191.0259 C   0  0  0  0  0  0  0  0  0  0  0  0
  156.4833  136.3262  191.6222 C   0  0  0  0  0  0  0  0  0  0  0  0
  155.9900  137.6851  191.3015 C   0  0  0  0  0  0  0  0  0  0  0  0
  154.3050  136.9289  185.3024 C   0  0  0  0  0  0  0  0  0  0  0  0
  152.8920  136.6978  184.9992 C   0  0  0  0  0  0  0  0  0  0  0  0
  152.5786  137.3659  183.6246 C   0  0  0  0  0  0  0  0  0  0  0  0
  151.8950  137.3398  185.9231 C   0  0  0  0  0  0  0  0  0  0  0  0
 26 27  1  0  0  0
 27 25  1  0  0  0
 25 19  1  0  0  0
 19 15  1  0  0  0
 15 16  1  0  0  0
 16 17  2  0  0  0
 16  1  1  0  0  0
  1 28  1  0  0  0
 28 29  1  0  0  0
 29 30  1  0  0  0
 29 31  1  0  0  0
  1  2  1  0  0  0
  2  3  1  0  0  0
  3  4  2  0  0  0
  3  5  1  0  0  0
  5  8  1  0  0  0
  8  9  2  0  0  0
  9 10  1  0  0  0
 10 11  2  0  0  0
 11 12  1  0  0  0
 11 13  1  0  0  0
 13 14  2  0  0  0
 19 20  1  0  0  0
 20 21  1  0  0  0
 20 22  2  0  0  0
 14  8  1  0  0  0
 15 18  1  0  0  0
  2  6  1  0  0  0
  5  7  1  0  0  0
 21 23  1  0  0  0
 21 24  1  0  0  0
M  END
> <minimizedAffinity>
-5.94961

> <CNNscore>
0.3732362390

> <CNNaffinity>
5.4878726006

> <CNN_VS>
2.0482728481

> <CNNaffinity_variance>
0.1857940406

$$$$
[H]c1c([H])c(N([H])C(=O)N([H])[C@]([H])(C(=O)N([H])[C@]([H])(C(=O)N([H])[H])C([H])([H])C([H])([H])C([H])([H])[H])C([H])([H])C([H])(C([H])([H])[H])C([H])([H])[H])c([H])c([H])c1Br


 31 31  0  0  0  0  0  0  0  0999 V2000
  155.8644  141.8627  183.2333 C   0  0  0  0  0  0  0  0  0  0  0  0
  155.3271  140.7945  182.3989 N   0  0  0  0  0  0  0  0  0  0  0  0
  153.9362  140.7392  182.1489 C   0  0  0  0  0  0  0  0  0  0  0  0
  153.1575  141.6155  182.6488 O   0  0  0  0  0  0  0  0  0  0  0  0
  153.3967  139.7261  181.3524 N   0  0  0  0  0  0  0  0  0  0  0  0
  155.9573  140.1015  182.0063 H   0  0  0  0  0  0  0  0  0  0  0  0
  154.1177  139.0260  180.9768 H   0  0  0  0  0  0  0  0  0  0  0  0
  152.0485  139.5188  180.9851 C   0  0  0  0  0  0  0  0  0  0  0  0
  151.4883  139.8269  179.7758 C   0  0  0  0  0  0  0  0  0  0  0  0
  150.1261  139.6041  179.5039 C   0  0  0  0  0  0  0  0  0  0  0  0
  149.2905  139.0625  180.4472 C   0  0  0  0  0  0  0  0  0  0  0  0
  147.4391  138.7605  180.0760 Br  0  0  0  0  0  0  0  0  0  0  0  0
  149.8381  138.7481  181.6643 C   0  0  0  0  0  0  0  0  0  0  0  0
  151.1679  138.9655  181.9307 C   0  0  0  0  0  0  0  0  0  0  0  0
  157.6521  142.8120  181.7537 N   0  0  0  0  0  0  0  0  0  0  0  0
  156.3393  142.9070  182.3256 C   0  0  0  0  0  0  0  0  0  0  0  0
  155.6000  143.9080  182.0451 O   0  0  0  0  0  0  0  0  0  0  0  0
  158.2219  141.9785  181.9956 H   0  0  0  0  0  0  0  0  0  0  0  0
  158.1615  143.8398  180.8735 C   0  0  0  0  0  0  0  0  0  0  0  0
  158.8974  143.2076  179.7519 C   0  0  0  0  0  0  0  0  0  0  0  0
  158.4162  141.9636  179.2173 N   0  0  0  0  0  0  0  0  0  0  0  0
  159.9166  143.6832  179.2324 O   0  0  0  0  0  0  0  0  0  0  0  0
  157.8785  141.3497  179.8513 H   0  0  0  0  0  0  0  0  0  0  0  0
  158.5960  141.6779  178.2264 H   0  0  0  0  0  0  0  0  0  0  0  0
  159.0951  144.7506  181.6124 C   0  0  0  0  0  0  0  0  0  0  0  0
  160.4137  145.2924  183.7134 C   0  0  0  0  0  0  0  0  0  0  0  0
  159.4738  144.4059  182.9899 C   0  0  0  0  0  0  0  0  0  0  0  0
  156.7797  141.3423  184.2619 C   0  0  0  0  0  0  0  0  0  0  0  0
  157.2869  139.9706  184.2047 C   0  0  0  0  0  0  0  0  0  0  0  0
  156.7683  139.2122  185.4657 C   0  0  0  0  0  0  0  0  0  0  0  0
  158.7778  139.8033  184.2979 C   0  0  0  0  0  0  0  0  0  0  0  0
 26 27  1  0  0  0
 27 25  1  0  0  0
 25 19  1  0  0  0
 19 15  1  0  0  0
 15 16  1  0  0  0
 16 17  2  0  0  0
 16  1  1  0  0  0
  1 28  1  0  0  0
 28 29  1  0  0  0
 29 30  1  0  0  0
 29 31  1  0  0  0
  1  2  1  0  0  0
  2  3  1  0  0  0
  3  4  2  0  0  0
  3  5  1  0  0  0
  5  8  1  0  0  0
  8  9  2  0  0  0
  9 10  1  0  0  0
 10 11  2  0  0  0
 11 12  1  0  0  0
 11 13  1  0  0  0
 13 14  2  0  0  0
 19 20  1  0  0  0
 20 21  1  0  0  0
 20 22  2  0  0  0
 14  8  1  0  0  0
 15 18  1  0  0  0
  2  6  1  0  0  0
  5  7  1  0  0  0
 21 23  1  0  0  0
 21 24  1  0  0  0
M  END
> <minimizedAffinity>
-7.66413

> <CNNscore>
0.3630777895

> <CNNaffinity>
5.6547927856

> <CNN_VS>
2.0531296730

> <CNNaffinity_variance>
0.4543724954

$$$$
[H]c1c([H])c(N([H])C(=O)N([H])[C@]([H])(C(=O)N([H])[C@]([H])(C(=O)N([H])[H])C([H])([H])C([H])([H])C([H])([H])[H])C([H])([H])C([H])(C([H])([H])[H])C([H])([H])[H])c([H])c([H])c1Br


 31 31  0  0  0  0  0  0  0  0999 V2000
  153.4295  139.6891  183.2569 C   0  0  0  0  0  0  0  0  0  0  0  0
  154.3801  138.7377  183.8201 N   0  0  0  0  0  0  0  0  0  0  0  0
  154.3678  138.4821  185.2110 C   0  0  0  0  0  0  0  0  0  0  0  0
  153.5331  139.0783  185.9673 O   0  0  0  0  0  0  0  0  0  0  0  0
  155.2679  137.5746  185.7751 N   0  0  0  0  0  0  0  0  0  0  0  0
  155.0409  138.2688  183.2078 H   0  0  0  0  0  0  0  0  0  0  0  0
  155.9402  137.1219  185.0722 H   0  0  0  0  0  0  0  0  0  0  0  0
  155.3944  137.1852  187.1272 C   0  0  0  0  0  0  0  0  0  0  0  0
  154.8832  136.0465  187.6869 C   0  0  0  0  0  0  0  0  0  0  0  0
  155.0405  135.7486  189.0528 C   0  0  0  0  0  0  0  0  0  0  0  0
  155.7203  136.5936  189.8927 C   0  0  0  0  0  0  0  0  0  0  0  0
  155.9330  136.1873  191.7491 Br  0  0  0  0  0  0  0  0  0  0  0  0
  156.2388  137.7390  189.3456 C   0  0  0  0  0  0  0  0  0  0  0  0
  156.0854  138.0308  188.0121 C   0  0  0  0  0  0  0  0  0  0  0  0
  151.3966  139.5751  181.7939 N   0  0  0  0  0  0  0  0  0  0  0  0
  152.5046  138.9179  182.4263 C   0  0  0  0  0  0  0  0  0  0  0  0
  152.6682  137.6630  182.2668 O   0  0  0  0  0  0  0  0  0  0  0  0
  151.3004  140.5990  181.9369 H   0  0  0  0  0  0  0  0  0  0  0  0
  150.4494  138.8376  180.9878 C   0  0  0  0  0  0  0  0  0  0  0  0
  150.5341  139.3003  179.5814 C   0  0  0  0  0  0  0  0  0  0  0  0
  149.5002  138.9179  178.6596 N   0  0  0  0  0  0  0  0  0  0  0  0
  151.4492  140.0061  179.1349 O   0  0  0  0  0  0  0  0  0  0  0  0
  148.9949  138.0368  178.8504 H   0  0  0  0  0  0  0  0  0  0  0  0
  149.2579  139.4996  177.8236 H   0  0  0  0  0  0  0  0  0  0  0  0
  149.0524  139.0553  181.4856 C   0  0  0  0  0  0  0  0  0  0  0  0
  149.2240  136.8234  182.6837 C   0  0  0  0  0  0  0  0  0  0  0  0
  148.4640  138.0607  182.3936 C   0  0  0  0  0  0  0  0  0  0  0  0
  154.1091  140.8562  182.6715 C   0  0  0  0  0  0  0  0  0  0  0  0
  154.4790  142.0109  183.4911 C   0  0  0  0  0  0  0  0  0  0  0  0
  154.0445  143.3014  182.7296 C   0  0  0  0  0  0  0  0  0  0  0  0
  155.9491  142.2290  183.7163 C   0  0  0  0  0  0  0  0  0  0  0  0
 26 27  1  0  0  0
 27 25  1  0  0  0
 25 19  1  0  0  0
 19 15  1  0  0  0
 15 16  1  0  0  0
 16 17  2  0  0  0
 16  1  1  0  0  0
  1 28  1  0  0  0
 28 29  1  0  0  0
 29 30  1  0  0  0
 29 31  1  0  0  0
  1  2  1  0  0  0
  2  3  1  0  0  0
  3  4  2  0  0  0
  3  5  1  0  0  0
  5  8  1  0  0  0
  8  9  2  0  0  0
  9 10  1  0  0  0
 10 11  2  0  0  0
 11 12  1  0  0  0
 11 13  1  0  0  0
 13 14  2  0  0  0
 19 20  1  0  0  0
 20 21  1  0  0  0
 20 22  2  0  0  0
 14  8  1  0  0  0
 15 18  1  0  0  0
  2  6  1  0  0  0
  5  7  1  0  0  0
 21 23  1  0  0  0
 21 24  1  0  0  0
M  END
> <minimizedAffinity>
-5.70872

> <CNNscore>
0.3628828824

> <CNNaffinity>
5.3252115250

> <CNN_VS>
1.9324281216

> <CNNaffinity_variance>
0.1474618167

$$$$
[H]c1c([H])c(N([H])C(=O)N([H])[C@]([H])(C(=O)N([H])[C@]([H])(C(=O)N([H])[H])C([H])([H])C([H])([H])C([H])([H])[H])C([H])([H])C([H])(C([H])([H])[H])C([H])([H])[H])c([H])c([H])c1Br


 31 31  0  0  0  0  0  0  0  0999 V2000
  150.5818  136.5997  183.0787 C   0  0  0  0  0  0  0  0  0  0  0  0
  150.3893  136.9306  184.4856 N   0  0  0  0  0  0  0  0  0  0  0  0
  151.5045  136.9493  185.3552 C   0  0  0  0  0  0  0  0  0  0  0  0
  152.6690  136.6790  184.9137 O   0  0  0  0  0  0  0  0  0  0  0  0
  151.3466  137.2637  186.7073 N   0  0  0  0  0  0  0  0  0  0  0  0
  149.4566  137.1439  184.8263 H   0  0  0  0  0  0  0  0  0  0  0  0
  150.3353  137.4715  186.9990 H   0  0  0  0  0  0  0  0  0  0  0  0
  152.3348  137.3448  187.7135 C   0  0  0  0  0  0  0  0  0  0  0  0
  152.5297  136.4430  188.7233 C   0  0  0  0  0  0  0  0  0  0  0  0
  153.5294  136.6159  189.6981 C   0  0  0  0  0  0  0  0  0  0  0  0
  154.3618  137.7059  189.6795 C   0  0  0  0  0  0  0  0  0  0  0  0
  155.7198  137.9394  191.0052 Br  0  0  0  0  0  0  0  0  0  0  0  0
  154.1785  138.6184  188.6726 C   0  0  0  0  0  0  0  0  0  0  0  0
  153.2026  138.4506  187.7207 C   0  0  0  0  0  0  0  0  0  0  0  0
  150.2192  137.8173  180.9172 N   0  0  0  0  0  0  0  0  0  0  0  0
  149.9021  137.6389  182.3054 C   0  0  0  0  0  0  0  0  0  0  0  0
  149.0359  138.3958  182.8568 O   0  0  0  0  0  0  0  0  0  0  0  0
  150.9210  137.1766  180.4989 H   0  0  0  0  0  0  0  0  0  0  0  0
  149.5846  138.8517  180.1310 C   0  0  0  0  0  0  0  0  0  0  0  0
  148.8599  138.2324  178.9951 C   0  0  0  0  0  0  0  0  0  0  0  0
  148.0997  137.0348  179.2245 N   0  0  0  0  0  0  0  0  0  0  0  0
  148.8624  138.6812  177.8403 O   0  0  0  0  0  0  0  0  0  0  0  0
  148.4013  136.4211  179.9994 H   0  0  0  0  0  0  0  0  0  0  0  0
  147.2706  136.7817  178.6375 H   0  0  0  0  0  0  0  0  0  0  0  0
  150.6077  139.8047  179.5905 C   0  0  0  0  0  0  0  0  0  0  0  0
  152.6222  140.3317  181.0433 C   0  0  0  0  0  0  0  0  0  0  0  0
  152.0229  139.5800  179.9170 C   0  0  0  0  0  0  0  0  0  0  0  0
  150.2697  135.1878  182.8036 C   0  0  0  0  0  0  0  0  0  0  0  0
  151.2985  134.2596  182.3323 C   0  0  0  0  0  0  0  0  0  0  0  0
  151.9414  133.5789  183.5802 C   0  0  0  0  0  0  0  0  0  0  0  0
  152.4807  134.8693  181.6320 C   0  0  0  0  0  0  0  0  0  0  0  0
 26 27  1  0  0  0
 27 25  1  0  0  0
 25 19  1  0  0  0
 19 15  1  0  0  0
 15 16  1  0  0  0
 16 17  2  0  0  0
 16  1  1  0  0  0
  1 28  1  0  0  0
 28 29  1  0  0  0
 29 30  1  0  0  0
 29 31  1  0  0  0
  1  2  1  0  0  0
  2  3  1  0  0  0
  3  4  2  0  0  0
  3  5  1  0  0  0
  5  8  1  0  0  0
  8  9  2  0  0  0
  9 10  1  0  0  0
 10 11  2  0  0  0
 11 12  1  0  0  0
 11 13  1  0  0  0
 13 14  2  0  0  0
 19 20  1  0  0  0
 20 21  1  0  0  0
 20 22  2  0  0  0
 14  8  1  0  0  0
 15 18  1  0  0  0
  2  6  1  0  0  0
  5  7  1  0  0  0
 21 23  1  0  0  0
 21 24  1  0  0  0
M  END
> <minimizedAffinity>
-5.19865

> <CNNscore>
0.3600432575

> <CNNaffinity>
4.9054422379

> <CNN_VS>
1.7661714554

> <CNNaffinity_variance>
0.1881991178

$$$$
[H]OC(C([H])([H])[H])(C([H])([H])[H])C([H])([H])C(=O)N([H])C([H])([H])C([H])([H])c1c([H])c([H])c2nc([H])nc(N([H])c3c([H])c([H])c(Oc4c([H])c([H])c([H])c(C(F)(F)F)c4[H])c(Cl)c3[H])c2c1[H]


 42 45  0  0  0  0  0  0  0  0999 V2000
  157.2536  134.5075  189.3214 C   0  0  0  0  0  0  0  0  0  0  0  0
  157.3103  134.7458  190.6654 C   0  0  0  0  0  0  0  0  0  0  0  0
  156.6276  135.7845  191.2185 C   0  0  0  0  0  0  0  0  0  0  0  0
  155.8569  136.6376  190.4403 C   0  0  0  0  0  0  0  0  0  0  0  0
  155.2216  137.6533  191.0589 N   0  0  0  0  0  0  0  0  0  0  0  0
  154.4891  138.4983  190.3195 C   0  0  0  0  0  0  0  0  0  0  0  0
  154.4422  138.2726  189.0123 N   0  0  0  0  0  0  0  0  0  0  0  0
  155.0329  137.3031  188.3317 C   0  0  0  0  0  0  0  0  0  0  0  0
  155.8001  136.4044  189.0831 C   0  0  0  0  0  0  0  0  0  0  0  0
  156.4722  135.3697  188.5190 C   0  0  0  0  0  0  0  0  0  0  0  0
  154.9733  137.1959  186.9305 N   0  0  0  0  0  0  0  0  0  0  0  0
  154.6470  136.3232  186.4417 H   0  0  0  0  0  0  0  0  0  0  0  0
  155.3562  138.2513  186.0614 C   0  0  0  0  0  0  0  0  0  0  0  0
  156.5954  138.8093  186.0069 C   0  0  0  0  0  0  0  0  0  0  0  0
  156.9403  139.7704  185.0521 C   0  0  0  0  0  0  0  0  0  0  0  0
  155.9893  140.1926  184.1062 C   0  0  0  0  0  0  0  0  0  0  0  0
  154.7287  139.6432  184.1486 C   0  0  0  0  0  0  0  0  0  0  0  0
  153.4680  140.1425  183.0041 Cl  0  0  0  0  0  0  0  0  0  0  0  0
  154.4444  138.6990  185.1092 C   0  0  0  0  0  0  0  0  0  0  0  0
  156.3872  141.1120  183.2119 O   0  0  0  0  0  0  0  0  0  0  0  0
  157.3654  142.0258  183.0968 C   0  0  0  0  0  0  0  0  0  0  0  0
  157.2286  143.0310  182.1251 C   0  0  0  0  0  0  0  0  0  0  0  0
  158.2095  143.9724  181.9916 C   0  0  0  0  0  0  0  0  0  0  0  0
  159.3183  143.9247  182.8081 C   0  0  0  0  0  0  0  0  0  0  0  0
  159.4839  142.9524  183.7680 C   0  0  0  0  0  0  0  0  0  0  0  0
  158.5054  142.0060  183.9100 C   0  0  0  0  0  0  0  0  0  0  0  0
  160.7223  142.9600  184.5913 C   0  0  0  0  0  0  0  0  0  0  0  0
  161.1790  144.2836  184.7435 F   0  0  0  0  0  0  0  0  0  0  0  0
  160.3866  142.5244  185.8566 F   0  0  0  0  0  0  0  0  0  0  0  0
  161.6926  142.1489  184.0756 F   0  0  0  0  0  0  0  0  0  0  0  0
  158.0025  133.4467  188.6886 C   0  0  0  0  0  0  0  0  0  0  0  0
  158.0395  133.4383  187.1738 C   0  0  0  0  0  0  0  0  0  0  0  0
  158.4231  130.9366  186.0970 C   0  0  0  0  0  0  0  0  0  0  0  0
  159.3745  130.1610  186.3149 O   0  0  0  0  0  0  0  0  0  0  0  0
  158.2299  132.1867  186.6342 N   0  0  0  0  0  0  0  0  0  0  0  0
  159.3085  131.9948  187.4523 H   0  0  0  0  0  0  0  0  0  0  0  0
  157.3963  130.3974  185.1283 C   0  0  0  0  0  0  0  0  0  0  0  0
  158.8541  130.8865  183.2077 C   0  0  0  0  0  0  0  0  0  0  0  0
  157.4632  130.9279  183.7592 C   0  0  0  0  0  0  0  0  0  0  0  0
  156.7994  132.2844  183.5898 C   0  0  0  0  0  0  0  0  0  0  0  0
  156.6918  130.0148  182.9553 O   0  0  0  0  0  0  0  0  0  0  0  0
  155.9063  129.7713  183.5156 H   0  0  0  0  0  0  0  0  0  0  0  0
 38 39  1  0  0  0
 39 40  1  0  0  0
 39 41  1  0  0  0
 39 37  1  0  0  0
 37 33  1  0  0  0
 33 34  2  0  0  0
 33 35  1  0  0  0
 35 32  1  0  0  0
 32 31  1  0  0  0
 31  1  1  0  0  0
  1  2  2  0  0  0
  2  3  1  0  0  0
  3  4  2  0  0  0
  4  5  1  0  0  0
  5  6  2  0  0  0
  6  7  1  0  0  0
  7  8  2  0  0  0
  8 11  1  0  0  0
 11 13  1  0  0  0
 13 14  2  0  0  0
 14 15  1  0  0  0
 15 16  2  0  0  0
 16 20  1  0  0  0
 20 21  1  0  0  0
 21 22  2  0  0  0
 22 23  1  0  0  0
 23 24  2  0  0  0
 24 25  1  0  0  0
 25 27  1  0  0  0
 27 28  1  0  0  0
 27 29  1  0  0  0
 27 30  1  0  0  0
 25 26  2  0  0  0
 16 17  1  0  0  0
 17 18  1  0  0  0
 17 19  2  0  0  0
  8  9  1  0  0  0
  9 10  2  0  0  0
 10  1  1  0  0  0
  9  4  1  0  0  0
 19 13  1  0  0  0
 26 21  1  0  0  0
 41 42  1  0  0  0
 35 36  1  0  0  0
 11 12  1  0  0  0
M  END
> <minimizedAffinity>
-7.89539

> <CNNscore>
0.3124720752

> <CNNaffinity>
6.8727860451

> <CNN_VS>
2.1475536823

> <CNNaffinity_variance>
0.0666482300

$$$$
[H]OC(C([H])([H])[H])(C([H])([H])[H])C([H])([H])C(=O)N([H])C([H])([H])C([H])([H])c1c([H])c([H])c2nc([H])nc(N([H])c3c([H])c([H])c(Oc4c([H])c([H])c([H])c(C(F)(F)F)c4[H])c(Cl)c3[H])c2c1[H]


 42 45  0  0  0  0  0  0  0  0999 V2000
  155.4283  133.9794  189.0080 C   0  0  0  0  0  0  0  0  0  0  0  0
  156.0447  133.9504  190.2269 C   0  0  0  0  0  0  0  0  0  0  0  0
  156.1453  135.0763  190.9840 C   0  0  0  0  0  0  0  0  0  0  0  0
  155.6320  136.2892  190.5452 C   0  0  0  0  0  0  0  0  0  0  0  0
  155.7835  137.3639  191.3453 N   0  0  0  0  0  0  0  0  0  0  0  0
  155.3113  138.5472  190.9281 C   0  0  0  0  0  0  0  0  0  0  0  0
  154.7213  138.5773  189.7394 N   0  0  0  0  0  0  0  0  0  0  0  0
  154.5327  137.5727  188.8983 C   0  0  0  0  0  0  0  0  0  0  0  0
  155.0133  136.3250  189.3142 C   0  0  0  0  0  0  0  0  0  0  0  0
  154.9019  135.2089  188.5508 C   0  0  0  0  0  0  0  0  0  0  0  0
  153.9538  137.7290  187.6261 N   0  0  0  0  0  0  0  0  0  0  0  0
  152.9844  137.3894  187.3983 H   0  0  0  0  0  0  0  0  0  0  0  0
  154.6319  138.3486  186.5433 C   0  0  0  0  0  0  0  0  0  0  0  0
  155.9812  138.4857  186.4408 C   0  0  0  0  0  0  0  0  0  0  0  0
  156.5941  139.0064  185.2973 C   0  0  0  0  0  0  0  0  0  0  0  0
  155.8092  139.4117  184.2032 C   0  0  0  0  0  0  0  0  0  0  0  0
  154.4420  139.2854  184.2902 C   0  0  0  0  0  0  0  0  0  0  0  0
  153.3839  139.7971  182.9610 Cl  0  0  0  0  0  0  0  0  0  0  0  0
  153.8919  138.7642  185.4395 C   0  0  0  0  0  0  0  0  0  0  0  0
  156.4605  139.8954  183.1331 O   0  0  0  0  0  0  0  0  0  0  0  0
  157.4764  140.7397  182.8881 C   0  0  0  0  0  0  0  0  0  0  0  0
  157.5431  141.3554  181.6272 C   0  0  0  0  0  0  0  0  0  0  0  0
  158.5658  142.2197  181.3563 C   0  0  0  0  0  0  0  0  0  0  0  0
  159.5173  142.4759  182.3192 C   0  0  0  0  0  0  0  0  0  0  0  0
  159.4822  141.8879  183.5631 C   0  0  0  0  0  0  0  0  0  0  0  0
  158.4602  141.0219  183.8440 C   0  0  0  0  0  0  0  0  0  0  0  0
  160.5622  142.2015  184.5361 C   0  0  0  0  0  0  0  0  0  0  0  0
  160.7758  143.5932  184.5710 F   0  0  0  0  0  0  0  0  0  0  0  0
  160.1086  141.8535  185.7918 F   0  0  0  0  0  0  0  0  0  0  0  0
  161.7159  141.5218  184.2670 F   0  0  0  0  0  0  0  0  0  0  0  0
  155.3447  132.8186  188.1523 C   0  0  0  0  0  0  0  0  0  0  0  0
  156.3349  131.7007  188.4090 C   0  0  0  0  0  0  0  0  0  0  0  0
  157.8575  131.0562  186.2110 C   0  0  0  0  0  0  0  0  0  0  0  0
  157.8274  131.5987  185.0889 O   0  0  0  0  0  0  0  0  0  0  0  0
  157.0975  131.3770  187.3102 N   0  0  0  0  0  0  0  0  0  0  0  0
  156.5990  132.4603  186.6412 H   0  0  0  0  0  0  0  0  0  0  0  0
  158.8547  129.9265  186.3240 C   0  0  0  0  0  0  0  0  0  0  0  0
  161.2168  129.9364  185.6363 C   0  0  0  0  0  0  0  0  0  0  0  0
  160.2244  130.3123  186.6918 C   0  0  0  0  0  0  0  0  0  0  0  0
  160.6401  129.8619  188.0824 C   0  0  0  0  0  0  0  0  0  0  0  0
  160.2194  131.7521  186.7351 O   0  0  0  0  0  0  0  0  0  0  0  0
  159.3471  131.9992  187.1451 H   0  0  0  0  0  0  0  0  0  0  0  0
 38 39  1  0  0  0
 39 40  1  0  0  0
 39 41  1  0  0  0
 39 37  1  0  0  0
 37 33  1  0  0  0
 33 34  2  0  0  0
 33 35  1  0  0  0
 35 32  1  0  0  0
 32 31  1  0  0  0
 31  1  1  0  0  0
  1  2  2  0  0  0
  2  3  1  0  0  0
  3  4  2  0  0  0
  4  5  1  0  0  0
  5  6  2  0  0  0
  6  7  1  0  0  0
  7  8  2  0  0  0
  8 11  1  0  0  0
 11 13  1  0  0  0
 13 14  2  0  0  0
 14 15  1  0  0  0
 15 16  2  0  0  0
 16 20  1  0  0  0
 20 21  1  0  0  0
 21 22  2  0  0  0
 22 23  1  0  0  0
 23 24  2  0  0  0
 24 25  1  0  0  0
 25 27  1  0  0  0
 27 28  1  0  0  0
 27 29  1  0  0  0
 27 30  1  0  0  0
 25 26  2  0  0  0
 16 17  1  0  0  0
 17 18  1  0  0  0
 17 19  2  0  0  0
  8  9  1  0  0  0
  9 10  2  0  0  0
 10  1  1  0  0  0
  9  4  1  0  0  0
 19 13  1  0  0  0
 26 21  1  0  0  0
 41 42  1  0  0  0
 35 36  1  0  0  0
 11 12  1  0  0  0
M  END
> <minimizedAffinity>
-7.50069

> <CNNscore>
0.3121784627

> <CNNaffinity>
6.7009553909

> <CNN_VS>
2.0918939114

> <CNNaffinity_variance>
0.0674179792

$$$$
[H]OC(C([H])([H])[H])(C([H])([H])[H])C([H])([H])C(=O)N([H])C([H])([H])C([H])([H])c1c([H])c([H])c2nc([H])nc(N([H])c3c([H])c([H])c(Oc4c([H])c([H])c([H])c(C(F)(F)F)c4[H])c(Cl)c3[H])c2c1[H]


 42 45  0  0  0  0  0  0  0  0999 V2000
  154.4039  141.8283  183.1587 C   0  0  0  0  0  0  0  0  0  0  0  0
  153.5485  141.7239  182.0986 C   0  0  0  0  0  0  0  0  0  0  0  0
  152.9502  140.5391  181.7997 C   0  0  0  0  0  0  0  0  0  0  0  0
  153.1900  139.3990  182.5546 C   0  0  0  0  0  0  0  0  0  0  0  0
  152.5715  138.2586  182.1873 N   0  0  0  0  0  0  0  0  0  0  0  0
  152.8073  137.1436  182.8933 C   0  0  0  0  0  0  0  0  0  0  0  0
  153.6462  137.2429  183.9173 N   0  0  0  0  0  0  0  0  0  0  0  0
  154.2898  138.3190  184.3413 C   0  0  0  0  0  0  0  0  0  0  0  0
  154.0558  139.4977  183.6224 C   0  0  0  0  0  0  0  0  0  0  0  0
  154.6557  140.6739  183.9344 C   0  0  0  0  0  0  0  0  0  0  0  0
  155.2148  138.2984  185.4006 N   0  0  0  0  0  0  0  0  0  0  0  0
  156.2537  138.3656  185.2480 H   0  0  0  0  0  0  0  0  0  0  0  0
  154.8245  138.1764  186.7603 C   0  0  0  0  0  0  0  0  0  0  0  0
  153.5431  138.0475  187.1979 C   0  0  0  0  0  0  0  0  0  0  0  0
  153.2323  137.8199  188.5417 C   0  0  0  0  0  0  0  0  0  0  0  0
  154.2629  137.7194  189.4931 C   0  0  0  0  0  0  0  0  0  0  0  0
  155.5655  137.8521  189.0703 C   0  0  0  0  0  0  0  0  0  0  0  0
  156.9185  137.7613  190.2145 Cl  0  0  0  0  0  0  0  0  0  0  0  0
  155.8140  138.0732  187.7345 C   0  0  0  0  0  0  0  0  0  0  0  0
  153.8970  137.4922  190.7650 O   0  0  0  0  0  0  0  0  0  0  0  0
  153.5686  136.4373  191.5295 C   0  0  0  0  0  0  0  0  0  0  0  0
  154.2333  135.2198  191.3078 C   0  0  0  0  0  0  0  0  0  0  0  0
  153.9177  134.1343  192.0748 C   0  0  0  0  0  0  0  0  0  0  0  0
  152.9538  134.2455  193.0529 C   0  0  0  0  0  0  0  0  0  0  0  0
  152.2827  135.4226  193.2941 C   0  0  0  0  0  0  0  0  0  0  0  0
  152.5935  136.5159  192.5316 C   0  0  0  0  0  0  0  0  0  0  0  0
  151.2395  135.4501  194.3536 C   0  0  0  0  0  0  0  0  0  0  0  0
  150.1395  136.2113  193.9125 F   0  0  0  0  0  0  0  0  0  0  0  0
  150.7721  134.1621  194.5147 F   0  0  0  0  0  0  0  0  0  0  0  0
  151.7233  135.9088  195.5457 F   0  0  0  0  0  0  0  0  0  0  0  0
  155.0973  143.0543  183.4792 C   0  0  0  0  0  0  0  0  0  0  0  0
  155.9377  143.6773  182.3829 C   0  0  0  0  0  0  0  0  0  0  0  0
  157.7923  141.9565  181.3040 C   0  0  0  0  0  0  0  0  0  0  0  0
  157.7038  141.3319  180.2287 O   0  0  0  0  0  0  0  0  0  0  0  0
  156.8667  142.8166  181.8444 N   0  0  0  0  0  0  0  0  0  0  0  0
  156.1223  142.7234  180.7013 H   0  0  0  0  0  0  0  0  0  0  0  0
  159.0768  141.7060  182.0595 C   0  0  0  0  0  0  0  0  0  0  0  0
  158.2106  139.6085  183.0100 C   0  0  0  0  0  0  0  0  0  0  0  0
  158.9606  140.8778  183.2682 C   0  0  0  0  0  0  0  0  0  0  0  0
  158.4491  141.6305  184.4853 C   0  0  0  0  0  0  0  0  0  0  0  0
  160.3070  140.4823  183.5937 O   0  0  0  0  0  0  0  0  0  0  0  0
  160.8671  141.2844  183.4122 H   0  0  0  0  0  0  0  0  0  0  0  0
 38 39  1  0  0  0
 39 40  1  0  0  0
 39 41  1  0  0  0
 39 37  1  0  0  0
 37 33  1  0  0  0
 33 34  2  0  0  0
 33 35  1  0  0  0
 35 32  1  0  0  0
 32 31  1  0  0  0
 31  1  1  0  0  0
  1  2  2  0  0  0
  2  3  1  0  0  0
  3  4  2  0  0  0
  4  5  1  0  0  0
  5  6  2  0  0  0
  6  7  1  0  0  0
  7  8  2  0  0  0
  8 11  1  0  0  0
 11 13  1  0  0  0
 13 14  2  0  0  0
 14 15  1  0  0  0
 15 16  2  0  0  0
 16 20  1  0  0  0
 20 21  1  0  0  0
 21 22  2  0  0  0
 22 23  1  0  0  0
 23 24  2  0  0  0
 24 25  1  0  0  0
 25 27  1  0  0  0
 27 28  1  0  0  0
 27 29  1  0  0  0
 27 30  1  0  0  0
 25 26  2  0  0  0
 16 17  1  0  0  0
 17 18  1  0  0  0
 17 19  2  0  0  0
  8  9  1  0  0  0
  9 10  2  0  0  0
 10  1  1  0  0  0
  9  4  1  0  0  0
 19 13  1  0  0  0
 26 21  1  0  0  0
 41 42  1  0  0  0
 35 36  1  0  0  0
 11 12  1  0  0  0
M  END
> <minimizedAffinity>
-9.76933

> <CNNscore>
0.2925316691

> <CNNaffinity>
6.6517972946

> <CNN_VS>
1.9458613396

> <CNNaffinity_variance>
0.3747904003

$$$$
[H]OC(C([H])([H])[H])(C([H])([H])[H])C([H])([H])C(=O)N([H])C([H])([H])C([H])([H])c1c([H])c([H])c2nc([H])nc(N([H])c3c([H])c([H])c(Oc4c([H])c([H])c([H])c(C(F)(F)F)c4[H])c(Cl)c3[H])c2c1[H]


 42 45  0  0  0  0  0  0  0  0999 V2000
  153.4449  140.3685  182.2156 C   0  0  0  0  0  0  0  0  0  0  0  0
  154.0155  141.5320  181.7831 C   0  0  0  0  0  0  0  0  0  0  0  0
  155.1932  141.9675  182.3068 C   0  0  0  0  0  0  0  0  0  0  0  0
  155.8511  141.2513  183.2975 C   0  0  0  0  0  0  0  0  0  0  0  0
  157.0063  141.7547  183.7772 N   0  0  0  0  0  0  0  0  0  0  0  0
  157.6445  141.0860  184.7481 C   0  0  0  0  0  0  0  0  0  0  0  0
  157.0848  139.9607  185.1753 N   0  0  0  0  0  0  0  0  0  0  0  0
  155.9599  139.4014  184.7583 C   0  0  0  0  0  0  0  0  0  0  0  0
  155.2774  140.0792  183.7407 C   0  0  0  0  0  0  0  0  0  0  0  0
  154.1058  139.6308  183.2240 C   0  0  0  0  0  0  0  0  0  0  0  0
  155.4180  138.2366  185.3309 N   0  0  0  0  0  0  0  0  0  0  0  0
  155.3064  137.3392  184.7932 H   0  0  0  0  0  0  0  0  0  0  0  0
  154.9693  138.1783  186.6767 C   0  0  0  0  0  0  0  0  0  0  0  0
  153.6680  138.2233  187.0703 C   0  0  0  0  0  0  0  0  0  0  0  0
  153.2846  138.0497  188.4033 C   0  0  0  0  0  0  0  0  0  0  0  0
  154.2601  137.8217  189.3901 C   0  0  0  0  0  0  0  0  0  0  0  0
  155.5823  137.7779  189.0121 C   0  0  0  0  0  0  0  0  0  0  0  0
  156.8720  137.5186  190.2028 Cl  0  0  0  0  0  0  0  0  0  0  0  0
  155.9029  137.9533  187.6849 C   0  0  0  0  0  0  0  0  0  0  0  0
  153.8246  137.6552  190.6494 O   0  0  0  0  0  0  0  0  0  0  0  0
  153.4903  136.6347  191.4568 C   0  0  0  0  0  0  0  0  0  0  0  0
  152.6893  136.9059  192.5785 C   0  0  0  0  0  0  0  0  0  0  0  0
  152.3348  135.8835  193.4122 C   0  0  0  0  0  0  0  0  0  0  0  0
  152.7661  134.6026  193.1447 C   0  0  0  0  0  0  0  0  0  0  0  0
  153.5532  134.3036  192.0560 C   0  0  0  0  0  0  0  0  0  0  0  0
  153.9120  135.3214  191.2143 C   0  0  0  0  0  0  0  0  0  0  0  0
  153.9946  132.8980  191.8537 C   0  0  0  0  0  0  0  0  0  0  0  0
  153.7600  132.1566  193.0280 F   0  0  0  0  0  0  0  0  0  0  0  0
  153.1875  132.3411  190.8832 F   0  0  0  0  0  0  0  0  0  0  0  0
  155.2997  132.8162  191.4591 F   0  0  0  0  0  0  0  0  0  0  0  0
  152.1719  139.8973  181.7214 C   0  0  0  0  0  0  0  0  0  0  0  0
  152.0668  139.6294  180.2337 C   0  0  0  0  0  0  0  0  0  0  0  0
  149.6685  138.5136  179.4800 C   0  0  0  0  0  0  0  0  0  0  0  0
  149.0303  138.7370  178.4326 O   0  0  0  0  0  0  0  0  0  0  0  0
  150.8668  139.0702  179.8580 N   0  0  0  0  0  0  0  0  0  0  0  0
  150.9642  139.6748  178.6356 H   0  0  0  0  0  0  0  0  0  0  0  0
  149.0101  137.5146  180.4030 C   0  0  0  0  0  0  0  0  0  0  0  0
  147.7123  139.4105  181.2829 C   0  0  0  0  0  0  0  0  0  0  0  0
  148.3254  138.0768  181.5757 C   0  0  0  0  0  0  0  0  0  0  0  0
  149.1677  138.0775  182.8407 C   0  0  0  0  0  0  0  0  0  0  0  0
  147.2253  137.1858  181.8420 O   0  0  0  0  0  0  0  0  0  0  0  0
  147.5831  136.2716  181.6803 H   0  0  0  0  0  0  0  0  0  0  0  0
 38 39  1  0  0  0
 39 40  1  0  0  0
 39 41  1  0  0  0
 39 37  1  0  0  0
 37 33  1  0  0  0
 33 34  2  0  0  0
 33 35  1  0  0  0
 35 32  1  0  0  0
 32 31  1  0  0  0
 31  1  1  0  0  0
  1  2  2  0  0  0
  2  3  1  0  0  0
  3  4  2  0  0  0
  4  5  1  0  0  0
  5  6  2  0  0  0
  6  7  1  0  0  0
  7  8  2  0  0  0
  8 11  1  0  0  0
 11 13  1  0  0  0
 13 14  2  0  0  0
 14 15  1  0  0  0
 15 16  2  0  0  0
 16 20  1  0  0  0
 20 21  1  0  0  0
 21 22  2  0  0  0
 22 23  1  0  0  0
 23 24  2  0  0  0
 24 25  1  0  0  0
 25 27  1  0  0  0
 27 28  1  0  0  0
 27 29  1  0  0  0
 27 30  1  0  0  0
 25 26  2  0  0  0
 16 17  1  0  0  0
 17 18  1  0  0  0
 17 19  2  0  0  0
  8  9  1  0  0  0
  9 10  2  0  0  0
 10  1  1  0  0  0
  9  4  1  0  0  0
 19 13  1  0  0  0
 26 21  1  0  0  0
 41 42  1  0  0  0
 35 36  1  0  0  0
 11 12  1  0  0  0
M  END
> <minimizedAffinity>
-8.35077

> <CNNscore>
0.2541501224

> <CNNaffinity>
6.2879614830

> <CNN_VS>
1.5980862379

> <CNNaffinity_variance>
0.1969341040

$$$$
[H]OC(C([H])([H])[H])(C([H])([H])[H])C([H])([H])C(=O)N([H])C([H])([H])C([H])([H])c1c([H])c([H])c2nc([H])nc(N([H])c3c([H])c([H])c(Oc4c([H])c([H])c([H])c(C(F)(F)F)c4[H])c(Cl)c3[H])c2c1[H]


 42 45  0  0  0  0  0  0  0  0999 V2000
  152.8505  139.7532  182.3128 C   0  0  0  0  0  0  0  0  0  0  0  0
  153.1618  140.9560  181.7446 C   0  0  0  0  0  0  0  0  0  0  0  0
  154.3009  141.6154  182.0888 C   0  0  0  0  0  0  0  0  0  0  0  0
  155.1805  141.0946  183.0281 C   0  0  0  0  0  0  0  0  0  0  0  0
  156.2810  141.8137  183.3276 N   0  0  0  0  0  0  0  0  0  0  0  0
  157.1309  141.3349  184.2471 C   0  0  0  0  0  0  0  0  0  0  0  0
  156.8233  140.1710  184.8064 N   0  0  0  0  0  0  0  0  0  0  0  0
  155.7691  139.4067  184.5684 C   0  0  0  0  0  0  0  0  0  0  0  0
  154.8689  139.8837  183.6078 C   0  0  0  0  0  0  0  0  0  0  0  0
  153.7386  139.2131  183.2706 C   0  0  0  0  0  0  0  0  0  0  0  0
  155.5022  138.2183  185.2718 N   0  0  0  0  0  0  0  0  0  0  0  0
  155.6434  137.2651  184.8493 H   0  0  0  0  0  0  0  0  0  0  0  0
  155.0126  138.2067  186.6045 C   0  0  0  0  0  0  0  0  0  0  0  0
  153.6989  138.2366  186.9557 C   0  0  0  0  0  0  0  0  0  0  0  0
  153.2777  138.1110  188.2828 C   0  0  0  0  0  0  0  0  0  0  0  0
  154.2266  137.9496  189.3079 C   0  0  0  0  0  0  0  0  0  0  0  0
  155.5607  137.9220  188.9728 C   0  0  0  0  0  0  0  0  0  0  0  0
  156.8177  137.7457  190.2126 Cl  0  0  0  0  0  0  0  0  0  0  0  0
  155.9189  138.0481  187.6496 C   0  0  0  0  0  0  0  0  0  0  0  0
  153.7554  137.8266  190.5594 O   0  0  0  0  0  0  0  0  0  0  0  0
  153.2364  136.8589  191.3334 C   0  0  0  0  0  0  0  0  0  0  0  0
  154.1020  136.1425  192.1766 C   0  0  0  0  0  0  0  0  0  0  0  0
  153.5963  135.1557  192.9744 C   0  0  0  0  0  0  0  0  0  0  0  0
  152.2479  134.8747  192.9425 C   0  0  0  0  0  0  0  0  0  0  0  0
  151.3735  135.5560  192.1267 C   0  0  0  0  0  0  0  0  0  0  0  0
  151.8710  136.5475  191.3250 C   0  0  0  0  0  0  0  0  0  0  0  0
  149.9365  135.1733  192.1363 C   0  0  0  0  0  0  0  0  0  0  0  0
  149.2838  135.7649  191.0373 F   0  0  0  0  0  0  0  0  0  0  0  0
  149.8646  133.8105  191.9343 F   0  0  0  0  0  0  0  0  0  0  0  0
  149.3237  135.4894  193.3154 F   0  0  0  0  0  0  0  0  0  0  0  0
  151.6276  139.0456  182.0120 C   0  0  0  0  0  0  0  0  0  0  0  0
  151.6261  137.5469  182.2352 C   0  0  0  0  0  0  0  0  0  0  0  0
  149.1393  136.4004  181.9773 C   0  0  0  0  0  0  0  0  0  0  0  0
  148.0341  136.9638  182.1006 O   0  0  0  0  0  0  0  0  0  0  0  0
  150.3826  136.9718  182.1058 N   0  0  0  0  0  0  0  0  0  0  0  0
  149.7982  138.2028  182.2175 H   0  0  0  0  0  0  0  0  0  0  0  0
  149.0486  134.9276  181.6518 C   0  0  0  0  0  0  0  0  0  0  0  0
  147.2592  134.0726  180.1958 C   0  0  0  0  0  0  0  0  0  0  0  0
  148.6591  134.5964  180.2738 C   0  0  0  0  0  0  0  0  0  0  0  0
  149.6614  133.7181  179.5433 C   0  0  0  0  0  0  0  0  0  0  0  0
  148.6522  135.8503  179.5647 O   0  0  0  0  0  0  0  0  0  0  0  0
  149.4393  136.3514  179.9103 H   0  0  0  0  0  0  0  0  0  0  0  0
 38 39  1  0  0  0
 39 40  1  0  0  0
 39 41  1  0  0  0
 39 37  1  0  0  0
 37 33  1  0  0  0
 33 34  2  0  0  0
 33 35  1  0  0  0
 35 32  1  0  0  0
 32 31  1  0  0  0
 31  1  1  0  0  0
  1  2  2  0  0  0
  2  3  1  0  0  0
  3  4  2  0  0  0
  4  5  1  0  0  0
  5  6  2  0  0  0
  6  7  1  0  0  0
  7  8  2  0  0  0
  8 11  1  0  0  0
 11 13  1  0  0  0
 13 14  2  0  0  0
 14 15  1  0  0  0
 15 16  2  0  0  0
 16 20  1  0  0  0
 20 21  1  0  0  0
 21 22  2  0  0  0
 22 23  1  0  0  0
 23 24  2  0  0  0
 24 25  1  0  0  0
 25 27  1  0  0  0
 27 28  1  0  0  0
 27 29  1  0  0  0
 27 30  1  0  0  0
 25 26  2  0  0  0
 16 17  1  0  0  0
 17 18  1  0  0  0
 17 19  2  0  0  0
  8  9  1  0  0  0
  9 10  2  0  0  0
 10  1  1  0  0  0
  9  4  1  0  0  0
 19 13  1  0  0  0
 26 21  1  0  0  0
 41 42  1  0  0  0
 35 36  1  0  0  0
 11 12  1  0  0  0
M  END
> <minimizedAffinity>
-7.60223

> <CNNscore>
0.2252462357

> <CNNaffinity>
6.2398447990

> <CNN_VS>
1.4055016041

> <CNNaffinity_variance>
0.0974430293

$$$$
[H]OC(C([H])([H])[H])(C([H])([H])[H])C([H])([H])C(=O)N([H])C([H])([H])C([H])([H])c1c([H])c([H])c2nc([H])nc(N([H])c3c([H])c([H])c(Oc4c([H])c([H])c([H])c(C(F)(F)F)c4[H])c(Cl)c3[H])c2c1[H]


 42 45  0  0  0  0  0  0  0  0999 V2000
  152.5708  136.7805  183.9415 C   0  0  0  0  0  0  0  0  0  0  0  0
  151.8852  135.9937  183.0599 C   0  0  0  0  0  0  0  0  0  0  0  0
  151.4660  136.4887  181.8640 C   0  0  0  0  0  0  0  0  0  0  0  0
  151.7146  137.8053  181.5009 C   0  0  0  0  0  0  0  0  0  0  0  0
  151.2547  138.2269  180.3056 N   0  0  0  0  0  0  0  0  0  0  0  0
  151.4688  139.5010  179.9478 C   0  0  0  0  0  0  0  0  0  0  0  0
  152.1263  140.2681  180.8087 N   0  0  0  0  0  0  0  0  0  0  0  0
  152.6090  139.9324  181.9946 C   0  0  0  0  0  0  0  0  0  0  0  0
  152.4019  138.6047  182.3886 C   0  0  0  0  0  0  0  0  0  0  0  0
  152.8297  138.1229  183.5825 C   0  0  0  0  0  0  0  0  0  0  0  0
  153.2327  140.8474  182.8618 N   0  0  0  0  0  0  0  0  0  0  0  0
  152.7657  141.2150  183.7300 H   0  0  0  0  0  0  0  0  0  0  0  0
  154.5382  141.3567  182.6329 C   0  0  0  0  0  0  0  0  0  0  0  0
  154.8315  142.6497  182.3293 C   0  0  0  0  0  0  0  0  0  0  0  0
  156.1465  143.1124  182.2247 C   0  0  0  0  0  0  0  0  0  0  0  0
  157.2200  142.2286  182.4338 C   0  0  0  0  0  0  0  0  0  0  0  0
  156.9433  140.9154  182.7369 C   0  0  0  0  0  0  0  0  0  0  0  0
  158.2439  139.7355  182.9908 Cl  0  0  0  0  0  0  0  0  0  0  0  0
  155.6296  140.5146  182.8293 C   0  0  0  0  0  0  0  0  0  0  0  0
  158.4577  142.7384  182.3264 O   0  0  0  0  0  0  0  0  0  0  0  0
  159.3115  143.4400  183.0906 C   0  0  0  0  0  0  0  0  0  0  0  0
  159.5160  144.7968  182.7897 C   0  0  0  0  0  0  0  0  0  0  0  0
  160.3777  145.5307  183.5546 C   0  0  0  0  0  0  0  0  0  0  0  0
  161.0346  144.9336  184.6082 C   0  0  0  0  0  0  0  0  0  0  0  0
  160.8583  143.6066  184.9282 C   0  0  0  0  0  0  0  0  0  0  0  0
  159.9956  142.8640  184.1683 C   0  0  0  0  0  0  0  0  0  0  0  0
  161.6245  143.0349  186.0673 C   0  0  0  0  0  0  0  0  0  0  0  0
  160.8455  142.0572  186.7160 F   0  0  0  0  0  0  0  0  0  0  0  0
  162.7153  142.3699  185.5465 F   0  0  0  0  0  0  0  0  0  0  0  0
  162.0533  143.9959  186.9380 F   0  0  0  0  0  0  0  0  0  0  0  0
  152.9894  136.3082  185.2408 C   0  0  0  0  0  0  0  0  0  0  0  0
  154.3456  135.6377  185.3262 C   0  0  0  0  0  0  0  0  0  0  0  0
  155.4931  135.7846  187.8215 C   0  0  0  0  0  0  0  0  0  0  0  0
  155.7950  134.8332  188.5685 O   0  0  0  0  0  0  0  0  0  0  0  0
  154.9198  135.7129  186.5745 N   0  0  0  0  0  0  0  0  0  0  0  0
  155.0473  134.3518  186.6012 H   0  0  0  0  0  0  0  0  0  0  0  0
  155.8114  137.1456  188.3957 C   0  0  0  0  0  0  0  0  0  0  0  0
  153.7813  138.5353  188.3955 C   0  0  0  0  0  0  0  0  0  0  0  0
  154.7595  137.7579  189.2195 C   0  0  0  0  0  0  0  0  0  0  0  0
  155.2860  138.5425  190.4098 C   0  0  0  0  0  0  0  0  0  0  0  0
  154.0185  136.6559  189.7778 O   0  0  0  0  0  0  0  0  0  0  0  0
  154.7018  135.9704  190.0083 H   0  0  0  0  0  0  0  0  0  0  0  0
 38 39  1  0  0  0
 39 40  1  0  0  0
 39 41  1  0  0  0
 39 37  1  0  0  0
 37 33  1  0  0  0
 33 34  2  0  0  0
 33 35  1  0  0  0
 35 32  1  0  0  0
 32 31  1  0  0  0
 31  1  1  0  0  0
  1  2  2  0  0  0
  2  3  1  0  0  0
  3  4  2  0  0  0
  4  5  1  0  0  0
  5  6  2  0  0  0
  6  7  1  0  0  0
  7  8  2  0  0  0
  8 11  1  0  0  0
 11 13  1  0  0  0
 13 14  2  0  0  0
 14 15  1  0  0  0
 15 16  2  0  0  0
 16 20  1  0  0  0
 20 21  1  0  0  0
 21 22  2  0  0  0
 22 23  1  0  0  0
 23 24  2  0  0  0
 24 25  1  0  0  0
 25 27  1  0  0  0
 27 28  1  0  0  0
 27 29  1  0  0  0
 27 30  1  0  0  0
 25 26  2  0  0  0
 16 17  1  0  0  0
 17 18  1  0  0  0
 17 19  2  0  0  0
  8  9  1  0  0  0
  9 10  2  0  0  0
 10  1  1  0  0  0
  9  4  1  0  0  0
 19 13  1  0  0  0
 26 21  1  0  0  0
 41 42  1  0  0  0
 35 36  1  0  0  0
 11 12  1  0  0  0
M  END
> <minimizedAffinity>
-9.47548

> <CNNscore>
0.2018447220

> <CNNaffinity>
7.0748786926

> <CNN_VS>
1.4280269146

> <CNNaffinity_variance>
0.2728502154

$$$$
[H]OC(C([H])([H])[H])(C([H])([H])[H])C([H])([H])C(=O)N([H])C([H])([H])C([H])([H])c1c([H])c([H])c2nc([H])nc(N([H])c3c([H])c([H])c(Oc4c([H])c([H])c([H])c(C(F)(F)F)c4[H])c(Cl)c3[H])c2c1[H]


 42 45  0  0  0  0  0  0  0  0999 V2000
  157.5540  139.7569  184.8376 C   0  0  0  0  0  0  0  0  0  0  0  0
  158.8114  139.5312  184.3533 C   0  0  0  0  0  0  0  0  0  0  0  0
  159.1665  139.9567  183.1108 C   0  0  0  0  0  0  0  0  0  0  0  0
  158.2672  140.6276  182.2934 C   0  0  0  0  0  0  0  0  0  0  0  0
  158.6886  141.0049  181.0694 N   0  0  0  0  0  0  0  0  0  0  0  0
  157.8269  141.6363  180.2595 C   0  0  0  0  0  0  0  0  0  0  0  0
  156.6022  141.8466  180.7263 N   0  0  0  0  0  0  0  0  0  0  0  0
  156.1129  141.5105  181.9094 C   0  0  0  0  0  0  0  0  0  0  0  0
  156.9960  140.8538  182.7753 C   0  0  0  0  0  0  0  0  0  0  0  0
  156.6297  140.4391  184.0141 C   0  0  0  0  0  0  0  0  0  0  0  0
  154.7720  141.7204  182.2786 N   0  0  0  0  0  0  0  0  0  0  0  0
  154.4323  142.6271  182.6905 H   0  0  0  0  0  0  0  0  0  0  0  0
  153.7697  140.7251  182.1347 C   0  0  0  0  0  0  0  0  0  0  0  0
  153.5059  139.7439  183.0390 C   0  0  0  0  0  0  0  0  0  0  0  0
  152.4324  138.8609  182.8909 C   0  0  0  0  0  0  0  0  0  0  0  0
  151.5832  138.9695  181.7753 C   0  0  0  0  0  0  0  0  0  0  0  0
  151.8370  139.9527  180.8470 C   0  0  0  0  0  0  0  0  0  0  0  0
  150.8248  140.1373  179.4014 Cl  0  0  0  0  0  0  0  0  0  0  0  0
  152.9069  140.7962  181.0441 C   0  0  0  0  0  0  0  0  0  0  0  0
  150.5663  138.0959  181.6972 O   0  0  0  0  0  0  0  0  0  0  0  0
  149.2538  138.0731  181.9829 C   0  0  0  0  0  0  0  0  0  0  0  0
  148.3489  137.8040  180.9426 C   0  0  0  0  0  0  0  0  0  0  0  0
  147.0096  137.7733  181.2101 C   0  0  0  0  0  0  0  0  0  0  0  0
  146.5632  138.0067  182.4924 C   0  0  0  0  0  0  0  0  0  0  0  0
  147.4227  138.2754  183.5332 C   0  0  0  0  0  0  0  0  0  0  0  0
  148.7664  138.3065  183.2749 C   0  0  0  0  0  0  0  0  0  0  0  0
  146.8559  138.5392  184.8825 C   0  0  0  0  0  0  0  0  0  0  0  0
  146.0614  137.4469  185.2819 F   0  0  0  0  0  0  0  0  0  0  0  0
  147.9066  138.5933  185.7749 F   0  0  0  0  0  0  0  0  0  0  0  0
  146.1590  139.7129  184.9317 F   0  0  0  0  0  0  0  0  0  0  0  0
  157.1222  139.2782  186.1303 C   0  0  0  0  0  0  0  0  0  0  0  0
  155.8493  138.4572  186.1710 C   0  0  0  0  0  0  0  0  0  0  0  0
  155.7976  136.6084  188.2067 C   0  0  0  0  0  0  0  0  0  0  0  0
  156.5872  135.6597  188.3824 O   0  0  0  0  0  0  0  0  0  0  0  0
  155.8221  137.5330  187.1902 N   0  0  0  0  0  0  0  0  0  0  0  0
  157.0126  137.0174  186.7586 H   0  0  0  0  0  0  0  0  0  0  0  0
  154.7116  136.7096  189.2525 C   0  0  0  0  0  0  0  0  0  0  0  0
  153.9974  137.3280  191.5241 C   0  0  0  0  0  0  0  0  0  0  0  0
  155.1522  137.0893  190.6023 C   0  0  0  0  0  0  0  0  0  0  0  0
  156.1704  138.2173  190.6246 C   0  0  0  0  0  0  0  0  0  0  0  0
  155.8400  135.9348  191.1209 O   0  0  0  0  0  0  0  0  0  0  0  0
  156.3559  135.5696  190.3524 H   0  0  0  0  0  0  0  0  0  0  0  0
 38 39  1  0  0  0
 39 40  1  0  0  0
 39 41  1  0  0  0
 39 37  1  0  0  0
 37 33  1  0  0  0
 33 34  2  0  0  0
 33 35  1  0  0  0
 35 32  1  0  0  0
 32 31  1  0  0  0
 31  1  1  0  0  0
  1  2  2  0  0  0
  2  3  1  0  0  0
  3  4  2  0  0  0
  4  5  1  0  0  0
  5  6  2  0  0  0
  6  7  1  0  0  0
  7  8  2  0  0  0
  8 11  1  0  0  0
 11 13  1  0  0  0
 13 14  2  0  0  0
 14 15  1  0  0  0
 15 16  2  0  0  0
 16 20  1  0  0  0
 20 21  1  0  0  0
 21 22  2  0  0  0
 22 23  1  0  0  0
 23 24  2  0  0  0
 24 25  1  0  0  0
 25 27  1  0  0  0
 27 28  1  0  0  0
 27 29  1  0  0  0
 27 30  1  0  0  0
 25 26  2  0  0  0
 16 17  1  0  0  0
 17 18  1  0  0  0
 17 19  2  0  0  0
  8  9  1  0  0  0
  9 10  2  0  0  0
 10  1  1  0  0  0
  9  4  1  0  0  0
 19 13  1  0  0  0
 26 21  1  0  0  0
 41 42  1  0  0  0
 35 36  1  0  0  0
 11 12  1  0  0  0
M  END
> <minimizedAffinity>
-7.81783

> <CNNscore>
0.1982469559

> <CNNaffinity>
6.8111205101

> <CNN_VS>
1.3502838612

> <CNNaffinity_variance>
0.1185004711

$$$$
[H]OC(C([H])([H])[H])(C([H])([H])[H])C([H])([H])C(=O)N([H])C([H])([H])C([H])([H])c1c([H])c([H])c2nc([H])nc(N([H])c3c([H])c([H])c(Oc4c([H])c([H])c([H])c(C(F)(F)F)c4[H])c(Cl)c3[H])c2c1[H]


 42 45  0  0  0  0  0  0  0  0999 V2000
  153.9476  140.8632  182.2624 C   0  0  0  0  0  0  0  0  0  0  0  0
  154.9485  141.6185  181.7200 C   0  0  0  0  0  0  0  0  0  0  0  0
  156.2010  141.6007  182.2509 C   0  0  0  0  0  0  0  0  0  0  0  0
  156.5038  140.8223  183.3597 C   0  0  0  0  0  0  0  0  0  0  0  0
  157.7639  140.8689  183.8372 N   0  0  0  0  0  0  0  0  0  0  0  0
  158.0684  140.1386  184.9193 C   0  0  0  0  0  0  0  0  0  0  0  0
  157.0933  139.4125  185.4523 N   0  0  0  0  0  0  0  0  0  0  0  0
  155.8377  139.3118  185.0457 C   0  0  0  0  0  0  0  0  0  0  0  0
  155.4965  140.0620  183.9137 C   0  0  0  0  0  0  0  0  0  0  0  0
  154.2442  140.0666  183.3918 C   0  0  0  0  0  0  0  0  0  0  0  0
  154.8625  138.5630  185.7288 N   0  0  0  0  0  0  0  0  0  0  0  0
  153.8326  138.6663  185.5398 H   0  0  0  0  0  0  0  0  0  0  0  0
  155.1859  137.6141  186.7342 C   0  0  0  0  0  0  0  0  0  0  0  0
  155.1547  136.2637  186.5747 C   0  0  0  0  0  0  0  0  0  0  0  0
  155.5913  135.3839  187.5695 C   0  0  0  0  0  0  0  0  0  0  0  0
  156.0817  135.8888  188.7869 C   0  0  0  0  0  0  0  0  0  0  0  0
  156.1163  137.2522  188.9689 C   0  0  0  0  0  0  0  0  0  0  0  0
  156.6990  137.9638  190.4862 Cl  0  0  0  0  0  0  0  0  0  0  0  0
  155.6757  138.0720  187.9546 C   0  0  0  0  0  0  0  0  0  0  0  0
  156.4925  134.9907  189.6968 O   0  0  0  0  0  0  0  0  0  0  0  0
  157.4948  134.1069  189.8361 C   0  0  0  0  0  0  0  0  0  0  0  0
  158.4598  134.0265  188.8185 C   0  0  0  0  0  0  0  0  0  0  0  0
  159.4894  133.1368  188.9396 C   0  0  0  0  0  0  0  0  0  0  0  0
  159.5687  132.3309  190.0543 C   0  0  0  0  0  0  0  0  0  0  0  0
  158.6390  132.3832  191.0677 C   0  0  0  0  0  0  0  0  0  0  0  0
  157.6048  133.2727  190.9556 C   0  0  0  0  0  0  0  0  0  0  0  0
  158.7860  131.4612  192.2251 C   0  0  0  0  0  0  0  0  0  0  0  0
  158.5806  132.1723  193.4234 F   0  0  0  0  0  0  0  0  0  0  0  0
  157.7680  130.5328  192.1530 F   0  0  0  0  0  0  0  0  0  0  0  0
  159.9893  130.8148  192.2234 F   0  0  0  0  0  0  0  0  0  0  0  0
  152.5936  140.8919  181.7599 C   0  0  0  0  0  0  0  0  0  0  0  0
  152.0722  139.6252  181.1120 C   0  0  0  0  0  0  0  0  0  0  0  0
  149.6431  138.8001  182.1039 C   0  0  0  0  0  0  0  0  0  0  0  0
  149.4437  137.9735  183.0156 O   0  0  0  0  0  0  0  0  0  0  0  0
  150.8561  139.2134  181.6072 N   0  0  0  0  0  0  0  0  0  0  0  0
  151.4920  138.5064  182.5897 H   0  0  0  0  0  0  0  0  0  0  0  0
  148.3809  139.3823  181.5114 C   0  0  0  0  0  0  0  0  0  0  0  0
  148.4182  138.4118  179.2509 C   0  0  0  0  0  0  0  0  0  0  0  0
  147.6733  138.5322  180.5436 C   0  0  0  0  0  0  0  0  0  0  0  0
  146.2112  138.9000  180.3521 C   0  0  0  0  0  0  0  0  0  0  0  0
  147.6693  137.2129  181.1219 O   0  0  0  0  0  0  0  0  0  0  0  0
  147.5115  137.3532  182.0943 H   0  0  0  0  0  0  0  0  0  0  0  0
 38 39  1  0  0  0
 39 40  1  0  0  0
 39 41  1  0  0  0
 39 37  1  0  0  0
 37 33  1  0  0  0
 33 34  2  0  0  0
 33 35  1  0  0  0
 35 32  1  0  0  0
 32 31  1  0  0  0
 31  1  1  0  0  0
  1  2  2  0  0  0
  2  3  1  0  0  0
  3  4  2  0  0  0
  4  5  1  0  0  0
  5  6  2  0  0  0
  6  7  1  0  0  0
  7  8  2  0  0  0
  8 11  1  0  0  0
 11 13  1  0  0  0
 13 14  2  0  0  0
 14 15  1  0  0  0
 15 16  2  0  0  0
 16 20  1  0  0  0
 20 21  1  0  0  0
 21 22  2  0  0  0
 22 23  1  0  0  0
 23 24  2  0  0  0
 24 25  1  0  0  0
 25 27  1  0  0  0
 27 28  1  0  0  0
 27 29  1  0  0  0
 27 30  1  0  0  0
 25 26  2  0  0  0
 16 17  1  0  0  0
 17 18  1  0  0  0
 17 19  2  0  0  0
  8  9  1  0  0  0
  9 10  2  0  0  0
 10  1  1  0  0  0
  9  4  1  0  0  0
 19 13  1  0  0  0
 26 21  1  0  0  0
 41 42  1  0  0  0
 35 36  1  0  0  0
 11 12  1  0  0  0
M  END
> <minimizedAffinity>
-7.96308

> <CNNscore>
0.1952872574

> <CNNaffinity>
6.2900362015

> <CNN_VS>
1.2283638716

> <CNNaffinity_variance>
0.0828635767

$$$$
[H]OC(C([H])([H])[H])(C([H])([H])[H])C([H])([H])C(=O)N([H])C([H])([H])C([H])([H])c1c([H])c([H])c2nc([H])nc(N([H])c3c([H])c([H])c(Oc4c([H])c([H])c([H])c(C(F)(F)F)c4[H])c(Cl)c3[H])c2c1[H]


 42 45  0  0  0  0  0  0  0  0999 V2000
  153.2469  136.9718  185.8409 C   0  0  0  0  0  0  0  0  0  0  0  0
  152.8480  135.7776  185.3104 C   0  0  0  0  0  0  0  0  0  0  0  0
  152.5524  135.6668  183.9870 C   0  0  0  0  0  0  0  0  0  0  0  0
  152.6406  136.7586  183.1341 C   0  0  0  0  0  0  0  0  0  0  0  0
  152.3171  136.5735  181.8383 N   0  0  0  0  0  0  0  0  0  0  0  0
  152.3776  137.6218  181.0049 C   0  0  0  0  0  0  0  0  0  0  0  0
  152.7555  138.7842  181.5224 N   0  0  0  0  0  0  0  0  0  0  0  0
  153.0889  139.0475  182.7761 C   0  0  0  0  0  0  0  0  0  0  0  0
  153.0381  137.9667  183.6650 C   0  0  0  0  0  0  0  0  0  0  0  0
  153.3402  138.0904  184.9819 C   0  0  0  0  0  0  0  0  0  0  0  0
  153.4091  140.3376  183.2355 N   0  0  0  0  0  0  0  0  0  0  0  0
  152.7545  140.9065  183.8312 H   0  0  0  0  0  0  0  0  0  0  0  0
  154.6362  140.9816  182.9264 C   0  0  0  0  0  0  0  0  0  0  0  0
  154.7758  142.3044  182.6422 C   0  0  0  0  0  0  0  0  0  0  0  0
  156.0265  142.9001  182.4549 C   0  0  0  0  0  0  0  0  0  0  0  0
  157.1952  142.1247  182.5563 C   0  0  0  0  0  0  0  0  0  0  0  0
  157.0741  140.7835  182.8381 C   0  0  0  0  0  0  0  0  0  0  0  0
  158.5009  139.7356  182.9581 Cl  0  0  0  0  0  0  0  0  0  0  0  0
  155.8175  140.2499  183.0152 C   0  0  0  0  0  0  0  0  0  0  0  0
  158.3644  142.7595  182.3733 O   0  0  0  0  0  0  0  0  0  0  0  0
  159.2532  143.4364  183.1196 C   0  0  0  0  0  0  0  0  0  0  0  0
  159.5141  144.7777  182.7936 C   0  0  0  0  0  0  0  0  0  0  0  0
  160.4122  145.4866  183.5400 C   0  0  0  0  0  0  0  0  0  0  0  0
  161.0502  144.8797  184.5997 C   0  0  0  0  0  0  0  0  0  0  0  0
  160.8189  143.5674  184.9439 C   0  0  0  0  0  0  0  0  0  0  0  0
  159.9194  142.8499  184.2028 C   0  0  0  0  0  0  0  0  0  0  0  0
  161.5678  142.9827  186.0879 C   0  0  0  0  0  0  0  0  0  0  0  0
  162.7412  142.3629  185.6158 F   0  0  0  0  0  0  0  0  0  0  0  0
  161.9833  144.0236  186.8924 F   0  0  0  0  0  0  0  0  0  0  0  0
  160.8036  142.1205  186.8215 F   0  0  0  0  0  0  0  0  0  0  0  0
  153.5216  137.1431  187.2487 C   0  0  0  0  0  0  0  0  0  0  0  0
  153.0163  136.0645  188.1854 C   0  0  0  0  0  0  0  0  0  0  0  0
  153.8527  136.3846  190.7860 C   0  0  0  0  0  0  0  0  0  0  0  0
  154.9406  136.0242  191.2767 O   0  0  0  0  0  0  0  0  0  0  0  0
  153.4334  136.2254  189.4869 N   0  0  0  0  0  0  0  0  0  0  0  0
  154.6716  135.7522  189.1520 H   0  0  0  0  0  0  0  0  0  0  0  0
  152.9278  137.0654  191.7680 C   0  0  0  0  0  0  0  0  0  0  0  0
  150.5702  136.3659  191.8395 C   0  0  0  0  0  0  0  0  0  0  0  0
  151.9377  136.2002  192.4248 C   0  0  0  0  0  0  0  0  0  0  0  0
  151.9475  136.2923  193.9417 C   0  0  0  0  0  0  0  0  0  0  0  0
  152.3399  134.8522  192.1149 O   0  0  0  0  0  0  0  0  0  0  0  0
  153.3333  134.8551  192.1717 H   0  0  0  0  0  0  0  0  0  0  0  0
 38 39  1  0  0  0
 39 40  1  0  0  0
 39 41  1  0  0  0
 39 37  1  0  0  0
 37 33  1  0  0  0
 33 34  2  0  0  0
 33 35  1  0  0  0
 35 32  1  0  0  0
 32 31  1  0  0  0
 31  1  1  0  0  0
  1  2  2  0  0  0
  2  3  1  0  0  0
  3  4  2  0  0  0
  4  5  1  0  0  0
  5  6  2  0  0  0
  6  7  1  0  0  0
  7  8  2  0  0  0
  8 11  1  0  0  0
 11 13  1  0  0  0
 13 14  2  0  0  0
 14 15  1  0  0  0
 15 16  2  0  0  0
 16 20  1  0  0  0
 20 21  1  0  0  0
 21 22  2  0  0  0
 22 23  1  0  0  0
 23 24  2  0  0  0
 24 25  1  0  0  0
 25 27  1  0  0  0
 27 28  1  0  0  0
 27 29  1  0  0  0
 27 30  1  0  0  0
 25 26  2  0  0  0
 16 17  1  0  0  0
 17 18  1  0  0  0
 17 19  2  0  0  0
  8  9  1  0  0  0
  9 10  2  0  0  0
 10  1  1  0  0  0
  9  4  1  0  0  0
 19 13  1  0  0  0
 26 21  1  0  0  0
 41 42  1  0  0  0
 35 36  1  0  0  0
 11 12  1  0  0  0
M  END
> <minimizedAffinity>
-9.02952

> <CNNscore>
0.1859476119

> <CNNaffinity>
6.7241210938

> <CNN_VS>
1.2503342628

> <CNNaffinity_variance>
0.1260708272

$$$$
[H]OC(=O)c1c([H])c([H])c(C([H])([H])N([H])C(=O)c2c([H])c([H])c(C(C([H])([H])[H])(C([H])([H])[H])C([H])([H])[H])c([H])c2[H])c([H])c1F


 26 27  0  0  0  0  0  0  0  0999 V2000
  154.2172  139.7370  183.6893 C   0  0  0  0  0  0  0  0  0  0  0  0
  153.9268  139.4834  184.8954 O   0  0  0  0  0  0  0  0  0  0  0  0
  153.4937  139.1086  182.6684 N   0  0  0  0  0  0  0  0  0  0  0  0
  153.7539  139.3530  181.6637 H   0  0  0  0  0  0  0  0  0  0  0  0
  157.3214  142.4818  182.6644 C   0  0  0  0  0  0  0  0  0  0  0  0
  157.5868  141.1459  182.8986 C   0  0  0  0  0  0  0  0  0  0  0  0
  156.5935  140.2523  183.2387 C   0  0  0  0  0  0  0  0  0  0  0  0
  155.2852  140.6686  183.3594 C   0  0  0  0  0  0  0  0  0  0  0  0
  154.9810  141.9827  183.1373 C   0  0  0  0  0  0  0  0  0  0  0  0
  156.0095  142.8623  182.7933 C   0  0  0  0  0  0  0  0  0  0  0  0
  158.9207  143.0591  180.9291 C   0  0  0  0  0  0  0  0  0  0  0  0
  158.3944  143.4579  182.2933 C   0  0  0  0  0  0  0  0  0  0  0  0
  159.5423  143.3396  183.2682 C   0  0  0  0  0  0  0  0  0  0  0  0
  157.8804  144.8832  182.2977 C   0  0  0  0  0  0  0  0  0  0  0  0
  152.4152  138.1767  182.8121 C   0  0  0  0  0  0  0  0  0  0  0  0
  151.4165  138.2786  181.7209 C   0  0  0  0  0  0  0  0  0  0  0  0
  150.3114  137.4038  181.7628 C   0  0  0  0  0  0  0  0  0  0  0  0
  149.3316  137.4595  180.8062 C   0  0  0  0  0  0  0  0  0  0  0  0
  149.3618  138.3668  179.7489 C   0  0  0  0  0  0  0  0  0  0  0  0
  150.4408  139.2257  179.6989 C   0  0  0  0  0  0  0  0  0  0  0  0
  150.5164  140.1335  178.6927 F   0  0  0  0  0  0  0  0  0  0  0  0
  151.4380  139.1633  180.6793 C   0  0  0  0  0  0  0  0  0  0  0  0
  148.2852  138.3851  178.7782 C   0  0  0  0  0  0  0  0  0  0  0  0
  148.5974  138.3837  177.5549 O   0  0  0  0  0  0  0  0  0  0  0  0
  146.9743  138.4013  179.1681 O   0  0  0  0  0  0  0  0  0  0  0  0
  146.4065  137.5708  179.3689 H   0  0  0  0  0  0  0  0  0  0  0  0
 11 12  1  0  0  0
 12 13  1  0  0  0
 12 14  1  0  0  0
 12  5  1  0  0  0
  5  6  2  0  0  0
  6  7  1  0  0  0
  7  8  2  0  0  0
  8  1  1  0  0  0
  1  2  2  0  0  0
  1  3  1  0  0  0
  3 15  1  0  0  0
 15 16  1  0  0  0
 16 17  2  0  0  0
 17 18  1  0  0  0
 18 19  2  0  0  0
 19 23  1  0  0  0
 23 24  2  0  0  0
 23 25  1  0  0  0
 19 20  1  0  0  0
 20 21  1  0  0  0
 20 22  2  0  0  0
  8  9  1  0  0  0
  9 10  2  0  0  0
 10  5  1  0  0  0
 22 16  1  0  0  0
  3  4  1  0  0  0
 25 26  1  0  0  0
M  END
> <minimizedAffinity>
-7.31350

> <CNNscore>
0.5815485120

> <CNNaffinity>
5.3054962158

> <CNN_VS>
3.0854034424

> <CNNaffinity_variance>
0.0282064173

$$$$
[H]OC(=O)c1c([H])c([H])c(C([H])([H])N([H])C(=O)c2c([H])c([H])c(C(C([H])([H])[H])(C([H])([H])[H])C([H])([H])[H])c([H])c2[H])c([H])c1F


 26 27  0  0  0  0  0  0  0  0999 V2000
  153.9877  139.2377  184.0804 C   0  0  0  0  0  0  0  0  0  0  0  0
  153.1491  138.7672  183.2566 O   0  0  0  0  0  0  0  0  0  0  0  0
  153.9044  138.8612  185.4264 N   0  0  0  0  0  0  0  0  0  0  0  0
  154.6330  139.2645  186.0924 H   0  0  0  0  0  0  0  0  0  0  0  0
  157.0329  141.9098  182.7360 C   0  0  0  0  0  0  0  0  0  0  0  0
  157.2950  140.9294  183.6740 C   0  0  0  0  0  0  0  0  0  0  0  0
  156.3173  140.0666  184.1219 C   0  0  0  0  0  0  0  0  0  0  0  0
  155.0281  140.1562  183.6429 C   0  0  0  0  0  0  0  0  0  0  0  0
  154.7273  141.1137  182.7148 C   0  0  0  0  0  0  0  0  0  0  0  0
  155.7401  141.9714  182.2808 C   0  0  0  0  0  0  0  0  0  0  0  0
  159.1811  142.8975  183.2942 C   0  0  0  0  0  0  0  0  0  0  0  0
  158.0896  142.8495  182.2439 C   0  0  0  0  0  0  0  0  0  0  0  0
  157.5137  144.2416  182.1325 C   0  0  0  0  0  0  0  0  0  0  0  0
  158.6325  142.4242  180.8947 C   0  0  0  0  0  0  0  0  0  0  0  0
  152.9559  137.9695  186.0241 C   0  0  0  0  0  0  0  0  0  0  0  0
  153.1827  137.7760  187.4765 C   0  0  0  0  0  0  0  0  0  0  0  0
  152.4126  136.7939  188.1330 C   0  0  0  0  0  0  0  0  0  0  0  0
  152.5877  136.5367  189.4677 C   0  0  0  0  0  0  0  0  0  0  0  0
  153.5203  137.2155  190.2497 C   0  0  0  0  0  0  0  0  0  0  0  0
  154.2773  138.1796  189.6158 C   0  0  0  0  0  0  0  0  0  0  0  0
  155.2047  138.8667  190.3300 F   0  0  0  0  0  0  0  0  0  0  0  0
  154.0932  138.4373  188.2522 C   0  0  0  0  0  0  0  0  0  0  0  0
  153.6676  136.8846  191.6534 C   0  0  0  0  0  0  0  0  0  0  0  0
  154.6560  136.1744  191.9888 O   0  0  0  0  0  0  0  0  0  0  0  0
  152.7709  137.3255  192.5874 O   0  0  0  0  0  0  0  0  0  0  0  0
  152.8230  138.2241  193.0795 H   0  0  0  0  0  0  0  0  0  0  0  0
 11 12  1  0  0  0
 12 13  1  0  0  0
 12 14  1  0  0  0
 12  5  1  0  0  0
  5  6  2  0  0  0
  6  7  1  0  0  0
  7  8  2  0  0  0
  8  1  1  0  0  0
  1  2  2  0  0  0
  1  3  1  0  0  0
  3 15  1  0  0  0
 15 16  1  0  0  0
 16 17  2  0  0  0
 17 18  1  0  0  0
 18 19  2  0  0  0
 19 23  1  0  0  0
 23 24  2  0  0  0
 23 25  1  0  0  0
 19 20  1  0  0  0
 20 21  1  0  0  0
 20 22  2  0  0  0
  8  9  1  0  0  0
  9 10  2  0  0  0
 10  5  1  0  0  0
 22 16  1  0  0  0
  3  4  1  0  0  0
 25 26  1  0  0  0
M  END
> <minimizedAffinity>
-7.53659

> <CNNscore>
0.4291011095

> <CNNaffinity>
5.2741532326

> <CNN_VS>
2.2631449699

> <CNNaffinity_variance>
0.1263634861

$$$$
[H]OC(=O)c1c([H])c([H])c(C([H])([H])N([H])C(=O)c2c([H])c([H])c(C(C([H])([H])[H])(C([H])([H])[H])C([H])([H])[H])c([H])c2[H])c([H])c1F


 26 27  0  0  0  0  0  0  0  0999 V2000
  154.1446  139.2141  184.3468 C   0  0  0  0  0  0  0  0  0  0  0  0
  153.6847  139.6882  185.4272 O   0  0  0  0  0  0  0  0  0  0  0  0
  153.7053  137.9572  183.9136 N   0  0  0  0  0  0  0  0  0  0  0  0
  154.1016  137.5917  182.9937 H   0  0  0  0  0  0  0  0  0  0  0  0
  157.0174  141.4230  182.0911 C   0  0  0  0  0  0  0  0  0  0  0  0
  155.6612  141.6500  181.9529 C   0  0  0  0  0  0  0  0  0  0  0  0
  154.7242  140.9368  182.6698 C   0  0  0  0  0  0  0  0  0  0  0  0
  155.1151  139.9591  183.5591 C   0  0  0  0  0  0  0  0  0  0  0  0
  156.4478  139.7027  183.7239 C   0  0  0  0  0  0  0  0  0  0  0  0
  157.3717  140.4433  182.9839 C   0  0  0  0  0  0  0  0  0  0  0  0
  159.3885  141.9357  181.9607 C   0  0  0  0  0  0  0  0  0  0  0  0
  158.0409  142.1944  181.3172 C   0  0  0  0  0  0  0  0  0  0  0  0
  157.7602  143.6732  181.4450 C   0  0  0  0  0  0  0  0  0  0  0  0
  158.0404  141.8109  179.8513 C   0  0  0  0  0  0  0  0  0  0  0  0
  152.7572  137.0969  184.5564 C   0  0  0  0  0  0  0  0  0  0  0  0
  153.2158  136.6249  185.8851 C   0  0  0  0  0  0  0  0  0  0  0  0
  154.4158  135.8863  185.9376 C   0  0  0  0  0  0  0  0  0  0  0  0
  154.9188  135.4429  187.1329 C   0  0  0  0  0  0  0  0  0  0  0  0
  154.2900  135.6878  188.3521 C   0  0  0  0  0  0  0  0  0  0  0  0
  153.1139  136.4085  188.3100 C   0  0  0  0  0  0  0  0  0  0  0  0
  152.4636  136.6801  189.4700 F   0  0  0  0  0  0  0  0  0  0  0  0
  152.6057  136.8583  187.0856 C   0  0  0  0  0  0  0  0  0  0  0  0
  154.8828  135.2045  189.5837 C   0  0  0  0  0  0  0  0  0  0  0  0
  155.9297  135.7774  189.9958 O   0  0  0  0  0  0  0  0  0  0  0  0
  154.3303  134.1655  190.2808 O   0  0  0  0  0  0  0  0  0  0  0  0
  153.5982  134.2544  190.9939 H   0  0  0  0  0  0  0  0  0  0  0  0
 11 12  1  0  0  0
 12 13  1  0  0  0
 12 14  1  0  0  0
 12  5  1  0  0  0
  5  6  2  0  0  0
  6  7  1  0  0  0
  7  8  2  0  0  0
  8  1  1  0  0  0
  1  2  2  0  0  0
  1  3  1  0  0  0
  3 15  1  0  0  0
 15 16  1  0  0  0
 16 17  2  0  0  0
 17 18  1  0  0  0
 18 19  2  0  0  0
 19 23  1  0  0  0
 23 24  2  0  0  0
 23 25  1  0  0  0
 19 20  1  0  0  0
 20 21  1  0  0  0
 20 22  2  0  0  0
  8  9  1  0  0  0
  9 10  2  0  0  0
 10  5  1  0  0  0
 22 16  1  0  0  0
  3  4  1  0  0  0
 25 26  1  0  0  0
M  END
> <minimizedAffinity>
-5.77226

> <CNNscore>
0.3362921774

> <CNNaffinity>
4.9962072372

> <CNN_VS>
1.6801854372

> <CNNaffinity_variance>
0.2161659747

$$$$
[H]OC(=O)c1c([H])c([H])c(C([H])([H])N([H])C(=O)c2c([H])c([H])c(C(C([H])([H])[H])(C([H])([H])[H])C([H])([H])[H])c([H])c2[H])c([H])c1F


 26 27  0  0  0  0  0  0  0  0999 V2000
  153.9215  139.8932  183.1894 C   0  0  0  0  0  0  0  0  0  0  0  0
  153.6238  139.4504  184.3378 O   0  0  0  0  0  0  0  0  0  0  0  0
  152.9916  139.7692  182.1501 N   0  0  0  0  0  0  0  0  0  0  0  0
  153.2672  140.1634  181.1985 H   0  0  0  0  0  0  0  0  0  0  0  0
  157.6924  141.7343  182.4077 C   0  0  0  0  0  0  0  0  0  0  0  0
  157.5860  140.6243  183.2241 C   0  0  0  0  0  0  0  0  0  0  0  0
  156.3724  140.0267  183.4904 C   0  0  0  0  0  0  0  0  0  0  0  0
  155.2092  140.5251  182.9446 C   0  0  0  0  0  0  0  0  0  0  0  0
  155.2713  141.6230  182.1325 C   0  0  0  0  0  0  0  0  0  0  0  0
  156.5157  142.2043  181.8815 C   0  0  0  0  0  0  0  0  0  0  0  0
  160.0882  141.5510  182.7666 C   0  0  0  0  0  0  0  0  0  0  0  0
  159.0068  142.3877  182.1127 C   0  0  0  0  0  0  0  0  0  0  0  0
  159.0463  143.7535  182.7569 C   0  0  0  0  0  0  0  0  0  0  0  0
  159.2383  142.5318  180.6222 C   0  0  0  0  0  0  0  0  0  0  0  0
  151.6851  139.1852  182.2156 C   0  0  0  0  0  0  0  0  0  0  0  0
  151.7200  137.7115  182.3749 C   0  0  0  0  0  0  0  0  0  0  0  0
  150.8764  137.1395  183.3493 C   0  0  0  0  0  0  0  0  0  0  0  0
  150.8310  135.7822  183.5333 C   0  0  0  0  0  0  0  0  0  0  0  0
  151.6007  134.8943  182.7842 C   0  0  0  0  0  0  0  0  0  0  0  0
  152.4306  135.4455  181.8293 C   0  0  0  0  0  0  0  0  0  0  0  0
  153.1978  134.6248  181.0676 F   0  0  0  0  0  0  0  0  0  0  0  0
  152.4720  136.8328  181.6467 C   0  0  0  0  0  0  0  0  0  0  0  0
  151.4944  133.4674  183.0174 C   0  0  0  0  0  0  0  0  0  0  0  0
  150.4037  132.9038  182.7227 O   0  0  0  0  0  0  0  0  0  0  0  0
  152.5372  132.7505  183.5365 O   0  0  0  0  0  0  0  0  0  0  0  0
  153.2923  132.3236  182.9889 H   0  0  0  0  0  0  0  0  0  0  0  0
 11 12  1  0  0  0
 12 13  1  0  0  0
 12 14  1  0  0  0
 12  5  1  0  0  0
  5  6  2  0  0  0
  6  7  1  0  0  0
  7  8  2  0  0  0
  8  1  1  0  0  0
  1  2  2  0  0  0
  1  3  1  0  0  0
  3 15  1  0  0  0
 15 16  1  0  0  0
 16 17  2  0  0  0
 17 18  1  0  0  0
 18 19  2  0  0  0
 19 23  1  0  0  0
 23 24  2  0  0  0
 23 25  1  0  0  0
 19 20  1  0  0  0
 20 21  1  0  0  0
 20 22  2  0  0  0
  8  9  1  0  0  0
  9 10  2  0  0  0
 10  5  1  0  0  0
 22 16  1  0  0  0
  3  4  1  0  0  0
 25 26  1  0  0  0
M  END
> <minimizedAffinity>
-5.78818

> <CNNscore>
0.3337909877

> <CNNaffinity>
5.4155440331

> <CNN_VS>
1.8076597452

> <CNNaffinity_variance>
0.5518985391

$$$$
[H]OC(=O)c1c([H])c([H])c(C([H])([H])N([H])C(=O)c2c([H])c([H])c(C(C([H])([H])[H])(C([H])([H])[H])C([H])([H])[H])c([H])c2[H])c([H])c1F


 26 27  0  0  0  0  0  0  0  0999 V2000
  155.4783  138.4947  185.4766 C   0  0  0  0  0  0  0  0  0  0  0  0
  155.9304  138.3157  186.6458 O   0  0  0  0  0  0  0  0  0  0  0  0
  154.4860  137.6344  184.9913 N   0  0  0  0  0  0  0  0  0  0  0  0
  154.1172  137.8195  184.0082 H   0  0  0  0  0  0  0  0  0  0  0  0
  156.9518  141.7076  183.0835 C   0  0  0  0  0  0  0  0  0  0  0  0
  155.6421  141.2771  182.9874 C   0  0  0  0  0  0  0  0  0  0  0  0
  155.1577  140.2349  183.7490 C   0  0  0  0  0  0  0  0  0  0  0  0
  155.9762  139.5782  184.6425 C   0  0  0  0  0  0  0  0  0  0  0  0
  157.2792  139.9726  184.7665 C   0  0  0  0  0  0  0  0  0  0  0  0
  157.7387  141.0322  183.9817 C   0  0  0  0  0  0  0  0  0  0  0  0
  156.4088  143.9054  182.2021 C   0  0  0  0  0  0  0  0  0  0  0  0
  157.4846  142.8394  182.2608 C   0  0  0  0  0  0  0  0  0  0  0  0
  157.7231  142.3657  180.8464 C   0  0  0  0  0  0  0  0  0  0  0  0
  158.7788  143.3843  182.8299 C   0  0  0  0  0  0  0  0  0  0  0  0
  153.8816  136.5293  185.6739 C   0  0  0  0  0  0  0  0  0  0  0  0
  152.4114  136.6683  185.8064 C   0  0  0  0  0  0  0  0  0  0  0  0
  151.8510  136.4885  187.0878 C   0  0  0  0  0  0  0  0  0  0  0  0
  150.5037  136.6314  187.2943 C   0  0  0  0  0  0  0  0  0  0  0  0
  149.6152  136.9575  186.2714 C   0  0  0  0  0  0  0  0  0  0  0  0
  150.1548  137.1336  185.0135 C   0  0  0  0  0  0  0  0  0  0  0  0
  149.3342  137.4581  183.9822 F   0  0  0  0  0  0  0  0  0  0  0  0
  151.5319  136.9860  184.8097 C   0  0  0  0  0  0  0  0  0  0  0  0
  148.2025  137.1097  186.5592 C   0  0  0  0  0  0  0  0  0  0  0  0
  147.5287  136.0619  186.7639 O   0  0  0  0  0  0  0  0  0  0  0  0
  147.6147  138.3436  186.6106 O   0  0  0  0  0  0  0  0  0  0  0  0
  147.5647  138.9408  187.4432 H   0  0  0  0  0  0  0  0  0  0  0  0
 11 12  1  0  0  0
 12 13  1  0  0  0
 12 14  1  0  0  0
 12  5  1  0  0  0
  5  6  2  0  0  0
  6  7  1  0  0  0
  7  8  2  0  0  0
  8  1  1  0  0  0
  1  2  2  0  0  0
  1  3  1  0  0  0
  3 15  1  0  0  0
 15 16  1  0  0  0
 16 17  2  0  0  0
 17 18  1  0  0  0
 18 19  2  0  0  0
 19 23  1  0  0  0
 23 24  2  0  0  0
 23 25  1  0  0  0
 19 20  1  0  0  0
 20 21  1  0  0  0
 20 22  2  0  0  0
  8  9  1  0  0  0
  9 10  2  0  0  0
 10  5  1  0  0  0
 22 16  1  0  0  0
  3  4  1  0  0  0
 25 26  1  0  0  0
M  END
> <minimizedAffinity>
-6.14421

> <CNNscore>
0.3297227919

> <CNNaffinity>
5.1120624542

> <CNN_VS>
1.6855635643

> <CNNaffinity_variance>
0.2048397064

$$$$
[H]OC(=O)c1c([H])c([H])c(C([H])([H])N([H])C(=O)c2c([H])c([H])c(C(C([H])([H])[H])(C([H])([H])[H])C([H])([H])[H])c([H])c2[H])c([H])c1F


 26 27  0  0  0  0  0  0  0  0999 V2000
  154.3239  139.5984  183.8788 C   0  0  0  0  0  0  0  0  0  0  0  0
  153.2350  139.2814  183.3157 O   0  0  0  0  0  0  0  0  0  0  0  0
  154.5375  139.2195  185.2097 N   0  0  0  0  0  0  0  0  0  0  0  0
  155.4695  139.4903  185.6511 H   0  0  0  0  0  0  0  0  0  0  0  0
  157.3475  141.8046  181.8268 C   0  0  0  0  0  0  0  0  0  0  0  0
  156.0093  142.1270  181.7039 C   0  0  0  0  0  0  0  0  0  0  0  0
  155.0237  141.4161  182.3550 C   0  0  0  0  0  0  0  0  0  0  0  0
  155.3456  140.3446  183.1599 C   0  0  0  0  0  0  0  0  0  0  0  0
  156.6582  139.9923  183.3068 C   0  0  0  0  0  0  0  0  0  0  0  0
  157.6326  140.7331  182.6348 C   0  0  0  0  0  0  0  0  0  0  0  0
  159.7539  142.1031  181.6777 C   0  0  0  0  0  0  0  0  0  0  0  0
  158.4235  142.5727  181.1240 C   0  0  0  0  0  0  0  0  0  0  0  0
  158.2935  144.0407  181.4557 C   0  0  0  0  0  0  0  0  0  0  0  0
  158.3500  142.3919  179.6214 C   0  0  0  0  0  0  0  0  0  0  0  0
  153.6494  138.4825  186.0585 C   0  0  0  0  0  0  0  0  0  0  0  0
  154.3040  138.0030  187.2995 C   0  0  0  0  0  0  0  0  0  0  0  0
  153.6578  138.2700  188.5241 C   0  0  0  0  0  0  0  0  0  0  0  0
  154.1864  137.8316  189.7102 C   0  0  0  0  0  0  0  0  0  0  0  0
  155.3745  137.1071  189.7834 C   0  0  0  0  0  0  0  0  0  0  0  0
  156.0146  136.8427  188.5898 C   0  0  0  0  0  0  0  0  0  0  0  0
  157.1729  136.1353  188.6039 F   0  0  0  0  0  0  0  0  0  0  0  0
  155.4692  137.2935  187.3819 C   0  0  0  0  0  0  0  0  0  0  0  0
  155.8721  136.6584  191.0690 C   0  0  0  0  0  0  0  0  0  0  0  0
  156.6660  137.4191  191.6894 O   0  0  0  0  0  0  0  0  0  0  0  0
  155.4962  135.4543  191.5979 O   0  0  0  0  0  0  0  0  0  0  0  0
  154.6642  135.2964  192.1768 H   0  0  0  0  0  0  0  0  0  0  0  0
 11 12  1  0  0  0
 12 13  1  0  0  0
 12 14  1  0  0  0
 12  5  1  0  0  0
  5  6  2  0  0  0
  6  7  1  0  0  0
  7  8  2  0  0  0
  8  1  1  0  0  0
  1  2  2  0  0  0
  1  3  1  0  0  0
  3 15  1  0  0  0
 15 16  1  0  0  0
 16 17  2  0  0  0
 17 18  1  0  0  0
 18 19  2  0  0  0
 19 23  1  0  0  0
 23 24  2  0  0  0
 23 25  1  0  0  0
 19 20  1  0  0  0
 20 21  1  0  0  0
 20 22  2  0  0  0
  8  9  1  0  0  0
  9 10  2  0  0  0
 10  5  1  0  0  0
 22 16  1  0  0  0
  3  4  1  0  0  0
 25 26  1  0  0  0
M  END
> <minimizedAffinity>
-7.41810

> <CNNscore>
0.3287416995

> <CNNaffinity>
5.1363296509

> <CNN_VS>
1.6885257959

> <CNNaffinity_variance>
0.0701188594

$$$$
[H]OC(=O)c1c([H])c([H])c(C([H])([H])N([H])C(=O)c2c([H])c([H])c(C(C([H])([H])[H])(C([H])([H])[H])C([H])([H])[H])c([H])c2[H])c([H])c1F


 26 27  0  0  0  0  0  0  0  0999 V2000
  155.0022  139.1848  184.3443 C   0  0  0  0  0  0  0  0  0  0  0  0
  154.1545  138.6279  183.5863 O   0  0  0  0  0  0  0  0  0  0  0  0
  155.0951  138.7735  185.6795 N   0  0  0  0  0  0  0  0  0  0  0  0
  155.8274  139.2529  186.2884 H   0  0  0  0  0  0  0  0  0  0  0  0
  157.5164  142.2807  182.8229 C   0  0  0  0  0  0  0  0  0  0  0  0
  157.9755  140.9858  182.9730 C   0  0  0  0  0  0  0  0  0  0  0  0
  157.1750  139.9800  183.4714 C   0  0  0  0  0  0  0  0  0  0  0  0
  155.8730  140.2373  183.8429 C   0  0  0  0  0  0  0  0  0  0  0  0
  155.3810  141.5059  183.7114 C   0  0  0  0  0  0  0  0  0  0  0  0
  156.2166  142.5020  183.2024 C   0  0  0  0  0  0  0  0  0  0  0  0
  158.9238  142.9116  180.9458 C   0  0  0  0  0  0  0  0  0  0  0  0
  158.3792  143.3779  182.2811 C   0  0  0  0  0  0  0  0  0  0  0  0
  159.5611  143.5888  183.1979 C   0  0  0  0  0  0  0  0  0  0  0  0
  157.6128  144.6781  182.1472 C   0  0  0  0  0  0  0  0  0  0  0  0
  154.3268  137.7561  186.3328 C   0  0  0  0  0  0  0  0  0  0  0  0
  155.0853  137.0549  187.3964 C   0  0  0  0  0  0  0  0  0  0  0  0
  155.2536  135.6608  187.2682 C   0  0  0  0  0  0  0  0  0  0  0  0
  155.9689  134.9489  188.1955 C   0  0  0  0  0  0  0  0  0  0  0  0
  156.5658  135.5439  189.3052 C   0  0  0  0  0  0  0  0  0  0  0  0
  156.4048  136.9079  189.4397 C   0  0  0  0  0  0  0  0  0  0  0  0
  156.9709  137.5386  190.4998 F   0  0  0  0  0  0  0  0  0  0  0  0
  155.6728  137.6289  188.4888 C   0  0  0  0  0  0  0  0  0  0  0  0
  157.3232  134.7365  190.2413 C   0  0  0  0  0  0  0  0  0  0  0  0
  156.9176  134.6865  191.4358 O   0  0  0  0  0  0  0  0  0  0  0  0
  158.4384  134.0485  189.8492 O   0  0  0  0  0  0  0  0  0  0  0  0
  158.4414  133.1004  189.4576 H   0  0  0  0  0  0  0  0  0  0  0  0
 11 12  1  0  0  0
 12 13  1  0  0  0
 12 14  1  0  0  0
 12  5  1  0  0  0
  5  6  2  0  0  0
  6  7  1  0  0  0
  7  8  2  0  0  0
  8  1  1  0  0  0
  1  2  2  0  0  0
  1  3  1  0  0  0
  3 15  1  0  0  0
 15 16  1  0  0  0
 16 17  2  0  0  0
 17 18  1  0  0  0
 18 19  2  0  0  0
 19 23  1  0  0  0
 23 24  2  0  0  0
 23 25  1  0  0  0
 19 20  1  0  0  0
 20 21  1  0  0  0
 20 22  2  0  0  0
  8  9  1  0  0  0
  9 10  2  0  0  0
 10  5  1  0  0  0
 22 16  1  0  0  0
  3  4  1  0  0  0
 25 26  1  0  0  0
M  END
> <minimizedAffinity>
-6.58344

> <CNNscore>
0.3140513003

> <CNNaffinity>
5.1962323189

> <CNN_VS>
1.6318835020

> <CNNaffinity_variance>
0.0950810164

$$$$
[H]OC(=O)c1c([H])c([H])c(C([H])([H])N([H])C(=O)c2c([H])c([H])c(C(C([H])([H])[H])(C([H])([H])[H])C([H])([H])[H])c([H])c2[H])c([H])c1F


 26 27  0  0  0  0  0  0  0  0999 V2000
  154.3831  139.5802  183.9209 C   0  0  0  0  0  0  0  0  0  0  0  0
  153.4972  139.1711  183.1140 O   0  0  0  0  0  0  0  0  0  0  0  0
  154.4226  139.0483  185.2155 N   0  0  0  0  0  0  0  0  0  0  0  0
  155.1883  139.4041  185.8666 H   0  0  0  0  0  0  0  0  0  0  0  0
  157.1893  142.5483  182.6813 C   0  0  0  0  0  0  0  0  0  0  0  0
  157.5550  141.2232  182.8235 C   0  0  0  0  0  0  0  0  0  0  0  0
  156.6594  140.2577  183.2315 C   0  0  0  0  0  0  0  0  0  0  0  0
  155.3520  140.5878  183.5164 C   0  0  0  0  0  0  0  0  0  0  0  0
  154.9503  141.8883  183.3896 C   0  0  0  0  0  0  0  0  0  0  0  0
  155.8813  142.8421  182.9732 C   0  0  0  0  0  0  0  0  0  0  0  0
  158.6898  143.1877  180.8808 C   0  0  0  0  0  0  0  0  0  0  0  0
  158.1558  143.6021  182.2373 C   0  0  0  0  0  0  0  0  0  0  0  0
  159.3295  143.6418  183.1875 C   0  0  0  0  0  0  0  0  0  0  0  0
  157.5075  144.9707  182.1869 C   0  0  0  0  0  0  0  0  0  0  0  0
  153.5573  138.0529  185.7747 C   0  0  0  0  0  0  0  0  0  0  0  0
  154.1314  136.6875  185.7090 C   0  0  0  0  0  0  0  0  0  0  0  0
  154.8096  136.2083  186.8486 C   0  0  0  0  0  0  0  0  0  0  0  0
  155.3401  134.9449  186.8738 C   0  0  0  0  0  0  0  0  0  0  0  0
  155.2465  134.0669  185.7957 C   0  0  0  0  0  0  0  0  0  0  0  0
  154.5858  134.5282  184.6754 C   0  0  0  0  0  0  0  0  0  0  0  0
  154.4610  133.7111  183.5988 F   0  0  0  0  0  0  0  0  0  0  0  0
  154.0464  135.8199  184.6564 C   0  0  0  0  0  0  0  0  0  0  0  0
  155.8156  132.7371  185.8921 C   0  0  0  0  0  0  0  0  0  0  0  0
  156.9929  132.5700  185.4679 O   0  0  0  0  0  0  0  0  0  0  0  0
  155.1071  131.6956  186.4253 O   0  0  0  0  0  0  0  0  0  0  0  0
  155.0732  131.4516  187.4211 H   0  0  0  0  0  0  0  0  0  0  0  0
 11 12  1  0  0  0
 12 13  1  0  0  0
 12 14  1  0  0  0
 12  5  1  0  0  0
  5  6  2  0  0  0
  6  7  1  0  0  0
  7  8  2  0  0  0
  8  1  1  0  0  0
  1  2  2  0  0  0
  1  3  1  0  0  0
  3 15  1  0  0  0
 15 16  1  0  0  0
 16 17  2  0  0  0
 17 18  1  0  0  0
 18 19  2  0  0  0
 19 23  1  0  0  0
 23 24  2  0  0  0
 23 25  1  0  0  0
 19 20  1  0  0  0
 20 21  1  0  0  0
 20 22  2  0  0  0
  8  9  1  0  0  0
  9 10  2  0  0  0
 10  5  1  0  0  0
 22 16  1  0  0  0
  3  4  1  0  0  0
 25 26  1  0  0  0
M  END
> <minimizedAffinity>
-5.60378

> <CNNscore>
0.3102152646

> <CNNaffinity>
5.1512351036

> <CNN_VS>
1.5979917049

> <CNNaffinity_variance>
0.2176236361

$$$$
[H]OC(=O)c1c([H])c([H])c(C([H])([H])N([H])C(=O)c2c([H])c([H])c(C(C([H])([H])[H])(C([H])([H])[H])C([H])([H])[H])c([H])c2[H])c([H])c1F


 26 27  0  0  0  0  0  0  0  0999 V2000
  154.0267  139.4159  183.9084 C   0  0  0  0  0  0  0  0  0  0  0  0
  153.1122  139.1167  183.0853 O   0  0  0  0  0  0  0  0  0  0  0  0
  153.9632  138.9070  185.2112 N   0  0  0  0  0  0  0  0  0  0  0  0
  154.7551  139.1669  185.8763 H   0  0  0  0  0  0  0  0  0  0  0  0
  157.2700  141.9641  182.8092 C   0  0  0  0  0  0  0  0  0  0  0  0
  156.0757  141.9745  182.1139 C   0  0  0  0  0  0  0  0  0  0  0  0
  155.0247  141.1498  182.4547 C   0  0  0  0  0  0  0  0  0  0  0  0
  155.1333  140.2746  183.5138 C   0  0  0  0  0  0  0  0  0  0  0  0
  156.2990  140.2326  184.2265 C   0  0  0  0  0  0  0  0  0  0  0  0
  157.3443  141.0814  183.8568 C   0  0  0  0  0  0  0  0  0  0  0  0
  159.0934  142.2574  181.2308 C   0  0  0  0  0  0  0  0  0  0  0  0
  158.4152  142.8577  182.4460 C   0  0  0  0  0  0  0  0  0  0  0  0
  159.4271  142.8610  183.5677 C   0  0  0  0  0  0  0  0  0  0  0  0
  157.9559  144.2775  182.1836 C   0  0  0  0  0  0  0  0  0  0  0  0
  152.9573  138.0491  185.7629 C   0  0  0  0  0  0  0  0  0  0  0  0
  153.1908  137.7323  187.1924 C   0  0  0  0  0  0  0  0  0  0  0  0
  154.1938  138.4584  187.8671 C   0  0  0  0  0  0  0  0  0  0  0  0
  154.4462  138.2430  189.1968 C   0  0  0  0  0  0  0  0  0  0  0  0
  153.7421  137.3101  189.9557 C   0  0  0  0  0  0  0  0  0  0  0  0
  152.7598  136.5936  189.3031 C   0  0  0  0  0  0  0  0  0  0  0  0
  152.0398  135.6760  189.9972 F   0  0  0  0  0  0  0  0  0  0  0  0
  152.5073  136.8186  187.9447 C   0  0  0  0  0  0  0  0  0  0  0  0
  154.0472  137.1415  191.3630 C   0  0  0  0  0  0  0  0  0  0  0  0
  153.1664  137.4843  192.2000 O   0  0  0  0  0  0  0  0  0  0  0  0
  155.2455  136.6272  191.7757 O   0  0  0  0  0  0  0  0  0  0  0  0
  155.4509  135.6294  191.8967 H   0  0  0  0  0  0  0  0  0  0  0  0
 11 12  1  0  0  0
 12 13  1  0  0  0
 12 14  1  0  0  0
 12  5  1  0  0  0
  5  6  2  0  0  0
  6  7  1  0  0  0
  7  8  2  0  0  0
  8  1  1  0  0  0
  1  2  2  0  0  0
  1  3  1  0  0  0
  3 15  1  0  0  0
 15 16  1  0  0  0
 16 17  2  0  0  0
 17 18  1  0  0  0
 18 19  2  0  0  0
 19 23  1  0  0  0
 23 24  2  0  0  0
 23 25  1  0  0  0
 19 20  1  0  0  0
 20 21  1  0  0  0
 20 22  2  0  0  0
  8  9  1  0  0  0
  9 10  2  0  0  0
 10  5  1  0  0  0
 22 16  1  0  0  0
  3  4  1  0  0  0
 25 26  1  0  0  0
M  END
> <minimizedAffinity>
-7.18028

> <CNNscore>
0.2982926965

> <CNNaffinity>
5.0742306709

> <CNN_VS>
1.5136059523

> <CNNaffinity_variance>
0.1033733636

$$$$
[H]Oc1c([H])c(O[H])c([H])c([C@@]([H])(O[H])C([H])([H])N([H])[C@@]([H])(C([H])([H])[H])C([H])([H])c2c([H])c([H])c(OC([H])([H])[H])c([H])c2[H])c1[H]


 27 28  0  0  0  0  0  0  0  0999 V2000
  156.0314  142.8017  183.1144 C   0  0  0  0  0  0  0  0  0  0  0  0
  154.7798  142.5333  182.3552 C   0  0  0  0  0  0  0  0  0  0  0  0
  153.7661  143.4594  182.8024 O   0  0  0  0  0  0  0  0  0  0  0  0
  153.5773  144.0273  182.0381 H   0  0  0  0  0  0  0  0  0  0  0  0
  154.1570  141.1990  182.6272 C   0  0  0  0  0  0  0  0  0  0  0  0
  154.4666  140.4219  183.7038 C   0  0  0  0  0  0  0  0  0  0  0  0
  153.8582  139.1809  183.9224 C   0  0  0  0  0  0  0  0  0  0  0  0
  154.1616  138.3802  185.0101 O   0  0  0  0  0  0  0  0  0  0  0  0
  152.9235  138.7471  183.0169 C   0  0  0  0  0  0  0  0  0  0  0  0
  152.5708  139.4849  181.9154 C   0  0  0  0  0  0  0  0  0  0  0  0
  151.6194  139.0123  181.0211 O   0  0  0  0  0  0  0  0  0  0  0  0
  153.1962  140.7010  181.7407 C   0  0  0  0  0  0  0  0  0  0  0  0
  153.5837  138.5487  185.8488 H   0  0  0  0  0  0  0  0  0  0  0  0
  150.6502  139.2841  181.2453 H   0  0  0  0  0  0  0  0  0  0  0  0
  157.2690  142.4873  182.5640 N   0  0  0  0  0  0  0  0  0  0  0  0
  157.8198  143.3023  182.1940 H   0  0  0  0  0  0  0  0  0  0  0  0
  157.6150  141.2395  182.0682 C   0  0  0  0  0  0  0  0  0  0  0  0
  158.4454  141.3057  180.8186 C   0  0  0  0  0  0  0  0  0  0  0  0
  158.1701  140.2477  183.0537 C   0  0  0  0  0  0  0  0  0  0  0  0
  160.5828  142.3763  185.9299 C   0  0  0  0  0  0  0  0  0  0  0  0
  159.3256  141.9076  186.2486 C   0  0  0  0  0  0  0  0  0  0  0  0
  158.5521  141.2217  185.3267 C   0  0  0  0  0  0  0  0  0  0  0  0
  159.0075  140.9763  184.0437 C   0  0  0  0  0  0  0  0  0  0  0  0
  160.2661  141.4451  183.7232 C   0  0  0  0  0  0  0  0  0  0  0  0
  161.0329  142.1296  184.6500 C   0  0  0  0  0  0  0  0  0  0  0  0
  162.7401  142.7545  187.0388 C   0  0  0  0  0  0  0  0  0  0  0  0
  161.3802  143.0687  186.8393 O   0  0  0  0  0  0  0  0  0  0  0  0
 26 27  1  0  0  0
 27 20  1  0  0  0
 20 21  2  0  0  0
 21 22  1  0  0  0
 22 23  2  0  0  0
 23 19  1  0  0  0
 19 17  1  0  0  0
 17 18  1  0  0  0
 17 15  1  0  0  0
 15  1  1  0  0  0
  1  2  1  0  0  0
  2  3  1  0  0  0
  2  5  1  0  0  0
  5  6  2  0  0  0
  6  7  1  0  0  0
  7  8  1  0  0  0
  7  9  2  0  0  0
  9 10  1  0  0  0
 10 11  1  0  0  0
 10 12  2  0  0  0
 23 24  1  0  0  0
 24 25  2  0  0  0
 25 20  1  0  0  0
 12  5  1  0  0  0
 15 16  1  0  0  0
  3  4  1  0  0  0
  8 13  1  0  0  0
 11 14  1  0  0  0
M  END
> <minimizedAffinity>
-8.00256

> <CNNscore>
0.5153001547

> <CNNaffinity>
5.8958868980

> <CNN_VS>
3.0381515026

> <CNNaffinity_variance>
0.0877396092

$$$$
[H]Oc1c([H])c(O[H])c([H])c([C@@]([H])(O[H])C([H])([H])N([H])[C@@]([H])(C([H])([H])[H])C([H])([H])c2c([H])c([H])c(OC([H])([H])[H])c([H])c2[H])c1[H]


 27 28  0  0  0  0  0  0  0  0999 V2000
  154.9430  141.2065  182.6205 C   0  0  0  0  0  0  0  0  0  0  0  0
  155.4315  142.5845  182.8986 C   0  0  0  0  0  0  0  0  0  0  0  0
  154.4666  143.5252  182.3796 O   0  0  0  0  0  0  0  0  0  0  0  0
  154.1024  143.9795  183.1564 H   0  0  0  0  0  0  0  0  0  0  0  0
  156.6876  142.9610  182.1754 C   0  0  0  0  0  0  0  0  0  0  0  0
  157.5401  143.9394  182.5935 C   0  0  0  0  0  0  0  0  0  0  0  0
  158.7062  144.2580  181.8887 C   0  0  0  0  0  0  0  0  0  0  0  0
  159.5816  145.2484  182.2997 O   0  0  0  0  0  0  0  0  0  0  0  0
  158.9863  143.5552  180.7445 C   0  0  0  0  0  0  0  0  0  0  0  0
  158.1668  142.5602  180.2749 C   0  0  0  0  0  0  0  0  0  0  0  0
  158.4844  141.8703  179.1125 O   0  0  0  0  0  0  0  0  0  0  0  0
  157.0292  142.2809  181.0017 C   0  0  0  0  0  0  0  0  0  0  0  0
  160.3315  144.9303  182.9341 H   0  0  0  0  0  0  0  0  0  0  0  0
  159.0618  141.0285  179.2595 H   0  0  0  0  0  0  0  0  0  0  0  0
  154.9401  140.2453  183.6252 N   0  0  0  0  0  0  0  0  0  0  0  0
  154.0041  140.0497  184.0613 H   0  0  0  0  0  0  0  0  0  0  0  0
  156.0508  139.8866  184.3736 C   0  0  0  0  0  0  0  0  0  0  0  0
  155.7503  138.8624  185.4301 C   0  0  0  0  0  0  0  0  0  0  0  0
  157.3029  139.5491  183.6111 C   0  0  0  0  0  0  0  0  0  0  0  0
  160.4747  142.1828  184.8871 C   0  0  0  0  0  0  0  0  0  0  0  0
  160.5247  141.5275  183.6747 C   0  0  0  0  0  0  0  0  0  0  0  0
  159.5054  140.6845  183.2634 C   0  0  0  0  0  0  0  0  0  0  0  0
  158.3908  140.4624  184.0521 C   0  0  0  0  0  0  0  0  0  0  0  0
  158.3394  141.1179  185.2663 C   0  0  0  0  0  0  0  0  0  0  0  0
  159.3619  141.9587  185.6701 C   0  0  0  0  0  0  0  0  0  0  0  0
  162.0357  142.9509  186.6191 C   0  0  0  0  0  0  0  0  0  0  0  0
  161.4868  143.0358  185.3232 O   0  0  0  0  0  0  0  0  0  0  0  0
 26 27  1  0  0  0
 27 20  1  0  0  0
 20 21  2  0  0  0
 21 22  1  0  0  0
 22 23  2  0  0  0
 23 19  1  0  0  0
 19 17  1  0  0  0
 17 18  1  0  0  0
 17 15  1  0  0  0
 15  1  1  0  0  0
  1  2  1  0  0  0
  2  3  1  0  0  0
  2  5  1  0  0  0
  5  6  2  0  0  0
  6  7  1  0  0  0
  7  8  1  0  0  0
  7  9  2  0  0  0
  9 10  1  0  0  0
 10 11  1  0  0  0
 10 12  2  0  0  0
 23 24  1  0  0  0
 24 25  2  0  0  0
 25 20  1  0  0  0
 12  5  1  0  0  0
 15 16  1  0  0  0
  3  4  1  0  0  0
  8 13  1  0  0  0
 11 14  1  0  0  0
M  END
> <minimizedAffinity>
-7.93240

> <CNNscore>
0.5083070993

> <CNNaffinity>
6.3411836624

> <CNN_VS>
3.2232687473

> <CNNaffinity_variance>
0.0870050862

$$$$
[H]Oc1c([H])c(O[H])c([H])c([C@@]([H])(O[H])C([H])([H])N([H])[C@@]([H])(C([H])([H])[H])C([H])([H])c2c([H])c([H])c(OC([H])([H])[H])c([H])c2[H])c1[H]


 27 28  0  0  0  0  0  0  0  0999 V2000
  154.9039  141.1996  182.7170 C   0  0  0  0  0  0  0  0  0  0  0  0
  155.4622  142.5615  182.9374 C   0  0  0  0  0  0  0  0  0  0  0  0
  154.5065  143.5310  182.4557 O   0  0  0  0  0  0  0  0  0  0  0  0
  154.2070  144.0141  183.2427 H   0  0  0  0  0  0  0  0  0  0  0  0
  156.6875  142.8728  182.1349 C   0  0  0  0  0  0  0  0  0  0  0  0
  157.0190  142.2343  180.9767 C   0  0  0  0  0  0  0  0  0  0  0  0
  158.1734  142.5584  180.2553 C   0  0  0  0  0  0  0  0  0  0  0  0
  158.5239  141.9195  179.0783 O   0  0  0  0  0  0  0  0  0  0  0  0
  158.9857  143.5512  180.7410 C   0  0  0  0  0  0  0  0  0  0  0  0
  158.7041  144.2289  181.9001 C   0  0  0  0  0  0  0  0  0  0  0  0
  159.5508  145.2288  182.3598 O   0  0  0  0  0  0  0  0  0  0  0  0
  157.5564  143.8758  182.5774 C   0  0  0  0  0  0  0  0  0  0  0  0
  158.1481  142.3526  178.2198 H   0  0  0  0  0  0  0  0  0  0  0  0
  159.3276  146.1725  182.0088 H   0  0  0  0  0  0  0  0  0  0  0  0
  154.9158  140.2603  183.7422 N   0  0  0  0  0  0  0  0  0  0  0  0
  153.9945  140.1043  184.2234 H   0  0  0  0  0  0  0  0  0  0  0  0
  156.0470  139.8817  184.4489 C   0  0  0  0  0  0  0  0  0  0  0  0
  155.7736  138.8390  185.4944 C   0  0  0  0  0  0  0  0  0  0  0  0
  157.2730  139.5527  183.6417 C   0  0  0  0  0  0  0  0  0  0  0  0
  160.4967  142.1468  184.8680 C   0  0  0  0  0  0  0  0  0  0  0  0
  160.5358  141.4636  183.6707 C   0  0  0  0  0  0  0  0  0  0  0  0
  159.5000  140.6333  183.2752 C   0  0  0  0  0  0  0  0  0  0  0  0
  158.3790  140.4525  184.0654 C   0  0  0  0  0  0  0  0  0  0  0  0
  158.3384  141.1359  185.2645 C   0  0  0  0  0  0  0  0  0  0  0  0
  159.3775  141.9638  185.6525 C   0  0  0  0  0  0  0  0  0  0  0  0
  162.0523  142.9373  186.5948 C   0  0  0  0  0  0  0  0  0  0  0  0
  161.5255  142.9878  185.2880 O   0  0  0  0  0  0  0  0  0  0  0  0
 26 27  1  0  0  0
 27 20  1  0  0  0
 20 21  2  0  0  0
 21 22  1  0  0  0
 22 23  2  0  0  0
 23 19  1  0  0  0
 19 17  1  0  0  0
 17 18  1  0  0  0
 17 15  1  0  0  0
 15  1  1  0  0  0
  1  2  1  0  0  0
  2  3  1  0  0  0
  2  5  1  0  0  0
  5  6  2  0  0  0
  6  7  1  0  0  0
  7  8  1  0  0  0
  7  9  2  0  0  0
  9 10  1  0  0  0
 10 11  1  0  0  0
 10 12  2  0  0  0
 23 24  1  0  0  0
 24 25  2  0  0  0
 25 20  1  0  0  0
 12  5  1  0  0  0
 15 16  1  0  0  0
  3  4  1  0  0  0
  8 13  1  0  0  0
 11 14  1  0  0  0
M  END
> <minimizedAffinity>
-7.92874

> <CNNscore>
0.5039249063

> <CNNaffinity>
6.3199739456

> <CNN_VS>
3.1847922802

> <CNNaffinity_variance>
0.0911675915

$$$$
[H]Oc1c([H])c(O[H])c([H])c([C@@]([H])(O[H])C([H])([H])N([H])[C@@]([H])(C([H])([H])[H])C([H])([H])c2c([H])c([H])c(OC([H])([H])[H])c([H])c2[H])c1[H]


 27 28  0  0  0  0  0  0  0  0999 V2000
  156.0619  142.8630  183.0681 C   0  0  0  0  0  0  0  0  0  0  0  0
  154.8054  142.6111  182.3111 C   0  0  0  0  0  0  0  0  0  0  0  0
  153.8013  143.5426  182.7686 O   0  0  0  0  0  0  0  0  0  0  0  0
  153.6149  144.1178  182.0092 H   0  0  0  0  0  0  0  0  0  0  0  0
  154.1718  141.2802  182.5755 C   0  0  0  0  0  0  0  0  0  0  0  0
  153.2884  140.6785  181.7291 C   0  0  0  0  0  0  0  0  0  0  0  0
  152.7210  139.4314  182.0132 C   0  0  0  0  0  0  0  0  0  0  0  0
  151.8227  138.8074  181.1647 O   0  0  0  0  0  0  0  0  0  0  0  0
  153.0748  138.8079  183.1827 C   0  0  0  0  0  0  0  0  0  0  0  0
  153.9585  139.3637  184.0728 C   0  0  0  0  0  0  0  0  0  0  0  0
  154.2926  138.7015  185.2467 O   0  0  0  0  0  0  0  0  0  0  0  0
  154.4921  140.5935  183.7513 C   0  0  0  0  0  0  0  0  0  0  0  0
  152.2504  138.1900  180.4563 H   0  0  0  0  0  0  0  0  0  0  0  0
  155.1051  138.0716  185.1653 H   0  0  0  0  0  0  0  0  0  0  0  0
  157.2924  142.5099  182.5255 N   0  0  0  0  0  0  0  0  0  0  0  0
  157.9023  143.3123  182.2274 H   0  0  0  0  0  0  0  0  0  0  0  0
  157.5747  141.2803  181.9505 C   0  0  0  0  0  0  0  0  0  0  0  0
  158.2883  141.3896  180.6336 C   0  0  0  0  0  0  0  0  0  0  0  0
  158.2040  140.2433  182.8403 C   0  0  0  0  0  0  0  0  0  0  0  0
  160.4250  142.2639  185.9401 C   0  0  0  0  0  0  0  0  0  0  0  0
  159.1670  141.7490  186.1725 C   0  0  0  0  0  0  0  0  0  0  0  0
  158.4550  141.0977  185.1787 C   0  0  0  0  0  0  0  0  0  0  0  0
  158.9755  140.9349  183.9073 C   0  0  0  0  0  0  0  0  0  0  0  0
  160.2351  141.4500  183.6732 C   0  0  0  0  0  0  0  0  0  0  0  0
  160.9401  142.0995  184.6715 C   0  0  0  0  0  0  0  0  0  0  0  0
  162.5682  142.8527  186.9827 C   0  0  0  0  0  0  0  0  0  0  0  0
  161.1613  142.9229  186.9229 O   0  0  0  0  0  0  0  0  0  0  0  0
 26 27  1  0  0  0
 27 20  1  0  0  0
 20 21  2  0  0  0
 21 22  1  0  0  0
 22 23  2  0  0  0
 23 19  1  0  0  0
 19 17  1  0  0  0
 17 18  1  0  0  0
 17 15  1  0  0  0
 15  1  1  0  0  0
  1  2  1  0  0  0
  2  3  1  0  0  0
  2  5  1  0  0  0
  5  6  2  0  0  0
  6  7  1  0  0  0
  7  8  1  0  0  0
  7  9  2  0  0  0
  9 10  1  0  0  0
 10 11  1  0  0  0
 10 12  2  0  0  0
 23 24  1  0  0  0
 24 25  2  0  0  0
 25 20  1  0  0  0
 12  5  1  0  0  0
 15 16  1  0  0  0
  3  4  1  0  0  0
  8 13  1  0  0  0
 11 14  1  0  0  0
M  END
> <minimizedAffinity>
-7.95995

> <CNNscore>
0.4950978756

> <CNNaffinity>
5.9073171616

> <CNN_VS>
2.9247002602

> <CNNaffinity_variance>
0.1045806780

$$$$
[H]Oc1c([H])c(O[H])c([H])c([C@@]([H])(O[H])C([H])([H])N([H])[C@@]([H])(C([H])([H])[H])C([H])([H])c2c([H])c([H])c(OC([H])([H])[H])c([H])c2[H])c1[H]


 27 28  0  0  0  0  0  0  0  0999 V2000
  152.7354  140.1490  181.7426 C   0  0  0  0  0  0  0  0  0  0  0  0
  152.2168  139.1514  180.7673 C   0  0  0  0  0  0  0  0  0  0  0  0
  152.5450  139.6010  179.4349 O   0  0  0  0  0  0  0  0  0  0  0  0
  153.1738  138.9480  179.0876 H   0  0  0  0  0  0  0  0  0  0  0  0
  150.7244  139.0367  180.7233 C   0  0  0  0  0  0  0  0  0  0  0  0
  149.9137  139.2608  181.7963 C   0  0  0  0  0  0  0  0  0  0  0  0
  148.5218  139.1454  181.7112 C   0  0  0  0  0  0  0  0  0  0  0  0
  147.6852  139.3694  182.7912 O   0  0  0  0  0  0  0  0  0  0  0  0
  147.9715  138.7956  180.5044 C   0  0  0  0  0  0  0  0  0  0  0  0
  148.7358  138.5581  179.3902 C   0  0  0  0  0  0  0  0  0  0  0  0
  148.1418  138.2065  178.1854 O   0  0  0  0  0  0  0  0  0  0  0  0
  150.1024  138.6835  179.5211 C   0  0  0  0  0  0  0  0  0  0  0  0
  147.3637  140.3447  182.8973 H   0  0  0  0  0  0  0  0  0  0  0  0
  147.8960  139.0053  177.5812 H   0  0  0  0  0  0  0  0  0  0  0  0
  153.9804  139.9714  182.3354 N   0  0  0  0  0  0  0  0  0  0  0  0
  154.7578  139.6997  181.6823 H   0  0  0  0  0  0  0  0  0  0  0  0
  154.1787  139.6811  183.6766 C   0  0  0  0  0  0  0  0  0  0  0  0
  153.5290  138.3982  184.1097 C   0  0  0  0  0  0  0  0  0  0  0  0
  155.5864  139.7948  184.1948 C   0  0  0  0  0  0  0  0  0  0  0  0
  157.6774  142.7376  181.8301 C   0  0  0  0  0  0  0  0  0  0  0  0
  156.7657  143.1046  182.7974 C   0  0  0  0  0  0  0  0  0  0  0  0
  156.0965  142.1605  183.5588 C   0  0  0  0  0  0  0  0  0  0  0  0
  156.3138  140.8058  183.3818 C   0  0  0  0  0  0  0  0  0  0  0  0
  157.2265  140.4369  182.4135 C   0  0  0  0  0  0  0  0  0  0  0  0
  157.8911  141.3864  181.6570 C   0  0  0  0  0  0  0  0  0  0  0  0
  159.0187  144.7824  181.6140 C   0  0  0  0  0  0  0  0  0  0  0  0
  158.3633  143.6680  181.0515 O   0  0  0  0  0  0  0  0  0  0  0  0
 26 27  1  0  0  0
 27 20  1  0  0  0
 20 21  2  0  0  0
 21 22  1  0  0  0
 22 23  2  0  0  0
 23 19  1  0  0  0
 19 17  1  0  0  0
 17 18  1  0  0  0
 17 15  1  0  0  0
 15  1  1  0  0  0
  1  2  1  0  0  0
  2  3  1  0  0  0
  2  5  1  0  0  0
  5  6  2  0  0  0
  6  7  1  0  0  0
  7  8  1  0  0  0
  7  9  2  0  0  0
  9 10  1  0  0  0
 10 11  1  0  0  0
 10 12  2  0  0  0
 23 24  1  0  0  0
 24 25  2  0  0  0
 25 20  1  0  0  0
 12  5  1  0  0  0
 15 16  1  0  0  0
  3  4  1  0  0  0
  8 13  1  0  0  0
 11 14  1  0  0  0
M  END
> <minimizedAffinity>
-6.66821

> <CNNscore>
0.4793972373

> <CNNaffinity>
5.1321406364

> <CNN_VS>
2.4603340626

> <CNNaffinity_variance>
0.0317143239

$$$$
[H]Oc1c([H])c(O[H])c([H])c([C@@]([H])(O[H])C([H])([H])N([H])[C@@]([H])(C([H])([H])[H])C([H])([H])c2c([H])c([H])c(OC([H])([H])[H])c([H])c2[H])c1[H]


 27 28  0  0  0  0  0  0  0  0999 V2000
  154.9179  140.2505  182.6190 C   0  0  0  0  0  0  0  0  0  0  0  0
  153.5800  139.9577  183.2015 C   0  0  0  0  0  0  0  0  0  0  0  0
  153.7178  138.8680  184.1390 O   0  0  0  0  0  0  0  0  0  0  0  0
  153.5175  139.2473  185.0099 H   0  0  0  0  0  0  0  0  0  0  0  0
  152.5736  139.4329  182.2247 C   0  0  0  0  0  0  0  0  0  0  0  0
  151.8043  138.3293  182.4464 C   0  0  0  0  0  0  0  0  0  0  0  0
  150.8725  137.8739  181.5071 C   0  0  0  0  0  0  0  0  0  0  0  0
  150.0843  136.7554  181.7169 O   0  0  0  0  0  0  0  0  0  0  0  0
  150.7406  138.5700  180.3325 C   0  0  0  0  0  0  0  0  0  0  0  0
  151.4864  139.6871  180.0535 C   0  0  0  0  0  0  0  0  0  0  0  0
  151.3240  140.3658  178.8530 O   0  0  0  0  0  0  0  0  0  0  0  0
  152.3918  140.0989  181.0081 C   0  0  0  0  0  0  0  0  0  0  0  0
  149.1792  136.9413  182.1776 H   0  0  0  0  0  0  0  0  0  0  0  0
  150.6120  141.1115  178.8768 H   0  0  0  0  0  0  0  0  0  0  0  0
  155.8528  140.9857  183.3393 N   0  0  0  0  0  0  0  0  0  0  0  0
  155.4577  141.7402  183.9550 H   0  0  0  0  0  0  0  0  0  0  0  0
  157.1879  141.1180  182.9895 C   0  0  0  0  0  0  0  0  0  0  0  0
  157.6720  142.5394  183.0180 C   0  0  0  0  0  0  0  0  0  0  0  0
  158.1604  140.1852  183.6581 C   0  0  0  0  0  0  0  0  0  0  0  0
  160.9979  142.5449  185.8952 C   0  0  0  0  0  0  0  0  0  0  0  0
  159.7442  142.2600  186.3939 C   0  0  0  0  0  0  0  0  0  0  0  0
  158.8342  141.5000  185.6776 C   0  0  0  0  0  0  0  0  0  0  0  0
  159.1436  140.9928  184.4283 C   0  0  0  0  0  0  0  0  0  0  0  0
  160.3986  141.2773  183.9277 C   0  0  0  0  0  0  0  0  0  0  0  0
  161.3022  142.0374  184.6497 C   0  0  0  0  0  0  0  0  0  0  0  0
  163.0565  142.7305  187.2198 C   0  0  0  0  0  0  0  0  0  0  0  0
  161.9309  143.3067  186.5962 O   0  0  0  0  0  0  0  0  0  0  0  0
 26 27  1  0  0  0
 27 20  1  0  0  0
 20 21  2  0  0  0
 21 22  1  0  0  0
 22 23  2  0  0  0
 23 19  1  0  0  0
 19 17  1  0  0  0
 17 18  1  0  0  0
 17 15  1  0  0  0
 15  1  1  0  0  0
  1  2  1  0  0  0
  2  3  1  0  0  0
  2  5  1  0  0  0
  5  6  2  0  0  0
  6  7  1  0  0  0
  7  8  1  0  0  0
  7  9  2  0  0  0
  9 10  1  0  0  0
 10 11  1  0  0  0
 10 12  2  0  0  0
 23 24  1  0  0  0
 24 25  2  0  0  0
 25 20  1  0  0  0
 12  5  1  0  0  0
 15 16  1  0  0  0
  3  4  1  0  0  0
  8 13  1  0  0  0
 11 14  1  0  0  0
M  END
> <minimizedAffinity>
-7.43249

> <CNNscore>
0.4163040221

> <CNNaffinity>
5.4231100082

> <CNN_VS>
2.2576625347

> <CNNaffinity_variance>
0.2592994869

$$$$
[H]Oc1c([H])c(O[H])c([H])c([C@@]([H])(O[H])C([H])([H])N([H])[C@@]([H])(C([H])([H])[H])C([H])([H])c2c([H])c([H])c(OC([H])([H])[H])c([H])c2[H])c1[H]


 27 28  0  0  0  0  0  0  0  0999 V2000
  152.5082  138.0458  183.1451 C   0  0  0  0  0  0  0  0  0  0  0  0
  152.3739  138.2812  181.6817 C   0  0  0  0  0  0  0  0  0  0  0  0
  153.0411  139.5194  181.3545 O   0  0  0  0  0  0  0  0  0  0  0  0
  153.7915  139.2696  180.7916 H   0  0  0  0  0  0  0  0  0  0  0  0
  150.9724  138.5228  181.2129 C   0  0  0  0  0  0  0  0  0  0  0  0
  150.5849  138.4484  179.9078 C   0  0  0  0  0  0  0  0  0  0  0  0
  149.2627  138.6790  179.5123 C   0  0  0  0  0  0  0  0  0  0  0  0
  148.8535  138.6075  178.1918 O   0  0  0  0  0  0  0  0  0  0  0  0
  148.3398  138.9878  180.4791 C   0  0  0  0  0  0  0  0  0  0  0  0
  148.6702  139.0767  181.8077 C   0  0  0  0  0  0  0  0  0  0  0  0
  147.7075  139.3914  182.7576 O   0  0  0  0  0  0  0  0  0  0  0  0
  149.9846  138.8417  182.1506 C   0  0  0  0  0  0  0  0  0  0  0  0
  148.5361  137.6743  177.8847 H   0  0  0  0  0  0  0  0  0  0  0  0
  147.2181  138.5758  183.1562 H   0  0  0  0  0  0  0  0  0  0  0  0
  153.7654  137.9992  183.7374 N   0  0  0  0  0  0  0  0  0  0  0  0
  154.2290  137.0560  183.7409 H   0  0  0  0  0  0  0  0  0  0  0  0
  154.2285  138.9121  184.6725 C   0  0  0  0  0  0  0  0  0  0  0  0
  153.6519  138.7033  186.0434 C   0  0  0  0  0  0  0  0  0  0  0  0
  155.7150  139.1379  184.7222 C   0  0  0  0  0  0  0  0  0  0  0  0
  156.6160  142.9313  182.8720 C   0  0  0  0  0  0  0  0  0  0  0  0
  157.6146  142.0806  183.2973 C   0  0  0  0  0  0  0  0  0  0  0  0
  157.3259  140.8615  183.8884 C   0  0  0  0  0  0  0  0  0  0  0  0
  156.0210  140.4434  184.0785 C   0  0  0  0  0  0  0  0  0  0  0  0
  155.0201  141.2942  183.6530 C   0  0  0  0  0  0  0  0  0  0  0  0
  155.3168  142.5106  183.0633 C   0  0  0  0  0  0  0  0  0  0  0  0
  158.1833  144.6957  182.1958 C   0  0  0  0  0  0  0  0  0  0  0  0
  156.8806  144.1622  182.2746 O   0  0  0  0  0  0  0  0  0  0  0  0
 26 27  1  0  0  0
 27 20  1  0  0  0
 20 21  2  0  0  0
 21 22  1  0  0  0
 22 23  2  0  0  0
 23 19  1  0  0  0
 19 17  1  0  0  0
 17 18  1  0  0  0
 17 15  1  0  0  0
 15  1  1  0  0  0
  1  2  1  0  0  0
  2  3  1  0  0  0
  2  5  1  0  0  0
  5  6  2  0  0  0
  6  7  1  0  0  0
  7  8  1  0  0  0
  7  9  2  0  0  0
  9 10  1  0  0  0
 10 11  1  0  0  0
 10 12  2  0  0  0
 23 24  1  0  0  0
 24 25  2  0  0  0
 25 20  1  0  0  0
 12  5  1  0  0  0
 15 16  1  0  0  0
  3  4  1  0  0  0
  8 13  1  0  0  0
 11 14  1  0  0  0
M  END
> <minimizedAffinity>
-6.02529

> <CNNscore>
0.3642554581

> <CNNaffinity>
4.9514632225

> <CNN_VS>
1.8035974503

> <CNNaffinity_variance>
0.0530279279

$$$$
[H]Oc1c([H])c(O[H])c([H])c([C@@]([H])(O[H])C([H])([H])N([H])[C@@]([H])(C([H])([H])[H])C([H])([H])c2c([H])c([H])c(OC([H])([H])[H])c([H])c2[H])c1[H]


 27 28  0  0  0  0  0  0  0  0999 V2000
  155.2681  141.4649  182.2692 C   0  0  0  0  0  0  0  0  0  0  0  0
  155.2175  140.9633  183.6696 C   0  0  0  0  0  0  0  0  0  0  0  0
  156.5616  140.6441  184.0899 O   0  0  0  0  0  0  0  0  0  0  0  0
  156.7695  141.2751  184.7978 H   0  0  0  0  0  0  0  0  0  0  0  0
  154.4954  139.6629  183.8427 C   0  0  0  0  0  0  0  0  0  0  0  0
  153.4640  139.2558  183.0494 C   0  0  0  0  0  0  0  0  0  0  0  0
  152.8177  138.0301  183.2440 C   0  0  0  0  0  0  0  0  0  0  0  0
  151.7691  137.6025  182.4477 O   0  0  0  0  0  0  0  0  0  0  0  0
  153.2469  137.2247  184.2681 C   0  0  0  0  0  0  0  0  0  0  0  0
  154.2793  137.5804  185.0985 C   0  0  0  0  0  0  0  0  0  0  0  0
  154.6859  136.7377  186.1245 O   0  0  0  0  0  0  0  0  0  0  0  0
  154.8862  138.7968  184.8693 C   0  0  0  0  0  0  0  0  0  0  0  0
  152.0484  137.0574  181.6166 H   0  0  0  0  0  0  0  0  0  0  0  0
  155.4189  136.0630  185.8579 H   0  0  0  0  0  0  0  0  0  0  0  0
  156.4868  141.7805  181.6790 N   0  0  0  0  0  0  0  0  0  0  0  0
  157.2678  141.1016  181.8630 H   0  0  0  0  0  0  0  0  0  0  0  0
  156.8644  143.0560  181.2878 C   0  0  0  0  0  0  0  0  0  0  0  0
  156.3660  144.1323  182.2090 C   0  0  0  0  0  0  0  0  0  0  0  0
  158.3119  143.2556  180.9301 C   0  0  0  0  0  0  0  0  0  0  0  0
  160.6166  143.6261  184.5599 C   0  0  0  0  0  0  0  0  0  0  0  0
  160.2267  144.7335  183.8365 C   0  0  0  0  0  0  0  0  0  0  0  0
  159.4844  144.6153  182.6730 C   0  0  0  0  0  0  0  0  0  0  0  0
  159.1009  143.3790  182.1848 C   0  0  0  0  0  0  0  0  0  0  0  0
  159.4905  142.2692  182.9082 C   0  0  0  0  0  0  0  0  0  0  0  0
  160.2322  142.3958  184.0699 C   0  0  0  0  0  0  0  0  0  0  0  0
  161.0860  142.9263  186.8657 C   0  0  0  0  0  0  0  0  0  0  0  0
  161.3632  143.7188  185.7330 O   0  0  0  0  0  0  0  0  0  0  0  0
 26 27  1  0  0  0
 27 20  1  0  0  0
 20 21  2  0  0  0
 21 22  1  0  0  0
 22 23  2  0  0  0
 23 19  1  0  0  0
 19 17  1  0  0  0
 17 18  1  0  0  0
 17 15  1  0  0  0
 15  1  1  0  0  0
  1  2  1  0  0  0
  2  3  1  0  0  0
  2  5  1  0  0  0
  5  6  2  0  0  0
  6  7  1  0  0  0
  7  8  1  0  0  0
  7  9  2  0  0  0
  9 10  1  0  0  0
 10 11  1  0  0  0
 10 12  2  0  0  0
 23 24  1  0  0  0
 24 25  2  0  0  0
 25 20  1  0  0  0
 12  5  1  0  0  0
 15 16  1  0  0  0
  3  4  1  0  0  0
  8 13  1  0  0  0
 11 14  1  0  0  0
M  END
> <minimizedAffinity>
-6.68854

> <CNNscore>
0.3385438919

> <CNNaffinity>
5.5420341492

> <CNN_VS>
1.8762217760

> <CNNaffinity_variance>
0.0468119159

$$$$
[H]Oc1c([H])c(O[H])c([H])c([C@@]([H])(O[H])C([H])([H])N([H])[C@@]([H])(C([H])([H])[H])C([H])([H])c2c([H])c([H])c(OC([H])([H])[H])c([H])c2[H])c1[H]


 27 28  0  0  0  0  0  0  0  0999 V2000
  157.9885  140.2145  184.2737 C   0  0  0  0  0  0  0  0  0  0  0  0
  159.2062  140.5592  183.4904 C   0  0  0  0  0  0  0  0  0  0  0  0
  160.1407  141.2248  184.3673 O   0  0  0  0  0  0  0  0  0  0  0  0
  160.9017  140.6263  184.4389 H   0  0  0  0  0  0  0  0  0  0  0  0
  158.9878  141.5688  182.4063 C   0  0  0  0  0  0  0  0  0  0  0  0
  158.6235  141.2479  181.1322 C   0  0  0  0  0  0  0  0  0  0  0  0
  158.4267  142.2239  180.1490 C   0  0  0  0  0  0  0  0  0  0  0  0
  158.0571  141.9146  178.8513 O   0  0  0  0  0  0  0  0  0  0  0  0
  158.6095  143.5391  180.4933 C   0  0  0  0  0  0  0  0  0  0  0  0
  158.9755  143.9227  181.7586 C   0  0  0  0  0  0  0  0  0  0  0  0
  159.1505  145.2647  182.0693 O   0  0  0  0  0  0  0  0  0  0  0  0
  159.1583  142.9270  182.6944 C   0  0  0  0  0  0  0  0  0  0  0  0
  157.0387  141.8771  178.6864 H   0  0  0  0  0  0  0  0  0  0  0  0
  158.2991  145.7401  182.4049 H   0  0  0  0  0  0  0  0  0  0  0  0
  156.9955  139.4172  183.7153 N   0  0  0  0  0  0  0  0  0  0  0  0
  157.0912  139.2303  182.6855 H   0  0  0  0  0  0  0  0  0  0  0  0
  155.7289  139.2466  184.2530 C   0  0  0  0  0  0  0  0  0  0  0  0
  155.7468  138.8074  185.6890 C   0  0  0  0  0  0  0  0  0  0  0  0
  154.7386  140.3552  184.0221 C   0  0  0  0  0  0  0  0  0  0  0  0
  151.8160  139.0489  181.1279 C   0  0  0  0  0  0  0  0  0  0  0  0
  152.3599  140.3153  181.0829 C   0  0  0  0  0  0  0  0  0  0  0  0
  153.3003  140.7340  182.0099 C   0  0  0  0  0  0  0  0  0  0  0  0
  153.7357  139.8988  183.0230 C   0  0  0  0  0  0  0  0  0  0  0  0
  153.1919  138.6304  183.0692 C   0  0  0  0  0  0  0  0  0  0  0  0
  152.2528  138.2196  182.1393 C   0  0  0  0  0  0  0  0  0  0  0  0
  150.3428  139.4435  179.2042 C   0  0  0  0  0  0  0  0  0  0  0  0
  150.8690  138.6040  180.2073 O   0  0  0  0  0  0  0  0  0  0  0  0
 26 27  1  0  0  0
 27 20  1  0  0  0
 20 21  2  0  0  0
 21 22  1  0  0  0
 22 23  2  0  0  0
 23 19  1  0  0  0
 19 17  1  0  0  0
 17 18  1  0  0  0
 17 15  1  0  0  0
 15  1  1  0  0  0
  1  2  1  0  0  0
  2  3  1  0  0  0
  2  5  1  0  0  0
  5  6  2  0  0  0
  6  7  1  0  0  0
  7  8  1  0  0  0
  7  9  2  0  0  0
  9 10  1  0  0  0
 10 11  1  0  0  0
 10 12  2  0  0  0
 23 24  1  0  0  0
 24 25  2  0  0  0
 25 20  1  0  0  0
 12  5  1  0  0  0
 15 16  1  0  0  0
  3  4  1  0  0  0
  8 13  1  0  0  0
 11 14  1  0  0  0
M  END
> <minimizedAffinity>
-7.40494

> <CNNscore>
0.3331802487

> <CNNaffinity>
5.5946168900

> <CNN_VS>
1.8640158176

> <CNNaffinity_variance>
0.0606119931

$$$$
[H]c1nc(N2C([H])([H])C([H])([H])C(N3C([H])([H])C([H])([H])OC([H])([H])C3([H])[H])(C([H])(C([H])([H])[H])C([H])([H])[H])C([H])([H])C2([H])[H])c([H])c2c1C(=O)c1c(n([H])c3c([H])c(C#N)c([H])c([H])c13)C2(C([H])([H])[H])C([H])([H])[H]


 38 43  0  0  0  0  0  0  0  0999 V2000
  151.1474  133.6396  187.3896 C   0  0  0  0  0  0  0  0  0  0  0  0
  150.9781  133.0883  186.1465 C   0  0  0  0  0  0  0  0  0  0  0  0
  150.3842  133.8076  185.1002 C   0  0  0  0  0  0  0  0  0  0  0  0
  149.9764  135.0891  185.3656 C   0  0  0  0  0  0  0  0  0  0  0  0
  150.1586  135.6230  186.6299 C   0  0  0  0  0  0  0  0  0  0  0  0
  150.7319  134.8996  187.6037 N   0  0  0  0  0  0  0  0  0  0  0  0
  149.3550  135.8795  184.3159 C   0  0  0  0  0  0  0  0  0  0  0  0
  148.9745  137.0656  184.5520 O   0  0  0  0  0  0  0  0  0  0  0  0
  149.1786  135.2924  183.0016 C   0  0  0  0  0  0  0  0  0  0  0  0
  149.6037  134.0048  182.7850 C   0  0  0  0  0  0  0  0  0  0  0  0
  149.3355  133.6735  181.4904 N   0  0  0  0  0  0  0  0  0  0  0  0
  148.7465  134.7225  180.8712 C   0  0  0  0  0  0  0  0  0  0  0  0
  148.2833  134.9044  179.5801 C   0  0  0  0  0  0  0  0  0  0  0  0
  147.7178  136.1033  179.2259 C   0  0  0  0  0  0  0  0  0  0  0  0
  147.6305  137.0955  180.1802 C   0  0  0  0  0  0  0  0  0  0  0  0
  148.0905  136.9172  181.4655 C   0  0  0  0  0  0  0  0  0  0  0  0
  148.6520  135.7248  181.8152 C   0  0  0  0  0  0  0  0  0  0  0  0
  150.2359  133.1586  183.7981 C   0  0  0  0  0  0  0  0  0  0  0  0
  151.6032  132.7412  183.2391 C   0  0  0  0  0  0  0  0  0  0  0  0
  149.4239  131.8667  183.8734 C   0  0  0  0  0  0  0  0  0  0  0  0
  149.5332  132.7752  181.0137 H   0  0  0  0  0  0  0  0  0  0  0  0
  152.8925  131.6622  190.9305 C   0  0  0  0  0  0  0  0  0  0  0  0
  153.2916  133.0176  190.3083 C   0  0  0  0  0  0  0  0  0  0  0  0
  153.1532  133.0529  188.8206 C   0  0  0  0  0  0  0  0  0  0  0  0
  151.7561  132.9068  188.4610 N   0  0  0  0  0  0  0  0  0  0  0  0
  151.0106  131.9528  189.2731 C   0  0  0  0  0  0  0  0  0  0  0  0
  152.0534  131.0172  189.8478 C   0  0  0  0  0  0  0  0  0  0  0  0
  152.1786  131.9797  192.0876 N   0  0  0  0  0  0  0  0  0  0  0  0
  152.2846  133.1503  192.7923 C   0  0  0  0  0  0  0  0  0  0  0  0
  152.3887  132.9375  194.2831 C   0  0  0  0  0  0  0  0  0  0  0  0
  151.5553  131.9628  194.7629 O   0  0  0  0  0  0  0  0  0  0  0  0
  151.6979  130.7545  194.0740 C   0  0  0  0  0  0  0  0  0  0  0  0
  151.2935  131.0345  192.6412 C   0  0  0  0  0  0  0  0  0  0  0  0
  155.2617  131.0924  190.2449 C   0  0  0  0  0  0  0  0  0  0  0  0
  154.1037  130.8375  191.2120 C   0  0  0  0  0  0  0  0  0  0  0  0
  154.7115  130.9283  192.5670 C   0  0  0  0  0  0  0  0  0  0  0  0
  147.2189  136.3300  177.8734 C   0  0  0  0  0  0  0  0  0  0  0  0
  146.8137  136.5227  176.8082 N   0  0  0  0  0  0  0  0  0  0  0  0
 34 35  1  0  0  0
 35 36  1  0  0  0
 35 22  1  0  0  0
 22 28  1  0  0  0
 28 29  1  0  0  0
 29 30  1  0  0  0
 30 31  1  0  0  0
 31 32  1  0  0  0
 32 33  1  0  0  0
 22 23  1  0  0  0
 23 24  1  0  0  0
 24 25  1  0  0  0
 25  1  1  0  0  0
  1  2  2  0  0  0
  2  3  1  0  0  0
  3  4  2  0  0  0
  4  5  1  0  0  0
  5  6  2  0  0  0
  4  7  1  0  0  0
  7  8  2  0  0  0
  7  9  1  0  0  0
  9 10  2  0  0  0
 10 11  1  0  0  0
 11 12  1  0  0  0
 12 13  2  0  0  0
 13 14  1  0  0  0
 14 37  1  0  0  0
 37 38  3  0  0  0
 14 15  2  0  0  0
 15 16  1  0  0  0
 16 17  2  0  0  0
 10 18  1  0  0  0
 18 19  1  0  0  0
 18 20  1  0  0  0
 25 26  1  0  0  0
 26 27  1  0  0  0
 27 22  1  0  0  0
 33 28  1  0  0  0
  6  1  1  0  0  0
 17  9  1  0  0  0
 18  3  1  0  0  0
 17 12  1  0  0  0
 11 21  1  0  0  0
M  END
> <minimizedAffinity>
-2.02488

> <CNNscore>
0.6759248376

> <CNNaffinity>
5.8839616776

> <CNN_VS>
3.9771158695

> <CNNaffinity_variance>
0.9965087771

$$$$
[H]c1nc(N2C([H])([H])C([H])([H])C(N3C([H])([H])C([H])([H])OC([H])([H])C3([H])[H])(C([H])(C([H])([H])[H])C([H])([H])[H])C([H])([H])C2([H])[H])c([H])c2c1C(=O)c1c(n([H])c3c([H])c(C#N)c([H])c([H])c13)C2(C([H])([H])[H])C([H])([H])[H]


 38 43  0  0  0  0  0  0  0  0999 V2000
  153.7713  134.4849  186.5656 C   0  0  0  0  0  0  0  0  0  0  0  0
  153.5584  133.3130  185.8880 C   0  0  0  0  0  0  0  0  0  0  0  0
  153.1836  133.3047  184.5373 C   0  0  0  0  0  0  0  0  0  0  0  0
  153.0368  134.5169  183.9145 C   0  0  0  0  0  0  0  0  0  0  0  0
  153.2576  135.6868  184.6213 C   0  0  0  0  0  0  0  0  0  0  0  0
  153.6152  135.6498  185.9139 N   0  0  0  0  0  0  0  0  0  0  0  0
  152.6502  134.5655  182.5142 C   0  0  0  0  0  0  0  0  0  0  0  0
  152.5118  135.6820  181.9297 O   0  0  0  0  0  0  0  0  0  0  0  0
  152.4267  133.3227  181.8008 C   0  0  0  0  0  0  0  0  0  0  0  0
  152.5866  132.1336  182.4684 C   0  0  0  0  0  0  0  0  0  0  0  0
  152.3255  131.1138  181.6028 N   0  0  0  0  0  0  0  0  0  0  0  0
  152.0009  131.6241  180.3924 C   0  0  0  0  0  0  0  0  0  0  0  0
  151.6555  131.0305  179.1912 C   0  0  0  0  0  0  0  0  0  0  0  0
  151.3709  131.8175  178.1039 C   0  0  0  0  0  0  0  0  0  0  0  0
  151.4401  133.1875  178.2488 C   0  0  0  0  0  0  0  0  0  0  0  0
  151.7834  133.7808  179.4428 C   0  0  0  0  0  0  0  0  0  0  0  0
  152.0658  132.9966  180.5220 C   0  0  0  0  0  0  0  0  0  0  0  0
  152.9741  132.0178  183.8750 C   0  0  0  0  0  0  0  0  0  0  0  0
  154.2531  131.1701  183.9158 C   0  0  0  0  0  0  0  0  0  0  0  0
  151.9090  131.1672  184.5650 C   0  0  0  0  0  0  0  0  0  0  0  0
  152.3579  130.0964  181.7960 H   0  0  0  0  0  0  0  0  0  0  0  0
  155.0567  134.1437  190.7756 C   0  0  0  0  0  0  0  0  0  0  0  0
  153.8692  133.4377  190.0866 C   0  0  0  0  0  0  0  0  0  0  0  0
  153.2175  134.2669  189.0275 C   0  0  0  0  0  0  0  0  0  0  0  0
  154.1564  134.4962  187.9466 N   0  0  0  0  0  0  0  0  0  0  0  0
  155.5297  134.7421  188.3692 C   0  0  0  0  0  0  0  0  0  0  0  0
  155.4255  135.2377  189.7963 C   0  0  0  0  0  0  0  0  0  0  0  0
  156.0379  133.1616  190.9246 N   0  0  0  0  0  0  0  0  0  0  0  0
  156.0824  132.2262  191.9252 C   0  0  0  0  0  0  0  0  0  0  0  0
  157.4542  132.0775  192.5372 C   0  0  0  0  0  0  0  0  0  0  0  0
  158.4738  132.1014  191.6236 O   0  0  0  0  0  0  0  0  0  0  0  0
  158.4162  133.2236  190.7916 C   0  0  0  0  0  0  0  0  0  0  0  0
  157.1168  133.1123  190.0209 C   0  0  0  0  0  0  0  0  0  0  0  0
  154.0513  136.1430  191.9588 C   0  0  0  0  0  0  0  0  0  0  0  0
  154.6320  134.7324  192.0792 C   0  0  0  0  0  0  0  0  0  0  0  0
  153.6412  133.9807  192.8959 C   0  0  0  0  0  0  0  0  0  0  0  0
  151.0032  131.2256  176.8217 C   0  0  0  0  0  0  0  0  0  0  0  0
  150.7290  130.7557  175.8018 N   0  0  0  0  0  0  0  0  0  0  0  0
 34 35  1  0  0  0
 35 36  1  0  0  0
 35 22  1  0  0  0
 22 28  1  0  0  0
 28 29  1  0  0  0
 29 30  1  0  0  0
 30 31  1  0  0  0
 31 32  1  0  0  0
 32 33  1  0  0  0
 22 23  1  0  0  0
 23 24  1  0  0  0
 24 25  1  0  0  0
 25  1  1  0  0  0
  1  2  2  0  0  0
  2  3  1  0  0  0
  3  4  2  0  0  0
  4  5  1  0  0  0
  5  6  2  0  0  0
  4  7  1  0  0  0
  7  8  2  0  0  0
  7  9  1  0  0  0
  9 10  2  0  0  0
 10 11  1  0  0  0
 11 12  1  0  0  0
 12 13  2  0  0  0
 13 14  1  0  0  0
 14 37  1  0  0  0
 37 38  3  0  0  0
 14 15  2  0  0  0
 15 16  1  0  0  0
 16 17  2  0  0  0
 10 18  1  0  0  0
 18 19  1  0  0  0
 18 20  1  0  0  0
 25 26  1  0  0  0
 26 27  1  0  0  0
 27 22  1  0  0  0
 33 28  1  0  0  0
  6  1  1  0  0  0
 17  9  1  0  0  0
 18  3  1  0  0  0
 17 12  1  0  0  0
 11 21  1  0  0  0
M  END
> <minimizedAffinity>
-1.10294

> <CNNscore>
0.4763466120

> <CNNaffinity>
5.9590811729

> <CNN_VS>
2.8385882378

> <CNNaffinity_variance>
1.3408069611

$$$$
[H]c1nc(N2C([H])([H])C([H])([H])C(N3C([H])([H])C([H])([H])OC([H])([H])C3([H])[H])(C([H])(C([H])([H])[H])C([H])([H])[H])C([H])([H])C2([H])[H])c([H])c2c1C(=O)c1c(n([H])c3c([H])c(C#N)c([H])c([H])c13)C2(C([H])([H])[H])C([H])([H])[H]


 38 43  0  0  0  0  0  0  0  0999 V2000
  153.4959  135.0494  186.8777 C   0  0  0  0  0  0  0  0  0  0  0  0
  153.9920  133.9642  186.2038 C   0  0  0  0  0  0  0  0  0  0  0  0
  153.8338  133.8267  184.8178 C   0  0  0  0  0  0  0  0  0  0  0  0
  153.1616  134.8215  184.1564 C   0  0  0  0  0  0  0  0  0  0  0  0
  152.6699  135.9077  184.8602 C   0  0  0  0  0  0  0  0  0  0  0  0
  152.8434  136.0002  186.1875 N   0  0  0  0  0  0  0  0  0  0  0  0
  152.9700  134.7290  182.7186 C   0  0  0  0  0  0  0  0  0  0  0  0
  152.3495  135.6441  182.0982 O   0  0  0  0  0  0  0  0  0  0  0  0
  153.4975  133.5791  182.0093 C   0  0  0  0  0  0  0  0  0  0  0  0
  154.1637  132.6088  182.7164 C   0  0  0  0  0  0  0  0  0  0  0  0
  154.5629  131.6381  181.8468 N   0  0  0  0  0  0  0  0  0  0  0  0
  154.1661  131.9655  180.5954 C   0  0  0  0  0  0  0  0  0  0  0  0
  154.3146  131.3333  179.3736 C   0  0  0  0  0  0  0  0  0  0  0  0
  153.7962  131.9133  178.2433 C   0  0  0  0  0  0  0  0  0  0  0  0
  153.1384  133.1194  178.3668 C   0  0  0  0  0  0  0  0  0  0  0  0
  152.9891  133.7506  179.5812 C   0  0  0  0  0  0  0  0  0  0  0  0
  153.5050  133.1722  180.7031 C   0  0  0  0  0  0  0  0  0  0  0  0
  154.3897  132.6437  184.1620 C   0  0  0  0  0  0  0  0  0  0  0  0
  155.9076  132.5649  184.3770 C   0  0  0  0  0  0  0  0  0  0  0  0
  153.8371  131.3393  184.7339 C   0  0  0  0  0  0  0  0  0  0  0  0
  155.0879  130.7717  182.0639 H   0  0  0  0  0  0  0  0  0  0  0  0
  153.6254  135.3693  191.2792 C   0  0  0  0  0  0  0  0  0  0  0  0
  152.7714  136.1950  190.2932 C   0  0  0  0  0  0  0  0  0  0  0  0
  153.4514  136.4507  188.9871 C   0  0  0  0  0  0  0  0  0  0  0  0
  153.6579  135.1935  188.2949 N   0  0  0  0  0  0  0  0  0  0  0  0
  154.0463  134.0790  189.1507 C   0  0  0  0  0  0  0  0  0  0  0  0
  154.6551  134.7151  190.3826 C   0  0  0  0  0  0  0  0  0  0  0  0
  152.7397  134.4699  191.8759 N   0  0  0  0  0  0  0  0  0  0  0  0
  151.4192  134.7152  192.1481 C   0  0  0  0  0  0  0  0  0  0  0  0
  151.0083  134.2784  193.5334 C   0  0  0  0  0  0  0  0  0  0  0  0
  151.5382  133.0748  193.9145 O   0  0  0  0  0  0  0  0  0  0  0  0
  152.9283  133.0356  193.7693 C   0  0  0  0  0  0  0  0  0  0  0  0
  153.2037  133.2063  192.2895 C   0  0  0  0  0  0  0  0  0  0  0  0
  155.8185  136.1761  192.2526 C   0  0  0  0  0  0  0  0  0  0  0  0
  154.2909  136.2626  192.2719 C   0  0  0  0  0  0  0  0  0  0  0  0
  153.9908  137.7188  192.2134 C   0  0  0  0  0  0  0  0  0  0  0  0
  153.9343  131.2747  176.9384 C   0  0  0  0  0  0  0  0  0  0  0  0
  154.0507  130.7548  175.9126 N   0  0  0  0  0  0  0  0  0  0  0  0
 34 35  1  0  0  0
 35 36  1  0  0  0
 35 22  1  0  0  0
 22 28  1  0  0  0
 28 29  1  0  0  0
 29 30  1  0  0  0
 30 31  1  0  0  0
 31 32  1  0  0  0
 32 33  1  0  0  0
 22 23  1  0  0  0
 23 24  1  0  0  0
 24 25  1  0  0  0
 25  1  1  0  0  0
  1  2  2  0  0  0
  2  3  1  0  0  0
  3  4  2  0  0  0
  4  5  1  0  0  0
  5  6  2  0  0  0
  4  7  1  0  0  0
  7  8  2  0  0  0
  7  9  1  0  0  0
  9 10  2  0  0  0
 10 11  1  0  0  0
 11 12  1  0  0  0
 12 13  2  0  0  0
 13 14  1  0  0  0
 14 37  1  0  0  0
 37 38  3  0  0  0
 14 15  2  0  0  0
 15 16  1  0  0  0
 16 17  2  0  0  0
 10 18  1  0  0  0
 18 19  1  0  0  0
 18 20  1  0  0  0
 25 26  1  0  0  0
 26 27  1  0  0  0
 27 22  1  0  0  0
 33 28  1  0  0  0
  6  1  1  0  0  0
 17  9  1  0  0  0
 18  3  1  0  0  0
 17 12  1  0  0  0
 11 21  1  0  0  0
M  END
> <minimizedAffinity>
-3.27892

> <CNNscore>
0.4251468182

> <CNNaffinity>
5.9188561440

> <CNN_VS>
2.5163829327

> <CNNaffinity_variance>
0.8614536524

$$$$
[H]c1nc(N2C([H])([H])C([H])([H])C(N3C([H])([H])C([H])([H])OC([H])([H])C3([H])[H])(C([H])(C([H])([H])[H])C([H])([H])[H])C([H])([H])C2([H])[H])c([H])c2c1C(=O)c1c(n([H])c3c([H])c(C#N)c([H])c([H])c13)C2(C([H])([H])[H])C([H])([H])[H]


 38 43  0  0  0  0  0  0  0  0999 V2000
  152.4251  136.0515  186.2681 C   0  0  0  0  0  0  0  0  0  0  0  0
  152.0413  134.8334  185.7713 C   0  0  0  0  0  0  0  0  0  0  0  0
  151.3484  134.7216  184.5580 C   0  0  0  0  0  0  0  0  0  0  0  0
  151.0666  135.8803  183.8819 C   0  0  0  0  0  0  0  0  0  0  0  0
  151.4651  137.0986  184.4050 C   0  0  0  0  0  0  0  0  0  0  0  0
  152.1268  137.1608  185.5706 N   0  0  0  0  0  0  0  0  0  0  0  0
  150.3507  135.8213  182.6183 C   0  0  0  0  0  0  0  0  0  0  0  0
  150.0853  136.8876  181.9858 O   0  0  0  0  0  0  0  0  0  0  0  0
  149.9472  134.5299  182.0959 C   0  0  0  0  0  0  0  0  0  0  0  0
  150.2529  133.3976  182.8101 C   0  0  0  0  0  0  0  0  0  0  0  0
  149.7780  132.3165  182.1295 N   0  0  0  0  0  0  0  0  0  0  0  0
  149.1734  132.7315  180.9925 C   0  0  0  0  0  0  0  0  0  0  0  0
  148.5394  132.0489  179.9696 C   0  0  0  0  0  0  0  0  0  0  0  0
  148.0062  132.7487  178.9167 C   0  0  0  0  0  0  0  0  0  0  0  0
  148.1227  134.1232  178.9156 C   0  0  0  0  0  0  0  0  0  0  0  0
  148.7529  134.8050  179.9321 C   0  0  0  0  0  0  0  0  0  0  0  0
  149.2819  134.1073  180.9775 C   0  0  0  0  0  0  0  0  0  0  0  0
  150.9705  133.3902  184.0856 C   0  0  0  0  0  0  0  0  0  0  0  0
  152.2121  132.5085  183.8924 C   0  0  0  0  0  0  0  0  0  0  0  0
  150.0972  132.6363  185.0871 C   0  0  0  0  0  0  0  0  0  0  0  0
  149.8461  131.3188  182.4007 H   0  0  0  0  0  0  0  0  0  0  0  0
  154.6728  136.0255  190.0681 C   0  0  0  0  0  0  0  0  0  0  0  0
  153.3077  135.3694  189.7694 C   0  0  0  0  0  0  0  0  0  0  0  0
  152.4754  136.1433  188.7987 C   0  0  0  0  0  0  0  0  0  0  0  0
  153.1354  136.1685  187.5079 N   0  0  0  0  0  0  0  0  0  0  0  0
  154.5839  136.3238  187.5629 C   0  0  0  0  0  0  0  0  0  0  0  0
  154.8653  136.9720  188.9022 C   0  0  0  0  0  0  0  0  0  0  0  0
  155.5912  134.9744  190.1028 N   0  0  0  0  0  0  0  0  0  0  0  0
  155.8759  134.2019  191.1984 C   0  0  0  0  0  0  0  0  0  0  0  0
  157.3561  133.9961  191.4103 C   0  0  0  0  0  0  0  0  0  0  0  0
  158.0546  133.7684  190.2549 O   0  0  0  0  0  0  0  0  0  0  0  0
  157.8196  134.7514  189.2887 C   0  0  0  0  0  0  0  0  0  0  0  0
  156.3447  134.6697  188.9528 C   0  0  0  0  0  0  0  0  0  0  0  0
  154.8293  138.2908  191.1871 C   0  0  0  0  0  0  0  0  0  0  0  0
  154.6204  136.7839  191.3520 C   0  0  0  0  0  0  0  0  0  0  0  0
  153.3965  136.6579  192.1887 C   0  0  0  0  0  0  0  0  0  0  0  0
  147.3309  132.0614  177.8207 C   0  0  0  0  0  0  0  0  0  0  0  0
  146.8115  131.5151  176.9444 N   0  0  0  0  0  0  0  0  0  0  0  0
 34 35  1  0  0  0
 35 36  1  0  0  0
 35 22  1  0  0  0
 22 28  1  0  0  0
 28 29  1  0  0  0
 29 30  1  0  0  0
 30 31  1  0  0  0
 31 32  1  0  0  0
 32 33  1  0  0  0
 22 23  1  0  0  0
 23 24  1  0  0  0
 24 25  1  0  0  0
 25  1  1  0  0  0
  1  2  2  0  0  0
  2  3  1  0  0  0
  3  4  2  0  0  0
  4  5  1  0  0  0
  5  6  2  0  0  0
  4  7  1  0  0  0
  7  8  2  0  0  0
  7  9  1  0  0  0
  9 10  2  0  0  0
 10 11  1  0  0  0
 11 12  1  0  0  0
 12 13  2  0  0  0
 13 14  1  0  0  0
 14 37  1  0  0  0
 37 38  3  0  0  0
 14 15  2  0  0  0
 15 16  1  0  0  0
 16 17  2  0  0  0
 10 18  1  0  0  0
 18 19  1  0  0  0
 18 20  1  0  0  0
 25 26  1  0  0  0
 26 27  1  0  0  0
 27 22  1  0  0  0
 33 28  1  0  0  0
  6  1  1  0  0  0
 17  9  1  0  0  0
 18  3  1  0  0  0
 17 12  1  0  0  0
 11 21  1  0  0  0
M  END
> <minimizedAffinity>
-4.22198

> <CNNscore>
0.4014895856

> <CNNaffinity>
6.0018110275

> <CNN_VS>
2.4096646309

> <CNNaffinity_variance>
0.5353846550

$$$$
[H]c1nc(N2C([H])([H])C([H])([H])C(N3C([H])([H])C([H])([H])OC([H])([H])C3([H])[H])(C([H])(C([H])([H])[H])C([H])([H])[H])C([H])([H])C2([H])[H])c([H])c2c1C(=O)c1c(n([H])c3c([H])c(C#N)c([H])c([H])c13)C2(C([H])([H])[H])C([H])([H])[H]


 38 43  0  0  0  0  0  0  0  0999 V2000
  155.1337  139.2903  184.1924 C   0  0  0  0  0  0  0  0  0  0  0  0
  154.9791  138.8130  185.4676 C   0  0  0  0  0  0  0  0  0  0  0  0
  153.8467  138.0769  185.8427 C   0  0  0  0  0  0  0  0  0  0  0  0
  152.8940  137.8499  184.8837 C   0  0  0  0  0  0  0  0  0  0  0  0
  153.0738  138.3429  183.6024 C   0  0  0  0  0  0  0  0  0  0  0  0
  154.1734  139.0432  183.2854 N   0  0  0  0  0  0  0  0  0  0  0  0
  151.7003  137.0915  185.2191 C   0  0  0  0  0  0  0  0  0  0  0  0
  150.8136  136.8766  184.3388 O   0  0  0  0  0  0  0  0  0  0  0  0
  151.5412  136.5876  186.5697 C   0  0  0  0  0  0  0  0  0  0  0  0
  152.5235  136.8411  187.4951 C   0  0  0  0  0  0  0  0  0  0  0  0
  152.1574  136.2751  188.6796 N   0  0  0  0  0  0  0  0  0  0  0  0
  150.9595  135.6631  188.5337 C   0  0  0  0  0  0  0  0  0  0  0  0
  150.1602  134.9541  189.4128 C   0  0  0  0  0  0  0  0  0  0  0  0
  148.9677  134.4348  188.9760 C   0  0  0  0  0  0  0  0  0  0  0  0
  148.6043  134.6404  187.6613 C   0  0  0  0  0  0  0  0  0  0  0  0
  149.3975  135.3456  186.7844 C   0  0  0  0  0  0  0  0  0  0  0  0
  150.5822  135.8608  187.2209 C   0  0  0  0  0  0  0  0  0  0  0  0
  153.7467  137.5962  187.2202 C   0  0  0  0  0  0  0  0  0  0  0  0
  154.9252  136.6738  187.5618 C   0  0  0  0  0  0  0  0  0  0  0  0
  153.8151  138.7275  188.2448 C   0  0  0  0  0  0  0  0  0  0  0  0
  152.6804  136.2859  189.5739 H   0  0  0  0  0  0  0  0  0  0  0  0
  158.7607  141.6736  183.3817 C   0  0  0  0  0  0  0  0  0  0  0  0
  157.4197  142.1590  183.9729 C   0  0  0  0  0  0  0  0  0  0  0  0
  156.2315  141.4388  183.4220 C   0  0  0  0  0  0  0  0  0  0  0  0
  156.2917  140.0419  183.8056 N   0  0  0  0  0  0  0  0  0  0  0  0
  157.6246  139.4526  183.7679 C   0  0  0  0  0  0  0  0  0  0  0  0
  158.4156  140.3159  182.8076 C   0  0  0  0  0  0  0  0  0  0  0  0
  159.6467  141.6250  184.4597 N   0  0  0  0  0  0  0  0  0  0  0  0
  159.2961  141.7014  185.7823 C   0  0  0  0  0  0  0  0  0  0  0  0
  160.1712  142.6425  186.5742 C   0  0  0  0  0  0  0  0  0  0  0  0
  161.5007  142.5609  186.2576 O   0  0  0  0  0  0  0  0  0  0  0  0
  161.7303  142.6999  184.8854 C   0  0  0  0  0  0  0  0  0  0  0  0
  161.0312  141.5325  184.2195 C   0  0  0  0  0  0  0  0  0  0  0  0
  158.8980  142.1001  180.8902 C   0  0  0  0  0  0  0  0  0  0  0  0
  159.2215  142.5944  182.3017 C   0  0  0  0  0  0  0  0  0  0  0  0
  158.7417  144.0025  182.3319 C   0  0  0  0  0  0  0  0  0  0  0  0
  148.0999  133.6816  189.8755 C   0  0  0  0  0  0  0  0  0  0  0  0
  147.4006  133.0980  190.5872 N   0  0  0  0  0  0  0  0  0  0  0  0
 34 35  1  0  0  0
 35 36  1  0  0  0
 35 22  1  0  0  0
 22 28  1  0  0  0
 28 29  1  0  0  0
 29 30  1  0  0  0
 30 31  1  0  0  0
 31 32  1  0  0  0
 32 33  1  0  0  0
 22 23  1  0  0  0
 23 24  1  0  0  0
 24 25  1  0  0  0
 25  1  1  0  0  0
  1  2  2  0  0  0
  2  3  1  0  0  0
  3  4  2  0  0  0
  4  5  1  0  0  0
  5  6  2  0  0  0
  4  7  1  0  0  0
  7  8  2  0  0  0
  7  9  1  0  0  0
  9 10  2  0  0  0
 10 11  1  0  0  0
 11 12  1  0  0  0
 12 13  2  0  0  0
 13 14  1  0  0  0
 14 37  1  0  0  0
 37 38  3  0  0  0
 14 15  2  0  0  0
 15 16  1  0  0  0
 16 17  2  0  0  0
 10 18  1  0  0  0
 18 19  1  0  0  0
 18 20  1  0  0  0
 25 26  1  0  0  0
 26 27  1  0  0  0
 27 22  1  0  0  0
 33 28  1  0  0  0
  6  1  1  0  0  0
 17  9  1  0  0  0
 18  3  1  0  0  0
 17 12  1  0  0  0
 11 21  1  0  0  0
M  END
> <minimizedAffinity>
-9.09918

> <CNNscore>
0.3588277400

> <CNNaffinity>
6.7262330055

> <CNN_VS>
2.4135589600

> <CNNaffinity_variance>
0.0797688067

$$$$
[H]c1nc(N2C([H])([H])C([H])([H])C(N3C([H])([H])C([H])([H])OC([H])([H])C3([H])[H])(C([H])(C([H])([H])[H])C([H])([H])[H])C([H])([H])C2([H])[H])c([H])c2c1C(=O)c1c(n([H])c3c([H])c(C#N)c([H])c([H])c13)C2(C([H])([H])[H])C([H])([H])[H]


 38 43  0  0  0  0  0  0  0  0999 V2000
  154.1642  138.2786  184.4241 C   0  0  0  0  0  0  0  0  0  0  0  0
  155.1239  138.6618  183.5241 C   0  0  0  0  0  0  0  0  0  0  0  0
  156.3259  139.2510  183.9401 C   0  0  0  0  0  0  0  0  0  0  0  0
  156.5087  139.4313  185.2866 C   0  0  0  0  0  0  0  0  0  0  0  0
  155.5237  139.0356  186.1756 C   0  0  0  0  0  0  0  0  0  0  0  0
  154.3872  138.4753  185.7347 N   0  0  0  0  0  0  0  0  0  0  0  0
  157.7374  140.0370  185.7722 C   0  0  0  0  0  0  0  0  0  0  0  0
  157.9155  140.2080  187.0158 O   0  0  0  0  0  0  0  0  0  0  0  0
  158.7507  140.4403  184.8162 C   0  0  0  0  0  0  0  0  0  0  0  0
  158.5210  140.2387  183.4775 C   0  0  0  0  0  0  0  0  0  0  0  0
  159.6013  140.6917  182.7809 N   0  0  0  0  0  0  0  0  0  0  0  0
  160.5203  141.1806  183.6454 C   0  0  0  0  0  0  0  0  0  0  0  0
  161.7683  141.7481  183.4588 C   0  0  0  0  0  0  0  0  0  0  0  0
  162.4935  142.1627  184.5473 C   0  0  0  0  0  0  0  0  0  0  0  0
  161.9464  141.9968  185.8027 C   0  0  0  0  0  0  0  0  0  0  0  0
  160.7048  141.4325  185.9912 C   0  0  0  0  0  0  0  0  0  0  0  0
  159.9860  141.0214  184.9079 C   0  0  0  0  0  0  0  0  0  0  0  0
  157.3073  139.6346  182.9261 C   0  0  0  0  0  0  0  0  0  0  0  0
  157.7502  138.4137  182.1079 C   0  0  0  0  0  0  0  0  0  0  0  0
  156.7423  140.6178  181.9023 C   0  0  0  0  0  0  0  0  0  0  0  0
  159.7405  140.6834  181.7543 H   0  0  0  0  0  0  0  0  0  0  0  0
  150.5893  136.1076  183.0103 C   0  0  0  0  0  0  0  0  0  0  0  0
  151.7673  136.6440  182.1689 C   0  0  0  0  0  0  0  0  0  0  0  0
  152.3458  137.9162  182.6987 C   0  0  0  0  0  0  0  0  0  0  0  0
  152.9348  137.6743  184.0013 N   0  0  0  0  0  0  0  0  0  0  0  0
  152.1799  136.7664  184.8565 C   0  0  0  0  0  0  0  0  0  0  0  0
  150.7586  136.8177  184.3366 C   0  0  0  0  0  0  0  0  0  0  0  0
  150.7793  134.7260  183.0783 N   0  0  0  0  0  0  0  0  0  0  0  0
  151.5658  133.9881  182.2327 C   0  0  0  0  0  0  0  0  0  0  0  0
  150.8941  132.7259  181.7487 C   0  0  0  0  0  0  0  0  0  0  0  0
  150.1869  132.0679  182.7191 O   0  0  0  0  0  0  0  0  0  0  0  0
  149.2733  132.9026  183.3698 C   0  0  0  0  0  0  0  0  0  0  0  0
  150.0946  133.9761  184.0539 C   0  0  0  0  0  0  0  0  0  0  0  0
  148.9683  135.6886  181.1116 C   0  0  0  0  0  0  0  0  0  0  0  0
  149.2864  136.4770  182.3838 C   0  0  0  0  0  0  0  0  0  0  0  0
  148.0566  136.3722  183.2148 C   0  0  0  0  0  0  0  0  0  0  0  0
  163.8130  142.7652  184.3877 C   0  0  0  0  0  0  0  0  0  0  0  0
  164.8642  143.2273  184.2549 N   0  0  0  0  0  0  0  0  0  0  0  0
 34 35  1  0  0  0
 35 36  1  0  0  0
 35 22  1  0  0  0
 22 28  1  0  0  0
 28 29  1  0  0  0
 29 30  1  0  0  0
 30 31  1  0  0  0
 31 32  1  0  0  0
 32 33  1  0  0  0
 22 23  1  0  0  0
 23 24  1  0  0  0
 24 25  1  0  0  0
 25  1  1  0  0  0
  1  2  2  0  0  0
  2  3  1  0  0  0
  3  4  2  0  0  0
  4  5  1  0  0  0
  5  6  2  0  0  0
  4  7  1  0  0  0
  7  8  2  0  0  0
  7  9  1  0  0  0
  9 10  2  0  0  0
 10 11  1  0  0  0
 11 12  1  0  0  0
 12 13  2  0  0  0
 13 14  1  0  0  0
 14 37  1  0  0  0
 37 38  3  0  0  0
 14 15  2  0  0  0
 15 16  1  0  0  0
 16 17  2  0  0  0
 10 18  1  0  0  0
 18 19  1  0  0  0
 18 20  1  0  0  0
 25 26  1  0  0  0
 26 27  1  0  0  0
 27 22  1  0  0  0
 33 28  1  0  0  0
  6  1  1  0  0  0
 17  9  1  0  0  0
 18  3  1  0  0  0
 17 12  1  0  0  0
 11 21  1  0  0  0
M  END
> <minimizedAffinity>
5.63425

> <CNNscore>
0.3497254252

> <CNNaffinity>
6.2721014023

> <CNN_VS>
2.1935133934

> <CNNaffinity_variance>
0.9704580307

$$$$
[H]c1nc(N2C([H])([H])C([H])([H])C(N3C([H])([H])C([H])([H])OC([H])([H])C3([H])[H])(C([H])(C([H])([H])[H])C([H])([H])[H])C([H])([H])C2([H])[H])c([H])c2c1C(=O)c1c(n([H])c3c([H])c(C#N)c([H])c([H])c13)C2(C([H])([H])[H])C([H])([H])[H]


 38 43  0  0  0  0  0  0  0  0999 V2000
  154.1220  139.0882  183.6698 C   0  0  0  0  0  0  0  0  0  0  0  0
  155.2090  139.3772  182.8871 C   0  0  0  0  0  0  0  0  0  0  0  0
  156.4060  139.8520  183.4410 C   0  0  0  0  0  0  0  0  0  0  0  0
  156.4511  140.0181  184.8009 C   0  0  0  0  0  0  0  0  0  0  0  0
  155.3392  139.7190  185.5697 C   0  0  0  0  0  0  0  0  0  0  0  0
  154.2124  139.2666  184.9987 N   0  0  0  0  0  0  0  0  0  0  0  0
  157.6682  140.5072  185.4270 C   0  0  0  0  0  0  0  0  0  0  0  0
  157.7195  140.6641  186.6841 O   0  0  0  0  0  0  0  0  0  0  0  0
  158.8165  140.8110  184.5949 C   0  0  0  0  0  0  0  0  0  0  0  0
  158.7221  140.6281  183.2373 C   0  0  0  0  0  0  0  0  0  0  0  0
  159.9120  140.9759  182.6709 N   0  0  0  0  0  0  0  0  0  0  0  0
  160.7688  141.3787  183.6375 C   0  0  0  0  0  0  0  0  0  0  0  0
  162.0775  141.8261  183.5977 C   0  0  0  0  0  0  0  0  0  0  0  0
  162.7103  142.1737  184.7645 C   0  0  0  0  0  0  0  0  0  0  0  0
  162.0114  142.0634  185.9485 C   0  0  0  0  0  0  0  0  0  0  0  0
  160.7092  141.6186  185.9911 C   0  0  0  0  0  0  0  0  0  0  0  0
  160.0824  141.2738  184.8302 C   0  0  0  0  0  0  0  0  0  0  0  0
  157.5275  140.1391  182.5475 C   0  0  0  0  0  0  0  0  0  0  0  0
  157.9440  138.8797  181.7749 C   0  0  0  0  0  0  0  0  0  0  0  0
  157.1766  141.1682  181.4742 C   0  0  0  0  0  0  0  0  0  0  0  0
  160.1652  140.9517  181.6665 H   0  0  0  0  0  0  0  0  0  0  0  0
  150.5383  137.2518  181.8595 C   0  0  0  0  0  0  0  0  0  0  0  0
  151.8666  137.6229  181.1659 C   0  0  0  0  0  0  0  0  0  0  0  0
  152.5105  138.8478  181.7307 C   0  0  0  0  0  0  0  0  0  0  0  0
  152.8973  138.6006  183.1061 N   0  0  0  0  0  0  0  0  0  0  0  0
  151.9428  137.8160  183.8798 C   0  0  0  0  0  0  0  0  0  0  0  0
  150.6144  137.9961  183.1757 C   0  0  0  0  0  0  0  0  0  0  0  0
  150.5631  135.8620  181.9917 N   0  0  0  0  0  0  0  0  0  0  0  0
  151.3999  135.0130  181.3158 C   0  0  0  0  0  0  0  0  0  0  0  0
  150.6901  133.8072  180.7495 C   0  0  0  0  0  0  0  0  0  0  0  0
  149.7581  133.2659  181.5940 O   0  0  0  0  0  0  0  0  0  0  0  0
  148.8411  134.2162  182.0535 C   0  0  0  0  0  0  0  0  0  0  0  0
  149.6424  135.2273  182.8475 C   0  0  0  0  0  0  0  0  0  0  0  0
  149.1519  136.9420  179.7643 C   0  0  0  0  0  0  0  0  0  0  0  0
  149.3756  137.7307  181.0563 C   0  0  0  0  0  0  0  0  0  0  0  0
  148.0414  137.7719  181.7137 C   0  0  0  0  0  0  0  0  0  0  0  0
  164.0899  142.6494  184.7598 C   0  0  0  0  0  0  0  0  0  0  0  0
  165.1883  143.0095  184.7550 N   0  0  0  0  0  0  0  0  0  0  0  0
 34 35  1  0  0  0
 35 36  1  0  0  0
 35 22  1  0  0  0
 22 28  1  0  0  0
 28 29  1  0  0  0
 29 30  1  0  0  0
 30 31  1  0  0  0
 31 32  1  0  0  0
 32 33  1  0  0  0
 22 23  1  0  0  0
 23 24  1  0  0  0
 24 25  1  0  0  0
 25  1  1  0  0  0
  1  2  2  0  0  0
  2  3  1  0  0  0
  3  4  2  0  0  0
  4  5  1  0  0  0
  5  6  2  0  0  0
  4  7  1  0  0  0
  7  8  2  0  0  0
  7  9  1  0  0  0
  9 10  2  0  0  0
 10 11  1  0  0  0
 11 12  1  0  0  0
 12 13  2  0  0  0
 13 14  1  0  0  0
 14 37  1  0  0  0
 37 38  3  0  0  0
 14 15  2  0  0  0
 15 16  1  0  0  0
 16 17  2  0  0  0
 10 18  1  0  0  0
 18 19  1  0  0  0
 18 20  1  0  0  0
 25 26  1  0  0  0
 26 27  1  0  0  0
 27 22  1  0  0  0
 33 28  1  0  0  0
  6  1  1  0  0  0
 17  9  1  0  0  0
 18  3  1  0  0  0
 17 12  1  0  0  0
 11 21  1  0  0  0
M  END
> <minimizedAffinity>
2.95158

> <CNNscore>
0.3414078653

> <CNNaffinity>
6.4113640785

> <CNN_VS>
2.1888902187

> <CNNaffinity_variance>
0.7460419536

$$$$
[H]c1nc(N2C([H])([H])C([H])([H])C(N3C([H])([H])C([H])([H])OC([H])([H])C3([H])[H])(C([H])(C([H])([H])[H])C([H])([H])[H])C([H])([H])C2([H])[H])c([H])c2c1C(=O)c1c(n([H])c3c([H])c(C#N)c([H])c([H])c13)C2(C([H])([H])[H])C([H])([H])[H]


 38 43  0  0  0  0  0  0  0  0999 V2000
  154.1499  135.6246  186.5597 C   0  0  0  0  0  0  0  0  0  0  0  0
  154.3555  134.4208  185.9380 C   0  0  0  0  0  0  0  0  0  0  0  0
  154.1601  134.2650  184.5587 C   0  0  0  0  0  0  0  0  0  0  0  0
  153.7539  135.3655  183.8495 C   0  0  0  0  0  0  0  0  0  0  0  0
  153.5530  136.5705  184.5011 C   0  0  0  0  0  0  0  0  0  0  0  0
  153.7516  136.6761  185.8238 N   0  0  0  0  0  0  0  0  0  0  0  0
  153.5371  135.2593  182.4162 C   0  0  0  0  0  0  0  0  0  0  0  0
  153.1612  136.2716  181.7519 O   0  0  0  0  0  0  0  0  0  0  0  0
  153.7567  133.9836  181.7622 C   0  0  0  0  0  0  0  0  0  0  0  0
  154.1636  132.9103  182.5159 C   0  0  0  0  0  0  0  0  0  0  0  0
  154.3028  131.8328  181.6930 N   0  0  0  0  0  0  0  0  0  0  0  0
  153.9933  132.1924  180.4259 C   0  0  0  0  0  0  0  0  0  0  0  0
  153.9722  131.4890  179.2346 C   0  0  0  0  0  0  0  0  0  0  0  0
  153.6087  132.1287  178.0765 C   0  0  0  0  0  0  0  0  0  0  0  0
  153.2735  133.4651  178.1420 C   0  0  0  0  0  0  0  0  0  0  0  0
  153.2934  134.1675  179.3260 C   0  0  0  0  0  0  0  0  0  0  0  0
  153.6550  133.5295  180.4756 C   0  0  0  0  0  0  0  0  0  0  0  0
  154.3994  132.9526  183.9597 C   0  0  0  0  0  0  0  0  0  0  0  0
  155.8506  132.5070  184.1868 C   0  0  0  0  0  0  0  0  0  0  0  0
  153.5418  131.8544  184.5865 C   0  0  0  0  0  0  0  0  0  0  0  0
  154.5960  130.8734  181.9518 H   0  0  0  0  0  0  0  0  0  0  0  0
  154.6361  135.7592  190.9458 C   0  0  0  0  0  0  0  0  0  0  0  0
  153.3233  135.6562  190.1400 C   0  0  0  0  0  0  0  0  0  0  0  0
  153.3633  136.3941  188.8409 C   0  0  0  0  0  0  0  0  0  0  0  0
  154.3508  135.7870  187.9699 N   0  0  0  0  0  0  0  0  0  0  0  0
  155.5719  135.3520  188.6369 C   0  0  0  0  0  0  0  0  0  0  0  0
  155.6510  136.1783  189.9034 C   0  0  0  0  0  0  0  0  0  0  0  0
  154.8535  134.4827  191.4679 N   0  0  0  0  0  0  0  0  0  0  0  0
  156.0725  133.9613  191.8145 C   0  0  0  0  0  0  0  0  0  0  0  0
  156.2783  132.5518  191.3149 C   0  0  0  0  0  0  0  0  0  0  0  0
  155.1718  131.7544  191.4359 O   0  0  0  0  0  0  0  0  0  0  0  0
  154.0360  132.3292  190.8576 C   0  0  0  0  0  0  0  0  0  0  0  0
  153.7661  133.6030  191.6319 C   0  0  0  0  0  0  0  0  0  0  0  0
  153.2924  136.6304  192.9063 C   0  0  0  0  0  0  0  0  0  0  0  0
  154.5191  136.8008  192.0078 C   0  0  0  0  0  0  0  0  0  0  0  0
  155.6596  136.9715  192.9480 C   0  0  0  0  0  0  0  0  0  0  0  0
  153.5755  131.4180  176.8024 C   0  0  0  0  0  0  0  0  0  0  0  0
  153.5649  130.8620  175.7890 N   0  0  0  0  0  0  0  0  0  0  0  0
 34 35  1  0  0  0
 35 36  1  0  0  0
 35 22  1  0  0  0
 22 28  1  0  0  0
 28 29  1  0  0  0
 29 30  1  0  0  0
 30 31  1  0  0  0
 31 32  1  0  0  0
 32 33  1  0  0  0
 22 23  1  0  0  0
 23 24  1  0  0  0
 24 25  1  0  0  0
 25  1  1  0  0  0
  1  2  2  0  0  0
  2  3  1  0  0  0
  3  4  2  0  0  0
  4  5  1  0  0  0
  5  6  2  0  0  0
  4  7  1  0  0  0
  7  8  2  0  0  0
  7  9  1  0  0  0
  9 10  2  0  0  0
 10 11  1  0  0  0
 11 12  1  0  0  0
 12 13  2  0  0  0
 13 14  1  0  0  0
 14 37  1  0  0  0
 37 38  3  0  0  0
 14 15  2  0  0  0
 15 16  1  0  0  0
 16 17  2  0  0  0
 10 18  1  0  0  0
 18 19  1  0  0  0
 18 20  1  0  0  0
 25 26  1  0  0  0
 26 27  1  0  0  0
 27 22  1  0  0  0
 33 28  1  0  0  0
  6  1  1  0  0  0
 17  9  1  0  0  0
 18  3  1  0  0  0
 17 12  1  0  0  0
 11 21  1  0  0  0
M  END
> <minimizedAffinity>
-0.78587

> <CNNscore>
0.3332653344

> <CNNaffinity>
5.7703185081

> <CNN_VS>
1.9230471849

> <CNNaffinity_variance>
0.7676259279

$$$$
[H]c1nc(N2C([H])([H])C([H])([H])C(N3C([H])([H])C([H])([H])OC([H])([H])C3([H])[H])(C([H])(C([H])([H])[H])C([H])([H])[H])C([H])([H])C2([H])[H])c([H])c2c1C(=O)c1c(n([H])c3c([H])c(C#N)c([H])c([H])c13)C2(C([H])([H])[H])C([H])([H])[H]


 38 43  0  0  0  0  0  0  0  0999 V2000
  153.9545  139.5856  182.9198 C   0  0  0  0  0  0  0  0  0  0  0  0
  155.1597  139.7703  182.2943 C   0  0  0  0  0  0  0  0  0  0  0  0
  156.2966  140.1858  183.0011 C   0  0  0  0  0  0  0  0  0  0  0  0
  156.1597  140.4020  184.3478 C   0  0  0  0  0  0  0  0  0  0  0  0
  154.9312  140.2083  184.9562 C   0  0  0  0  0  0  0  0  0  0  0  0
  153.8676  139.8099  184.2419 N   0  0  0  0  0  0  0  0  0  0  0  0
  157.3073  140.8331  185.1286 C   0  0  0  0  0  0  0  0  0  0  0  0
  157.1904  141.0358  186.3747 O   0  0  0  0  0  0  0  0  0  0  0  0
  158.5811  141.0266  184.4627 C   0  0  0  0  0  0  0  0  0  0  0  0
  158.6678  140.7970  183.1116 C   0  0  0  0  0  0  0  0  0  0  0  0
  159.9479  141.0420  182.7133 N   0  0  0  0  0  0  0  0  0  0  0  0
  160.6852  141.4246  183.7813 C   0  0  0  0  0  0  0  0  0  0  0  0
  162.0150  141.7818  183.9180 C   0  0  0  0  0  0  0  0  0  0  0  0
  162.4987  142.1322  185.1532 C   0  0  0  0  0  0  0  0  0  0  0  0
  161.6325  142.1156  186.2265 C   0  0  0  0  0  0  0  0  0  0  0  0
  160.3089  141.7607  186.0934 C   0  0  0  0  0  0  0  0  0  0  0  0
  159.8305  141.4129  184.8648 C   0  0  0  0  0  0  0  0  0  0  0  0
  157.5514  140.3619  182.2711 C   0  0  0  0  0  0  0  0  0  0  0  0
  157.9822  139.0480  181.6044 C   0  0  0  0  0  0  0  0  0  0  0  0
  157.4313  141.3689  181.1285 C   0  0  0  0  0  0  0  0  0  0  0  0
  160.3389  140.9614  181.7572 H   0  0  0  0  0  0  0  0  0  0  0  0
  150.2497  138.1008  181.0322 C   0  0  0  0  0  0  0  0  0  0  0  0
  151.4366  137.2737  181.5712 C   0  0  0  0  0  0  0  0  0  0  0  0
  152.7587  137.9494  181.4005 C   0  0  0  0  0  0  0  0  0  0  0  0
  152.7906  139.1590  182.1995 N   0  0  0  0  0  0  0  0  0  0  0  0
  151.5447  139.9158  182.2160 C   0  0  0  0  0  0  0  0  0  0  0  0
  150.8112  139.5048  180.9567 C   0  0  0  0  0  0  0  0  0  0  0  0
  149.2308  137.9475  181.9745 N   0  0  0  0  0  0  0  0  0  0  0  0
  148.0992  138.7162  182.0555 C   0  0  0  0  0  0  0  0  0  0  0  0
  147.7814  139.1569  183.4638 C   0  0  0  0  0  0  0  0  0  0  0  0
  147.9743  138.1822  184.4059 O   0  0  0  0  0  0  0  0  0  0  0  0
  149.2519  137.6186  184.3344 C   0  0  0  0  0  0  0  0  0  0  0  0
  149.3484  136.9614  182.9729 C   0  0  0  0  0  0  0  0  0  0  0  0
  148.8236  136.4920  179.6958 C   0  0  0  0  0  0  0  0  0  0  0  0
  149.8521  137.6247  179.6751 C   0  0  0  0  0  0  0  0  0  0  0  0
  149.3017  138.6220  178.7179 C   0  0  0  0  0  0  0  0  0  0  0  0
  163.8955  142.5143  185.3340 C   0  0  0  0  0  0  0  0  0  0  0  0
  165.0014  142.8252  185.4618 N   0  0  0  0  0  0  0  0  0  0  0  0
 34 35  1  0  0  0
 35 36  1  0  0  0
 35 22  1  0  0  0
 22 28  1  0  0  0
 28 29  1  0  0  0
 29 30  1  0  0  0
 30 31  1  0  0  0
 31 32  1  0  0  0
 32 33  1  0  0  0
 22 23  1  0  0  0
 23 24  1  0  0  0
 24 25  1  0  0  0
 25  1  1  0  0  0
  1  2  2  0  0  0
  2  3  1  0  0  0
  3  4  2  0  0  0
  4  5  1  0  0  0
  5  6  2  0  0  0
  4  7  1  0  0  0
  7  8  2  0  0  0
  7  9  1  0  0  0
  9 10  2  0  0  0
 10 11  1  0  0  0
 11 12  1  0  0  0
 12 13  2  0  0  0
 13 14  1  0  0  0
 14 37  1  0  0  0
 37 38  3  0  0  0
 14 15  2  0  0  0
 15 16  1  0  0  0
 16 17  2  0  0  0
 10 18  1  0  0  0
 18 19  1  0  0  0
 18 20  1  0  0  0
 25 26  1  0  0  0
 26 27  1  0  0  0
 27 22  1  0  0  0
 33 28  1  0  0  0
  6  1  1  0  0  0
 17  9  1  0  0  0
 18  3  1  0  0  0
 17 12  1  0  0  0
 11 21  1  0  0  0
M  END
> <minimizedAffinity>
1.50062

> <CNNscore>
0.3313471973

> <CNNaffinity>
6.5259170532

> <CNN_VS>
2.1623442173

> <CNNaffinity_variance>
0.5497061014

$$$$
[H]OC(=O)c1c([H])c([H])nc([H])c1N([H])C([H])([H])C1([H])c2c([H])c([H])c(Sc3sc([H])c([H])c3[H])c([H])c2OC([H])([H])C1([H])[H]


 29 32  0  0  0  0  0  0  0  0999 V2000
  154.2977  141.3351  183.2276 C   0  0  0  0  0  0  0  0  0  0  0  0
  153.8596  142.7508  183.5680 C   0  0  0  0  0  0  0  0  0  0  0  0
  154.3625  143.7079  182.5319 C   0  0  0  0  0  0  0  0  0  0  0  0
  155.7296  143.5417  182.3043 O   0  0  0  0  0  0  0  0  0  0  0  0
  156.4476  142.4380  182.7649 C   0  0  0  0  0  0  0  0  0  0  0  0
  157.8482  142.4587  182.7552 C   0  0  0  0  0  0  0  0  0  0  0  0
  158.5846  141.3797  183.2052 C   0  0  0  0  0  0  0  0  0  0  0  0
  157.8870  140.2816  183.6644 C   0  0  0  0  0  0  0  0  0  0  0  0
  156.4879  140.2544  183.6768 C   0  0  0  0  0  0  0  0  0  0  0  0
  155.7893  141.3349  183.2260 C   0  0  0  0  0  0  0  0  0  0  0  0
  153.7512  141.0083  181.8647 C   0  0  0  0  0  0  0  0  0  0  0  0
  153.2530  139.6390  181.7602 N   0  0  0  0  0  0  0  0  0  0  0  0
  153.8083  138.8811  182.1954 H   0  0  0  0  0  0  0  0  0  0  0  0
  151.1975  138.3166  181.4674 C   0  0  0  0  0  0  0  0  0  0  0  0
  150.0779  138.0558  180.6448 C   0  0  0  0  0  0  0  0  0  0  0  0
  149.8424  138.7503  179.4957 C   0  0  0  0  0  0  0  0  0  0  0  0
  150.6934  139.7068  179.1326 N   0  0  0  0  0  0  0  0  0  0  0  0
  151.7696  139.9949  179.8728 C   0  0  0  0  0  0  0  0  0  0  0  0
  152.0567  139.3103  181.0625 C   0  0  0  0  0  0  0  0  0  0  0  0
  150.5217  137.3836  183.5566 O   0  0  0  0  0  0  0  0  0  0  0  0
  151.3624  137.5697  182.6824 C   0  0  0  0  0  0  0  0  0  0  0  0
  152.6175  136.9724  182.9268 O   0  0  0  0  0  0  0  0  0  0  0  0
  153.2231  137.2890  183.6653 H   0  0  0  0  0  0  0  0  0  0  0  0
  160.3519  141.4846  183.1601 S   0  0  0  0  0  0  0  0  0  0  0  0
  161.0069  142.0923  184.7291 C   0  0  0  0  0  0  0  0  0  0  0  0
  162.3263  142.2697  185.0640 C   0  0  0  0  0  0  0  0  0  0  0  0
  162.5830  142.7379  186.3002 C   0  0  0  0  0  0  0  0  0  0  0  0
  161.5068  142.9942  187.1101 C   0  0  0  0  0  0  0  0  0  0  0  0
  160.1799  142.5779  186.1313 S   0  0  0  0  0  0  0  0  0  0  0  0
 20 21  2  0  0  0
 21 22  1  0  0  0
 21 14  1  0  0  0
 14 15  2  0  0  0
 15 16  1  0  0  0
 16 17  2  0  0  0
 17 18  1  0  0  0
 18 19  2  0  0  0
 19 12  1  0  0  0
 12 11  1  0  0  0
 11  1  1  0  0  0
  1  2  1  0  0  0
  2  3  1  0  0  0
  3  4  1  0  0  0
  4  5  1  0  0  0
  5  6  2  0  0  0
  6  7  1  0  0  0
  7 24  1  0  0  0
 24 25  1  0  0  0
 25 26  2  0  0  0
 26 27  1  0  0  0
 27 28  2  0  0  0
 28 29  1  0  0  0
  7  8  2  0  0  0
  8  9  1  0  0  0
  9 10  2  0  0  0
 19 14  1  0  0  0
 10  1  1  0  0  0
 10  5  1  0  0  0
 29 25  1  0  0  0
 22 23  1  0  0  0
 12 13  1  0  0  0
M  END
> <minimizedAffinity>
-8.18961

> <CNNscore>
0.7008801699

> <CNNaffinity>
6.5931205750

> <CNN_VS>
4.6209874153

> <CNNaffinity_variance>
0.0200945269

$$$$
[H]OC(=O)c1c([H])c([H])nc([H])c1N([H])C([H])([H])C1([H])c2c([H])c([H])c(Sc3sc([H])c([H])c3[H])c([H])c2OC([H])([H])C1([H])[H]


 29 32  0  0  0  0  0  0  0  0999 V2000
  154.5282  137.5795  185.6952 C   0  0  0  0  0  0  0  0  0  0  0  0
  153.6720  136.3877  185.2970 C   0  0  0  0  0  0  0  0  0  0  0  0
  152.2704  136.5738  185.7905 C   0  0  0  0  0  0  0  0  0  0  0  0
  152.2463  136.9029  187.1467 O   0  0  0  0  0  0  0  0  0  0  0  0
  153.3836  137.2929  187.8540 C   0  0  0  0  0  0  0  0  0  0  0  0
  153.3584  137.3364  189.2538 C   0  0  0  0  0  0  0  0  0  0  0  0
  154.4699  137.7191  189.9797 C   0  0  0  0  0  0  0  0  0  0  0  0
  155.6053  138.0565  189.2723 C   0  0  0  0  0  0  0  0  0  0  0  0
  155.6373  138.0153  187.8739 C   0  0  0  0  0  0  0  0  0  0  0  0
  154.5240  137.6335  187.1858 C   0  0  0  0  0  0  0  0  0  0  0  0
  153.8949  138.8089  185.1034 C   0  0  0  0  0  0  0  0  0  0  0  0
  154.2517  139.0198  183.7026 N   0  0  0  0  0  0  0  0  0  0  0  0
  155.2558  139.0761  183.4559 H   0  0  0  0  0  0  0  0  0  0  0  0
  153.1208  140.3381  181.9583 C   0  0  0  0  0  0  0  0  0  0  0  0
  152.0699  140.3767  181.0137 C   0  0  0  0  0  0  0  0  0  0  0  0
  151.2355  139.3180  180.8106 C   0  0  0  0  0  0  0  0  0  0  0  0
  151.4131  138.2089  181.5243 N   0  0  0  0  0  0  0  0  0  0  0  0
  152.3911  138.1178  182.4322 C   0  0  0  0  0  0  0  0  0  0  0  0
  153.2755  139.1777  182.6788 C   0  0  0  0  0  0  0  0  0  0  0  0
  153.6721  142.5989  182.4841 O   0  0  0  0  0  0  0  0  0  0  0  0
  153.9830  141.4782  182.0930 C   0  0  0  0  0  0  0  0  0  0  0  0
  155.3420  141.3249  181.7450 O   0  0  0  0  0  0  0  0  0  0  0  0
  155.7418  141.7845  180.9441 H   0  0  0  0  0  0  0  0  0  0  0  0
  154.3568  137.7479  191.7468 S   0  0  0  0  0  0  0  0  0  0  0  0
  152.9409  136.7870  192.3230 C   0  0  0  0  0  0  0  0  0  0  0  0
  151.7830  137.2692  192.8805 C   0  0  0  0  0  0  0  0  0  0  0  0
  150.8556  136.3609  193.2390 C   0  0  0  0  0  0  0  0  0  0  0  0
  151.1510  135.0408  193.0154 C   0  0  0  0  0  0  0  0  0  0  0  0
  152.7005  135.1053  192.3176 S   0  0  0  0  0  0  0  0  0  0  0  0
 20 21  2  0  0  0
 21 22  1  0  0  0
 21 14  1  0  0  0
 14 15  2  0  0  0
 15 16  1  0  0  0
 16 17  2  0  0  0
 17 18  1  0  0  0
 18 19  2  0  0  0
 19 12  1  0  0  0
 12 11  1  0  0  0
 11  1  1  0  0  0
  1  2  1  0  0  0
  2  3  1  0  0  0
  3  4  1  0  0  0
  4  5  1  0  0  0
  5  6  2  0  0  0
  6  7  1  0  0  0
  7 24  1  0  0  0
 24 25  1  0  0  0
 25 26  2  0  0  0
 26 27  1  0  0  0
 27 28  2  0  0  0
 28 29  1  0  0  0
  7  8  2  0  0  0
  8  9  1  0  0  0
  9 10  2  0  0  0
 19 14  1  0  0  0
 10  1  1  0  0  0
 10  5  1  0  0  0
 29 25  1  0  0  0
 22 23  1  0  0  0
 12 13  1  0  0  0
M  END
> <minimizedAffinity>
-6.61256

> <CNNscore>
0.2621109188

> <CNNaffinity>
5.3854098320

> <CNN_VS>
1.4115747213

> <CNNaffinity_variance>
0.0358968601

$$$$
[H]OC(=O)c1c([H])c([H])nc([H])c1N([H])C([H])([H])C1([H])c2c([H])c([H])c(Sc3sc([H])c([H])c3[H])c([H])c2OC([H])([H])C1([H])[H]


 29 32  0  0  0  0  0  0  0  0999 V2000
  155.7718  140.3724  182.9360 C   0  0  0  0  0  0  0  0  0  0  0  0
  156.1847  139.0546  183.5722 C   0  0  0  0  0  0  0  0  0  0  0  0
  156.4302  139.2453  185.0370 C   0  0  0  0  0  0  0  0  0  0  0  0
  157.2877  140.3206  185.2750 O   0  0  0  0  0  0  0  0  0  0  0  0
  157.6201  141.2580  184.2969 C   0  0  0  0  0  0  0  0  0  0  0  0
  158.6892  142.1390  184.5042 C   0  0  0  0  0  0  0  0  0  0  0  0
  159.0403  143.0773  183.5528 C   0  0  0  0  0  0  0  0  0  0  0  0
  158.2971  143.1127  182.3910 C   0  0  0  0  0  0  0  0  0  0  0  0
  157.2279  142.2356  182.1775 C   0  0  0  0  0  0  0  0  0  0  0  0
  156.9058  141.3206  183.1355 C   0  0  0  0  0  0  0  0  0  0  0  0
  154.5328  140.8477  183.6446 C   0  0  0  0  0  0  0  0  0  0  0  0
  153.4484  139.8692  183.6216 N   0  0  0  0  0  0  0  0  0  0  0  0
  153.1776  139.4168  184.5128 H   0  0  0  0  0  0  0  0  0  0  0  0
  152.4225  138.2033  182.1276 C   0  0  0  0  0  0  0  0  0  0  0  0
  151.8149  137.9697  180.8729 C   0  0  0  0  0  0  0  0  0  0  0  0
  151.5805  138.9732  179.9804 C   0  0  0  0  0  0  0  0  0  0  0  0
  151.9347  140.2160  180.2976 N   0  0  0  0  0  0  0  0  0  0  0  0
  152.5139  140.4940  181.4708 C   0  0  0  0  0  0  0  0  0  0  0  0
  152.7766  139.4983  182.4228 C   0  0  0  0  0  0  0  0  0  0  0  0
  152.4017  137.0986  184.2421 O   0  0  0  0  0  0  0  0  0  0  0  0
  152.6055  137.1035  183.0321 C   0  0  0  0  0  0  0  0  0  0  0  0
  153.0699  135.8809  182.5018 O   0  0  0  0  0  0  0  0  0  0  0  0
  153.9836  135.5194  182.7184 H   0  0  0  0  0  0  0  0  0  0  0  0
  160.4046  144.1546  183.8910 S   0  0  0  0  0  0  0  0  0  0  0  0
  161.4738  143.4661  185.1727 C   0  0  0  0  0  0  0  0  0  0  0  0
  161.4341  143.7344  186.5183 C   0  0  0  0  0  0  0  0  0  0  0  0
  162.3355  143.1007  187.2924 C   0  0  0  0  0  0  0  0  0  0  0  0
  163.2089  142.2475  186.6685 C   0  0  0  0  0  0  0  0  0  0  0  0
  162.7504  142.3538  185.0343 S   0  0  0  0  0  0  0  0  0  0  0  0
 20 21  2  0  0  0
 21 22  1  0  0  0
 21 14  1  0  0  0
 14 15  2  0  0  0
 15 16  1  0  0  0
 16 17  2  0  0  0
 17 18  1  0  0  0
 18 19  2  0  0  0
 19 12  1  0  0  0
 12 11  1  0  0  0
 11  1  1  0  0  0
  1  2  1  0  0  0
  2  3  1  0  0  0
  3  4  1  0  0  0
  4  5  1  0  0  0
  5  6  2  0  0  0
  6  7  1  0  0  0
  7 24  1  0  0  0
 24 25  1  0  0  0
 25 26  2  0  0  0
 26 27  1  0  0  0
 27 28  2  0  0  0
 28 29  1  0  0  0
  7  8  2  0  0  0
  8  9  1  0  0  0
  9 10  2  0  0  0
 19 14  1  0  0  0
 10  1  1  0  0  0
 10  5  1  0  0  0
 29 25  1  0  0  0
 22 23  1  0  0  0
 12 13  1  0  0  0
M  END
> <minimizedAffinity>
-6.24757

> <CNNscore>
0.2554576397

> <CNNaffinity>
6.2658801079

> <CNN_VS>
1.6006669998

> <CNNaffinity_variance>
0.0750034675

$$$$
[H]OC(=O)c1c([H])c([H])nc([H])c1N([H])C([H])([H])C1([H])c2c([H])c([H])c(Sc3sc([H])c([H])c3[H])c([H])c2OC([H])([H])C1([H])[H]


 29 32  0  0  0  0  0  0  0  0999 V2000
  154.4994  139.7996  184.4525 C   0  0  0  0  0  0  0  0  0  0  0  0
  153.9363  138.8031  185.4534 C   0  0  0  0  0  0  0  0  0  0  0  0
  154.0138  137.4153  184.8963 C   0  0  0  0  0  0  0  0  0  0  0  0
  153.4686  137.3493  183.6131 O   0  0  0  0  0  0  0  0  0  0  0  0
  153.1715  138.4818  182.8548 C   0  0  0  0  0  0  0  0  0  0  0  0
  152.3758  138.3689  181.7076 C   0  0  0  0  0  0  0  0  0  0  0  0
  152.0660  139.4737  180.9380 C   0  0  0  0  0  0  0  0  0  0  0  0
  152.5706  140.6920  181.3433 C   0  0  0  0  0  0  0  0  0  0  0  0
  153.3662  140.8118  182.4883 C   0  0  0  0  0  0  0  0  0  0  0  0
  153.6545  139.7029  183.2271 C   0  0  0  0  0  0  0  0  0  0  0  0
  155.9211  139.3994  184.1674 C   0  0  0  0  0  0  0  0  0  0  0  0
  156.8220  140.5415  184.0325 N   0  0  0  0  0  0  0  0  0  0  0  0
  157.0394  141.0967  184.8790 H   0  0  0  0  0  0  0  0  0  0  0  0
  157.0835  142.1192  182.1611 C   0  0  0  0  0  0  0  0  0  0  0  0
  157.6662  142.3497  180.8941 C   0  0  0  0  0  0  0  0  0  0  0  0
  158.4941  141.4447  180.2991 C   0  0  0  0  0  0  0  0  0  0  0  0
  158.7647  140.3044  180.9293 N   0  0  0  0  0  0  0  0  0  0  0  0
  158.2400  140.0340  182.1295 C   0  0  0  0  0  0  0  0  0  0  0  0
  157.3834  140.9310  182.7838 C   0  0  0  0  0  0  0  0  0  0  0  0
  155.5534  143.0317  183.7480 O   0  0  0  0  0  0  0  0  0  0  0  0
  156.2499  143.1331  182.7429 C   0  0  0  0  0  0  0  0  0  0  0  0
  156.2053  144.3951  182.1126 O   0  0  0  0  0  0  0  0  0  0  0  0
  155.3771  144.7300  181.6497 H   0  0  0  0  0  0  0  0  0  0  0  0
  151.0540  139.2471  179.5025 S   0  0  0  0  0  0  0  0  0  0  0  0
  149.3339  138.9454  179.9611 C   0  0  0  0  0  0  0  0  0  0  0  0
  148.3384  138.4418  179.1613 C   0  0  0  0  0  0  0  0  0  0  0  0
  147.1213  138.3008  179.7201 C   0  0  0  0  0  0  0  0  0  0  0  0
  146.9868  138.6719  181.0332 C   0  0  0  0  0  0  0  0  0  0  0  0
  148.5491  139.2020  181.4458 S   0  0  0  0  0  0  0  0  0  0  0  0
 20 21  2  0  0  0
 21 22  1  0  0  0
 21 14  1  0  0  0
 14 15  2  0  0  0
 15 16  1  0  0  0
 16 17  2  0  0  0
 17 18  1  0  0  0
 18 19  2  0  0  0
 19 12  1  0  0  0
 12 11  1  0  0  0
 11  1  1  0  0  0
  1  2  1  0  0  0
  2  3  1  0  0  0
  3  4  1  0  0  0
  4  5  1  0  0  0
  5  6  2  0  0  0
  6  7  1  0  0  0
  7 24  1  0  0  0
 24 25  1  0  0  0
 25 26  2  0  0  0
 26 27  1  0  0  0
 27 28  2  0  0  0
 28 29  1  0  0  0
  7  8  2  0  0  0
  8  9  1  0  0  0
  9 10  2  0  0  0
 19 14  1  0  0  0
 10  1  1  0  0  0
 10  5  1  0  0  0
 29 25  1  0  0  0
 22 23  1  0  0  0
 12 13  1  0  0  0
M  END
> <minimizedAffinity>
-7.56462

> <CNNscore>
0.2510144413

> <CNNaffinity>
5.7666053772

> <CNN_VS>
1.4475011826

> <CNNaffinity_variance>
0.2338535488

$$$$
[H]OC(=O)c1c([H])c([H])nc([H])c1N([H])C([H])([H])C1([H])c2c([H])c([H])c(Sc3sc([H])c([H])c3[H])c([H])c2OC([H])([H])C1([H])[H]


 29 32  0  0  0  0  0  0  0  0999 V2000
  154.3263  141.8224  183.4871 C   0  0  0  0  0  0  0  0  0  0  0  0
  154.0077  143.3031  183.6211 C   0  0  0  0  0  0  0  0  0  0  0  0
  154.5668  144.0569  182.4542 C   0  0  0  0  0  0  0  0  0  0  0  0
  155.9122  143.7496  182.2453 O   0  0  0  0  0  0  0  0  0  0  0  0
  156.5485  142.6694  182.8569 C   0  0  0  0  0  0  0  0  0  0  0  0
  157.9459  142.5751  182.8362 C   0  0  0  0  0  0  0  0  0  0  0  0
  158.6022  141.5163  183.4337 C   0  0  0  0  0  0  0  0  0  0  0  0
  157.8279  140.5559  184.0514 C   0  0  0  0  0  0  0  0  0  0  0  0
  156.4316  140.6440  184.0757 C   0  0  0  0  0  0  0  0  0  0  0  0
  155.8129  141.7012  183.4770 C   0  0  0  0  0  0  0  0  0  0  0  0
  153.7319  141.3478  182.1893 C   0  0  0  0  0  0  0  0  0  0  0  0
  153.8698  139.9074  181.9884 N   0  0  0  0  0  0  0  0  0  0  0  0
  154.7224  139.5580  181.5161 H   0  0  0  0  0  0  0  0  0  0  0  0
  151.7094  138.7679  181.6822 C   0  0  0  0  0  0  0  0  0  0  0  0
  150.7738  137.8608  182.2299 C   0  0  0  0  0  0  0  0  0  0  0  0
  150.9944  137.2118  183.4083 C   0  0  0  0  0  0  0  0  0  0  0  0
  152.1276  137.4378  184.0683 N   0  0  0  0  0  0  0  0  0  0  0  0
  153.0473  138.2868  183.5967 C   0  0  0  0  0  0  0  0  0  0  0  0
  152.8687  138.9788  182.3901 C   0  0  0  0  0  0  0  0  0  0  0  0
  150.3494  139.8397  180.0410 O   0  0  0  0  0  0  0  0  0  0  0  0
  151.4259  139.3878  180.4186 C   0  0  0  0  0  0  0  0  0  0  0  0
  152.4800  139.5046  179.4876 O   0  0  0  0  0  0  0  0  0  0  0  0
  152.4908  138.9829  178.6272 H   0  0  0  0  0  0  0  0  0  0  0  0
  160.3712  141.4702  183.3637 S   0  0  0  0  0  0  0  0  0  0  0  0
  161.0986  142.1026  184.8905 C   0  0  0  0  0  0  0  0  0  0  0  0
  162.4332  142.2597  185.1704 C   0  0  0  0  0  0  0  0  0  0  0  0
  162.7470  142.7529  186.3835 C   0  0  0  0  0  0  0  0  0  0  0  0
  161.7082  143.0527  187.2268 C   0  0  0  0  0  0  0  0  0  0  0  0
  160.3364  142.6409  186.3100 S   0  0  0  0  0  0  0  0  0  0  0  0
 20 21  2  0  0  0
 21 22  1  0  0  0
 21 14  1  0  0  0
 14 15  2  0  0  0
 15 16  1  0  0  0
 16 17  2  0  0  0
 17 18  1  0  0  0
 18 19  2  0  0  0
 19 12  1  0  0  0
 12 11  1  0  0  0
 11  1  1  0  0  0
  1  2  1  0  0  0
  2  3  1  0  0  0
  3  4  1  0  0  0
  4  5  1  0  0  0
  5  6  2  0  0  0
  6  7  1  0  0  0
  7 24  1  0  0  0
 24 25  1  0  0  0
 25 26  2  0  0  0
 26 27  1  0  0  0
 27 28  2  0  0  0
 28 29  1  0  0  0
  7  8  2  0  0  0
  8  9  1  0  0  0
  9 10  2  0  0  0
 19 14  1  0  0  0
 10  1  1  0  0  0
 10  5  1  0  0  0
 29 25  1  0  0  0
 22 23  1  0  0  0
 12 13  1  0  0  0
M  END
> <minimizedAffinity>
-8.16721

> <CNNscore>
0.2469019890

> <CNNaffinity>
6.3229436874

> <CNN_VS>
1.5611473322

> <CNNaffinity_variance>
0.0214688554

$$$$
[H]OC(=O)c1c([H])c([H])nc([H])c1N([H])C([H])([H])C1([H])c2c([H])c([H])c(Sc3sc([H])c([H])c3[H])c([H])c2OC([H])([H])C1([H])[H]


 29 32  0  0  0  0  0  0  0  0999 V2000
  153.6332  137.7581  185.8031 C   0  0  0  0  0  0  0  0  0  0  0  0
  154.6653  136.7005  186.1610 C   0  0  0  0  0  0  0  0  0  0  0  0
  155.8054  137.3254  186.9041 C   0  0  0  0  0  0  0  0  0  0  0  0
  156.3011  138.4436  186.2317 O   0  0  0  0  0  0  0  0  0  0  0  0
  155.6272  139.0546  185.1742 C   0  0  0  0  0  0  0  0  0  0  0  0
  156.2910  139.9835  184.3626 C   0  0  0  0  0  0  0  0  0  0  0  0
  155.6481  140.6038  183.3087 C   0  0  0  0  0  0  0  0  0  0  0  0
  154.3273  140.2728  183.0868 C   0  0  0  0  0  0  0  0  0  0  0  0
  153.6582  139.3457  183.8937 C   0  0  0  0  0  0  0  0  0  0  0  0
  154.3199  138.7503  184.9264 C   0  0  0  0  0  0  0  0  0  0  0  0
  153.1720  138.3922  187.0868 C   0  0  0  0  0  0  0  0  0  0  0  0
  152.4358  137.4710  187.9490 N   0  0  0  0  0  0  0  0  0  0  0  0
  151.5653  137.0466  187.5825 H   0  0  0  0  0  0  0  0  0  0  0  0
  152.2135  136.2434  190.0711 C   0  0  0  0  0  0  0  0  0  0  0  0
  152.6999  136.0805  191.3883 C   0  0  0  0  0  0  0  0  0  0  0  0
  153.7592  136.7935  191.8656 C   0  0  0  0  0  0  0  0  0  0  0  0
  154.3580  137.6739  191.0674 N   0  0  0  0  0  0  0  0  0  0  0  0
  153.9388  137.8692  189.8123 C   0  0  0  0  0  0  0  0  0  0  0  0
  152.8544  137.1616  189.2738 C   0  0  0  0  0  0  0  0  0  0  0  0
  150.0800  135.8170  189.0921 O   0  0  0  0  0  0  0  0  0  0  0  0
  151.1162  135.4321  189.6250 C   0  0  0  0  0  0  0  0  0  0  0  0
  151.2095  134.0356  189.8056 O   0  0  0  0  0  0  0  0  0  0  0  0
  150.6183  133.5417  190.4528 H   0  0  0  0  0  0  0  0  0  0  0  0
  156.5575  141.7663  182.3300 S   0  0  0  0  0  0  0  0  0  0  0  0
  158.2425  141.9593  182.9492 C   0  0  0  0  0  0  0  0  0  0  0  0
  158.7628  143.0415  183.6143 C   0  0  0  0  0  0  0  0  0  0  0  0
  160.0552  142.9647  183.9850 C   0  0  0  0  0  0  0  0  0  0  0  0
  160.7324  141.8161  183.6654 C   0  0  0  0  0  0  0  0  0  0  0  0
  159.5560  140.8853  182.8642 S   0  0  0  0  0  0  0  0  0  0  0  0
 20 21  2  0  0  0
 21 22  1  0  0  0
 21 14  1  0  0  0
 14 15  2  0  0  0
 15 16  1  0  0  0
 16 17  2  0  0  0
 17 18  1  0  0  0
 18 19  2  0  0  0
 19 12  1  0  0  0
 12 11  1  0  0  0
 11  1  1  0  0  0
  1  2  1  0  0  0
  2  3  1  0  0  0
  3  4  1  0  0  0
  4  5  1  0  0  0
  5  6  2  0  0  0
  6  7  1  0  0  0
  7 24  1  0  0  0
 24 25  1  0  0  0
 25 26  2  0  0  0
 26 27  1  0  0  0
 27 28  2  0  0  0
 28 29  1  0  0  0
  7  8  2  0  0  0
  8  9  1  0  0  0
  9 10  2  0  0  0
 19 14  1  0  0  0
 10  1  1  0  0  0
 10  5  1  0  0  0
 29 25  1  0  0  0
 22 23  1  0  0  0
 12 13  1  0  0  0
M  END
> <minimizedAffinity>
-6.07009

> <CNNscore>
0.2415953428

> <CNNaffinity>
5.6080961227

> <CNN_VS>
1.3548898697

> <CNNaffinity_variance>
0.0603240132

$$$$
[H]OC(=O)c1c([H])c([H])nc([H])c1N([H])C([H])([H])C1([H])c2c([H])c([H])c(Sc3sc([H])c([H])c3[H])c([H])c2OC([H])([H])C1([H])[H]


 29 32  0  0  0  0  0  0  0  0999 V2000
  154.7270  139.8083  184.4220 C   0  0  0  0  0  0  0  0  0  0  0  0
  154.1854  138.8289  185.4512 C   0  0  0  0  0  0  0  0  0  0  0  0
  154.2005  137.4384  184.8956 C   0  0  0  0  0  0  0  0  0  0  0  0
  153.5945  137.3842  183.6394 O   0  0  0  0  0  0  0  0  0  0  0  0
  153.2920  138.5226  182.8922 C   0  0  0  0  0  0  0  0  0  0  0  0
  152.4409  138.4283  181.7836 C   0  0  0  0  0  0  0  0  0  0  0  0
  152.1245  139.5393  181.0257 C   0  0  0  0  0  0  0  0  0  0  0  0
  152.6792  140.7448  181.4031 C   0  0  0  0  0  0  0  0  0  0  0  0
  153.5302  140.8459  182.5094 C   0  0  0  0  0  0  0  0  0  0  0  0
  153.8236  139.7313  183.2376 C   0  0  0  0  0  0  0  0  0  0  0  0
  156.1230  139.3703  184.0721 C   0  0  0  0  0  0  0  0  0  0  0  0
  157.0865  140.4684  184.0774 N   0  0  0  0  0  0  0  0  0  0  0  0
  157.3058  140.9234  184.9813 H   0  0  0  0  0  0  0  0  0  0  0  0
  158.9955  141.4260  182.8534 C   0  0  0  0  0  0  0  0  0  0  0  0
  159.4633  141.9294  181.6182 C   0  0  0  0  0  0  0  0  0  0  0  0
  158.6851  141.9481  180.4990 C   0  0  0  0  0  0  0  0  0  0  0  0
  157.4422  141.4776  180.5681 N   0  0  0  0  0  0  0  0  0  0  0  0
  156.9478  140.9904  181.7115 C   0  0  0  0  0  0  0  0  0  0  0  0
  157.7069  140.9488  182.8898 C   0  0  0  0  0  0  0  0  0  0  0  0
  159.5941  141.6186  185.1548 O   0  0  0  0  0  0  0  0  0  0  0  0
  159.8831  141.4046  183.9817 C   0  0  0  0  0  0  0  0  0  0  0  0
  161.2431  141.1085  183.7481 O   0  0  0  0  0  0  0  0  0  0  0  0
  161.9661  141.7982  183.8666 H   0  0  0  0  0  0  0  0  0  0  0  0
  151.0410  139.3364  179.6397 S   0  0  0  0  0  0  0  0  0  0  0  0
  149.3341  139.0997  180.1785 C   0  0  0  0  0  0  0  0  0  0  0  0
  148.7650  139.5389  181.3479 C   0  0  0  0  0  0  0  0  0  0  0  0
  147.4651  139.2447  181.5406 C   0  0  0  0  0  0  0  0  0  0  0  0
  146.8295  138.5351  180.5544 C   0  0  0  0  0  0  0  0  0  0  0  0
  148.0539  138.3016  179.3975 S   0  0  0  0  0  0  0  0  0  0  0  0
 20 21  2  0  0  0
 21 22  1  0  0  0
 21 14  1  0  0  0
 14 15  2  0  0  0
 15 16  1  0  0  0
 16 17  2  0  0  0
 17 18  1  0  0  0
 18 19  2  0  0  0
 19 12  1  0  0  0
 12 11  1  0  0  0
 11  1  1  0  0  0
  1  2  1  0  0  0
  2  3  1  0  0  0
  3  4  1  0  0  0
  4  5  1  0  0  0
  5  6  2  0  0  0
  6  7  1  0  0  0
  7 24  1  0  0  0
 24 25  1  0  0  0
 25 26  2  0  0  0
 26 27  1  0  0  0
 27 28  2  0  0  0
 28 29  1  0  0  0
  7  8  2  0  0  0
  8  9  1  0  0  0
  9 10  2  0  0  0
 19 14  1  0  0  0
 10  1  1  0  0  0
 10  5  1  0  0  0
 29 25  1  0  0  0
 22 23  1  0  0  0
 12 13  1  0  0  0
M  END
> <minimizedAffinity>
-7.85992

> <CNNscore>
0.2164236307

> <CNNaffinity>
5.9180583954

> <CNN_VS>
1.2808077335

> <CNNaffinity_variance>
0.0566598363

$$$$
[H]OC(=O)c1c([H])c([H])nc([H])c1N([H])C([H])([H])C1([H])c2c([H])c([H])c(Sc3sc([H])c([H])c3[H])c([H])c2OC([H])([H])C1([H])[H]


 29 32  0  0  0  0  0  0  0  0999 V2000
  153.4072  137.3525  185.0033 C   0  0  0  0  0  0  0  0  0  0  0  0
  154.1640  136.1120  185.4507 C   0  0  0  0  0  0  0  0  0  0  0  0
  154.9254  136.3996  186.7077 C   0  0  0  0  0  0  0  0  0  0  0  0
  155.6932  137.5588  186.5854 O   0  0  0  0  0  0  0  0  0  0  0  0
  155.5314  138.4706  185.5421 C   0  0  0  0  0  0  0  0  0  0  0  0
  156.5022  139.4540  185.3131 C   0  0  0  0  0  0  0  0  0  0  0  0
  156.3674  140.3698  184.2874 C   0  0  0  0  0  0  0  0  0  0  0  0
  155.2400  140.2778  183.4977 C   0  0  0  0  0  0  0  0  0  0  0  0
  154.2663  139.2978  183.7210 C   0  0  0  0  0  0  0  0  0  0  0  0
  154.4278  138.4082  184.7414 C   0  0  0  0  0  0  0  0  0  0  0  0
  152.4874  137.7499  186.1254 C   0  0  0  0  0  0  0  0  0  0  0  0
  151.1369  137.2130  185.9771 N   0  0  0  0  0  0  0  0  0  0  0  0
  150.6516  137.3504  185.0727 H   0  0  0  0  0  0  0  0  0  0  0  0
  149.1080  136.6492  187.2518 C   0  0  0  0  0  0  0  0  0  0  0  0
  148.5783  135.9732  188.3745 C   0  0  0  0  0  0  0  0  0  0  0  0
  149.3592  135.2370  189.2151 C   0  0  0  0  0  0  0  0  0  0  0  0
  150.6649  135.1498  188.9738 N   0  0  0  0  0  0  0  0  0  0  0  0
  151.2195  135.7698  187.9263 C   0  0  0  0  0  0  0  0  0  0  0  0
  150.4605  136.5388  187.0324 C   0  0  0  0  0  0  0  0  0  0  0  0
  147.5741  138.3815  186.6701 O   0  0  0  0  0  0  0  0  0  0  0  0
  148.2197  137.3765  186.3895 C   0  0  0  0  0  0  0  0  0  0  0  0
  148.0493  136.9089  185.0690 O   0  0  0  0  0  0  0  0  0  0  0  0
  147.1792  136.5158  184.7514 H   0  0  0  0  0  0  0  0  0  0  0  0
  157.6391  141.5819  184.0639 S   0  0  0  0  0  0  0  0  0  0  0  0
  157.9327  141.9000  182.3110 C   0  0  0  0  0  0  0  0  0  0  0  0
  158.1411  140.9702  181.3229 C   0  0  0  0  0  0  0  0  0  0  0  0
  158.3404  141.4402  180.0767 C   0  0  0  0  0  0  0  0  0  0  0  0
  158.3172  142.8007  179.9082 C   0  0  0  0  0  0  0  0  0  0  0  0
  158.0206  143.3789  181.4797 S   0  0  0  0  0  0  0  0  0  0  0  0
 20 21  2  0  0  0
 21 22  1  0  0  0
 21 14  1  0  0  0
 14 15  2  0  0  0
 15 16  1  0  0  0
 16 17  2  0  0  0
 17 18  1  0  0  0
 18 19  2  0  0  0
 19 12  1  0  0  0
 12 11  1  0  0  0
 11  1  1  0  0  0
  1  2  1  0  0  0
  2  3  1  0  0  0
  3  4  1  0  0  0
  4  5  1  0  0  0
  5  6  2  0  0  0
  6  7  1  0  0  0
  7 24  1  0  0  0
 24 25  1  0  0  0
 25 26  2  0  0  0
 26 27  1  0  0  0
 27 28  2  0  0  0
 28 29  1  0  0  0
  7  8  2  0  0  0
  8  9  1  0  0  0
  9 10  2  0  0  0
 19 14  1  0  0  0
 10  1  1  0  0  0
 10  5  1  0  0  0
 29 25  1  0  0  0
 22 23  1  0  0  0
 12 13  1  0  0  0
M  END
> <minimizedAffinity>
-5.92170

> <CNNscore>
0.2084843516

> <CNNaffinity>
5.4417600632

> <CNN_VS>
1.1345218420

> <CNNaffinity_variance>
0.1470340043

$$$$
[H]OC(=O)c1c([H])c([H])nc([H])c1N([H])C([H])([H])C1([H])c2c([H])c([H])c(Sc3sc([H])c([H])c3[H])c([H])c2OC([H])([H])C1([H])[H]


 29 32  0  0  0  0  0  0  0  0999 V2000
  155.9229  137.6969  187.9454 C   0  0  0  0  0  0  0  0  0  0  0  0
  154.8109  138.0174  188.9316 C   0  0  0  0  0  0  0  0  0  0  0  0
  153.5060  137.4846  188.4261 C   0  0  0  0  0  0  0  0  0  0  0  0
  153.2702  137.8783  187.1079 O   0  0  0  0  0  0  0  0  0  0  0  0
  154.2560  138.4362  186.2939 C   0  0  0  0  0  0  0  0  0  0  0  0
  153.9014  139.0653  185.0936 C   0  0  0  0  0  0  0  0  0  0  0  0
  154.8569  139.6261  184.2682 C   0  0  0  0  0  0  0  0  0  0  0  0
  156.1735  139.5424  184.6720 C   0  0  0  0  0  0  0  0  0  0  0  0
  156.5346  138.9153  185.8697 C   0  0  0  0  0  0  0  0  0  0  0  0
  155.5684  138.3712  186.6630 C   0  0  0  0  0  0  0  0  0  0  0  0
  155.9649  136.2021  187.7818 C   0  0  0  0  0  0  0  0  0  0  0  0
  156.7939  135.5388  188.7852 N   0  0  0  0  0  0  0  0  0  0  0  0
  156.6956  135.8318  189.7735 H   0  0  0  0  0  0  0  0  0  0  0  0
  157.4917  133.1874  188.5763 C   0  0  0  0  0  0  0  0  0  0  0  0
  158.5478  132.3005  188.2663 C   0  0  0  0  0  0  0  0  0  0  0  0
  159.7711  132.7415  187.8571 C   0  0  0  0  0  0  0  0  0  0  0  0
  159.9819  134.0506  187.7450 N   0  0  0  0  0  0  0  0  0  0  0  0
  159.0184  134.9348  188.0262 C   0  0  0  0  0  0  0  0  0  0  0  0
  157.7437  134.5328  188.4506 C   0  0  0  0  0  0  0  0  0  0  0  0
  155.5738  132.9308  189.9721 O   0  0  0  0  0  0  0  0  0  0  0  0
  156.2186  132.6503  188.9665 C   0  0  0  0  0  0  0  0  0  0  0  0
  155.6176  131.6926  188.1219 O   0  0  0  0  0  0  0  0  0  0  0  0
  155.5104  130.7312  188.3986 H   0  0  0  0  0  0  0  0  0  0  0  0
  154.3269  140.4034  182.7678 S   0  0  0  0  0  0  0  0  0  0  0  0
  155.3782  141.8137  182.3601 C   0  0  0  0  0  0  0  0  0  0  0  0
  155.0628  143.1445  182.4774 C   0  0  0  0  0  0  0  0  0  0  0  0
  156.0098  144.0292  182.1112 C   0  0  0  0  0  0  0  0  0  0  0  0
  157.1995  143.5222  181.6557 C   0  0  0  0  0  0  0  0  0  0  0  0
  156.9637  141.8407  181.7510 S   0  0  0  0  0  0  0  0  0  0  0  0
 20 21  2  0  0  0
 21 22  1  0  0  0
 21 14  1  0  0  0
 14 15  2  0  0  0
 15 16  1  0  0  0
 16 17  2  0  0  0
 17 18  1  0  0  0
 18 19  2  0  0  0
 19 12  1  0  0  0
 12 11  1  0  0  0
 11  1  1  0  0  0
  1  2  1  0  0  0
  2  3  1  0  0  0
  3  4  1  0  0  0
  4  5  1  0  0  0
  5  6  2  0  0  0
  6  7  1  0  0  0
  7 24  1  0  0  0
 24 25  1  0  0  0
 25 26  2  0  0  0
 26 27  1  0  0  0
 27 28  2  0  0  0
 28 29  1  0  0  0
  7  8  2  0  0  0
  8  9  1  0  0  0
  9 10  2  0  0  0
 19 14  1  0  0  0
 10  1  1  0  0  0
 10  5  1  0  0  0
 29 25  1  0  0  0
 22 23  1  0  0  0
 12 13  1  0  0  0
M  END
> <minimizedAffinity>
-6.07758

> <CNNscore>
0.2003920078

> <CNNaffinity>
5.4376373291

> <CNN_VS>
1.0896590948

> <CNNaffinity_variance>
0.0596526153

$$$$
[H]N=c1c(C(=O)N([H])C([H])([H])c2oc([H])c([H])c2[H])c([H])c2c(=O)n3c([H])c([H])c([H])c([H])c3nc2n1C([H])([H])c1c([H])c([H])c(C([H])([H])[H])c([H])c1[H]


 35 39  0  0  0  0  0  0  0  0999 V2000
  152.4434  138.0871  182.9373 N   0  0  0  0  0  0  0  0  0  0  0  0
  153.3600  139.0713  183.1409 C   0  0  0  0  0  0  0  0  0  0  0  0
  154.0782  138.9573  184.1603 N   0  0  0  0  0  0  0  0  0  0  0  0
  153.4870  140.1782  182.3425 C   0  0  0  0  0  0  0  0  0  0  0  0
  152.6032  140.2777  181.2627 C   0  0  0  0  0  0  0  0  0  0  0  0
  151.6746  139.3175  181.0294 C   0  0  0  0  0  0  0  0  0  0  0  0
  150.8072  139.4432  179.9736 C   0  0  0  0  0  0  0  0  0  0  0  0
  150.8581  140.4268  179.1957 O   0  0  0  0  0  0  0  0  0  0  0  0
  149.8756  138.5020  179.7515 N   0  0  0  0  0  0  0  0  0  0  0  0
  149.0164  138.6119  178.7182 C   0  0  0  0  0  0  0  0  0  0  0  0
  148.0550  137.6854  178.4509 C   0  0  0  0  0  0  0  0  0  0  0  0
  147.9458  136.5704  179.2761 C   0  0  0  0  0  0  0  0  0  0  0  0
  148.8369  136.4899  180.3196 C   0  0  0  0  0  0  0  0  0  0  0  0
  149.8040  137.4376  180.5748 C   0  0  0  0  0  0  0  0  0  0  0  0
  150.6614  137.3326  181.6008 N   0  0  0  0  0  0  0  0  0  0  0  0
  151.6212  138.2329  181.8867 C   0  0  0  0  0  0  0  0  0  0  0  0
  154.8059  139.4975  184.5594 H   0  0  0  0  0  0  0  0  0  0  0  0
  154.4879  141.2099  182.4258 C   0  0  0  0  0  0  0  0  0  0  0  0
  154.0194  142.4198  182.4025 O   0  0  0  0  0  0  0  0  0  0  0  0
  155.8820  141.0534  182.5196 N   0  0  0  0  0  0  0  0  0  0  0  0
  156.2991  140.1130  182.5023 H   0  0  0  0  0  0  0  0  0  0  0  0
  156.7821  142.1975  182.6071 C   0  0  0  0  0  0  0  0  0  0  0  0
  157.5716  142.3778  181.3809 C   0  0  0  0  0  0  0  0  0  0  0  0
  158.5727  143.2855  181.1653 C   0  0  0  0  0  0  0  0  0  0  0  0
  159.0404  143.0974  179.8564 C   0  0  0  0  0  0  0  0  0  0  0  0
  158.2765  142.0705  179.3617 C   0  0  0  0  0  0  0  0  0  0  0  0
  157.4396  141.6842  180.2764 O   0  0  0  0  0  0  0  0  0  0  0  0
  152.3304  136.9681  183.8274 C   0  0  0  0  0  0  0  0  0  0  0  0
  156.0284  132.5202  183.3631 C   0  0  0  0  0  0  0  0  0  0  0  0
  155.0766  133.6650  183.4118 C   0  0  0  0  0  0  0  0  0  0  0  0
  154.4436  134.1690  182.3244 C   0  0  0  0  0  0  0  0  0  0  0  0
  153.5526  135.2525  182.4400 C   0  0  0  0  0  0  0  0  0  0  0  0
  153.2751  135.8537  183.6367 C   0  0  0  0  0  0  0  0  0  0  0  0
  153.9456  135.3076  184.7395 C   0  0  0  0  0  0  0  0  0  0  0  0
  154.8260  134.2391  184.6312 C   0  0  0  0  0  0  0  0  0  0  0  0
 29 30  1  0  0  0
 30 31  2  0  0  0
 31 32  1  0  0  0
 32 33  2  0  0  0
 33 28  1  0  0  0
 28  1  1  0  0  0
  1  2  1  0  0  0
  2  3  2  0  0  0
  2  4  1  0  0  0
  4 18  1  0  0  0
 18 19  2  0  0  0
 18 20  1  0  0  0
 20 22  1  0  0  0
 22 23  1  0  0  0
 23 24  2  0  0  0
 24 25  1  0  0  0
 25 26  2  0  0  0
 26 27  1  0  0  0
  4  5  2  0  0  0
  5  6  1  0  0  0
  6  7  1  0  0  0
  7  8  2  0  0  0
  7  9  1  0  0  0
  9 10  1  0  0  0
 10 11  2  0  0  0
 11 12  1  0  0  0
 12 13  2  0  0  0
 13 14  1  0  0  0
 14 15  2  0  0  0
 15 16  1  0  0  0
 33 34  1  0  0  0
 34 35  2  0  0  0
 35 30  1  0  0  0
 16  1  1  0  0  0
 27 23  1  0  0  0
 16  6  2  0  0  0
 14  9  1  0  0  0
  3 17  1  0  0  0
 20 21  1  0  0  0
M  END
> <minimizedAffinity>
-9.05015

> <CNNscore>
0.4309725761

> <CNNaffinity>
6.2095351219

> <CNN_VS>
2.6761393547

> <CNNaffinity_variance>
0.0416519195

$$$$
[H]N=c1c(C(=O)N([H])C([H])([H])c2oc([H])c([H])c2[H])c([H])c2c(=O)n3c([H])c([H])c([H])c([H])c3nc2n1C([H])([H])c1c([H])c([H])c(C([H])([H])[H])c([H])c1[H]


 35 39  0  0  0  0  0  0  0  0999 V2000
  152.9899  138.0162  183.7427 N   0  0  0  0  0  0  0  0  0  0  0  0
  153.9538  138.9420  183.9961 C   0  0  0  0  0  0  0  0  0  0  0  0
  154.6302  138.7675  185.0352 N   0  0  0  0  0  0  0  0  0  0  0  0
  154.1698  140.0548  183.2254 C   0  0  0  0  0  0  0  0  0  0  0  0
  153.3292  140.2256  182.1204 C   0  0  0  0  0  0  0  0  0  0  0  0
  152.3558  139.3250  181.8375 C   0  0  0  0  0  0  0  0  0  0  0  0
  151.5323  139.5205  180.7574 C   0  0  0  0  0  0  0  0  0  0  0  0
  151.6647  140.5143  180.0023 O   0  0  0  0  0  0  0  0  0  0  0  0
  150.5565  138.6389  180.4861 N   0  0  0  0  0  0  0  0  0  0  0  0
  149.7395  138.8176  179.4284 C   0  0  0  0  0  0  0  0  0  0  0  0
  148.7364  137.9532  179.1113 C   0  0  0  0  0  0  0  0  0  0  0  0
  148.5368  136.8308  179.9090 C   0  0  0  0  0  0  0  0  0  0  0  0
  149.3870  136.6792  180.9785 C   0  0  0  0  0  0  0  0  0  0  0  0
  150.3973  137.5648  181.2842 C   0  0  0  0  0  0  0  0  0  0  0  0
  151.2131  137.3911  182.3346 N   0  0  0  0  0  0  0  0  0  0  0  0
  152.2125  138.2291  182.6698 C   0  0  0  0  0  0  0  0  0  0  0  0
  155.3739  139.2572  185.4686 H   0  0  0  0  0  0  0  0  0  0  0  0
  155.2244  141.0256  183.3622 C   0  0  0  0  0  0  0  0  0  0  0  0
  154.8166  142.2479  183.5155 O   0  0  0  0  0  0  0  0  0  0  0  0
  156.6121  140.8001  183.3409 N   0  0  0  0  0  0  0  0  0  0  0  0
  156.9796  139.8521  183.1832 H   0  0  0  0  0  0  0  0  0  0  0  0
  157.5721  141.8860  183.5022 C   0  0  0  0  0  0  0  0  0  0  0  0
  158.1135  142.3439  182.2151 C   0  0  0  0  0  0  0  0  0  0  0  0
  158.5580  141.5678  181.1794 C   0  0  0  0  0  0  0  0  0  0  0  0
  158.9842  142.4288  180.1574 C   0  0  0  0  0  0  0  0  0  0  0  0
  158.7641  143.6888  180.6542 C   0  0  0  0  0  0  0  0  0  0  0  0
  158.2599  143.5935  181.8471 O   0  0  0  0  0  0  0  0  0  0  0  0
  152.7842  136.8887  184.6051 C   0  0  0  0  0  0  0  0  0  0  0  0
  156.2781  132.3723  183.5713 C   0  0  0  0  0  0  0  0  0  0  0  0
  155.3855  133.5170  183.9055 C   0  0  0  0  0  0  0  0  0  0  0  0
  155.1461  133.9454  185.1690 C   0  0  0  0  0  0  0  0  0  0  0  0
  154.2925  135.0370  185.4162 C   0  0  0  0  0  0  0  0  0  0  0  0
  153.6623  135.7213  184.4137 C   0  0  0  0  0  0  0  0  0  0  0  0
  153.9323  135.2527  183.1208 C   0  0  0  0  0  0  0  0  0  0  0  0
  154.7733  134.1761  182.8711 C   0  0  0  0  0  0  0  0  0  0  0  0
 29 30  1  0  0  0
 30 31  2  0  0  0
 31 32  1  0  0  0
 32 33  2  0  0  0
 33 28  1  0  0  0
 28  1  1  0  0  0
  1  2  1  0  0  0
  2  3  2  0  0  0
  2  4  1  0  0  0
  4 18  1  0  0  0
 18 19  2  0  0  0
 18 20  1  0  0  0
 20 22  1  0  0  0
 22 23  1  0  0  0
 23 24  2  0  0  0
 24 25  1  0  0  0
 25 26  2  0  0  0
 26 27  1  0  0  0
  4  5  2  0  0  0
  5  6  1  0  0  0
  6  7  1  0  0  0
  7  8  2  0  0  0
  7  9  1  0  0  0
  9 10  1  0  0  0
 10 11  2  0  0  0
 11 12  1  0  0  0
 12 13  2  0  0  0
 13 14  1  0  0  0
 14 15  2  0  0  0
 15 16  1  0  0  0
 33 34  1  0  0  0
 34 35  2  0  0  0
 35 30  1  0  0  0
 16  1  1  0  0  0
 27 23  1  0  0  0
 16  6  2  0  0  0
 14  9  1  0  0  0
  3 17  1  0  0  0
 20 21  1  0  0  0
M  END
> <minimizedAffinity>
-8.25459

> <CNNscore>
0.3957188129

> <CNNaffinity>
6.2714486122

> <CNN_VS>
2.4817302227

> <CNNaffinity_variance>
0.0782365501

$$$$
[H]N=c1c(C(=O)N([H])C([H])([H])c2oc([H])c([H])c2[H])c([H])c2c(=O)n3c([H])c([H])c([H])c([H])c3nc2n1C([H])([H])c1c([H])c([H])c(C([H])([H])[H])c([H])c1[H]


 35 39  0  0  0  0  0  0  0  0999 V2000
  154.5181  140.9551  183.1271 N   0  0  0  0  0  0  0  0  0  0  0  0
  155.2779  140.4149  184.1177 C   0  0  0  0  0  0  0  0  0  0  0  0
  156.1936  141.1388  184.5709 N   0  0  0  0  0  0  0  0  0  0  0  0
  155.1328  139.1340  184.5837 C   0  0  0  0  0  0  0  0  0  0  0  0
  154.1381  138.3562  183.9816 C   0  0  0  0  0  0  0  0  0  0  0  0
  153.3627  138.8596  182.9896 C   0  0  0  0  0  0  0  0  0  0  0  0
  152.4033  138.0737  182.4022 C   0  0  0  0  0  0  0  0  0  0  0  0
  152.2077  136.8902  182.7715 O   0  0  0  0  0  0  0  0  0  0  0  0
  151.6464  138.5649  181.4079 N   0  0  0  0  0  0  0  0  0  0  0  0
  150.6999  137.8048  180.8210 C   0  0  0  0  0  0  0  0  0  0  0  0
  149.9073  138.2561  179.8099 C   0  0  0  0  0  0  0  0  0  0  0  0
  150.0739  139.5601  179.3540 C   0  0  0  0  0  0  0  0  0  0  0  0
  151.0471  140.3071  179.9740 C   0  0  0  0  0  0  0  0  0  0  0  0
  151.8402  139.8334  180.9963 C   0  0  0  0  0  0  0  0  0  0  0  0
  152.7824  140.5858  181.5838 N   0  0  0  0  0  0  0  0  0  0  0  0
  153.5784  140.1649  182.5852 C   0  0  0  0  0  0  0  0  0  0  0  0
  156.8868  141.0240  185.2687 H   0  0  0  0  0  0  0  0  0  0  0  0
  155.8211  138.5192  185.6889 C   0  0  0  0  0  0  0  0  0  0  0  0
  157.0368  138.9363  185.8673 O   0  0  0  0  0  0  0  0  0  0  0  0
  155.3344  137.5362  186.5685 N   0  0  0  0  0  0  0  0  0  0  0  0
  154.3899  137.1491  186.4399 H   0  0  0  0  0  0  0  0  0  0  0  0
  156.1462  137.0068  187.6583 C   0  0  0  0  0  0  0  0  0  0  0  0
  155.8388  137.6509  188.9429 C   0  0  0  0  0  0  0  0  0  0  0  0
  154.7169  138.3654  189.2646 C   0  0  0  0  0  0  0  0  0  0  0  0
  154.8529  138.7917  190.5939 C   0  0  0  0  0  0  0  0  0  0  0  0
  156.0693  138.2968  190.9918 C   0  0  0  0  0  0  0  0  0  0  0  0
  156.6057  137.6436  190.0060 O   0  0  0  0  0  0  0  0  0  0  0  0
  154.7386  142.2906  182.6528 C   0  0  0  0  0  0  0  0  0  0  0  0
  159.6916  143.5304  179.8951 C   0  0  0  0  0  0  0  0  0  0  0  0
  158.4180  143.1509  180.5681 C   0  0  0  0  0  0  0  0  0  0  0  0
  157.8456  141.9264  180.4680 C   0  0  0  0  0  0  0  0  0  0  0  0
  156.6404  141.6316  181.1328 C   0  0  0  0  0  0  0  0  0  0  0  0
  155.9835  142.5472  181.9078 C   0  0  0  0  0  0  0  0  0  0  0  0
  156.6029  143.8016  181.9901 C   0  0  0  0  0  0  0  0  0  0  0  0
  157.7916  144.0981  181.3360 C   0  0  0  0  0  0  0  0  0  0  0  0
 29 30  1  0  0  0
 30 31  2  0  0  0
 31 32  1  0  0  0
 32 33  2  0  0  0
 33 28  1  0  0  0
 28  1  1  0  0  0
  1  2  1  0  0  0
  2  3  2  0  0  0
  2  4  1  0  0  0
  4 18  1  0  0  0
 18 19  2  0  0  0
 18 20  1  0  0  0
 20 22  1  0  0  0
 22 23  1  0  0  0
 23 24  2  0  0  0
 24 25  1  0  0  0
 25 26  2  0  0  0
 26 27  1  0  0  0
  4  5  2  0  0  0
  5  6  1  0  0  0
  6  7  1  0  0  0
  7  8  2  0  0  0
  7  9  1  0  0  0
  9 10  1  0  0  0
 10 11  2  0  0  0
 11 12  1  0  0  0
 12 13  2  0  0  0
 13 14  1  0  0  0
 14 15  2  0  0  0
 15 16  1  0  0  0
 33 34  1  0  0  0
 34 35  2  0  0  0
 35 30  1  0  0  0
 16  1  1  0  0  0
 27 23  1  0  0  0
 16  6  2  0  0  0
 14  9  1  0  0  0
  3 17  1  0  0  0
 20 21  1  0  0  0
M  END
> <minimizedAffinity>
-9.39140

> <CNNscore>
0.3914331794

> <CNNaffinity>
6.2622971535

> <CNN_VS>
2.4512708187

> <CNNaffinity_variance>
0.0907391533

$$$$
[H]N=c1c(C(=O)N([H])C([H])([H])c2oc([H])c([H])c2[H])c([H])c2c(=O)n3c([H])c([H])c([H])c([H])c3nc2n1C([H])([H])c1c([H])c([H])c(C([H])([H])[H])c([H])c1[H]


 35 39  0  0  0  0  0  0  0  0999 V2000
  154.4733  139.3871  184.1859 N   0  0  0  0  0  0  0  0  0  0  0  0
  154.8925  138.4753  185.1043 C   0  0  0  0  0  0  0  0  0  0  0  0
  155.8245  138.8367  185.8583 N   0  0  0  0  0  0  0  0  0  0  0  0
  154.4009  137.1992  185.1977 C   0  0  0  0  0  0  0  0  0  0  0  0
  153.4123  136.8387  184.2760 C   0  0  0  0  0  0  0  0  0  0  0  0
  152.9709  137.7198  183.3446 C   0  0  0  0  0  0  0  0  0  0  0  0
  152.0116  137.3398  182.4400 C   0  0  0  0  0  0  0  0  0  0  0  0
  151.5108  136.1891  182.4588 O   0  0  0  0  0  0  0  0  0  0  0  0
  151.5861  138.2054  181.5059 N   0  0  0  0  0  0  0  0  0  0  0  0
  150.6441  137.8464  180.6104 C   0  0  0  0  0  0  0  0  0  0  0  0
  150.1797  138.6867  179.6448 C   0  0  0  0  0  0  0  0  0  0  0  0
  150.6944  139.9772  179.5702 C   0  0  0  0  0  0  0  0  0  0  0  0
  151.6527  140.3101  180.4978 C   0  0  0  0  0  0  0  0  0  0  0  0
  152.1107  139.4461  181.4685 C   0  0  0  0  0  0  0  0  0  0  0  0
  153.0469  139.7986  182.3619 N   0  0  0  0  0  0  0  0  0  0  0  0
  153.5227  138.9884  183.3266 C   0  0  0  0  0  0  0  0  0  0  0  0
  156.3249  138.4068  186.5969 H   0  0  0  0  0  0  0  0  0  0  0  0
  154.7133  136.2095  186.1956 C   0  0  0  0  0  0  0  0  0  0  0  0
  154.4742  134.9858  185.8361 O   0  0  0  0  0  0  0  0  0  0  0  0
  155.2290  136.4197  187.4867 N   0  0  0  0  0  0  0  0  0  0  0  0
  155.3970  137.3759  187.8272 H   0  0  0  0  0  0  0  0  0  0  0  0
  155.5083  135.3133  188.3949 C   0  0  0  0  0  0  0  0  0  0  0  0
  155.7937  135.7747  189.7606 C   0  0  0  0  0  0  0  0  0  0  0  0
  156.3570  136.9650  190.1328 C   0  0  0  0  0  0  0  0  0  0  0  0
  156.4388  136.9754  191.5331 C   0  0  0  0  0  0  0  0  0  0  0  0
  155.9097  135.7693  191.9181 C   0  0  0  0  0  0  0  0  0  0  0  0
  155.5494  135.1061  190.8614 O   0  0  0  0  0  0  0  0  0  0  0  0
  155.0498  140.6983  184.1098 C   0  0  0  0  0  0  0  0  0  0  0  0
  158.8127  141.9521  179.8740 C   0  0  0  0  0  0  0  0  0  0  0  0
  157.8798  141.5685  180.9700 C   0  0  0  0  0  0  0  0  0  0  0  0
  158.0439  140.4758  181.7550 C   0  0  0  0  0  0  0  0  0  0  0  0
  157.1252  140.1711  182.7769 C   0  0  0  0  0  0  0  0  0  0  0  0
  156.0284  140.9458  183.0367 C   0  0  0  0  0  0  0  0  0  0  0  0
  155.8898  142.0671  182.2076 C   0  0  0  0  0  0  0  0  0  0  0  0
  156.7929  142.3723  181.1976 C   0  0  0  0  0  0  0  0  0  0  0  0
 29 30  1  0  0  0
 30 31  2  0  0  0
 31 32  1  0  0  0
 32 33  2  0  0  0
 33 28  1  0  0  0
 28  1  1  0  0  0
  1  2  1  0  0  0
  2  3  2  0  0  0
  2  4  1  0  0  0
  4 18  1  0  0  0
 18 19  2  0  0  0
 18 20  1  0  0  0
 20 22  1  0  0  0
 22 23  1  0  0  0
 23 24  2  0  0  0
 24 25  1  0  0  0
 25 26  2  0  0  0
 26 27  1  0  0  0
  4  5  2  0  0  0
  5  6  1  0  0  0
  6  7  1  0  0  0
  7  8  2  0  0  0
  7  9  1  0  0  0
  9 10  1  0  0  0
 10 11  2  0  0  0
 11 12  1  0  0  0
 12 13  2  0  0  0
 13 14  1  0  0  0
 14 15  2  0  0  0
 15 16  1  0  0  0
 33 34  1  0  0  0
 34 35  2  0  0  0
 35 30  1  0  0  0
 16  1  1  0  0  0
 27 23  1  0  0  0
 16  6  2  0  0  0
 14  9  1  0  0  0
  3 17  1  0  0  0
 20 21  1  0  0  0
M  END
> <minimizedAffinity>
-8.23906

> <CNNscore>
0.3900125325

> <CNNaffinity>
5.9839701653

> <CNN_VS>
2.3338234425

> <CNNaffinity_variance>
0.0842639506

$$$$
[H]N=c1c(C(=O)N([H])C([H])([H])c2oc([H])c([H])c2[H])c([H])c2c(=O)n3c([H])c([H])c([H])c([H])c3nc2n1C([H])([H])c1c([H])c([H])c(C([H])([H])[H])c([H])c1[H]


 35 39  0  0  0  0  0  0  0  0999 V2000
  154.8236  139.3529  184.4860 N   0  0  0  0  0  0  0  0  0  0  0  0
  155.2207  138.4406  185.4136 C   0  0  0  0  0  0  0  0  0  0  0  0
  156.1733  138.7799  186.1520 N   0  0  0  0  0  0  0  0  0  0  0  0
  154.6855  137.1842  185.5317 C   0  0  0  0  0  0  0  0  0  0  0  0
  153.6744  136.8453  184.6264 C   0  0  0  0  0  0  0  0  0  0  0  0
  153.2540  137.7275  183.6863 C   0  0  0  0  0  0  0  0  0  0  0  0
  152.2717  137.3684  182.7980 C   0  0  0  0  0  0  0  0  0  0  0  0
  151.7308  136.2365  182.8397 O   0  0  0  0  0  0  0  0  0  0  0  0
  151.8665  138.2345  181.8555 N   0  0  0  0  0  0  0  0  0  0  0  0
  150.9025  137.8958  180.9756 C   0  0  0  0  0  0  0  0  0  0  0  0
  150.4572  138.7376  180.0024 C   0  0  0  0  0  0  0  0  0  0  0  0
  151.0163  140.0078  179.9025 C   0  0  0  0  0  0  0  0  0  0  0  0
  151.9960  140.3203  180.8147 C   0  0  0  0  0  0  0  0  0  0  0  0
  152.4342  139.4551  181.7934 C   0  0  0  0  0  0  0  0  0  0  0  0
  153.3922  139.7875  182.6713 N   0  0  0  0  0  0  0  0  0  0  0  0
  153.8499  138.9754  183.6431 C   0  0  0  0  0  0  0  0  0  0  0  0
  156.6665  138.3435  186.8916 H   0  0  0  0  0  0  0  0  0  0  0  0
  154.9740  136.1990  186.5413 C   0  0  0  0  0  0  0  0  0  0  0  0
  154.3483  135.0722  186.3907 O   0  0  0  0  0  0  0  0  0  0  0  0
  155.8320  136.3243  187.6482 N   0  0  0  0  0  0  0  0  0  0  0  0
  156.3182  137.2131  187.8277 H   0  0  0  0  0  0  0  0  0  0  0  0
  156.0373  135.2317  188.5921 C   0  0  0  0  0  0  0  0  0  0  0  0
  157.4257  134.7504  188.5907 C   0  0  0  0  0  0  0  0  0  0  0  0
  158.4080  135.0556  187.6881 C   0  0  0  0  0  0  0  0  0  0  0  0
  159.5691  134.3724  188.0786 C   0  0  0  0  0  0  0  0  0  0  0  0
  159.2027  133.6890  189.2106 C   0  0  0  0  0  0  0  0  0  0  0  0
  157.9547  133.9358  189.4711 O   0  0  0  0  0  0  0  0  0  0  0  0
  155.4451  140.6415  184.3837 C   0  0  0  0  0  0  0  0  0  0  0  0
  158.7539  141.8870  179.7821 C   0  0  0  0  0  0  0  0  0  0  0  0
  157.9365  141.5045  180.9671 C   0  0  0  0  0  0  0  0  0  0  0  0
  158.1533  140.3900  181.7074 C   0  0  0  0  0  0  0  0  0  0  0  0
  157.3441  140.0876  182.8188 C   0  0  0  0  0  0  0  0  0  0  0  0
  156.3065  140.8863  183.2137 C   0  0  0  0  0  0  0  0  0  0  0  0
  156.1110  142.0296  182.4272 C   0  0  0  0  0  0  0  0  0  0  0  0
  156.9059  142.3326  181.3295 C   0  0  0  0  0  0  0  0  0  0  0  0
 29 30  1  0  0  0
 30 31  2  0  0  0
 31 32  1  0  0  0
 32 33  2  0  0  0
 33 28  1  0  0  0
 28  1  1  0  0  0
  1  2  1  0  0  0
  2  3  2  0  0  0
  2  4  1  0  0  0
  4 18  1  0  0  0
 18 19  2  0  0  0
 18 20  1  0  0  0
 20 22  1  0  0  0
 22 23  1  0  0  0
 23 24  2  0  0  0
 24 25  1  0  0  0
 25 26  2  0  0  0
 26 27  1  0  0  0
  4  5  2  0  0  0
  5  6  1  0  0  0
  6  7  1  0  0  0
  7  8  2  0  0  0
  7  9  1  0  0  0
  9 10  1  0  0  0
 10 11  2  0  0  0
 11 12  1  0  0  0
 12 13  2  0  0  0
 13 14  1  0  0  0
 14 15  2  0  0  0
 15 16  1  0  0  0
 33 34  1  0  0  0
 34 35  2  0  0  0
 35 30  1  0  0  0
 16  1  1  0  0  0
 27 23  1  0  0  0
 16  6  2  0  0  0
 14  9  1  0  0  0
  3 17  1  0  0  0
 20 21  1  0  0  0
M  END
> <minimizedAffinity>
-8.24797

> <CNNscore>
0.3718587756

> <CNNaffinity>
6.0302257538

> <CNN_VS>
2.2423923016

> <CNNaffinity_variance>
0.1049704775

$$$$
[H]N=c1c(C(=O)N([H])C([H])([H])c2oc([H])c([H])c2[H])c([H])c2c(=O)n3c([H])c([H])c([H])c([H])c3nc2n1C([H])([H])c1c([H])c([H])c(C([H])([H])[H])c([H])c1[H]


 35 39  0  0  0  0  0  0  0  0999 V2000
  150.7532  135.5581  187.7643 N   0  0  0  0  0  0  0  0  0  0  0  0
  150.0096  136.3001  186.9001 C   0  0  0  0  0  0  0  0  0  0  0  0
  150.6446  136.9406  186.0315 N   0  0  0  0  0  0  0  0  0  0  0  0
  148.6465  136.4251  186.9731 C   0  0  0  0  0  0  0  0  0  0  0  0
  148.0085  135.7408  188.0131 C   0  0  0  0  0  0  0  0  0  0  0  0
  148.7168  134.9932  188.8952 C   0  0  0  0  0  0  0  0  0  0  0  0
  148.0722  134.3430  189.9174 C   0  0  0  0  0  0  0  0  0  0  0  0
  146.8261  134.4070  190.0535 O   0  0  0  0  0  0  0  0  0  0  0  0
  148.7740  133.6166  190.8021 N   0  0  0  0  0  0  0  0  0  0  0  0
  148.1545  132.9722  191.8117 C   0  0  0  0  0  0  0  0  0  0  0  0
  148.8206  132.2237  192.7336 C   0  0  0  0  0  0  0  0  0  0  0  0
  150.2043  132.1123  192.6385 C   0  0  0  0  0  0  0  0  0  0  0  0
  150.8036  132.7814  191.5981 C   0  0  0  0  0  0  0  0  0  0  0  0
  150.1129  133.5347  190.6739 C   0  0  0  0  0  0  0  0  0  0  0  0
  150.7243  134.1768  189.6675 N   0  0  0  0  0  0  0  0  0  0  0  0
  150.0901  134.9222  188.7425 C   0  0  0  0  0  0  0  0  0  0  0  0
  150.3880  137.5481  185.2928 H   0  0  0  0  0  0  0  0  0  0  0  0
  147.7768  137.1029  186.0473 C   0  0  0  0  0  0  0  0  0  0  0  0
  146.8120  136.3724  185.5789 O   0  0  0  0  0  0  0  0  0  0  0  0
  147.8612  138.4337  185.6013 N   0  0  0  0  0  0  0  0  0  0  0  0
  148.6325  139.0370  185.9170 H   0  0  0  0  0  0  0  0  0  0  0  0
  146.8975  138.9943  184.6611 C   0  0  0  0  0  0  0  0  0  0  0  0
  147.3119  138.8073  183.2638 C   0  0  0  0  0  0  0  0  0  0  0  0
  147.9515  139.7119  182.4605 C   0  0  0  0  0  0  0  0  0  0  0  0
  148.1474  139.1049  181.2113 C   0  0  0  0  0  0  0  0  0  0  0  0
  147.6032  137.8527  181.3475 C   0  0  0  0  0  0  0  0  0  0  0  0
  147.1310  137.7227  182.5501 O   0  0  0  0  0  0  0  0  0  0  0  0
  152.1824  135.4928  187.6630 C   0  0  0  0  0  0  0  0  0  0  0  0
  155.3837  138.8811  191.1192 C   0  0  0  0  0  0  0  0  0  0  0  0
  154.5439  138.0688  190.1952 C   0  0  0  0  0  0  0  0  0  0  0  0
  153.9785  138.5544  189.0631 C   0  0  0  0  0  0  0  0  0  0  0  0
  153.1968  137.7312  188.2309 C   0  0  0  0  0  0  0  0  0  0  0  0
  152.9634  136.4124  188.5085 C   0  0  0  0  0  0  0  0  0  0  0  0
  153.5630  135.9433  189.6851 C   0  0  0  0  0  0  0  0  0  0  0  0
  154.3348  136.7511  190.5101 C   0  0  0  0  0  0  0  0  0  0  0  0
 29 30  1  0  0  0
 30 31  2  0  0  0
 31 32  1  0  0  0
 32 33  2  0  0  0
 33 28  1  0  0  0
 28  1  1  0  0  0
  1  2  1  0  0  0
  2  3  2  0  0  0
  2  4  1  0  0  0
  4 18  1  0  0  0
 18 19  2  0  0  0
 18 20  1  0  0  0
 20 22  1  0  0  0
 22 23  1  0  0  0
 23 24  2  0  0  0
 24 25  1  0  0  0
 25 26  2  0  0  0
 26 27  1  0  0  0
  4  5  2  0  0  0
  5  6  1  0  0  0
  6  7  1  0  0  0
  7  8  2  0  0  0
  7  9  1  0  0  0
  9 10  1  0  0  0
 10 11  2  0  0  0
 11 12  1  0  0  0
 12 13  2  0  0  0
 13 14  1  0  0  0
 14 15  2  0  0  0
 15 16  1  0  0  0
 33 34  1  0  0  0
 34 35  2  0  0  0
 35 30  1  0  0  0
 16  1  1  0  0  0
 27 23  1  0  0  0
 16  6  2  0  0  0
 14  9  1  0  0  0
  3 17  1  0  0  0
 20 21  1  0  0  0
M  END
> <minimizedAffinity>
-5.77369

> <CNNscore>
0.3520674407

> <CNNaffinity>
5.7219076157

> <CNN_VS>
2.0144972801

> <CNNaffinity_variance>
0.2656177878

$$$$
[H]N=c1c(C(=O)N([H])C([H])([H])c2oc([H])c([H])c2[H])c([H])c2c(=O)n3c([H])c([H])c([H])c([H])c3nc2n1C([H])([H])c1c([H])c([H])c(C([H])([H])[H])c([H])c1[H]


 35 39  0  0  0  0  0  0  0  0999 V2000
  152.5033  137.8583  182.8241 N   0  0  0  0  0  0  0  0  0  0  0  0
  153.4072  138.8461  183.0644 C   0  0  0  0  0  0  0  0  0  0  0  0
  154.1631  138.6779  184.0484 N   0  0  0  0  0  0  0  0  0  0  0  0
  153.4842  140.0077  182.3409 C   0  0  0  0  0  0  0  0  0  0  0  0
  152.5609  140.1619  181.3014 C   0  0  0  0  0  0  0  0  0  0  0  0
  151.6435  139.2000  181.0337 C   0  0  0  0  0  0  0  0  0  0  0  0
  150.7369  139.3790  180.0192 C   0  0  0  0  0  0  0  0  0  0  0  0
  150.7411  140.4147  179.3103 O   0  0  0  0  0  0  0  0  0  0  0  0
  149.8166  138.4352  179.7641 N   0  0  0  0  0  0  0  0  0  0  0  0
  148.9193  138.5970  178.7707 C   0  0  0  0  0  0  0  0  0  0  0  0
  147.9672  137.6703  178.4726 C   0  0  0  0  0  0  0  0  0  0  0  0
  147.9091  136.4991  179.2215 C   0  0  0  0  0  0  0  0  0  0  0  0
  148.8381  136.3665  180.2259 C   0  0  0  0  0  0  0  0  0  0  0  0
  149.7949  137.3154  180.5134 C   0  0  0  0  0  0  0  0  0  0  0  0
  150.6900  137.1588  181.4998 N   0  0  0  0  0  0  0  0  0  0  0  0
  151.6416  138.0581  181.8148 C   0  0  0  0  0  0  0  0  0  0  0  0
  154.8938  139.2052  184.4591 H   0  0  0  0  0  0  0  0  0  0  0  0
  154.4671  141.0530  182.4617 C   0  0  0  0  0  0  0  0  0  0  0  0
  153.9753  142.2523  182.5224 O   0  0  0  0  0  0  0  0  0  0  0  0
  155.8659  140.9197  182.5122 N   0  0  0  0  0  0  0  0  0  0  0  0
  156.3002  139.9908  182.4284 H   0  0  0  0  0  0  0  0  0  0  0  0
  156.7461  142.0748  182.6463 C   0  0  0  0  0  0  0  0  0  0  0  0
  157.5390  142.3124  181.4321 C   0  0  0  0  0  0  0  0  0  0  0  0
  158.4711  143.2936  181.2294 C   0  0  0  0  0  0  0  0  0  0  0  0
  158.9728  143.1391  179.9287 C   0  0  0  0  0  0  0  0  0  0  0  0
  158.2977  142.0557  179.4254 C   0  0  0  0  0  0  0  0  0  0  0  0
  157.4782  141.6084  180.3280 O   0  0  0  0  0  0  0  0  0  0  0  0
  152.4437  136.6785  183.6376 C   0  0  0  0  0  0  0  0  0  0  0  0
  148.3317  136.3030  187.7149 C   0  0  0  0  0  0  0  0  0  0  0  0
  149.4201  136.4473  186.7082 C   0  0  0  0  0  0  0  0  0  0  0  0
  150.5571  137.1541  186.9200 C   0  0  0  0  0  0  0  0  0  0  0  0
  151.5492  137.2486  185.9259 C   0  0  0  0  0  0  0  0  0  0  0  0
  151.4292  136.6434  184.7054 C   0  0  0  0  0  0  0  0  0  0  0  0
  150.2427  135.9209  184.5205 C   0  0  0  0  0  0  0  0  0  0  0  0
  149.2604  135.8246  185.4975 C   0  0  0  0  0  0  0  0  0  0  0  0
 29 30  1  0  0  0
 30 31  2  0  0  0
 31 32  1  0  0  0
 32 33  2  0  0  0
 33 28  1  0  0  0
 28  1  1  0  0  0
  1  2  1  0  0  0
  2  3  2  0  0  0
  2  4  1  0  0  0
  4 18  1  0  0  0
 18 19  2  0  0  0
 18 20  1  0  0  0
 20 22  1  0  0  0
 22 23  1  0  0  0
 23 24  2  0  0  0
 24 25  1  0  0  0
 25 26  2  0  0  0
 26 27  1  0  0  0
  4  5  2  0  0  0
  5  6  1  0  0  0
  6  7  1  0  0  0
  7  8  2  0  0  0
  7  9  1  0  0  0
  9 10  1  0  0  0
 10 11  2  0  0  0
 11 12  1  0  0  0
 12 13  2  0  0  0
 13 14  1  0  0  0
 14 15  2  0  0  0
 15 16  1  0  0  0
 33 34  1  0  0  0
 34 35  2  0  0  0
 35 30  1  0  0  0
 16  1  1  0  0  0
 27 23  1  0  0  0
 16  6  2  0  0  0
 14  9  1  0  0  0
  3 17  1  0  0  0
 20 21  1  0  0  0
M  END
> <minimizedAffinity>
-8.59284

> <CNNscore>
0.3387618661

> <CNNaffinity>
6.0896496773

> <CNN_VS>
2.0629410744

> <CNNaffinity_variance>
0.0609058850

$$$$
[H]N=c1c(C(=O)N([H])C([H])([H])c2oc([H])c([H])c2[H])c([H])c2c(=O)n3c([H])c([H])c([H])c([H])c3nc2n1C([H])([H])c1c([H])c([H])c(C([H])([H])[H])c([H])c1[H]


 35 39  0  0  0  0  0  0  0  0999 V2000
  154.1330  137.0713  185.4667 N   0  0  0  0  0  0  0  0  0  0  0  0
  154.0973  136.0850  184.5305 C   0  0  0  0  0  0  0  0  0  0  0  0
  153.5189  136.3625  183.4552 N   0  0  0  0  0  0  0  0  0  0  0  0
  154.5934  134.8225  184.7273 C   0  0  0  0  0  0  0  0  0  0  0  0
  155.1606  134.5592  185.9787 C   0  0  0  0  0  0  0  0  0  0  0  0
  155.2119  135.5166  186.9376 C   0  0  0  0  0  0  0  0  0  0  0  0
  155.7586  135.2317  188.1636 C   0  0  0  0  0  0  0  0  0  0  0  0
  156.2343  134.0997  188.4232 O   0  0  0  0  0  0  0  0  0  0  0  0
  155.7943  136.1732  189.1203 N   0  0  0  0  0  0  0  0  0  0  0  0
  156.3282  135.9082  190.3298 C   0  0  0  0  0  0  0  0  0  0  0  0
  156.3881  136.8279  191.3321 C   0  0  0  0  0  0  0  0  0  0  0  0
  155.8776  138.1027  191.1081 C   0  0  0  0  0  0  0  0  0  0  0  0
  155.3409  138.3390  189.8649 C   0  0  0  0  0  0  0  0  0  0  0  0
  155.2889  137.3955  188.8621 C   0  0  0  0  0  0  0  0  0  0  0  0
  154.7597  137.6544  187.6572 N   0  0  0  0  0  0  0  0  0  0  0  0
  154.6888  136.7644  186.6491 C   0  0  0  0  0  0  0  0  0  0  0  0
  153.3378  135.8665  182.6175 H   0  0  0  0  0  0  0  0  0  0  0  0
  154.6871  133.7566  183.7639 C   0  0  0  0  0  0  0  0  0  0  0  0
  154.4816  132.5707  184.2489 O   0  0  0  0  0  0  0  0  0  0  0  0
  154.9768  133.8575  182.3917 N   0  0  0  0  0  0  0  0  0  0  0  0
  155.1844  134.7741  181.9730 H   0  0  0  0  0  0  0  0  0  0  0  0
  155.0302  132.6845  181.5267 C   0  0  0  0  0  0  0  0  0  0  0  0
  156.3971  132.3898  181.0749 C   0  0  0  0  0  0  0  0  0  0  0  0
  156.7711  131.7748  179.9111 C   0  0  0  0  0  0  0  0  0  0  0  0
  158.1720  131.7049  179.9002 C   0  0  0  0  0  0  0  0  0  0  0  0
  158.5556  132.2930  181.0791 C   0  0  0  0  0  0  0  0  0  0  0  0
  157.4975  132.6746  181.7280 O   0  0  0  0  0  0  0  0  0  0  0  0
  153.5646  138.3647  185.2193 C   0  0  0  0  0  0  0  0  0  0  0  0
  156.9254  141.9384  182.1195 C   0  0  0  0  0  0  0  0  0  0  0  0
  156.0064  141.0487  182.8829 C   0  0  0  0  0  0  0  0  0  0  0  0
  154.6797  140.9357  182.6295 C   0  0  0  0  0  0  0  0  0  0  0  0
  153.8664  140.0729  183.3882 C   0  0  0  0  0  0  0  0  0  0  0  0
  154.3564  139.3082  184.4108 C   0  0  0  0  0  0  0  0  0  0  0  0
  155.7309  139.4490  184.6450 C   0  0  0  0  0  0  0  0  0  0  0  0
  156.5379  140.2989  183.9000 C   0  0  0  0  0  0  0  0  0  0  0  0
 29 30  1  0  0  0
 30 31  2  0  0  0
 31 32  1  0  0  0
 32 33  2  0  0  0
 33 28  1  0  0  0
 28  1  1  0  0  0
  1  2  1  0  0  0
  2  3  2  0  0  0
  2  4  1  0  0  0
  4 18  1  0  0  0
 18 19  2  0  0  0
 18 20  1  0  0  0
 20 22  1  0  0  0
 22 23  1  0  0  0
 23 24  2  0  0  0
 24 25  1  0  0  0
 25 26  2  0  0  0
 26 27  1  0  0  0
  4  5  2  0  0  0
  5  6  1  0  0  0
  6  7  1  0  0  0
  7  8  2  0  0  0
  7  9  1  0  0  0
  9 10  1  0  0  0
 10 11  2  0  0  0
 11 12  1  0  0  0
 12 13  2  0  0  0
 13 14  1  0  0  0
 14 15  2  0  0  0
 15 16  1  0  0  0
 33 34  1  0  0  0
 34 35  2  0  0  0
 35 30  1  0  0  0
 16  1  1  0  0  0
 27 23  1  0  0  0
 16  6  2  0  0  0
 14  9  1  0  0  0
  3 17  1  0  0  0
 20 21  1  0  0  0
M  END
> <minimizedAffinity>
-7.52501

> <CNNscore>
0.3348607123

> <CNNaffinity>
5.8345212936

> <CNN_VS>
1.9537519217

> <CNNaffinity_variance>
0.1064148396

$$$$
[H]N=c1c(C(=O)N([H])C([H])([H])c2oc([H])c([H])c2[H])c([H])c2c(=O)n3c([H])c([H])c([H])c([H])c3nc2n1C([H])([H])c1c([H])c([H])c(C([H])([H])[H])c([H])c1[H]


 35 39  0  0  0  0  0  0  0  0999 V2000
  155.0592  138.6241  184.6571 N   0  0  0  0  0  0  0  0  0  0  0  0
  156.0457  139.5606  184.6371 C   0  0  0  0  0  0  0  0  0  0  0  0
  156.9656  139.4142  185.4739 N   0  0  0  0  0  0  0  0  0  0  0  0
  156.0470  140.6557  183.8128 C   0  0  0  0  0  0  0  0  0  0  0  0
  154.9517  140.7958  182.9540 C   0  0  0  0  0  0  0  0  0  0  0  0
  153.9482  139.8839  182.9473 C   0  0  0  0  0  0  0  0  0  0  0  0
  152.8754  140.0495  182.1078 C   0  0  0  0  0  0  0  0  0  0  0  0
  152.8011  141.0256  181.3224 O   0  0  0  0  0  0  0  0  0  0  0  0
  151.8724  139.1568  182.1125 N   0  0  0  0  0  0  0  0  0  0  0  0
  150.8118  139.3062  181.2933 C   0  0  0  0  0  0  0  0  0  0  0  0
  149.7705  138.4295  181.2603 C   0  0  0  0  0  0  0  0  0  0  0  0
  149.7921  137.3255  182.1068 C   0  0  0  0  0  0  0  0  0  0  0  0
  150.8875  137.2037  182.9284 C   0  0  0  0  0  0  0  0  0  0  0  0
  151.9327  138.1013  182.9481 C   0  0  0  0  0  0  0  0  0  0  0  0
  152.9901  137.9567  183.7604 N   0  0  0  0  0  0  0  0  0  0  0  0
  154.0327  138.8075  183.8124 C   0  0  0  0  0  0  0  0  0  0  0  0
  157.7895  139.9179  185.6934 H   0  0  0  0  0  0  0  0  0  0  0  0
  157.0911  141.6347  183.6560 C   0  0  0  0  0  0  0  0  0  0  0  0
  156.7016  142.7628  183.1467 O   0  0  0  0  0  0  0  0  0  0  0  0
  158.4530  141.5022  183.9796 N   0  0  0  0  0  0  0  0  0  0  0  0
  158.8124  140.6120  184.3496 H   0  0  0  0  0  0  0  0  0  0  0  0
  159.4035  142.5890  183.7740 C   0  0  0  0  0  0  0  0  0  0  0  0
  160.3822  142.6844  184.8660 C   0  0  0  0  0  0  0  0  0  0  0  0
  161.7301  142.4594  184.7932 C   0  0  0  0  0  0  0  0  0  0  0  0
  162.2638  142.6661  186.0738 C   0  0  0  0  0  0  0  0  0  0  0  0
  161.1827  143.0082  186.8466 C   0  0  0  0  0  0  0  0  0  0  0  0
  160.1146  143.0065  186.1082 O   0  0  0  0  0  0  0  0  0  0  0  0
  155.0914  137.5166  185.5679 C   0  0  0  0  0  0  0  0  0  0  0  0
  154.9858  138.6981  191.2482 C   0  0  0  0  0  0  0  0  0  0  0  0
  154.9445  138.4117  189.7870 C   0  0  0  0  0  0  0  0  0  0  0  0
  153.8848  138.6947  188.9907 C   0  0  0  0  0  0  0  0  0  0  0  0
  153.9115  138.4002  187.6145 C   0  0  0  0  0  0  0  0  0  0  0  0
  154.9902  137.8200  187.0060 C   0  0  0  0  0  0  0  0  0  0  0  0
  156.0677  137.5419  187.8578 C   0  0  0  0  0  0  0  0  0  0  0  0
  156.0467  137.8298  189.2163 C   0  0  0  0  0  0  0  0  0  0  0  0
 29 30  1  0  0  0
 30 31  2  0  0  0
 31 32  1  0  0  0
 32 33  2  0  0  0
 33 28  1  0  0  0
 28  1  1  0  0  0
  1  2  1  0  0  0
  2  3  2  0  0  0
  2  4  1  0  0  0
  4 18  1  0  0  0
 18 19  2  0  0  0
 18 20  1  0  0  0
 20 22  1  0  0  0
 22 23  1  0  0  0
 23 24  2  0  0  0
 24 25  1  0  0  0
 25 26  2  0  0  0
 26 27  1  0  0  0
  4  5  2  0  0  0
  5  6  1  0  0  0
  6  7  1  0  0  0
  7  8  2  0  0  0
  7  9  1  0  0  0
  9 10  1  0  0  0
 10 11  2  0  0  0
 11 12  1  0  0  0
 12 13  2  0  0  0
 13 14  1  0  0  0
 14 15  2  0  0  0
 15 16  1  0  0  0
 33 34  1  0  0  0
 34 35  2  0  0  0
 35 30  1  0  0  0
 16  1  1  0  0  0
 27 23  1  0  0  0
 16  6  2  0  0  0
 14  9  1  0  0  0
  3 17  1  0  0  0
 20 21  1  0  0  0
M  END
> <minimizedAffinity>
-10.30234

> <CNNscore>
0.2866880298

> <CNNaffinity>
6.3419499397

> <CNN_VS>
1.8181611300

> <CNNaffinity_variance>
0.0717801526

$$$$
[H]/C(=C(\[H])C([H])([H])C([H])([H])N([H])C(=O)/C([H])=C([H])/C([H])=C([H])/C([H])=C(\[H])c1sc([H])c([H])c1[H])C([H])([H])OC(=O)C([H])([H])C([H])(C([H])([H])[H])C([H])([H])[H]


 27 27  0  0  0  0  0  0  0  0999 V2000
  154.0329  137.9079  188.6210 N   0  0  0  0  0  0  0  0  0  0  0  0
  153.4940  138.1417  187.3424 C   0  0  0  0  0  0  0  0  0  0  0  0
  152.3000  137.8195  187.1218 O   0  0  0  0  0  0  0  0  0  0  0  0
  155.0276  138.1760  188.8125 H   0  0  0  0  0  0  0  0  0  0  0  0
  154.2774  138.7387  186.2890 C   0  0  0  0  0  0  0  0  0  0  0  0
  153.9955  138.6677  185.0199 C   0  0  0  0  0  0  0  0  0  0  0  0
  154.8330  139.2975  183.9931 C   0  0  0  0  0  0  0  0  0  0  0  0
  156.0895  139.5878  184.1714 C   0  0  0  0  0  0  0  0  0  0  0  0
  156.9097  140.2217  183.1204 C   0  0  0  0  0  0  0  0  0  0  0  0
  156.7377  141.4838  182.8011 C   0  0  0  0  0  0  0  0  0  0  0  0
  157.5678  142.1097  181.7436 C   0  0  0  0  0  0  0  0  0  0  0  0
  157.8743  141.6019  180.5101 C   0  0  0  0  0  0  0  0  0  0  0  0
  158.6497  142.3513  179.7100 C   0  0  0  0  0  0  0  0  0  0  0  0
  159.0673  143.5607  180.1979 C   0  0  0  0  0  0  0  0  0  0  0  0
  158.3690  143.6138  181.7489 S   0  0  0  0  0  0  0  0  0  0  0  0
  153.2899  137.3121  189.7045 C   0  0  0  0  0  0  0  0  0  0  0  0
  153.8781  137.6063  191.0717 C   0  0  0  0  0  0  0  0  0  0  0  0
  156.3477  137.7129  191.1217 C   0  0  0  0  0  0  0  0  0  0  0  0
  155.1831  138.2834  190.9597 C   0  0  0  0  0  0  0  0  0  0  0  0
  156.4876  136.2911  191.4440 C   0  0  0  0  0  0  0  0  0  0  0  0
  156.4423  135.5255  190.2605 O   0  0  0  0  0  0  0  0  0  0  0  0
  157.4438  134.6321  189.9674 C   0  0  0  0  0  0  0  0  0  0  0  0
  157.9590  133.9542  190.8800 O   0  0  0  0  0  0  0  0  0  0  0  0
  157.9525  134.4333  188.5769 C   0  0  0  0  0  0  0  0  0  0  0  0
  159.6499  132.6376  188.1833 C   0  0  0  0  0  0  0  0  0  0  0  0
  159.4155  134.0487  188.6194 C   0  0  0  0  0  0  0  0  0  0  0  0
  160.2685  134.9749  187.8041 C   0  0  0  0  0  0  0  0  0  0  0  0
 25 26  1  0  0  0
 26 27  1  0  0  0
 26 24  1  0  0  0
 24 22  1  0  0  0
 22 23  2  0  0  0
 22 21  1  0  0  0
 21 20  1  0  0  0
 20 18  1  0  0  0
 18 19  2  0  0  0
 19 17  1  0  0  0
 17 16  1  0  0  0
 16  1  1  0  0  0
  1  2  1  0  0  0
  2  3  2  0  0  0
  2  5  1  0  0  0
  5  6  2  0  0  0
  6  7  1  0  0  0
  7  8  2  0  0  0
  8  9  1  0  0  0
  9 10  2  0  0  0
 10 11  1  0  0  0
 11 12  2  0  0  0
 12 13  1  0  0  0
 13 14  2  0  0  0
 14 15  1  0  0  0
 15 11  1  0  0  0
  1  4  1  0  0  0
M  END
> <minimizedAffinity>
-6.48875

> <CNNscore>
0.5835865736

> <CNNaffinity>
5.9866170883

> <CNN_VS>
3.4937093258

> <CNNaffinity_variance>
0.2498591244

$$$$
[H]/C(=C(\[H])C([H])([H])C([H])([H])N([H])C(=O)/C([H])=C([H])/C([H])=C([H])/C([H])=C(\[H])c1sc([H])c([H])c1[H])C([H])([H])OC(=O)C([H])([H])C([H])(C([H])([H])[H])C([H])([H])[H]


 27 27  0  0  0  0  0  0  0  0999 V2000
  154.8330  138.1251  185.7305 N   0  0  0  0  0  0  0  0  0  0  0  0
  154.5953  137.8479  187.0893 C   0  0  0  0  0  0  0  0  0  0  0  0
  153.7865  138.5723  187.7213 O   0  0  0  0  0  0  0  0  0  0  0  0
  155.5050  137.5237  185.1968 H   0  0  0  0  0  0  0  0  0  0  0  0
  155.2553  136.7586  187.7659 C   0  0  0  0  0  0  0  0  0  0  0  0
  156.3750  136.8592  188.4225 C   0  0  0  0  0  0  0  0  0  0  0  0
  156.9986  135.7121  189.0916 C   0  0  0  0  0  0  0  0  0  0  0  0
  156.3617  134.9272  189.9120 C   0  0  0  0  0  0  0  0  0  0  0  0
  157.0139  133.7791  190.5719 C   0  0  0  0  0  0  0  0  0  0  0  0
  158.2449  133.4373  190.2679 C   0  0  0  0  0  0  0  0  0  0  0  0
  158.8896  132.2820  190.9377 C   0  0  0  0  0  0  0  0  0  0  0  0
  159.9272  131.5185  190.4750 C   0  0  0  0  0  0  0  0  0  0  0  0
  160.3515  130.5144  191.2590 C   0  0  0  0  0  0  0  0  0  0  0  0
  159.7087  130.3408  192.4556 C   0  0  0  0  0  0  0  0  0  0  0  0
  158.5390  131.5769  192.4491 S   0  0  0  0  0  0  0  0  0  0  0  0
  154.1991  139.2036  185.0122 C   0  0  0  0  0  0  0  0  0  0  0  0
  155.1002  139.8490  183.9762 C   0  0  0  0  0  0  0  0  0  0  0  0
  154.1286  141.7740  182.7665 C   0  0  0  0  0  0  0  0  0  0  0  0
  154.3138  140.4876  182.9048 C   0  0  0  0  0  0  0  0  0  0  0  0
  154.7006  142.7537  183.6927 C   0  0  0  0  0  0  0  0  0  0  0  0
  155.6060  143.5892  183.0064 O   0  0  0  0  0  0  0  0  0  0  0  0
  156.8118  143.1003  182.5659 C   0  0  0  0  0  0  0  0  0  0  0  0
  157.5239  142.4192  183.3320 O   0  0  0  0  0  0  0  0  0  0  0  0
  157.3172  143.3538  181.1830 C   0  0  0  0  0  0  0  0  0  0  0  0
  159.4571  143.4326  179.8888 C   0  0  0  0  0  0  0  0  0  0  0  0
  158.8079  143.6105  181.2241 C   0  0  0  0  0  0  0  0  0  0  0  0
  159.1335  144.9718  181.7637 C   0  0  0  0  0  0  0  0  0  0  0  0
 25 26  1  0  0  0
 26 27  1  0  0  0
 26 24  1  0  0  0
 24 22  1  0  0  0
 22 23  2  0  0  0
 22 21  1  0  0  0
 21 20  1  0  0  0
 20 18  1  0  0  0
 18 19  2  0  0  0
 19 17  1  0  0  0
 17 16  1  0  0  0
 16  1  1  0  0  0
  1  2  1  0  0  0
  2  3  2  0  0  0
  2  5  1  0  0  0
  5  6  2  0  0  0
  6  7  1  0  0  0
  7  8  2  0  0  0
  8  9  1  0  0  0
  9 10  2  0  0  0
 10 11  1  0  0  0
 11 12  2  0  0  0
 12 13  1  0  0  0
 13 14  2  0  0  0
 14 15  1  0  0  0
 15 11  1  0  0  0
  1  4  1  0  0  0
M  END
> <minimizedAffinity>
-5.72307

> <CNNscore>
0.5118473172

> <CNNaffinity>
5.4178519249

> <CNN_VS>
2.7731130123

> <CNNaffinity_variance>
0.3381713331

$$$$
[H]/C(=C(\[H])C([H])([H])C([H])([H])N([H])C(=O)/C([H])=C([H])/C([H])=C([H])/C([H])=C(\[H])c1sc([H])c([H])c1[H])C([H])([H])OC(=O)C([H])([H])C([H])(C([H])([H])[H])C([H])([H])[H]


 27 27  0  0  0  0  0  0  0  0999 V2000
  155.2837  138.7739  185.5601 N   0  0  0  0  0  0  0  0  0  0  0  0
  153.9961  138.4242  186.0069 C   0  0  0  0  0  0  0  0  0  0  0  0
  153.0443  138.4503  185.1873 O   0  0  0  0  0  0  0  0  0  0  0  0
  156.0825  138.7525  186.2381 H   0  0  0  0  0  0  0  0  0  0  0  0
  153.7485  138.0395  187.3746 C   0  0  0  0  0  0  0  0  0  0  0  0
  154.5287  138.3177  188.3791 C   0  0  0  0  0  0  0  0  0  0  0  0
  154.2221  137.8981  189.7511 C   0  0  0  0  0  0  0  0  0  0  0  0
  153.2066  137.1447  190.0606 C   0  0  0  0  0  0  0  0  0  0  0  0
  152.9212  136.7370  191.4503 C   0  0  0  0  0  0  0  0  0  0  0  0
  151.8711  136.0016  191.7346 C   0  0  0  0  0  0  0  0  0  0  0  0
  151.5948  135.5981  193.1346 C   0  0  0  0  0  0  0  0  0  0  0  0
  152.4988  135.4067  194.1443 C   0  0  0  0  0  0  0  0  0  0  0  0
  152.0166  135.0394  195.3425 C   0  0  0  0  0  0  0  0  0  0  0  0
  150.6600  134.8878  195.4508 C   0  0  0  0  0  0  0  0  0  0  0  0
  150.1031  135.2604  193.8865 S   0  0  0  0  0  0  0  0  0  0  0  0
  155.5796  139.1670  184.2042 C   0  0  0  0  0  0  0  0  0  0  0  0
  156.3604  140.4644  184.1097 C   0  0  0  0  0  0  0  0  0  0  0  0
  158.8082  140.1335  184.2169 C   0  0  0  0  0  0  0  0  0  0  0  0
  157.6599  140.3596  184.7985 C   0  0  0  0  0  0  0  0  0  0  0  0
  158.9330  139.9527  182.7690 C   0  0  0  0  0  0  0  0  0  0  0  0
  159.3496  141.1597  182.1701 O   0  0  0  0  0  0  0  0  0  0  0  0
  158.7084  141.6449  181.0563 C   0  0  0  0  0  0  0  0  0  0  0  0
  157.8750  140.9332  180.4591 O   0  0  0  0  0  0  0  0  0  0  0  0
  158.9709  143.0139  180.5188 C   0  0  0  0  0  0  0  0  0  0  0  0
  156.9762  143.6283  181.8988 C   0  0  0  0  0  0  0  0  0  0  0  0
  158.3295  144.0470  181.4196 C   0  0  0  0  0  0  0  0  0  0  0  0
  159.1956  144.3887  182.5958 C   0  0  0  0  0  0  0  0  0  0  0  0
 25 26  1  0  0  0
 26 27  1  0  0  0
 26 24  1  0  0  0
 24 22  1  0  0  0
 22 23  2  0  0  0
 22 21  1  0  0  0
 21 20  1  0  0  0
 20 18  1  0  0  0
 18 19  2  0  0  0
 19 17  1  0  0  0
 17 16  1  0  0  0
 16  1  1  0  0  0
  1  2  1  0  0  0
  2  3  2  0  0  0
  2  5  1  0  0  0
  5  6  2  0  0  0
  6  7  1  0  0  0
  7  8  2  0  0  0
  8  9  1  0  0  0
  9 10  2  0  0  0
 10 11  1  0  0  0
 11 12  2  0  0  0
 12 13  1  0  0  0
 13 14  2  0  0  0
 14 15  1  0  0  0
 15 11  1  0  0  0
  1  4  1  0  0  0
M  END
> <minimizedAffinity>
-6.64314

> <CNNscore>
0.4519186318

> <CNNaffinity>
5.4439172745

> <CNN_VS>
2.4602077007

> <CNNaffinity_variance>
0.0579062216

$$$$
[H]/C(=C(\[H])C([H])([H])C([H])([H])N([H])C(=O)/C([H])=C([H])/C([H])=C([H])/C([H])=C(\[H])c1sc([H])c([H])c1[H])C([H])([H])OC(=O)C([H])([H])C([H])(C([H])([H])[H])C([H])([H])[H]


 27 27  0  0  0  0  0  0  0  0999 V2000
  153.2492  139.5354  181.8443 N   0  0  0  0  0  0  0  0  0  0  0  0
  153.7456  140.7980  182.2175 C   0  0  0  0  0  0  0  0  0  0  0  0
  153.0392  141.8136  181.9992 O   0  0  0  0  0  0  0  0  0  0  0  0
  153.8325  138.6838  182.0253 H   0  0  0  0  0  0  0  0  0  0  0  0
  155.0375  140.9489  182.8405 C   0  0  0  0  0  0  0  0  0  0  0  0
  155.5001  142.0609  183.3349 C   0  0  0  0  0  0  0  0  0  0  0  0
  156.8254  142.1518  183.9578 C   0  0  0  0  0  0  0  0  0  0  0  0
  157.4751  141.1206  184.4151 C   0  0  0  0  0  0  0  0  0  0  0  0
  158.8082  141.2405  185.0375 C   0  0  0  0  0  0  0  0  0  0  0  0
  159.4545  142.3836  185.0311 C   0  0  0  0  0  0  0  0  0  0  0  0
  160.7932  142.4919  185.6598 C   0  0  0  0  0  0  0  0  0  0  0  0
  161.0848  142.8164  186.9571 C   0  0  0  0  0  0  0  0  0  0  0  0
  162.3806  142.8540  187.3071 C   0  0  0  0  0  0  0  0  0  0  0  0
  163.2998  142.5638  186.3344 C   0  0  0  0  0  0  0  0  0  0  0  0
  162.3327  142.2496  184.9699 S   0  0  0  0  0  0  0  0  0  0  0  0
  151.9657  139.3349  181.2172 C   0  0  0  0  0  0  0  0  0  0  0  0
  151.4493  137.9138  181.3426 C   0  0  0  0  0  0  0  0  0  0  0  0
  149.5420  137.4579  182.8483 C   0  0  0  0  0  0  0  0  0  0  0  0
  150.0224  137.8925  181.7131 C   0  0  0  0  0  0  0  0  0  0  0  0
  150.3980  136.9261  183.9109 C   0  0  0  0  0  0  0  0  0  0  0  0
  150.0302  135.5958  184.2009 O   0  0  0  0  0  0  0  0  0  0  0  0
  149.3198  135.2992  185.3386 C   0  0  0  0  0  0  0  0  0  0  0  0
  149.7102  134.3864  186.0951 O   0  0  0  0  0  0  0  0  0  0  0  0
  148.0764  136.0361  185.7165 C   0  0  0  0  0  0  0  0  0  0  0  0
  148.1513  138.4276  186.4485 C   0  0  0  0  0  0  0  0  0  0  0  0
  148.3783  137.0026  186.8411 C   0  0  0  0  0  0  0  0  0  0  0  0
  147.5933  136.6918  188.0810 C   0  0  0  0  0  0  0  0  0  0  0  0
 25 26  1  0  0  0
 26 27  1  0  0  0
 26 24  1  0  0  0
 24 22  1  0  0  0
 22 23  2  0  0  0
 22 21  1  0  0  0
 21 20  1  0  0  0
 20 18  1  0  0  0
 18 19  2  0  0  0
 19 17  1  0  0  0
 17 16  1  0  0  0
 16  1  1  0  0  0
  1  2  1  0  0  0
  2  3  2  0  0  0
  2  5  1  0  0  0
  5  6  2  0  0  0
  6  7  1  0  0  0
  7  8  2  0  0  0
  8  9  1  0  0  0
  9 10  2  0  0  0
 10 11  1  0  0  0
 11 12  2  0  0  0
 12 13  1  0  0  0
 13 14  2  0  0  0
 14 15  1  0  0  0
 15 11  1  0  0  0
  1  4  1  0  0  0
M  END
> <minimizedAffinity>
-5.42375

> <CNNscore>
0.4438455403

> <CNNaffinity>
5.6542768478

> <CNN_VS>
2.5096256733

> <CNNaffinity_variance>
0.1754413396

$$$$
[H]/C(=C(\[H])C([H])([H])C([H])([H])N([H])C(=O)/C([H])=C([H])/C([H])=C([H])/C([H])=C(\[H])c1sc([H])c([H])c1[H])C([H])([H])OC(=O)C([H])([H])C([H])(C([H])([H])[H])C([H])([H])[H]


 27 27  0  0  0  0  0  0  0  0999 V2000
  151.2492  139.5624  181.9259 N   0  0  0  0  0  0  0  0  0  0  0  0
  152.5244  139.6819  181.3433 C   0  0  0  0  0  0  0  0  0  0  0  0
  152.6881  139.2888  180.1615 O   0  0  0  0  0  0  0  0  0  0  0  0
  151.1053  139.8902  182.9108 H   0  0  0  0  0  0  0  0  0  0  0  0
  153.6380  140.2420  182.0688 C   0  0  0  0  0  0  0  0  0  0  0  0
  153.7893  141.5062  182.3404 C   0  0  0  0  0  0  0  0  0  0  0  0
  154.9465  142.0164  183.0841 C   0  0  0  0  0  0  0  0  0  0  0  0
  155.9515  141.2722  183.4458 C   0  0  0  0  0  0  0  0  0  0  0  0
  157.1040  141.8118  184.1937 C   0  0  0  0  0  0  0  0  0  0  0  0
  158.2702  141.2090  184.1613 C   0  0  0  0  0  0  0  0  0  0  0  0
  159.4209  141.7607  184.9169 C   0  0  0  0  0  0  0  0  0  0  0  0
  160.6787  142.0287  184.4483 C   0  0  0  0  0  0  0  0  0  0  0  0
  161.5680  142.5299  185.3206 C   0  0  0  0  0  0  0  0  0  0  0  0
  161.1390  142.7301  186.6055 C   0  0  0  0  0  0  0  0  0  0  0  0
  159.5177  142.2155  186.5565 S   0  0  0  0  0  0  0  0  0  0  0  0
  150.1070  139.0076  181.2416 C   0  0  0  0  0  0  0  0  0  0  0  0
  149.6700  137.6628  181.7914 C   0  0  0  0  0  0  0  0  0  0  0  0
  149.6654  137.3312  184.2415 C   0  0  0  0  0  0  0  0  0  0  0  0
  149.1140  137.7941  183.1507 C   0  0  0  0  0  0  0  0  0  0  0  0
  150.9380  136.6065  184.2315 C   0  0  0  0  0  0  0  0  0  0  0  0
  151.5065  136.6199  185.5220 O   0  0  0  0  0  0  0  0  0  0  0  0
  152.5574  137.4550  185.8141 C   0  0  0  0  0  0  0  0  0  0  0  0
  153.5023  137.5709  185.0068 O   0  0  0  0  0  0  0  0  0  0  0  0
  152.6193  138.2452  187.0804 C   0  0  0  0  0  0  0  0  0  0  0  0
  154.1773  138.6077  189.0045 C   0  0  0  0  0  0  0  0  0  0  0  0
  153.6299  137.6241  188.0201 C   0  0  0  0  0  0  0  0  0  0  0  0
  153.0702  136.4399  188.7513 C   0  0  0  0  0  0  0  0  0  0  0  0
 25 26  1  0  0  0
 26 27  1  0  0  0
 26 24  1  0  0  0
 24 22  1  0  0  0
 22 23  2  0  0  0
 22 21  1  0  0  0
 21 20  1  0  0  0
 20 18  1  0  0  0
 18 19  2  0  0  0
 19 17  1  0  0  0
 17 16  1  0  0  0
 16  1  1  0  0  0
  1  2  1  0  0  0
  2  3  2  0  0  0
  2  5  1  0  0  0
  5  6  2  0  0  0
  6  7  1  0  0  0
  7  8  2  0  0  0
  8  9  1  0  0  0
  9 10  2  0  0  0
 10 11  1  0  0  0
 11 12  2  0  0  0
 12 13  1  0  0  0
 13 14  2  0  0  0
 14 15  1  0  0  0
 15 11  1  0  0  0
  1  4  1  0  0  0
M  END
> <minimizedAffinity>
-6.08655

> <CNNscore>
0.4263818562

> <CNNaffinity>
5.8711590767

> <CNN_VS>
2.5033557415

> <CNNaffinity_variance>
0.0722124949

$$$$
[H]/C(=C(\[H])C([H])([H])C([H])([H])N([H])C(=O)/C([H])=C([H])/C([H])=C([H])/C([H])=C(\[H])c1sc([H])c([H])c1[H])C([H])([H])OC(=O)C([H])([H])C([H])(C([H])([H])[H])C([H])([H])[H]


 27 27  0  0  0  0  0  0  0  0999 V2000
  151.8811  136.9851  185.2389 N   0  0  0  0  0  0  0  0  0  0  0  0
  152.6390  137.5124  184.1772 C   0  0  0  0  0  0  0  0  0  0  0  0
  152.3269  137.2035  183.0002 O   0  0  0  0  0  0  0  0  0  0  0  0
  152.1348  137.2402  186.2231 H   0  0  0  0  0  0  0  0  0  0  0  0
  153.7572  138.3929  184.4102 C   0  0  0  0  0  0  0  0  0  0  0  0
  154.0384  139.4443  183.6957 C   0  0  0  0  0  0  0  0  0  0  0  0
  155.1926  140.3031  183.9831 C   0  0  0  0  0  0  0  0  0  0  0  0
  156.4264  139.9332  183.7944 C   0  0  0  0  0  0  0  0  0  0  0  0
  157.5698  140.8181  184.0921 C   0  0  0  0  0  0  0  0  0  0  0  0
  158.2426  140.6956  185.2131 C   0  0  0  0  0  0  0  0  0  0  0  0
  159.3896  141.5904  185.5011 C   0  0  0  0  0  0  0  0  0  0  0  0
  159.6619  142.2530  186.6674 C   0  0  0  0  0  0  0  0  0  0  0  0
  160.7672  143.0148  186.7002 C   0  0  0  0  0  0  0  0  0  0  0  0
  161.5276  143.0630  185.5625 C   0  0  0  0  0  0  0  0  0  0  0  0
  160.6812  142.0497  184.4886 S   0  0  0  0  0  0  0  0  0  0  0  0
  150.7569  136.1000  185.0557 C   0  0  0  0  0  0  0  0  0  0  0  0
  150.5934  135.0933  186.1790 C   0  0  0  0  0  0  0  0  0  0  0  0
  150.0424  135.8190  188.4773 C   0  0  0  0  0  0  0  0  0  0  0  0
  149.7005  135.6070  187.2338 C   0  0  0  0  0  0  0  0  0  0  0  0
  151.3951  135.5594  188.9749 C   0  0  0  0  0  0  0  0  0  0  0  0
  152.1935  136.7106  188.8135 O   0  0  0  0  0  0  0  0  0  0  0  0
  153.3521  136.8645  189.5354 C   0  0  0  0  0  0  0  0  0  0  0  0
  153.6925  135.9901  190.3586 O   0  0  0  0  0  0  0  0  0  0  0  0
  154.2388  138.0560  189.3749 C   0  0  0  0  0  0  0  0  0  0  0  0
  155.8821  137.9202  187.4929 C   0  0  0  0  0  0  0  0  0  0  0  0
  155.6155  137.6109  188.9315 C   0  0  0  0  0  0  0  0  0  0  0  0
  156.7022  138.1995  189.7817 C   0  0  0  0  0  0  0  0  0  0  0  0
 25 26  1  0  0  0
 26 27  1  0  0  0
 26 24  1  0  0  0
 24 22  1  0  0  0
 22 23  2  0  0  0
 22 21  1  0  0  0
 21 20  1  0  0  0
 20 18  1  0  0  0
 18 19  2  0  0  0
 19 17  1  0  0  0
 17 16  1  0  0  0
 16  1  1  0  0  0
  1  2  1  0  0  0
  2  3  2  0  0  0
  2  5  1  0  0  0
  5  6  2  0  0  0
  6  7  1  0  0  0
  7  8  2  0  0  0
  8  9  1  0  0  0
  9 10  2  0  0  0
 10 11  1  0  0  0
 11 12  2  0  0  0
 12 13  1  0  0  0
 13 14  2  0  0  0
 14 15  1  0  0  0
 15 11  1  0  0  0
  1  4  1  0  0  0
M  END
> <minimizedAffinity>
-5.78000

> <CNNscore>
0.4114923775

> <CNNaffinity>
5.7294783592

> <CNN_VS>
2.3576366901

> <CNNaffinity_variance>
0.1033186540

$$$$
[H]/C(=C(\[H])C([H])([H])C([H])([H])N([H])C(=O)/C([H])=C([H])/C([H])=C([H])/C([H])=C(\[H])c1sc([H])c([H])c1[H])C([H])([H])OC(=O)C([H])([H])C([H])(C([H])([H])[H])C([H])([H])[H]


 27 27  0  0  0  0  0  0  0  0999 V2000
  155.3394  139.6471  184.7025 N   0  0  0  0  0  0  0  0  0  0  0  0
  154.6307  138.5202  185.1582 C   0  0  0  0  0  0  0  0  0  0  0  0
  154.1716  137.7125  184.3127 O   0  0  0  0  0  0  0  0  0  0  0  0
  155.7267  140.3239  185.4026 H   0  0  0  0  0  0  0  0  0  0  0  0
  154.4224  138.2752  186.5641 C   0  0  0  0  0  0  0  0  0  0  0  0
  153.2997  137.8814  187.0929 C   0  0  0  0  0  0  0  0  0  0  0  0
  153.1495  137.6485  188.5335 C   0  0  0  0  0  0  0  0  0  0  0  0
  152.5253  136.6208  189.0326 C   0  0  0  0  0  0  0  0  0  0  0  0
  152.3888  136.4105  190.4873 C   0  0  0  0  0  0  0  0  0  0  0  0
  151.2761  135.9357  190.9980 C   0  0  0  0  0  0  0  0  0  0  0  0
  151.1509  135.7286  192.4611 C   0  0  0  0  0  0  0  0  0  0  0  0
  152.1093  135.9226  193.4188 C   0  0  0  0  0  0  0  0  0  0  0  0
  151.7684  135.6690  194.6926 C   0  0  0  0  0  0  0  0  0  0  0  0
  150.4894  135.2378  194.9237 C   0  0  0  0  0  0  0  0  0  0  0  0
  149.8067  135.1998  193.3654 S   0  0  0  0  0  0  0  0  0  0  0  0
  155.5709  139.9353  183.3082 C   0  0  0  0  0  0  0  0  0  0  0  0
  154.4794  140.7800  182.6782 C   0  0  0  0  0  0  0  0  0  0  0  0
  154.9018  143.1207  183.3532 C   0  0  0  0  0  0  0  0  0  0  0  0
  154.2302  142.0046  183.4606 C   0  0  0  0  0  0  0  0  0  0  0  0
  156.0130  143.2811  182.4129 C   0  0  0  0  0  0  0  0  0  0  0  0
  157.2386  143.0853  183.0826 O   0  0  0  0  0  0  0  0  0  0  0  0
  158.3988  142.8893  182.3737 C   0  0  0  0  0  0  0  0  0  0  0  0
  159.1008  141.8815  182.5964 O   0  0  0  0  0  0  0  0  0  0  0  0
  158.8655  143.8487  181.3279 C   0  0  0  0  0  0  0  0  0  0  0  0
  158.1548  142.3516  179.4534 C   0  0  0  0  0  0  0  0  0  0  0  0
  159.2898  143.0876  180.0907 C   0  0  0  0  0  0  0  0  0  0  0  0
  159.9452  143.9768  179.0758 C   0  0  0  0  0  0  0  0  0  0  0  0
 25 26  1  0  0  0
 26 27  1  0  0  0
 26 24  1  0  0  0
 24 22  1  0  0  0
 22 23  2  0  0  0
 22 21  1  0  0  0
 21 20  1  0  0  0
 20 18  1  0  0  0
 18 19  2  0  0  0
 19 17  1  0  0  0
 17 16  1  0  0  0
 16  1  1  0  0  0
  1  2  1  0  0  0
  2  3  2  0  0  0
  2  5  1  0  0  0
  5  6  2  0  0  0
  6  7  1  0  0  0
  7  8  2  0  0  0
  8  9  1  0  0  0
  9 10  2  0  0  0
 10 11  1  0  0  0
 11 12  2  0  0  0
 12 13  1  0  0  0
 13 14  2  0  0  0
 14 15  1  0  0  0
 15 11  1  0  0  0
  1  4  1  0  0  0
M  END
> <minimizedAffinity>
-6.33936

> <CNNscore>
0.4079600871

> <CNNaffinity>
5.3906984329

> <CNN_VS>
2.1991899014

> <CNNaffinity_variance>
0.2725585103

$$$$
[H]/C(=C(\[H])C([H])([H])C([H])([H])N([H])C(=O)/C([H])=C([H])/C([H])=C([H])/C([H])=C(\[H])c1sc([H])c([H])c1[H])C([H])([H])OC(=O)C([H])([H])C([H])(C([H])([H])[H])C([H])([H])[H]


 27 27  0  0  0  0  0  0  0  0999 V2000
  152.8373  138.3109  184.1080 N   0  0  0  0  0  0  0  0  0  0  0  0
  152.2416  137.0745  184.4182 C   0  0  0  0  0  0  0  0  0  0  0  0
  151.9392  136.2970  183.4789 O   0  0  0  0  0  0  0  0  0  0  0  0
  153.0939  138.9635  184.8868 H   0  0  0  0  0  0  0  0  0  0  0  0
  151.9735  136.6846  185.7805 C   0  0  0  0  0  0  0  0  0  0  0  0
  150.8191  136.2790  186.2253 C   0  0  0  0  0  0  0  0  0  0  0  0
  150.6081  135.8949  187.6254 C   0  0  0  0  0  0  0  0  0  0  0  0
  151.4992  136.0676  188.5586 C   0  0  0  0  0  0  0  0  0  0  0  0
  151.2605  135.6717  189.9605 C   0  0  0  0  0  0  0  0  0  0  0  0
  151.8401  136.3123  190.9495 C   0  0  0  0  0  0  0  0  0  0  0  0
  151.5925  135.9055  192.3539 C   0  0  0  0  0  0  0  0  0  0  0  0
  150.3955  135.8720  193.0168 C   0  0  0  0  0  0  0  0  0  0  0  0
  150.4106  135.4658  194.2967 C   0  0  0  0  0  0  0  0  0  0  0  0
  151.6239  135.1196  194.8287 C   0  0  0  0  0  0  0  0  0  0  0  0
  152.6995  135.3703  193.5340 S   0  0  0  0  0  0  0  0  0  0  0  0
  153.1226  138.7453  182.7624 C   0  0  0  0  0  0  0  0  0  0  0  0
  153.7951  140.1037  182.6975 C   0  0  0  0  0  0  0  0  0  0  0  0
  155.7811  141.0610  183.8165 C   0  0  0  0  0  0  0  0  0  0  0  0
  154.7192  140.2993  183.8297 C   0  0  0  0  0  0  0  0  0  0  0  0
  156.1825  141.8282  182.6354 C   0  0  0  0  0  0  0  0  0  0  0  0
  156.8179  140.9786  181.7061 O   0  0  0  0  0  0  0  0  0  0  0  0
  158.1381  141.1665  181.3764 C   0  0  0  0  0  0  0  0  0  0  0  0
  158.7037  140.3717  180.5978 O   0  0  0  0  0  0  0  0  0  0  0  0
  158.9414  142.3027  181.9202 C   0  0  0  0  0  0  0  0  0  0  0  0
  158.9641  144.8044  181.8765 C   0  0  0  0  0  0  0  0  0  0  0  0
  158.6672  143.5532  181.1132 C   0  0  0  0  0  0  0  0  0  0  0  0
  159.4193  143.5659  179.8153 C   0  0  0  0  0  0  0  0  0  0  0  0
 25 26  1  0  0  0
 26 27  1  0  0  0
 26 24  1  0  0  0
 24 22  1  0  0  0
 22 23  2  0  0  0
 22 21  1  0  0  0
 21 20  1  0  0  0
 20 18  1  0  0  0
 18 19  2  0  0  0
 19 17  1  0  0  0
 17 16  1  0  0  0
 16  1  1  0  0  0
  1  2  1  0  0  0
  2  3  2  0  0  0
  2  5  1  0  0  0
  5  6  2  0  0  0
  6  7  1  0  0  0
  7  8  2  0  0  0
  8  9  1  0  0  0
  9 10  2  0  0  0
 10 11  1  0  0  0
 11 12  2  0  0  0
 12 13  1  0  0  0
 13 14  2  0  0  0
 14 15  1  0  0  0
 15 11  1  0  0  0
  1  4  1  0  0  0
M  END
> <minimizedAffinity>
-5.63591

> <CNNscore>
0.4004141390

> <CNNaffinity>
5.2704248428

> <CNN_VS>
2.1103525162

> <CNNaffinity_variance>
0.3940467834

$$$$
[H]/C(=C(\[H])C([H])([H])C([H])([H])N([H])C(=O)/C([H])=C([H])/C([H])=C([H])/C([H])=C(\[H])c1sc([H])c([H])c1[H])C([H])([H])OC(=O)C([H])([H])C([H])(C([H])([H])[H])C([H])([H])[H]


 27 27  0  0  0  0  0  0  0  0999 V2000
  157.7294  141.0335  181.5830 N   0  0  0  0  0  0  0  0  0  0  0  0
  156.4678  141.0692  182.2051 C   0  0  0  0  0  0  0  0  0  0  0  0
  155.4826  141.4912  181.5498 O   0  0  0  0  0  0  0  0  0  0  0  0
  158.5551  140.6809  182.1232 H   0  0  0  0  0  0  0  0  0  0  0  0
  156.2840  140.6349  183.5680 C   0  0  0  0  0  0  0  0  0  0  0  0
  156.7541  139.5278  184.0664 C   0  0  0  0  0  0  0  0  0  0  0  0
  156.5332  139.1398  185.4639 C   0  0  0  0  0  0  0  0  0  0  0  0
  155.5205  138.4229  185.8577 C   0  0  0  0  0  0  0  0  0  0  0  0
  155.3223  138.0465  187.2712 C   0  0  0  0  0  0  0  0  0  0  0  0
  154.1662  138.2379  187.8638 C   0  0  0  0  0  0  0  0  0  0  0  0
  153.9791  137.8556  189.2843 C   0  0  0  0  0  0  0  0  0  0  0  0
  154.6859  138.2973  190.3700 C   0  0  0  0  0  0  0  0  0  0  0  0
  154.3382  137.8103  191.5721 C   0  0  0  0  0  0  0  0  0  0  0  0
  153.3047  136.9127  191.6080 C   0  0  0  0  0  0  0  0  0  0  0  0
  152.8534  136.7769  189.9728 S   0  0  0  0  0  0  0  0  0  0  0  0
  157.9626  141.4589  180.2245 C   0  0  0  0  0  0  0  0  0  0  0  0
  158.7521  142.7507  180.1248 C   0  0  0  0  0  0  0  0  0  0  0  0
  158.3804  144.4413  181.8901 C   0  0  0  0  0  0  0  0  0  0  0  0
  158.0359  143.8679  180.7673 C   0  0  0  0  0  0  0  0  0  0  0  0
  159.5544  144.0215  182.6583 C   0  0  0  0  0  0  0  0  0  0  0  0
  159.2069  142.9633  183.5234 O   0  0  0  0  0  0  0  0  0  0  0  0
  160.1284  141.9997  183.8541 C   0  0  0  0  0  0  0  0  0  0  0  0
  159.9697  140.8262  183.4595 O   0  0  0  0  0  0  0  0  0  0  0  0
  161.3351  142.3015  184.6816 C   0  0  0  0  0  0  0  0  0  0  0  0
  159.7755  142.2447  186.6373 C   0  0  0  0  0  0  0  0  0  0  0  0
  160.9130  142.9574  185.9783 C   0  0  0  0  0  0  0  0  0  0  0  0
  162.0528  143.0865  186.9450 C   0  0  0  0  0  0  0  0  0  0  0  0
 25 26  1  0  0  0
 26 27  1  0  0  0
 26 24  1  0  0  0
 24 22  1  0  0  0
 22 23  2  0  0  0
 22 21  1  0  0  0
 21 20  1  0  0  0
 20 18  1  0  0  0
 18 19  2  0  0  0
 19 17  1  0  0  0
 17 16  1  0  0  0
 16  1  1  0  0  0
  1  2  1  0  0  0
  2  3  2  0  0  0
  2  5  1  0  0  0
  5  6  2  0  0  0
  6  7  1  0  0  0
  7  8  2  0  0  0
  8  9  1  0  0  0
  9 10  2  0  0  0
 10 11  1  0  0  0
 11 12  2  0  0  0
 12 13  1  0  0  0
 13 14  2  0  0  0
 14 15  1  0  0  0
 15 11  1  0  0  0
  1  4  1  0  0  0
M  END
> <minimizedAffinity>
-7.55701

> <CNNscore>
0.3879116476

> <CNNaffinity>
6.2254114151

> <CNN_VS>
2.4149096012

> <CNNaffinity_variance>
0.1150526553

$$$$
[H]Oc1nc(N([H])c2c([H])c(OC([H])([H])[H])c([H])c([H])c2OC([H])([H])[H])c([H])c2c([H])c([H])c([H])c([H])c12


 24 26  0  0  0  0  0  0  0  0999 V2000
  154.4888  140.8057  183.0546 N   0  0  0  0  0  0  0  0  0  0  0  0
  154.1687  141.7093  183.5690 H   0  0  0  0  0  0  0  0  0  0  0  0
  153.4536  140.0393  182.5261 C   0  0  0  0  0  0  0  0  0  0  0  0
  152.8144  140.4664  181.3624 C   0  0  0  0  0  0  0  0  0  0  0  0
  151.7806  139.7391  180.7994 C   0  0  0  0  0  0  0  0  0  0  0  0
  151.1419  140.1538  179.6478 C   0  0  0  0  0  0  0  0  0  0  0  0
  150.1194  139.3954  179.1273 C   0  0  0  0  0  0  0  0  0  0  0  0
  149.7281  138.2410  179.7316 C   0  0  0  0  0  0  0  0  0  0  0  0
  150.3601  137.8249  180.8764 C   0  0  0  0  0  0  0  0  0  0  0  0
  151.3790  138.5735  181.4018 C   0  0  0  0  0  0  0  0  0  0  0  0
  152.0208  138.1646  182.5517 C   0  0  0  0  0  0  0  0  0  0  0  0
  151.6207  136.9892  183.1651 O   0  0  0  0  0  0  0  0  0  0  0  0
  153.0118  138.9147  183.0424 N   0  0  0  0  0  0  0  0  0  0  0  0
  152.1481  136.1586  182.9415 H   0  0  0  0  0  0  0  0  0  0  0  0
  158.0969  140.8596  182.0340 C   0  0  0  0  0  0  0  0  0  0  0  0
  158.6260  140.1881  183.1049 C   0  0  0  0  0  0  0  0  0  0  0  0
  157.8359  139.7268  184.1358 C   0  0  0  0  0  0  0  0  0  0  0  0
  156.4661  139.9385  184.1064 C   0  0  0  0  0  0  0  0  0  0  0  0
  155.8748  140.6163  183.0399 C   0  0  0  0  0  0  0  0  0  0  0  0
  156.7105  141.0583  182.0319 C   0  0  0  0  0  0  0  0  0  0  0  0
  158.4186  141.8739  179.8172 C   0  0  0  0  0  0  0  0  0  0  0  0
  158.9031  141.3209  180.9989 O   0  0  0  0  0  0  0  0  0  0  0  0
  155.6467  139.4884  185.1245 O   0  0  0  0  0  0  0  0  0  0  0  0
  156.1359  138.5076  186.0329 C   0  0  0  0  0  0  0  0  0  0  0  0
 21 22  1  0  0  0
 22 15  1  0  0  0
 15 16  2  0  0  0
 16 17  1  0  0  0
 17 18  2  0  0  0
 18 23  1  0  0  0
 23 24  1  0  0  0
 18 19  1  0  0  0
 19  1  1  0  0  0
  1  3  1  0  0  0
  3  4  2  0  0  0
  4  5  1  0  0  0
  5  6  2  0  0  0
  6  7  1  0  0  0
  7  8  2  0  0  0
  8  9  1  0  0  0
  9 10  2  0  0  0
 10 11  1  0  0  0
 11 12  1  0  0  0
 11 13  2  0  0  0
 19 20  2  0  0  0
 20 15  1  0  0  0
 13  3  1  0  0  0
 10  5  1  0  0  0
  1  2  1  0  0  0
 12 14  1  0  0  0
M  END
> <minimizedAffinity>
-7.18225

> <CNNscore>
0.5510580540

> <CNNaffinity>
5.3509321213

> <CNN_VS>
2.9486742020

> <CNNaffinity_variance>
0.0741276443

$$$$
[H]Oc1nc(N([H])c2c([H])c(OC([H])([H])[H])c([H])c([H])c2OC([H])([H])[H])c([H])c2c([H])c([H])c([H])c([H])c12


 24 26  0  0  0  0  0  0  0  0999 V2000
  155.7254  141.6183  182.9219 N   0  0  0  0  0  0  0  0  0  0  0  0
  155.4832  142.6434  182.6495 H   0  0  0  0  0  0  0  0  0  0  0  0
  154.6731  140.7166  182.7884 C   0  0  0  0  0  0  0  0  0  0  0  0
  153.7241  140.9195  181.7867 C   0  0  0  0  0  0  0  0  0  0  0  0
  152.6607  140.0511  181.6147 C   0  0  0  0  0  0  0  0  0  0  0  0
  151.7164  140.2436  180.6261 C   0  0  0  0  0  0  0  0  0  0  0  0
  150.6775  139.3517  180.4958 C   0  0  0  0  0  0  0  0  0  0  0  0
  150.5671  138.2812  181.3282 C   0  0  0  0  0  0  0  0  0  0  0  0
  151.5033  138.0859  182.3124 C   0  0  0  0  0  0  0  0  0  0  0  0
  152.5410  138.9686  182.4494 C   0  0  0  0  0  0  0  0  0  0  0  0
  153.4871  138.7817  183.4348 C   0  0  0  0  0  0  0  0  0  0  0  0
  153.3727  137.6913  184.2810 O   0  0  0  0  0  0  0  0  0  0  0  0
  154.4891  139.6589  183.5459 N   0  0  0  0  0  0  0  0  0  0  0  0
  153.9079  136.8711  184.0388 H   0  0  0  0  0  0  0  0  0  0  0  0
  158.8099  141.4578  185.0487 C   0  0  0  0  0  0  0  0  0  0  0  0
  159.7004  141.0446  184.0926 C   0  0  0  0  0  0  0  0  0  0  0  0
  159.3149  140.8222  182.7882 C   0  0  0  0  0  0  0  0  0  0  0  0
  157.9942  141.0161  182.4138 C   0  0  0  0  0  0  0  0  0  0  0  0
  157.0457  141.4362  183.3468 C   0  0  0  0  0  0  0  0  0  0  0  0
  157.4832  141.6453  184.6410 C   0  0  0  0  0  0  0  0  0  0  0  0
  160.1807  142.6022  186.7392 C   0  0  0  0  0  0  0  0  0  0  0  0
  159.2094  141.6794  186.3623 O   0  0  0  0  0  0  0  0  0  0  0  0
  157.5761  140.8017  181.1140 O   0  0  0  0  0  0  0  0  0  0  0  0
  158.1647  141.5533  180.0579 C   0  0  0  0  0  0  0  0  0  0  0  0
 21 22  1  0  0  0
 22 15  1  0  0  0
 15 16  2  0  0  0
 16 17  1  0  0  0
 17 18  2  0  0  0
 18 23  1  0  0  0
 23 24  1  0  0  0
 18 19  1  0  0  0
 19  1  1  0  0  0
  1  3  1  0  0  0
  3  4  2  0  0  0
  4  5  1  0  0  0
  5  6  2  0  0  0
  6  7  1  0  0  0
  7  8  2  0  0  0
  8  9  1  0  0  0
  9 10  2  0  0  0
 10 11  1  0  0  0
 11 12  1  0  0  0
 11 13  2  0  0  0
 19 20  2  0  0  0
 20 15  1  0  0  0
 13  3  1  0  0  0
 10  5  1  0  0  0
  1  2  1  0  0  0
 12 14  1  0  0  0
M  END
> <minimizedAffinity>
-7.89502

> <CNNscore>
0.5290786624

> <CNNaffinity>
5.7916951180

> <CNN_VS>
3.0642623901

> <CNNaffinity_variance>
0.3704462051

$$$$
[H]Oc1nc(N([H])c2c([H])c(OC([H])([H])[H])c([H])c([H])c2OC([H])([H])[H])c([H])c2c([H])c([H])c([H])c([H])c12


 24 26  0  0  0  0  0  0  0  0999 V2000
  158.1679  140.0600  184.0559 N   0  0  0  0  0  0  0  0  0  0  0  0
  158.9581  139.3175  184.1459 H   0  0  0  0  0  0  0  0  0  0  0  0
  156.9090  139.6215  184.4572 C   0  0  0  0  0  0  0  0  0  0  0  0
  156.7643  139.0123  185.7034 C   0  0  0  0  0  0  0  0  0  0  0  0
  155.5338  138.5602  186.1462 C   0  0  0  0  0  0  0  0  0  0  0  0
  155.3806  137.9561  187.3781 C   0  0  0  0  0  0  0  0  0  0  0  0
  154.1361  137.5235  187.7728 C   0  0  0  0  0  0  0  0  0  0  0  0
  153.0525  137.6828  186.9656 C   0  0  0  0  0  0  0  0  0  0  0  0
  153.2000  138.2828  185.7402 C   0  0  0  0  0  0  0  0  0  0  0  0
  154.4352  138.7165  185.3390 C   0  0  0  0  0  0  0  0  0  0  0  0
  154.5944  139.3207  184.1099 C   0  0  0  0  0  0  0  0  0  0  0  0
  153.4900  139.4818  183.2899 O   0  0  0  0  0  0  0  0  0  0  0  0
  155.8113  139.7342  183.7439 N   0  0  0  0  0  0  0  0  0  0  0  0
  153.0245  140.3761  183.3266 H   0  0  0  0  0  0  0  0  0  0  0  0
  158.8310  142.9589  181.7712 C   0  0  0  0  0  0  0  0  0  0  0  0
  159.4916  143.7726  182.6542 C   0  0  0  0  0  0  0  0  0  0  0  0
  159.7189  143.3948  183.9600 C   0  0  0  0  0  0  0  0  0  0  0  0
  159.2748  142.1615  184.4113 C   0  0  0  0  0  0  0  0  0  0  0  0
  158.5968  141.2937  183.5548 C   0  0  0  0  0  0  0  0  0  0  0  0
  158.3943  141.7195  182.2557 C   0  0  0  0  0  0  0  0  0  0  0  0
  158.3596  142.4666  179.4087 C   0  0  0  0  0  0  0  0  0  0  0  0
  158.6068  143.3498  180.4555 O   0  0  0  0  0  0  0  0  0  0  0  0
  159.4871  141.7535  185.7147 O   0  0  0  0  0  0  0  0  0  0  0  0
  160.2127  142.5983  186.6016 C   0  0  0  0  0  0  0  0  0  0  0  0
 21 22  1  0  0  0
 22 15  1  0  0  0
 15 16  2  0  0  0
 16 17  1  0  0  0
 17 18  2  0  0  0
 18 23  1  0  0  0
 23 24  1  0  0  0
 18 19  1  0  0  0
 19  1  1  0  0  0
  1  3  1  0  0  0
  3  4  2  0  0  0
  4  5  1  0  0  0
  5  6  2  0  0  0
  6  7  1  0  0  0
  7  8  2  0  0  0
  8  9  1  0  0  0
  9 10  2  0  0  0
 10 11  1  0  0  0
 11 12  1  0  0  0
 11 13  2  0  0  0
 19 20  2  0  0  0
 20 15  1  0  0  0
 13  3  1  0  0  0
 10  5  1  0  0  0
  1  2  1  0  0  0
 12 14  1  0  0  0
M  END
> <minimizedAffinity>
-6.65682

> <CNNscore>
0.4824832976

> <CNNaffinity>
5.7952699661

> <CNN_VS>
2.7961208820

> <CNNaffinity_variance>
0.1494499147

$$$$
[H]Oc1nc(N([H])c2c([H])c(OC([H])([H])[H])c([H])c([H])c2OC([H])([H])[H])c([H])c2c([H])c([H])c([H])c([H])c12


 24 26  0  0  0  0  0  0  0  0999 V2000
  157.2651  142.2353  183.6346 N   0  0  0  0  0  0  0  0  0  0  0  0
  156.9621  143.2511  183.3896 H   0  0  0  0  0  0  0  0  0  0  0  0
  156.2404  141.2941  183.5834 C   0  0  0  0  0  0  0  0  0  0  0  0
  155.2033  141.4643  182.6666 C   0  0  0  0  0  0  0  0  0  0  0  0
  154.1630  140.5562  182.5782 C   0  0  0  0  0  0  0  0  0  0  0  0
  153.1321  140.7161  181.6740 C   0  0  0  0  0  0  0  0  0  0  0  0
  152.1207  139.7854  181.6250 C   0  0  0  0  0  0  0  0  0  0  0  0
  152.1218  138.7079  182.4558 C   0  0  0  0  0  0  0  0  0  0  0  0
  153.1444  138.5449  183.3562 C   0  0  0  0  0  0  0  0  0  0  0  0
  154.1555  139.4664  183.4121 C   0  0  0  0  0  0  0  0  0  0  0  0
  155.1879  139.3122  184.3130 C   0  0  0  0  0  0  0  0  0  0  0  0
  155.1868  138.2147  185.1577 O   0  0  0  0  0  0  0  0  0  0  0  0
  156.1615  140.2270  184.3459 N   0  0  0  0  0  0  0  0  0  0  0  0
  155.7306  137.4168  184.8653 H   0  0  0  0  0  0  0  0  0  0  0  0
  160.5281  142.2400  185.4828 C   0  0  0  0  0  0  0  0  0  0  0  0
  161.3419  141.8065  184.4690 C   0  0  0  0  0  0  0  0  0  0  0  0
  160.8491  141.5183  183.2145 C   0  0  0  0  0  0  0  0  0  0  0  0
  159.4958  141.6647  182.9517 C   0  0  0  0  0  0  0  0  0  0  0  0
  158.6221  142.1028  183.9474 C   0  0  0  0  0  0  0  0  0  0  0  0
  159.1660  142.3785  185.1876 C   0  0  0  0  0  0  0  0  0  0  0  0
  162.3646  142.8542  186.9981 C   0  0  0  0  0  0  0  0  0  0  0  0
  161.0355  142.5281  186.7452 O   0  0  0  0  0  0  0  0  0  0  0  0
  158.9708  141.3840  181.7043 O   0  0  0  0  0  0  0  0  0  0  0  0
  159.1405  142.3229  180.6477 C   0  0  0  0  0  0  0  0  0  0  0  0
 21 22  1  0  0  0
 22 15  1  0  0  0
 15 16  2  0  0  0
 16 17  1  0  0  0
 17 18  2  0  0  0
 18 23  1  0  0  0
 23 24  1  0  0  0
 18 19  1  0  0  0
 19  1  1  0  0  0
  1  3  1  0  0  0
  3  4  2  0  0  0
  4  5  1  0  0  0
  5  6  2  0  0  0
  6  7  1  0  0  0
  7  8  2  0  0  0
  8  9  1  0  0  0
  9 10  2  0  0  0
 10 11  1  0  0  0
 11 12  1  0  0  0
 11 13  2  0  0  0
 19 20  2  0  0  0
 20 15  1  0  0  0
 13  3  1  0  0  0
 10  5  1  0  0  0
  1  2  1  0  0  0
 12 14  1  0  0  0
M  END
> <minimizedAffinity>
-7.82745

> <CNNscore>
0.4411532879

> <CNNaffinity>
6.0724844933

> <CNN_VS>
2.6788964272

> <CNNaffinity_variance>
0.4138305187

$$$$
[H]Oc1nc(N([H])c2c([H])c(OC([H])([H])[H])c([H])c([H])c2OC([H])([H])[H])c([H])c2c([H])c([H])c([H])c([H])c12


 24 26  0  0  0  0  0  0  0  0999 V2000
  154.4222  140.9726  183.1436 N   0  0  0  0  0  0  0  0  0  0  0  0
  153.9691  141.6876  183.8271 H   0  0  0  0  0  0  0  0  0  0  0  0
  155.8078  141.0619  183.0424 C   0  0  0  0  0  0  0  0  0  0  0  0
  156.5601  141.3192  184.1884 C   0  0  0  0  0  0  0  0  0  0  0  0
  157.9394  141.4170  184.1383 C   0  0  0  0  0  0  0  0  0  0  0  0
  158.6925  141.6714  185.2671 C   0  0  0  0  0  0  0  0  0  0  0  0
  160.0613  141.7593  185.1651 C   0  0  0  0  0  0  0  0  0  0  0  0
  160.6844  141.5988  183.9664 C   0  0  0  0  0  0  0  0  0  0  0  0
  159.9400  141.3458  182.8417 C   0  0  0  0  0  0  0  0  0  0  0  0
  158.5768  141.2566  182.9337 C   0  0  0  0  0  0  0  0  0  0  0  0
  157.8192  141.0027  181.8099 C   0  0  0  0  0  0  0  0  0  0  0  0
  158.4557  140.8397  180.5908 O   0  0  0  0  0  0  0  0  0  0  0  0
  156.4907  140.9209  181.9288 N   0  0  0  0  0  0  0  0  0  0  0  0
  158.6464  139.8921  180.3017 H   0  0  0  0  0  0  0  0  0  0  0  0
  151.8865  139.5753  180.7601 C   0  0  0  0  0  0  0  0  0  0  0  0
  151.7027  138.3505  181.3465 C   0  0  0  0  0  0  0  0  0  0  0  0
  152.3822  137.9819  182.4875 C   0  0  0  0  0  0  0  0  0  0  0  0
  153.2807  138.8607  183.0727 C   0  0  0  0  0  0  0  0  0  0  0  0
  153.5063  140.1205  182.5174 C   0  0  0  0  0  0  0  0  0  0  0  0
  152.8001  140.4417  181.3736 C   0  0  0  0  0  0  0  0  0  0  0  0
  150.0711  139.2720  179.1295 C   0  0  0  0  0  0  0  0  0  0  0  0
  151.1956  139.9375  179.6087 O   0  0  0  0  0  0  0  0  0  0  0  0
  153.9777  138.5209  184.2169 O   0  0  0  0  0  0  0  0  0  0  0  0
  154.0517  137.1546  184.6099 C   0  0  0  0  0  0  0  0  0  0  0  0
 21 22  1  0  0  0
 22 15  1  0  0  0
 15 16  2  0  0  0
 16 17  1  0  0  0
 17 18  2  0  0  0
 18 23  1  0  0  0
 23 24  1  0  0  0
 18 19  1  0  0  0
 19  1  1  0  0  0
  1  3  1  0  0  0
  3  4  2  0  0  0
  4  5  1  0  0  0
  5  6  2  0  0  0
  6  7  1  0  0  0
  7  8  2  0  0  0
  8  9  1  0  0  0
  9 10  2  0  0  0
 10 11  1  0  0  0
 11 12  1  0  0  0
 11 13  2  0  0  0
 19 20  2  0  0  0
 20 15  1  0  0  0
 13  3  1  0  0  0
 10  5  1  0  0  0
  1  2  1  0  0  0
 12 14  1  0  0  0
M  END
> <minimizedAffinity>
-7.59288

> <CNNscore>
0.3935549259

> <CNNaffinity>
5.5963973999

> <CNN_VS>
2.2024898529

> <CNNaffinity_variance>
0.0409920290

$$$$
[H]Oc1nc(N([H])c2c([H])c(OC([H])([H])[H])c([H])c([H])c2OC([H])([H])[H])c([H])c2c([H])c([H])c([H])c([H])c12


 24 26  0  0  0  0  0  0  0  0999 V2000
  156.2849  141.0537  184.0729 N   0  0  0  0  0  0  0  0  0  0  0  0
  155.6963  141.9194  183.7766 H   0  0  0  0  0  0  0  0  0  0  0  0
  155.5423  139.9029  184.3225 C   0  0  0  0  0  0  0  0  0  0  0  0
  155.8275  139.1393  185.4542 C   0  0  0  0  0  0  0  0  0  0  0  0
  155.1172  137.9878  185.7446 C   0  0  0  0  0  0  0  0  0  0  0  0
  155.3922  137.2256  186.8624 C   0  0  0  0  0  0  0  0  0  0  0  0
  154.6575  136.0889  187.1072 C   0  0  0  0  0  0  0  0  0  0  0  0
  153.6624  135.7047  186.2626 C   0  0  0  0  0  0  0  0  0  0  0  0
  153.3856  136.4592  185.1503 C   0  0  0  0  0  0  0  0  0  0  0  0
  154.1118  137.5924  184.8986 C   0  0  0  0  0  0  0  0  0  0  0  0
  153.8419  138.3578  183.7840 C   0  0  0  0  0  0  0  0  0  0  0  0
  152.8286  137.9647  182.9257 O   0  0  0  0  0  0  0  0  0  0  0  0
  154.5666  139.4586  183.5629 N   0  0  0  0  0  0  0  0  0  0  0  0
  151.9264  138.3951  183.0620 H   0  0  0  0  0  0  0  0  0  0  0  0
  159.7171  141.8874  185.3331 C   0  0  0  0  0  0  0  0  0  0  0  0
  160.4094  141.7476  184.1588 C   0  0  0  0  0  0  0  0  0  0  0  0
  159.7828  141.3918  182.9839 C   0  0  0  0  0  0  0  0  0  0  0  0
  158.4153  141.1647  182.9697 C   0  0  0  0  0  0  0  0  0  0  0  0
  157.6617  141.2930  184.1368 C   0  0  0  0  0  0  0  0  0  0  0  0
  158.3372  141.6517  185.2879 C   0  0  0  0  0  0  0  0  0  0  0  0
  161.6227  142.8272  186.5708 C   0  0  0  0  0  0  0  0  0  0  0  0
  160.3590  142.2469  186.5133 O   0  0  0  0  0  0  0  0  0  0  0  0
  157.7576  140.8066  181.8079 O   0  0  0  0  0  0  0  0  0  0  0  0
  158.3373  141.1311  180.5488 C   0  0  0  0  0  0  0  0  0  0  0  0
 21 22  1  0  0  0
 22 15  1  0  0  0
 15 16  2  0  0  0
 16 17  1  0  0  0
 17 18  2  0  0  0
 18 23  1  0  0  0
 23 24  1  0  0  0
 18 19  1  0  0  0
 19  1  1  0  0  0
  1  3  1  0  0  0
  3  4  2  0  0  0
  4  5  1  0  0  0
  5  6  2  0  0  0
  6  7  1  0  0  0
  7  8  2  0  0  0
  8  9  1  0  0  0
  9 10  2  0  0  0
 10 11  1  0  0  0
 11 12  1  0  0  0
 11 13  2  0  0  0
 19 20  2  0  0  0
 20 15  1  0  0  0
 13  3  1  0  0  0
 10  5  1  0  0  0
  1  2  1  0  0  0
 12 14  1  0  0  0
M  END
> <minimizedAffinity>
-6.44173

> <CNNscore>
0.3834187388

> <CNNaffinity>
5.5213947296

> <CNN_VS>
2.1170063019

> <CNNaffinity_variance>
0.2080347985

$$$$
[H]Oc1nc(N([H])c2c([H])c(OC([H])([H])[H])c([H])c([H])c2OC([H])([H])[H])c([H])c2c([H])c([H])c([H])c([H])c12


 24 26  0  0  0  0  0  0  0  0999 V2000
  155.0939  140.9867  183.3101 N   0  0  0  0  0  0  0  0  0  0  0  0
  155.1609  141.2048  184.3739 H   0  0  0  0  0  0  0  0  0  0  0  0
  156.1011  141.5551  182.5351 C   0  0  0  0  0  0  0  0  0  0  0  0
  156.5521  142.8397  182.8382 C   0  0  0  0  0  0  0  0  0  0  0  0
  157.5506  143.4466  182.0972 C   0  0  0  0  0  0  0  0  0  0  0  0
  158.0036  144.7176  182.3896 C   0  0  0  0  0  0  0  0  0  0  0  0
  158.9986  145.2775  181.6227 C   0  0  0  0  0  0  0  0  0  0  0  0
  159.5436  144.5958  180.5789 C   0  0  0  0  0  0  0  0  0  0  0  0
  159.0965  143.3323  180.2845 C   0  0  0  0  0  0  0  0  0  0  0  0
  158.1062  142.7669  181.0426 C   0  0  0  0  0  0  0  0  0  0  0  0
  157.6497  141.4979  180.7555 C   0  0  0  0  0  0  0  0  0  0  0  0
  158.2059  140.8060  179.6926 O   0  0  0  0  0  0  0  0  0  0  0  0
  156.6823  140.9708  181.5118 N   0  0  0  0  0  0  0  0  0  0  0  0
  158.9474  140.1579  179.9115 H   0  0  0  0  0  0  0  0  0  0  0  0
  151.9749  139.7004  181.6730 C   0  0  0  0  0  0  0  0  0  0  0  0
  151.8735  138.5027  182.3311 C   0  0  0  0  0  0  0  0  0  0  0  0
  152.7919  138.1169  183.2836 C   0  0  0  0  0  0  0  0  0  0  0  0
  153.8544  138.9499  183.5983 C   0  0  0  0  0  0  0  0  0  0  0  0
  154.0059  140.1806  182.9589 C   0  0  0  0  0  0  0  0  0  0  0  0
  153.0584  140.5206  182.0120 C   0  0  0  0  0  0  0  0  0  0  0  0
  151.2465  139.9758  179.3406 C   0  0  0  0  0  0  0  0  0  0  0  0
  151.0426  140.0802  180.7134 O   0  0  0  0  0  0  0  0  0  0  0  0
  154.7920  138.5919  184.5487 O   0  0  0  0  0  0  0  0  0  0  0  0
  154.3687  138.3245  185.8814 C   0  0  0  0  0  0  0  0  0  0  0  0
 21 22  1  0  0  0
 22 15  1  0  0  0
 15 16  2  0  0  0
 16 17  1  0  0  0
 17 18  2  0  0  0
 18 23  1  0  0  0
 23 24  1  0  0  0
 18 19  1  0  0  0
 19  1  1  0  0  0
  1  3  1  0  0  0
  3  4  2  0  0  0
  4  5  1  0  0  0
  5  6  2  0  0  0
  6  7  1  0  0  0
  7  8  2  0  0  0
  8  9  1  0  0  0
  9 10  2  0  0  0
 10 11  1  0  0  0
 11 12  1  0  0  0
 11 13  2  0  0  0
 19 20  2  0  0  0
 20 15  1  0  0  0
 13  3  1  0  0  0
 10  5  1  0  0  0
  1  2  1  0  0  0
 12 14  1  0  0  0
M  END
> <minimizedAffinity>
-7.63561

> <CNNscore>
0.3825739026

> <CNNaffinity>
5.7335371971

> <CNN_VS>
2.1935017109

> <CNNaffinity_variance>
0.0230481289

$$$$
[H]Oc1nc(N([H])c2c([H])c(OC([H])([H])[H])c([H])c([H])c2OC([H])([H])[H])c([H])c2c([H])c([H])c([H])c([H])c12


 24 26  0  0  0  0  0  0  0  0999 V2000
  158.8489  141.3040  183.0533 N   0  0  0  0  0  0  0  0  0  0  0  0
  159.4444  140.7175  182.3568 H   0  0  0  0  0  0  0  0  0  0  0  0
  157.6032  140.7605  183.3551 C   0  0  0  0  0  0  0  0  0  0  0  0
  157.4549  139.9961  184.5122 C   0  0  0  0  0  0  0  0  0  0  0  0
  156.2371  139.4353  184.8544 C   0  0  0  0  0  0  0  0  0  0  0  0
  156.0805  138.6773  185.9977 C   0  0  0  0  0  0  0  0  0  0  0  0
  154.8491  138.1411  186.2940 C   0  0  0  0  0  0  0  0  0  0  0  0
  153.7819  138.3474  185.4758 C   0  0  0  0  0  0  0  0  0  0  0  0
  153.9329  139.1001  184.3383 C   0  0  0  0  0  0  0  0  0  0  0  0
  155.1551  139.6379  184.0353 C   0  0  0  0  0  0  0  0  0  0  0  0
  155.3177  140.3958  182.8950 C   0  0  0  0  0  0  0  0  0  0  0  0
  154.2300  140.6044  182.0636 O   0  0  0  0  0  0  0  0  0  0  0  0
  156.5217  140.9083  182.6238 N   0  0  0  0  0  0  0  0  0  0  0  0
  153.7185  141.4644  182.1930 H   0  0  0  0  0  0  0  0  0  0  0  0
  160.8954  143.7447  185.0329 C   0  0  0  0  0  0  0  0  0  0  0  0
  160.6678  144.8662  184.2791 C   0  0  0  0  0  0  0  0  0  0  0  0
  159.8707  144.8369  183.1551 C   0  0  0  0  0  0  0  0  0  0  0  0
  159.2741  143.6495  182.7601 C   0  0  0  0  0  0  0  0  0  0  0  0
  159.4719  142.4776  183.4910 C   0  0  0  0  0  0  0  0  0  0  0  0
  160.2794  142.5602  184.6095 C   0  0  0  0  0  0  0  0  0  0  0  0
  162.4385  142.7040  186.6398 C   0  0  0  0  0  0  0  0  0  0  0  0
  161.7014  143.7851  186.1655 O   0  0  0  0  0  0  0  0  0  0  0  0
  158.4694  143.5872  181.6381 O   0  0  0  0  0  0  0  0  0  0  0  0
  159.0679  143.6195  180.3468 C   0  0  0  0  0  0  0  0  0  0  0  0
 21 22  1  0  0  0
 22 15  1  0  0  0
 15 16  2  0  0  0
 16 17  1  0  0  0
 17 18  2  0  0  0
 18 23  1  0  0  0
 23 24  1  0  0  0
 18 19  1  0  0  0
 19  1  1  0  0  0
  1  3  1  0  0  0
  3  4  2  0  0  0
  4  5  1  0  0  0
  5  6  2  0  0  0
  6  7  1  0  0  0
  7  8  2  0  0  0
  8  9  1  0  0  0
  9 10  2  0  0  0
 10 11  1  0  0  0
 11 12  1  0  0  0
 11 13  2  0  0  0
 19 20  2  0  0  0
 20 15  1  0  0  0
 13  3  1  0  0  0
 10  5  1  0  0  0
  1  2  1  0  0  0
 12 14  1  0  0  0
M  END
> <minimizedAffinity>
-8.13106

> <CNNscore>
0.3799282014

> <CNNaffinity>
6.0053439140

> <CNN_VS>
2.2815995216

> <CNNaffinity_variance>
0.1140927523

$$$$
[H]Oc1nc(N([H])c2c([H])c(OC([H])([H])[H])c([H])c([H])c2OC([H])([H])[H])c([H])c2c([H])c([H])c([H])c([H])c12


 24 26  0  0  0  0  0  0  0  0999 V2000
  155.1667  138.3361  185.1947 N   0  0  0  0  0  0  0  0  0  0  0  0
  155.2868  137.3994  184.6543 H   0  0  0  0  0  0  0  0  0  0  0  0
  155.2960  139.4801  184.4120 C   0  0  0  0  0  0  0  0  0  0  0  0
  156.5199  140.1479  184.3772 C   0  0  0  0  0  0  0  0  0  0  0  0
  156.6972  141.2888  183.6146 C   0  0  0  0  0  0  0  0  0  0  0  0
  157.9049  141.9565  183.5737 C   0  0  0  0  0  0  0  0  0  0  0  0
  158.0306  143.0867  182.8000 C   0  0  0  0  0  0  0  0  0  0  0  0
  156.9806  143.5564  182.0733 C   0  0  0  0  0  0  0  0  0  0  0  0
  155.7783  142.8959  182.1109 C   0  0  0  0  0  0  0  0  0  0  0  0
  155.6440  141.7700  182.8784 C   0  0  0  0  0  0  0  0  0  0  0  0
  154.4404  141.0987  182.9232 C   0  0  0  0  0  0  0  0  0  0  0  0
  153.3730  141.5787  182.1828 O   0  0  0  0  0  0  0  0  0  0  0  0
  154.3375  140.0027  183.6808 N   0  0  0  0  0  0  0  0  0  0  0  0
  153.2236  141.1588  181.2776 H   0  0  0  0  0  0  0  0  0  0  0  0
  155.6084  137.9531  188.8989 C   0  0  0  0  0  0  0  0  0  0  0  0
  154.2887  137.8655  189.2577 C   0  0  0  0  0  0  0  0  0  0  0  0
  153.2763  137.9285  188.3246 C   0  0  0  0  0  0  0  0  0  0  0  0
  153.5815  138.0847  186.9813 C   0  0  0  0  0  0  0  0  0  0  0  0
  154.9084  138.1792  186.5606 C   0  0  0  0  0  0  0  0  0  0  0  0
  155.8858  138.1104  187.5352 C   0  0  0  0  0  0  0  0  0  0  0  0
  156.4266  137.5273  191.1783 C   0  0  0  0  0  0  0  0  0  0  0  0
  156.6223  137.8884  189.8486 O   0  0  0  0  0  0  0  0  0  0  0  0
  152.5893  138.1514  186.0213 O   0  0  0  0  0  0  0  0  0  0  0  0
  151.6273  137.1054  185.9373 C   0  0  0  0  0  0  0  0  0  0  0  0
 21 22  1  0  0  0
 22 15  1  0  0  0
 15 16  2  0  0  0
 16 17  1  0  0  0
 17 18  2  0  0  0
 18 23  1  0  0  0
 23 24  1  0  0  0
 18 19  1  0  0  0
 19  1  1  0  0  0
  1  3  1  0  0  0
  3  4  2  0  0  0
  4  5  1  0  0  0
  5  6  2  0  0  0
  6  7  1  0  0  0
  7  8  2  0  0  0
  8  9  1  0  0  0
  9 10  2  0  0  0
 10 11  1  0  0  0
 11 12  1  0  0  0
 11 13  2  0  0  0
 19 20  2  0  0  0
 20 15  1  0  0  0
 13  3  1  0  0  0
 10  5  1  0  0  0
  1  2  1  0  0  0
 12 14  1  0  0  0
M  END
> <minimizedAffinity>
-6.56276

> <CNNscore>
0.3776723742

> <CNNaffinity>
5.1106467247

> <CNN_VS>
1.9301500320

> <CNNaffinity_variance>
0.0455466732

$$$$
[H]Oc1c([H])c2c(c([H])c1O[H])[C@]1([H])c3c(sc(Cl)c3[H])C([H])([H])N([H])[C@@]1([H])C([H])([H])C2([H])[H]


 23 26  0  0  0  0  0  0  0  0999 V2000
  154.5774  134.6987  184.2865 O   0  0  0  0  0  0  0  0  0  0  0  0
  153.2545  135.0393  184.4977 C   0  0  0  0  0  0  0  0  0  0  0  0
  152.4209  134.0818  185.0507 C   0  0  0  0  0  0  0  0  0  0  0  0
  151.1188  134.4020  185.2635 C   0  0  0  0  0  0  0  0  0  0  0  0
  150.6319  135.6769  184.9278 C   0  0  0  0  0  0  0  0  0  0  0  0
  151.4638  136.6112  184.3848 C   0  0  0  0  0  0  0  0  0  0  0  0
  152.8097  136.2942  184.1600 C   0  0  0  0  0  0  0  0  0  0  0  0
  153.6991  137.2023  183.6110 O   0  0  0  0  0  0  0  0  0  0  0  0
  149.1948  135.8270  185.2317 C   0  0  0  0  0  0  0  0  0  0  0  0
  148.5572  137.0801  184.7665 C   0  0  0  0  0  0  0  0  0  0  0  0
  148.6735  137.6267  183.5188 C   0  0  0  0  0  0  0  0  0  0  0  0
  148.0027  138.7840  183.2862 C   0  0  0  0  0  0  0  0  0  0  0  0
  147.9532  139.7242  181.7999 Cl  0  0  0  0  0  0  0  0  0  0  0  0
  147.2295  139.1004  184.7700 S   0  0  0  0  0  0  0  0  0  0  0  0
  147.7735  137.7582  185.6517 C   0  0  0  0  0  0  0  0  0  0  0  0
  147.5045  137.3053  187.0521 C   0  0  0  0  0  0  0  0  0  0  0  0
  147.6812  135.8572  187.0851 N   0  0  0  0  0  0  0  0  0  0  0  0
  149.0423  135.5911  186.6868 C   0  0  0  0  0  0  0  0  0  0  0  0
  149.4618  134.1761  187.0417 C   0  0  0  0  0  0  0  0  0  0  0  0
  150.1337  133.4623  185.8783 C   0  0  0  0  0  0  0  0  0  0  0  0
  154.9378  133.7852  184.5231 H   0  0  0  0  0  0  0  0  0  0  0  0
  153.4591  138.1308  183.3388 H   0  0  0  0  0  0  0  0  0  0  0  0
  147.4467  135.5299  188.0360 H   0  0  0  0  0  0  0  0  0  0  0  0
  1  2  1  0  0  0
  2  3  2  0  0  0
  3  4  1  0  0  0
  4  5  2  0  0  0
  5  6  1  0  0  0
  6  7  2  0  0  0
  7  8  1  0  0  0
  5  9  1  0  0  0
  9 10  1  0  0  0
 10 11  1  0  0  0
 11 12  2  0  0  0
 12 13  1  0  0  0
 12 14  1  0  0  0
 14 15  1  0  0  0
 15 16  1  0  0  0
 16 17  1  0  0  0
 17 18  1  0  0  0
 18 19  1  0  0  0
 19 20  1  0  0  0
  7  2  1  0  0  0
 18  9  1  0  0  0
 20  4  1  0  0  0
 15 10  2  0  0  0
  1 21  1  0  0  0
  8 22  1  0  0  0
 17 23  1  0  0  0
M  END
> <minimizedAffinity>
-3.12276

> <CNNscore>
0.7073354125

> <CNNaffinity>
5.1663269997

> <CNN_VS>
3.6543259621

> <CNNaffinity_variance>
1.0029380322

$$$$
[H]Oc1c([H])c2c(c([H])c1O[H])[C@]1([H])c3c(sc(Cl)c3[H])C([H])([H])N([H])[C@@]1([H])C([H])([H])C2([H])[H]


 23 26  0  0  0  0  0  0  0  0999 V2000
  156.5788  132.8277  179.9265 O   0  0  0  0  0  0  0  0  0  0  0  0
  156.2996  132.9065  181.2780 C   0  0  0  0  0  0  0  0  0  0  0  0
  155.1448  133.5674  181.6619 C   0  0  0  0  0  0  0  0  0  0  0  0
  154.8578  133.6530  182.9861 C   0  0  0  0  0  0  0  0  0  0  0  0
  155.7161  133.0835  183.9421 C   0  0  0  0  0  0  0  0  0  0  0  0
  156.8497  132.4343  183.5505 C   0  0  0  0  0  0  0  0  0  0  0  0
  157.1579  132.3384  182.1874 C   0  0  0  0  0  0  0  0  0  0  0  0
  158.2949  131.6922  181.7324 O   0  0  0  0  0  0  0  0  0  0  0  0
  155.2326  133.2863  185.3225 C   0  0  0  0  0  0  0  0  0  0  0  0
  156.1501  132.8605  186.4041 C   0  0  0  0  0  0  0  0  0  0  0  0
  157.4823  133.1550  186.4912 C   0  0  0  0  0  0  0  0  0  0  0  0
  158.1524  132.6738  187.5696 C   0  0  0  0  0  0  0  0  0  0  0  0
  159.8552  132.8772  187.9628 Cl  0  0  0  0  0  0  0  0  0  0  0  0
  156.9540  131.8331  188.4394 S   0  0  0  0  0  0  0  0  0  0  0  0
  155.6304  132.1109  187.4168 C   0  0  0  0  0  0  0  0  0  0  0  0
  154.1920  131.7102  187.5109 C   0  0  0  0  0  0  0  0  0  0  0  0
  153.4147  132.6909  186.7603 N   0  0  0  0  0  0  0  0  0  0  0  0
  153.8942  132.6546  185.3999 C   0  0  0  0  0  0  0  0  0  0  0  0
  152.9289  133.3385  184.4488 C   0  0  0  0  0  0  0  0  0  0  0  0
  153.6291  134.3163  183.5170 C   0  0  0  0  0  0  0  0  0  0  0  0
  155.9695  133.2341  179.2309 H   0  0  0  0  0  0  0  0  0  0  0  0
  158.9680  131.2545  182.3234 H   0  0  0  0  0  0  0  0  0  0  0  0
  152.4156  132.4510  186.8635 H   0  0  0  0  0  0  0  0  0  0  0  0
  1  2  1  0  0  0
  2  3  2  0  0  0
  3  4  1  0  0  0
  4  5  2  0  0  0
  5  6  1  0  0  0
  6  7  2  0  0  0
  7  8  1  0  0  0
  5  9  1  0  0  0
  9 10  1  0  0  0
 10 11  1  0  0  0
 11 12  2  0  0  0
 12 13  1  0  0  0
 12 14  1  0  0  0
 14 15  1  0  0  0
 15 16  1  0  0  0
 16 17  1  0  0  0
 17 18  1  0  0  0
 18 19  1  0  0  0
 19 20  1  0  0  0
  7  2  1  0  0  0
 18  9  1  0  0  0
 20  4  1  0  0  0
 15 10  2  0  0  0
  1 21  1  0  0  0
  8 22  1  0  0  0
 17 23  1  0  0  0
M  END
> <minimizedAffinity>
-3.59717

> <CNNscore>
0.6422063708

> <CNNaffinity>
4.8390951157

> <CNN_VS>
3.1076977253

> <CNNaffinity_variance>
0.7951548696

$$$$
[H]Oc1c([H])c2c(c([H])c1O[H])[C@]1([H])c3c(sc(Cl)c3[H])C([H])([H])N([H])[C@@]1([H])C([H])([H])C2([H])[H]


 23 26  0  0  0  0  0  0  0  0999 V2000
  152.8219  137.9126  185.5470 O   0  0  0  0  0  0  0  0  0  0  0  0
  153.7075  137.5116  186.5297 C   0  0  0  0  0  0  0  0  0  0  0  0
  153.8253  138.3070  187.6572 C   0  0  0  0  0  0  0  0  0  0  0  0
  154.6915  137.9259  188.6306 C   0  0  0  0  0  0  0  0  0  0  0  0
  155.4500  136.7508  188.4929 C   0  0  0  0  0  0  0  0  0  0  0  0
  155.3236  135.9758  187.3780 C   0  0  0  0  0  0  0  0  0  0  0  0
  154.4334  136.3572  186.3658 C   0  0  0  0  0  0  0  0  0  0  0  0
  154.2647  135.6099  185.2123 O   0  0  0  0  0  0  0  0  0  0  0  0
  156.3322  136.5128  189.6528 C   0  0  0  0  0  0  0  0  0  0  0  0
  157.2844  135.3855  189.5275 C   0  0  0  0  0  0  0  0  0  0  0  0
  158.0974  135.1344  188.4574 C   0  0  0  0  0  0  0  0  0  0  0  0
  158.9074  134.0478  188.5383 C   0  0  0  0  0  0  0  0  0  0  0  0
  160.0549  133.4639  187.3392 Cl  0  0  0  0  0  0  0  0  0  0  0  0
  158.5442  133.3943  190.0682 S   0  0  0  0  0  0  0  0  0  0  0  0
  157.3740  134.5135  190.5712 C   0  0  0  0  0  0  0  0  0  0  0  0
  156.5863  134.6366  191.8371 C   0  0  0  0  0  0  0  0  0  0  0  0
  156.2324  136.0432  191.9972 N   0  0  0  0  0  0  0  0  0  0  0  0
  155.4525  136.4141  190.8413 C   0  0  0  0  0  0  0  0  0  0  0  0
  154.7116  137.7203  191.0629 C   0  0  0  0  0  0  0  0  0  0  0  0
  154.8830  138.6876  189.9013 C   0  0  0  0  0  0  0  0  0  0  0  0
  152.2726  138.7556  185.6351 H   0  0  0  0  0  0  0  0  0  0  0  0
  154.7508  134.7622  185.0149 H   0  0  0  0  0  0  0  0  0  0  0  0
  155.7330  136.1452  192.8953 H   0  0  0  0  0  0  0  0  0  0  0  0
  1  2  1  0  0  0
  2  3  2  0  0  0
  3  4  1  0  0  0
  4  5  2  0  0  0
  5  6  1  0  0  0
  6  7  2  0  0  0
  7  8  1  0  0  0
  5  9  1  0  0  0
  9 10  1  0  0  0
 10 11  1  0  0  0
 11 12  2  0  0  0
 12 13  1  0  0  0
 12 14  1  0  0  0
 14 15  1  0  0  0
 15 16  1  0  0  0
 16 17  1  0  0  0
 17 18  1  0  0  0
 18 19  1  0  0  0
 19 20  1  0  0  0
  7  2  1  0  0  0
 18  9  1  0  0  0
 20  4  1  0  0  0
 15 10  2  0  0  0
  1 21  1  0  0  0
  8 22  1  0  0  0
 17 23  1  0  0  0
M  END
> <minimizedAffinity>
-5.78150

> <CNNscore>
0.5909855366

> <CNNaffinity>
5.1861467361

> <CNN_VS>
3.0649378300

> <CNNaffinity_variance>
0.1159396768

$$$$
[H]Oc1c([H])c2c(c([H])c1O[H])[C@]1([H])c3c(sc(Cl)c3[H])C([H])([H])N([H])[C@@]1([H])C([H])([H])C2([H])[H]


 23 26  0  0  0  0  0  0  0  0999 V2000
  156.6137  132.6029  182.8699 O   0  0  0  0  0  0  0  0  0  0  0  0
  155.5129  133.3429  183.2591 C   0  0  0  0  0  0  0  0  0  0  0  0
  154.8192  134.0336  182.2796 C   0  0  0  0  0  0  0  0  0  0  0  0
  153.7361  134.7650  182.6472 C   0  0  0  0  0  0  0  0  0  0  0  0
  153.3320  134.8179  183.9921 C   0  0  0  0  0  0  0  0  0  0  0  0
  154.0232  134.1320  184.9468 C   0  0  0  0  0  0  0  0  0  0  0  0
  155.1427  133.3732  184.5815 C   0  0  0  0  0  0  0  0  0  0  0  0
  155.8824  132.6577  185.5078 O   0  0  0  0  0  0  0  0  0  0  0  0
  152.1391  135.6662  184.1871 C   0  0  0  0  0  0  0  0  0  0  0  0
  151.7347  135.9102  185.5906 C   0  0  0  0  0  0  0  0  0  0  0  0
  152.5610  136.2903  186.6113 C   0  0  0  0  0  0  0  0  0  0  0  0
  151.9934  136.4697  187.8316 C   0  0  0  0  0  0  0  0  0  0  0  0
  152.7811  136.9510  189.3294 Cl  0  0  0  0  0  0  0  0  0  0  0  0
  150.3495  136.1179  187.5610 S   0  0  0  0  0  0  0  0  0  0  0  0
  150.4185  135.7517  185.9069 C   0  0  0  0  0  0  0  0  0  0  0  0
  149.3597  135.3663  184.9225 C   0  0  0  0  0  0  0  0  0  0  0  0
  149.8218  135.7759  183.6004 N   0  0  0  0  0  0  0  0  0  0  0  0
  151.0619  135.0805  183.3548 C   0  0  0  0  0  0  0  0  0  0  0  0
  151.4442  135.1214  181.8863 C   0  0  0  0  0  0  0  0  0  0  0  0
  152.8951  135.5282  181.6768 C   0  0  0  0  0  0  0  0  0  0  0  0
  156.9135  132.5585  181.9064 H   0  0  0  0  0  0  0  0  0  0  0  0
  155.6826  132.6259  186.4840 H   0  0  0  0  0  0  0  0  0  0  0  0
  149.0740  135.5605  182.9214 H   0  0  0  0  0  0  0  0  0  0  0  0
  1  2  1  0  0  0
  2  3  2  0  0  0
  3  4  1  0  0  0
  4  5  2  0  0  0
  5  6  1  0  0  0
  6  7  2  0  0  0
  7  8  1  0  0  0
  5  9  1  0  0  0
  9 10  1  0  0  0
 10 11  1  0  0  0
 11 12  2  0  0  0
 12 13  1  0  0  0
 12 14  1  0  0  0
 14 15  1  0  0  0
 15 16  1  0  0  0
 16 17  1  0  0  0
 17 18  1  0  0  0
 18 19  1  0  0  0
 19 20  1  0  0  0
  7  2  1  0  0  0
 18  9  1  0  0  0
 20  4  1  0  0  0
 15 10  2  0  0  0
  1 21  1  0  0  0
  8 22  1  0  0  0
 17 23  1  0  0  0
M  END
> <minimizedAffinity>
-3.06263

> <CNNscore>
0.5699910522

> <CNNaffinity>
4.8479886055

> <CNN_VS>
2.7633101940

> <CNNaffinity_variance>
1.0220024586

$$$$
[H]Oc1c([H])c2c(c([H])c1O[H])[C@]1([H])c3c(sc(Cl)c3[H])C([H])([H])N([H])[C@@]1([H])C([H])([H])C2([H])[H]


 23 26  0  0  0  0  0  0  0  0999 V2000
  156.6200  132.5517  182.9951 O   0  0  0  0  0  0  0  0  0  0  0  0
  156.0322  133.0752  184.1314 C   0  0  0  0  0  0  0  0  0  0  0  0
  155.0393  134.0263  183.9659 C   0  0  0  0  0  0  0  0  0  0  0  0
  154.4532  134.5497  185.0730 C   0  0  0  0  0  0  0  0  0  0  0  0
  154.8486  134.1337  186.3558 C   0  0  0  0  0  0  0  0  0  0  0  0
  155.8269  133.1954  186.5049 C   0  0  0  0  0  0  0  0  0  0  0  0
  156.4400  132.6469  185.3711 C   0  0  0  0  0  0  0  0  0  0  0  0
  157.4387  131.6921  185.4623 O   0  0  0  0  0  0  0  0  0  0  0  0
  154.0971  134.8206  187.4253 C   0  0  0  0  0  0  0  0  0  0  0  0
  154.5536  134.5650  188.8107 C   0  0  0  0  0  0  0  0  0  0  0  0
  155.8461  134.6136  189.2536 C   0  0  0  0  0  0  0  0  0  0  0  0
  156.0589  134.3521  190.5689 C   0  0  0  0  0  0  0  0  0  0  0  0
  157.5914  134.3349  191.4329 Cl  0  0  0  0  0  0  0  0  0  0  0  0
  154.4957  134.0473  191.1714 S   0  0  0  0  0  0  0  0  0  0  0  0
  153.6075  134.2586  189.7427 C   0  0  0  0  0  0  0  0  0  0  0  0
  152.1410  134.1838  189.4561 C   0  0  0  0  0  0  0  0  0  0  0  0
  151.8782  135.0299  188.2966 N   0  0  0  0  0  0  0  0  0  0  0  0
  152.6656  134.5056  187.2071 C   0  0  0  0  0  0  0  0  0  0  0  0
  152.2004  135.0504  185.8688 C   0  0  0  0  0  0  0  0  0  0  0  0
  153.3544  135.5602  185.0184 C   0  0  0  0  0  0  0  0  0  0  0  0
  156.3443  132.8440  182.0684 H   0  0  0  0  0  0  0  0  0  0  0  0
  157.7923  131.3278  186.3203 H   0  0  0  0  0  0  0  0  0  0  0  0
  150.8601  135.0251  188.1237 H   0  0  0  0  0  0  0  0  0  0  0  0
  1  2  1  0  0  0
  2  3  2  0  0  0
  3  4  1  0  0  0
  4  5  2  0  0  0
  5  6  1  0  0  0
  6  7  2  0  0  0
  7  8  1  0  0  0
  5  9  1  0  0  0
  9 10  1  0  0  0
 10 11  1  0  0  0
 11 12  2  0  0  0
 12 13  1  0  0  0
 12 14  1  0  0  0
 14 15  1  0  0  0
 15 16  1  0  0  0
 16 17  1  0  0  0
 17 18  1  0  0  0
 18 19  1  0  0  0
 19 20  1  0  0  0
  7  2  1  0  0  0
 18  9  1  0  0  0
 20  4  1  0  0  0
 15 10  2  0  0  0
  1 21  1  0  0  0
  8 22  1  0  0  0
 17 23  1  0  0  0
M  END
> <minimizedAffinity>
-2.82987

> <CNNscore>
0.5620052218

> <CNNaffinity>
4.9893236160

> <CNN_VS>
2.8040258884

> <CNNaffinity_variance>
1.4102697372

$$$$
[H]Oc1c([H])c2c(c([H])c1O[H])[C@]1([H])c3c(sc(Cl)c3[H])C([H])([H])N([H])[C@@]1([H])C([H])([H])C2([H])[H]


 23 26  0  0  0  0  0  0  0  0999 V2000
  154.0286  136.0349  186.7479 O   0  0  0  0  0  0  0  0  0  0  0  0
  152.7853  136.3519  186.2337 C   0  0  0  0  0  0  0  0  0  0  0  0
  151.6689  135.8999  186.9169 C   0  0  0  0  0  0  0  0  0  0  0  0
  150.4410  136.2032  186.4233 C   0  0  0  0  0  0  0  0  0  0  0  0
  150.3105  136.9582  185.2452 C   0  0  0  0  0  0  0  0  0  0  0  0
  151.4182  137.3983  184.5826 C   0  0  0  0  0  0  0  0  0  0  0  0
  152.6913  137.0926  185.0808 C   0  0  0  0  0  0  0  0  0  0  0  0
  153.8501  137.5121  184.4497 O   0  0  0  0  0  0  0  0  0  0  0  0
  148.8987  137.1777  184.8724 C   0  0  0  0  0  0  0  0  0  0  0  0
  148.6633  137.8258  183.5618 C   0  0  0  0  0  0  0  0  0  0  0  0
  149.2514  137.4809  182.3768 C   0  0  0  0  0  0  0  0  0  0  0  0
  148.8967  138.1974  181.2794 C   0  0  0  0  0  0  0  0  0  0  0  0
  149.4716  138.0005  179.6283 Cl  0  0  0  0  0  0  0  0  0  0  0  0
  147.7713  139.3222  181.8858 S   0  0  0  0  0  0  0  0  0  0  0  0
  147.7753  138.8587  183.5167 C   0  0  0  0  0  0  0  0  0  0  0  0
  147.0136  139.3625  184.7018 C   0  0  0  0  0  0  0  0  0  0  0  0
  146.9172  138.2650  185.6586 N   0  0  0  0  0  0  0  0  0  0  0  0
  148.2668  137.8917  186.0069 C   0  0  0  0  0  0  0  0  0  0  0  0
  148.3040  137.0354  187.2598 C   0  0  0  0  0  0  0  0  0  0  0  0
  149.1670  135.7943  187.0875 C   0  0  0  0  0  0  0  0  0  0  0  0
  154.1341  135.4923  187.5933 H   0  0  0  0  0  0  0  0  0  0  0  0
  153.8708  138.0517  183.6116 H   0  0  0  0  0  0  0  0  0  0  0  0
  146.3480  138.5885  186.4573 H   0  0  0  0  0  0  0  0  0  0  0  0
  1  2  1  0  0  0
  2  3  2  0  0  0
  3  4  1  0  0  0
  4  5  2  0  0  0
  5  6  1  0  0  0
  6  7  2  0  0  0
  7  8  1  0  0  0
  5  9  1  0  0  0
  9 10  1  0  0  0
 10 11  1  0  0  0
 11 12  2  0  0  0
 12 13  1  0  0  0
 12 14  1  0  0  0
 14 15  1  0  0  0
 15 16  1  0  0  0
 16 17  1  0  0  0
 17 18  1  0  0  0
 18 19  1  0  0  0
 19 20  1  0  0  0
  7  2  1  0  0  0
 18  9  1  0  0  0
 20  4  1  0  0  0
 15 10  2  0  0  0
  1 21  1  0  0  0
  8 22  1  0  0  0
 17 23  1  0  0  0
M  END
> <minimizedAffinity>
-4.30131

> <CNNscore>
0.5375051498

> <CNNaffinity>
5.1803436279

> <CNN_VS>
2.7844612598

> <CNNaffinity_variance>
0.6264495850

$$$$
[H]Oc1c([H])c2c(c([H])c1O[H])[C@]1([H])c3c(sc(Cl)c3[H])C([H])([H])N([H])[C@@]1([H])C([H])([H])C2([H])[H]


 23 26  0  0  0  0  0  0  0  0999 V2000
  153.5061  134.1013  183.9043 O   0  0  0  0  0  0  0  0  0  0  0  0
  152.3330  134.8181  183.7612 C   0  0  0  0  0  0  0  0  0  0  0  0
  151.3541  134.6553  184.7272 C   0  0  0  0  0  0  0  0  0  0  0  0
  150.1963  135.3528  184.5996 C   0  0  0  0  0  0  0  0  0  0  0  0
  149.9994  136.2184  183.5101 C   0  0  0  0  0  0  0  0  0  0  0  0
  150.9720  136.3706  182.5663 C   0  0  0  0  0  0  0  0  0  0  0  0
  152.1716  135.6571  182.6858 C   0  0  0  0  0  0  0  0  0  0  0  0
  153.1929  135.7716  181.7577 O   0  0  0  0  0  0  0  0  0  0  0  0
  148.6796  136.8793  183.5495 C   0  0  0  0  0  0  0  0  0  0  0  0
  148.3187  137.6866  182.3616 C   0  0  0  0  0  0  0  0  0  0  0  0
  148.4352  137.2947  181.0571 C   0  0  0  0  0  0  0  0  0  0  0  0
  148.0430  138.1826  180.1077 C   0  0  0  0  0  0  0  0  0  0  0  0
  148.0700  137.9784  178.3604 Cl  0  0  0  0  0  0  0  0  0  0  0  0
  147.5245  139.5287  181.0124 S   0  0  0  0  0  0  0  0  0  0  0  0
  147.8161  138.9356  182.5738 C   0  0  0  0  0  0  0  0  0  0  0  0
  147.5903  139.5300  183.9281 C   0  0  0  0  0  0  0  0  0  0  0  0
  147.4153  138.4264  184.8666 N   0  0  0  0  0  0  0  0  0  0  0  0
  148.6241  137.6400  184.8202 C   0  0  0  0  0  0  0  0  0  0  0  0
  148.7242  136.6987  186.0068 C   0  0  0  0  0  0  0  0  0  0  0  0
  149.0819  135.2794  185.5916 C   0  0  0  0  0  0  0  0  0  0  0  0
  153.6580  133.4757  184.6827 H   0  0  0  0  0  0  0  0  0  0  0  0
  153.1572  136.3561  180.9509 H   0  0  0  0  0  0  0  0  0  0  0  0
  147.2072  138.8283  185.7948 H   0  0  0  0  0  0  0  0  0  0  0  0
  1  2  1  0  0  0
  2  3  2  0  0  0
  3  4  1  0  0  0
  4  5  2  0  0  0
  5  6  1  0  0  0
  6  7  2  0  0  0
  7  8  1  0  0  0
  5  9  1  0  0  0
  9 10  1  0  0  0
 10 11  1  0  0  0
 11 12  2  0  0  0
 12 13  1  0  0  0
 12 14  1  0  0  0
 14 15  1  0  0  0
 15 16  1  0  0  0
 16 17  1  0  0  0
 17 18  1  0  0  0
 18 19  1  0  0  0
 19 20  1  0  0  0
  7  2  1  0  0  0
 18  9  1  0  0  0
 20  4  1  0  0  0
 15 10  2  0  0  0
  1 21  1  0  0  0
  8 22  1  0  0  0
 17 23  1  0  0  0
M  END
> <minimizedAffinity>
-3.21579

> <CNNscore>
0.4943322837

> <CNNaffinity>
4.9643669128

> <CNN_VS>
2.4540467262

> <CNNaffinity_variance>
0.5730865598

$$$$
[H]Oc1c([H])c2c(c([H])c1O[H])[C@]1([H])c3c(sc(Cl)c3[H])C([H])([H])N([H])[C@@]1([H])C([H])([H])C2([H])[H]


 23 26  0  0  0  0  0  0  0  0999 V2000
  155.3141  136.7962  186.7532 O   0  0  0  0  0  0  0  0  0  0  0  0
  154.1496  136.5759  187.4646 C   0  0  0  0  0  0  0  0  0  0  0  0
  152.9480  136.8843  186.8492 C   0  0  0  0  0  0  0  0  0  0  0  0
  151.7960  136.6735  187.5360 C   0  0  0  0  0  0  0  0  0  0  0  0
  151.8268  136.1550  188.8418 C   0  0  0  0  0  0  0  0  0  0  0  0
  153.0169  135.8544  189.4360 C   0  0  0  0  0  0  0  0  0  0  0  0
  154.2131  136.0667  188.7387 C   0  0  0  0  0  0  0  0  0  0  0  0
  155.4497  135.7806  189.2921 O   0  0  0  0  0  0  0  0  0  0  0  0
  150.4755  136.0027  189.4174 C   0  0  0  0  0  0  0  0  0  0  0  0
  150.4148  135.6137  190.8450 C   0  0  0  0  0  0  0  0  0  0  0  0
  151.1287  136.1801  191.8642 C   0  0  0  0  0  0  0  0  0  0  0  0
  150.9263  135.6828  193.1113 C   0  0  0  0  0  0  0  0  0  0  0  0
  151.6863  136.1923  194.6141 Cl  0  0  0  0  0  0  0  0  0  0  0  0
  149.7693  134.4575  192.8676 S   0  0  0  0  0  0  0  0  0  0  0  0
  149.5678  134.6033  191.1904 C   0  0  0  0  0  0  0  0  0  0  0  0
  148.6860  133.8800  190.2221 C   0  0  0  0  0  0  0  0  0  0  0  0
  148.4465  134.7756  189.0952 N   0  0  0  0  0  0  0  0  0  0  0  0
  149.7345  135.0832  188.5222 C   0  0  0  0  0  0  0  0  0  0  0  0
  149.5995  135.6866  187.1358 C   0  0  0  0  0  0  0  0  0  0  0  0
  150.4415  136.9423  186.9663 C   0  0  0  0  0  0  0  0  0  0  0  0
  155.3038  137.1693  185.8146 H   0  0  0  0  0  0  0  0  0  0  0  0
  155.5843  135.4100  190.2077 H   0  0  0  0  0  0  0  0  0  0  0  0
  147.7964  134.3035  188.4465 H   0  0  0  0  0  0  0  0  0  0  0  0
  1  2  1  0  0  0
  2  3  2  0  0  0
  3  4  1  0  0  0
  4  5  2  0  0  0
  5  6  1  0  0  0
  6  7  2  0  0  0
  7  8  1  0  0  0
  5  9  1  0  0  0
  9 10  1  0  0  0
 10 11  1  0  0  0
 11 12  2  0  0  0
 12 13  1  0  0  0
 12 14  1  0  0  0
 14 15  1  0  0  0
 15 16  1  0  0  0
 16 17  1  0  0  0
 17 18  1  0  0  0
 18 19  1  0  0  0
 19 20  1  0  0  0
  7  2  1  0  0  0
 18  9  1  0  0  0
 20  4  1  0  0  0
 15 10  2  0  0  0
  1 21  1  0  0  0
  8 22  1  0  0  0
 17 23  1  0  0  0
M  END
> <minimizedAffinity>
-3.97166

> <CNNscore>
0.4516737461

> <CNNaffinity>
5.0006837845

> <CNN_VS>
2.2586774826

> <CNNaffinity_variance>
0.8003877401

$$$$
[H]Oc1c([H])c2c(c([H])c1O[H])[C@]1([H])c3c(sc(Cl)c3[H])C([H])([H])N([H])[C@@]1([H])C([H])([H])C2([H])[H]


 23 26  0  0  0  0  0  0  0  0999 V2000
  153.0770  140.2705  180.1336 O   0  0  0  0  0  0  0  0  0  0  0  0
  151.9449  139.5868  180.5355 C   0  0  0  0  0  0  0  0  0  0  0  0
  150.9274  139.4212  179.6109 C   0  0  0  0  0  0  0  0  0  0  0  0
  149.8092  138.7520  179.9916 C   0  0  0  0  0  0  0  0  0  0  0  0
  149.6906  138.2415  181.2956 C   0  0  0  0  0  0  0  0  0  0  0  0
  150.7005  138.4105  182.1962 C   0  0  0  0  0  0  0  0  0  0  0  0
  151.8600  139.0988  181.8167 C   0  0  0  0  0  0  0  0  0  0  0  0
  152.9163  139.3008  182.6890 O   0  0  0  0  0  0  0  0  0  0  0  0
  148.4032  137.5520  181.5136 C   0  0  0  0  0  0  0  0  0  0  0  0
  148.1215  137.1204  182.9020 C   0  0  0  0  0  0  0  0  0  0  0  0
  148.2630  137.8850  184.0264 C   0  0  0  0  0  0  0  0  0  0  0  0
  147.9458  137.3047  185.2122 C   0  0  0  0  0  0  0  0  0  0  0  0
  148.0218  138.0181  186.8187 Cl  0  0  0  0  0  0  0  0  0  0  0  0
  147.4619  135.7335  184.7690 S   0  0  0  0  0  0  0  0  0  0  0  0
  147.6722  135.8475  183.0904 C   0  0  0  0  0  0  0  0  0  0  0  0
  147.4296  134.8710  181.9831 C   0  0  0  0  0  0  0  0  0  0  0  0
  147.1706  135.6402  180.7705 N   0  0  0  0  0  0  0  0  0  0  0  0
  148.3414  136.4476  180.5273 C   0  0  0  0  0  0  0  0  0  0  0  0
  148.3565  136.9982  179.1127 C   0  0  0  0  0  0  0  0  0  0  0  0
  148.6598  138.4885  179.0746 C   0  0  0  0  0  0  0  0  0  0  0  0
  153.1726  140.6424  179.1994 H   0  0  0  0  0  0  0  0  0  0  0  0
  152.9357  138.9806  183.6328 H   0  0  0  0  0  0  0  0  0  0  0  0
  146.9508  134.9742  180.0124 H   0  0  0  0  0  0  0  0  0  0  0  0
  1  2  1  0  0  0
  2  3  2  0  0  0
  3  4  1  0  0  0
  4  5  2  0  0  0
  5  6  1  0  0  0
  6  7  2  0  0  0
  7  8  1  0  0  0
  5  9  1  0  0  0
  9 10  1  0  0  0
 10 11  1  0  0  0
 11 12  2  0  0  0
 12 13  1  0  0  0
 12 14  1  0  0  0
 14 15  1  0  0  0
 15 16  1  0  0  0
 16 17  1  0  0  0
 17 18  1  0  0  0
 18 19  1  0  0  0
 19 20  1  0  0  0
  7  2  1  0  0  0
 18  9  1  0  0  0
 20  4  1  0  0  0
 15 10  2  0  0  0
  1 21  1  0  0  0
  8 22  1  0  0  0
 17 23  1  0  0  0
M  END
> <minimizedAffinity>
-5.29500

> <CNNscore>
0.4421814382

> <CNNaffinity>
4.8823995590

> <CNN_VS>
2.1589064598

> <CNNaffinity_variance>
0.0701335073

$$$$
[H]c1c(-c2c([H])c([H])c([H])c(C([H])([H])n3nc(-c4c([H])c(F)c([H])c(F)c4[H])c([H])c([H])c3=O)c2[H])nnc(C([H])([H])[H])c1[H]


 29 32  0  0  0  0  0  0  0  0999 V2000
  154.5149  140.0936  183.5792 N   0  0  0  0  0  0  0  0  0  0  0  0
  153.5600  139.9692  182.6619 N   0  0  0  0  0  0  0  0  0  0  0  0
  152.8399  138.8478  182.4622 C   0  0  0  0  0  0  0  0  0  0  0  0
  153.1065  137.7527  183.2591 C   0  0  0  0  0  0  0  0  0  0  0  0
  154.0925  137.8419  184.2247 C   0  0  0  0  0  0  0  0  0  0  0  0
  154.7892  139.0399  184.3637 C   0  0  0  0  0  0  0  0  0  0  0  0
  155.6868  139.1837  185.2119 O   0  0  0  0  0  0  0  0  0  0  0  0
  151.8067  138.8207  181.4184 C   0  0  0  0  0  0  0  0  0  0  0  0
  150.8129  137.8869  181.3369 C   0  0  0  0  0  0  0  0  0  0  0  0
  149.8609  137.9175  180.3186 C   0  0  0  0  0  0  0  0  0  0  0  0
  148.8908  136.9868  180.2586 F   0  0  0  0  0  0  0  0  0  0  0  0
  149.8893  138.8963  179.3532 C   0  0  0  0  0  0  0  0  0  0  0  0
  150.8877  139.8424  179.4270 C   0  0  0  0  0  0  0  0  0  0  0  0
  150.9187  140.8068  178.4789 F   0  0  0  0  0  0  0  0  0  0  0  0
  151.8224  139.7995  180.4398 C   0  0  0  0  0  0  0  0  0  0  0  0
  155.1813  141.3554  183.6665 C   0  0  0  0  0  0  0  0  0  0  0  0
  158.9070  141.7425  183.8722 C   0  0  0  0  0  0  0  0  0  0  0  0
  159.2086  141.4873  182.5446 C   0  0  0  0  0  0  0  0  0  0  0  0
  158.2570  141.2004  181.6013 C   0  0  0  0  0  0  0  0  0  0  0  0
  156.9358  141.1588  181.9682 C   0  0  0  0  0  0  0  0  0  0  0  0
  156.5794  141.4022  183.2650 C   0  0  0  0  0  0  0  0  0  0  0  0
  157.5624  141.6865  184.1825 C   0  0  0  0  0  0  0  0  0  0  0  0
  163.3199  142.8628  187.3007 C   0  0  0  0  0  0  0  0  0  0  0  0
  162.1179  142.5744  186.4396 C   0  0  0  0  0  0  0  0  0  0  0  0
  160.8451  142.5991  186.9642 C   0  0  0  0  0  0  0  0  0  0  0  0
  159.7446  142.3283  186.1469 C   0  0  0  0  0  0  0  0  0  0  0  0
  159.9639  142.0403  184.8219 C   0  0  0  0  0  0  0  0  0  0  0  0
  161.2282  142.0346  184.3826 N   0  0  0  0  0  0  0  0  0  0  0  0
  162.2695  142.2890  185.1486 N   0  0  0  0  0  0  0  0  0  0  0  0
 23 24  1  0  0  0
 24 25  2  0  0  0
 25 26  1  0  0  0
 26 27  2  0  0  0
 27 17  1  0  0  0
 17 18  2  0  0  0
 18 19  1  0  0  0
 19 20  2  0  0  0
 20 21  1  0  0  0
 21 16  1  0  0  0
 16  1  1  0  0  0
  1  2  1  0  0  0
  2  3  2  0  0  0
  3  8  1  0  0  0
  8  9  2  0  0  0
  9 10  1  0  0  0
 10 11  1  0  0  0
 10 12  2  0  0  0
 12 13  1  0  0  0
 13 14  1  0  0  0
 13 15  2  0  0  0
  3  4  1  0  0  0
  4  5  2  0  0  0
  5  6  1  0  0  0
  6  7  2  0  0  0
 21 22  2  0  0  0
 27 28  1  0  0  0
 28 29  2  0  0  0
 29 24  1  0  0  0
 22 17  1  0  0  0
  6  1  1  0  0  0
 15  8  1  0  0  0
M  END
> <minimizedAffinity>
-10.57191

> <CNNscore>
0.8029346466

> <CNNaffinity>
6.6647863388

> <CNN_VS>
5.3513879776

> <CNNaffinity_variance>
0.0484007820

$$$$
[H]c1c(-c2c([H])c([H])c([H])c(C([H])([H])n3nc(-c4c([H])c(F)c([H])c(F)c4[H])c([H])c([H])c3=O)c2[H])nnc(C([H])([H])[H])c1[H]


 29 32  0  0  0  0  0  0  0  0999 V2000
  154.5302  138.2002  185.1558 N   0  0  0  0  0  0  0  0  0  0  0  0
  155.0026  138.1066  186.3955 N   0  0  0  0  0  0  0  0  0  0  0  0
  154.2531  137.8021  187.4731 C   0  0  0  0  0  0  0  0  0  0  0  0
  152.9053  137.5713  187.2843 C   0  0  0  0  0  0  0  0  0  0  0  0
  152.3753  137.6592  186.0099 C   0  0  0  0  0  0  0  0  0  0  0  0
  153.2222  137.9796  184.9516 C   0  0  0  0  0  0  0  0  0  0  0  0
  152.8074  138.0746  183.7834 O   0  0  0  0  0  0  0  0  0  0  0  0
  154.8799  137.7251  188.7994 C   0  0  0  0  0  0  0  0  0  0  0  0
  155.7125  136.7208  189.2050 C   0  0  0  0  0  0  0  0  0  0  0  0
  156.2760  136.7069  190.4804 C   0  0  0  0  0  0  0  0  0  0  0  0
  157.0937  135.7070  190.8579 F   0  0  0  0  0  0  0  0  0  0  0  0
  156.0113  137.7113  191.3815 C   0  0  0  0  0  0  0  0  0  0  0  0
  155.1727  138.7283  190.9816 C   0  0  0  0  0  0  0  0  0  0  0  0
  154.9101  139.7181  191.8655 F   0  0  0  0  0  0  0  0  0  0  0  0
  154.6228  138.7289  189.7171 C   0  0  0  0  0  0  0  0  0  0  0  0
  155.4610  138.5265  184.1211 C   0  0  0  0  0  0  0  0  0  0  0  0
  157.7413  141.4712  184.5712 C   0  0  0  0  0  0  0  0  0  0  0  0
  156.9307  142.4408  184.0042 C   0  0  0  0  0  0  0  0  0  0  0  0
  155.6885  142.1734  183.4911 C   0  0  0  0  0  0  0  0  0  0  0  0
  155.2052  140.8902  183.5308 C   0  0  0  0  0  0  0  0  0  0  0  0
  155.9616  139.8925  184.0785 C   0  0  0  0  0  0  0  0  0  0  0  0
  157.2026  140.1995  184.5831 C   0  0  0  0  0  0  0  0  0  0  0  0
  162.7021  142.8776  186.9993 C   0  0  0  0  0  0  0  0  0  0  0  0
  161.4182  142.5020  186.3065 C   0  0  0  0  0  0  0  0  0  0  0  0
  161.3874  142.2526  184.9527 C   0  0  0  0  0  0  0  0  0  0  0  0
  160.1851  141.9057  184.3309 C   0  0  0  0  0  0  0  0  0  0  0  0
  159.0483  141.8213  185.0972 C   0  0  0  0  0  0  0  0  0  0  0  0
  159.1545  142.0775  186.4066 N   0  0  0  0  0  0  0  0  0  0  0  0
  160.2854  142.4050  186.9981 N   0  0  0  0  0  0  0  0  0  0  0  0
 23 24  1  0  0  0
 24 25  2  0  0  0
 25 26  1  0  0  0
 26 27  2  0  0  0
 27 17  1  0  0  0
 17 18  2  0  0  0
 18 19  1  0  0  0
 19 20  2  0  0  0
 20 21  1  0  0  0
 21 16  1  0  0  0
 16  1  1  0  0  0
  1  2  1  0  0  0
  2  3  2  0  0  0
  3  8  1  0  0  0
  8  9  2  0  0  0
  9 10  1  0  0  0
 10 11  1  0  0  0
 10 12  2  0  0  0
 12 13  1  0  0  0
 13 14  1  0  0  0
 13 15  2  0  0  0
  3  4  1  0  0  0
  4  5  2  0  0  0
  5  6  1  0  0  0
  6  7  2  0  0  0
 21 22  2  0  0  0
 27 28  1  0  0  0
 28 29  2  0  0  0
 29 24  1  0  0  0
 22 17  1  0  0  0
  6  1  1  0  0  0
 15  8  1  0  0  0
M  END
> <minimizedAffinity>
-9.91784

> <CNNscore>
0.7112209797

> <CNNaffinity>
6.6880521774

> <CNN_VS>
4.7566828728

> <CNNaffinity_variance>
0.0647042841

$$$$
[H]c1c(-c2c([H])c([H])c([H])c(C([H])([H])n3nc(-c4c([H])c(F)c([H])c(F)c4[H])c([H])c([H])c3=O)c2[H])nnc(C([H])([H])[H])c1[H]


 29 32  0  0  0  0  0  0  0  0999 V2000
  154.4661  140.5041  183.3861 N   0  0  0  0  0  0  0  0  0  0  0  0
  154.6218  139.9560  184.5878 N   0  0  0  0  0  0  0  0  0  0  0  0
  154.0132  138.8232  184.9906 C   0  0  0  0  0  0  0  0  0  0  0  0
  153.1713  138.1852  184.1020 C   0  0  0  0  0  0  0  0  0  0  0  0
  152.9828  138.7238  182.8422 C   0  0  0  0  0  0  0  0  0  0  0  0
  153.6515  139.8989  182.5078 C   0  0  0  0  0  0  0  0  0  0  0  0
  153.5238  140.4333  181.3926 O   0  0  0  0  0  0  0  0  0  0  0  0
  154.2577  138.3054  186.3434 C   0  0  0  0  0  0  0  0  0  0  0  0
  155.4958  138.0658  186.8686 C   0  0  0  0  0  0  0  0  0  0  0  0
  155.6596  137.5728  188.1626 C   0  0  0  0  0  0  0  0  0  0  0  0
  156.8894  137.3445  188.6589 F   0  0  0  0  0  0  0  0  0  0  0  0
  154.5721  137.3083  188.9615 C   0  0  0  0  0  0  0  0  0  0  0  0
  153.3194  137.5467  188.4406 C   0  0  0  0  0  0  0  0  0  0  0  0
  152.2472  137.2877  189.2237 F   0  0  0  0  0  0  0  0  0  0  0  0
  153.1728  138.0344  187.1592 C   0  0  0  0  0  0  0  0  0  0  0  0
  155.1901  141.7064  183.1138 C   0  0  0  0  0  0  0  0  0  0  0  0
  158.9009  141.7625  183.6618 C   0  0  0  0  0  0  0  0  0  0  0  0
  159.2961  141.3523  182.3992 C   0  0  0  0  0  0  0  0  0  0  0  0
  158.4113  141.0650  181.3930 C   0  0  0  0  0  0  0  0  0  0  0  0
  157.0646  141.1826  181.6261 C   0  0  0  0  0  0  0  0  0  0  0  0
  156.6168  141.5833  182.8537 C   0  0  0  0  0  0  0  0  0  0  0  0
  157.5347  141.8627  183.8377 C   0  0  0  0  0  0  0  0  0  0  0  0
  163.0683  142.8642  187.3903 C   0  0  0  0  0  0  0  0  0  0  0  0
  161.9283  142.5784  186.4479 C   0  0  0  0  0  0  0  0  0  0  0  0
  160.6257  142.5569  186.8935 C   0  0  0  0  0  0  0  0  0  0  0  0
  159.5839  142.2895  186.0015 C   0  0  0  0  0  0  0  0  0  0  0  0
  159.8904  142.0515  184.6840 C   0  0  0  0  0  0  0  0  0  0  0  0
  161.1788  142.0888  184.3235 N   0  0  0  0  0  0  0  0  0  0  0  0
  162.1651  142.3404  185.1601 N   0  0  0  0  0  0  0  0  0  0  0  0
 23 24  1  0  0  0
 24 25  2  0  0  0
 25 26  1  0  0  0
 26 27  2  0  0  0
 27 17  1  0  0  0
 17 18  2  0  0  0
 18 19  1  0  0  0
 19 20  2  0  0  0
 20 21  1  0  0  0
 21 16  1  0  0  0
 16  1  1  0  0  0
  1  2  1  0  0  0
  2  3  2  0  0  0
  3  8  1  0  0  0
  8  9  2  0  0  0
  9 10  1  0  0  0
 10 11  1  0  0  0
 10 12  2  0  0  0
 12 13  1  0  0  0
 13 14  1  0  0  0
 13 15  2  0  0  0
  3  4  1  0  0  0
  4  5  2  0  0  0
  5  6  1  0  0  0
  6  7  2  0  0  0
 21 22  2  0  0  0
 27 28  1  0  0  0
 28 29  2  0  0  0
 29 24  1  0  0  0
 22 17  1  0  0  0
  6  1  1  0  0  0
 15  8  1  0  0  0
M  END
> <minimizedAffinity>
-10.19322

> <CNNscore>
0.6738793254

> <CNNaffinity>
6.8578767776

> <CNN_VS>
4.6213812828

> <CNNaffinity_variance>
0.0333380140

$$$$
[H]c1c(-c2c([H])c([H])c([H])c(C([H])([H])n3nc(-c4c([H])c(F)c([H])c(F)c4[H])c([H])c([H])c3=O)c2[H])nnc(C([H])([H])[H])c1[H]


 29 32  0  0  0  0  0  0  0  0999 V2000
  154.4266  140.4464  183.4563 N   0  0  0  0  0  0  0  0  0  0  0  0
  154.5305  139.9191  184.6728 N   0  0  0  0  0  0  0  0  0  0  0  0
  153.9058  138.7925  185.0683 C   0  0  0  0  0  0  0  0  0  0  0  0
  153.1037  138.1382  184.1550 C   0  0  0  0  0  0  0  0  0  0  0  0
  152.9696  138.6548  182.8792 C   0  0  0  0  0  0  0  0  0  0  0  0
  153.6513  139.8251  182.5540 C   0  0  0  0  0  0  0  0  0  0  0  0
  153.5717  140.3401  181.4253 O   0  0  0  0  0  0  0  0  0  0  0  0
  154.0918  138.2982  186.4390 C   0  0  0  0  0  0  0  0  0  0  0  0
  153.0742  138.0338  187.3114 C   0  0  0  0  0  0  0  0  0  0  0  0
  153.3188  137.5654  188.6017 C   0  0  0  0  0  0  0  0  0  0  0  0
  152.3003  137.3117  189.4437 F   0  0  0  0  0  0  0  0  0  0  0  0
  154.6029  137.3517  189.0448 C   0  0  0  0  0  0  0  0  0  0  0  0
  155.6357  137.6156  188.1724 C   0  0  0  0  0  0  0  0  0  0  0  0
  156.9002  137.4065  188.6049 F   0  0  0  0  0  0  0  0  0  0  0  0
  155.3786  138.0784  186.8992 C   0  0  0  0  0  0  0  0  0  0  0  0
  155.1608  141.6449  183.1951 C   0  0  0  0  0  0  0  0  0  0  0  0
  158.8761  141.7026  183.7112 C   0  0  0  0  0  0  0  0  0  0  0  0
  159.2597  141.2615  182.4554 C   0  0  0  0  0  0  0  0  0  0  0  0
  158.3659  140.9531  181.4636 C   0  0  0  0  0  0  0  0  0  0  0  0
  157.0214  141.0804  181.7049 C   0  0  0  0  0  0  0  0  0  0  0  0
  156.5849  141.5113  182.9262 C   0  0  0  0  0  0  0  0  0  0  0  0
  157.5118  141.8111  183.8958 C   0  0  0  0  0  0  0  0  0  0  0  0
  163.0772  142.8805  187.3781 C   0  0  0  0  0  0  0  0  0  0  0  0
  161.9287  142.5755  186.4521 C   0  0  0  0  0  0  0  0  0  0  0  0
  160.6301  142.5656  186.9095 C   0  0  0  0  0  0  0  0  0  0  0  0
  159.5802  142.2800  186.0327 C   0  0  0  0  0  0  0  0  0  0  0  0
  159.8749  142.0127  184.7181 C   0  0  0  0  0  0  0  0  0  0  0  0
  161.1602  142.0404  184.3456 N   0  0  0  0  0  0  0  0  0  0  0  0
  162.1540  142.3090  185.1679 N   0  0  0  0  0  0  0  0  0  0  0  0
 23 24  1  0  0  0
 24 25  2  0  0  0
 25 26  1  0  0  0
 26 27  2  0  0  0
 27 17  1  0  0  0
 17 18  2  0  0  0
 18 19  1  0  0  0
 19 20  2  0  0  0
 20 21  1  0  0  0
 21 16  1  0  0  0
 16  1  1  0  0  0
  1  2  1  0  0  0
  2  3  2  0  0  0
  3  8  1  0  0  0
  8  9  2  0  0  0
  9 10  1  0  0  0
 10 11  1  0  0  0
 10 12  2  0  0  0
 12 13  1  0  0  0
 13 14  1  0  0  0
 13 15  2  0  0  0
  3  4  1  0  0  0
  4  5  2  0  0  0
  5  6  1  0  0  0
  6  7  2  0  0  0
 21 22  2  0  0  0
 27 28  1  0  0  0
 28 29  2  0  0  0
 29 24  1  0  0  0
 22 17  1  0  0  0
  6  1  1  0  0  0
 15  8  1  0  0  0
M  END
> <minimizedAffinity>
-10.17515

> <CNNscore>
0.6450250149

> <CNNaffinity>
6.8226575851

> <CNN_VS>
4.4007849693

> <CNNaffinity_variance>
0.0377804525

$$$$
[H]c1c(-c2c([H])c([H])c([H])c(C([H])([H])n3nc(-c4c([H])c(F)c([H])c(F)c4[H])c([H])c([H])c3=O)c2[H])nnc(C([H])([H])[H])c1[H]


 29 32  0  0  0  0  0  0  0  0999 V2000
  156.3701  141.6794  183.1723 N   0  0  0  0  0  0  0  0  0  0  0  0
  157.4492  141.8533  183.9300 N   0  0  0  0  0  0  0  0  0  0  0  0
  158.6987  142.0050  183.4489 C   0  0  0  0  0  0  0  0  0  0  0  0
  158.8769  141.9787  182.0803 C   0  0  0  0  0  0  0  0  0  0  0  0
  157.7794  141.7997  181.2580 C   0  0  0  0  0  0  0  0  0  0  0  0
  156.5225  141.6508  181.8392 C   0  0  0  0  0  0  0  0  0  0  0  0
  155.4974  141.4860  181.1554 O   0  0  0  0  0  0  0  0  0  0  0  0
  159.8207  142.1911  184.3786 C   0  0  0  0  0  0  0  0  0  0  0  0
  159.6876  142.5433  185.6919 C   0  0  0  0  0  0  0  0  0  0  0  0
  160.7956  142.7043  186.5228 C   0  0  0  0  0  0  0  0  0  0  0  0
  160.6401  143.0516  187.8136 F   0  0  0  0  0  0  0  0  0  0  0  0
  162.0711  142.5128  186.0459 C   0  0  0  0  0  0  0  0  0  0  0  0
  162.2153  142.1575  184.7229 C   0  0  0  0  0  0  0  0  0  0  0  0
  163.4687  141.9683  184.2502 F   0  0  0  0  0  0  0  0  0  0  0  0
  161.1104  142.0019  183.9129 C   0  0  0  0  0  0  0  0  0  0  0  0
  155.1140  141.5403  183.8405 C   0  0  0  0  0  0  0  0  0  0  0  0
  152.7000  138.9633  182.5734 C   0  0  0  0  0  0  0  0  0  0  0  0
  153.0907  137.9084  183.3815 C   0  0  0  0  0  0  0  0  0  0  0  0
  154.0942  138.0063  184.3095 C   0  0  0  0  0  0  0  0  0  0  0  0
  154.7570  139.1977  184.4618 C   0  0  0  0  0  0  0  0  0  0  0  0
  154.4140  140.2730  183.6911 C   0  0  0  0  0  0  0  0  0  0  0  0
  153.4021  140.1361  182.7711 C   0  0  0  0  0  0  0  0  0  0  0  0
  148.7249  138.4811  178.5177 C   0  0  0  0  0  0  0  0  0  0  0  0
  149.7399  138.5814  179.6264 C   0  0  0  0  0  0  0  0  0  0  0  0
  149.4769  138.0739  180.8790 C   0  0  0  0  0  0  0  0  0  0  0  0
  150.4332  138.1781  181.8926 C   0  0  0  0  0  0  0  0  0  0  0  0
  151.6283  138.7929  181.6092 C   0  0  0  0  0  0  0  0  0  0  0  0
  151.8133  139.2621  180.3694 N   0  0  0  0  0  0  0  0  0  0  0  0
  150.9153  139.1667  179.4100 N   0  0  0  0  0  0  0  0  0  0  0  0
 23 24  1  0  0  0
 24 25  2  0  0  0
 25 26  1  0  0  0
 26 27  2  0  0  0
 27 17  1  0  0  0
 17 18  2  0  0  0
 18 19  1  0  0  0
 19 20  2  0  0  0
 20 21  1  0  0  0
 21 16  1  0  0  0
 16  1  1  0  0  0
  1  2  1  0  0  0
  2  3  2  0  0  0
  3  8  1  0  0  0
  8  9  2  0  0  0
  9 10  1  0  0  0
 10 11  1  0  0  0
 10 12  2  0  0  0
 12 13  1  0  0  0
 13 14  1  0  0  0
 13 15  2  0  0  0
  3  4  1  0  0  0
  4  5  2  0  0  0
  5  6  1  0  0  0
  6  7  2  0  0  0
 21 22  2  0  0  0
 27 28  1  0  0  0
 28 29  2  0  0  0
 29 24  1  0  0  0
 22 17  1  0  0  0
  6  1  1  0  0  0
 15  8  1  0  0  0
M  END
> <minimizedAffinity>
-10.16521

> <CNNscore>
0.6362236738

> <CNNaffinity>
6.5766091347

> <CNN_VS>
4.1841945648

> <CNNaffinity_variance>
0.0630610213

$$$$
[H]c1c(-c2c([H])c([H])c([H])c(C([H])([H])n3nc(-c4c([H])c(F)c([H])c(F)c4[H])c([H])c([H])c3=O)c2[H])nnc(C([H])([H])[H])c1[H]


 29 32  0  0  0  0  0  0  0  0999 V2000
  153.7351  137.9485  185.1670 N   0  0  0  0  0  0  0  0  0  0  0  0
  154.3617  137.9787  186.3398 N   0  0  0  0  0  0  0  0  0  0  0  0
  153.7840  137.6713  187.5177 C   0  0  0  0  0  0  0  0  0  0  0  0
  152.4545  137.3000  187.5135 C   0  0  0  0  0  0  0  0  0  0  0  0
  151.7676  137.2564  186.3139 C   0  0  0  0  0  0  0  0  0  0  0  0
  152.4420  137.5902  185.1419 C   0  0  0  0  0  0  0  0  0  0  0  0
  151.8810  137.5713  184.0326 O   0  0  0  0  0  0  0  0  0  0  0  0
  154.5718  137.7385  188.7558 C   0  0  0  0  0  0  0  0  0  0  0  0
  154.4096  138.6864  189.7262 C   0  0  0  0  0  0  0  0  0  0  0  0
  155.1918  138.6941  190.8804 C   0  0  0  0  0  0  0  0  0  0  0  0
  155.0140  139.6380  191.8230 F   0  0  0  0  0  0  0  0  0  0  0  0
  156.1615  137.7405  191.0840 C   0  0  0  0  0  0  0  0  0  0  0  0
  156.3324  136.7806  190.1110 C   0  0  0  0  0  0  0  0  0  0  0  0
  157.2854  135.8409  190.3080 F   0  0  0  0  0  0  0  0  0  0  0  0
  155.5514  136.7854  188.9747 C   0  0  0  0  0  0  0  0  0  0  0  0
  154.4947  138.2977  184.0074 C   0  0  0  0  0  0  0  0  0  0  0  0
  156.8838  141.1863  184.1545 C   0  0  0  0  0  0  0  0  0  0  0  0
  156.0059  142.1915  183.7838 C   0  0  0  0  0  0  0  0  0  0  0  0
  154.6858  141.9650  183.4944 C   0  0  0  0  0  0  0  0  0  0  0  0
  154.1890  140.6885  183.5693 C   0  0  0  0  0  0  0  0  0  0  0  0
  155.0097  139.6568  183.9298 C   0  0  0  0  0  0  0  0  0  0  0  0
  156.3280  139.9233  184.2127 C   0  0  0  0  0  0  0  0  0  0  0  0
  162.4162  142.3217  184.9199 C   0  0  0  0  0  0  0  0  0  0  0  0
  160.9450  142.0327  184.7738 C   0  0  0  0  0  0  0  0  0  0  0  0
  160.0917  142.1267  185.8503 C   0  0  0  0  0  0  0  0  0  0  0  0
  158.7304  141.8540  185.6917 C   0  0  0  0  0  0  0  0  0  0  0  0
  158.2719  141.4940  184.4481 C   0  0  0  0  0  0  0  0  0  0  0  0
  159.1596  141.4234  183.4489 N   0  0  0  0  0  0  0  0  0  0  0  0
  160.4440  141.6793  183.5927 N   0  0  0  0  0  0  0  0  0  0  0  0
 23 24  1  0  0  0
 24 25  2  0  0  0
 25 26  1  0  0  0
 26 27  2  0  0  0
 27 17  1  0  0  0
 17 18  2  0  0  0
 18 19  1  0  0  0
 19 20  2  0  0  0
 20 21  1  0  0  0
 21 16  1  0  0  0
 16  1  1  0  0  0
  1  2  1  0  0  0
  2  3  2  0  0  0
  3  8  1  0  0  0
  8  9  2  0  0  0
  9 10  1  0  0  0
 10 11  1  0  0  0
 10 12  2  0  0  0
 12 13  1  0  0  0
 13 14  1  0  0  0
 13 15  2  0  0  0
  3  4  1  0  0  0
  4  5  2  0  0  0
  5  6  1  0  0  0
  6  7  2  0  0  0
 21 22  2  0  0  0
 27 28  1  0  0  0
 28 29  2  0  0  0
 29 24  1  0  0  0
 22 17  1  0  0  0
  6  1  1  0  0  0
 15  8  1  0  0  0
M  END
> <minimizedAffinity>
-9.80650

> <CNNscore>
0.6187273860

> <CNNaffinity>
6.4438581467

> <CNN_VS>
3.9869914055

> <CNNaffinity_variance>
0.0948897153

$$$$
[H]c1c(-c2c([H])c([H])c([H])c(C([H])([H])n3nc(-c4c([H])c(F)c([H])c(F)c4[H])c([H])c([H])c3=O)c2[H])nnc(C([H])([H])[H])c1[H]


 29 32  0  0  0  0  0  0  0  0999 V2000
  155.5970  141.6032  182.1370 N   0  0  0  0  0  0  0  0  0  0  0  0
  154.6422  140.7601  181.7547 N   0  0  0  0  0  0  0  0  0  0  0  0
  153.3221  141.0025  181.8744 C   0  0  0  0  0  0  0  0  0  0  0  0
  152.9287  142.2034  182.4299 C   0  0  0  0  0  0  0  0  0  0  0  0
  153.8916  143.1073  182.8403 C   0  0  0  0  0  0  0  0  0  0  0  0
  155.2348  142.7760  182.6796 C   0  0  0  0  0  0  0  0  0  0  0  0
  156.1476  143.5445  183.0287 O   0  0  0  0  0  0  0  0  0  0  0  0
  152.3518  139.9985  181.4179 C   0  0  0  0  0  0  0  0  0  0  0  0
  152.0368  138.8590  182.1025 C   0  0  0  0  0  0  0  0  0  0  0  0
  151.1050  137.9445  181.6131 C   0  0  0  0  0  0  0  0  0  0  0  0
  150.8105  136.8286  182.3051 F   0  0  0  0  0  0  0  0  0  0  0  0
  150.4654  138.1593  180.4148 C   0  0  0  0  0  0  0  0  0  0  0  0
  150.7766  139.3055  179.7172 C   0  0  0  0  0  0  0  0  0  0  0  0
  150.1493  139.5200  178.5379 F   0  0  0  0  0  0  0  0  0  0  0  0
  151.7002  140.2009  180.2136 C   0  0  0  0  0  0  0  0  0  0  0  0
  156.9524  141.1963  181.9342 C   0  0  0  0  0  0  0  0  0  0  0  0
  159.7970  142.9477  183.6414 C   0  0  0  0  0  0  0  0  0  0  0  0
  159.9567  143.9913  182.7448 C   0  0  0  0  0  0  0  0  0  0  0  0
  159.1825  144.1424  181.6244 C   0  0  0  0  0  0  0  0  0  0  0  0
  158.1958  143.2271  181.3588 C   0  0  0  0  0  0  0  0  0  0  0  0
  157.9928  142.1763  182.2088 C   0  0  0  0  0  0  0  0  0  0  0  0
  158.7895  142.0585  183.3226 C   0  0  0  0  0  0  0  0  0  0  0  0
  163.4595  142.4717  187.9821 C   0  0  0  0  0  0  0  0  0  0  0  0
  162.4492  142.6081  186.8731 C   0  0  0  0  0  0  0  0  0  0  0  0
  161.1283  142.8860  187.1449 C   0  0  0  0  0  0  0  0  0  0  0  0
  160.2083  143.0081  186.1003 C   0  0  0  0  0  0  0  0  0  0  0  0
  160.6516  142.8456  184.8105 C   0  0  0  0  0  0  0  0  0  0  0  0
  161.9494  142.5772  184.6229 N   0  0  0  0  0  0  0  0  0  0  0  0
  162.8212  142.4609  185.6039 N   0  0  0  0  0  0  0  0  0  0  0  0
 23 24  1  0  0  0
 24 25  2  0  0  0
 25 26  1  0  0  0
 26 27  2  0  0  0
 27 17  1  0  0  0
 17 18  2  0  0  0
 18 19  1  0  0  0
 19 20  2  0  0  0
 20 21  1  0  0  0
 21 16  1  0  0  0
 16  1  1  0  0  0
  1  2  1  0  0  0
  2  3  2  0  0  0
  3  8  1  0  0  0
  8  9  2  0  0  0
  9 10  1  0  0  0
 10 11  1  0  0  0
 10 12  2  0  0  0
 12 13  1  0  0  0
 13 14  1  0  0  0
 13 15  2  0  0  0
  3  4  1  0  0  0
  4  5  2  0  0  0
  5  6  1  0  0  0
  6  7  2  0  0  0
 21 22  2  0  0  0
 27 28  1  0  0  0
 28 29  2  0  0  0
 29 24  1  0  0  0
 22 17  1  0  0  0
  6  1  1  0  0  0
 15  8  1  0  0  0
M  END
> <minimizedAffinity>
-9.83713

> <CNNscore>
0.5440202355

> <CNNaffinity>
6.6507539749

> <CNN_VS>
3.6181447506

> <CNNaffinity_variance>
0.0731910765

$$$$
[H]c1c(-c2c([H])c([H])c([H])c(C([H])([H])n3nc(-c4c([H])c(F)c([H])c(F)c4[H])c([H])c([H])c3=O)c2[H])nnc(C([H])([H])[H])c1[H]


 29 32  0  0  0  0  0  0  0  0999 V2000
  154.1448  138.1775  184.0264 N   0  0  0  0  0  0  0  0  0  0  0  0
  153.2709  138.5613  183.1003 N   0  0  0  0  0  0  0  0  0  0  0  0
  152.0905  137.9531  182.8712 C   0  0  0  0  0  0  0  0  0  0  0  0
  151.7611  136.8588  183.6455 C   0  0  0  0  0  0  0  0  0  0  0  0
  152.6435  136.4283  184.6194 C   0  0  0  0  0  0  0  0  0  0  0  0
  153.8430  137.1155  184.7894 C   0  0  0  0  0  0  0  0  0  0  0  0
  154.6781  136.7782  185.6464 O   0  0  0  0  0  0  0  0  0  0  0  0
  151.1994  138.4623  181.8202 C   0  0  0  0  0  0  0  0  0  0  0  0
  151.6209  139.1203  180.6996 C   0  0  0  0  0  0  0  0  0  0  0  0
  150.7216  139.5791  179.7380 C   0  0  0  0  0  0  0  0  0  0  0  0
  151.1600  140.2249  178.6417 F   0  0  0  0  0  0  0  0  0  0  0  0
  149.3683  139.3840  179.8850 C   0  0  0  0  0  0  0  0  0  0  0  0
  148.9337  138.7216  181.0118 C   0  0  0  0  0  0  0  0  0  0  0  0
  147.6031  138.5278  181.1598 F   0  0  0  0  0  0  0  0  0  0  0  0
  149.8348  138.2734  181.9544 C   0  0  0  0  0  0  0  0  0  0  0  0
  155.3507  138.9360  184.1460 C   0  0  0  0  0  0  0  0  0  0  0  0
  156.3137  142.1456  182.4595 C   0  0  0  0  0  0  0  0  0  0  0  0
  155.2570  142.9268  182.8972 C   0  0  0  0  0  0  0  0  0  0  0  0
  154.2604  142.4530  183.7096 C   0  0  0  0  0  0  0  0  0  0  0  0
  154.2914  141.1447  184.1210 C   0  0  0  0  0  0  0  0  0  0  0  0
  155.3105  140.3271  183.7199 C   0  0  0  0  0  0  0  0  0  0  0  0
  156.2920  140.8386  182.9051 C   0  0  0  0  0  0  0  0  0  0  0  0
  160.2778  144.0487  178.8336 C   0  0  0  0  0  0  0  0  0  0  0  0
  159.2404  143.5917  179.8257 C   0  0  0  0  0  0  0  0  0  0  0  0
  158.9775  144.3186  180.9651 C   0  0  0  0  0  0  0  0  0  0  0  0
  158.0108  143.8757  181.8718 C   0  0  0  0  0  0  0  0  0  0  0  0
  157.3379  142.7098  181.5991 C   0  0  0  0  0  0  0  0  0  0  0  0
  157.6467  142.0567  180.4723 N   0  0  0  0  0  0  0  0  0  0  0  0
  158.5571  142.4695  179.6141 N   0  0  0  0  0  0  0  0  0  0  0  0
 23 24  1  0  0  0
 24 25  2  0  0  0
 25 26  1  0  0  0
 26 27  2  0  0  0
 27 17  1  0  0  0
 17 18  2  0  0  0
 18 19  1  0  0  0
 19 20  2  0  0  0
 20 21  1  0  0  0
 21 16  1  0  0  0
 16  1  1  0  0  0
  1  2  1  0  0  0
  2  3  2  0  0  0
  3  8  1  0  0  0
  8  9  2  0  0  0
  9 10  1  0  0  0
 10 11  1  0  0  0
 10 12  2  0  0  0
 12 13  1  0  0  0
 13 14  1  0  0  0
 13 15  2  0  0  0
  3  4  1  0  0  0
  4  5  2  0  0  0
  5  6  1  0  0  0
  6  7  2  0  0  0
 21 22  2  0  0  0
 27 28  1  0  0  0
 28 29  2  0  0  0
 29 24  1  0  0  0
 22 17  1  0  0  0
  6  1  1  0  0  0
 15  8  1  0  0  0
M  END
> <minimizedAffinity>
-8.26463

> <CNNscore>
0.5114458203

> <CNNaffinity>
6.3450388908

> <CNN_VS>
3.2451436520

> <CNNaffinity_variance>
0.2855225503

$$$$
[H]c1c(-c2c([H])c([H])c([H])c(C([H])([H])n3nc(-c4c([H])c(F)c([H])c(F)c4[H])c([H])c([H])c3=O)c2[H])nnc(C([H])([H])[H])c1[H]


 29 32  0  0  0  0  0  0  0  0999 V2000
  153.5511  137.7795  185.0684 N   0  0  0  0  0  0  0  0  0  0  0  0
  154.1206  137.8527  186.2680 N   0  0  0  0  0  0  0  0  0  0  0  0
  153.4940  137.5629  187.4252 C   0  0  0  0  0  0  0  0  0  0  0  0
  152.1740  137.1634  187.3683 C   0  0  0  0  0  0  0  0  0  0  0  0
  151.5458  137.0748  186.1395 C   0  0  0  0  0  0  0  0  0  0  0  0
  152.2682  137.3932  184.9920 C   0  0  0  0  0  0  0  0  0  0  0  0
  151.7609  137.3344  183.8585 O   0  0  0  0  0  0  0  0  0  0  0  0
  154.2206  137.6780  188.6967 C   0  0  0  0  0  0  0  0  0  0  0  0
  155.5499  137.9740  188.8047 C   0  0  0  0  0  0  0  0  0  0  0  0
  156.1807  138.0687  190.0446 C   0  0  0  0  0  0  0  0  0  0  0  0
  157.4916  138.3617  190.1264 F   0  0  0  0  0  0  0  0  0  0  0  0
  155.4815  137.8659  191.2112 C   0  0  0  0  0  0  0  0  0  0  0  0
  154.1406  137.5668  191.1124 C   0  0  0  0  0  0  0  0  0  0  0  0
  153.4495  137.3666  192.2580 F   0  0  0  0  0  0  0  0  0  0  0  0
  153.5301  137.4765  189.8793 C   0  0  0  0  0  0  0  0  0  0  0  0
  154.3577  138.1154  183.9369 C   0  0  0  0  0  0  0  0  0  0  0  0
  156.7372  141.0138  184.0410 C   0  0  0  0  0  0  0  0  0  0  0  0
  155.8440  142.0184  183.7072 C   0  0  0  0  0  0  0  0  0  0  0  0
  154.5167  141.7886  183.4557 C   0  0  0  0  0  0  0  0  0  0  0  0
  154.0282  140.5090  183.5326 C   0  0  0  0  0  0  0  0  0  0  0  0
  154.8640  139.4777  183.8576 C   0  0  0  0  0  0  0  0  0  0  0  0
  156.1891  139.7477  184.1031 C   0  0  0  0  0  0  0  0  0  0  0  0
  162.2838  142.1752  184.6485 C   0  0  0  0  0  0  0  0  0  0  0  0
  160.8107  141.8777  184.5447 C   0  0  0  0  0  0  0  0  0  0  0  0
  159.9942  141.9342  185.6519 C   0  0  0  0  0  0  0  0  0  0  0  0
  158.6304  141.6543  185.5324 C   0  0  0  0  0  0  0  0  0  0  0  0
  158.1321  141.3252  184.2955 C   0  0  0  0  0  0  0  0  0  0  0  0
  158.9855  141.2902  183.2649 N   0  0  0  0  0  0  0  0  0  0  0  0
  160.2721  141.5531  183.3719 N   0  0  0  0  0  0  0  0  0  0  0  0
 23 24  1  0  0  0
 24 25  2  0  0  0
 25 26  1  0  0  0
 26 27  2  0  0  0
 27 17  1  0  0  0
 17 18  2  0  0  0
 18 19  1  0  0  0
 19 20  2  0  0  0
 20 21  1  0  0  0
 21 16  1  0  0  0
 16  1  1  0  0  0
  1  2  1  0  0  0
  2  3  2  0  0  0
  3  8  1  0  0  0
  8  9  2  0  0  0
  9 10  1  0  0  0
 10 11  1  0  0  0
 10 12  2  0  0  0
 12 13  1  0  0  0
 13 14  1  0  0  0
 13 15  2  0  0  0
  3  4  1  0  0  0
  4  5  2  0  0  0
  5  6  1  0  0  0
  6  7  2  0  0  0
 21 22  2  0  0  0
 27 28  1  0  0  0
 28 29  2  0  0  0
 29 24  1  0  0  0
 22 17  1  0  0  0
  6  1  1  0  0  0
 15  8  1  0  0  0
M  END
> <minimizedAffinity>
-9.55749

> <CNNscore>
0.5085820556

> <CNNaffinity>
6.2755451202

> <CNN_VS>
3.1916296482

> <CNNaffinity_variance>
0.1425901800

$$$$
[H]c1c([H])c([H])c(-c2c([H])c([H])c(C([H])([H])Sc3nnc(-c4c([H])c([H])c5c(c4[H])O[C@@]([H])(C([H])([H])OC([H])([H])[H])C([H])([H])O5)o3)c([H])c2[H])c(C#N)c1[H]


 34 38  0  0  0  0  0  0  0  0999 V2000
  155.4223  141.0337  182.5027 C   0  0  0  0  0  0  0  0  0  0  0  0
  154.5362  141.9579  182.1346 N   0  0  0  0  0  0  0  0  0  0  0  0
  153.3456  141.3995  182.1116 N   0  0  0  0  0  0  0  0  0  0  0  0
  153.4734  140.1180  182.4655 C   0  0  0  0  0  0  0  0  0  0  0  0
  154.7767  139.9398  182.6975 O   0  0  0  0  0  0  0  0  0  0  0  0
  160.6196  142.7337  185.2506 C   0  0  0  0  0  0  0  0  0  0  0  0
  161.4559  141.7798  184.4100 C   0  0  0  0  0  0  0  0  0  0  0  0
  160.9549  141.8855  183.0632 O   0  0  0  0  0  0  0  0  0  0  0  0
  159.5979  141.6725  182.8982 C   0  0  0  0  0  0  0  0  0  0  0  0
  159.0622  141.3740  181.6416 C   0  0  0  0  0  0  0  0  0  0  0  0
  157.6999  141.1740  181.5546 C   0  0  0  0  0  0  0  0  0  0  0  0
  156.8711  141.2588  182.6491 C   0  0  0  0  0  0  0  0  0  0  0  0
  157.4149  141.5504  183.8600 C   0  0  0  0  0  0  0  0  0  0  0  0
  158.7835  141.7618  184.0070 C   0  0  0  0  0  0  0  0  0  0  0  0
  159.3139  142.0577  185.2540 O   0  0  0  0  0  0  0  0  0  0  0  0
  161.0766  142.8480  186.6631 C   0  0  0  0  0  0  0  0  0  0  0  0
  163.1814  142.5053  187.6941 C   0  0  0  0  0  0  0  0  0  0  0  0
  162.3149  143.2177  186.9639 O   0  0  0  0  0  0  0  0  0  0  0  0
  152.2009  138.8923  182.6053 S   0  0  0  0  0  0  0  0  0  0  0  0
  152.7694  137.3126  183.2427 C   0  0  0  0  0  0  0  0  0  0  0  0
  153.2940  137.4006  184.6204 C   0  0  0  0  0  0  0  0  0  0  0  0
  154.5721  137.9277  184.8042 C   0  0  0  0  0  0  0  0  0  0  0  0
  155.1185  138.0126  186.0652 C   0  0  0  0  0  0  0  0  0  0  0  0
  154.4512  137.5932  187.1877 C   0  0  0  0  0  0  0  0  0  0  0  0
  153.1865  137.0719  186.9992 C   0  0  0  0  0  0  0  0  0  0  0  0
  152.6329  136.9838  185.7334 C   0  0  0  0  0  0  0  0  0  0  0  0
  154.9788  137.6708  188.5410 C   0  0  0  0  0  0  0  0  0  0  0  0
  154.5432  138.6758  189.4148 C   0  0  0  0  0  0  0  0  0  0  0  0
  155.0206  138.7559  190.7004 C   0  0  0  0  0  0  0  0  0  0  0  0
  155.9443  137.8601  191.1925 C   0  0  0  0  0  0  0  0  0  0  0  0
  156.3819  136.8678  190.3465 C   0  0  0  0  0  0  0  0  0  0  0  0
  155.8985  136.7826  189.0366 C   0  0  0  0  0  0  0  0  0  0  0  0
  156.3975  135.7358  188.1849 C   0  0  0  0  0  0  0  0  0  0  0  0
  156.7781  134.8792  187.4942 N   0  0  0  0  0  0  0  0  0  0  0  0
 17 18  1  0  0  0
 18 16  1  0  0  0
 16  6  1  0  0  0
  6  7  1  0  0  0
  7  8  1  0  0  0
  8  9  1  0  0  0
  9 10  2  0  0  0
 10 11  1  0  0  0
 11 12  2  0  0  0
 12  1  1  0  0  0
  1  2  2  0  0  0
  2  3  1  0  0  0
  3  4  2  0  0  0
  4 19  1  0  0  0
 19 20  1  0  0  0
 20 21  1  0  0  0
 21 22  2  0  0  0
 22 23  1  0  0  0
 23 24  2  0  0  0
 24 27  1  0  0  0
 27 28  2  0  0  0
 28 29  1  0  0  0
 29 30  2  0  0  0
 30 31  1  0  0  0
 31 32  2  0  0  0
 32 33  1  0  0  0
 33 34  3  0  0  0
 24 25  1  0  0  0
 25 26  2  0  0  0
  4  5  1  0  0  0
 12 13  1  0  0  0
 13 14  2  0  0  0
 14 15  1  0  0  0
 15  6  1  0  0  0
 14  9  1  0  0  0
  5  1  1  0  0  0
 26 21  1  0  0  0
 32 27  1  0  0  0
M  END
> <minimizedAffinity>
-9.02998

> <CNNscore>
0.6698417664

> <CNNaffinity>
6.9525146484

> <CNN_VS>
4.6570844650

> <CNNaffinity_variance>
0.0680611506

$$$$
[H]c1c([H])c([H])c(-c2c([H])c([H])c(C([H])([H])Sc3nnc(-c4c([H])c([H])c5c(c4[H])O[C@@]([H])(C([H])([H])OC([H])([H])[H])C([H])([H])O5)o3)c([H])c2[H])c(C#N)c1[H]


 34 38  0  0  0  0  0  0  0  0999 V2000
  155.6420  139.3676  184.5486 C   0  0  0  0  0  0  0  0  0  0  0  0
  154.5948  139.2138  183.7396 N   0  0  0  0  0  0  0  0  0  0  0  0
  153.5963  138.7321  184.4473 N   0  0  0  0  0  0  0  0  0  0  0  0
  154.0079  138.5789  185.7085 C   0  0  0  0  0  0  0  0  0  0  0  0
  155.2801  138.9856  185.7209 O   0  0  0  0  0  0  0  0  0  0  0  0
  160.7879  142.6552  184.9552 C   0  0  0  0  0  0  0  0  0  0  0  0
  161.5601  141.6814  184.0770 C   0  0  0  0  0  0  0  0  0  0  0  0
  160.6786  141.3322  182.9920 O   0  0  0  0  0  0  0  0  0  0  0  0
  159.4363  140.8391  183.3493 C   0  0  0  0  0  0  0  0  0  0  0  0
  158.6540  140.1249  182.4366 C   0  0  0  0  0  0  0  0  0  0  0  0
  157.4262  139.6640  182.8649 C   0  0  0  0  0  0  0  0  0  0  0  0
  156.9604  139.8839  184.1402 C   0  0  0  0  0  0  0  0  0  0  0  0
  157.7386  140.5808  185.0095 C   0  0  0  0  0  0  0  0  0  0  0  0
  158.9867  141.0697  184.6320 C   0  0  0  0  0  0  0  0  0  0  0  0
  159.7620  141.7780  185.5381 O   0  0  0  0  0  0  0  0  0  0  0  0
  161.5910  143.2220  186.0736 C   0  0  0  0  0  0  0  0  0  0  0  0
  163.2736  142.7226  187.6642 C   0  0  0  0  0  0  0  0  0  0  0  0
  162.1521  142.4428  186.9893 O   0  0  0  0  0  0  0  0  0  0  0  0
  153.0835  137.9676  187.0916 S   0  0  0  0  0  0  0  0  0  0  0  0
  153.8449  138.2920  188.6853 C   0  0  0  0  0  0  0  0  0  0  0  0
  154.7829  137.2311  189.1041 C   0  0  0  0  0  0  0  0  0  0  0  0
  154.6058  135.9520  188.5770 C   0  0  0  0  0  0  0  0  0  0  0  0
  155.4384  134.9207  188.9501 C   0  0  0  0  0  0  0  0  0  0  0  0
  156.4670  135.0892  189.8415 C   0  0  0  0  0  0  0  0  0  0  0  0
  156.6371  136.3576  190.3602 C   0  0  0  0  0  0  0  0  0  0  0  0
  155.8024  137.3978  189.9887 C   0  0  0  0  0  0  0  0  0  0  0  0
  157.3798  134.0368  190.2597 C   0  0  0  0  0  0  0  0  0  0  0  0
  157.1209  133.2934  191.4189 C   0  0  0  0  0  0  0  0  0  0  0  0
  157.9649  132.2870  191.8212 C   0  0  0  0  0  0  0  0  0  0  0  0
  159.0996  131.9597  191.1119 C   0  0  0  0  0  0  0  0  0  0  0  0
  159.3676  132.6807  189.9716 C   0  0  0  0  0  0  0  0  0  0  0  0
  158.5109  133.7064  189.5585 C   0  0  0  0  0  0  0  0  0  0  0  0
  158.8416  134.4420  188.3669 C   0  0  0  0  0  0  0  0  0  0  0  0
  159.1186  135.0555  187.4169 N   0  0  0  0  0  0  0  0  0  0  0  0
 17 18  1  0  0  0
 18 16  1  0  0  0
 16  6  1  0  0  0
  6  7  1  0  0  0
  7  8  1  0  0  0
  8  9  1  0  0  0
  9 10  2  0  0  0
 10 11  1  0  0  0
 11 12  2  0  0  0
 12  1  1  0  0  0
  1  2  2  0  0  0
  2  3  1  0  0  0
  3  4  2  0  0  0
  4 19  1  0  0  0
 19 20  1  0  0  0
 20 21  1  0  0  0
 21 22  2  0  0  0
 22 23  1  0  0  0
 23 24  2  0  0  0
 24 27  1  0  0  0
 27 28  2  0  0  0
 28 29  1  0  0  0
 29 30  2  0  0  0
 30 31  1  0  0  0
 31 32  2  0  0  0
 32 33  1  0  0  0
 33 34  3  0  0  0
 24 25  1  0  0  0
 25 26  2  0  0  0
  4  5  1  0  0  0
 12 13  1  0  0  0
 13 14  2  0  0  0
 14 15  1  0  0  0
 15  6  1  0  0  0
 14  9  1  0  0  0
  5  1  1  0  0  0
 26 21  1  0  0  0
 32 27  1  0  0  0
M  END
> <minimizedAffinity>
-7.98660

> <CNNscore>
0.5454975963

> <CNNaffinity>
6.5229249001

> <CNN_VS>
3.5582399368

> <CNNaffinity_variance>
0.1170803308

$$$$
[H]c1c([H])c([H])c(-c2c([H])c([H])c(C([H])([H])Sc3nnc(-c4c([H])c([H])c5c(c4[H])O[C@@]([H])(C([H])([H])OC([H])([H])[H])C([H])([H])O5)o3)c([H])c2[H])c(C#N)c1[H]


 34 38  0  0  0  0  0  0  0  0999 V2000
  154.3789  139.0927  184.8271 C   0  0  0  0  0  0  0  0  0  0  0  0
  153.6411  138.6453  183.8121 N   0  0  0  0  0  0  0  0  0  0  0  0
  153.7919  139.4709  182.7994 N   0  0  0  0  0  0  0  0  0  0  0  0
  154.6267  140.4454  183.1698 C   0  0  0  0  0  0  0  0  0  0  0  0
  154.9626  140.1673  184.4323 O   0  0  0  0  0  0  0  0  0  0  0  0
  156.3819  135.1118  189.0216 C   0  0  0  0  0  0  0  0  0  0  0  0
  156.0674  136.0594  190.1701 C   0  0  0  0  0  0  0  0  0  0  0  0
  154.7818  136.6385  189.8733 O   0  0  0  0  0  0  0  0  0  0  0  0
  154.6599  137.2550  188.6408 C   0  0  0  0  0  0  0  0  0  0  0  0
  153.6262  138.1618  188.3871 C   0  0  0  0  0  0  0  0  0  0  0  0
  153.5690  138.7372  187.1344 C   0  0  0  0  0  0  0  0  0  0  0  0
  154.4832  138.4484  186.1482 C   0  0  0  0  0  0  0  0  0  0  0  0
  155.4789  137.5637  186.4184 C   0  0  0  0  0  0  0  0  0  0  0  0
  155.5858  136.9526  187.6652 C   0  0  0  0  0  0  0  0  0  0  0  0
  156.6115  136.0533  187.9159 O   0  0  0  0  0  0  0  0  0  0  0  0
  157.6311  134.3254  189.2166 C   0  0  0  0  0  0  0  0  0  0  0  0
  159.6871  133.8447  188.1429 C   0  0  0  0  0  0  0  0  0  0  0  0
  158.7733  134.6843  188.6446 O   0  0  0  0  0  0  0  0  0  0  0  0
  155.1865  141.8263  182.2102 S   0  0  0  0  0  0  0  0  0  0  0  0
  156.7419  141.5463  181.3576 C   0  0  0  0  0  0  0  0  0  0  0  0
  157.9204  141.7484  182.2244 C   0  0  0  0  0  0  0  0  0  0  0  0
  158.4689  140.6335  182.8579 C   0  0  0  0  0  0  0  0  0  0  0  0
  159.5546  140.7683  183.6940 C   0  0  0  0  0  0  0  0  0  0  0  0
  160.1455  141.9801  183.9455 C   0  0  0  0  0  0  0  0  0  0  0  0
  159.5977  143.0802  183.3158 C   0  0  0  0  0  0  0  0  0  0  0  0
  158.5059  142.9501  182.4747 C   0  0  0  0  0  0  0  0  0  0  0  0
  161.2986  142.1744  184.8106 C   0  0  0  0  0  0  0  0  0  0  0  0
  162.5972  142.0538  184.2983 C   0  0  0  0  0  0  0  0  0  0  0  0
  163.6975  142.2472  185.0977 C   0  0  0  0  0  0  0  0  0  0  0  0
  163.5818  142.5668  186.4328 C   0  0  0  0  0  0  0  0  0  0  0  0
  162.3134  142.6885  186.9505 C   0  0  0  0  0  0  0  0  0  0  0  0
  161.1903  142.4922  186.1401 C   0  0  0  0  0  0  0  0  0  0  0  0
  159.8843  142.6160  186.7311 C   0  0  0  0  0  0  0  0  0  0  0  0
  158.8185  142.7003  187.1923 N   0  0  0  0  0  0  0  0  0  0  0  0
 17 18  1  0  0  0
 18 16  1  0  0  0
 16  6  1  0  0  0
  6  7  1  0  0  0
  7  8  1  0  0  0
  8  9  1  0  0  0
  9 10  2  0  0  0
 10 11  1  0  0  0
 11 12  2  0  0  0
 12  1  1  0  0  0
  1  2  2  0  0  0
  2  3  1  0  0  0
  3  4  2  0  0  0
  4 19  1  0  0  0
 19 20  1  0  0  0
 20 21  1  0  0  0
 21 22  2  0  0  0
 22 23  1  0  0  0
 23 24  2  0  0  0
 24 27  1  0  0  0
 27 28  2  0  0  0
 28 29  1  0  0  0
 29 30  2  0  0  0
 30 31  1  0  0  0
 31 32  2  0  0  0
 32 33  1  0  0  0
 33 34  3  0  0  0
 24 25  1  0  0  0
 25 26  2  0  0  0
  4  5  1  0  0  0
 12 13  1  0  0  0
 13 14  2  0  0  0
 14 15  1  0  0  0
 15  6  1  0  0  0
 14  9  1  0  0  0
  5  1  1  0  0  0
 26 21  1  0  0  0
 32 27  1  0  0  0
M  END
> <minimizedAffinity>
-7.85719

> <CNNscore>
0.5026468039

> <CNNaffinity>
6.8442735672

> <CNN_VS>
3.4402523041

> <CNNaffinity_variance>
0.1074858308

$$$$
[H]c1c([H])c([H])c(-c2c([H])c([H])c(C([H])([H])Sc3nnc(-c4c([H])c([H])c5c(c4[H])O[C@@]([H])(C([H])([H])OC([H])([H])[H])C([H])([H])O5)o3)c([H])c2[H])c(C#N)c1[H]


 34 38  0  0  0  0  0  0  0  0999 V2000
  155.4898  140.5668  182.9971 C   0  0  0  0  0  0  0  0  0  0  0  0
  154.5821  140.7073  182.0321 N   0  0  0  0  0  0  0  0  0  0  0  0
  153.6418  139.8068  182.2184 N   0  0  0  0  0  0  0  0  0  0  0  0
  153.9507  139.0918  183.3033 C   0  0  0  0  0  0  0  0  0  0  0  0
  155.1025  139.5999  183.7497 O   0  0  0  0  0  0  0  0  0  0  0  0
  160.2693  143.1114  185.8492 C   0  0  0  0  0  0  0  0  0  0  0  0
  161.0625  143.2339  184.5563 C   0  0  0  0  0  0  0  0  0  0  0  0
  160.1329  143.6938  183.5560 O   0  0  0  0  0  0  0  0  0  0  0  0
  158.9863  142.9368  183.3942 C   0  0  0  0  0  0  0  0  0  0  0  0
  158.2090  143.0434  182.2368 C   0  0  0  0  0  0  0  0  0  0  0  0
  157.0794  142.2565  182.1463 C   0  0  0  0  0  0  0  0  0  0  0  0
  156.7048  141.3873  183.1443 C   0  0  0  0  0  0  0  0  0  0  0  0
  157.4761  141.3012  184.2600 C   0  0  0  0  0  0  0  0  0  0  0  0
  158.6273  142.0714  184.4055 C   0  0  0  0  0  0  0  0  0  0  0  0
  159.3977  141.9647  185.5539 O   0  0  0  0  0  0  0  0  0  0  0  0
  161.1007  142.7582  187.0328 C   0  0  0  0  0  0  0  0  0  0  0  0
  163.4073  142.4023  187.4379 C   0  0  0  0  0  0  0  0  0  0  0  0
  162.3543  143.1769  187.1500 O   0  0  0  0  0  0  0  0  0  0  0  0
  153.0433  137.7486  184.0201 S   0  0  0  0  0  0  0  0  0  0  0  0
  152.3463  138.1118  185.6347 C   0  0  0  0  0  0  0  0  0  0  0  0
  153.1488  137.5643  186.7468 C   0  0  0  0  0  0  0  0  0  0  0  0
  154.5118  137.8584  186.7804 C   0  0  0  0  0  0  0  0  0  0  0  0
  155.3109  137.3559  187.7828 C   0  0  0  0  0  0  0  0  0  0  0  0
  154.8224  136.5552  188.7836 C   0  0  0  0  0  0  0  0  0  0  0  0
  153.4725  136.2672  188.7447 C   0  0  0  0  0  0  0  0  0  0  0  0
  152.6649  136.7696  187.7388 C   0  0  0  0  0  0  0  0  0  0  0  0
  155.6210  136.0085  189.8695 C   0  0  0  0  0  0  0  0  0  0  0  0
  156.1477  134.7132  189.7792 C   0  0  0  0  0  0  0  0  0  0  0  0
  156.9152  134.1860  190.7892 C   0  0  0  0  0  0  0  0  0  0  0  0
  157.2040  134.8974  191.9330 C   0  0  0  0  0  0  0  0  0  0  0  0
  156.6938  136.1705  192.0365 C   0  0  0  0  0  0  0  0  0  0  0  0
  155.9117  136.7112  191.0105 C   0  0  0  0  0  0  0  0  0  0  0  0
  155.3882  138.0417  191.1716 C   0  0  0  0  0  0  0  0  0  0  0  0
  154.9877  139.1266  191.3071 N   0  0  0  0  0  0  0  0  0  0  0  0
 17 18  1  0  0  0
 18 16  1  0  0  0
 16  6  1  0  0  0
  6  7  1  0  0  0
  7  8  1  0  0  0
  8  9  1  0  0  0
  9 10  2  0  0  0
 10 11  1  0  0  0
 11 12  2  0  0  0
 12  1  1  0  0  0
  1  2  2  0  0  0
  2  3  1  0  0  0
  3  4  2  0  0  0
  4 19  1  0  0  0
 19 20  1  0  0  0
 20 21  1  0  0  0
 21 22  2  0  0  0
 22 23  1  0  0  0
 23 24  2  0  0  0
 24 27  1  0  0  0
 27 28  2  0  0  0
 28 29  1  0  0  0
 29 30  2  0  0  0
 30 31  1  0  0  0
 31 32  2  0  0  0
 32 33  1  0  0  0
 33 34  3  0  0  0
 24 25  1  0  0  0
 25 26  2  0  0  0
  4  5  1  0  0  0
 12 13  1  0  0  0
 13 14  2  0  0  0
 14 15  1  0  0  0
 15  6  1  0  0  0
 14  9  1  0  0  0
  5  1  1  0  0  0
 26 21  1  0  0  0
 32 27  1  0  0  0
M  END
> <minimizedAffinity>
-8.03065

> <CNNscore>
0.4491977394

> <CNNaffinity>
6.5742301941

> <CNN_VS>
2.9531292915

> <CNNaffinity_variance>
0.0530861504

$$$$
[H]c1c([H])c([H])c(-c2c([H])c([H])c(C([H])([H])Sc3nnc(-c4c([H])c([H])c5c(c4[H])O[C@@]([H])(C([H])([H])OC([H])([H])[H])C([H])([H])O5)o3)c([H])c2[H])c(C#N)c1[H]


 34 38  0  0  0  0  0  0  0  0999 V2000
  155.4799  140.5938  183.0107 C   0  0  0  0  0  0  0  0  0  0  0  0
  154.5887  140.7154  182.0280 N   0  0  0  0  0  0  0  0  0  0  0  0
  153.6480  139.8149  182.2126 N   0  0  0  0  0  0  0  0  0  0  0  0
  153.9403  139.1189  183.3144 C   0  0  0  0  0  0  0  0  0  0  0  0
  155.0826  139.6380  183.7723 O   0  0  0  0  0  0  0  0  0  0  0  0
  160.2741  143.1001  185.8720 C   0  0  0  0  0  0  0  0  0  0  0  0
  161.0493  143.2659  184.5730 C   0  0  0  0  0  0  0  0  0  0  0  0
  160.1028  143.7454  183.5981 O   0  0  0  0  0  0  0  0  0  0  0  0
  158.9607  142.9830  183.4297 C   0  0  0  0  0  0  0  0  0  0  0  0
  158.1674  143.1152  182.2858 C   0  0  0  0  0  0  0  0  0  0  0  0
  157.0436  142.3210  182.1876 C   0  0  0  0  0  0  0  0  0  0  0  0
  156.6896  141.4207  183.1655 C   0  0  0  0  0  0  0  0  0  0  0  0
  157.4761  141.3102  184.2682 C   0  0  0  0  0  0  0  0  0  0  0  0
  158.6224  142.0863  184.4206 C   0  0  0  0  0  0  0  0  0  0  0  0
  159.4086  141.9543  185.5557 O   0  0  0  0  0  0  0  0  0  0  0  0
  161.1239  142.7211  187.0344 C   0  0  0  0  0  0  0  0  0  0  0  0
  163.4116  142.3891  187.5511 C   0  0  0  0  0  0  0  0  0  0  0  0
  162.3798  143.1361  187.1403 O   0  0  0  0  0  0  0  0  0  0  0  0
  153.0247  137.7845  184.0373 S   0  0  0  0  0  0  0  0  0  0  0  0
  152.9699  137.8187  185.8319 C   0  0  0  0  0  0  0  0  0  0  0  0
  154.0715  137.0603  186.4581 C   0  0  0  0  0  0  0  0  0  0  0  0
  155.0759  137.7769  187.1084 C   0  0  0  0  0  0  0  0  0  0  0  0
  156.1375  137.1212  187.6906 C   0  0  0  0  0  0  0  0  0  0  0  0
  156.2646  135.7558  187.6648 C   0  0  0  0  0  0  0  0  0  0  0  0
  155.2674  135.0519  187.0191 C   0  0  0  0  0  0  0  0  0  0  0  0
  154.1982  135.7064  186.4318 C   0  0  0  0  0  0  0  0  0  0  0  0
  157.3591  135.0154  188.2728 C   0  0  0  0  0  0  0  0  0  0  0  0
  158.5648  134.8380  187.5813 C   0  0  0  0  0  0  0  0  0  0  0  0
  159.6136  134.1532  188.1455 C   0  0  0  0  0  0  0  0  0  0  0  0
  159.5345  133.6103  189.4092 C   0  0  0  0  0  0  0  0  0  0  0  0
  158.3571  133.7758  190.1006 C   0  0  0  0  0  0  0  0  0  0  0  0
  157.2866  134.4723  189.5298 C   0  0  0  0  0  0  0  0  0  0  0  0
  156.0703  134.6064  190.2865 C   0  0  0  0  0  0  0  0  0  0  0  0
  155.0995  134.7182  190.9197 N   0  0  0  0  0  0  0  0  0  0  0  0
 17 18  1  0  0  0
 18 16  1  0  0  0
 16  6  1  0  0  0
  6  7  1  0  0  0
  7  8  1  0  0  0
  8  9  1  0  0  0
  9 10  2  0  0  0
 10 11  1  0  0  0
 11 12  2  0  0  0
 12  1  1  0  0  0
  1  2  2  0  0  0
  2  3  1  0  0  0
  3  4  2  0  0  0
  4 19  1  0  0  0
 19 20  1  0  0  0
 20 21  1  0  0  0
 21 22  2  0  0  0
 22 23  1  0  0  0
 23 24  2  0  0  0
 24 27  1  0  0  0
 27 28  2  0  0  0
 28 29  1  0  0  0
 29 30  2  0  0  0
 30 31  1  0  0  0
 31 32  2  0  0  0
 32 33  1  0  0  0
 33 34  3  0  0  0
 24 25  1  0  0  0
 25 26  2  0  0  0
  4  5  1  0  0  0
 12 13  1  0  0  0
 13 14  2  0  0  0
 14 15  1  0  0  0
 15  6  1  0  0  0
 14  9  1  0  0  0
  5  1  1  0  0  0
 26 21  1  0  0  0
 32 27  1  0  0  0
M  END
> <minimizedAffinity>
-8.37685

> <CNNscore>
0.4316649139

> <CNNaffinity>
6.5182776451

> <CNN_VS>
2.8137116432

> <CNNaffinity_variance>
0.0538167581

$$$$
[H]c1c([H])c([H])c(-c2c([H])c([H])c(C([H])([H])Sc3nnc(-c4c([H])c([H])c5c(c4[H])O[C@@]([H])(C([H])([H])OC([H])([H])[H])C([H])([H])O5)o3)c([H])c2[H])c(C#N)c1[H]


 34 38  0  0  0  0  0  0  0  0999 V2000
  153.7051  138.9206  184.7352 C   0  0  0  0  0  0  0  0  0  0  0  0
  153.1254  138.5567  183.5923 N   0  0  0  0  0  0  0  0  0  0  0  0
  153.4070  139.4632  182.6819 N   0  0  0  0  0  0  0  0  0  0  0  0
  154.1671  140.4057  183.2455 C   0  0  0  0  0  0  0  0  0  0  0  0
  154.3240  140.0253  184.5163 O   0  0  0  0  0  0  0  0  0  0  0  0
  155.6879  135.4203  189.3470 C   0  0  0  0  0  0  0  0  0  0  0  0
  154.6525  135.9835  190.3096 C   0  0  0  0  0  0  0  0  0  0  0  0
  153.4174  136.0614  189.5716 O   0  0  0  0  0  0  0  0  0  0  0  0
  153.4606  136.7663  188.3819 C   0  0  0  0  0  0  0  0  0  0  0  0
  152.2894  137.2327  187.7770 C   0  0  0  0  0  0  0  0  0  0  0  0
  152.4112  137.9281  186.5917 C   0  0  0  0  0  0  0  0  0  0  0  0
  153.6296  138.1700  186.0009 C   0  0  0  0  0  0  0  0  0  0  0  0
  154.7539  137.7066  186.6075 C   0  0  0  0  0  0  0  0  0  0  0  0
  154.6910  136.9987  187.8052 C   0  0  0  0  0  0  0  0  0  0  0  0
  155.8534  136.5365  188.4045 O   0  0  0  0  0  0  0  0  0  0  0  0
  157.0114  135.1555  189.9758 C   0  0  0  0  0  0  0  0  0  0  0  0
  158.6843  133.4836  190.1060 C   0  0  0  0  0  0  0  0  0  0  0  0
  157.8830  134.3165  189.4309 O   0  0  0  0  0  0  0  0  0  0  0  0
  154.8383  141.8622  182.4910 S   0  0  0  0  0  0  0  0  0  0  0  0
  156.4608  141.6285  181.7576 C   0  0  0  0  0  0  0  0  0  0  0  0
  157.5651  141.8975  182.7003 C   0  0  0  0  0  0  0  0  0  0  0  0
  157.8613  140.9286  183.6589 C   0  0  0  0  0  0  0  0  0  0  0  0
  158.8667  141.1372  184.5762 C   0  0  0  0  0  0  0  0  0  0  0  0
  159.6179  142.2845  184.5987 C   0  0  0  0  0  0  0  0  0  0  0  0
  159.3197  143.2401  183.6476 C   0  0  0  0  0  0  0  0  0  0  0  0
  158.3095  143.0355  182.7234 C   0  0  0  0  0  0  0  0  0  0  0  0
  160.6962  142.5488  185.5385 C   0  0  0  0  0  0  0  0  0  0  0  0
  160.4239  143.1280  186.7849 C   0  0  0  0  0  0  0  0  0  0  0  0
  161.4282  143.3722  187.6899 C   0  0  0  0  0  0  0  0  0  0  0  0
  162.7434  143.0629  187.4208 C   0  0  0  0  0  0  0  0  0  0  0  0
  163.0267  142.4940  186.2010 C   0  0  0  0  0  0  0  0  0  0  0  0
  162.0072  142.2438  185.2766 C   0  0  0  0  0  0  0  0  0  0  0  0
  162.3554  141.6607  184.0081 C   0  0  0  0  0  0  0  0  0  0  0  0
  162.6588  141.2014  182.9821 N   0  0  0  0  0  0  0  0  0  0  0  0
 17 18  1  0  0  0
 18 16  1  0  0  0
 16  6  1  0  0  0
  6  7  1  0  0  0
  7  8  1  0  0  0
  8  9  1  0  0  0
  9 10  2  0  0  0
 10 11  1  0  0  0
 11 12  2  0  0  0
 12  1  1  0  0  0
  1  2  2  0  0  0
  2  3  1  0  0  0
  3  4  2  0  0  0
  4 19  1  0  0  0
 19 20  1  0  0  0
 20 21  1  0  0  0
 21 22  2  0  0  0
 22 23  1  0  0  0
 23 24  2  0  0  0
 24 27  1  0  0  0
 27 28  2  0  0  0
 28 29  1  0  0  0
 29 30  2  0  0  0
 30 31  1  0  0  0
 31 32  2  0  0  0
 32 33  1  0  0  0
 33 34  3  0  0  0
 24 25  1  0  0  0
 25 26  2  0  0  0
  4  5  1  0  0  0
 12 13  1  0  0  0
 13 14  2  0  0  0
 14 15  1  0  0  0
 15  6  1  0  0  0
 14  9  1  0  0  0
  5  1  1  0  0  0
 26 21  1  0  0  0
 32 27  1  0  0  0
M  END
> <minimizedAffinity>
-7.38566

> <CNNscore>
0.4172723889

> <CNNaffinity>
6.5832433701

> <CNN_VS>
2.7470057011

> <CNNaffinity_variance>
0.1309420764

$$$$
[H]c1c([H])c([H])c(-c2c([H])c([H])c(C([H])([H])Sc3nnc(-c4c([H])c([H])c5c(c4[H])O[C@@]([H])(C([H])([H])OC([H])([H])[H])C([H])([H])O5)o3)c([H])c2[H])c(C#N)c1[H]


 34 38  0  0  0  0  0  0  0  0999 V2000
  153.8471  139.0710  183.8125 C   0  0  0  0  0  0  0  0  0  0  0  0
  152.8873  138.6154  183.0087 N   0  0  0  0  0  0  0  0  0  0  0  0
  152.2804  137.6196  183.6169 N   0  0  0  0  0  0  0  0  0  0  0  0
  152.8543  137.4405  184.8095 C   0  0  0  0  0  0  0  0  0  0  0  0
  153.8180  138.3624  184.8841 O   0  0  0  0  0  0  0  0  0  0  0  0
  159.0011  142.3665  183.9840 C   0  0  0  0  0  0  0  0  0  0  0  0
  158.7288  142.9892  182.6224 C   0  0  0  0  0  0  0  0  0  0  0  0
  157.3273  143.3232  182.6059 O   0  0  0  0  0  0  0  0  0  0  0  0
  156.4505  142.2920  182.8920 C   0  0  0  0  0  0  0  0  0  0  0  0
  155.0984  142.3779  182.5458 C   0  0  0  0  0  0  0  0  0  0  0  0
  154.2846  141.3099  182.8631 C   0  0  0  0  0  0  0  0  0  0  0  0
  154.7582  140.1856  183.4982 C   0  0  0  0  0  0  0  0  0  0  0  0
  156.0760  140.1253  183.8249 C   0  0  0  0  0  0  0  0  0  0  0  0
  156.9439  141.1734  183.5290 C   0  0  0  0  0  0  0  0  0  0  0  0
  158.2849  141.0872  183.8727 O   0  0  0  0  0  0  0  0  0  0  0  0
  160.4381  142.0637  184.2295 C   0  0  0  0  0  0  0  0  0  0  0  0
  162.1161  142.6566  185.7928 C   0  0  0  0  0  0  0  0  0  0  0  0
  161.2406  142.9396  184.8207 O   0  0  0  0  0  0  0  0  0  0  0  0
  152.4445  136.2418  186.0490 S   0  0  0  0  0  0  0  0  0  0  0  0
  153.5787  136.2069  187.4407 C   0  0  0  0  0  0  0  0  0  0  0  0
  152.9326  135.7926  188.7023 C   0  0  0  0  0  0  0  0  0  0  0  0
  151.5724  136.0569  188.8614 C   0  0  0  0  0  0  0  0  0  0  0  0
  150.9248  135.7115  190.0264 C   0  0  0  0  0  0  0  0  0  0  0  0
  151.5665  135.1010  191.0736 C   0  0  0  0  0  0  0  0  0  0  0  0
  152.9130  134.8423  190.9103 C   0  0  0  0  0  0  0  0  0  0  0  0
  153.5689  135.1881  189.7412 C   0  0  0  0  0  0  0  0  0  0  0  0
  150.9268  134.7068  192.3191 C   0  0  0  0  0  0  0  0  0  0  0  0
  150.2829  133.4667  192.4236 C   0  0  0  0  0  0  0  0  0  0  0  0
  149.6855  133.0726  193.5961 C   0  0  0  0  0  0  0  0  0  0  0  0
  149.6885  133.8695  194.7199 C   0  0  0  0  0  0  0  0  0  0  0  0
  150.3164  135.0901  194.6329 C   0  0  0  0  0  0  0  0  0  0  0  0
  150.9259  135.4954  193.4409 C   0  0  0  0  0  0  0  0  0  0  0  0
  151.5573  136.7875  193.3947 C   0  0  0  0  0  0  0  0  0  0  0  0
  152.0789  137.8268  193.3356 N   0  0  0  0  0  0  0  0  0  0  0  0
 17 18  1  0  0  0
 18 16  1  0  0  0
 16  6  1  0  0  0
  6  7  1  0  0  0
  7  8  1  0  0  0
  8  9  1  0  0  0
  9 10  2  0  0  0
 10 11  1  0  0  0
 11 12  2  0  0  0
 12  1  1  0  0  0
  1  2  2  0  0  0
  2  3  1  0  0  0
  3  4  2  0  0  0
  4 19  1  0  0  0
 19 20  1  0  0  0
 20 21  1  0  0  0
 21 22  2  0  0  0
 22 23  1  0  0  0
 23 24  2  0  0  0
 24 27  1  0  0  0
 27 28  2  0  0  0
 28 29  1  0  0  0
 29 30  2  0  0  0
 30 31  1  0  0  0
 31 32  2  0  0  0
 32 33  1  0  0  0
 33 34  3  0  0  0
 24 25  1  0  0  0
 25 26  2  0  0  0
  4  5  1  0  0  0
 12 13  1  0  0  0
 13 14  2  0  0  0
 14 15  1  0  0  0
 15  6  1  0  0  0
 14  9  1  0  0  0
  5  1  1  0  0  0
 26 21  1  0  0  0
 32 27  1  0  0  0
M  END
> <minimizedAffinity>
-7.18015

> <CNNscore>
0.3740611076

> <CNNaffinity>
5.8292150497

> <CNN_VS>
2.1804826260

> <CNNaffinity_variance>
0.2564840019

$$$$
[H]c1c([H])c([H])c(-c2c([H])c([H])c(C([H])([H])Sc3nnc(-c4c([H])c([H])c5c(c4[H])O[C@@]([H])(C([H])([H])OC([H])([H])[H])C([H])([H])O5)o3)c([H])c2[H])c(C#N)c1[H]


 34 38  0  0  0  0  0  0  0  0999 V2000
  155.4588  140.7890  182.8126 C   0  0  0  0  0  0  0  0  0  0  0  0
  154.5307  140.9892  181.8781 N   0  0  0  0  0  0  0  0  0  0  0  0
  153.6145  140.0538  182.0019 N   0  0  0  0  0  0  0  0  0  0  0  0
  153.9593  139.2568  183.0165 C   0  0  0  0  0  0  0  0  0  0  0  0
  155.1073  139.7526  183.4860 O   0  0  0  0  0  0  0  0  0  0  0  0
  160.2807  143.1311  185.7650 C   0  0  0  0  0  0  0  0  0  0  0  0
  161.0190  143.4246  184.4670 C   0  0  0  0  0  0  0  0  0  0  0  0
  160.0393  143.9683  183.5611 O   0  0  0  0  0  0  0  0  0  0  0  0
  158.9068  143.2010  183.3544 C   0  0  0  0  0  0  0  0  0  0  0  0
  158.0820  143.4165  182.2460 C   0  0  0  0  0  0  0  0  0  0  0  0
  156.9700  142.6119  182.1060 C   0  0  0  0  0  0  0  0  0  0  0  0
  156.6574  141.6231  183.0097 C   0  0  0  0  0  0  0  0  0  0  0  0
  157.4740  141.4326  184.0792 C   0  0  0  0  0  0  0  0  0  0  0  0
  158.6101  142.2150  184.2710 C   0  0  0  0  0  0  0  0  0  0  0  0
  159.4276  142.0003  185.3707 O   0  0  0  0  0  0  0  0  0  0  0  0
  161.1669  142.6693  186.8688 C   0  0  0  0  0  0  0  0  0  0  0  0
  163.3691  142.4119  187.7026 C   0  0  0  0  0  0  0  0  0  0  0  0
  162.4605  142.9641  186.8896 O   0  0  0  0  0  0  0  0  0  0  0  0
  153.0958  137.8360  183.6305 S   0  0  0  0  0  0  0  0  0  0  0  0
  154.0960  136.7562  184.6593 C   0  0  0  0  0  0  0  0  0  0  0  0
  153.7106  136.7962  186.0843 C   0  0  0  0  0  0  0  0  0  0  0  0
  153.8724  135.6360  186.8414 C   0  0  0  0  0  0  0  0  0  0  0  0
  153.5089  135.6115  188.1692 C   0  0  0  0  0  0  0  0  0  0  0  0
  152.9791  136.7028  188.8089 C   0  0  0  0  0  0  0  0  0  0  0  0
  152.8210  137.8483  188.0541 C   0  0  0  0  0  0  0  0  0  0  0  0
  153.1843  137.8780  186.7186 C   0  0  0  0  0  0  0  0  0  0  0  0
  152.5896  136.7319  190.2101 C   0  0  0  0  0  0  0  0  0  0  0  0
  151.3257  136.2727  190.6039 C   0  0  0  0  0  0  0  0  0  0  0  0
  150.9463  136.2803  191.9241 C   0  0  0  0  0  0  0  0  0  0  0  0
  151.7817  136.7358  192.9204 C   0  0  0  0  0  0  0  0  0  0  0  0
  153.0258  137.1902  192.5495 C   0  0  0  0  0  0  0  0  0  0  0  0
  153.4161  137.1844  191.2063 C   0  0  0  0  0  0  0  0  0  0  0  0
  154.7221  137.6834  190.8663 C   0  0  0  0  0  0  0  0  0  0  0  0
  155.7814  138.0959  190.6145 N   0  0  0  0  0  0  0  0  0  0  0  0
 17 18  1  0  0  0
 18 16  1  0  0  0
 16  6  1  0  0  0
  6  7  1  0  0  0
  7  8  1  0  0  0
  8  9  1  0  0  0
  9 10  2  0  0  0
 10 11  1  0  0  0
 11 12  2  0  0  0
 12  1  1  0  0  0
  1  2  2  0  0  0
  2  3  1  0  0  0
  3  4  2  0  0  0
  4 19  1  0  0  0
 19 20  1  0  0  0
 20 21  1  0  0  0
 21 22  2  0  0  0
 22 23  1  0  0  0
 23 24  2  0  0  0
 24 27  1  0  0  0
 27 28  2  0  0  0
 28 29  1  0  0  0
 29 30  2  0  0  0
 30 31  1  0  0  0
 31 32  2  0  0  0
 32 33  1  0  0  0
 33 34  3  0  0  0
 24 25  1  0  0  0
 25 26  2  0  0  0
  4  5  1  0  0  0
 12 13  1  0  0  0
 13 14  2  0  0  0
 14 15  1  0  0  0
 15  6  1  0  0  0
 14  9  1  0  0  0
  5  1  1  0  0  0
 26 21  1  0  0  0
 32 27  1  0  0  0
M  END
> <minimizedAffinity>
-8.33457

> <CNNscore>
0.3402265906

> <CNNaffinity>
6.3059463501

> <CNN_VS>
2.1454505920

> <CNNaffinity_variance>
0.0371146090

$$$$
[H]c1c([H])c([H])c(-c2c([H])c([H])c(C([H])([H])Sc3nnc(-c4c([H])c([H])c5c(c4[H])O[C@@]([H])(C([H])([H])OC([H])([H])[H])C([H])([H])O5)o3)c([H])c2[H])c(C#N)c1[H]


 34 38  0  0  0  0  0  0  0  0999 V2000
  154.8606  139.0717  183.8895 C   0  0  0  0  0  0  0  0  0  0  0  0
  153.7812  139.2851  183.1384 N   0  0  0  0  0  0  0  0  0  0  0  0
  152.9175  138.3225  183.3774 N   0  0  0  0  0  0  0  0  0  0  0  0
  153.4472  137.4949  184.2820 C   0  0  0  0  0  0  0  0  0  0  0  0
  154.6499  138.0008  184.5678 O   0  0  0  0  0  0  0  0  0  0  0  0
  159.0965  142.9123  181.7077 C   0  0  0  0  0  0  0  0  0  0  0  0
  159.3969  143.4742  183.0897 C   0  0  0  0  0  0  0  0  0  0  0  0
  159.4353  142.3448  183.9836 O   0  0  0  0  0  0  0  0  0  0  0  0
  158.3181  141.5287  183.9844 C   0  0  0  0  0  0  0  0  0  0  0  0
  158.0681  140.6494  185.0424 C   0  0  0  0  0  0  0  0  0  0  0  0
  156.9338  139.8669  184.9736 C   0  0  0  0  0  0  0  0  0  0  0  0
  156.0599  139.9276  183.9132 C   0  0  0  0  0  0  0  0  0  0  0  0
  156.3242  140.7898  182.8965 C   0  0  0  0  0  0  0  0  0  0  0  0
  157.4541  141.6037  182.9128 C   0  0  0  0  0  0  0  0  0  0  0  0
  157.7011  142.4757  181.8628 O   0  0  0  0  0  0  0  0  0  0  0  0
  159.1365  143.9316  180.6231 C   0  0  0  0  0  0  0  0  0  0  0  0
  160.2659  144.5119  178.6234 C   0  0  0  0  0  0  0  0  0  0  0  0
  159.6276  143.6491  179.4232 O   0  0  0  0  0  0  0  0  0  0  0  0
  152.7291  136.0294  184.9732 S   0  0  0  0  0  0  0  0  0  0  0  0
  152.1938  134.8270  183.7515 C   0  0  0  0  0  0  0  0  0  0  0  0
  153.3180  134.1934  183.0335 C   0  0  0  0  0  0  0  0  0  0  0  0
  153.6012  134.6308  181.7398 C   0  0  0  0  0  0  0  0  0  0  0  0
  154.6245  134.0595  181.0170 C   0  0  0  0  0  0  0  0  0  0  0  0
  155.4065  133.0501  181.5175 C   0  0  0  0  0  0  0  0  0  0  0  0
  155.1210  132.6210  182.7986 C   0  0  0  0  0  0  0  0  0  0  0  0
  154.0929  133.1917  183.5293 C   0  0  0  0  0  0  0  0  0  0  0  0
  156.5045  132.4212  180.8001 C   0  0  0  0  0  0  0  0  0  0  0  0
  157.8317  132.6797  181.1679 C   0  0  0  0  0  0  0  0  0  0  0  0
  158.8804  132.0841  180.5102 C   0  0  0  0  0  0  0  0  0  0  0  0
  158.6830  131.2096  179.4642 C   0  0  0  0  0  0  0  0  0  0  0  0
  157.3856  130.9459  179.0912 C   0  0  0  0  0  0  0  0  0  0  0  0
  156.3148  131.5503  179.7580 C   0  0  0  0  0  0  0  0  0  0  0  0
  154.9761  131.2543  179.3216 C   0  0  0  0  0  0  0  0  0  0  0  0
  153.8839  131.0293  178.9866 N   0  0  0  0  0  0  0  0  0  0  0  0
 17 18  1  0  0  0
 18 16  1  0  0  0
 16  6  1  0  0  0
  6  7  1  0  0  0
  7  8  1  0  0  0
  8  9  1  0  0  0
  9 10  2  0  0  0
 10 11  1  0  0  0
 11 12  2  0  0  0
 12  1  1  0  0  0
  1  2  2  0  0  0
  2  3  1  0  0  0
  3  4  2  0  0  0
  4 19  1  0  0  0
 19 20  1  0  0  0
 20 21  1  0  0  0
 21 22  2  0  0  0
 22 23  1  0  0  0
 23 24  2  0  0  0
 24 27  1  0  0  0
 27 28  2  0  0  0
 28 29  1  0  0  0
 29 30  2  0  0  0
 30 31  1  0  0  0
 31 32  2  0  0  0
 32 33  1  0  0  0
 33 34  3  0  0  0
 24 25  1  0  0  0
 25 26  2  0  0  0
  4  5  1  0  0  0
 12 13  1  0  0  0
 13 14  2  0  0  0
 14 15  1  0  0  0
 15  6  1  0  0  0
 14  9  1  0  0  0
  5  1  1  0  0  0
 26 21  1  0  0  0
 32 27  1  0  0  0
M  END
> <minimizedAffinity>
-6.83266

> <CNNscore>
0.3307254612

> <CNNaffinity>
6.1034994125

> <CNN_VS>
2.0185825825

> <CNNaffinity_variance>
0.2970530689

$$$$
[H]c1c([H])c([H])c(C2([H])C([H])([H])[C@]2([H])N([H])C([H])([H])c2c([H])c([H])c(OC([H])([H])[H])c3c([H])c([H])c([H])c([H])c23)c([H])c1[H]


 24 27  0  0  0  0  0  0  0  0999 V2000
  157.8344  141.1117  183.4837 C   0  0  0  0  0  0  0  0  0  0  0  0
  157.5578  139.8658  183.9887 C   0  0  0  0  0  0  0  0  0  0  0  0
  156.2581  139.4085  184.1559 C   0  0  0  0  0  0  0  0  0  0  0  0
  155.1860  140.2024  183.8156 C   0  0  0  0  0  0  0  0  0  0  0  0
  155.4586  141.4715  183.3011 C   0  0  0  0  0  0  0  0  0  0  0  0
  154.3775  142.2592  182.9629 C   0  0  0  0  0  0  0  0  0  0  0  0
  154.6649  143.5154  182.4538 C   0  0  0  0  0  0  0  0  0  0  0  0
  155.9494  143.9693  182.2875 C   0  0  0  0  0  0  0  0  0  0  0  0
  157.0194  143.1715  182.6297 C   0  0  0  0  0  0  0  0  0  0  0  0
  156.7531  141.9005  183.1452 C   0  0  0  0  0  0  0  0  0  0  0  0
  159.9849  141.7438  184.4477 C   0  0  0  0  0  0  0  0  0  0  0  0
  159.1475  141.5656  183.3180 O   0  0  0  0  0  0  0  0  0  0  0  0
  153.7801  139.7426  183.9728 C   0  0  0  0  0  0  0  0  0  0  0  0
  153.4242  138.9345  182.8483 N   0  0  0  0  0  0  0  0  0  0  0  0
  153.4031  137.9077  183.0686 H   0  0  0  0  0  0  0  0  0  0  0  0
  152.2291  139.3616  182.1732 C   0  0  0  0  0  0  0  0  0  0  0  0
  152.5136  140.0790  180.8485 C   0  0  0  0  0  0  0  0  0  0  0  0
  151.7705  138.7966  180.8937 C   0  0  0  0  0  0  0  0  0  0  0  0
  150.3101  138.7994  180.6418 C   0  0  0  0  0  0  0  0  0  0  0  0
  149.7401  138.4551  179.4381 C   0  0  0  0  0  0  0  0  0  0  0  0
  148.3887  138.4656  179.2304 C   0  0  0  0  0  0  0  0  0  0  0  0
  147.5421  138.8281  180.2398 C   0  0  0  0  0  0  0  0  0  0  0  0
  148.0824  139.1787  181.4583 C   0  0  0  0  0  0  0  0  0  0  0  0
  149.4519  139.1629  181.6523 C   0  0  0  0  0  0  0  0  0  0  0  0
 11 12  1  0  0  0
 12  1  1  0  0  0
  1  2  2  0  0  0
  2  3  1  0  0  0
  3  4  2  0  0  0
  4 13  1  0  0  0
 13 14  1  0  0  0
 14 16  1  0  0  0
 16 17  1  0  0  0
 17 18  1  0  0  0
 18 19  1  0  0  0
 19 20  2  0  0  0
 20 21  1  0  0  0
 21 22  2  0  0  0
 22 23  1  0  0  0
 23 24  2  0  0  0
  4  5  1  0  0  0
  5  6  2  0  0  0
  6  7  1  0  0  0
  7  8  2  0  0  0
  8  9  1  0  0  0
  9 10  2  0  0  0
 10  1  1  0  0  0
 18 16  1  0  0  0
 24 19  1  0  0  0
 10  5  1  0  0  0
 14 15  1  0  0  0
M  END
> <minimizedAffinity>
-7.94699

> <CNNscore>
0.4642933011

> <CNNaffinity>
5.4680161476

> <CNN_VS>
2.5387632847

> <CNNaffinity_variance>
0.0475253277

$$$$
[H]c1c([H])c([H])c(C2([H])C([H])([H])[C@]2([H])N([H])C([H])([H])c2c([H])c([H])c(OC([H])([H])[H])c3c([H])c([H])c([H])c([H])c23)c([H])c1[H]


 24 27  0  0  0  0  0  0  0  0999 V2000
  152.4793  137.5273  182.9027 C   0  0  0  0  0  0  0  0  0  0  0  0
  153.4330  138.1703  183.6516 C   0  0  0  0  0  0  0  0  0  0  0  0
  153.7993  139.4868  183.4086 C   0  0  0  0  0  0  0  0  0  0  0  0
  153.2088  140.2027  182.3916 C   0  0  0  0  0  0  0  0  0  0  0  0
  152.2375  139.5561  181.6249 C   0  0  0  0  0  0  0  0  0  0  0  0
  151.6516  140.2822  180.6084 C   0  0  0  0  0  0  0  0  0  0  0  0
  150.6898  139.6263  179.8570 C   0  0  0  0  0  0  0  0  0  0  0  0
  150.3261  138.3246  180.0959 C   0  0  0  0  0  0  0  0  0  0  0  0
  150.9199  137.6117  181.1146 C   0  0  0  0  0  0  0  0  0  0  0  0
  151.8927  138.2533  181.8854 C   0  0  0  0  0  0  0  0  0  0  0  0
  152.8767  135.1387  182.6030 C   0  0  0  0  0  0  0  0  0  0  0  0
  152.1154  136.1999  183.1539 O   0  0  0  0  0  0  0  0  0  0  0  0
  153.5696  141.6176  182.1076 C   0  0  0  0  0  0  0  0  0  0  0  0
  154.2455  142.1644  183.2426 N   0  0  0  0  0  0  0  0  0  0  0  0
  154.2402  141.5229  184.0743 H   0  0  0  0  0  0  0  0  0  0  0  0
  155.5643  142.6604  182.9578 C   0  0  0  0  0  0  0  0  0  0  0  0
  156.6515  141.9939  183.8088 C   0  0  0  0  0  0  0  0  0  0  0  0
  156.6221  141.8493  182.3334 C   0  0  0  0  0  0  0  0  0  0  0  0
  157.6286  142.5687  181.5175 C   0  0  0  0  0  0  0  0  0  0  0  0
  158.2059  143.7605  181.8898 C   0  0  0  0  0  0  0  0  0  0  0  0
  159.1330  144.4053  181.1190 C   0  0  0  0  0  0  0  0  0  0  0  0
  159.5237  143.8701  179.9239 C   0  0  0  0  0  0  0  0  0  0  0  0
  158.9635  142.6765  179.5226 C   0  0  0  0  0  0  0  0  0  0  0  0
  158.0267  142.0367  180.3141 C   0  0  0  0  0  0  0  0  0  0  0  0
 11 12  1  0  0  0
 12  1  1  0  0  0
  1  2  2  0  0  0
  2  3  1  0  0  0
  3  4  2  0  0  0
  4 13  1  0  0  0
 13 14  1  0  0  0
 14 16  1  0  0  0
 16 17  1  0  0  0
 17 18  1  0  0  0
 18 19  1  0  0  0
 19 20  2  0  0  0
 20 21  1  0  0  0
 21 22  2  0  0  0
 22 23  1  0  0  0
 23 24  2  0  0  0
  4  5  1  0  0  0
  5  6  2  0  0  0
  6  7  1  0  0  0
  7  8  2  0  0  0
  8  9  1  0  0  0
  9 10  2  0  0  0
 10  1  1  0  0  0
 18 16  1  0  0  0
 24 19  1  0  0  0
 10  5  1  0  0  0
 14 15  1  0  0  0
M  END
> <minimizedAffinity>
-8.03321

> <CNNscore>
0.4533870220

> <CNNaffinity>
5.7520303726

> <CNN_VS>
2.6078958511

> <CNNaffinity_variance>
0.1443432570

$$$$
[H]c1c([H])c([H])c(C2([H])C([H])([H])[C@]2([H])N([H])C([H])([H])c2c([H])c([H])c(OC([H])([H])[H])c3c([H])c([H])c([H])c([H])c23)c([H])c1[H]


 24 27  0  0  0  0  0  0  0  0999 V2000
  157.8904  143.4931  182.2438 C   0  0  0  0  0  0  0  0  0  0  0  0
  156.6368  144.0310  182.0913 C   0  0  0  0  0  0  0  0  0  0  0  0
  155.4839  143.2984  182.3368 C   0  0  0  0  0  0  0  0  0  0  0  0
  155.5606  141.9866  182.7477 C   0  0  0  0  0  0  0  0  0  0  0  0
  156.8320  141.4317  182.9054 C   0  0  0  0  0  0  0  0  0  0  0  0
  156.8982  140.1167  183.3178 C   0  0  0  0  0  0  0  0  0  0  0  0
  158.1670  139.5809  183.4695 C   0  0  0  0  0  0  0  0  0  0  0  0
  159.3083  140.3038  183.2274 C   0  0  0  0  0  0  0  0  0  0  0  0
  159.2268  141.6163  182.8160 C   0  0  0  0  0  0  0  0  0  0  0  0
  157.9572  142.1773  182.6563 C   0  0  0  0  0  0  0  0  0  0  0  0
  159.5775  145.0853  183.0000 C   0  0  0  0  0  0  0  0  0  0  0  0
  159.0481  144.2382  181.9944 O   0  0  0  0  0  0  0  0  0  0  0  0
  154.3470  141.1737  183.0285 C   0  0  0  0  0  0  0  0  0  0  0  0
  153.9647  140.4783  181.8392 N   0  0  0  0  0  0  0  0  0  0  0  0
  154.6535  139.7381  181.5550 H   0  0  0  0  0  0  0  0  0  0  0  0
  152.6179  139.9764  181.8599 C   0  0  0  0  0  0  0  0  0  0  0  0
  151.8901  140.1593  180.5229 C   0  0  0  0  0  0  0  0  0  0  0  0
  152.1703  138.8128  181.0773 C   0  0  0  0  0  0  0  0  0  0  0  0
  151.0530  138.0155  181.6360 C   0  0  0  0  0  0  0  0  0  0  0  0
  151.0128  137.5571  182.9324 C   0  0  0  0  0  0  0  0  0  0  0  0
  149.9698  136.8227  183.4246 C   0  0  0  0  0  0  0  0  0  0  0  0
  148.9082  136.5144  182.6214 C   0  0  0  0  0  0  0  0  0  0  0  0
  148.9186  136.9592  181.3169 C   0  0  0  0  0  0  0  0  0  0  0  0
  149.9815  137.7014  180.8343 C   0  0  0  0  0  0  0  0  0  0  0  0
 11 12  1  0  0  0
 12  1  1  0  0  0
  1  2  2  0  0  0
  2  3  1  0  0  0
  3  4  2  0  0  0
  4 13  1  0  0  0
 13 14  1  0  0  0
 14 16  1  0  0  0
 16 17  1  0  0  0
 17 18  1  0  0  0
 18 19  1  0  0  0
 19 20  2  0  0  0
 20 21  1  0  0  0
 21 22  2  0  0  0
 22 23  1  0  0  0
 23 24  2  0  0  0
  4  5  1  0  0  0
  5  6  2  0  0  0
  6  7  1  0  0  0
  7  8  2  0  0  0
  8  9  1  0  0  0
  9 10  2  0  0  0
 10  1  1  0  0  0
 18 16  1  0  0  0
 24 19  1  0  0  0
 10  5  1  0  0  0
 14 15  1  0  0  0
M  END
> <minimizedAffinity>
-7.23506

> <CNNscore>
0.4501738548

> <CNNaffinity>
5.7126226425

> <CNN_VS>
2.5716733932

> <CNNaffinity_variance>
0.1181087345

$$$$
[H]c1c([H])c([H])c(C2([H])C([H])([H])[C@]2([H])N([H])C([H])([H])c2c([H])c([H])c(OC([H])([H])[H])c3c([H])c([H])c([H])c([H])c23)c([H])c1[H]


 24 27  0  0  0  0  0  0  0  0999 V2000
  154.9880  137.5427  188.6034 C   0  0  0  0  0  0  0  0  0  0  0  0
  156.0333  138.0750  187.8907 C   0  0  0  0  0  0  0  0  0  0  0  0
  155.9182  138.4081  186.5484 C   0  0  0  0  0  0  0  0  0  0  0  0
  154.7328  138.2121  185.8761 C   0  0  0  0  0  0  0  0  0  0  0  0
  153.6643  137.6711  186.5938 C   0  0  0  0  0  0  0  0  0  0  0  0
  152.4807  137.4788  185.9113 C   0  0  0  0  0  0  0  0  0  0  0  0
  151.4303  136.9412  186.6376 C   0  0  0  0  0  0  0  0  0  0  0  0
  151.5420  136.6114  187.9651 C   0  0  0  0  0  0  0  0  0  0  0  0
  152.7304  136.8089  188.6338 C   0  0  0  0  0  0  0  0  0  0  0  0
  153.8034  137.3500  187.9210 C   0  0  0  0  0  0  0  0  0  0  0  0
  156.2939  137.5424  190.6645 C   0  0  0  0  0  0  0  0  0  0  0  0
  155.1118  137.2095  189.9567 O   0  0  0  0  0  0  0  0  0  0  0  0
  154.5701  138.5653  184.4404 C   0  0  0  0  0  0  0  0  0  0  0  0
  154.1404  139.9251  184.3392 N   0  0  0  0  0  0  0  0  0  0  0  0
  154.1409  140.4274  185.2617 H   0  0  0  0  0  0  0  0  0  0  0  0
  154.8153  140.6797  183.3187 C   0  0  0  0  0  0  0  0  0  0  0  0
  154.7349  142.1944  183.5419 C   0  0  0  0  0  0  0  0  0  0  0  0
  156.0306  141.4737  183.5623 C   0  0  0  0  0  0  0  0  0  0  0  0
  156.9660  141.6384  182.4248 C   0  0  0  0  0  0  0  0  0  0  0  0
  157.7688  140.6311  181.9416 C   0  0  0  0  0  0  0  0  0  0  0  0
  158.6244  140.8082  180.8899 C   0  0  0  0  0  0  0  0  0  0  0  0
  158.7092  142.0236  180.2713 C   0  0  0  0  0  0  0  0  0  0  0  0
  157.9176  143.0535  180.7321 C   0  0  0  0  0  0  0  0  0  0  0  0
  157.0570  142.8581  181.7973 C   0  0  0  0  0  0  0  0  0  0  0  0
 11 12  1  0  0  0
 12  1  1  0  0  0
  1  2  2  0  0  0
  2  3  1  0  0  0
  3  4  2  0  0  0
  4 13  1  0  0  0
 13 14  1  0  0  0
 14 16  1  0  0  0
 16 17  1  0  0  0
 17 18  1  0  0  0
 18 19  1  0  0  0
 19 20  2  0  0  0
 20 21  1  0  0  0
 21 22  2  0  0  0
 22 23  1  0  0  0
 23 24  2  0  0  0
  4  5  1  0  0  0
  5  6  2  0  0  0
  6  7  1  0  0  0
  7  8  2  0  0  0
  8  9  1  0  0  0
  9 10  2  0  0  0
 10  1  1  0  0  0
 18 16  1  0  0  0
 24 19  1  0  0  0
 10  5  1  0  0  0
 14 15  1  0  0  0
M  END
> <minimizedAffinity>
-6.76085

> <CNNscore>
0.4390839338

> <CNNaffinity>
5.3759737015

> <CNN_VS>
2.3605036736

> <CNNaffinity_variance>
0.0483734198

$$$$
[H]c1c([H])c([H])c(C2([H])C([H])([H])[C@]2([H])N([H])C([H])([H])c2c([H])c([H])c(OC([H])([H])[H])c3c([H])c([H])c([H])c([H])c23)c([H])c1[H]


 24 27  0  0  0  0  0  0  0  0999 V2000
  148.9111  138.2083  181.7488 C   0  0  0  0  0  0  0  0  0  0  0  0
  149.0680  137.2513  182.7201 C   0  0  0  0  0  0  0  0  0  0  0  0
  150.3148  136.7527  183.0712 C   0  0  0  0  0  0  0  0  0  0  0  0
  151.4538  137.2087  182.4465 C   0  0  0  0  0  0  0  0  0  0  0  0
  151.3031  138.1823  181.4572 C   0  0  0  0  0  0  0  0  0  0  0  0
  152.4505  138.6329  180.8374 C   0  0  0  0  0  0  0  0  0  0  0  0
  152.2839  139.5989  179.8582 C   0  0  0  0  0  0  0  0  0  0  0  0
  151.0519  140.0933  179.5098 C   0  0  0  0  0  0  0  0  0  0  0  0
  149.9146  139.6339  180.1374 C   0  0  0  0  0  0  0  0  0  0  0  0
  150.0589  138.6594  181.1283 C   0  0  0  0  0  0  0  0  0  0  0  0
  146.8116  137.9670  180.5294 C   0  0  0  0  0  0  0  0  0  0  0  0
  147.6507  138.7060  181.4005 O   0  0  0  0  0  0  0  0  0  0  0  0
  152.8070  136.7039  182.8026 C   0  0  0  0  0  0  0  0  0  0  0  0
  153.1268  137.1217  184.1320 N   0  0  0  0  0  0  0  0  0  0  0  0
  153.8517  136.5161  184.5914 H   0  0  0  0  0  0  0  0  0  0  0  0
  153.4451  138.5187  184.2478 C   0  0  0  0  0  0  0  0  0  0  0  0
  154.3589  138.8279  185.4394 C   0  0  0  0  0  0  0  0  0  0  0  0
  154.7961  139.0658  184.0426 C   0  0  0  0  0  0  0  0  0  0  0  0
  154.8897  140.4578  183.5428 C   0  0  0  0  0  0  0  0  0  0  0  0
  153.8445  141.1322  182.9553 C   0  0  0  0  0  0  0  0  0  0  0  0
  153.9559  142.4173  182.5018 C   0  0  0  0  0  0  0  0  0  0  0  0
  155.1408  143.0872  182.6222 C   0  0  0  0  0  0  0  0  0  0  0  0
  156.2074  142.4387  183.2066 C   0  0  0  0  0  0  0  0  0  0  0  0
  156.0782  141.1383  183.6603 C   0  0  0  0  0  0  0  0  0  0  0  0
 11 12  1  0  0  0
 12  1  1  0  0  0
  1  2  2  0  0  0
  2  3  1  0  0  0
  3  4  2  0  0  0
  4 13  1  0  0  0
 13 14  1  0  0  0
 14 16  1  0  0  0
 16 17  1  0  0  0
 17 18  1  0  0  0
 18 19  1  0  0  0
 19 20  2  0  0  0
 20 21  1  0  0  0
 21 22  2  0  0  0
 22 23  1  0  0  0
 23 24  2  0  0  0
  4  5  1  0  0  0
  5  6  2  0  0  0
  6  7  1  0  0  0
  7  8  2  0  0  0
  8  9  1  0  0  0
  9 10  2  0  0  0
 10  1  1  0  0  0
 18 16  1  0  0  0
 24 19  1  0  0  0
 10  5  1  0  0  0
 14 15  1  0  0  0
M  END
> <minimizedAffinity>
-6.73067

> <CNNscore>
0.4299428761

> <CNNaffinity>
5.1943583488

> <CNN_VS>
2.2332773209

> <CNNaffinity_variance>
0.1513169110

$$$$
[H]c1c([H])c([H])c(C2([H])C([H])([H])[C@]2([H])N([H])C([H])([H])c2c([H])c([H])c(OC([H])([H])[H])c3c([H])c([H])c([H])c([H])c23)c([H])c1[H]


 24 27  0  0  0  0  0  0  0  0999 V2000
  152.6787  139.5678  182.0991 C   0  0  0  0  0  0  0  0  0  0  0  0
  152.9749  140.8224  181.6278 C   0  0  0  0  0  0  0  0  0  0  0  0
  153.9755  141.6045  182.1878 C   0  0  0  0  0  0  0  0  0  0  0  0
  154.7157  141.1404  183.2519 C   0  0  0  0  0  0  0  0  0  0  0  0
  154.4207  139.8649  183.7374 C   0  0  0  0  0  0  0  0  0  0  0  0
  155.1682  139.4089  184.8037 C   0  0  0  0  0  0  0  0  0  0  0  0
  154.8632  138.1416  185.2736 C   0  0  0  0  0  0  0  0  0  0  0  0
  153.8743  137.3667  184.7211 C   0  0  0  0  0  0  0  0  0  0  0  0
  153.1358  137.8353  183.6564 C   0  0  0  0  0  0  0  0  0  0  0  0
  153.4262  139.1110  183.1661 C   0  0  0  0  0  0  0  0  0  0  0  0
  150.6040  139.4027  180.8256 C   0  0  0  0  0  0  0  0  0  0  0  0
  151.6685  138.7853  181.5291 O   0  0  0  0  0  0  0  0  0  0  0  0
  155.8011  141.9467  183.8717 C   0  0  0  0  0  0  0  0  0  0  0  0
  157.0339  141.6611  183.2062 N   0  0  0  0  0  0  0  0  0  0  0  0
  157.2576  142.3453  182.4413 H   0  0  0  0  0  0  0  0  0  0  0  0
  158.1483  141.4664  184.0930 C   0  0  0  0  0  0  0  0  0  0  0  0
  158.9915  140.2372  183.7342 C   0  0  0  0  0  0  0  0  0  0  0  0
  159.5535  141.6082  183.6781 C   0  0  0  0  0  0  0  0  0  0  0  0
  160.5218  142.0343  184.7159 C   0  0  0  0  0  0  0  0  0  0  0  0
  161.8868  142.0065  184.5472 C   0  0  0  0  0  0  0  0  0  0  0  0
  162.7601  142.4053  185.5207 C   0  0  0  0  0  0  0  0  0  0  0  0
  162.2898  142.8553  186.7221 C   0  0  0  0  0  0  0  0  0  0  0  0
  160.9267  142.8953  186.9223 C   0  0  0  0  0  0  0  0  0  0  0  0
  160.0564  142.4883  185.9271 C   0  0  0  0  0  0  0  0  0  0  0  0
 11 12  1  0  0  0
 12  1  1  0  0  0
  1  2  2  0  0  0
  2  3  1  0  0  0
  3  4  2  0  0  0
  4 13  1  0  0  0
 13 14  1  0  0  0
 14 16  1  0  0  0
 16 17  1  0  0  0
 17 18  1  0  0  0
 18 19  1  0  0  0
 19 20  2  0  0  0
 20 21  1  0  0  0
 21 22  2  0  0  0
 22 23  1  0  0  0
 23 24  2  0  0  0
  4  5  1  0  0  0
  5  6  2  0  0  0
  6  7  1  0  0  0
  7  8  2  0  0  0
  8  9  1  0  0  0
  9 10  2  0  0  0
 10  1  1  0  0  0
 18 16  1  0  0  0
 24 19  1  0  0  0
 10  5  1  0  0  0
 14 15  1  0  0  0
M  END
> <minimizedAffinity>
-9.00196

> <CNNscore>
0.4280418456

> <CNNaffinity>
5.8564195633

> <CNN_VS>
2.5067925453

> <CNNaffinity_variance>
0.0335298218

$$$$
[H]c1c([H])c([H])c(C2([H])C([H])([H])[C@]2([H])N([H])C([H])([H])c2c([H])c([H])c(OC([H])([H])[H])c3c([H])c([H])c([H])c([H])c23)c([H])c1[H]


 24 27  0  0  0  0  0  0  0  0999 V2000
  158.2041  142.6587  182.0876 C   0  0  0  0  0  0  0  0  0  0  0  0
  157.2614  141.6896  181.8510 C   0  0  0  0  0  0  0  0  0  0  0  0
  156.9863  140.6867  182.7702 C   0  0  0  0  0  0  0  0  0  0  0  0
  157.6612  140.6296  183.9689 C   0  0  0  0  0  0  0  0  0  0  0  0
  158.6220  141.6117  184.2175 C   0  0  0  0  0  0  0  0  0  0  0  0
  159.2925  141.5459  185.4215 C   0  0  0  0  0  0  0  0  0  0  0  0
  160.2425  142.5276  185.6529 C   0  0  0  0  0  0  0  0  0  0  0  0
  160.5157  143.5202  184.7454 C   0  0  0  0  0  0  0  0  0  0  0  0
  159.8381  143.5735  183.5468 C   0  0  0  0  0  0  0  0  0  0  0  0
  158.8755  142.5933  183.2922 C   0  0  0  0  0  0  0  0  0  0  0  0
  159.1309  143.3510  179.9393 C   0  0  0  0  0  0  0  0  0  0  0  0
  158.4756  143.6667  181.1560 O   0  0  0  0  0  0  0  0  0  0  0  0
  157.3870  139.5748  184.9813 C   0  0  0  0  0  0  0  0  0  0  0  0
  156.0269  139.1514  184.8585 N   0  0  0  0  0  0  0  0  0  0  0  0
  155.8931  138.3977  184.1392 H   0  0  0  0  0  0  0  0  0  0  0  0
  155.4016  138.8154  186.1084 C   0  0  0  0  0  0  0  0  0  0  0  0
  154.7890  137.4100  186.1128 C   0  0  0  0  0  0  0  0  0  0  0  0
  155.9063  137.7734  187.0173 C   0  0  0  0  0  0  0  0  0  0  0  0
  155.6353  137.9527  188.4632 C   0  0  0  0  0  0  0  0  0  0  0  0
  154.3977  138.2630  188.9775 C   0  0  0  0  0  0  0  0  0  0  0  0
  154.1730  138.4234  190.3167 C   0  0  0  0  0  0  0  0  0  0  0  0
  155.1989  138.2762  191.2072 C   0  0  0  0  0  0  0  0  0  0  0  0
  156.4514  137.9652  190.7231 C   0  0  0  0  0  0  0  0  0  0  0  0
  156.6622  137.8062  189.3653 C   0  0  0  0  0  0  0  0  0  0  0  0
 11 12  1  0  0  0
 12  1  1  0  0  0
  1  2  2  0  0  0
  2  3  1  0  0  0
  3  4  2  0  0  0
  4 13  1  0  0  0
 13 14  1  0  0  0
 14 16  1  0  0  0
 16 17  1  0  0  0
 17 18  1  0  0  0
 18 19  1  0  0  0
 19 20  2  0  0  0
 20 21  1  0  0  0
 21 22  2  0  0  0
 22 23  1  0  0  0
 23 24  2  0  0  0
  4  5  1  0  0  0
  5  6  2  0  0  0
  6  7  1  0  0  0
  7  8  2  0  0  0
  8  9  1  0  0  0
  9 10  2  0  0  0
 10  1  1  0  0  0
 18 16  1  0  0  0
 24 19  1  0  0  0
 10  5  1  0  0  0
 14 15  1  0  0  0
M  END
> <minimizedAffinity>
-8.17741

> <CNNscore>
0.4022789896

> <CNNaffinity>
5.7526793480

> <CNN_VS>
2.3141820431

> <CNNaffinity_variance>
0.0887366161

$$$$
[H]c1c([H])c([H])c(C2([H])C([H])([H])[C@]2([H])N([H])C([H])([H])c2c([H])c([H])c(OC([H])([H])[H])c3c([H])c([H])c([H])c([H])c23)c([H])c1[H]


 24 27  0  0  0  0  0  0  0  0999 V2000
  156.5390  139.9077  183.6975 C   0  0  0  0  0  0  0  0  0  0  0  0
  157.8251  139.6523  183.2917 C   0  0  0  0  0  0  0  0  0  0  0  0
  158.5360  140.5354  182.4912 C   0  0  0  0  0  0  0  0  0  0  0  0
  157.9654  141.7157  182.0703 C   0  0  0  0  0  0  0  0  0  0  0  0
  156.6573  141.9832  182.4787 C   0  0  0  0  0  0  0  0  0  0  0  0
  156.0947  143.1685  182.0520 C   0  0  0  0  0  0  0  0  0  0  0  0
  154.7962  143.4191  182.4658 C   0  0  0  0  0  0  0  0  0  0  0  0
  154.0917  142.5472  183.2577 C   0  0  0  0  0  0  0  0  0  0  0  0
  154.6665  141.3670  183.6763 C   0  0  0  0  0  0  0  0  0  0  0  0
  155.9754  141.0935  183.2708 C   0  0  0  0  0  0  0  0  0  0  0  0
  156.2442  138.7768  185.8394 C   0  0  0  0  0  0  0  0  0  0  0  0
  155.8287  139.0124  184.5048 O   0  0  0  0  0  0  0  0  0  0  0  0
  158.6999  142.6898  181.2193 C   0  0  0  0  0  0  0  0  0  0  0  0
  158.8320  143.9239  181.9289 N   0  0  0  0  0  0  0  0  0  0  0  0
  157.9496  144.2141  182.4193 H   0  0  0  0  0  0  0  0  0  0  0  0
  159.9726  143.9799  182.8018 C   0  0  0  0  0  0  0  0  0  0  0  0
  160.1201  145.3326  183.5083 C   0  0  0  0  0  0  0  0  0  0  0  0
  159.8726  144.0827  184.2668 C   0  0  0  0  0  0  0  0  0  0  0  0
  160.9750  143.4894  185.0599 C   0  0  0  0  0  0  0  0  0  0  0  0
  161.1049  143.6381  186.4212 C   0  0  0  0  0  0  0  0  0  0  0  0
  162.1319  143.0803  187.1309 C   0  0  0  0  0  0  0  0  0  0  0  0
  163.0849  142.3387  186.4912 C   0  0  0  0  0  0  0  0  0  0  0  0
  162.9827  142.1711  185.1270 C   0  0  0  0  0  0  0  0  0  0  0  0
  161.9374  142.7421  184.4235 C   0  0  0  0  0  0  0  0  0  0  0  0
 11 12  1  0  0  0
 12  1  1  0  0  0
  1  2  2  0  0  0
  2  3  1  0  0  0
  3  4  2  0  0  0
  4 13  1  0  0  0
 13 14  1  0  0  0
 14 16  1  0  0  0
 16 17  1  0  0  0
 17 18  1  0  0  0
 18 19  1  0  0  0
 19 20  2  0  0  0
 20 21  1  0  0  0
 21 22  2  0  0  0
 22 23  1  0  0  0
 23 24  2  0  0  0
  4  5  1  0  0  0
  5  6  2  0  0  0
  6  7  1  0  0  0
  7  8  2  0  0  0
  8  9  1  0  0  0
  9 10  2  0  0  0
 10  1  1  0  0  0
 18 16  1  0  0  0
 24 19  1  0  0  0
 10  5  1  0  0  0
 14 15  1  0  0  0
M  END
> <minimizedAffinity>
-8.00036

> <CNNscore>
0.3858921528

> <CNNaffinity>
6.4622511864

> <CNN_VS>
2.4937319756

> <CNNaffinity_variance>
0.1281700730

$$$$
[H]c1c([H])c([H])c(C2([H])C([H])([H])[C@]2([H])N([H])C([H])([H])c2c([H])c([H])c(OC([H])([H])[H])c3c([H])c([H])c([H])c([H])c23)c([H])c1[H]


 24 27  0  0  0  0  0  0  0  0999 V2000
  157.0820  143.0409  182.7536 C   0  0  0  0  0  0  0  0  0  0  0  0
  155.8919  143.3322  182.1350 C   0  0  0  0  0  0  0  0  0  0  0  0
  154.7789  142.5112  182.2510 C   0  0  0  0  0  0  0  0  0  0  0  0
  154.8327  141.3587  183.0023 C   0  0  0  0  0  0  0  0  0  0  0  0
  156.0397  141.0549  183.6350 C   0  0  0  0  0  0  0  0  0  0  0  0
  156.0833  139.8981  184.3856 C   0  0  0  0  0  0  0  0  0  0  0  0
  157.2880  139.6110  185.0070 C   0  0  0  0  0  0  0  0  0  0  0  0
  158.3896  140.4217  184.8936 C   0  0  0  0  0  0  0  0  0  0  0  0
  158.3314  141.5740  184.1405 C   0  0  0  0  0  0  0  0  0  0  0  0
  157.1263  141.8834  183.5048 C   0  0  0  0  0  0  0  0  0  0  0  0
  158.7633  144.1236  181.3556 C   0  0  0  0  0  0  0  0  0  0  0  0
  158.1998  143.8737  182.6320 O   0  0  0  0  0  0  0  0  0  0  0  0
  153.6577  140.4596  183.1562 C   0  0  0  0  0  0  0  0  0  0  0  0
  153.4756  139.7174  181.9479 N   0  0  0  0  0  0  0  0  0  0  0  0
  153.7308  138.7031  182.0445 H   0  0  0  0  0  0  0  0  0  0  0  0
  152.1829  139.8886  181.3430 C   0  0  0  0  0  0  0  0  0  0  0  0
  152.2312  139.8673  179.8107 C   0  0  0  0  0  0  0  0  0  0  0  0
  151.4950  138.8348  180.5794 C   0  0  0  0  0  0  0  0  0  0  0  0
  150.0133  138.8584  180.5844 C   0  0  0  0  0  0  0  0  0  0  0  0
  149.2373  138.4428  179.5272 C   0  0  0  0  0  0  0  0  0  0  0  0
  147.8707  138.4744  179.5562 C   0  0  0  0  0  0  0  0  0  0  0  0
  147.2182  138.9320  180.6661 C   0  0  0  0  0  0  0  0  0  0  0  0
  147.9676  139.3558  181.7425 C   0  0  0  0  0  0  0  0  0  0  0  0
  149.3496  139.3174  181.6973 C   0  0  0  0  0  0  0  0  0  0  0  0
 11 12  1  0  0  0
 12  1  1  0  0  0
  1  2  2  0  0  0
  2  3  1  0  0  0
  3  4  2  0  0  0
  4 13  1  0  0  0
 13 14  1  0  0  0
 14 16  1  0  0  0
 16 17  1  0  0  0
 17 18  1  0  0  0
 18 19  1  0  0  0
 19 20  2  0  0  0
 20 21  1  0  0  0
 21 22  2  0  0  0
 22 23  1  0  0  0
 23 24  2  0  0  0
  4  5  1  0  0  0
  5  6  2  0  0  0
  6  7  1  0  0  0
  7  8  2  0  0  0
  8  9  1  0  0  0
  9 10  2  0  0  0
 10  1  1  0  0  0
 18 16  1  0  0  0
 24 19  1  0  0  0
 10  5  1  0  0  0
 14 15  1  0  0  0
M  END
> <minimizedAffinity>
-8.09720

> <CNNscore>
0.3840842843

> <CNNaffinity>
5.4863309860

> <CNN_VS>
2.1072134972

> <CNNaffinity_variance>
0.0188848414

$$$$
[H]c1nc([H])c([C@@]2([H])N(C([H])([H])[H])C([H])([H])C([H])([H])C2([H])[H])c([H])c1[H]


 12 13  0  0  0  0  0  0  0  0999 V2000
  158.7735  144.0262  182.5760 C   0  0  0  0  0  0  0  0  0  0  0  0
  158.0548  142.8288  182.5836 N   0  0  0  0  0  0  0  0  0  0  0  0
  157.4662  142.3703  181.3901 C   0  0  0  0  0  0  0  0  0  0  0  0
  158.0912  141.0045  181.1913 C   0  0  0  0  0  0  0  0  0  0  0  0
  159.1168  140.8376  182.3189 C   0  0  0  0  0  0  0  0  0  0  0  0
  158.4988  141.7557  183.3759 C   0  0  0  0  0  0  0  0  0  0  0  0
  159.4118  142.0402  184.4675 C   0  0  0  0  0  0  0  0  0  0  0  0
  160.7659  142.1436  184.2328 C   0  0  0  0  0  0  0  0  0  0  0  0
  161.6544  142.4156  185.2837 C   0  0  0  0  0  0  0  0  0  0  0  0
  161.1460  142.5768  186.5532 C   0  0  0  0  0  0  0  0  0  0  0  0
  159.8421  142.4724  186.7512 N   0  0  0  0  0  0  0  0  0  0  0  0
  158.9717  142.2122  185.7584 C   0  0  0  0  0  0  0  0  0  0  0  0
  1  2  1  0  0  0
  2  3  1  0  0  0
  3  4  1  0  0  0
  4  5  1  0  0  0
  5  6  1  0  0  0
  6  7  1  0  0  0
  7  8  2  0  0  0
  8  9  1  0  0  0
  9 10  2  0  0  0
 10 11  1  0  0  0
 11 12  2  0  0  0
  6  2  1  0  0  0
 12  7  1  0  0  0
M  END
> <minimizedAffinity>
-5.43547

> <CNNscore>
0.6987138391

> <CNNaffinity>
5.0017495155

> <CNN_VS>
3.4947915077

> <CNNaffinity_variance>
0.0389867760

$$$$
[H]c1nc([H])c([C@@]2([H])N(C([H])([H])[H])C([H])([H])C([H])([H])C2([H])[H])c([H])c1[H]


 12 13  0  0  0  0  0  0  0  0999 V2000
  159.2006  139.9876  183.8127 C   0  0  0  0  0  0  0  0  0  0  0  0
  158.8308  141.1772  184.4438 N   0  0  0  0  0  0  0  0  0  0  0  0
  159.3549  141.4749  185.7157 C   0  0  0  0  0  0  0  0  0  0  0  0
  160.0575  142.8008  185.5056 C   0  0  0  0  0  0  0  0  0  0  0  0
  159.9382  143.1131  184.0091 C   0  0  0  0  0  0  0  0  0  0  0  0
  158.6561  142.3449  183.6804 C   0  0  0  0  0  0  0  0  0  0  0  0
  158.4424  142.2053  182.2518 C   0  0  0  0  0  0  0  0  0  0  0  0
  159.2531  142.8721  181.3588 C   0  0  0  0  0  0  0  0  0  0  0  0
  159.0504  142.7440  179.9766 C   0  0  0  0  0  0  0  0  0  0  0  0
  158.0257  141.9391  179.5313 C   0  0  0  0  0  0  0  0  0  0  0  0
  157.2621  141.3103  180.4097 N   0  0  0  0  0  0  0  0  0  0  0  0
  157.4383  141.4185  181.7395 C   0  0  0  0  0  0  0  0  0  0  0  0
  1  2  1  0  0  0
  2  3  1  0  0  0
  3  4  1  0  0  0
  4  5  1  0  0  0
  5  6  1  0  0  0
  6  7  1  0  0  0
  7  8  2  0  0  0
  8  9  1  0  0  0
  9 10  2  0  0  0
 10 11  1  0  0  0
 11 12  2  0  0  0
  6  2  1  0  0  0
 12  7  1  0  0  0
M  END
> <minimizedAffinity>
-5.71766

> <CNNscore>
0.6781953573

> <CNNaffinity>
4.9895238876

> <CNN_VS>
3.3838720322

> <CNNaffinity_variance>
0.1714566797

$$$$
[H]c1nc([H])c([C@@]2([H])N(C([H])([H])[H])C([H])([H])C([H])([H])C2([H])[H])c([H])c1[H]


 12 13  0  0  0  0  0  0  0  0999 V2000
  158.6648  143.0161  182.8633 C   0  0  0  0  0  0  0  0  0  0  0  0
  158.0732  141.8852  183.4303 N   0  0  0  0  0  0  0  0  0  0  0  0
  157.2634  141.0567  182.6311 C   0  0  0  0  0  0  0  0  0  0  0  0
  157.9393  139.7041  182.7283 C   0  0  0  0  0  0  0  0  0  0  0  0
  159.2106  139.9222  183.5574 C   0  0  0  0  0  0  0  0  0  0  0  0
  158.7806  141.1349  184.3859 C   0  0  0  0  0  0  0  0  0  0  0  0
  159.8957  141.7670  185.0665 C   0  0  0  0  0  0  0  0  0  0  0  0
  159.7300  142.2992  186.3269 C   0  0  0  0  0  0  0  0  0  0  0  0
  160.8028  142.9141  186.9894 C   0  0  0  0  0  0  0  0  0  0  0  0
  162.0233  142.9747  186.3549 C   0  0  0  0  0  0  0  0  0  0  0  0
  162.1554  142.4560  185.1451 N   0  0  0  0  0  0  0  0  0  0  0  0
  161.1405  141.8617  184.4910 C   0  0  0  0  0  0  0  0  0  0  0  0
  1  2  1  0  0  0
  2  3  1  0  0  0
  3  4  1  0  0  0
  4  5  1  0  0  0
  5  6  1  0  0  0
  6  7  1  0  0  0
  7  8  2  0  0  0
  8  9  1  0  0  0
  9 10  2  0  0  0
 10 11  1  0  0  0
 11 12  2  0  0  0
  6  2  1  0  0  0
 12  7  1  0  0  0
M  END
> <minimizedAffinity>
-6.21641

> <CNNscore>
0.6552082300

> <CNNaffinity>
4.8790750504

> <CNN_VS>
3.1968102455

> <CNNaffinity_variance>
0.0498091206

$$$$
[H]c1nc([H])c([C@@]2([H])N(C([H])([H])[H])C([H])([H])C([H])([H])C2([H])[H])c([H])c1[H]


 12 13  0  0  0  0  0  0  0  0999 V2000
  158.7208  139.6395  184.2367 C   0  0  0  0  0  0  0  0  0  0  0  0
  159.2155  140.1689  183.0429 N   0  0  0  0  0  0  0  0  0  0  0  0
  158.4810  139.9953  181.8549 C   0  0  0  0  0  0  0  0  0  0  0  0
  158.2280  141.4139  181.3866 C   0  0  0  0  0  0  0  0  0  0  0  0
  158.8029  142.3297  182.4739 C   0  0  0  0  0  0  0  0  0  0  0  0
  159.8788  141.4085  183.0534 C   0  0  0  0  0  0  0  0  0  0  0  0
  160.4059  141.8942  184.3153 C   0  0  0  0  0  0  0  0  0  0  0  0
  161.7666  142.0013  184.5056 C   0  0  0  0  0  0  0  0  0  0  0  0
  162.2831  142.4674  185.7238 C   0  0  0  0  0  0  0  0  0  0  0  0
  161.4031  142.8151  186.7242 C   0  0  0  0  0  0  0  0  0  0  0  0
  160.1016  142.7027  186.5155 N   0  0  0  0  0  0  0  0  0  0  0  0
  159.5841  142.2583  185.3555 C   0  0  0  0  0  0  0  0  0  0  0  0
  1  2  1  0  0  0
  2  3  1  0  0  0
  3  4  1  0  0  0
  4  5  1  0  0  0
  5  6  1  0  0  0
  6  7  1  0  0  0
  7  8  2  0  0  0
  8  9  1  0  0  0
  9 10  2  0  0  0
 10 11  1  0  0  0
 11 12  2  0  0  0
  6  2  1  0  0  0
 12  7  1  0  0  0
M  END
> <minimizedAffinity>
-6.10195

> <CNNscore>
0.5802384615

> <CNNaffinity>
4.8044996262

> <CNN_VS>
2.7877554893

> <CNNaffinity_variance>
0.0524637923

$$$$
[H]c1nc([H])c([C@@]2([H])N(C([H])([H])[H])C([H])([H])C([H])([H])C2([H])[H])c([H])c1[H]


 12 13  0  0  0  0  0  0  0  0999 V2000
  157.7424  140.2691  182.9408 C   0  0  0  0  0  0  0  0  0  0  0  0
  156.4407  140.5710  182.5350 N   0  0  0  0  0  0  0  0  0  0  0  0
  155.3654  140.2810  183.3957 C   0  0  0  0  0  0  0  0  0  0  0  0
  154.7042  141.6290  183.5998 C   0  0  0  0  0  0  0  0  0  0  0  0
  155.5778  142.6481  182.8585 C   0  0  0  0  0  0  0  0  0  0  0  0
  156.1965  141.7401  181.7932 C   0  0  0  0  0  0  0  0  0  0  0  0
  157.3138  142.3656  181.1103 C   0  0  0  0  0  0  0  0  0  0  0  0
  157.9004  143.4992  181.6301 C   0  0  0  0  0  0  0  0  0  0  0  0
  158.9790  144.1106  180.9738 C   0  0  0  0  0  0  0  0  0  0  0  0
  159.4387  143.5552  179.8006 C   0  0  0  0  0  0  0  0  0  0  0  0
  158.8577  142.4668  179.3233 N   0  0  0  0  0  0  0  0  0  0  0  0
  157.8223  141.8637  179.9358 C   0  0  0  0  0  0  0  0  0  0  0  0
  1  2  1  0  0  0
  2  3  1  0  0  0
  3  4  1  0  0  0
  4  5  1  0  0  0
  5  6  1  0  0  0
  6  7  1  0  0  0
  7  8  2  0  0  0
  8  9  1  0  0  0
  9 10  2  0  0  0
 10 11  1  0  0  0
 11 12  2  0  0  0
  6  2  1  0  0  0
 12  7  1  0  0  0
M  END
> <minimizedAffinity>
-5.40765

> <CNNscore>
0.5668303967

> <CNNaffinity>
4.7346963882

> <CNN_VS>
2.6837699413

> <CNNaffinity_variance>
0.0685386062

$$$$
[H]c1nc([H])c([C@@]2([H])N(C([H])([H])[H])C([H])([H])C([H])([H])C2([H])[H])c([H])c1[H]


 12 13  0  0  0  0  0  0  0  0999 V2000
  152.0098  135.8976  190.2350 C   0  0  0  0  0  0  0  0  0  0  0  0
  151.6276  136.6579  191.3424 N   0  0  0  0  0  0  0  0  0  0  0  0
  150.4042  136.3801  191.9805 C   0  0  0  0  0  0  0  0  0  0  0  0
  150.8133  136.0684  193.4058 C   0  0  0  0  0  0  0  0  0  0  0  0
  152.3459  136.1114  193.4277 C   0  0  0  0  0  0  0  0  0  0  0  0
  152.5996  137.0769  192.2678 C   0  0  0  0  0  0  0  0  0  0  0  0
  153.9884  137.0878  191.8469 C   0  0  0  0  0  0  0  0  0  0  0  0
  154.5298  138.2130  191.2638 C   0  0  0  0  0  0  0  0  0  0  0  0
  155.8707  138.2295  190.8521 C   0  0  0  0  0  0  0  0  0  0  0  0
  156.6338  137.0992  191.0424 C   0  0  0  0  0  0  0  0  0  0  0  0
  156.0896  136.0325  191.6046 N   0  0  0  0  0  0  0  0  0  0  0  0
  154.8060  135.9943  192.0071 C   0  0  0  0  0  0  0  0  0  0  0  0
  1  2  1  0  0  0
  2  3  1  0  0  0
  3  4  1  0  0  0
  4  5  1  0  0  0
  5  6  1  0  0  0
  6  7  1  0  0  0
  7  8  2  0  0  0
  8  9  1  0  0  0
  9 10  2  0  0  0
 10 11  1  0  0  0
 11 12  2  0  0  0
  6  2  1  0  0  0
 12  7  1  0  0  0
M  END
> <minimizedAffinity>
-4.42790

> <CNNscore>
0.5225810409

> <CNNaffinity>
3.7078242302

> <CNN_VS>
1.9376386404

> <CNNaffinity_variance>
0.0827805623

$$$$
[H]c1nc([H])c([C@@]2([H])N(C([H])([H])[H])C([H])([H])C([H])([H])C2([H])[H])c([H])c1[H]


 12 13  0  0  0  0  0  0  0  0999 V2000
  153.7670  136.3280  189.1757 C   0  0  0  0  0  0  0  0  0  0  0  0
  155.0309  136.3503  189.7693 N   0  0  0  0  0  0  0  0  0  0  0  0
  156.1192  136.8840  189.0539 C   0  0  0  0  0  0  0  0  0  0  0  0
  156.6162  138.0003  189.9499 C   0  0  0  0  0  0  0  0  0  0  0  0
  155.6416  138.0629  191.1321 C   0  0  0  0  0  0  0  0  0  0  0  0
  155.1490  136.6140  191.1452 C   0  0  0  0  0  0  0  0  0  0  0  0
  153.9772  136.4327  191.9819 C   0  0  0  0  0  0  0  0  0  0  0  0
  153.1469  137.4980  192.2563 C   0  0  0  0  0  0  0  0  0  0  0  0
  152.0141  137.3305  193.0666 C   0  0  0  0  0  0  0  0  0  0  0  0
  151.7493  136.0811  193.5815 C   0  0  0  0  0  0  0  0  0  0  0  0
  152.5625  135.0756  193.3025 N   0  0  0  0  0  0  0  0  0  0  0  0
  153.6543  135.2131  192.5279 C   0  0  0  0  0  0  0  0  0  0  0  0
  1  2  1  0  0  0
  2  3  1  0  0  0
  3  4  1  0  0  0
  4  5  1  0  0  0
  5  6  1  0  0  0
  6  7  1  0  0  0
  7  8  2  0  0  0
  8  9  1  0  0  0
  9 10  2  0  0  0
 10 11  1  0  0  0
 11 12  2  0  0  0
  6  2  1  0  0  0
 12  7  1  0  0  0
M  END
> <minimizedAffinity>
-4.15464

> <CNNscore>
0.5186793804

> <CNNaffinity>
3.6103756428

> <CNN_VS>
1.8726273775

> <CNNaffinity_variance>
0.1431402862

$$$$
[H]c1nc([H])c([C@@]2([H])N(C([H])([H])[H])C([H])([H])C([H])([H])C2([H])[H])c([H])c1[H]


 12 13  0  0  0  0  0  0  0  0999 V2000
  154.2790  135.8910  189.2259 C   0  0  0  0  0  0  0  0  0  0  0  0
  155.0838  137.0292  189.3108 N   0  0  0  0  0  0  0  0  0  0  0  0
  154.4885  138.2763  189.5777 C   0  0  0  0  0  0  0  0  0  0  0  0
  155.1811  138.7331  190.8456 C   0  0  0  0  0  0  0  0  0  0  0  0
  156.1059  137.5834  191.2631 C   0  0  0  0  0  0  0  0  0  0  0  0
  156.3579  136.9384  189.8984 C   0  0  0  0  0  0  0  0  0  0  0  0
  156.9715  135.6278  190.0077 C   0  0  0  0  0  0  0  0  0  0  0  0
  156.9429  134.9440  191.2039 C   0  0  0  0  0  0  0  0  0  0  0  0
  157.5365  133.6780  191.3175 C   0  0  0  0  0  0  0  0  0  0  0  0
  158.1476  133.1335  190.2101 C   0  0  0  0  0  0  0  0  0  0  0  0
  158.1607  133.8110  189.0739 N   0  0  0  0  0  0  0  0  0  0  0  0
  157.5979  135.0262  188.9421 C   0  0  0  0  0  0  0  0  0  0  0  0
  1  2  1  0  0  0
  2  3  1  0  0  0
  3  4  1  0  0  0
  4  5  1  0  0  0
  5  6  1  0  0  0
  6  7  1  0  0  0
  7  8  2  0  0  0
  8  9  1  0  0  0
  9 10  2  0  0  0
 10 11  1  0  0  0
 11 12  2  0  0  0
  6  2  1  0  0  0
 12  7  1  0  0  0
M  END
> <minimizedAffinity>
-3.98991

> <CNNscore>
0.5110132694

> <CNNaffinity>
3.6786983013

> <CNN_VS>
1.8798636198

> <CNNaffinity_variance>
0.0895655528

$$$$
[H]c1nc([H])c([C@@]2([H])N(C([H])([H])[H])C([H])([H])C([H])([H])C2([H])[H])c([H])c1[H]


 12 13  0  0  0  0  0  0  0  0999 V2000
  156.0031  134.1755  190.3809 C   0  0  0  0  0  0  0  0  0  0  0  0
  157.1922  134.5120  189.7306 N   0  0  0  0  0  0  0  0  0  0  0  0
  157.8673  133.5330  188.9777 C   0  0  0  0  0  0  0  0  0  0  0  0
  157.9336  134.1391  187.5906 C   0  0  0  0  0  0  0  0  0  0  0  0
  157.1563  135.4587  187.6652 C   0  0  0  0  0  0  0  0  0  0  0  0
  157.3318  135.7849  189.1501 C   0  0  0  0  0  0  0  0  0  0  0  0
  156.4445  136.8434  189.5955 C   0  0  0  0  0  0  0  0  0  0  0  0
  155.4559  137.3192  188.7615 C   0  0  0  0  0  0  0  0  0  0  0  0
  154.5965  138.3441  189.1844 C   0  0  0  0  0  0  0  0  0  0  0  0
  154.7612  138.8643  190.4487 C   0  0  0  0  0  0  0  0  0  0  0  0
  155.7181  138.3896  191.2291 N   0  0  0  0  0  0  0  0  0  0  0  0
  156.5536  137.4072  190.8445 C   0  0  0  0  0  0  0  0  0  0  0  0
  1  2  1  0  0  0
  2  3  1  0  0  0
  3  4  1  0  0  0
  4  5  1  0  0  0
  5  6  1  0  0  0
  6  7  1  0  0  0
  7  8  2  0  0  0
  8  9  1  0  0  0
  9 10  2  0  0  0
 10 11  1  0  0  0
 11 12  2  0  0  0
  6  2  1  0  0  0
 12  7  1  0  0  0
M  END
> <minimizedAffinity>
-3.71861

> <CNNscore>
0.5001159906

> <CNNaffinity>
3.7136559486

> <CNN_VS>
1.8572586775

> <CNNaffinity_variance>
0.0645326972

$$$$
[H]c1nc([H])c(N([H])C(=O)c2nc(-c3c(F)c([H])c([H])c([H])c3F)c([H])c([H])c2F)c([C@@]2([H])C([H])([H])[C@@]([H])(N([H])[H])C([H])([H])[C@@]([H])(C([H])([H])[H])C2([H])[H])c1[H]


 35 38  0  0  0  0  0  0  0  0999 V2000
  154.3906  138.3106  188.2837 N   0  0  0  0  0  0  0  0  0  0  0  0
  154.9650  138.0193  187.0423 C   0  0  0  0  0  0  0  0  0  0  0  0
  156.0279  137.2749  187.0025 O   0  0  0  0  0  0  0  0  0  0  0  0
  153.5288  138.9022  188.2988 H   0  0  0  0  0  0  0  0  0  0  0  0
  154.5202  138.4369  185.7228 C   0  0  0  0  0  0  0  0  0  0  0  0
  155.1453  139.4597  185.1119 N   0  0  0  0  0  0  0  0  0  0  0  0
  154.8703  139.9678  183.9089 C   0  0  0  0  0  0  0  0  0  0  0  0
  153.8081  139.3679  183.2163 C   0  0  0  0  0  0  0  0  0  0  0  0
  153.1169  138.3150  183.7791 C   0  0  0  0  0  0  0  0  0  0  0  0
  153.4935  137.8647  185.0407 C   0  0  0  0  0  0  0  0  0  0  0  0
  152.7699  136.8069  185.5701 F   0  0  0  0  0  0  0  0  0  0  0  0
  155.6096  141.0364  183.2720 C   0  0  0  0  0  0  0  0  0  0  0  0
  156.8201  140.8090  182.6336 C   0  0  0  0  0  0  0  0  0  0  0  0
  157.3725  139.5591  182.6237 F   0  0  0  0  0  0  0  0  0  0  0  0
  157.5301  141.7985  181.9952 C   0  0  0  0  0  0  0  0  0  0  0  0
  157.0560  143.0774  181.9641 C   0  0  0  0  0  0  0  0  0  0  0  0
  155.8413  143.3423  182.5989 C   0  0  0  0  0  0  0  0  0  0  0  0
  155.1532  142.3293  183.2308 C   0  0  0  0  0  0  0  0  0  0  0  0
  153.9552  142.5835  183.8578 F   0  0  0  0  0  0  0  0  0  0  0  0
  154.1438  136.9495  190.2061 C   0  0  0  0  0  0  0  0  0  0  0  0
  154.7583  136.3855  191.3297 C   0  0  0  0  0  0  0  0  0  0  0  0
  156.0657  136.6750  191.6825 C   0  0  0  0  0  0  0  0  0  0  0  0
  156.7928  137.5117  190.9539 N   0  0  0  0  0  0  0  0  0  0  0  0
  156.2242  138.0689  189.8606 C   0  0  0  0  0  0  0  0  0  0  0  0
  154.9551  137.8129  189.4736 C   0  0  0  0  0  0  0  0  0  0  0  0
  150.3519  136.0324  192.8748 C   0  0  0  0  0  0  0  0  0  0  0  0
  150.6494  136.4769  191.4013 C   0  0  0  0  0  0  0  0  0  0  0  0
  150.2199  135.3083  190.5091 C   0  0  0  0  0  0  0  0  0  0  0  0
  150.7669  135.5486  189.1547 C   0  0  0  0  0  0  0  0  0  0  0  0
  150.3087  134.6066  188.1989 N   0  0  0  0  0  0  0  0  0  0  0  0
  152.3196  135.5514  189.1790 C   0  0  0  0  0  0  0  0  0  0  0  0
  152.7370  136.8253  189.9072 C   0  0  0  0  0  0  0  0  0  0  0  0
  152.1105  136.6142  191.3445 C   0  0  0  0  0  0  0  0  0  0  0  0
  150.6671  134.7832  187.2230 H   0  0  0  0  0  0  0  0  0  0  0  0
  149.3126  134.3556  188.2155 H   0  0  0  0  0  0  0  0  0  0  0  0
 26 27  1  0  0  0
 27 28  1  0  0  0
 28 29  1  0  0  0
 29 30  1  0  0  0
 29 31  1  0  0  0
 31 32  1  0  0  0
 32 20  1  0  0  0
 20 21  2  0  0  0
 21 22  1  0  0  0
 22 23  2  0  0  0
 23 24  1  0  0  0
 24 25  2  0  0  0
 25  1  1  0  0  0
  1  2  1  0  0  0
  2  3  2  0  0  0
  2  5  1  0  0  0
  5  6  2  0  0  0
  6  7  1  0  0  0
  7 12  1  0  0  0
 12 13  2  0  0  0
 13 14  1  0  0  0
 13 15  1  0  0  0
 15 16  2  0  0  0
 16 17  1  0  0  0
 17 18  2  0  0  0
 18 19  1  0  0  0
  7  8  2  0  0  0
  8  9  1  0  0  0
  9 10  2  0  0  0
 10 11  1  0  0  0
 32 33  1  0  0  0
 33 27  1  0  0  0
 25 20  1  0  0  0
 10  5  1  0  0  0
 18 12  1  0  0  0
 30 34  1  0  0  0
 30 35  1  0  0  0
  1  4  1  0  0  0
M  END
> <minimizedAffinity>
-8.37349

> <CNNscore>
0.4367404282

> <CNNaffinity>
6.3243508339

> <CNN_VS>
2.7620997429

> <CNNaffinity_variance>
0.0629234985

$$$$
[H]c1nc([H])c(N([H])C(=O)c2nc(-c3c(F)c([H])c([H])c([H])c3F)c([H])c([H])c2F)c([C@@]2([H])C([H])([H])[C@@]([H])(N([H])[H])C([H])([H])[C@@]([H])(C([H])([H])[H])C2([H])[H])c1[H]


 35 38  0  0  0  0  0  0  0  0999 V2000
  151.2211  139.7676  181.4404 N   0  0  0  0  0  0  0  0  0  0  0  0
  152.3412  139.0063  181.7890 C   0  0  0  0  0  0  0  0  0  0  0  0
  152.4533  137.8027  181.3155 O   0  0  0  0  0  0  0  0  0  0  0  0
  151.1503  140.7388  181.8208 H   0  0  0  0  0  0  0  0  0  0  0  0
  153.4608  139.3850  182.6354 C   0  0  0  0  0  0  0  0  0  0  0  0
  154.3430  140.2974  182.1890 N   0  0  0  0  0  0  0  0  0  0  0  0
  155.4186  140.7581  182.8307 C   0  0  0  0  0  0  0  0  0  0  0  0
  155.6498  140.2223  184.1063 C   0  0  0  0  0  0  0  0  0  0  0  0
  154.7903  139.2797  184.6314 C   0  0  0  0  0  0  0  0  0  0  0  0
  153.6965  138.8744  183.8726 C   0  0  0  0  0  0  0  0  0  0  0  0
  152.8605  137.9230  184.4371 F   0  0  0  0  0  0  0  0  0  0  0  0
  156.3082  141.7824  182.3274 C   0  0  0  0  0  0  0  0  0  0  0  0
  156.0314  143.1328  182.4832 C   0  0  0  0  0  0  0  0  0  0  0  0
  154.8754  143.5362  183.0901 F   0  0  0  0  0  0  0  0  0  0  0  0
  156.8717  144.1277  182.0414 C   0  0  0  0  0  0  0  0  0  0  0  0
  158.0433  143.8144  181.4166 C   0  0  0  0  0  0  0  0  0  0  0  0
  158.3524  142.4645  181.2408 C   0  0  0  0  0  0  0  0  0  0  0  0
  157.4895  141.4903  181.6942 C   0  0  0  0  0  0  0  0  0  0  0  0
  157.7885  140.1581  181.5247 F   0  0  0  0  0  0  0  0  0  0  0  0
  149.0833  138.7687  181.2381 C   0  0  0  0  0  0  0  0  0  0  0  0
  148.0647  138.3438  180.3778 C   0  0  0  0  0  0  0  0  0  0  0  0
  148.1942  138.3841  178.9997 C   0  0  0  0  0  0  0  0  0  0  0  0
  149.3083  138.8353  178.4385 N   0  0  0  0  0  0  0  0  0  0  0  0
  150.3079  139.2552  179.2471 C   0  0  0  0  0  0  0  0  0  0  0  0
  150.2258  139.2402  180.5957 C   0  0  0  0  0  0  0  0  0  0  0  0
  149.3736  134.9176  183.9633 C   0  0  0  0  0  0  0  0  0  0  0  0
  149.3836  136.4736  184.1544 C   0  0  0  0  0  0  0  0  0  0  0  0
  148.0900  136.8194  184.8982 C   0  0  0  0  0  0  0  0  0  0  0  0
  147.9029  138.2859  184.8221 C   0  0  0  0  0  0  0  0  0  0  0  0
  146.8138  138.7451  185.6057 N   0  0  0  0  0  0  0  0  0  0  0  0
  147.7134  138.7426  183.3500 C   0  0  0  0  0  0  0  0  0  0  0  0
  149.0673  138.5718  182.6681 C   0  0  0  0  0  0  0  0  0  0  0  0
  149.3138  137.0138  182.7906 C   0  0  0  0  0  0  0  0  0  0  0  0
  146.6869  139.7917  185.5844 H   0  0  0  0  0  0  0  0  0  0  0  0
  146.7049  138.3521  186.5486 H   0  0  0  0  0  0  0  0  0  0  0  0
 26 27  1  0  0  0
 27 28  1  0  0  0
 28 29  1  0  0  0
 29 30  1  0  0  0
 29 31  1  0  0  0
 31 32  1  0  0  0
 32 20  1  0  0  0
 20 21  2  0  0  0
 21 22  1  0  0  0
 22 23  2  0  0  0
 23 24  1  0  0  0
 24 25  2  0  0  0
 25  1  1  0  0  0
  1  2  1  0  0  0
  2  3  2  0  0  0
  2  5  1  0  0  0
  5  6  2  0  0  0
  6  7  1  0  0  0
  7 12  1  0  0  0
 12 13  2  0  0  0
 13 14  1  0  0  0
 13 15  1  0  0  0
 15 16  2  0  0  0
 16 17  1  0  0  0
 17 18  2  0  0  0
 18 19  1  0  0  0
  7  8  2  0  0  0
  8  9  1  0  0  0
  9 10  2  0  0  0
 10 11  1  0  0  0
 32 33  1  0  0  0
 33 27  1  0  0  0
 25 20  1  0  0  0
 10  5  1  0  0  0
 18 12  1  0  0  0
 30 34  1  0  0  0
 30 35  1  0  0  0
  1  4  1  0  0  0
M  END
> <minimizedAffinity>
-8.89460

> <CNNscore>
0.4017350078

> <CNNaffinity>
6.6273980141

> <CNN_VS>
2.6624577045

> <CNNaffinity_variance>
0.0555665307

$$$$
[H]c1nc([H])c(N([H])C(=O)c2nc(-c3c(F)c([H])c([H])c([H])c3F)c([H])c([H])c2F)c([C@@]2([H])C([H])([H])[C@@]([H])(N([H])[H])C([H])([H])[C@@]([H])(C([H])([H])[H])C2([H])[H])c1[H]


 35 38  0  0  0  0  0  0  0  0999 V2000
  153.6017  137.1574  185.1629 N   0  0  0  0  0  0  0  0  0  0  0  0
  154.1813  138.0976  184.3049 C   0  0  0  0  0  0  0  0  0  0  0  0
  153.5889  138.3711  183.1825 O   0  0  0  0  0  0  0  0  0  0  0  0
  154.0847  136.9558  186.0678 H   0  0  0  0  0  0  0  0  0  0  0  0
  155.4031  138.8612  184.4975 C   0  0  0  0  0  0  0  0  0  0  0  0
  155.8705  139.6187  183.4886 N   0  0  0  0  0  0  0  0  0  0  0  0
  156.9675  140.3786  183.4942 C   0  0  0  0  0  0  0  0  0  0  0  0
  157.7112  140.3759  184.6836 C   0  0  0  0  0  0  0  0  0  0  0  0
  157.2968  139.6217  185.7617 C   0  0  0  0  0  0  0  0  0  0  0  0
  156.1329  138.8681  185.6439 C   0  0  0  0  0  0  0  0  0  0  0  0
  155.7549  138.1223  186.7501 F   0  0  0  0  0  0  0  0  0  0  0  0
  157.3988  141.2192  182.3981 C   0  0  0  0  0  0  0  0  0  0  0  0
  158.2121  140.7374  181.3828 C   0  0  0  0  0  0  0  0  0  0  0  0
  158.6656  139.4486  181.4129 F   0  0  0  0  0  0  0  0  0  0  0  0
  158.6137  141.5041  180.3143 C   0  0  0  0  0  0  0  0  0  0  0  0
  158.2145  142.8044  180.2093 C   0  0  0  0  0  0  0  0  0  0  0  0
  157.3970  143.3228  181.2152 C   0  0  0  0  0  0  0  0  0  0  0  0
  157.0117  142.5294  182.2740 C   0  0  0  0  0  0  0  0  0  0  0  0
  156.2057  143.0339  183.2683 F   0  0  0  0  0  0  0  0  0  0  0  0
  152.5351  135.2079  184.3439 C   0  0  0  0  0  0  0  0  0  0  0  0
  151.3254  134.5469  184.1031 C   0  0  0  0  0  0  0  0  0  0  0  0
  150.0970  135.1505  184.3129 C   0  0  0  0  0  0  0  0  0  0  0  0
  150.0242  136.3982  184.7574 N   0  0  0  0  0  0  0  0  0  0  0  0
  151.1787  137.0594  185.0012 C   0  0  0  0  0  0  0  0  0  0  0  0
  152.3997  136.5109  184.8171 C   0  0  0  0  0  0  0  0  0  0  0  0
  154.3567  133.7966  180.2169 C   0  0  0  0  0  0  0  0  0  0  0  0
  154.8663  134.0662  181.6747 C   0  0  0  0  0  0  0  0  0  0  0  0
  155.2724  132.7028  182.2427 C   0  0  0  0  0  0  0  0  0  0  0  0
  155.4577  132.8585  183.7032 C   0  0  0  0  0  0  0  0  0  0  0  0
  155.9823  131.6945  184.3204 N   0  0  0  0  0  0  0  0  0  0  0  0
  154.1223  133.2544  184.3899 C   0  0  0  0  0  0  0  0  0  0  0  0
  153.8281  134.6897  183.9649 C   0  0  0  0  0  0  0  0  0  0  0  0
  153.6836  134.5549  182.3952 C   0  0  0  0  0  0  0  0  0  0  0  0
  156.1472  131.8010  185.3565 H   0  0  0  0  0  0  0  0  0  0  0  0
  156.7517  131.2075  183.8449 H   0  0  0  0  0  0  0  0  0  0  0  0
 26 27  1  0  0  0
 27 28  1  0  0  0
 28 29  1  0  0  0
 29 30  1  0  0  0
 29 31  1  0  0  0
 31 32  1  0  0  0
 32 20  1  0  0  0
 20 21  2  0  0  0
 21 22  1  0  0  0
 22 23  2  0  0  0
 23 24  1  0  0  0
 24 25  2  0  0  0
 25  1  1  0  0  0
  1  2  1  0  0  0
  2  3  2  0  0  0
  2  5  1  0  0  0
  5  6  2  0  0  0
  6  7  1  0  0  0
  7 12  1  0  0  0
 12 13  2  0  0  0
 13 14  1  0  0  0
 13 15  1  0  0  0
 15 16  2  0  0  0
 16 17  1  0  0  0
 17 18  2  0  0  0
 18 19  1  0  0  0
  7  8  2  0  0  0
  8  9  1  0  0  0
  9 10  2  0  0  0
 10 11  1  0  0  0
 32 33  1  0  0  0
 33 27  1  0  0  0
 25 20  1  0  0  0
 10  5  1  0  0  0
 18 12  1  0  0  0
 30 34  1  0  0  0
 30 35  1  0  0  0
  1  4  1  0  0  0
M  END
> <minimizedAffinity>
-7.01961

> <CNNscore>
0.3503823280

> <CNNaffinity>
6.4951071739

> <CNN_VS>
2.2757706642

> <CNNaffinity_variance>
0.2110526860

$$$$
[H]c1nc([H])c(N([H])C(=O)c2nc(-c3c(F)c([H])c([H])c([H])c3F)c([H])c([H])c2F)c([C@@]2([H])C([H])([H])[C@@]([H])(N([H])[H])C([H])([H])[C@@]([H])(C([H])([H])[H])C2([H])[H])c1[H]


 35 38  0  0  0  0  0  0  0  0999 V2000
  154.3026  137.6590  185.9526 N   0  0  0  0  0  0  0  0  0  0  0  0
  153.8193  137.9471  187.2329 C   0  0  0  0  0  0  0  0  0  0  0  0
  152.6134  138.4117  187.3580 O   0  0  0  0  0  0  0  0  0  0  0  0
  155.2715  137.2754  185.8689 H   0  0  0  0  0  0  0  0  0  0  0  0
  154.4955  137.7848  188.5095 C   0  0  0  0  0  0  0  0  0  0  0  0
  153.8305  137.2306  189.5395 N   0  0  0  0  0  0  0  0  0  0  0  0
  154.2952  137.0067  190.7703 C   0  0  0  0  0  0  0  0  0  0  0  0
  155.6202  137.4012  191.0083 C   0  0  0  0  0  0  0  0  0  0  0  0
  156.3656  137.9794  190.0018 C   0  0  0  0  0  0  0  0  0  0  0  0
  155.7780  138.1620  188.7537 C   0  0  0  0  0  0  0  0  0  0  0  0
  156.5617  138.7497  187.7723 F   0  0  0  0  0  0  0  0  0  0  0  0
  153.5549  136.3564  191.8300 C   0  0  0  0  0  0  0  0  0  0  0  0
  152.7980  137.0770  192.7424 C   0  0  0  0  0  0  0  0  0  0  0  0
  152.7634  138.4420  192.6870 F   0  0  0  0  0  0  0  0  0  0  0  0
  152.0615  136.4848  193.7412 C   0  0  0  0  0  0  0  0  0  0  0  0
  152.0462  135.1272  193.8749 C   0  0  0  0  0  0  0  0  0  0  0  0
  152.7989  134.3709  192.9748 C   0  0  0  0  0  0  0  0  0  0  0  0
  153.5274  134.9937  191.9846 C   0  0  0  0  0  0  0  0  0  0  0  0
  154.2708  134.2541  191.0939 F   0  0  0  0  0  0  0  0  0  0  0  0
  153.9165  138.9047  183.9756 C   0  0  0  0  0  0  0  0  0  0  0  0
  153.1691  139.0355  182.7999 C   0  0  0  0  0  0  0  0  0  0  0  0
  152.0989  138.2072  182.5064 C   0  0  0  0  0  0  0  0  0  0  0  0
  151.7398  137.2444  183.3451 N   0  0  0  0  0  0  0  0  0  0  0  0
  152.4472  137.0939  184.4880 C   0  0  0  0  0  0  0  0  0  0  0  0
  153.5015  137.8732  184.8148 C   0  0  0  0  0  0  0  0  0  0  0  0
  154.9578  143.3170  182.6383 C   0  0  0  0  0  0  0  0  0  0  0  0
  155.3745  142.3249  183.7783 C   0  0  0  0  0  0  0  0  0  0  0  0
  156.8427  141.9727  183.5205 C   0  0  0  0  0  0  0  0  0  0  0  0
  157.1850  140.8104  184.3711 C   0  0  0  0  0  0  0  0  0  0  0  0
  158.5646  140.4845  184.3317 N   0  0  0  0  0  0  0  0  0  0  0  0
  156.3452  139.5671  183.9708 C   0  0  0  0  0  0  0  0  0  0  0  0
  154.9128  139.8550  184.4095 C   0  0  0  0  0  0  0  0  0  0  0  0
  154.5467  141.1332  183.5519 C   0  0  0  0  0  0  0  0  0  0  0  0
  158.8280  139.6766  184.9561 H   0  0  0  0  0  0  0  0  0  0  0  0
  159.2393  141.2577  184.3787 H   0  0  0  0  0  0  0  0  0  0  0  0
 26 27  1  0  0  0
 27 28  1  0  0  0
 28 29  1  0  0  0
 29 30  1  0  0  0
 29 31  1  0  0  0
 31 32  1  0  0  0
 32 20  1  0  0  0
 20 21  2  0  0  0
 21 22  1  0  0  0
 22 23  2  0  0  0
 23 24  1  0  0  0
 24 25  2  0  0  0
 25  1  1  0  0  0
  1  2  1  0  0  0
  2  3  2  0  0  0
  2  5  1  0  0  0
  5  6  2  0  0  0
  6  7  1  0  0  0
  7 12  1  0  0  0
 12 13  2  0  0  0
 13 14  1  0  0  0
 13 15  1  0  0  0
 15 16  2  0  0  0
 16 17  1  0  0  0
 17 18  2  0  0  0
 18 19  1  0  0  0
  7  8  2  0  0  0
  8  9  1  0  0  0
  9 10  2  0  0  0
 10 11  1  0  0  0
 32 33  1  0  0  0
 33 27  1  0  0  0
 25 20  1  0  0  0
 10  5  1  0  0  0
 18 12  1  0  0  0
 30 34  1  0  0  0
 30 35  1  0  0  0
  1  4  1  0  0  0
M  END
> <minimizedAffinity>
-8.70508

> <CNNscore>
0.3352274895

> <CNNaffinity>
6.3675227165

> <CNN_VS>
2.1345686913

> <CNNaffinity_variance>
0.1501685828

$$$$
[H]c1nc([H])c(N([H])C(=O)c2nc(-c3c(F)c([H])c([H])c([H])c3F)c([H])c([H])c2F)c([C@@]2([H])C([H])([H])[C@@]([H])(N([H])[H])C([H])([H])[C@@]([H])(C([H])([H])[H])C2([H])[H])c1[H]


 35 38  0  0  0  0  0  0  0  0999 V2000
  154.7238  137.6139  185.5445 N   0  0  0  0  0  0  0  0  0  0  0  0
  154.2419  137.4418  186.8460 C   0  0  0  0  0  0  0  0  0  0  0  0
  152.9597  137.3647  187.0348 O   0  0  0  0  0  0  0  0  0  0  0  0
  155.7590  137.6634  185.4072 H   0  0  0  0  0  0  0  0  0  0  0  0
  155.0011  137.3183  188.0795 C   0  0  0  0  0  0  0  0  0  0  0  0
  155.8376  136.2760  188.2347 N   0  0  0  0  0  0  0  0  0  0  0  0
  156.6060  136.0114  189.2933 C   0  0  0  0  0  0  0  0  0  0  0  0
  156.5207  136.9213  190.3576 C   0  0  0  0  0  0  0  0  0  0  0  0
  155.6827  138.0139  190.2736 C   0  0  0  0  0  0  0  0  0  0  0  0
  154.9285  138.1920  189.1178 C   0  0  0  0  0  0  0  0  0  0  0  0
  154.0973  139.3012  189.0771 F   0  0  0  0  0  0  0  0  0  0  0  0
  157.5315  134.9032  189.3892 C   0  0  0  0  0  0  0  0  0  0  0  0
  158.5190  134.6905  188.4383 C   0  0  0  0  0  0  0  0  0  0  0  0
  158.6194  135.5111  187.3502 F   0  0  0  0  0  0  0  0  0  0  0  0
  159.4302  133.6638  188.5185 C   0  0  0  0  0  0  0  0  0  0  0  0
  159.3968  132.7919  189.5671 C   0  0  0  0  0  0  0  0  0  0  0  0
  158.4140  132.9751  190.5415 C   0  0  0  0  0  0  0  0  0  0  0  0
  157.5145  134.0134  190.4330 C   0  0  0  0  0  0  0  0  0  0  0  0
  156.5439  134.2000  191.3902 F   0  0  0  0  0  0  0  0  0  0  0  0
  153.9607  138.8609  183.6812 C   0  0  0  0  0  0  0  0  0  0  0  0
  153.1440  138.8900  182.5453 C   0  0  0  0  0  0  0  0  0  0  0  0
  152.2792  137.8561  182.2281 C   0  0  0  0  0  0  0  0  0  0  0  0
  152.1946  136.7837  183.0042 N   0  0  0  0  0  0  0  0  0  0  0  0
  152.9753  136.7284  184.1073 C   0  0  0  0  0  0  0  0  0  0  0  0
  153.8376  137.7090  184.4546 C   0  0  0  0  0  0  0  0  0  0  0  0
  153.8692  143.4763  182.6657 C   0  0  0  0  0  0  0  0  0  0  0  0
  154.5707  142.5338  183.7034 C   0  0  0  0  0  0  0  0  0  0  0  0
  156.0630  142.5568  183.3585 C   0  0  0  0  0  0  0  0  0  0  0  0
  156.7148  141.4519  184.0974 C   0  0  0  0  0  0  0  0  0  0  0  0
  158.1277  141.4642  183.9757 N   0  0  0  0  0  0  0  0  0  0  0  0
  156.1647  140.0764  183.6317 C   0  0  0  0  0  0  0  0  0  0  0  0
  154.7328  139.9870  184.1501 C   0  0  0  0  0  0  0  0  0  0  0  0
  154.0304  141.1991  183.4147 C   0  0  0  0  0  0  0  0  0  0  0  0
  158.6075  140.6999  184.5212 H   0  0  0  0  0  0  0  0  0  0  0  0
  158.6060  142.3696  184.0579 H   0  0  0  0  0  0  0  0  0  0  0  0
 26 27  1  0  0  0
 27 28  1  0  0  0
 28 29  1  0  0  0
 29 30  1  0  0  0
 29 31  1  0  0  0
 31 32  1  0  0  0
 32 20  1  0  0  0
 20 21  2  0  0  0
 21 22  1  0  0  0
 22 23  2  0  0  0
 23 24  1  0  0  0
 24 25  2  0  0  0
 25  1  1  0  0  0
  1  2  1  0  0  0
  2  3  2  0  0  0
  2  5  1  0  0  0
  5  6  2  0  0  0
  6  7  1  0  0  0
  7 12  1  0  0  0
 12 13  2  0  0  0
 13 14  1  0  0  0
 13 15  1  0  0  0
 15 16  2  0  0  0
 16 17  1  0  0  0
 17 18  2  0  0  0
 18 19  1  0  0  0
  7  8  2  0  0  0
  8  9  1  0  0  0
  9 10  2  0  0  0
 10 11  1  0  0  0
 32 33  1  0  0  0
 33 27  1  0  0  0
 25 20  1  0  0  0
 10  5  1  0  0  0
 18 12  1  0  0  0
 30 34  1  0  0  0
 30 35  1  0  0  0
  1  4  1  0  0  0
M  END
> <minimizedAffinity>
-9.12525

> <CNNscore>
0.3116017282

> <CNNaffinity>
6.4118895531

> <CNN_VS>
1.9979559183

> <CNNaffinity_variance>
0.1018036976

$$$$
[H]c1nc([H])c(N([H])C(=O)c2nc(-c3c(F)c([H])c([H])c([H])c3F)c([H])c([H])c2F)c([C@@]2([H])C([H])([H])[C@@]([H])(N([H])[H])C([H])([H])[C@@]([H])(C([H])([H])[H])C2([H])[H])c1[H]


 35 38  0  0  0  0  0  0  0  0999 V2000
  154.7512  138.0433  186.3186 N   0  0  0  0  0  0  0  0  0  0  0  0
  153.9906  138.2909  187.4658 C   0  0  0  0  0  0  0  0  0  0  0  0
  152.8806  138.9543  187.3509 O   0  0  0  0  0  0  0  0  0  0  0  0
  155.6371  137.4986  186.4255 H   0  0  0  0  0  0  0  0  0  0  0  0
  154.2654  137.8857  188.8345 C   0  0  0  0  0  0  0  0  0  0  0  0
  153.2790  137.3400  189.5689 N   0  0  0  0  0  0  0  0  0  0  0  0
  153.3569  136.9136  190.8311 C   0  0  0  0  0  0  0  0  0  0  0  0
  154.6054  137.0602  191.4536 C   0  0  0  0  0  0  0  0  0  0  0  0
  155.6652  137.6138  190.7657 C   0  0  0  0  0  0  0  0  0  0  0  0
  155.4696  138.0215  189.4496 C   0  0  0  0  0  0  0  0  0  0  0  0
  156.5603  138.5756  188.7968 F   0  0  0  0  0  0  0  0  0  0  0  0
  152.2781  136.2827  191.5606 C   0  0  0  0  0  0  0  0  0  0  0  0
  151.6878  136.8868  192.6611 C   0  0  0  0  0  0  0  0  0  0  0  0
  152.1429  138.0928  193.1149 F   0  0  0  0  0  0  0  0  0  0  0  0
  150.6425  136.3248  193.3557 C   0  0  0  0  0  0  0  0  0  0  0  0
  150.1316  135.1180  192.9765 C   0  0  0  0  0  0  0  0  0  0  0  0
  150.7036  134.4807  191.8741 C   0  0  0  0  0  0  0  0  0  0  0  0
  151.7508  135.0692  191.1986 C   0  0  0  0  0  0  0  0  0  0  0  0
  152.3186  134.4467  190.1109 F   0  0  0  0  0  0  0  0  0  0  0  0
  153.5372  137.6251  184.3286 C   0  0  0  0  0  0  0  0  0  0  0  0
  153.0422  138.1434  183.1267 C   0  0  0  0  0  0  0  0  0  0  0  0
  153.3280  139.4298  182.7013 C   0  0  0  0  0  0  0  0  0  0  0  0
  154.0945  140.2286  183.4321 N   0  0  0  0  0  0  0  0  0  0  0  0
  154.5839  139.7537  184.6001 C   0  0  0  0  0  0  0  0  0  0  0  0
  154.3281  138.5089  185.0590 C   0  0  0  0  0  0  0  0  0  0  0  0
  155.0312  133.5907  182.3707 C   0  0  0  0  0  0  0  0  0  0  0  0
  154.3787  134.0496  183.7202 C   0  0  0  0  0  0  0  0  0  0  0  0
  152.9741  133.4391  183.7431 C   0  0  0  0  0  0  0  0  0  0  0  0
  152.2141  134.0942  184.8316 C   0  0  0  0  0  0  0  0  0  0  0  0
  150.9427  133.5050  185.0496 N   0  0  0  0  0  0  0  0  0  0  0  0
  152.0425  135.6115  184.5494 C   0  0  0  0  0  0  0  0  0  0  0  0
  153.4221  136.2402  184.7192 C   0  0  0  0  0  0  0  0  0  0  0  0
  154.2673  135.5090  183.5994 C   0  0  0  0  0  0  0  0  0  0  0  0
  150.4021  133.9427  185.8421 H   0  0  0  0  0  0  0  0  0  0  0  0
  150.8858  132.4792  185.0504 H   0  0  0  0  0  0  0  0  0  0  0  0
 26 27  1  0  0  0
 27 28  1  0  0  0
 28 29  1  0  0  0
 29 30  1  0  0  0
 29 31  1  0  0  0
 31 32  1  0  0  0
 32 20  1  0  0  0
 20 21  2  0  0  0
 21 22  1  0  0  0
 22 23  2  0  0  0
 23 24  1  0  0  0
 24 25  2  0  0  0
 25  1  1  0  0  0
  1  2  1  0  0  0
  2  3  2  0  0  0
  2  5  1  0  0  0
  5  6  2  0  0  0
  6  7  1  0  0  0
  7 12  1  0  0  0
 12 13  2  0  0  0
 13 14  1  0  0  0
 13 15  1  0  0  0
 15 16  2  0  0  0
 16 17  1  0  0  0
 17 18  2  0  0  0
 18 19  1  0  0  0
  7  8  2  0  0  0
  8  9  1  0  0  0
  9 10  2  0  0  0
 10 11  1  0  0  0
 32 33  1  0  0  0
 33 27  1  0  0  0
 25 20  1  0  0  0
 10  5  1  0  0  0
 18 12  1  0  0  0
 30 34  1  0  0  0
 30 35  1  0  0  0
  1  4  1  0  0  0
M  END
> <minimizedAffinity>
-7.07827

> <CNNscore>
0.3034820855

> <CNNaffinity>
5.9713115692

> <CNN_VS>
1.8121861219

> <CNNaffinity_variance>
0.0905887485

$$$$
[H]c1nc([H])c(N([H])C(=O)c2nc(-c3c(F)c([H])c([H])c([H])c3F)c([H])c([H])c2F)c([C@@]2([H])C([H])([H])[C@@]([H])(N([H])[H])C([H])([H])[C@@]([H])(C([H])([H])[H])C2([H])[H])c1[H]


 35 38  0  0  0  0  0  0  0  0999 V2000
  154.8162  137.3974  185.4150 N   0  0  0  0  0  0  0  0  0  0  0  0
  154.2783  137.2846  186.7009 C   0  0  0  0  0  0  0  0  0  0  0  0
  152.9890  137.2165  186.8374 O   0  0  0  0  0  0  0  0  0  0  0  0
  155.8565  137.4404  185.3205 H   0  0  0  0  0  0  0  0  0  0  0  0
  154.9833  137.2171  187.9704 C   0  0  0  0  0  0  0  0  0  0  0  0
  155.8156  136.1867  188.2058 N   0  0  0  0  0  0  0  0  0  0  0  0
  156.5379  135.9709  189.3071 C   0  0  0  0  0  0  0  0  0  0  0  0
  156.4031  136.9243  190.3272 C   0  0  0  0  0  0  0  0  0  0  0  0
  155.5660  138.0080  190.1607 C   0  0  0  0  0  0  0  0  0  0  0  0
  154.8624  138.1334  188.9667 C   0  0  0  0  0  0  0  0  0  0  0  0
  154.0300  139.2355  188.8429 F   0  0  0  0  0  0  0  0  0  0  0  0
  157.4621  134.8725  189.4899 C   0  0  0  0  0  0  0  0  0  0  0  0
  158.4691  134.6037  188.5744 C   0  0  0  0  0  0  0  0  0  0  0  0
  158.5912  135.3560  187.4401 F   0  0  0  0  0  0  0  0  0  0  0  0
  159.3792  133.5857  188.7362 C   0  0  0  0  0  0  0  0  0  0  0  0
  159.3248  132.7798  189.8356 C   0  0  0  0  0  0  0  0  0  0  0  0
  158.3221  133.0207  190.7766 C   0  0  0  0  0  0  0  0  0  0  0  0
  157.4242  134.0485  190.5860 C   0  0  0  0  0  0  0  0  0  0  0  0
  156.4340  134.2917  191.5098 F   0  0  0  0  0  0  0  0  0  0  0  0
  153.6469  136.2071  183.7342 C   0  0  0  0  0  0  0  0  0  0  0  0
  152.7326  136.2666  182.6765 C   0  0  0  0  0  0  0  0  0  0  0  0
  152.2108  137.4633  182.2149 C   0  0  0  0  0  0  0  0  0  0  0  0
  152.5664  138.6144  182.7699 N   0  0  0  0  0  0  0  0  0  0  0  0
  153.4468  138.5854  183.7963 C   0  0  0  0  0  0  0  0  0  0  0  0
  153.9781  137.4431  184.2846 C   0  0  0  0  0  0  0  0  0  0  0  0
  155.6629  132.7121  181.2719 C   0  0  0  0  0  0  0  0  0  0  0  0
  155.5911  133.1832  182.7654 C   0  0  0  0  0  0  0  0  0  0  0  0
  154.7980  132.1072  183.5134 C   0  0  0  0  0  0  0  0  0  0  0  0
  154.4350  132.6537  184.8405 C   0  0  0  0  0  0  0  0  0  0  0  0
  153.8256  131.6920  185.6859 N   0  0  0  0  0  0  0  0  0  0  0  0
  153.4994  133.8843  184.6935 C   0  0  0  0  0  0  0  0  0  0  0  0
  154.3553  135.0109  184.1233 C   0  0  0  0  0  0  0  0  0  0  0  0
  154.8026  134.4215  182.7248 C   0  0  0  0  0  0  0  0  0  0  0  0
  153.5884  132.0597  186.6453 H   0  0  0  0  0  0  0  0  0  0  0  0
  154.2370  130.7511  185.7129 H   0  0  0  0  0  0  0  0  0  0  0  0
 26 27  1  0  0  0
 27 28  1  0  0  0
 28 29  1  0  0  0
 29 30  1  0  0  0
 29 31  1  0  0  0
 31 32  1  0  0  0
 32 20  1  0  0  0
 20 21  2  0  0  0
 21 22  1  0  0  0
 22 23  2  0  0  0
 23 24  1  0  0  0
 24 25  2  0  0  0
 25  1  1  0  0  0
  1  2  1  0  0  0
  2  3  2  0  0  0
  2  5  1  0  0  0
  5  6  2  0  0  0
  6  7  1  0  0  0
  7 12  1  0  0  0
 12 13  2  0  0  0
 13 14  1  0  0  0
 13 15  1  0  0  0
 15 16  2  0  0  0
 16 17  1  0  0  0
 17 18  2  0  0  0
 18 19  1  0  0  0
  7  8  2  0  0  0
  8  9  1  0  0  0
  9 10  2  0  0  0
 10 11  1  0  0  0
 32 33  1  0  0  0
 33 27  1  0  0  0
 25 20  1  0  0  0
 10  5  1  0  0  0
 18 12  1  0  0  0
 30 34  1  0  0  0
 30 35  1  0  0  0
  1  4  1  0  0  0
M  END
> <minimizedAffinity>
-6.77242

> <CNNscore>
0.2970764637

> <CNNaffinity>
5.8562316895

> <CNN_VS>
1.7397485971

> <CNNaffinity_variance>
0.1014397293

$$$$
[H]c1nc([H])c(N([H])C(=O)c2nc(-c3c(F)c([H])c([H])c([H])c3F)c([H])c([H])c2F)c([C@@]2([H])C([H])([H])[C@@]([H])(N([H])[H])C([H])([H])[C@@]([H])(C([H])([H])[H])C2([H])[H])c1[H]


 35 38  0  0  0  0  0  0  0  0999 V2000
  152.7568  137.7875  186.8312 N   0  0  0  0  0  0  0  0  0  0  0  0
  153.5212  136.9131  187.6102 C   0  0  0  0  0  0  0  0  0  0  0  0
  153.8179  135.7433  187.1316 O   0  0  0  0  0  0  0  0  0  0  0  0
  152.5352  138.7299  187.2258 H   0  0  0  0  0  0  0  0  0  0  0  0
  154.0707  137.1342  188.9378 C   0  0  0  0  0  0  0  0  0  0  0  0
  153.4407  136.6110  190.0052 N   0  0  0  0  0  0  0  0  0  0  0  0
  153.8049  136.7139  191.2850 C   0  0  0  0  0  0  0  0  0  0  0  0
  154.9691  137.4554  191.5351 C   0  0  0  0  0  0  0  0  0  0  0  0
  155.6689  138.0251  190.4917 C   0  0  0  0  0  0  0  0  0  0  0  0
  155.1972  137.8497  189.1943 C   0  0  0  0  0  0  0  0  0  0  0  0
  155.9291  138.4421  188.1763 F   0  0  0  0  0  0  0  0  0  0  0  0
  153.1207  136.0853  192.3944 C   0  0  0  0  0  0  0  0  0  0  0  0
  153.2637  134.7334  192.6707 C   0  0  0  0  0  0  0  0  0  0  0  0
  154.0346  133.9411  191.8672 F   0  0  0  0  0  0  0  0  0  0  0  0
  152.6495  134.1151  193.7343 C   0  0  0  0  0  0  0  0  0  0  0  0
  151.8547  134.8291  194.5825 C   0  0  0  0  0  0  0  0  0  0  0  0
  151.6867  136.1922  194.3325 C   0  0  0  0  0  0  0  0  0  0  0  0
  152.3152  136.7832  193.2579 C   0  0  0  0  0  0  0  0  0  0  0  0
  152.1544  138.1263  193.0063 F   0  0  0  0  0  0  0  0  0  0  0  0
  150.9693  137.0338  185.4726 C   0  0  0  0  0  0  0  0  0  0  0  0
  150.5165  136.7595  184.1773 C   0  0  0  0  0  0  0  0  0  0  0  0
  151.3429  136.8472  183.0696 C   0  0  0  0  0  0  0  0  0  0  0  0
  152.6146  137.2008  183.2015 N   0  0  0  0  0  0  0  0  0  0  0  0
  153.0776  137.4745  184.4425 C   0  0  0  0  0  0  0  0  0  0  0  0
  152.3086  137.4082  185.5515 C   0  0  0  0  0  0  0  0  0  0  0  0
  149.1738  133.0901  187.3607 C   0  0  0  0  0  0  0  0  0  0  0  0
  149.3569  134.5912  187.7739 C   0  0  0  0  0  0  0  0  0  0  0  0
  147.9478  135.1872  187.8481 C   0  0  0  0  0  0  0  0  0  0  0  0
  148.0829  136.6595  187.9221 C   0  0  0  0  0  0  0  0  0  0  0  0
  146.8467  137.3169  188.1467 N   0  0  0  0  0  0  0  0  0  0  0  0
  148.7426  137.2188  186.6324 C   0  0  0  0  0  0  0  0  0  0  0  0
  150.2021  136.7762  186.6680 C   0  0  0  0  0  0  0  0  0  0  0  0
  150.0780  135.1991  186.6482 C   0  0  0  0  0  0  0  0  0  0  0  0
  146.9321  138.3646  188.2311 H   0  0  0  0  0  0  0  0  0  0  0  0
  146.2117  136.9137  188.8464 H   0  0  0  0  0  0  0  0  0  0  0  0
 26 27  1  0  0  0
 27 28  1  0  0  0
 28 29  1  0  0  0
 29 30  1  0  0  0
 29 31  1  0  0  0
 31 32  1  0  0  0
 32 20  1  0  0  0
 20 21  2  0  0  0
 21 22  1  0  0  0
 22 23  2  0  0  0
 23 24  1  0  0  0
 24 25  2  0  0  0
 25  1  1  0  0  0
  1  2  1  0  0  0
  2  3  2  0  0  0
  2  5  1  0  0  0
  5  6  2  0  0  0
  6  7  1  0  0  0
  7 12  1  0  0  0
 12 13  2  0  0  0
 13 14  1  0  0  0
 13 15  1  0  0  0
 15 16  2  0  0  0
 16 17  1  0  0  0
 17 18  2  0  0  0
 18 19  1  0  0  0
  7  8  2  0  0  0
  8  9  1  0  0  0
  9 10  2  0  0  0
 10 11  1  0  0  0
 32 33  1  0  0  0
 33 27  1  0  0  0
 25 20  1  0  0  0
 10  5  1  0  0  0
 18 12  1  0  0  0
 30 34  1  0  0  0
 30 35  1  0  0  0
  1  4  1  0  0  0
M  END
> <minimizedAffinity>
-6.64677

> <CNNscore>
0.2954167128

> <CNNaffinity>
6.0596971512

> <CNN_VS>
1.7901358604

> <CNNaffinity_variance>
0.1022399217

$$$$
[H]c1nc([H])c(N([H])C(=O)c2nc(-c3c(F)c([H])c([H])c([H])c3F)c([H])c([H])c2F)c([C@@]2([H])C([H])([H])[C@@]([H])(N([H])[H])C([H])([H])[C@@]([H])(C([H])([H])[H])C2([H])[H])c1[H]


 35 38  0  0  0  0  0  0  0  0999 V2000
  155.1334  138.1153  188.7432 N   0  0  0  0  0  0  0  0  0  0  0  0
  155.7415  137.7490  187.5383 C   0  0  0  0  0  0  0  0  0  0  0  0
  156.4349  136.6523  187.4939 O   0  0  0  0  0  0  0  0  0  0  0  0
  154.5694  138.9953  188.7604 H   0  0  0  0  0  0  0  0  0  0  0  0
  155.7011  138.4418  186.2609 C   0  0  0  0  0  0  0  0  0  0  0  0
  156.7842  139.1259  185.8500 N   0  0  0  0  0  0  0  0  0  0  0  0
  156.9192  139.8122  184.7133 C   0  0  0  0  0  0  0  0  0  0  0  0
  155.8028  139.8204  183.8640 C   0  0  0  0  0  0  0  0  0  0  0  0
  154.6541  139.1437  184.2180 C   0  0  0  0  0  0  0  0  0  0  0  0
  154.6271  138.4578  185.4285 C   0  0  0  0  0  0  0  0  0  0  0  0
  153.4517  137.7943  185.7465 F   0  0  0  0  0  0  0  0  0  0  0  0
  158.1273  140.4881  184.2919 C   0  0  0  0  0  0  0  0  0  0  0  0
  158.8343  141.3226  185.1453 C   0  0  0  0  0  0  0  0  0  0  0  0
  158.3798  141.5623  186.4116 F   0  0  0  0  0  0  0  0  0  0  0  0
  160.0002  141.9547  184.7822 C   0  0  0  0  0  0  0  0  0  0  0  0
  160.5208  141.7785  183.5336 C   0  0  0  0  0  0  0  0  0  0  0  0
  159.8335  140.9466  182.6479 C   0  0  0  0  0  0  0  0  0  0  0  0
  158.6669  140.3273  183.0411 C   0  0  0  0  0  0  0  0  0  0  0  0
  157.9851  139.5057  182.1733 F   0  0  0  0  0  0  0  0  0  0  0  0
  154.2259  136.4296  190.1376 C   0  0  0  0  0  0  0  0  0  0  0  0
  154.4294  135.5726  191.2248 C   0  0  0  0  0  0  0  0  0  0  0  0
  155.5788  135.6144  191.9960 C   0  0  0  0  0  0  0  0  0  0  0  0
  156.5431  136.4840  191.7250 N   0  0  0  0  0  0  0  0  0  0  0  0
  156.3734  137.3224  190.6773 C   0  0  0  0  0  0  0  0  0  0  0  0
  155.2729  137.3152  189.8933 C   0  0  0  0  0  0  0  0  0  0  0  0
  149.8027  135.1092  191.1543 C   0  0  0  0  0  0  0  0  0  0  0  0
  150.5328  135.9626  190.0606 C   0  0  0  0  0  0  0  0  0  0  0  0
  150.3913  135.1845  188.7489 C   0  0  0  0  0  0  0  0  0  0  0  0
  151.3229  135.7822  187.7658 C   0  0  0  0  0  0  0  0  0  0  0  0
  151.1736  135.2409  186.4636 N   0  0  0  0  0  0  0  0  0  0  0  0
  152.7954  135.6193  188.2310 C   0  0  0  0  0  0  0  0  0  0  0  0
  152.9752  136.5496  189.4266 C   0  0  0  0  0  0  0  0  0  0  0  0
  151.9428  135.9614  190.4713 C   0  0  0  0  0  0  0  0  0  0  0  0
  151.8108  135.6785  185.7463 H   0  0  0  0  0  0  0  0  0  0  0  0
  150.2188  135.1002  186.1117 H   0  0  0  0  0  0  0  0  0  0  0  0
 26 27  1  0  0  0
 27 28  1  0  0  0
 28 29  1  0  0  0
 29 30  1  0  0  0
 29 31  1  0  0  0
 31 32  1  0  0  0
 32 20  1  0  0  0
 20 21  2  0  0  0
 21 22  1  0  0  0
 22 23  2  0  0  0
 23 24  1  0  0  0
 24 25  2  0  0  0
 25  1  1  0  0  0
  1  2  1  0  0  0
  2  3  2  0  0  0
  2  5  1  0  0  0
  5  6  2  0  0  0
  6  7  1  0  0  0
  7 12  1  0  0  0
 12 13  2  0  0  0
 13 14  1  0  0  0
 13 15  1  0  0  0
 15 16  2  0  0  0
 16 17  1  0  0  0
 17 18  2  0  0  0
 18 19  1  0  0  0
  7  8  2  0  0  0
  8  9  1  0  0  0
  9 10  2  0  0  0
 10 11  1  0  0  0
 32 33  1  0  0  0
 33 27  1  0  0  0
 25 20  1  0  0  0
 10  5  1  0  0  0
 18 12  1  0  0  0
 30 34  1  0  0  0
 30 35  1  0  0  0
  1  4  1  0  0  0
M  END
> <minimizedAffinity>
-7.94460

> <CNNscore>
0.2448330224

> <CNNaffinity>
6.0902175903

> <CNN_VS>
1.4910863638

> <CNNaffinity_variance>
0.1767772287

$$$$
[H]OC(=O)C1(C([H])([H])c2c([H])nc(OC([H])([H])C([H])([H])c3nc(-c4c([H])c([H])c([H])c(Cl)c4[H])oc3C([H])([H])[H])c([H])c2[H])OC([H])([H])C([H])([H])C1([H])[H]


 32 35  0  0  0  0  0  0  0  0999 V2000
  155.3658  138.4270  186.1290 O   0  0  0  0  0  0  0  0  0  0  0  0
  154.9691  138.1584  187.4275 C   0  0  0  0  0  0  0  0  0  0  0  0
  155.9488  137.9324  188.4084 C   0  0  0  0  0  0  0  0  0  0  0  0
  155.5817  137.6620  189.7128 C   0  0  0  0  0  0  0  0  0  0  0  0
  154.2577  137.6041  190.0974 C   0  0  0  0  0  0  0  0  0  0  0  0
  153.3430  137.8307  189.1049 C   0  0  0  0  0  0  0  0  0  0  0  0
  153.7068  138.0924  187.8422 N   0  0  0  0  0  0  0  0  0  0  0  0
  153.8728  137.3210  191.4798 C   0  0  0  0  0  0  0  0  0  0  0  0
  153.1765  136.0376  191.7490 C   0  0  0  0  0  0  0  0  0  0  0  0
  153.0339  135.8083  193.2463 C   0  0  0  0  0  0  0  0  0  0  0  0
  151.9091  136.7753  193.5597 C   0  0  0  0  0  0  0  0  0  0  0  0
  151.1438  136.7939  192.2820 C   0  0  0  0  0  0  0  0  0  0  0  0
  151.8526  136.1631  191.2910 O   0  0  0  0  0  0  0  0  0  0  0  0
  153.7426  134.8468  191.0822 C   0  0  0  0  0  0  0  0  0  0  0  0
  154.7892  134.2654  191.5372 O   0  0  0  0  0  0  0  0  0  0  0  0
  153.2203  134.2627  189.9400 O   0  0  0  0  0  0  0  0  0  0  0  0
  153.1550  133.2547  189.9220 H   0  0  0  0  0  0  0  0  0  0  0  0
  154.5384  138.6676  185.0323 C   0  0  0  0  0  0  0  0  0  0  0  0
  155.3999  138.9163  183.8028 C   0  0  0  0  0  0  0  0  0  0  0  0
  154.6438  141.9320  183.2578 C   0  0  0  0  0  0  0  0  0  0  0  0
  155.9049  141.4244  183.8590 C   0  0  0  0  0  0  0  0  0  0  0  0
  156.9159  142.1401  184.2615 O   0  0  0  0  0  0  0  0  0  0  0  0
  157.8687  141.3919  184.7419 C   0  0  0  0  0  0  0  0  0  0  0  0
  157.4503  140.1201  184.6450 N   0  0  0  0  0  0  0  0  0  0  0  0
  156.2235  140.0928  184.0967 C   0  0  0  0  0  0  0  0  0  0  0  0
  159.1455  141.8338  185.2825 C   0  0  0  0  0  0  0  0  0  0  0  0
  159.3000  142.3681  186.5429 C   0  0  0  0  0  0  0  0  0  0  0  0
  160.5264  142.7756  187.0272 C   0  0  0  0  0  0  0  0  0  0  0  0
  161.6636  142.6625  186.2556 C   0  0  0  0  0  0  0  0  0  0  0  0
  161.5461  142.1292  184.9816 C   0  0  0  0  0  0  0  0  0  0  0  0
  162.9687  141.9629  183.9556 Cl  0  0  0  0  0  0  0  0  0  0  0  0
  160.3123  141.7288  184.5185 C   0  0  0  0  0  0  0  0  0  0  0  0
 20 21  1  0  0  0
 21 22  1  0  0  0
 22 23  1  0  0  0
 23 26  1  0  0  0
 26 27  2  0  0  0
 27 28  1  0  0  0
 28 29  2  0  0  0
 29 30  1  0  0  0
 30 31  1  0  0  0
 30 32  2  0  0  0
 23 24  2  0  0  0
 24 25  1  0  0  0
 25 19  1  0  0  0
 19 18  1  0  0  0
 18  1  1  0  0  0
  1  2  1  0  0  0
  2  3  2  0  0  0
  3  4  1  0  0  0
  4  5  2  0  0  0
  5  8  1  0  0  0
  8  9  1  0  0  0
  9 14  1  0  0  0
 14 15  2  0  0  0
 14 16  1  0  0  0
  9 10  1  0  0  0
 10 11  1  0  0  0
 11 12  1  0  0  0
 12 13  1  0  0  0
  5  6  1  0  0  0
  6  7  2  0  0  0
 25 21  2  0  0  0
  7  2  1  0  0  0
 32 26  1  0  0  0
 13  9  1  0  0  0
 16 17  1  0  0  0
M  END
> <minimizedAffinity>
-8.33889

> <CNNscore>
0.5736675858

> <CNNaffinity>
6.1601433754

> <CNN_VS>
3.5338745117

> <CNNaffinity_variance>
0.0771196932

$$$$
[H]OC(=O)C1(C([H])([H])c2c([H])nc(OC([H])([H])C([H])([H])c3nc(-c4c([H])c([H])c([H])c(Cl)c4[H])oc3C([H])([H])[H])c([H])c2[H])OC([H])([H])C([H])([H])C1([H])[H]


 32 35  0  0  0  0  0  0  0  0999 V2000
  154.0561  138.4570  184.6510 O   0  0  0  0  0  0  0  0  0  0  0  0
  154.3466  138.3282  185.9980 C   0  0  0  0  0  0  0  0  0  0  0  0
  153.3285  138.5476  186.9407 C   0  0  0  0  0  0  0  0  0  0  0  0
  153.5899  138.4260  188.2920 C   0  0  0  0  0  0  0  0  0  0  0  0
  154.8430  138.0891  188.7617 C   0  0  0  0  0  0  0  0  0  0  0  0
  155.7991  137.8867  187.8038 C   0  0  0  0  0  0  0  0  0  0  0  0
  155.5379  138.0064  186.4950 N   0  0  0  0  0  0  0  0  0  0  0  0
  155.1153  137.9579  190.1928 C   0  0  0  0  0  0  0  0  0  0  0  0
  154.6454  136.7231  190.8703 C   0  0  0  0  0  0  0  0  0  0  0  0
  155.0840  135.4875  190.0987 C   0  0  0  0  0  0  0  0  0  0  0  0
  156.5508  135.4405  190.4792 C   0  0  0  0  0  0  0  0  0  0  0  0
  156.5446  136.0540  191.8363 C   0  0  0  0  0  0  0  0  0  0  0  0
  155.3237  136.6227  192.0984 O   0  0  0  0  0  0  0  0  0  0  0  0
  153.2017  136.6695  191.1801 C   0  0  0  0  0  0  0  0  0  0  0  0
  152.7249  137.2375  192.2243 O   0  0  0  0  0  0  0  0  0  0  0  0
  152.2545  136.0224  190.4037 O   0  0  0  0  0  0  0  0  0  0  0  0
  151.3853  136.5075  190.2310 H   0  0  0  0  0  0  0  0  0  0  0  0
  154.7585  139.2096  183.7101 C   0  0  0  0  0  0  0  0  0  0  0  0
  154.4263  140.6824  183.9009 C   0  0  0  0  0  0  0  0  0  0  0  0
  154.7962  143.4465  182.4225 C   0  0  0  0  0  0  0  0  0  0  0  0
  155.8574  142.6374  183.0773 C   0  0  0  0  0  0  0  0  0  0  0  0
  157.1242  142.9314  183.1497 O   0  0  0  0  0  0  0  0  0  0  0  0
  157.7908  142.0140  183.7916 C   0  0  0  0  0  0  0  0  0  0  0  0
  156.9052  141.0731  184.1554 N   0  0  0  0  0  0  0  0  0  0  0  0
  155.6797  141.4225  183.7283 C   0  0  0  0  0  0  0  0  0  0  0  0
  159.2194  141.9973  184.0688 C   0  0  0  0  0  0  0  0  0  0  0  0
  160.1467  141.3603  183.2737 C   0  0  0  0  0  0  0  0  0  0  0  0
  161.4959  141.3653  183.5633 C   0  0  0  0  0  0  0  0  0  0  0  0
  161.9766  142.0186  184.6785 C   0  0  0  0  0  0  0  0  0  0  0  0
  161.0723  142.6707  185.5020 C   0  0  0  0  0  0  0  0  0  0  0  0
  161.6351  143.5205  186.9391 Cl  0  0  0  0  0  0  0  0  0  0  0  0
  159.7300  142.6528  185.1939 C   0  0  0  0  0  0  0  0  0  0  0  0
 20 21  1  0  0  0
 21 22  1  0  0  0
 22 23  1  0  0  0
 23 26  1  0  0  0
 26 27  2  0  0  0
 27 28  1  0  0  0
 28 29  2  0  0  0
 29 30  1  0  0  0
 30 31  1  0  0  0
 30 32  2  0  0  0
 23 24  2  0  0  0
 24 25  1  0  0  0
 25 19  1  0  0  0
 19 18  1  0  0  0
 18  1  1  0  0  0
  1  2  1  0  0  0
  2  3  2  0  0  0
  3  4  1  0  0  0
  4  5  2  0  0  0
  5  8  1  0  0  0
  8  9  1  0  0  0
  9 14  1  0  0  0
 14 15  2  0  0  0
 14 16  1  0  0  0
  9 10  1  0  0  0
 10 11  1  0  0  0
 11 12  1  0  0  0
 12 13  1  0  0  0
  5  6  1  0  0  0
  6  7  2  0  0  0
 25 21  2  0  0  0
  7  2  1  0  0  0
 32 26  1  0  0  0
 13  9  1  0  0  0
 16 17  1  0  0  0
M  END
> <minimizedAffinity>
-8.40673

> <CNNscore>
0.5708734393

> <CNNaffinity>
6.3707265854

> <CNN_VS>
3.6368784904

> <CNNaffinity_variance>
0.0702297539

$$$$
[H]OC(=O)C1(C([H])([H])c2c([H])nc(OC([H])([H])C([H])([H])c3nc(-c4c([H])c([H])c([H])c(Cl)c4[H])oc3C([H])([H])[H])c([H])c2[H])OC([H])([H])C([H])([H])C1([H])[H]


 32 35  0  0  0  0  0  0  0  0999 V2000
  154.1153  140.6956  183.1622 O   0  0  0  0  0  0  0  0  0  0  0  0
  153.1473  140.0102  182.4489 C   0  0  0  0  0  0  0  0  0  0  0  0
  152.5113  140.6494  181.3719 C   0  0  0  0  0  0  0  0  0  0  0  0
  151.5412  139.9893  180.6421 C   0  0  0  0  0  0  0  0  0  0  0  0
  151.1647  138.6952  180.9384 C   0  0  0  0  0  0  0  0  0  0  0  0
  151.8133  138.1178  181.9962 C   0  0  0  0  0  0  0  0  0  0  0  0
  152.7531  138.7645  182.6991 N   0  0  0  0  0  0  0  0  0  0  0  0
  150.1399  137.9982  180.1616 C   0  0  0  0  0  0  0  0  0  0  0  0
  148.8347  137.7420  180.8214 C   0  0  0  0  0  0  0  0  0  0  0  0
  147.7701  137.3996  179.7899 C   0  0  0  0  0  0  0  0  0  0  0  0
  148.1676  135.9750  179.4570 C   0  0  0  0  0  0  0  0  0  0  0  0
  148.7779  135.5111  180.7340 C   0  0  0  0  0  0  0  0  0  0  0  0
  148.9638  136.5694  181.5872 O   0  0  0  0  0  0  0  0  0  0  0  0
  148.3614  138.7968  181.7413 C   0  0  0  0  0  0  0  0  0  0  0  0
  147.9000  139.9064  181.2984 O   0  0  0  0  0  0  0  0  0  0  0  0
  148.3706  138.6972  183.1228 O   0  0  0  0  0  0  0  0  0  0  0  0
  147.5470  139.0112  183.6167 H   0  0  0  0  0  0  0  0  0  0  0  0
  155.4873  140.4455  183.1674 C   0  0  0  0  0  0  0  0  0  0  0  0
  156.1263  141.1455  181.9768 C   0  0  0  0  0  0  0  0  0  0  0  0
  158.5641  141.8381  180.0951 C   0  0  0  0  0  0  0  0  0  0  0  0
  158.5532  141.8545  181.5814 C   0  0  0  0  0  0  0  0  0  0  0  0
  159.5516  142.1556  182.3616 O   0  0  0  0  0  0  0  0  0  0  0  0
  159.2162  142.0747  183.6183 C   0  0  0  0  0  0  0  0  0  0  0  0
  157.9276  141.7003  183.6531 N   0  0  0  0  0  0  0  0  0  0  0  0
  157.4707  141.5504  182.3981 C   0  0  0  0  0  0  0  0  0  0  0  0
  160.0627  142.3361  184.7728 C   0  0  0  0  0  0  0  0  0  0  0  0
  159.5776  142.6606  186.0207 C   0  0  0  0  0  0  0  0  0  0  0  0
  160.4079  142.9004  187.0966 C   0  0  0  0  0  0  0  0  0  0  0  0
  161.7781  142.8237  186.9623 C   0  0  0  0  0  0  0  0  0  0  0  0
  162.3022  142.4996  185.7208 C   0  0  0  0  0  0  0  0  0  0  0  0
  164.0462  142.3885  185.4964 Cl  0  0  0  0  0  0  0  0  0  0  0  0
  161.4551  142.2642  184.6606 C   0  0  0  0  0  0  0  0  0  0  0  0
 20 21  1  0  0  0
 21 22  1  0  0  0
 22 23  1  0  0  0
 23 26  1  0  0  0
 26 27  2  0  0  0
 27 28  1  0  0  0
 28 29  2  0  0  0
 29 30  1  0  0  0
 30 31  1  0  0  0
 30 32  2  0  0  0
 23 24  2  0  0  0
 24 25  1  0  0  0
 25 19  1  0  0  0
 19 18  1  0  0  0
 18  1  1  0  0  0
  1  2  1  0  0  0
  2  3  2  0  0  0
  3  4  1  0  0  0
  4  5  2  0  0  0
  5  8  1  0  0  0
  8  9  1  0  0  0
  9 14  1  0  0  0
 14 15  2  0  0  0
 14 16  1  0  0  0
  9 10  1  0  0  0
 10 11  1  0  0  0
 11 12  1  0  0  0
 12 13  1  0  0  0
  5  6  1  0  0  0
  6  7  2  0  0  0
 25 21  2  0  0  0
  7  2  1  0  0  0
 32 26  1  0  0  0
 13  9  1  0  0  0
 16 17  1  0  0  0
M  END
> <minimizedAffinity>
-7.72900

> <CNNscore>
0.4417122006

> <CNNaffinity>
6.0088028908

> <CNN_VS>
2.6541614532

> <CNNaffinity_variance>
0.2006087303

$$$$
[H]OC(=O)C1(C([H])([H])c2c([H])nc(OC([H])([H])C([H])([H])c3nc(-c4c([H])c([H])c([H])c(Cl)c4[H])oc3C([H])([H])[H])c([H])c2[H])OC([H])([H])C([H])([H])C1([H])[H]


 32 35  0  0  0  0  0  0  0  0999 V2000
  154.3472  138.2638  187.3766 O   0  0  0  0  0  0  0  0  0  0  0  0
  153.9627  137.8559  188.6420 C   0  0  0  0  0  0  0  0  0  0  0  0
  154.7928  138.1495  189.7364 C   0  0  0  0  0  0  0  0  0  0  0  0
  154.4341  137.7545  191.0110 C   0  0  0  0  0  0  0  0  0  0  0  0
  153.2634  137.0660  191.2552 C   0  0  0  0  0  0  0  0  0  0  0  0
  152.4907  136.8042  190.1564 C   0  0  0  0  0  0  0  0  0  0  0  0
  152.8454  137.1907  188.9234 N   0  0  0  0  0  0  0  0  0  0  0  0
  152.8850  136.6524  192.6062 C   0  0  0  0  0  0  0  0  0  0  0  0
  152.5020  135.2320  192.8069 C   0  0  0  0  0  0  0  0  0  0  0  0
  152.6600  134.8348  194.2670 C   0  0  0  0  0  0  0  0  0  0  0  0
  151.4406  135.5108  194.8623 C   0  0  0  0  0  0  0  0  0  0  0  0
  150.4817  135.4923  193.7227 C   0  0  0  0  0  0  0  0  0  0  0  0
  151.1206  135.1219  192.5663 O   0  0  0  0  0  0  0  0  0  0  0  0
  153.1643  134.2557  191.9175 C   0  0  0  0  0  0  0  0  0  0  0  0
  154.4341  134.0904  191.9411 O   0  0  0  0  0  0  0  0  0  0  0  0
  152.5045  133.4528  191.0016 O   0  0  0  0  0  0  0  0  0  0  0  0
  152.7805  132.4822  190.9510 H   0  0  0  0  0  0  0  0  0  0  0  0
  153.5117  138.5379  186.2941 C   0  0  0  0  0  0  0  0  0  0  0  0
  154.1401  137.9801  185.0253 C   0  0  0  0  0  0  0  0  0  0  0  0
  153.1807  139.7041  182.5616 C   0  0  0  0  0  0  0  0  0  0  0  0
  154.4580  139.8503  183.3077 C   0  0  0  0  0  0  0  0  0  0  0  0
  155.4019  140.7153  183.0688 O   0  0  0  0  0  0  0  0  0  0  0  0
  156.3929  140.5829  183.9046 C   0  0  0  0  0  0  0  0  0  0  0  0
  156.0718  139.5753  184.7314 N   0  0  0  0  0  0  0  0  0  0  0  0
  154.8665  139.0858  184.3940 C   0  0  0  0  0  0  0  0  0  0  0  0
  157.6179  141.3673  183.9471 C   0  0  0  0  0  0  0  0  0  0  0  0
  158.6529  141.1247  184.8235 C   0  0  0  0  0  0  0  0  0  0  0  0
  159.8036  141.8864  184.8365 C   0  0  0  0  0  0  0  0  0  0  0  0
  159.9649  142.9376  183.9587 C   0  0  0  0  0  0  0  0  0  0  0  0
  158.9439  143.2110  183.0622 C   0  0  0  0  0  0  0  0  0  0  0  0
  159.1006  144.5429  181.9195 Cl  0  0  0  0  0  0  0  0  0  0  0  0
  157.8040  142.4380  183.0666 C   0  0  0  0  0  0  0  0  0  0  0  0
 20 21  1  0  0  0
 21 22  1  0  0  0
 22 23  1  0  0  0
 23 26  1  0  0  0
 26 27  2  0  0  0
 27 28  1  0  0  0
 28 29  2  0  0  0
 29 30  1  0  0  0
 30 31  1  0  0  0
 30 32  2  0  0  0
 23 24  2  0  0  0
 24 25  1  0  0  0
 25 19  1  0  0  0
 19 18  1  0  0  0
 18  1  1  0  0  0
  1  2  1  0  0  0
  2  3  2  0  0  0
  3  4  1  0  0  0
  4  5  2  0  0  0
  5  8  1  0  0  0
  8  9  1  0  0  0
  9 14  1  0  0  0
 14 15  2  0  0  0
 14 16  1  0  0  0
  9 10  1  0  0  0
 10 11  1  0  0  0
 11 12  1  0  0  0
 12 13  1  0  0  0
  5  6  1  0  0  0
  6  7  2  0  0  0
 25 21  2  0  0  0
  7  2  1  0  0  0
 32 26  1  0  0  0
 13  9  1  0  0  0
 16 17  1  0  0  0
M  END
> <minimizedAffinity>
-7.59742

> <CNNscore>
0.4347965717

> <CNNaffinity>
5.8417940140

> <CNN_VS>
2.5399920940

> <CNNaffinity_variance>
0.0952100679

$$$$
[H]OC(=O)C1(C([H])([H])c2c([H])nc(OC([H])([H])C([H])([H])c3nc(-c4c([H])c([H])c([H])c(Cl)c4[H])oc3C([H])([H])[H])c([H])c2[H])OC([H])([H])C([H])([H])C1([H])[H]


 32 35  0  0  0  0  0  0  0  0999 V2000
  154.0725  140.2359  181.7656 O   0  0  0  0  0  0  0  0  0  0  0  0
  152.7614  139.7997  181.6868 C   0  0  0  0  0  0  0  0  0  0  0  0
  151.9263  140.3222  180.6855 C   0  0  0  0  0  0  0  0  0  0  0  0
  150.6130  139.9050  180.5833 C   0  0  0  0  0  0  0  0  0  0  0  0
  150.0781  138.9722  181.4482 C   0  0  0  0  0  0  0  0  0  0  0  0
  150.9319  138.4949  182.4054 C   0  0  0  0  0  0  0  0  0  0  0  0
  152.2043  138.9045  182.4980 N   0  0  0  0  0  0  0  0  0  0  0  0
  148.6884  138.5302  181.3350 C   0  0  0  0  0  0  0  0  0  0  0  0
  148.4293  137.2594  180.6122 C   0  0  0  0  0  0  0  0  0  0  0  0
  146.9468  137.1097  180.3047 C   0  0  0  0  0  0  0  0  0  0  0  0
  146.8119  138.0862  179.1529 C   0  0  0  0  0  0  0  0  0  0  0  0
  148.1655  138.0326  178.5337 C   0  0  0  0  0  0  0  0  0  0  0  0
  149.0369  137.3535  179.3472 O   0  0  0  0  0  0  0  0  0  0  0  0
  148.9647  136.0377  181.2477 C   0  0  0  0  0  0  0  0  0  0  0  0
  149.9100  135.3660  180.7041 O   0  0  0  0  0  0  0  0  0  0  0  0
  148.5141  135.5140  182.4483 O   0  0  0  0  0  0  0  0  0  0  0  0
  149.2111  135.2012  183.1094 H   0  0  0  0  0  0  0  0  0  0  0  0
  154.5105  141.5252  182.0669 C   0  0  0  0  0  0  0  0  0  0  0  0
  154.5704  141.6910  183.5785 C   0  0  0  0  0  0  0  0  0  0  0  0
  155.2869  138.8530  184.7599 C   0  0  0  0  0  0  0  0  0  0  0  0
  156.2240  139.9828  184.5253 C   0  0  0  0  0  0  0  0  0  0  0  0
  157.5030  139.9941  184.7710 O   0  0  0  0  0  0  0  0  0  0  0  0
  158.0396  141.1382  184.4527 C   0  0  0  0  0  0  0  0  0  0  0  0
  157.0520  141.9108  183.9737 N   0  0  0  0  0  0  0  0  0  0  0  0
  155.8953  141.2270  184.0008 C   0  0  0  0  0  0  0  0  0  0  0  0
  159.4375  141.5207  184.5848 C   0  0  0  0  0  0  0  0  0  0  0  0
  160.4078  141.2095  183.6576 C   0  0  0  0  0  0  0  0  0  0  0  0
  161.7255  141.5895  183.8115 C   0  0  0  0  0  0  0  0  0  0  0  0
  162.1292  142.3070  184.9177 C   0  0  0  0  0  0  0  0  0  0  0  0
  161.1799  142.6381  185.8718 C   0  0  0  0  0  0  0  0  0  0  0  0
  161.6440  143.5541  187.3035 Cl  0  0  0  0  0  0  0  0  0  0  0  0
  159.8703  142.2486  185.6980 C   0  0  0  0  0  0  0  0  0  0  0  0
 20 21  1  0  0  0
 21 22  1  0  0  0
 22 23  1  0  0  0
 23 26  1  0  0  0
 26 27  2  0  0  0
 27 28  1  0  0  0
 28 29  2  0  0  0
 29 30  1  0  0  0
 30 31  1  0  0  0
 30 32  2  0  0  0
 23 24  2  0  0  0
 24 25  1  0  0  0
 25 19  1  0  0  0
 19 18  1  0  0  0
 18  1  1  0  0  0
  1  2  1  0  0  0
  2  3  2  0  0  0
  3  4  1  0  0  0
  4  5  2  0  0  0
  5  8  1  0  0  0
  8  9  1  0  0  0
  9 14  1  0  0  0
 14 15  2  0  0  0
 14 16  1  0  0  0
  9 10  1  0  0  0
 10 11  1  0  0  0
 11 12  1  0  0  0
 12 13  1  0  0  0
  5  6  1  0  0  0
  6  7  2  0  0  0
 25 21  2  0  0  0
  7  2  1  0  0  0
 32 26  1  0  0  0
 13  9  1  0  0  0
 16 17  1  0  0  0
M  END
> <minimizedAffinity>
-7.97444

> <CNNscore>
0.3899706602

> <CNNaffinity>
5.7892298698

> <CNN_VS>
2.2576298714

> <CNNaffinity_variance>
0.1370751262

$$$$
[H]OC(=O)C1(C([H])([H])c2c([H])nc(OC([H])([H])C([H])([H])c3nc(-c4c([H])c([H])c([H])c(Cl)c4[H])oc3C([H])([H])[H])c([H])c2[H])OC([H])([H])C([H])([H])C1([H])[H]


 32 35  0  0  0  0  0  0  0  0999 V2000
  154.0755  138.7569  184.7878 O   0  0  0  0  0  0  0  0  0  0  0  0
  154.7397  139.7655  184.1116 C   0  0  0  0  0  0  0  0  0  0  0  0
  154.1087  140.3883  183.0221 C   0  0  0  0  0  0  0  0  0  0  0  0
  154.7481  141.3981  182.3286 C   0  0  0  0  0  0  0  0  0  0  0  0
  156.0130  141.8280  182.6742 C   0  0  0  0  0  0  0  0  0  0  0  0
  156.5840  141.1892  183.7414 C   0  0  0  0  0  0  0  0  0  0  0  0
  155.9575  140.2108  184.4089 N   0  0  0  0  0  0  0  0  0  0  0  0
  156.6855  142.8995  181.9401 C   0  0  0  0  0  0  0  0  0  0  0  0
  158.0323  142.6111  181.3857 C   0  0  0  0  0  0  0  0  0  0  0  0
  158.6069  143.8435  180.7032 C   0  0  0  0  0  0  0  0  0  0  0  0
  159.0040  144.6613  181.9164 C   0  0  0  0  0  0  0  0  0  0  0  0
  159.3138  143.6059  182.9207 C   0  0  0  0  0  0  0  0  0  0  0  0
  158.9009  142.3785  182.4673 O   0  0  0  0  0  0  0  0  0  0  0  0
  158.1259  141.4268  180.5072 C   0  0  0  0  0  0  0  0  0  0  0  0
  158.5978  140.3165  180.9372 O   0  0  0  0  0  0  0  0  0  0  0  0
  157.7302  141.3992  179.1801 O   0  0  0  0  0  0  0  0  0  0  0  0
  157.2026  140.5956  178.8693 H   0  0  0  0  0  0  0  0  0  0  0  0
  154.6317  137.8329  185.6721 C   0  0  0  0  0  0  0  0  0  0  0  0
  154.3871  138.2994  187.0998 C   0  0  0  0  0  0  0  0  0  0  0  0
  154.8109  138.6641  190.2063 C   0  0  0  0  0  0  0  0  0  0  0  0
  155.5016  137.6898  189.3213 C   0  0  0  0  0  0  0  0  0  0  0  0
  156.4036  136.8208  189.6783 O   0  0  0  0  0  0  0  0  0  0  0  0
  156.8122  136.1131  188.6632 C   0  0  0  0  0  0  0  0  0  0  0  0
  156.1361  136.5487  187.5885 N   0  0  0  0  0  0  0  0  0  0  0  0
  155.3026  137.5376  187.9544 C   0  0  0  0  0  0  0  0  0  0  0  0
  157.8082  135.0521  188.6752 C   0  0  0  0  0  0  0  0  0  0  0  0
  158.7466  134.8711  187.6829 C   0  0  0  0  0  0  0  0  0  0  0  0
  159.6800  133.8555  187.7253 C   0  0  0  0  0  0  0  0  0  0  0  0
  159.7102  132.9674  188.7798 C   0  0  0  0  0  0  0  0  0  0  0  0
  158.7807  133.1190  189.7968 C   0  0  0  0  0  0  0  0  0  0  0  0
  158.7770  132.0110  191.1666 Cl  0  0  0  0  0  0  0  0  0  0  0  0
  157.8581  134.1397  189.7341 C   0  0  0  0  0  0  0  0  0  0  0  0
 20 21  1  0  0  0
 21 22  1  0  0  0
 22 23  1  0  0  0
 23 26  1  0  0  0
 26 27  2  0  0  0
 27 28  1  0  0  0
 28 29  2  0  0  0
 29 30  1  0  0  0
 30 31  1  0  0  0
 30 32  2  0  0  0
 23 24  2  0  0  0
 24 25  1  0  0  0
 25 19  1  0  0  0
 19 18  1  0  0  0
 18  1  1  0  0  0
  1  2  1  0  0  0
  2  3  2  0  0  0
  3  4  1  0  0  0
  4  5  2  0  0  0
  5  8  1  0  0  0
  8  9  1  0  0  0
  9 14  1  0  0  0
 14 15  2  0  0  0
 14 16  1  0  0  0
  9 10  1  0  0  0
 10 11  1  0  0  0
 11 12  1  0  0  0
 12 13  1  0  0  0
  5  6  1  0  0  0
  6  7  2  0  0  0
 25 21  2  0  0  0
  7  2  1  0  0  0
 32 26  1  0  0  0
 13  9  1  0  0  0
 16 17  1  0  0  0
M  END
> <minimizedAffinity>
-8.68250

> <CNNscore>
0.3844922781

> <CNNaffinity>
5.9547886848

> <CNN_VS>
2.2895703316

> <CNNaffinity_variance>
0.1509247124

$$$$
[H]OC(=O)C1(C([H])([H])c2c([H])nc(OC([H])([H])C([H])([H])c3nc(-c4c([H])c([H])c([H])c(Cl)c4[H])oc3C([H])([H])[H])c([H])c2[H])OC([H])([H])C([H])([H])C1([H])[H]


 32 35  0  0  0  0  0  0  0  0999 V2000
  152.8098  138.8050  183.0559 O   0  0  0  0  0  0  0  0  0  0  0  0
  153.7521  139.8079  182.9076 C   0  0  0  0  0  0  0  0  0  0  0  0
  154.7790  139.9268  183.8586 C   0  0  0  0  0  0  0  0  0  0  0  0
  155.7333  140.9185  183.7357 C   0  0  0  0  0  0  0  0  0  0  0  0
  155.7152  141.8178  182.6893 C   0  0  0  0  0  0  0  0  0  0  0  0
  154.6948  141.6599  181.7910 C   0  0  0  0  0  0  0  0  0  0  0  0
  153.7731  140.6955  181.9170 N   0  0  0  0  0  0  0  0  0  0  0  0
  156.7290  142.8643  182.5604 C   0  0  0  0  0  0  0  0  0  0  0  0
  158.0101  142.5013  181.9037 C   0  0  0  0  0  0  0  0  0  0  0  0
  158.5964  143.6995  181.1720 C   0  0  0  0  0  0  0  0  0  0  0  0
  159.1320  144.4949  182.3462 C   0  0  0  0  0  0  0  0  0  0  0  0
  159.4610  143.4248  183.3285 C   0  0  0  0  0  0  0  0  0  0  0  0
  158.9468  142.2218  182.9151 O   0  0  0  0  0  0  0  0  0  0  0  0
  157.9690  141.3130  181.0266 C   0  0  0  0  0  0  0  0  0  0  0  0
  158.2848  140.1521  181.4658 O   0  0  0  0  0  0  0  0  0  0  0  0
  157.6012  141.3338  179.6913 O   0  0  0  0  0  0  0  0  0  0  0  0
  156.9813  140.6042  179.3688 H   0  0  0  0  0  0  0  0  0  0  0  0
  153.0453  137.4307  183.0838 C   0  0  0  0  0  0  0  0  0  0  0  0
  151.9440  136.7522  183.8854 C   0  0  0  0  0  0  0  0  0  0  0  0
  149.8632  137.0894  186.2347 C   0  0  0  0  0  0  0  0  0  0  0  0
  151.3449  137.1363  186.3435 C   0  0  0  0  0  0  0  0  0  0  0  0
  152.0377  137.3280  187.4295 O   0  0  0  0  0  0  0  0  0  0  0  0
  153.3181  137.3132  187.1873 C   0  0  0  0  0  0  0  0  0  0  0  0
  153.4618  137.0996  185.8699 N   0  0  0  0  0  0  0  0  0  0  0  0
  152.2501  136.9827  185.3003 C   0  0  0  0  0  0  0  0  0  0  0  0
  154.3967  137.4922  188.1478 C   0  0  0  0  0  0  0  0  0  0  0  0
  155.6410  136.9152  188.0187 C   0  0  0  0  0  0  0  0  0  0  0  0
  156.6440  137.1070  188.9469 C   0  0  0  0  0  0  0  0  0  0  0  0
  156.4364  137.8964  190.0583 C   0  0  0  0  0  0  0  0  0  0  0  0
  155.1962  138.4934  190.2212 C   0  0  0  0  0  0  0  0  0  0  0  0
  154.8799  139.5117  191.6238 Cl  0  0  0  0  0  0  0  0  0  0  0  0
  154.2095  138.2884  189.2824 C   0  0  0  0  0  0  0  0  0  0  0  0
 20 21  1  0  0  0
 21 22  1  0  0  0
 22 23  1  0  0  0
 23 26  1  0  0  0
 26 27  2  0  0  0
 27 28  1  0  0  0
 28 29  2  0  0  0
 29 30  1  0  0  0
 30 31  1  0  0  0
 30 32  2  0  0  0
 23 24  2  0  0  0
 24 25  1  0  0  0
 25 19  1  0  0  0
 19 18  1  0  0  0
 18  1  1  0  0  0
  1  2  1  0  0  0
  2  3  2  0  0  0
  3  4  1  0  0  0
  4  5  2  0  0  0
  5  8  1  0  0  0
  8  9  1  0  0  0
  9 14  1  0  0  0
 14 15  2  0  0  0
 14 16  1  0  0  0
  9 10  1  0  0  0
 10 11  1  0  0  0
 11 12  1  0  0  0
 12 13  1  0  0  0
  5  6  1  0  0  0
  6  7  2  0  0  0
 25 21  2  0  0  0
  7  2  1  0  0  0
 32 26  1  0  0  0
 13  9  1  0  0  0
 16 17  1  0  0  0
M  END
> <minimizedAffinity>
-8.21818

> <CNNscore>
0.3780007362

> <CNNaffinity>
6.1714544296

> <CNN_VS>
2.3328142166

> <CNNaffinity_variance>
0.1127717048

$$$$
[H]OC(=O)C1(C([H])([H])c2c([H])nc(OC([H])([H])C([H])([H])c3nc(-c4c([H])c([H])c([H])c(Cl)c4[H])oc3C([H])([H])[H])c([H])c2[H])OC([H])([H])C([H])([H])C1([H])[H]


 32 35  0  0  0  0  0  0  0  0999 V2000
  152.6368  138.9131  183.1539 O   0  0  0  0  0  0  0  0  0  0  0  0
  153.3631  138.3053  184.1632 C   0  0  0  0  0  0  0  0  0  0  0  0
  154.1293  139.1029  185.0292 C   0  0  0  0  0  0  0  0  0  0  0  0
  154.8643  138.5233  186.0457 C   0  0  0  0  0  0  0  0  0  0  0  0
  154.8744  137.1582  186.2469 C   0  0  0  0  0  0  0  0  0  0  0  0
  154.1129  136.4262  185.3767 C   0  0  0  0  0  0  0  0  0  0  0  0
  153.4027  136.9957  184.3934 N   0  0  0  0  0  0  0  0  0  0  0  0
  155.6508  136.5482  187.3260 C   0  0  0  0  0  0  0  0  0  0  0  0
  154.9728  136.3501  188.6320 C   0  0  0  0  0  0  0  0  0  0  0  0
  155.9769  135.9497  189.7026 C   0  0  0  0  0  0  0  0  0  0  0  0
  156.6389  137.2884  189.9634 C   0  0  0  0  0  0  0  0  0  0  0  0
  155.5395  138.2477  189.6643 C   0  0  0  0  0  0  0  0  0  0  0  0
  154.4915  137.6005  189.0598 O   0  0  0  0  0  0  0  0  0  0  0  0
  153.8145  135.4329  188.6224 C   0  0  0  0  0  0  0  0  0  0  0  0
  152.6243  135.8640  188.8171 O   0  0  0  0  0  0  0  0  0  0  0  0
  153.8956  134.0662  188.4123 O   0  0  0  0  0  0  0  0  0  0  0  0
  153.2153  133.6504  187.7919 H   0  0  0  0  0  0  0  0  0  0  0  0
  153.0840  139.2252  181.8703 C   0  0  0  0  0  0  0  0  0  0  0  0
  152.9678  140.7270  181.6533 C   0  0  0  0  0  0  0  0  0  0  0  0
  153.3103  143.7187  182.5993 C   0  0  0  0  0  0  0  0  0  0  0  0
  154.3377  142.6456  182.6487 C   0  0  0  0  0  0  0  0  0  0  0  0
  155.5580  142.7591  183.0895 O   0  0  0  0  0  0  0  0  0  0  0  0
  156.2053  141.6319  182.9967 C   0  0  0  0  0  0  0  0  0  0  0  0
  155.3556  140.7384  182.4661 N   0  0  0  0  0  0  0  0  0  0  0  0
  154.1721  141.3304  182.2316 C   0  0  0  0  0  0  0  0  0  0  0  0
  157.5832  141.3746  183.3880 C   0  0  0  0  0  0  0  0  0  0  0  0
  158.1346  140.1146  183.4669 C   0  0  0  0  0  0  0  0  0  0  0  0
  159.4468  139.9045  183.8392 C   0  0  0  0  0  0  0  0  0  0  0  0
  160.2707  140.9650  184.1522 C   0  0  0  0  0  0  0  0  0  0  0  0
  159.7499  142.2476  184.0837 C   0  0  0  0  0  0  0  0  0  0  0  0
  160.7610  143.6369  184.4733 Cl  0  0  0  0  0  0  0  0  0  0  0  0
  158.4375  142.4343  183.7098 C   0  0  0  0  0  0  0  0  0  0  0  0
 20 21  1  0  0  0
 21 22  1  0  0  0
 22 23  1  0  0  0
 23 26  1  0  0  0
 26 27  2  0  0  0
 27 28  1  0  0  0
 28 29  2  0  0  0
 29 30  1  0  0  0
 30 31  1  0  0  0
 30 32  2  0  0  0
 23 24  2  0  0  0
 24 25  1  0  0  0
 25 19  1  0  0  0
 19 18  1  0  0  0
 18  1  1  0  0  0
  1  2  1  0  0  0
  2  3  2  0  0  0
  3  4  1  0  0  0
  4  5  2  0  0  0
  5  8  1  0  0  0
  8  9  1  0  0  0
  9 14  1  0  0  0
 14 15  2  0  0  0
 14 16  1  0  0  0
  9 10  1  0  0  0
 10 11  1  0  0  0
 11 12  1  0  0  0
 12 13  1  0  0  0
  5  6  1  0  0  0
  6  7  2  0  0  0
 25 21  2  0  0  0
  7  2  1  0  0  0
 32 26  1  0  0  0
 13  9  1  0  0  0
 16 17  1  0  0  0
M  END
> <minimizedAffinity>
-7.18654

> <CNNscore>
0.3703939915

> <CNNaffinity>
6.2232794762

> <CNN_VS>
2.3050653934

> <CNNaffinity_variance>
0.1048852950

$$$$
[H]OC(=O)C1(C([H])([H])c2c([H])nc(OC([H])([H])C([H])([H])c3nc(-c4c([H])c([H])c([H])c(Cl)c4[H])oc3C([H])([H])[H])c([H])c2[H])OC([H])([H])C([H])([H])C1([H])[H]


 32 35  0  0  0  0  0  0  0  0999 V2000
  154.6003  138.2077  185.1275 O   0  0  0  0  0  0  0  0  0  0  0  0
  155.1519  139.2883  184.4615 C   0  0  0  0  0  0  0  0  0  0  0  0
  154.4236  139.8974  183.4263 C   0  0  0  0  0  0  0  0  0  0  0  0
  154.9496  140.9778  182.7442 C   0  0  0  0  0  0  0  0  0  0  0  0
  156.1929  141.4933  183.0487 C   0  0  0  0  0  0  0  0  0  0  0  0
  156.8617  140.8645  184.0637 C   0  0  0  0  0  0  0  0  0  0  0  0
  156.3448  139.8172  184.7206 N   0  0  0  0  0  0  0  0  0  0  0  0
  156.7452  142.6393  182.3269 C   0  0  0  0  0  0  0  0  0  0  0  0
  158.0551  142.4585  181.6518 C   0  0  0  0  0  0  0  0  0  0  0  0
  158.4879  143.7462  180.9666 C   0  0  0  0  0  0  0  0  0  0  0  0
  158.9343  144.5532  182.1699 C   0  0  0  0  0  0  0  0  0  0  0  0
  159.3969  143.4923  183.1074 C   0  0  0  0  0  0  0  0  0  0  0  0
  159.0267  142.2536  182.6479 O   0  0  0  0  0  0  0  0  0  0  0  0
  158.1490  141.3093  180.7280 C   0  0  0  0  0  0  0  0  0  0  0  0
  158.7551  140.2330  181.0662 O   0  0  0  0  0  0  0  0  0  0  0  0
  157.6138  141.2816  179.4507 O   0  0  0  0  0  0  0  0  0  0  0  0
  157.1233  140.4439  179.1706 H   0  0  0  0  0  0  0  0  0  0  0  0
  154.2036  138.1599  186.4637 C   0  0  0  0  0  0  0  0  0  0  0  0
  155.3439  137.6014  187.3027 C   0  0  0  0  0  0  0  0  0  0  0  0
  156.9210  138.1448  189.9824 C   0  0  0  0  0  0  0  0  0  0  0  0
  155.5129  137.6858  189.8548 C   0  0  0  0  0  0  0  0  0  0  0  0
  154.6897  137.4266  190.8302 O   0  0  0  0  0  0  0  0  0  0  0  0
  153.5265  137.0448  190.3837 C   0  0  0  0  0  0  0  0  0  0  0  0
  153.6012  137.0579  189.0436 N   0  0  0  0  0  0  0  0  0  0  0  0
  154.8293  137.4537  188.6674 C   0  0  0  0  0  0  0  0  0  0  0  0
  152.3613  136.6723  191.1721 C   0  0  0  0  0  0  0  0  0  0  0  0
  152.1993  136.9981  192.5008 C   0  0  0  0  0  0  0  0  0  0  0  0
  151.0801  136.6316  193.2202 C   0  0  0  0  0  0  0  0  0  0  0  0
  150.0635  135.9128  192.6274 C   0  0  0  0  0  0  0  0  0  0  0  0
  150.1921  135.5672  191.2913 C   0  0  0  0  0  0  0  0  0  0  0  0
  148.9214  134.6493  190.4868 Cl  0  0  0  0  0  0  0  0  0  0  0  0
  151.3177  135.9434  190.5924 C   0  0  0  0  0  0  0  0  0  0  0  0
 20 21  1  0  0  0
 21 22  1  0  0  0
 22 23  1  0  0  0
 23 26  1  0  0  0
 26 27  2  0  0  0
 27 28  1  0  0  0
 28 29  2  0  0  0
 29 30  1  0  0  0
 30 31  1  0  0  0
 30 32  2  0  0  0
 23 24  2  0  0  0
 24 25  1  0  0  0
 25 19  1  0  0  0
 19 18  1  0  0  0
 18  1  1  0  0  0
  1  2  1  0  0  0
  2  3  2  0  0  0
  3  4  1  0  0  0
  4  5  2  0  0  0
  5  8  1  0  0  0
  8  9  1  0  0  0
  9 14  1  0  0  0
 14 15  2  0  0  0
 14 16  1  0  0  0
  9 10  1  0  0  0
 10 11  1  0  0  0
 11 12  1  0  0  0
 12 13  1  0  0  0
  5  6  1  0  0  0
  6  7  2  0  0  0
 25 21  2  0  0  0
  7  2  1  0  0  0
 32 26  1  0  0  0
 13  9  1  0  0  0
 16 17  1  0  0  0
M  END
> <minimizedAffinity>
-8.41002

> <CNNscore>
0.3686958253

> <CNNaffinity>
5.8576555252

> <CNN_VS>
2.1596932411

> <CNNaffinity_variance>
0.0789639205

$$$$
[H]OC(=O)C([H])([H])c1c([H])c([H])c(Oc2c([H])c([H])c(C(=O)N([H])C([H])(C([H])([H])[H])C([H])([H])[H])c([H])c2N([H])S(=O)(=O)c2c([H])c([H])c(Cl)c([H])c2Cl)c(OC([H])([H])[H])c1[H]


 40 42  0  0  0  0  0  0  0  0999 V2000
  155.4012  139.1089  184.7424 C   0  0  0  0  0  0  0  0  0  0  0  0
  156.7056  139.5203  184.7021 C   0  0  0  0  0  0  0  0  0  0  0  0
  157.1131  140.5628  183.8929 C   0  0  0  0  0  0  0  0  0  0  0  0
  156.1956  141.2097  183.1049 C   0  0  0  0  0  0  0  0  0  0  0  0
  154.8840  140.7861  183.1534 C   0  0  0  0  0  0  0  0  0  0  0  0
  154.4393  139.7566  183.9423 C   0  0  0  0  0  0  0  0  0  0  0  0
  156.5868  142.3255  182.2345 C   0  0  0  0  0  0  0  0  0  0  0  0
  155.7010  143.2014  181.9881 O   0  0  0  0  0  0  0  0  0  0  0  0
  157.8767  142.4218  181.6999 N   0  0  0  0  0  0  0  0  0  0  0  0
  158.6086  141.7283  181.8874 H   0  0  0  0  0  0  0  0  0  0  0  0
  158.2084  143.5495  180.8426 C   0  0  0  0  0  0  0  0  0  0  0  0
  158.9116  144.5645  181.7272 C   0  0  0  0  0  0  0  0  0  0  0  0
  159.0728  143.1030  179.7029 C   0  0  0  0  0  0  0  0  0  0  0  0
  153.0952  139.2975  183.9957 N   0  0  0  0  0  0  0  0  0  0  0  0
  152.4350  139.7339  184.6972 H   0  0  0  0  0  0  0  0  0  0  0  0
  152.5801  138.0574  182.9320 S   0  0  0  0  0  0  0  0  0  0  0  0
  153.5341  137.8830  181.7556 O   0  0  0  0  0  0  0  0  0  0  0  0
  152.5640  136.7431  183.7225 O   0  0  0  0  0  0  0  0  0  0  0  0
  150.9584  138.3794  182.3706 C   0  0  0  0  0  0  0  0  0  0  0  0
  149.9003  137.6808  182.8768 C   0  0  0  0  0  0  0  0  0  0  0  0
  148.6328  137.9799  182.3582 C   0  0  0  0  0  0  0  0  0  0  0  0
  148.4377  138.9257  181.3867 C   0  0  0  0  0  0  0  0  0  0  0  0
  146.8513  139.2803  180.7578 Cl  0  0  0  0  0  0  0  0  0  0  0  0
  149.5375  139.5972  180.9138 C   0  0  0  0  0  0  0  0  0  0  0  0
  150.7957  139.3500  181.3796 C   0  0  0  0  0  0  0  0  0  0  0  0
  152.2150  140.2134  180.7726 Cl  0  0  0  0  0  0  0  0  0  0  0  0
  154.9922  138.0684  185.5530 O   0  0  0  0  0  0  0  0  0  0  0  0
  153.7674  138.2532  187.6372 C   0  0  0  0  0  0  0  0  0  0  0  0
  153.8054  138.2369  189.0226 C   0  0  0  0  0  0  0  0  0  0  0  0
  154.9710  138.0413  189.7453 C   0  0  0  0  0  0  0  0  0  0  0  0
  156.1370  137.8563  189.0312 C   0  0  0  0  0  0  0  0  0  0  0  0
  156.1223  137.8694  187.6531 C   0  0  0  0  0  0  0  0  0  0  0  0
  154.9369  138.0685  186.9274 C   0  0  0  0  0  0  0  0  0  0  0  0
  151.6139  137.3939  186.9168 C   0  0  0  0  0  0  0  0  0  0  0  0
  152.5606  138.4518  186.9617 O   0  0  0  0  0  0  0  0  0  0  0  0
  154.9971  138.0259  191.2335 C   0  0  0  0  0  0  0  0  0  0  0  0
  155.5902  136.7531  191.7145 C   0  0  0  0  0  0  0  0  0  0  0  0
  156.7303  136.6442  192.2071 O   0  0  0  0  0  0  0  0  0  0  0  0
  154.7926  135.6047  191.5961 O   0  0  0  0  0  0  0  0  0  0  0  0
  153.8941  135.5908  192.0533 H   0  0  0  0  0  0  0  0  0  0  0  0
 34 35  1  0  0  0
 35 28  1  0  0  0
 28 29  2  0  0  0
 29 30  1  0  0  0
 30 36  1  0  0  0
 36 37  1  0  0  0
 37 38  2  0  0  0
 37 39  1  0  0  0
 30 31  2  0  0  0
 31 32  1  0  0  0
 32 33  2  0  0  0
 33 27  1  0  0  0
 27  1  1  0  0  0
  1  2  2  0  0  0
  2  3  1  0  0  0
  3  4  2  0  0  0
  4  7  1  0  0  0
  7  8  2  0  0  0
  7  9  1  0  0  0
  9 11  1  0  0  0
 11 12  1  0  0  0
 11 13  1  0  0  0
  4  5  1  0  0  0
  5  6  2  0  0  0
  6 14  1  0  0  0
 14 16  1  0  0  0
 16 17  2  0  0  0
 16 18  2  0  0  0
 16 19  1  0  0  0
 19 20  2  0  0  0
 20 21  1  0  0  0
 21 22  2  0  0  0
 22 23  1  0  0  0
 22 24  1  0  0  0
 24 25  2  0  0  0
 25 26  1  0  0  0
 33 28  1  0  0  0
  6  1  1  0  0  0
 25 19  1  0  0  0
 39 40  1  0  0  0
  9 10  1  0  0  0
 14 15  1  0  0  0
M  END
> <minimizedAffinity>
-7.98925

> <CNNscore>
0.2731626332

> <CNNaffinity>
6.2480435371

> <CNN_VS>
1.7067320347

> <CNNaffinity_variance>
0.3427669406

$$$$
[H]OC(=O)C([H])([H])c1c([H])c([H])c(Oc2c([H])c([H])c(C(=O)N([H])C([H])(C([H])([H])[H])C([H])([H])[H])c([H])c2N([H])S(=O)(=O)c2c([H])c([H])c(Cl)c([H])c2Cl)c(OC([H])([H])[H])c1[H]


 40 42  0  0  0  0  0  0  0  0999 V2000
  153.9708  139.2761  183.5128 C   0  0  0  0  0  0  0  0  0  0  0  0
  154.1434  140.4107  182.7676 C   0  0  0  0  0  0  0  0  0  0  0  0
  155.2609  141.2097  182.9104 C   0  0  0  0  0  0  0  0  0  0  0  0
  156.2291  140.8674  183.8195 C   0  0  0  0  0  0  0  0  0  0  0  0
  156.0442  139.7222  184.5653 C   0  0  0  0  0  0  0  0  0  0  0  0
  154.9505  138.9027  184.4540 C   0  0  0  0  0  0  0  0  0  0  0  0
  157.4342  141.6870  183.9984 C   0  0  0  0  0  0  0  0  0  0  0  0
  157.5633  142.6946  183.2364 O   0  0  0  0  0  0  0  0  0  0  0  0
  158.3977  141.3742  184.9641 N   0  0  0  0  0  0  0  0  0  0  0  0
  158.3130  140.5677  185.5920 H   0  0  0  0  0  0  0  0  0  0  0  0
  159.5727  142.2217  185.0963 C   0  0  0  0  0  0  0  0  0  0  0  0
  159.8560  142.3276  186.5849 C   0  0  0  0  0  0  0  0  0  0  0  0
  160.7282  141.6339  184.3448 C   0  0  0  0  0  0  0  0  0  0  0  0
  154.7363  137.7265  185.2227 N   0  0  0  0  0  0  0  0  0  0  0  0
  155.2432  136.8395  184.9495 H   0  0  0  0  0  0  0  0  0  0  0  0
  153.6698  137.7722  186.5627 S   0  0  0  0  0  0  0  0  0  0  0  0
  152.9163  139.0949  186.6464 O   0  0  0  0  0  0  0  0  0  0  0  0
  152.6368  136.6542  186.3736 O   0  0  0  0  0  0  0  0  0  0  0  0
  154.5458  137.4649  188.0414 C   0  0  0  0  0  0  0  0  0  0  0  0
  155.8883  137.7029  188.1116 C   0  0  0  0  0  0  0  0  0  0  0  0
  156.5249  137.4083  189.3252 C   0  0  0  0  0  0  0  0  0  0  0  0
  155.8532  136.9032  190.4069 C   0  0  0  0  0  0  0  0  0  0  0  0
  156.6671  136.5452  191.9061 Cl  0  0  0  0  0  0  0  0  0  0  0  0
  154.5044  136.6829  190.2800 C   0  0  0  0  0  0  0  0  0  0  0  0
  153.8300  136.9502  189.1246 C   0  0  0  0  0  0  0  0  0  0  0  0
  152.0920  136.6676  188.9575 Cl  0  0  0  0  0  0  0  0  0  0  0  0
  152.8552  138.4751  183.3691 O   0  0  0  0  0  0  0  0  0  0  0  0
  151.1465  137.4048  182.0228 C   0  0  0  0  0  0  0  0  0  0  0  0
  150.2914  137.4866  180.9351 C   0  0  0  0  0  0  0  0  0  0  0  0
  150.2230  138.5961  180.1082 C   0  0  0  0  0  0  0  0  0  0  0  0
  151.0546  139.6575  180.4005 C   0  0  0  0  0  0  0  0  0  0  0  0
  151.9131  139.5973  181.4770 C   0  0  0  0  0  0  0  0  0  0  0  0
  151.9771  138.4692  182.3105 C   0  0  0  0  0  0  0  0  0  0  0  0
  150.0836  136.0147  183.7060 C   0  0  0  0  0  0  0  0  0  0  0  0
  151.1695  136.2604  182.8240 O   0  0  0  0  0  0  0  0  0  0  0  0
  149.2996  138.6704  178.9432 C   0  0  0  0  0  0  0  0  0  0  0  0
  147.9326  138.2656  179.3564 C   0  0  0  0  0  0  0  0  0  0  0  0
  147.1665  138.9627  180.0504 O   0  0  0  0  0  0  0  0  0  0  0  0
  147.4935  137.0051  178.9235 O   0  0  0  0  0  0  0  0  0  0  0  0
  147.4662  136.8164  177.9336 H   0  0  0  0  0  0  0  0  0  0  0  0
 34 35  1  0  0  0
 35 28  1  0  0  0
 28 29  2  0  0  0
 29 30  1  0  0  0
 30 36  1  0  0  0
 36 37  1  0  0  0
 37 38  2  0  0  0
 37 39  1  0  0  0
 30 31  2  0  0  0
 31 32  1  0  0  0
 32 33  2  0  0  0
 33 27  1  0  0  0
 27  1  1  0  0  0
  1  2  2  0  0  0
  2  3  1  0  0  0
  3  4  2  0  0  0
  4  7  1  0  0  0
  7  8  2  0  0  0
  7  9  1  0  0  0
  9 11  1  0  0  0
 11 12  1  0  0  0
 11 13  1  0  0  0
  4  5  1  0  0  0
  5  6  2  0  0  0
  6 14  1  0  0  0
 14 16  1  0  0  0
 16 17  2  0  0  0
 16 18  2  0  0  0
 16 19  1  0  0  0
 19 20  2  0  0  0
 20 21  1  0  0  0
 21 22  2  0  0  0
 22 23  1  0  0  0
 22 24  1  0  0  0
 24 25  2  0  0  0
 25 26  1  0  0  0
 33 28  1  0  0  0
  6  1  1  0  0  0
 25 19  1  0  0  0
 39 40  1  0  0  0
  9 10  1  0  0  0
 14 15  1  0  0  0
M  END
> <minimizedAffinity>
-8.06377

> <CNNscore>
0.2566659153

> <CNNaffinity>
6.0600023270

> <CNN_VS>
1.5553960800

> <CNNaffinity_variance>
0.3283048868

$$$$
[H]OC(=O)C([H])([H])c1c([H])c([H])c(Oc2c([H])c([H])c(C(=O)N([H])C([H])(C([H])([H])[H])C([H])([H])[H])c([H])c2N([H])S(=O)(=O)c2c([H])c([H])c(Cl)c([H])c2Cl)c(OC([H])([H])[H])c1[H]


 40 42  0  0  0  0  0  0  0  0999 V2000
  154.7061  138.0611  184.8243 C   0  0  0  0  0  0  0  0  0  0  0  0
  153.6828  137.2572  184.4012 C   0  0  0  0  0  0  0  0  0  0  0  0
  152.8145  137.6527  183.4025 C   0  0  0  0  0  0  0  0  0  0  0  0
  152.9720  138.8808  182.8126 C   0  0  0  0  0  0  0  0  0  0  0  0
  154.0063  139.6826  183.2474 C   0  0  0  0  0  0  0  0  0  0  0  0
  154.8891  139.3275  184.2348 C   0  0  0  0  0  0  0  0  0  0  0  0
  152.0736  139.3368  181.7444 C   0  0  0  0  0  0  0  0  0  0  0  0
  152.5824  140.0631  180.8354 O   0  0  0  0  0  0  0  0  0  0  0  0
  150.7184  138.9879  181.7266 N   0  0  0  0  0  0  0  0  0  0  0  0
  150.2867  138.4005  182.4480 H   0  0  0  0  0  0  0  0  0  0  0  0
  149.8748  139.4691  180.6434 C   0  0  0  0  0  0  0  0  0  0  0  0
  149.9019  138.3927  179.5722 C   0  0  0  0  0  0  0  0  0  0  0  0
  148.4859  139.7327  181.1404 C   0  0  0  0  0  0  0  0  0  0  0  0
  155.9523  140.1452  184.7051 N   0  0  0  0  0  0  0  0  0  0  0  0
  155.9637  140.4310  185.7232 H   0  0  0  0  0  0  0  0  0  0  0  0
  157.1802  140.6459  183.6204 S   0  0  0  0  0  0  0  0  0  0  0  0
  157.6655  139.4993  182.7406 O   0  0  0  0  0  0  0  0  0  0  0  0
  156.5819  141.7206  182.7040 O   0  0  0  0  0  0  0  0  0  0  0  0
  158.5104  141.3552  184.5014 C   0  0  0  0  0  0  0  0  0  0  0  0
  158.4724  141.4359  185.8637 C   0  0  0  0  0  0  0  0  0  0  0  0
  159.5672  142.0404  186.4968 C   0  0  0  0  0  0  0  0  0  0  0  0
  160.6391  142.5364  185.8029 C   0  0  0  0  0  0  0  0  0  0  0  0
  161.9894  143.2836  186.6131 Cl  0  0  0  0  0  0  0  0  0  0  0  0
  160.6239  142.4289  184.4346 C   0  0  0  0  0  0  0  0  0  0  0  0
  159.5870  141.8508  183.7625 C   0  0  0  0  0  0  0  0  0  0  0  0
  159.5643  141.7107  181.9995 Cl  0  0  0  0  0  0  0  0  0  0  0  0
  155.5764  137.6656  185.8208 O   0  0  0  0  0  0  0  0  0  0  0  0
  156.0611  136.9331  188.0806 C   0  0  0  0  0  0  0  0  0  0  0  0
  155.7545  137.0178  189.4296 C   0  0  0  0  0  0  0  0  0  0  0  0
  154.7491  137.8305  189.9275 C   0  0  0  0  0  0  0  0  0  0  0  0
  154.0323  138.5819  189.0192 C   0  0  0  0  0  0  0  0  0  0  0  0
  154.3199  138.5127  187.6730 C   0  0  0  0  0  0  0  0  0  0  0  0
  155.3403  137.6863  187.1757 C   0  0  0  0  0  0  0  0  0  0  0  0
  157.6866  135.1928  188.5542 C   0  0  0  0  0  0  0  0  0  0  0  0
  157.0891  136.0976  187.6366 O   0  0  0  0  0  0  0  0  0  0  0  0
  154.4308  137.9118  191.3793 C   0  0  0  0  0  0  0  0  0  0  0  0
  153.6114  136.7416  191.7823 C   0  0  0  0  0  0  0  0  0  0  0  0
  154.0640  135.7094  192.3155 O   0  0  0  0  0  0  0  0  0  0  0  0
  152.2326  136.8260  191.5357 O   0  0  0  0  0  0  0  0  0  0  0  0
  151.7130  137.5845  191.9491 H   0  0  0  0  0  0  0  0  0  0  0  0
 34 35  1  0  0  0
 35 28  1  0  0  0
 28 29  2  0  0  0
 29 30  1  0  0  0
 30 36  1  0  0  0
 36 37  1  0  0  0
 37 38  2  0  0  0
 37 39  1  0  0  0
 30 31  2  0  0  0
 31 32  1  0  0  0
 32 33  2  0  0  0
 33 27  1  0  0  0
 27  1  1  0  0  0
  1  2  2  0  0  0
  2  3  1  0  0  0
  3  4  2  0  0  0
  4  7  1  0  0  0
  7  8  2  0  0  0
  7  9  1  0  0  0
  9 11  1  0  0  0
 11 12  1  0  0  0
 11 13  1  0  0  0
  4  5  1  0  0  0
  5  6  2  0  0  0
  6 14  1  0  0  0
 14 16  1  0  0  0
 16 17  2  0  0  0
 16 18  2  0  0  0
 16 19  1  0  0  0
 19 20  2  0  0  0
 20 21  1  0  0  0
 21 22  2  0  0  0
 22 23  1  0  0  0
 22 24  1  0  0  0
 24 25  2  0  0  0
 25 26  1  0  0  0
 33 28  1  0  0  0
  6  1  1  0  0  0
 25 19  1  0  0  0
 39 40  1  0  0  0
  9 10  1  0  0  0
 14 15  1  0  0  0
M  END
> <minimizedAffinity>
-8.85194

> <CNNscore>
0.2183068842

> <CNNaffinity>
6.5284843445

> <CNN_VS>
1.4252130985

> <CNNaffinity_variance>
0.1727455556

$$$$
[H]OC(=O)C([H])([H])c1c([H])c([H])c(Oc2c([H])c([H])c(C(=O)N([H])C([H])(C([H])([H])[H])C([H])([H])[H])c([H])c2N([H])S(=O)(=O)c2c([H])c([H])c(Cl)c([H])c2Cl)c(OC([H])([H])[H])c1[H]


 40 42  0  0  0  0  0  0  0  0999 V2000
  155.2404  138.8156  185.5096 C   0  0  0  0  0  0  0  0  0  0  0  0
  156.5758  138.8903  185.7985 C   0  0  0  0  0  0  0  0  0  0  0  0
  157.4557  139.5831  184.9901 C   0  0  0  0  0  0  0  0  0  0  0  0
  156.9904  140.2161  183.8658 C   0  0  0  0  0  0  0  0  0  0  0  0
  155.6429  140.1336  183.5843 C   0  0  0  0  0  0  0  0  0  0  0  0
  154.7374  139.4568  184.3603 C   0  0  0  0  0  0  0  0  0  0  0  0
  157.8918  140.9670  182.9828 C   0  0  0  0  0  0  0  0  0  0  0  0
  159.0874  141.1248  183.3804 O   0  0  0  0  0  0  0  0  0  0  0  0
  157.4555  141.4857  181.7583 N   0  0  0  0  0  0  0  0  0  0  0  0
  156.4960  141.3681  181.4157 H   0  0  0  0  0  0  0  0  0  0  0  0
  158.3925  142.2224  180.9241 C   0  0  0  0  0  0  0  0  0  0  0  0
  158.0274  141.8989  179.4857 C   0  0  0  0  0  0  0  0  0  0  0  0
  158.3039  143.6907  181.2099 C   0  0  0  0  0  0  0  0  0  0  0  0
  153.3482  139.3496  184.0794 N   0  0  0  0  0  0  0  0  0  0  0  0
  152.7303  140.1939  184.2334 H   0  0  0  0  0  0  0  0  0  0  0  0
  152.7118  137.8670  183.5035 S   0  0  0  0  0  0  0  0  0  0  0  0
  153.8106  136.8538  183.2027 O   0  0  0  0  0  0  0  0  0  0  0  0
  151.8228  137.2818  184.6080 O   0  0  0  0  0  0  0  0  0  0  0  0
  151.7221  138.1434  182.0919 C   0  0  0  0  0  0  0  0  0  0  0  0
  151.7561  139.3472  181.4489 C   0  0  0  0  0  0  0  0  0  0  0  0
  150.9149  139.5000  180.3380 C   0  0  0  0  0  0  0  0  0  0  0  0
  150.0862  138.5023  179.8975 C   0  0  0  0  0  0  0  0  0  0  0  0
  149.0493  138.7163  178.5129 Cl  0  0  0  0  0  0  0  0  0  0  0  0
  150.0924  137.3128  180.5824 C   0  0  0  0  0  0  0  0  0  0  0  0
  150.8890  137.1047  181.6701 C   0  0  0  0  0  0  0  0  0  0  0  0
  150.8996  135.5733  182.5549 Cl  0  0  0  0  0  0  0  0  0  0  0  0
  154.3594  138.1255  186.3185 O   0  0  0  0  0  0  0  0  0  0  0  0
  155.1051  136.4032  187.8534 C   0  0  0  0  0  0  0  0  0  0  0  0
  155.3186  136.0195  189.1680 C   0  0  0  0  0  0  0  0  0  0  0  0
  155.0505  136.8426  190.2495 C   0  0  0  0  0  0  0  0  0  0  0  0
  154.5476  138.0991  189.9814 C   0  0  0  0  0  0  0  0  0  0  0  0
  154.3271  138.5012  188.6817 C   0  0  0  0  0  0  0  0  0  0  0  0
  154.6010  137.6612  187.5905 C   0  0  0  0  0  0  0  0  0  0  0  0
  154.4387  134.5497  186.4338 C   0  0  0  0  0  0  0  0  0  0  0  0
  155.3975  135.5308  186.8020 O   0  0  0  0  0  0  0  0  0  0  0  0
  155.2849  136.4173  191.6566 C   0  0  0  0  0  0  0  0  0  0  0  0
  154.0588  135.7837  192.2029 C   0  0  0  0  0  0  0  0  0  0  0  0
  153.1359  136.3998  192.7714 O   0  0  0  0  0  0  0  0  0  0  0  0
  153.9534  134.3920  192.0577 O   0  0  0  0  0  0  0  0  0  0  0  0
  153.9838  133.9991  191.1297 H   0  0  0  0  0  0  0  0  0  0  0  0
 34 35  1  0  0  0
 35 28  1  0  0  0
 28 29  2  0  0  0
 29 30  1  0  0  0
 30 36  1  0  0  0
 36 37  1  0  0  0
 37 38  2  0  0  0
 37 39  1  0  0  0
 30 31  2  0  0  0
 31 32  1  0  0  0
 32 33  2  0  0  0
 33 27  1  0  0  0
 27  1  1  0  0  0
  1  2  2  0  0  0
  2  3  1  0  0  0
  3  4  2  0  0  0
  4  7  1  0  0  0
  7  8  2  0  0  0
  7  9  1  0  0  0
  9 11  1  0  0  0
 11 12  1  0  0  0
 11 13  1  0  0  0
  4  5  1  0  0  0
  5  6  2  0  0  0
  6 14  1  0  0  0
 14 16  1  0  0  0
 16 17  2  0  0  0
 16 18  2  0  0  0
 16 19  1  0  0  0
 19 20  2  0  0  0
 20 21  1  0  0  0
 21 22  2  0  0  0
 22 23  1  0  0  0
 22 24  1  0  0  0
 24 25  2  0  0  0
 25 26  1  0  0  0
 33 28  1  0  0  0
  6  1  1  0  0  0
 25 19  1  0  0  0
 39 40  1  0  0  0
  9 10  1  0  0  0
 14 15  1  0  0  0
M  END
> <minimizedAffinity>
-7.23736

> <CNNscore>
0.2163162529

> <CNNaffinity>
6.1849856377

> <CNN_VS>
1.3379129171

> <CNNaffinity_variance>
0.1488867104

$$$$
[H]OC(=O)C([H])([H])c1c([H])c([H])c(Oc2c([H])c([H])c(C(=O)N([H])C([H])(C([H])([H])[H])C([H])([H])[H])c([H])c2N([H])S(=O)(=O)c2c([H])c([H])c(Cl)c([H])c2Cl)c(OC([H])([H])[H])c1[H]


 40 42  0  0  0  0  0  0  0  0999 V2000
  154.2554  140.0451  183.4712 C   0  0  0  0  0  0  0  0  0  0  0  0
  153.7459  141.0333  182.6737 C   0  0  0  0  0  0  0  0  0  0  0  0
  152.7429  140.7820  181.7578 C   0  0  0  0  0  0  0  0  0  0  0  0
  152.2371  139.5130  181.6356 C   0  0  0  0  0  0  0  0  0  0  0  0
  152.7586  138.5250  182.4441 C   0  0  0  0  0  0  0  0  0  0  0  0
  153.7533  138.7330  183.3647 C   0  0  0  0  0  0  0  0  0  0  0  0
  151.1676  139.2052  180.6778 C   0  0  0  0  0  0  0  0  0  0  0  0
  151.4604  139.2799  179.4444 O   0  0  0  0  0  0  0  0  0  0  0  0
  149.8835  138.8453  181.1025 N   0  0  0  0  0  0  0  0  0  0  0  0
  149.6253  138.7758  182.0926 H   0  0  0  0  0  0  0  0  0  0  0  0
  148.8624  138.5517  180.1086 C   0  0  0  0  0  0  0  0  0  0  0  0
  148.9161  137.0521  179.8732 C   0  0  0  0  0  0  0  0  0  0  0  0
  147.5166  138.9964  180.5949 C   0  0  0  0  0  0  0  0  0  0  0  0
  154.3122  137.7253  184.1969 N   0  0  0  0  0  0  0  0  0  0  0  0
  155.2875  137.3741  183.9873 H   0  0  0  0  0  0  0  0  0  0  0  0
  153.4003  137.1072  185.5088 S   0  0  0  0  0  0  0  0  0  0  0  0
  151.9751  137.6488  185.5174 O   0  0  0  0  0  0  0  0  0  0  0  0
  153.3231  135.5841  185.3453 O   0  0  0  0  0  0  0  0  0  0  0  0
  154.2036  137.4565  187.0192 C   0  0  0  0  0  0  0  0  0  0  0  0
  155.4865  137.9233  187.0279 C   0  0  0  0  0  0  0  0  0  0  0  0
  156.0709  138.1570  188.2804 C   0  0  0  0  0  0  0  0  0  0  0  0
  155.4065  137.9345  189.4574 C   0  0  0  0  0  0  0  0  0  0  0  0
  156.1546  138.2332  191.0031 Cl  0  0  0  0  0  0  0  0  0  0  0  0
  154.1188  137.4643  189.3892 C   0  0  0  0  0  0  0  0  0  0  0  0
  153.4970  137.2183  188.2001 C   0  0  0  0  0  0  0  0  0  0  0  0
  151.8378  136.6124  188.1086 Cl  0  0  0  0  0  0  0  0  0  0  0  0
  155.2562  140.2957  184.3890 O   0  0  0  0  0  0  0  0  0  0  0  0
  156.9693  141.8679  183.7023 C   0  0  0  0  0  0  0  0  0  0  0  0
  158.3119  142.0985  183.4470 C   0  0  0  0  0  0  0  0  0  0  0  0
  159.2865  141.1236  183.5842 C   0  0  0  0  0  0  0  0  0  0  0  0
  158.8781  139.8714  183.9953 C   0  0  0  0  0  0  0  0  0  0  0  0
  157.5480  139.6200  184.2542 C   0  0  0  0  0  0  0  0  0  0  0  0
  156.5657  140.6132  184.1127 C   0  0  0  0  0  0  0  0  0  0  0  0
  156.1463  143.7726  182.4415 C   0  0  0  0  0  0  0  0  0  0  0  0
  156.0309  142.8917  183.5497 O   0  0  0  0  0  0  0  0  0  0  0  0
  160.7253  141.3853  183.3066 C   0  0  0  0  0  0  0  0  0  0  0  0
  161.3907  141.8951  184.5316 C   0  0  0  0  0  0  0  0  0  0  0  0
  160.7913  142.3156  185.5408 O   0  0  0  0  0  0  0  0  0  0  0  0
  162.7939  141.8938  184.5305 O   0  0  0  0  0  0  0  0  0  0  0  0
  163.2765  141.0198  184.3910 H   0  0  0  0  0  0  0  0  0  0  0  0
 34 35  1  0  0  0
 35 28  1  0  0  0
 28 29  2  0  0  0
 29 30  1  0  0  0
 30 36  1  0  0  0
 36 37  1  0  0  0
 37 38  2  0  0  0
 37 39  1  0  0  0
 30 31  2  0  0  0
 31 32  1  0  0  0
 32 33  2  0  0  0
 33 27  1  0  0  0
 27  1  1  0  0  0
  1  2  2  0  0  0
  2  3  1  0  0  0
  3  4  2  0  0  0
  4  7  1  0  0  0
  7  8  2  0  0  0
  7  9  1  0  0  0
  9 11  1  0  0  0
 11 12  1  0  0  0
 11 13  1  0  0  0
  4  5  1  0  0  0
  5  6  2  0  0  0
  6 14  1  0  0  0
 14 16  1  0  0  0
 16 17  2  0  0  0
 16 18  2  0  0  0
 16 19  1  0  0  0
 19 20  2  0  0  0
 20 21  1  0  0  0
 21 22  2  0  0  0
 22 23  1  0  0  0
 22 24  1  0  0  0
 24 25  2  0  0  0
 25 26  1  0  0  0
 33 28  1  0  0  0
  6  1  1  0  0  0
 25 19  1  0  0  0
 39 40  1  0  0  0
  9 10  1  0  0  0
 14 15  1  0  0  0
M  END
> <minimizedAffinity>
-8.76843

> <CNNscore>
0.1722469926

> <CNNaffinity>
6.2899661064

> <CNN_VS>
1.0834277868

> <CNNaffinity_variance>
0.5477319360

$$$$
[H]OC(=O)C([H])([H])c1c([H])c([H])c(Oc2c([H])c([H])c(C(=O)N([H])C([H])(C([H])([H])[H])C([H])([H])[H])c([H])c2N([H])S(=O)(=O)c2c([H])c([H])c(Cl)c([H])c2Cl)c(OC([H])([H])[H])c1[H]


 40 42  0  0  0  0  0  0  0  0999 V2000
  154.0870  138.7909  184.4145 C   0  0  0  0  0  0  0  0  0  0  0  0
  155.3493  139.2325  184.7043 C   0  0  0  0  0  0  0  0  0  0  0  0
  155.9635  140.2171  183.9553 C   0  0  0  0  0  0  0  0  0  0  0  0
  155.3011  140.7738  182.8911 C   0  0  0  0  0  0  0  0  0  0  0  0
  154.0297  140.3205  182.6082 C   0  0  0  0  0  0  0  0  0  0  0  0
  153.3853  139.3462  183.3262 C   0  0  0  0  0  0  0  0  0  0  0  0
  155.9167  141.8261  182.0729 C   0  0  0  0  0  0  0  0  0  0  0  0
  155.3041  142.9365  182.0071 O   0  0  0  0  0  0  0  0  0  0  0  0
  157.1236  141.6174  181.3957 N   0  0  0  0  0  0  0  0  0  0  0  0
  157.6370  140.7305  181.4366 H   0  0  0  0  0  0  0  0  0  0  0  0
  157.6871  142.6960  180.5986 C   0  0  0  0  0  0  0  0  0  0  0  0
  158.7371  143.3649  181.4690 C   0  0  0  0  0  0  0  0  0  0  0  0
  158.2707  142.1571  179.3280 C   0  0  0  0  0  0  0  0  0  0  0  0
  152.0814  138.8571  183.0418 N   0  0  0  0  0  0  0  0  0  0  0  0
  151.2455  139.3899  183.4102 H   0  0  0  0  0  0  0  0  0  0  0  0
  151.8956  137.4268  182.1172 S   0  0  0  0  0  0  0  0  0  0  0  0
  153.1627  137.0795  181.3439 O   0  0  0  0  0  0  0  0  0  0  0  0
  151.6096  136.2769  183.0912 O   0  0  0  0  0  0  0  0  0  0  0  0
  150.5336  137.5807  181.0356 C   0  0  0  0  0  0  0  0  0  0  0  0
  149.4438  136.7707  181.1770 C   0  0  0  0  0  0  0  0  0  0  0  0
  148.4013  136.9387  180.2550 C   0  0  0  0  0  0  0  0  0  0  0  0
  148.4494  137.8662  179.2482 C   0  0  0  0  0  0  0  0  0  0  0  0
  147.1398  138.0567  178.1138 Cl  0  0  0  0  0  0  0  0  0  0  0  0
  149.5697  138.6535  179.1529 C   0  0  0  0  0  0  0  0  0  0  0  0
  150.6160  138.5365  180.0206 C   0  0  0  0  0  0  0  0  0  0  0  0
  152.0611  139.5493  179.9008 Cl  0  0  0  0  0  0  0  0  0  0  0  0
  153.4709  137.8085  185.1642 O   0  0  0  0  0  0  0  0  0  0  0  0
  154.3590  136.3582  186.8922 C   0  0  0  0  0  0  0  0  0  0  0  0
  154.5606  136.1374  188.2455 C   0  0  0  0  0  0  0  0  0  0  0  0
  154.1429  137.0216  189.2269 C   0  0  0  0  0  0  0  0  0  0  0  0
  153.4979  138.1693  188.8141 C   0  0  0  0  0  0  0  0  0  0  0  0
  153.2865  138.4087  187.4734 C   0  0  0  0  0  0  0  0  0  0  0  0
  153.7124  137.5076  186.4845 C   0  0  0  0  0  0  0  0  0  0  0  0
  153.9333  134.3868  185.5404 C   0  0  0  0  0  0  0  0  0  0  0  0
  154.8056  135.4315  185.9468 O   0  0  0  0  0  0  0  0  0  0  0  0
  154.3663  136.7717  190.6771 C   0  0  0  0  0  0  0  0  0  0  0  0
  155.4074  137.6951  191.1936 C   0  0  0  0  0  0  0  0  0  0  0  0
  155.3290  138.9391  191.1638 O   0  0  0  0  0  0  0  0  0  0  0  0
  156.5514  137.1031  191.7501 O   0  0  0  0  0  0  0  0  0  0  0  0
  156.4396  136.4736  192.5295 H   0  0  0  0  0  0  0  0  0  0  0  0
 34 35  1  0  0  0
 35 28  1  0  0  0
 28 29  2  0  0  0
 29 30  1  0  0  0
 30 36  1  0  0  0
 36 37  1  0  0  0
 37 38  2  0  0  0
 37 39  1  0  0  0
 30 31  2  0  0  0
 31 32  1  0  0  0
 32 33  2  0  0  0
 33 27  1  0  0  0
 27  1  1  0  0  0
  1  2  2  0  0  0
  2  3  1  0  0  0
  3  4  2  0  0  0
  4  7  1  0  0  0
  7  8  2  0  0  0
  7  9  1  0  0  0
  9 11  1  0  0  0
 11 12  1  0  0  0
 11 13  1  0  0  0
  4  5  1  0  0  0
  5  6  2  0  0  0
  6 14  1  0  0  0
 14 16  1  0  0  0
 16 17  2  0  0  0
 16 18  2  0  0  0
 16 19  1  0  0  0
 19 20  2  0  0  0
 20 21  1  0  0  0
 21 22  2  0  0  0
 22 23  1  0  0  0
 22 24  1  0  0  0
 24 25  2  0  0  0
 25 26  1  0  0  0
 33 28  1  0  0  0
  6  1  1  0  0  0
 25 19  1  0  0  0
 39 40  1  0  0  0
  9 10  1  0  0  0
 14 15  1  0  0  0
M  END
> <minimizedAffinity>
-7.51497

> <CNNscore>
0.1713118553

> <CNNaffinity>
6.0871644020

> <CNN_VS>
1.0428034067

> <CNNaffinity_variance>
0.2033456564

$$$$
[H]OC(=O)C([H])([H])c1c([H])c([H])c(Oc2c([H])c([H])c(C(=O)N([H])C([H])(C([H])([H])[H])C([H])([H])[H])c([H])c2N([H])S(=O)(=O)c2c([H])c([H])c(Cl)c([H])c2Cl)c(OC([H])([H])[H])c1[H]


 40 42  0  0  0  0  0  0  0  0999 V2000
  154.6238  138.3290  185.9907 C   0  0  0  0  0  0  0  0  0  0  0  0
  153.3495  137.8486  186.1242 C   0  0  0  0  0  0  0  0  0  0  0  0
  152.5011  137.7309  185.0407 C   0  0  0  0  0  0  0  0  0  0  0  0
  152.9358  138.1023  183.7940 C   0  0  0  0  0  0  0  0  0  0  0  0
  154.2217  138.5855  183.6717 C   0  0  0  0  0  0  0  0  0  0  0  0
  155.0944  138.7177  184.7209 C   0  0  0  0  0  0  0  0  0  0  0  0
  152.0670  137.9884  182.6159 C   0  0  0  0  0  0  0  0  0  0  0  0
  151.6846  136.8212  182.2934 O   0  0  0  0  0  0  0  0  0  0  0  0
  151.6764  139.1134  181.8806 N   0  0  0  0  0  0  0  0  0  0  0  0
  151.9704  140.0654  182.1241 H   0  0  0  0  0  0  0  0  0  0  0  0
  150.8147  138.9408  180.7213 C   0  0  0  0  0  0  0  0  0  0  0  0
  149.4124  139.3087  181.1745 C   0  0  0  0  0  0  0  0  0  0  0  0
  151.2835  139.8027  179.5887 C   0  0  0  0  0  0  0  0  0  0  0  0
  156.4178  139.2257  184.6165 N   0  0  0  0  0  0  0  0  0  0  0  0
  157.2042  138.7009  185.0903 H   0  0  0  0  0  0  0  0  0  0  0  0
  156.7059  140.6654  183.7337 S   0  0  0  0  0  0  0  0  0  0  0  0
  156.8598  140.3972  182.2408 O   0  0  0  0  0  0  0  0  0  0  0  0
  155.4889  141.5793  183.9239 O   0  0  0  0  0  0  0  0  0  0  0  0
  158.1123  141.4871  184.3626 C   0  0  0  0  0  0  0  0  0  0  0  0
  158.5663  141.2154  185.6211 C   0  0  0  0  0  0  0  0  0  0  0  0
  159.6861  141.9335  186.0632 C   0  0  0  0  0  0  0  0  0  0  0  0
  160.3144  142.8714  185.2873 C   0  0  0  0  0  0  0  0  0  0  0  0
  161.7059  143.7514  185.8593 Cl  0  0  0  0  0  0  0  0  0  0  0  0
  159.8146  143.1045  184.0304 C   0  0  0  0  0  0  0  0  0  0  0  0
  158.7284  142.4370  183.5449 C   0  0  0  0  0  0  0  0  0  0  0  0
  158.0819  142.7348  181.9257 Cl  0  0  0  0  0  0  0  0  0  0  0  0
  155.4738  138.4446  187.0728 O   0  0  0  0  0  0  0  0  0  0  0  0
  155.5209  137.4738  189.2939 C   0  0  0  0  0  0  0  0  0  0  0  0
  155.9207  136.4223  190.1036 C   0  0  0  0  0  0  0  0  0  0  0  0
  156.6249  135.3276  189.6293 C   0  0  0  0  0  0  0  0  0  0  0  0
  156.9318  135.3046  188.2844 C   0  0  0  0  0  0  0  0  0  0  0  0
  156.5445  136.3399  187.4611 C   0  0  0  0  0  0  0  0  0  0  0  0
  155.8312  137.4464  187.9491 C   0  0  0  0  0  0  0  0  0  0  0  0
  155.0113  138.9034  191.1891 C   0  0  0  0  0  0  0  0  0  0  0  0
  154.8093  138.5510  189.8280 O   0  0  0  0  0  0  0  0  0  0  0  0
  157.0479  134.2049  190.5105 C   0  0  0  0  0  0  0  0  0  0  0  0
  155.9183  133.2614  190.7026 C   0  0  0  0  0  0  0  0  0  0  0  0
  155.8612  132.3979  191.6003 O   0  0  0  0  0  0  0  0  0  0  0  0
  154.8510  133.3675  189.7980 O   0  0  0  0  0  0  0  0  0  0  0  0
  154.3647  134.2476  189.7250 H   0  0  0  0  0  0  0  0  0  0  0  0
 34 35  1  0  0  0
 35 28  1  0  0  0
 28 29  2  0  0  0
 29 30  1  0  0  0
 30 36  1  0  0  0
 36 37  1  0  0  0
 37 38  2  0  0  0
 37 39  1  0  0  0
 30 31  2  0  0  0
 31 32  1  0  0  0
 32 33  2  0  0  0
 33 27  1  0  0  0
 27  1  1  0  0  0
  1  2  2  0  0  0
  2  3  1  0  0  0
  3  4  2  0  0  0
  4  7  1  0  0  0
  7  8  2  0  0  0
  7  9  1  0  0  0
  9 11  1  0  0  0
 11 12  1  0  0  0
 11 13  1  0  0  0
  4  5  1  0  0  0
  5  6  2  0  0  0
  6 14  1  0  0  0
 14 16  1  0  0  0
 16 17  2  0  0  0
 16 18  2  0  0  0
 16 19  1  0  0  0
 19 20  2  0  0  0
 20 21  1  0  0  0
 21 22  2  0  0  0
 22 23  1  0  0  0
 22 24  1  0  0  0
 24 25  2  0  0  0
 25 26  1  0  0  0
 33 28  1  0  0  0
  6  1  1  0  0  0
 25 19  1  0  0  0
 39 40  1  0  0  0
  9 10  1  0  0  0
 14 15  1  0  0  0
M  END
> <minimizedAffinity>
-7.83101

> <CNNscore>
0.1563795358

> <CNNaffinity>
6.4400839806

> <CNN_VS>
1.0070973635

> <CNNaffinity_variance>
0.2221730649

$$$$
[H]OC(=O)C([H])([H])c1c([H])c([H])c(Oc2c([H])c([H])c(C(=O)N([H])C([H])(C([H])([H])[H])C([H])([H])[H])c([H])c2N([H])S(=O)(=O)c2c([H])c([H])c(Cl)c([H])c2Cl)c(OC([H])([H])[H])c1[H]


 40 42  0  0  0  0  0  0  0  0999 V2000
  153.8286  139.5754  183.1139 C   0  0  0  0  0  0  0  0  0  0  0  0
  153.2169  140.2620  182.1006 C   0  0  0  0  0  0  0  0  0  0  0  0
  152.0955  139.7684  181.4631 C   0  0  0  0  0  0  0  0  0  0  0  0
  151.5727  138.5598  181.8468 C   0  0  0  0  0  0  0  0  0  0  0  0
  152.1978  137.8766  182.8687 C   0  0  0  0  0  0  0  0  0  0  0  0
  153.3116  138.3314  183.5265 C   0  0  0  0  0  0  0  0  0  0  0  0
  150.3793  138.0024  181.1981 C   0  0  0  0  0  0  0  0  0  0  0  0
  150.2393  136.7408  181.2368 O   0  0  0  0  0  0  0  0  0  0  0  0
  149.4373  138.8220  180.5659 N   0  0  0  0  0  0  0  0  0  0  0  0
  149.5280  139.8427  180.5248 H   0  0  0  0  0  0  0  0  0  0  0  0
  148.2737  138.2145  179.9387 C   0  0  0  0  0  0  0  0  0  0  0  0
  147.0648  138.9722  180.4599 C   0  0  0  0  0  0  0  0  0  0  0  0
  148.3846  138.2914  178.4463 C   0  0  0  0  0  0  0  0  0  0  0  0
  153.9770  137.6357  184.5722 N   0  0  0  0  0  0  0  0  0  0  0  0
  155.0173  137.4644  184.4892 H   0  0  0  0  0  0  0  0  0  0  0  0
  153.0856  137.0941  185.9312 S   0  0  0  0  0  0  0  0  0  0  0  0
  151.7284  137.7812  186.0332 O   0  0  0  0  0  0  0  0  0  0  0  0
  152.8389  135.5903  185.7568 O   0  0  0  0  0  0  0  0  0  0  0  0
  154.0106  137.3321  187.3929 C   0  0  0  0  0  0  0  0  0  0  0  0
  153.7292  138.3759  188.2266 C   0  0  0  0  0  0  0  0  0  0  0  0
  154.5318  138.5141  189.3676 C   0  0  0  0  0  0  0  0  0  0  0  0
  155.5586  137.6545  189.6556 C   0  0  0  0  0  0  0  0  0  0  0  0
  156.5427  137.8469  191.0813 Cl  0  0  0  0  0  0  0  0  0  0  0  0
  155.7972  136.6231  188.7820 C   0  0  0  0  0  0  0  0  0  0  0  0
  155.0502  136.4372  187.6557 C   0  0  0  0  0  0  0  0  0  0  0  0
  155.3548  135.1092  186.5279 Cl  0  0  0  0  0  0  0  0  0  0  0  0
  154.9483  140.0691  183.7537 O   0  0  0  0  0  0  0  0  0  0  0  0
  155.8882  142.2281  183.1767 C   0  0  0  0  0  0  0  0  0  0  0  0
  156.9309  142.9337  182.5971 C   0  0  0  0  0  0  0  0  0  0  0  0
  158.0368  142.3206  182.0310 C   0  0  0  0  0  0  0  0  0  0  0  0
  158.0807  140.9419  182.0568 C   0  0  0  0  0  0  0  0  0  0  0  0
  157.0545  140.2204  182.6276 C   0  0  0  0  0  0  0  0  0  0  0  0
  155.9365  140.8487  183.1992 C   0  0  0  0  0  0  0  0  0  0  0  0
  153.8685  143.5412  182.8740 C   0  0  0  0  0  0  0  0  0  0  0  0
  154.7990  142.9013  183.7356 O   0  0  0  0  0  0  0  0  0  0  0  0
  159.1498  143.0911  181.4119 C   0  0  0  0  0  0  0  0  0  0  0  0
  159.0098  143.0805  179.9342 C   0  0  0  0  0  0  0  0  0  0  0  0
  158.1938  142.3787  179.3048 O   0  0  0  0  0  0  0  0  0  0  0  0
  159.8670  143.9284  179.2164 O   0  0  0  0  0  0  0  0  0  0  0  0
  159.8436  144.9172  179.4113 H   0  0  0  0  0  0  0  0  0  0  0  0
 34 35  1  0  0  0
 35 28  1  0  0  0
 28 29  2  0  0  0
 29 30  1  0  0  0
 30 36  1  0  0  0
 36 37  1  0  0  0
 37 38  2  0  0  0
 37 39  1  0  0  0
 30 31  2  0  0  0
 31 32  1  0  0  0
 32 33  2  0  0  0
 33 27  1  0  0  0
 27  1  1  0  0  0
  1  2  2  0  0  0
  2  3  1  0  0  0
  3  4  2  0  0  0
  4  7  1  0  0  0
  7  8  2  0  0  0
  7  9  1  0  0  0
  9 11  1  0  0  0
 11 12  1  0  0  0
 11 13  1  0  0  0
  4  5  1  0  0  0
  5  6  2  0  0  0
  6 14  1  0  0  0
 14 16  1  0  0  0
 16 17  2  0  0  0
 16 18  2  0  0  0
 16 19  1  0  0  0
 19 20  2  0  0  0
 20 21  1  0  0  0
 21 22  2  0  0  0
 22 23  1  0  0  0
 22 24  1  0  0  0
 24 25  2  0  0  0
 25 26  1  0  0  0
 33 28  1  0  0  0
  6  1  1  0  0  0
 25 19  1  0  0  0
 39 40  1  0  0  0
  9 10  1  0  0  0
 14 15  1  0  0  0
M  END
> <minimizedAffinity>
-8.48178

> <CNNscore>
0.1550133079

> <CNNaffinity>
6.3376550674

> <CNN_VS>
0.9824208617

> <CNNaffinity_variance>
0.2959097028

$$$$
[H]OC(=O)C([H])([H])c1c([H])c([H])c(Oc2c([H])c([H])c(C(=O)N([H])C([H])(C([H])([H])[H])C([H])([H])[H])c([H])c2N([H])S(=O)(=O)c2c([H])c([H])c(Cl)c([H])c2Cl)c(OC([H])([H])[H])c1[H]


 40 42  0  0  0  0  0  0  0  0999 V2000
  154.1012  140.4169  183.0431 C   0  0  0  0  0  0  0  0  0  0  0  0
  153.3272  141.0099  182.0831 C   0  0  0  0  0  0  0  0  0  0  0  0
  152.2699  140.3468  181.4914 C   0  0  0  0  0  0  0  0  0  0  0  0
  151.9789  139.0603  181.8675 C   0  0  0  0  0  0  0  0  0  0  0  0
  152.7661  138.4727  182.8355 C   0  0  0  0  0  0  0  0  0  0  0  0
  153.8234  139.0959  183.4468 C   0  0  0  0  0  0  0  0  0  0  0  0
  150.8608  138.3224  181.2666 C   0  0  0  0  0  0  0  0  0  0  0  0
  150.8761  137.0580  181.3843 O   0  0  0  0  0  0  0  0  0  0  0  0
  149.8241  138.9801  180.5947 N   0  0  0  0  0  0  0  0  0  0  0  0
  149.7894  139.9998  180.4900 H   0  0  0  0  0  0  0  0  0  0  0  0
  148.7418  138.1976  180.0181 C   0  0  0  0  0  0  0  0  0  0  0  0
  147.4684  138.6618  180.7038 C   0  0  0  0  0  0  0  0  0  0  0  0
  148.6858  138.3972  178.5340 C   0  0  0  0  0  0  0  0  0  0  0  0
  154.6535  138.5023  184.4361 N   0  0  0  0  0  0  0  0  0  0  0  0
  155.6404  138.8629  184.5568 H   0  0  0  0  0  0  0  0  0  0  0  0
  154.0418  137.2261  185.4015 S   0  0  0  0  0  0  0  0  0  0  0  0
  152.5211  137.2670  185.5031 O   0  0  0  0  0  0  0  0  0  0  0  0
  154.4323  135.9046  184.7278 O   0  0  0  0  0  0  0  0  0  0  0  0
  154.7690  137.2685  186.9883 C   0  0  0  0  0  0  0  0  0  0  0  0
  155.7934  136.4223  187.3019 C   0  0  0  0  0  0  0  0  0  0  0  0
  156.3081  136.5001  188.6035 C   0  0  0  0  0  0  0  0  0  0  0  0
  155.8225  137.3764  189.5376 C   0  0  0  0  0  0  0  0  0  0  0  0
  156.4796  137.4548  191.1501 Cl  0  0  0  0  0  0  0  0  0  0  0  0
  154.7914  138.2034  189.1677 C   0  0  0  0  0  0  0  0  0  0  0  0
  154.2495  138.1740  187.9161 C   0  0  0  0  0  0  0  0  0  0  0  0
  152.9208  139.2383  187.4360 Cl  0  0  0  0  0  0  0  0  0  0  0  0
  155.1569  141.0797  183.6373 O   0  0  0  0  0  0  0  0  0  0  0  0
  157.4029  141.2262  182.7361 C   0  0  0  0  0  0  0  0  0  0  0  0
  158.3549  141.9944  182.0845 C   0  0  0  0  0  0  0  0  0  0  0  0
  158.1241  143.2972  181.6738 C   0  0  0  0  0  0  0  0  0  0  0  0
  156.8808  143.8346  181.9367 C   0  0  0  0  0  0  0  0  0  0  0  0
  155.9194  143.0887  182.5840 C   0  0  0  0  0  0  0  0  0  0  0  0
  156.1608  141.7689  182.9975 C   0  0  0  0  0  0  0  0  0  0  0  0
  158.2721  139.6866  184.4002 C   0  0  0  0  0  0  0  0  0  0  0  0
  157.6917  139.9155  183.1242 O   0  0  0  0  0  0  0  0  0  0  0  0
  159.1559  144.1108  180.9746 C   0  0  0  0  0  0  0  0  0  0  0  0
  159.3427  143.6074  179.5908 C   0  0  0  0  0  0  0  0  0  0  0  0
  158.7274  142.6408  179.0993 O   0  0  0  0  0  0  0  0  0  0  0  0
  160.2835  144.2830  178.7987 O   0  0  0  0  0  0  0  0  0  0  0  0
  160.1590  145.2701  178.6362 H   0  0  0  0  0  0  0  0  0  0  0  0
 34 35  1  0  0  0
 35 28  1  0  0  0
 28 29  2  0  0  0
 29 30  1  0  0  0
 30 36  1  0  0  0
 36 37  1  0  0  0
 37 38  2  0  0  0
 37 39  1  0  0  0
 30 31  2  0  0  0
 31 32  1  0  0  0
 32 33  2  0  0  0
 33 27  1  0  0  0
 27  1  1  0  0  0
  1  2  2  0  0  0
  2  3  1  0  0  0
  3  4  2  0  0  0
  4  7  1  0  0  0
  7  8  2  0  0  0
  7  9  1  0  0  0
  9 11  1  0  0  0
 11 12  1  0  0  0
 11 13  1  0  0  0
  4  5  1  0  0  0
  5  6  2  0  0  0
  6 14  1  0  0  0
 14 16  1  0  0  0
 16 17  2  0  0  0
 16 18  2  0  0  0
 16 19  1  0  0  0
 19 20  2  0  0  0
 20 21  1  0  0  0
 21 22  2  0  0  0
 22 23  1  0  0  0
 22 24  1  0  0  0
 24 25  2  0  0  0
 25 26  1  0  0  0
 33 28  1  0  0  0
  6  1  1  0  0  0
 25 19  1  0  0  0
 39 40  1  0  0  0
  9 10  1  0  0  0
 14 15  1  0  0  0
M  END
> <minimizedAffinity>
-8.85468

> <CNNscore>
0.1508585811

> <CNNaffinity>
6.3579578400

> <CNN_VS>
0.9591525197

> <CNNaffinity_variance>
0.4111911654

$$$$
[H]c1c([H])c([H])c(N([H])c2nc3c([H])nc(N([H])c4c([H])c([H])c(OC([H])([H])[H])c([H])c4[H])nc3n2C([H])(C([H])([H])[H])C([H])([H])[H])c(F)c1[H]


 31 34  0  0  0  0  0  0  0  0999 V2000
  154.0202  140.5690  182.3992 C   0  0  0  0  0  0  0  0  0  0  0  0
  154.0583  139.7276  183.4318 N   0  0  0  0  0  0  0  0  0  0  0  0
  155.1286  139.4339  184.1679 C   0  0  0  0  0  0  0  0  0  0  0  0
  156.3251  140.0458  183.8522 C   0  0  0  0  0  0  0  0  0  0  0  0
  157.5646  139.9971  184.3518 N   0  0  0  0  0  0  0  0  0  0  0  0
  158.3510  140.8158  183.6397 C   0  0  0  0  0  0  0  0  0  0  0  0
  157.6133  141.4084  182.6596 N   0  0  0  0  0  0  0  0  0  0  0  0
  156.3564  140.9253  182.7980 C   0  0  0  0  0  0  0  0  0  0  0  0
  155.2323  141.1605  182.1136 N   0  0  0  0  0  0  0  0  0  0  0  0
  158.0566  142.3658  181.6577 C   0  0  0  0  0  0  0  0  0  0  0  0
  157.2987  143.6756  181.7552 C   0  0  0  0  0  0  0  0  0  0  0  0
  158.0357  141.7948  180.2722 C   0  0  0  0  0  0  0  0  0  0  0  0
  152.8987  140.8767  181.6282 N   0  0  0  0  0  0  0  0  0  0  0  0
  152.7494  141.9007  181.3696 H   0  0  0  0  0  0  0  0  0  0  0  0
  150.0241  138.2212  180.0118 C   0  0  0  0  0  0  0  0  0  0  0  0
  150.5643  137.9991  181.2547 C   0  0  0  0  0  0  0  0  0  0  0  0
  151.5052  138.8600  181.8135 C   0  0  0  0  0  0  0  0  0  0  0  0
  151.9415  139.9667  181.1600 C   0  0  0  0  0  0  0  0  0  0  0  0
  151.3726  140.1829  179.8748 C   0  0  0  0  0  0  0  0  0  0  0  0
  150.4597  139.3374  179.3467 C   0  0  0  0  0  0  0  0  0  0  0  0
  148.0446  137.8745  178.6777 C   0  0  0  0  0  0  0  0  0  0  0  0
  149.0878  137.3550  179.4681 O   0  0  0  0  0  0  0  0  0  0  0  0
  159.7285  141.0500  183.8457 N   0  0  0  0  0  0  0  0  0  0  0  0
  160.3687  140.6409  183.0837 H   0  0  0  0  0  0  0  0  0  0  0  0
  160.3672  141.7310  184.8892 C   0  0  0  0  0  0  0  0  0  0  0  0
  159.7522  142.2111  186.0195 C   0  0  0  0  0  0  0  0  0  0  0  0
  160.5015  142.8804  187.0000 C   0  0  0  0  0  0  0  0  0  0  0  0
  161.8562  143.0725  186.8590 C   0  0  0  0  0  0  0  0  0  0  0  0
  162.4913  142.5980  185.7319 C   0  0  0  0  0  0  0  0  0  0  0  0
  161.7540  141.9562  184.7985 C   0  0  0  0  0  0  0  0  0  0  0  0
  162.4223  141.4998  183.6930 F   0  0  0  0  0  0  0  0  0  0  0  0
 21 22  1  0  0  0
 22 15  1  0  0  0
 15 16  2  0  0  0
 16 17  1  0  0  0
 17 18  2  0  0  0
 18 13  1  0  0  0
 13  1  1  0  0  0
  1  2  2  0  0  0
  2  3  1  0  0  0
  3  4  2  0  0  0
  4  5  1  0  0  0
  5  6  2  0  0  0
  6 23  1  0  0  0
 23 25  1  0  0  0
 25 26  2  0  0  0
 26 27  1  0  0  0
 27 28  2  0  0  0
 28 29  1  0  0  0
 29 30  2  0  0  0
 30 31  1  0  0  0
  6  7  1  0  0  0
  7 10  1  0  0  0
 10 11  1  0  0  0
 10 12  1  0  0  0
  7  8  1  0  0  0
  8  9  2  0  0  0
 18 19  1  0  0  0
 19 20  2  0  0  0
 20 15  1  0  0  0
  9  1  1  0  0  0
  8  4  1  0  0  0
 30 25  1  0  0  0
 13 14  1  0  0  0
 23 24  1  0  0  0
M  END
> <minimizedAffinity>
-9.95648

> <CNNscore>
0.8871778846

> <CNNaffinity>
7.4518003464

> <CNN_VS>
6.6110725403

> <CNNaffinity_variance>
0.2855502963

$$$$
[H]c1c([H])c([H])c(N([H])c2nc3c([H])nc(N([H])c4c([H])c([H])c(OC([H])([H])[H])c([H])c4[H])nc3n2C([H])(C([H])([H])[H])C([H])([H])[H])c(F)c1[H]


 31 34  0  0  0  0  0  0  0  0999 V2000
  154.6049  138.2003  184.3330 C   0  0  0  0  0  0  0  0  0  0  0  0
  155.1429  137.9627  185.5288 N   0  0  0  0  0  0  0  0  0  0  0  0
  156.1958  138.5854  186.0553 C   0  0  0  0  0  0  0  0  0  0  0  0
  156.8067  139.5755  185.3122 C   0  0  0  0  0  0  0  0  0  0  0  0
  157.8506  140.3877  185.5092 N   0  0  0  0  0  0  0  0  0  0  0  0
  158.0012  141.1688  184.4306 C   0  0  0  0  0  0  0  0  0  0  0  0
  157.0404  140.8615  183.5150 N   0  0  0  0  0  0  0  0  0  0  0  0
  156.3026  139.8713  184.0695 C   0  0  0  0  0  0  0  0  0  0  0  0
  155.2409  139.1944  183.6204 N   0  0  0  0  0  0  0  0  0  0  0  0
  156.8267  141.4568  182.2046 C   0  0  0  0  0  0  0  0  0  0  0  0
  158.0432  141.3062  181.3118 C   0  0  0  0  0  0  0  0  0  0  0  0
  156.3532  142.8760  182.2914 C   0  0  0  0  0  0  0  0  0  0  0  0
  153.5017  137.5479  183.7816 N   0  0  0  0  0  0  0  0  0  0  0  0
  153.3848  136.5116  184.0053 H   0  0  0  0  0  0  0  0  0  0  0  0
  150.4070  139.1564  181.3808 C   0  0  0  0  0  0  0  0  0  0  0  0
  151.6429  139.7534  181.4257 C   0  0  0  0  0  0  0  0  0  0  0  0
  152.6806  139.2415  182.2002 C   0  0  0  0  0  0  0  0  0  0  0  0
  152.5278  138.1238  182.9549 C   0  0  0  0  0  0  0  0  0  0  0  0
  151.2430  137.5172  182.8975 C   0  0  0  0  0  0  0  0  0  0  0  0
  150.2461  138.0268  182.1400 C   0  0  0  0  0  0  0  0  0  0  0  0
  148.0703  139.2006  180.7840 C   0  0  0  0  0  0  0  0  0  0  0  0
  149.3830  139.6776  180.6048 O   0  0  0  0  0  0  0  0  0  0  0  0
  158.9877  142.1615  184.2412 N   0  0  0  0  0  0  0  0  0  0  0  0
  158.7175  142.9295  183.5375 H   0  0  0  0  0  0  0  0  0  0  0  0
  160.2505  142.2833  184.8338 C   0  0  0  0  0  0  0  0  0  0  0  0
  161.4497  142.0549  184.2044 C   0  0  0  0  0  0  0  0  0  0  0  0
  162.6555  142.2103  184.9063 C   0  0  0  0  0  0  0  0  0  0  0  0
  162.6709  142.5910  186.2279 C   0  0  0  0  0  0  0  0  0  0  0  0
  161.4779  142.8247  186.8768 C   0  0  0  0  0  0  0  0  0  0  0  0
  160.3270  142.6701  186.1853 C   0  0  0  0  0  0  0  0  0  0  0  0
  159.1627  142.9118  186.8658 F   0  0  0  0  0  0  0  0  0  0  0  0
 21 22  1  0  0  0
 22 15  1  0  0  0
 15 16  2  0  0  0
 16 17  1  0  0  0
 17 18  2  0  0  0
 18 13  1  0  0  0
 13  1  1  0  0  0
  1  2  2  0  0  0
  2  3  1  0  0  0
  3  4  2  0  0  0
  4  5  1  0  0  0
  5  6  2  0  0  0
  6 23  1  0  0  0
 23 25  1  0  0  0
 25 26  2  0  0  0
 26 27  1  0  0  0
 27 28  2  0  0  0
 28 29  1  0  0  0
 29 30  2  0  0  0
 30 31  1  0  0  0
  6  7  1  0  0  0
  7 10  1  0  0  0
 10 11  1  0  0  0
 10 12  1  0  0  0
  7  8  1  0  0  0
  8  9  2  0  0  0
 18 19  1  0  0  0
 19 20  2  0  0  0
 20 15  1  0  0  0
  9  1  1  0  0  0
  8  4  1  0  0  0
 30 25  1  0  0  0
 13 14  1  0  0  0
 23 24  1  0  0  0
M  END
> <minimizedAffinity>
-8.07240

> <CNNscore>
0.5876784325

> <CNNaffinity>
6.9252281189

> <CNN_VS>
4.0698070526

> <CNNaffinity_variance>
0.0705756322

$$$$
[H]c1c([H])c([H])c(N([H])c2nc3c([H])nc(N([H])c4c([H])c([H])c(OC([H])([H])[H])c([H])c4[H])nc3n2C([H])(C([H])([H])[H])C([H])([H])[H])c(F)c1[H]


 31 34  0  0  0  0  0  0  0  0999 V2000
  155.5536  138.1523  186.6008 C   0  0  0  0  0  0  0  0  0  0  0  0
  154.3146  138.0482  186.1213 N   0  0  0  0  0  0  0  0  0  0  0  0
  153.8562  138.6013  185.0000 C   0  0  0  0  0  0  0  0  0  0  0  0
  154.7270  139.3599  184.2436 C   0  0  0  0  0  0  0  0  0  0  0  0
  154.6247  140.0439  183.0991 N   0  0  0  0  0  0  0  0  0  0  0  0
  155.8101  140.6046  182.8224 C   0  0  0  0  0  0  0  0  0  0  0  0
  156.7002  140.2814  183.8018 N   0  0  0  0  0  0  0  0  0  0  0  0
  156.0203  139.5084  184.6806 C   0  0  0  0  0  0  0  0  0  0  0  0
  156.3940  138.9165  185.8196 N   0  0  0  0  0  0  0  0  0  0  0  0
  158.0980  140.6714  183.9080 C   0  0  0  0  0  0  0  0  0  0  0  0
  159.0293  139.4923  183.7036 C   0  0  0  0  0  0  0  0  0  0  0  0
  158.3890  141.4171  185.1750 C   0  0  0  0  0  0  0  0  0  0  0  0
  156.0338  137.5725  187.7755 N   0  0  0  0  0  0  0  0  0  0  0  0
  157.0493  137.2462  187.7798 H   0  0  0  0  0  0  0  0  0  0  0  0
  153.8724  137.1832  191.3956 C   0  0  0  0  0  0  0  0  0  0  0  0
  153.8297  136.1951  190.4428 C   0  0  0  0  0  0  0  0  0  0  0  0
  154.5366  136.2936  189.2473 C   0  0  0  0  0  0  0  0  0  0  0  0
  155.3069  137.3726  188.9567 C   0  0  0  0  0  0  0  0  0  0  0  0
  155.3410  138.3866  189.9531 C   0  0  0  0  0  0  0  0  0  0  0  0
  154.6490  138.2754  191.1089 C   0  0  0  0  0  0  0  0  0  0  0  0
  151.7563  137.0215  192.5421 C   0  0  0  0  0  0  0  0  0  0  0  0
  153.1630  137.0714  192.5816 O   0  0  0  0  0  0  0  0  0  0  0  0
  156.1207  141.4078  181.7029 N   0  0  0  0  0  0  0  0  0  0  0  0
  155.5431  141.1869  180.8222 H   0  0  0  0  0  0  0  0  0  0  0  0
  157.0623  142.4369  181.5821 C   0  0  0  0  0  0  0  0  0  0  0  0
  157.0430  143.6187  182.2817 C   0  0  0  0  0  0  0  0  0  0  0  0
  158.0464  144.5781  182.0734 C   0  0  0  0  0  0  0  0  0  0  0  0
  159.0651  144.3654  181.1741 C   0  0  0  0  0  0  0  0  0  0  0  0
  159.1017  143.1859  180.4626 C   0  0  0  0  0  0  0  0  0  0  0  0
  158.1274  142.2738  180.6761 C   0  0  0  0  0  0  0  0  0  0  0  0
  158.1994  141.1145  179.9494 F   0  0  0  0  0  0  0  0  0  0  0  0
 21 22  1  0  0  0
 22 15  1  0  0  0
 15 16  2  0  0  0
 16 17  1  0  0  0
 17 18  2  0  0  0
 18 13  1  0  0  0
 13  1  1  0  0  0
  1  2  2  0  0  0
  2  3  1  0  0  0
  3  4  2  0  0  0
  4  5  1  0  0  0
  5  6  2  0  0  0
  6 23  1  0  0  0
 23 25  1  0  0  0
 25 26  2  0  0  0
 26 27  1  0  0  0
 27 28  2  0  0  0
 28 29  1  0  0  0
 29 30  2  0  0  0
 30 31  1  0  0  0
  6  7  1  0  0  0
  7 10  1  0  0  0
 10 11  1  0  0  0
 10 12  1  0  0  0
  7  8  1  0  0  0
  8  9  2  0  0  0
 18 19  1  0  0  0
 19 20  2  0  0  0
 20 15  1  0  0  0
  9  1  1  0  0  0
  8  4  1  0  0  0
 30 25  1  0  0  0
 13 14  1  0  0  0
 23 24  1  0  0  0
M  END
> <minimizedAffinity>
-8.71931

> <CNNscore>
0.5306984186

> <CNNaffinity>
6.4374604225

> <CNN_VS>
3.4163501263

> <CNNaffinity_variance>
0.1279098094

$$$$
[H]c1c([H])c([H])c(N([H])c2nc3c([H])nc(N([H])c4c([H])c([H])c(OC([H])([H])[H])c([H])c4[H])nc3n2C([H])(C([H])([H])[H])C([H])([H])[H])c(F)c1[H]


 31 34  0  0  0  0  0  0  0  0999 V2000
  155.4163  139.0935  184.8376 C   0  0  0  0  0  0  0  0  0  0  0  0
  154.0889  139.1570  184.7392 N   0  0  0  0  0  0  0  0  0  0  0  0
  153.2113  138.6951  185.6279 C   0  0  0  0  0  0  0  0  0  0  0  0
  153.6966  138.0881  186.7689 C   0  0  0  0  0  0  0  0  0  0  0  0
  153.1348  137.5250  187.8438 N   0  0  0  0  0  0  0  0  0  0  0  0
  154.1037  137.0859  188.6590 C   0  0  0  0  0  0  0  0  0  0  0  0
  155.3173  137.3668  188.1074 N   0  0  0  0  0  0  0  0  0  0  0  0
  155.0563  137.9890  186.9339 C   0  0  0  0  0  0  0  0  0  0  0  0
  155.8638  138.4813  185.9889 N   0  0  0  0  0  0  0  0  0  0  0  0
  156.6369  137.0715  188.6445 C   0  0  0  0  0  0  0  0  0  0  0  0
  156.9081  135.5801  188.6855 C   0  0  0  0  0  0  0  0  0  0  0  0
  156.8770  137.7331  189.9677 C   0  0  0  0  0  0  0  0  0  0  0  0
  156.3355  139.5777  183.9064 N   0  0  0  0  0  0  0  0  0  0  0  0
  156.1088  139.4315  182.8744 H   0  0  0  0  0  0  0  0  0  0  0  0
  160.0518  141.4863  184.5957 C   0  0  0  0  0  0  0  0  0  0  0  0
  158.9389  141.8340  185.3212 C   0  0  0  0  0  0  0  0  0  0  0  0
  157.7066  141.2175  185.1208 C   0  0  0  0  0  0  0  0  0  0  0  0
  157.5367  140.2386  184.1960 C   0  0  0  0  0  0  0  0  0  0  0  0
  158.6982  139.8898  183.4534 C   0  0  0  0  0  0  0  0  0  0  0  0
  159.8875  140.4979  183.6606 C   0  0  0  0  0  0  0  0  0  0  0  0
  161.3340  143.2429  185.6390 C   0  0  0  0  0  0  0  0  0  0  0  0
  161.2725  142.1090  184.8063 O   0  0  0  0  0  0  0  0  0  0  0  0
  153.9290  136.4324  189.8988 N   0  0  0  0  0  0  0  0  0  0  0  0
  154.7156  135.7439  190.1541 H   0  0  0  0  0  0  0  0  0  0  0  0
  152.8890  136.5546  190.8283 C   0  0  0  0  0  0  0  0  0  0  0  0
  151.6622  135.9443  190.7339 C   0  0  0  0  0  0  0  0  0  0  0  0
  150.6964  136.1438  191.7330 C   0  0  0  0  0  0  0  0  0  0  0  0
  150.9474  136.9461  192.8217 C   0  0  0  0  0  0  0  0  0  0  0  0
  152.1724  137.5671  192.9342 C   0  0  0  0  0  0  0  0  0  0  0  0
  153.0899  137.3635  191.9629 C   0  0  0  0  0  0  0  0  0  0  0  0
  154.2949  137.9984  192.1115 F   0  0  0  0  0  0  0  0  0  0  0  0
 21 22  1  0  0  0
 22 15  1  0  0  0
 15 16  2  0  0  0
 16 17  1  0  0  0
 17 18  2  0  0  0
 18 13  1  0  0  0
 13  1  1  0  0  0
  1  2  2  0  0  0
  2  3  1  0  0  0
  3  4  2  0  0  0
  4  5  1  0  0  0
  5  6  2  0  0  0
  6 23  1  0  0  0
 23 25  1  0  0  0
 25 26  2  0  0  0
 26 27  1  0  0  0
 27 28  2  0  0  0
 28 29  1  0  0  0
 29 30  2  0  0  0
 30 31  1  0  0  0
  6  7  1  0  0  0
  7 10  1  0  0  0
 10 11  1  0  0  0
 10 12  1  0  0  0
  7  8  1  0  0  0
  8  9  2  0  0  0
 18 19  1  0  0  0
 19 20  2  0  0  0
 20 15  1  0  0  0
  9  1  1  0  0  0
  8  4  1  0  0  0
 30 25  1  0  0  0
 13 14  1  0  0  0
 23 24  1  0  0  0
M  END
> <minimizedAffinity>
-7.32704

> <CNNscore>
0.4775745273

> <CNNaffinity>
6.2707967758

> <CNN_VS>
2.9947729111

> <CNNaffinity_variance>
0.0968746394

$$$$
[H]c1c([H])c([H])c(N([H])c2nc3c([H])nc(N([H])c4c([H])c([H])c(OC([H])([H])[H])c([H])c4[H])nc3n2C([H])(C([H])([H])[H])C([H])([H])[H])c(F)c1[H]


 31 34  0  0  0  0  0  0  0  0999 V2000
  153.9122  140.2178  182.3330 C   0  0  0  0  0  0  0  0  0  0  0  0
  155.1265  140.7273  182.5375 N   0  0  0  0  0  0  0  0  0  0  0  0
  155.9557  140.4096  183.5300 C   0  0  0  0  0  0  0  0  0  0  0  0
  155.5423  139.4652  184.4482 C   0  0  0  0  0  0  0  0  0  0  0  0
  156.0872  138.9148  185.5383 N   0  0  0  0  0  0  0  0  0  0  0  0
  155.2215  138.0330  186.0570 C   0  0  0  0  0  0  0  0  0  0  0  0
  154.0935  138.0075  185.2934 N   0  0  0  0  0  0  0  0  0  0  0  0
  154.3003  138.8995  184.2964 C   0  0  0  0  0  0  0  0  0  0  0  0
  153.5338  139.2790  183.2689 N   0  0  0  0  0  0  0  0  0  0  0  0
  152.8986  137.1998  185.4849 C   0  0  0  0  0  0  0  0  0  0  0  0
  152.1015  137.6501  186.6937 C   0  0  0  0  0  0  0  0  0  0  0  0
  153.1988  135.7318  185.5123 C   0  0  0  0  0  0  0  0  0  0  0  0
  153.0437  140.5507  181.2930 N   0  0  0  0  0  0  0  0  0  0  0  0
  153.3029  141.3915  180.6900 H   0  0  0  0  0  0  0  0  0  0  0  0
  149.5038  138.5691  180.0804 C   0  0  0  0  0  0  0  0  0  0  0  0
  149.9124  138.5369  181.3910 C   0  0  0  0  0  0  0  0  0  0  0  0
  151.0677  139.1860  181.8186 C   0  0  0  0  0  0  0  0  0  0  0  0
  151.8549  139.8863  180.9630 C   0  0  0  0  0  0  0  0  0  0  0  0
  151.4182  139.9105  179.6099 C   0  0  0  0  0  0  0  0  0  0  0  0
  150.2937  139.2752  179.2112 C   0  0  0  0  0  0  0  0  0  0  0  0
  147.9341  138.0333  178.3290 C   0  0  0  0  0  0  0  0  0  0  0  0
  148.3509  137.9179  179.6691 O   0  0  0  0  0  0  0  0  0  0  0  0
  155.4160  137.2406  187.2098 N   0  0  0  0  0  0  0  0  0  0  0  0
  155.5451  136.1907  187.0120 H   0  0  0  0  0  0  0  0  0  0  0  0
  155.4637  137.6263  188.5549 C   0  0  0  0  0  0  0  0  0  0  0  0
  154.5947  138.4987  189.1634 C   0  0  0  0  0  0  0  0  0  0  0  0
  154.7445  138.8093  190.5242 C   0  0  0  0  0  0  0  0  0  0  0  0
  155.7531  138.2561  191.2782 C   0  0  0  0  0  0  0  0  0  0  0  0
  156.6349  137.3785  190.6857 C   0  0  0  0  0  0  0  0  0  0  0  0
  156.4754  137.0912  189.3747 C   0  0  0  0  0  0  0  0  0  0  0  0
  157.3724  136.2147  188.8230 F   0  0  0  0  0  0  0  0  0  0  0  0
 21 22  1  0  0  0
 22 15  1  0  0  0
 15 16  2  0  0  0
 16 17  1  0  0  0
 17 18  2  0  0  0
 18 13  1  0  0  0
 13  1  1  0  0  0
  1  2  2  0  0  0
  2  3  1  0  0  0
  3  4  2  0  0  0
  4  5  1  0  0  0
  5  6  2  0  0  0
  6 23  1  0  0  0
 23 25  1  0  0  0
 25 26  2  0  0  0
 26 27  1  0  0  0
 27 28  2  0  0  0
 28 29  1  0  0  0
 29 30  2  0  0  0
 30 31  1  0  0  0
  6  7  1  0  0  0
  7 10  1  0  0  0
 10 11  1  0  0  0
 10 12  1  0  0  0
  7  8  1  0  0  0
  8  9  2  0  0  0
 18 19  1  0  0  0
 19 20  2  0  0  0
 20 15  1  0  0  0
  9  1  1  0  0  0
  8  4  1  0  0  0
 30 25  1  0  0  0
 13 14  1  0  0  0
 23 24  1  0  0  0
M  END
> <minimizedAffinity>
-7.99077

> <CNNscore>
0.4445953667

> <CNNaffinity>
5.7870573997

> <CNN_VS>
2.5728988647

> <CNNaffinity_variance>
0.3506275117

$$$$
[H]c1c([H])c([H])c(N([H])c2nc3c([H])nc(N([H])c4c([H])c([H])c(OC([H])([H])[H])c([H])c4[H])nc3n2C([H])(C([H])([H])[H])C([H])([H])[H])c(F)c1[H]


 31 34  0  0  0  0  0  0  0  0999 V2000
  158.7613  141.8271  183.6925 C   0  0  0  0  0  0  0  0  0  0  0  0
  158.7509  140.5386  184.0321 N   0  0  0  0  0  0  0  0  0  0  0  0
  157.7074  139.7144  183.9591 C   0  0  0  0  0  0  0  0  0  0  0  0
  156.5104  140.2177  183.4903 C   0  0  0  0  0  0  0  0  0  0  0  0
  155.2925  139.7047  183.2858 N   0  0  0  0  0  0  0  0  0  0  0  0
  154.4924  140.6669  182.8060 C   0  0  0  0  0  0  0  0  0  0  0  0
  155.1992  141.8263  182.6958 N   0  0  0  0  0  0  0  0  0  0  0  0
  156.4514  141.5394  183.1225 C   0  0  0  0  0  0  0  0  0  0  0  0
  157.5498  142.2940  183.2293 N   0  0  0  0  0  0  0  0  0  0  0  0
  154.7322  143.1200  182.2212 C   0  0  0  0  0  0  0  0  0  0  0  0
  155.8780  144.0914  182.0133 C   0  0  0  0  0  0  0  0  0  0  0  0
  153.6492  143.6898  183.0863 C   0  0  0  0  0  0  0  0  0  0  0  0
  159.8548  142.6903  183.7690 N   0  0  0  0  0  0  0  0  0  0  0  0
  159.9533  143.4236  183.0006 H   0  0  0  0  0  0  0  0  0  0  0  0
  162.6859  142.7180  186.9173 C   0  0  0  0  0  0  0  0  0  0  0  0
  163.0310  142.2670  185.6670 C   0  0  0  0  0  0  0  0  0  0  0  0
  162.1226  142.2542  184.6118 C   0  0  0  0  0  0  0  0  0  0  0  0
  160.8446  142.6862  184.7609 C   0  0  0  0  0  0  0  0  0  0  0  0
  160.5029  143.1503  186.0609 C   0  0  0  0  0  0  0  0  0  0  0  0
  161.3971  143.1565  187.0746 C   0  0  0  0  0  0  0  0  0  0  0  0
  163.4941  141.7593  188.9779 C   0  0  0  0  0  0  0  0  0  0  0  0
  163.6014  142.7249  187.9586 O   0  0  0  0  0  0  0  0  0  0  0  0
  153.1296  140.5337  182.4600 N   0  0  0  0  0  0  0  0  0  0  0  0
  152.5806  141.4592  182.4479 H   0  0  0  0  0  0  0  0  0  0  0  0
  152.4043  139.3809  182.1351 C   0  0  0  0  0  0  0  0  0  0  0  0
  152.4811  138.1801  182.7973 C   0  0  0  0  0  0  0  0  0  0  0  0
  151.7013  137.0913  182.3763 C   0  0  0  0  0  0  0  0  0  0  0  0
  150.8485  137.1941  181.3020 C   0  0  0  0  0  0  0  0  0  0  0  0
  150.7575  138.3908  180.6248 C   0  0  0  0  0  0  0  0  0  0  0  0
  151.5158  139.4281  181.0441 C   0  0  0  0  0  0  0  0  0  0  0  0
  151.3967  140.6001  180.3447 F   0  0  0  0  0  0  0  0  0  0  0  0
 21 22  1  0  0  0
 22 15  1  0  0  0
 15 16  2  0  0  0
 16 17  1  0  0  0
 17 18  2  0  0  0
 18 13  1  0  0  0
 13  1  1  0  0  0
  1  2  2  0  0  0
  2  3  1  0  0  0
  3  4  2  0  0  0
  4  5  1  0  0  0
  5  6  2  0  0  0
  6 23  1  0  0  0
 23 25  1  0  0  0
 25 26  2  0  0  0
 26 27  1  0  0  0
 27 28  2  0  0  0
 28 29  1  0  0  0
 29 30  2  0  0  0
 30 31  1  0  0  0
  6  7  1  0  0  0
  7 10  1  0  0  0
 10 11  1  0  0  0
 10 12  1  0  0  0
  7  8  1  0  0  0
  8  9  2  0  0  0
 18 19  1  0  0  0
 19 20  2  0  0  0
 20 15  1  0  0  0
  9  1  1  0  0  0
  8  4  1  0  0  0
 30 25  1  0  0  0
 13 14  1  0  0  0
 23 24  1  0  0  0
M  END
> <minimizedAffinity>
-8.19330

> <CNNscore>
0.3985527456

> <CNNaffinity>
6.7935547829

> <CNN_VS>
2.7075898647

> <CNNaffinity_variance>
0.0902173147

$$$$
[H]c1c([H])c([H])c(N([H])c2nc3c([H])nc(N([H])c4c([H])c([H])c(OC([H])([H])[H])c([H])c4[H])nc3n2C([H])(C([H])([H])[H])C([H])([H])[H])c(F)c1[H]


 31 34  0  0  0  0  0  0  0  0999 V2000
  153.6814  136.8789  186.0429 C   0  0  0  0  0  0  0  0  0  0  0  0
  152.5255  136.2252  186.1531 N   0  0  0  0  0  0  0  0  0  0  0  0
  151.8936  135.9305  187.2877 C   0  0  0  0  0  0  0  0  0  0  0  0
  152.4697  136.3288  188.4774 C   0  0  0  0  0  0  0  0  0  0  0  0
  152.1353  136.2130  189.7670 N   0  0  0  0  0  0  0  0  0  0  0  0
  153.0823  136.7972  190.5140 C   0  0  0  0  0  0  0  0  0  0  0  0
  154.0502  137.3024  189.6990 N   0  0  0  0  0  0  0  0  0  0  0  0
  153.6627  137.0075  188.4360 C   0  0  0  0  0  0  0  0  0  0  0  0
  154.2263  137.2603  187.2504 N   0  0  0  0  0  0  0  0  0  0  0  0
  155.2603  138.0155  190.0785 C   0  0  0  0  0  0  0  0  0  0  0  0
  156.3912  137.0648  190.4202 C   0  0  0  0  0  0  0  0  0  0  0  0
  155.0148  139.0241  191.1594 C   0  0  0  0  0  0  0  0  0  0  0  0
  154.3432  137.1876  184.8540 N   0  0  0  0  0  0  0  0  0  0  0  0
  154.9235  136.4147  184.4028 H   0  0  0  0  0  0  0  0  0  0  0  0
  154.0802  140.8652  182.7721 C   0  0  0  0  0  0  0  0  0  0  0  0
  155.0531  140.6632  183.7200 C   0  0  0  0  0  0  0  0  0  0  0  0
  155.1674  139.4614  184.4138 C   0  0  0  0  0  0  0  0  0  0  0  0
  154.3225  138.4226  184.1922 C   0  0  0  0  0  0  0  0  0  0  0  0
  153.3212  138.6471  183.2078 C   0  0  0  0  0  0  0  0  0  0  0  0
  153.2241  139.8199  182.5427 C   0  0  0  0  0  0  0  0  0  0  0  0
  153.9395  143.2728  182.8159 C   0  0  0  0  0  0  0  0  0  0  0  0
  153.9785  142.0675  182.0890 O   0  0  0  0  0  0  0  0  0  0  0  0
  153.1041  136.8918  191.9230 N   0  0  0  0  0  0  0  0  0  0  0  0
  153.7466  137.6645  192.3077 H   0  0  0  0  0  0  0  0  0  0  0  0
  152.4152  136.1303  192.8749 C   0  0  0  0  0  0  0  0  0  0  0  0
  152.9810  135.1929  193.7042 C   0  0  0  0  0  0  0  0  0  0  0  0
  152.1840  134.4902  194.6217 C   0  0  0  0  0  0  0  0  0  0  0  0
  150.8306  134.7169  194.7157 C   0  0  0  0  0  0  0  0  0  0  0  0
  150.2446  135.6535  193.8920 C   0  0  0  0  0  0  0  0  0  0  0  0
  151.0273  136.3204  193.0149 C   0  0  0  0  0  0  0  0  0  0  0  0
  150.4070  137.2428  192.2141 F   0  0  0  0  0  0  0  0  0  0  0  0
 21 22  1  0  0  0
 22 15  1  0  0  0
 15 16  2  0  0  0
 16 17  1  0  0  0
 17 18  2  0  0  0
 18 13  1  0  0  0
 13  1  1  0  0  0
  1  2  2  0  0  0
  2  3  1  0  0  0
  3  4  2  0  0  0
  4  5  1  0  0  0
  5  6  2  0  0  0
  6 23  1  0  0  0
 23 25  1  0  0  0
 25 26  2  0  0  0
 26 27  1  0  0  0
 27 28  2  0  0  0
 28 29  1  0  0  0
 29 30  2  0  0  0
 30 31  1  0  0  0
  6  7  1  0  0  0
  7 10  1  0  0  0
 10 11  1  0  0  0
 10 12  1  0  0  0
  7  8  1  0  0  0
  8  9  2  0  0  0
 18 19  1  0  0  0
 19 20  2  0  0  0
 20 15  1  0  0  0
  9  1  1  0  0  0
  8  4  1  0  0  0
 30 25  1  0  0  0
 13 14  1  0  0  0
 23 24  1  0  0  0
M  END
> <minimizedAffinity>
-7.29562

> <CNNscore>
0.3386442363

> <CNNaffinity>
5.8494362831

> <CNN_VS>
1.9808778763

> <CNNaffinity_variance>
0.0761217102

$$$$
[H]c1c([H])c([H])c(N([H])c2nc3c([H])nc(N([H])c4c([H])c([H])c(OC([H])([H])[H])c([H])c4[H])nc3n2C([H])(C([H])([H])[H])C([H])([H])[H])c(F)c1[H]


 31 34  0  0  0  0  0  0  0  0999 V2000
  153.8957  137.9746  185.4601 C   0  0  0  0  0  0  0  0  0  0  0  0
  152.6007  137.8033  185.7233 N   0  0  0  0  0  0  0  0  0  0  0  0
  152.0748  137.4687  186.9001 C   0  0  0  0  0  0  0  0  0  0  0  0
  152.9309  137.2749  187.9656 C   0  0  0  0  0  0  0  0  0  0  0  0
  152.7694  136.9432  189.2510 N   0  0  0  0  0  0  0  0  0  0  0  0
  153.9720  136.8957  189.8403 C   0  0  0  0  0  0  0  0  0  0  0  0
  154.9339  137.2011  188.9252 N   0  0  0  0  0  0  0  0  0  0  0  0
  154.2797  137.4353  187.7635 C   0  0  0  0  0  0  0  0  0  0  0  0
  154.7195  137.7728  186.5470 N   0  0  0  0  0  0  0  0  0  0  0  0
  156.3734  137.2694  189.1254 C   0  0  0  0  0  0  0  0  0  0  0  0
  157.0030  135.8905  189.1658 C   0  0  0  0  0  0  0  0  0  0  0  0
  156.7468  138.1035  190.3132 C   0  0  0  0  0  0  0  0  0  0  0  0
  154.4465  138.3253  184.2271 N   0  0  0  0  0  0  0  0  0  0  0  0
  154.8273  137.5356  183.6196 H   0  0  0  0  0  0  0  0  0  0  0  0
  154.9770  142.2486  182.7256 C   0  0  0  0  0  0  0  0  0  0  0  0
  153.8705  141.5102  182.3847 C   0  0  0  0  0  0  0  0  0  0  0  0
  153.6670  140.2211  182.8700 C   0  0  0  0  0  0  0  0  0  0  0  0
  154.5520  139.6221  183.7068 C   0  0  0  0  0  0  0  0  0  0  0  0
  155.6919  140.3995  184.0506 C   0  0  0  0  0  0  0  0  0  0  0  0
  155.8743  141.6501  183.5710 C   0  0  0  0  0  0  0  0  0  0  0  0
  156.4653  144.0740  182.2049 C   0  0  0  0  0  0  0  0  0  0  0  0
  155.1662  143.5314  182.2346 O   0  0  0  0  0  0  0  0  0  0  0  0
  154.2354  136.5824  191.1921 N   0  0  0  0  0  0  0  0  0  0  0  0
  155.2804  136.5554  191.4476 H   0  0  0  0  0  0  0  0  0  0  0  0
  153.3380  136.3062  192.2308 C   0  0  0  0  0  0  0  0  0  0  0  0
  152.4831  137.2144  192.8057 C   0  0  0  0  0  0  0  0  0  0  0  0
  151.6265  136.8171  193.8446 C   0  0  0  0  0  0  0  0  0  0  0  0
  151.6186  135.5232  194.3110 C   0  0  0  0  0  0  0  0  0  0  0  0
  152.4692  134.5973  193.7469 C   0  0  0  0  0  0  0  0  0  0  0  0
  153.2868  134.9977  192.7479 C   0  0  0  0  0  0  0  0  0  0  0  0
  154.1170  134.0478  192.2137 F   0  0  0  0  0  0  0  0  0  0  0  0
 21 22  1  0  0  0
 22 15  1  0  0  0
 15 16  2  0  0  0
 16 17  1  0  0  0
 17 18  2  0  0  0
 18 13  1  0  0  0
 13  1  1  0  0  0
  1  2  2  0  0  0
  2  3  1  0  0  0
  3  4  2  0  0  0
  4  5  1  0  0  0
  5  6  2  0  0  0
  6 23  1  0  0  0
 23 25  1  0  0  0
 25 26  2  0  0  0
 26 27  1  0  0  0
 27 28  2  0  0  0
 28 29  1  0  0  0
 29 30  2  0  0  0
 30 31  1  0  0  0
  6  7  1  0  0  0
  7 10  1  0  0  0
 10 11  1  0  0  0
 10 12  1  0  0  0
  7  8  1  0  0  0
  8  9  2  0  0  0
 18 19  1  0  0  0
 19 20  2  0  0  0
 20 15  1  0  0  0
  9  1  1  0  0  0
  8  4  1  0  0  0
 30 25  1  0  0  0
 13 14  1  0  0  0
 23 24  1  0  0  0
M  END
> <minimizedAffinity>
-7.19814

> <CNNscore>
0.2985208333

> <CNNaffinity>
5.8119635582

> <CNN_VS>
1.7349921465

> <CNNaffinity_variance>
0.0876985714

$$$$
[H]c1c([H])c([H])c(N([H])c2nc3c([H])nc(N([H])c4c([H])c([H])c(OC([H])([H])[H])c([H])c4[H])nc3n2C([H])(C([H])([H])[H])C([H])([H])[H])c(F)c1[H]


 31 34  0  0  0  0  0  0  0  0999 V2000
  157.0782  140.0541  183.9586 C   0  0  0  0  0  0  0  0  0  0  0  0
  155.9906  140.3186  183.2355 N   0  0  0  0  0  0  0  0  0  0  0  0
  154.7458  139.9404  183.5201 C   0  0  0  0  0  0  0  0  0  0  0  0
  154.5345  139.2030  184.6679 C   0  0  0  0  0  0  0  0  0  0  0  0
  153.4587  138.6675  185.2546 N   0  0  0  0  0  0  0  0  0  0  0  0
  153.8430  138.0435  186.3766 C   0  0  0  0  0  0  0  0  0  0  0  0
  155.1910  138.1736  186.5246 N   0  0  0  0  0  0  0  0  0  0  0  0
  155.6132  138.8948  185.4598 C   0  0  0  0  0  0  0  0  0  0  0  0
  156.8286  139.3165  185.0963 N   0  0  0  0  0  0  0  0  0  0  0  0
  156.0301  137.6558  187.5946 C   0  0  0  0  0  0  0  0  0  0  0  0
  156.1531  136.1456  187.5340 C   0  0  0  0  0  0  0  0  0  0  0  0
  155.5987  138.1407  188.9454 C   0  0  0  0  0  0  0  0  0  0  0  0
  158.3823  140.4505  183.6603 N   0  0  0  0  0  0  0  0  0  0  0  0
  158.7670  140.1838  182.7019 H   0  0  0  0  0  0  0  0  0  0  0  0
  161.1182  142.6446  186.0328 C   0  0  0  0  0  0  0  0  0  0  0  0
  159.8638  142.3444  186.5043 C   0  0  0  0  0  0  0  0  0  0  0  0
  158.9473  141.6179  185.7487 C   0  0  0  0  0  0  0  0  0  0  0  0
  159.2427  141.1666  184.5032 C   0  0  0  0  0  0  0  0  0  0  0  0
  160.5451  141.4851  184.0296 C   0  0  0  0  0  0  0  0  0  0  0  0
  161.4234  142.1912  184.7761 C   0  0  0  0  0  0  0  0  0  0  0  0
  163.1024  142.7023  187.4031 C   0  0  0  0  0  0  0  0  0  0  0  0
  162.0206  143.3690  186.7967 O   0  0  0  0  0  0  0  0  0  0  0  0
  153.0094  137.3519  187.2829 N   0  0  0  0  0  0  0  0  0  0  0  0
  152.9902  137.7665  188.2758 H   0  0  0  0  0  0  0  0  0  0  0  0
  152.2158  136.2178  187.0717 C   0  0  0  0  0  0  0  0  0  0  0  0
  152.6476  134.9170  187.1613 C   0  0  0  0  0  0  0  0  0  0  0  0
  151.7546  133.8596  186.9264 C   0  0  0  0  0  0  0  0  0  0  0  0
  150.4380  134.0924  186.6036 C   0  0  0  0  0  0  0  0  0  0  0  0
  149.9859  135.3907  186.5089 C   0  0  0  0  0  0  0  0  0  0  0  0
  150.8597  136.3960  186.7383 C   0  0  0  0  0  0  0  0  0  0  0  0
  150.3714  137.6718  186.6343 F   0  0  0  0  0  0  0  0  0  0  0  0
 21 22  1  0  0  0
 22 15  1  0  0  0
 15 16  2  0  0  0
 16 17  1  0  0  0
 17 18  2  0  0  0
 18 13  1  0  0  0
 13  1  1  0  0  0
  1  2  2  0  0  0
  2  3  1  0  0  0
  3  4  2  0  0  0
  4  5  1  0  0  0
  5  6  2  0  0  0
  6 23  1  0  0  0
 23 25  1  0  0  0
 25 26  2  0  0  0
 26 27  1  0  0  0
 27 28  2  0  0  0
 28 29  1  0  0  0
 29 30  2  0  0  0
 30 31  1  0  0  0
  6  7  1  0  0  0
  7 10  1  0  0  0
 10 11  1  0  0  0
 10 12  1  0  0  0
  7  8  1  0  0  0
  8  9  2  0  0  0
 18 19  1  0  0  0
 19 20  2  0  0  0
 20 15  1  0  0  0
  9  1  1  0  0  0
  8  4  1  0  0  0
 30 25  1  0  0  0
 13 14  1  0  0  0
 23 24  1  0  0  0
M  END
> <minimizedAffinity>
-7.24172

> <CNNscore>
0.2883242965

> <CNNaffinity>
6.2871174812

> <CNN_VS>
1.8127287626

> <CNNaffinity_variance>
0.0562369041

$$$$
[H]c1nc(-c2c([H])c([H])c(OC([H])([H])C([H])([H])C([H])([H])N3C([H])([H])C([H])([H])C([H])(C([H])([H])c4c([H])nc([H])n4[H])C([H])([H])C3([H])[H])c([H])c2[H])nc([H])c1[H]


 29 32  0  0  0  0  0  0  0  0999 V2000
  155.3807  142.1390  182.6657 C   0  0  0  0  0  0  0  0  0  0  0  0
  153.9201  141.8047  182.4271 C   0  0  0  0  0  0  0  0  0  0  0  0
  153.8352  140.4304  182.2065 O   0  0  0  0  0  0  0  0  0  0  0  0
  150.5277  138.5780  180.3414 C   0  0  0  0  0  0  0  0  0  0  0  0
  150.9859  138.1605  181.5721 C   0  0  0  0  0  0  0  0  0  0  0  0
  152.0766  138.7695  182.1896 C   0  0  0  0  0  0  0  0  0  0  0  0
  152.7394  139.8170  181.5881 C   0  0  0  0  0  0  0  0  0  0  0  0
  152.2770  140.2310  180.3570 C   0  0  0  0  0  0  0  0  0  0  0  0
  151.1891  139.6255  179.7382 C   0  0  0  0  0  0  0  0  0  0  0  0
  147.2389  136.6779  178.5344 C   0  0  0  0  0  0  0  0  0  0  0  0
  147.9218  136.0854  179.5737 C   0  0  0  0  0  0  0  0  0  0  0  0
  148.9677  136.7279  180.1227 N   0  0  0  0  0  0  0  0  0  0  0  0
  149.3851  137.9340  179.7028 C   0  0  0  0  0  0  0  0  0  0  0  0
  148.7177  138.5058  178.6921 N   0  0  0  0  0  0  0  0  0  0  0  0
  147.6539  137.9093  178.0955 C   0  0  0  0  0  0  0  0  0  0  0  0
  156.2150  140.9538  182.2356 C   0  0  0  0  0  0  0  0  0  0  0  0
  157.1214  140.5109  183.2789 N   0  0  0  0  0  0  0  0  0  0  0  0
  158.4200  140.3153  182.6625 C   0  0  0  0  0  0  0  0  0  0  0  0
  159.1945  141.6382  182.7190 C   0  0  0  0  0  0  0  0  0  0  0  0
  159.6333  141.7992  184.1522 C   0  0  0  0  0  0  0  0  0  0  0  0
  158.4620  141.5648  185.0446 C   0  0  0  0  0  0  0  0  0  0  0  0
  157.1525  141.5451  184.2915 C   0  0  0  0  0  0  0  0  0  0  0  0
  160.3068  143.1293  184.3946 C   0  0  0  0  0  0  0  0  0  0  0  0
  161.3736  142.9360  185.3968 C   0  0  0  0  0  0  0  0  0  0  0  0
  162.5990  142.3467  185.2344 C   0  0  0  0  0  0  0  0  0  0  0  0
  163.2512  142.3815  186.3940 N   0  0  0  0  0  0  0  0  0  0  0  0
  162.4638  142.9822  187.2921 C   0  0  0  0  0  0  0  0  0  0  0  0
  161.3222  143.3176  186.6795 N   0  0  0  0  0  0  0  0  0  0  0  0
  160.5080  143.8092  187.1446 H   0  0  0  0  0  0  0  0  0  0  0  0
 10 11  2  0  0  0
 11 12  1  0  0  0
 12 13  2  0  0  0
 13  4  1  0  0  0
  4  5  2  0  0  0
  5  6  1  0  0  0
  6  7  2  0  0  0
  7  3  1  0  0  0
  3  2  1  0  0  0
  2  1  1  0  0  0
  1 16  1  0  0  0
 16 17  1  0  0  0
 17 18  1  0  0  0
 18 19  1  0  0  0
 19 20  1  0  0  0
 20 23  1  0  0  0
 23 24  1  0  0  0
 24 25  2  0  0  0
 25 26  1  0  0  0
 26 27  2  0  0  0
 27 28  1  0  0  0
 20 21  1  0  0  0
 21 22  1  0  0  0
  7  8  1  0  0  0
  8  9  2  0  0  0
 13 14  1  0  0  0
 14 15  2  0  0  0
 15 10  1  0  0  0
  9  4  1  0  0  0
 22 17  1  0  0  0
 28 24  1  0  0  0
 28 29  1  0  0  0
M  END
> <minimizedAffinity>
-7.83782

> <CNNscore>
0.5080893636

> <CNNaffinity>
6.1443524361

> <CNN_VS>
3.1218800545

> <CNNaffinity_variance>
0.0328712910

$$$$
[H]c1nc(-c2c([H])c([H])c(OC([H])([H])C([H])([H])C([H])([H])N3C([H])([H])C([H])([H])C([H])(C([H])([H])c4c([H])nc([H])n4[H])C([H])([H])C3([H])[H])c([H])c2[H])nc([H])c1[H]


 29 32  0  0  0  0  0  0  0  0999 V2000
  154.5471  141.2364  182.9012 C   0  0  0  0  0  0  0  0  0  0  0  0
  154.7334  139.7760  183.2680 C   0  0  0  0  0  0  0  0  0  0  0  0
  153.8202  139.4780  184.2789 O   0  0  0  0  0  0  0  0  0  0  0  0
  154.9364  137.8044  187.9941 C   0  0  0  0  0  0  0  0  0  0  0  0
  155.8378  137.9214  186.9585 C   0  0  0  0  0  0  0  0  0  0  0  0
  155.4725  138.4729  185.7319 C   0  0  0  0  0  0  0  0  0  0  0  0
  154.1895  138.9235  185.5100 C   0  0  0  0  0  0  0  0  0  0  0  0
  153.2915  138.8043  186.5493 C   0  0  0  0  0  0  0  0  0  0  0  0
  153.6528  138.2545  187.7742 C   0  0  0  0  0  0  0  0  0  0  0  0
  156.0888  136.1838  191.7006 C   0  0  0  0  0  0  0  0  0  0  0  0
  156.3687  137.4933  191.3771 C   0  0  0  0  0  0  0  0  0  0  0  0
  155.9821  137.9710  190.1812 N   0  0  0  0  0  0  0  0  0  0  0  0
  155.3282  137.2254  189.2745 C   0  0  0  0  0  0  0  0  0  0  0  0
  155.0585  135.9531  189.5939 N   0  0  0  0  0  0  0  0  0  0  0  0
  155.4217  135.4111  190.7846 C   0  0  0  0  0  0  0  0  0  0  0  0
  155.8832  141.7884  182.4586 C   0  0  0  0  0  0  0  0  0  0  0  0
  156.9969  141.1195  183.1055 N   0  0  0  0  0  0  0  0  0  0  0  0
  158.1321  141.2128  182.2070 C   0  0  0  0  0  0  0  0  0  0  0  0
  158.8926  142.5101  182.5097 C   0  0  0  0  0  0  0  0  0  0  0  0
  159.6308  142.2646  183.8009 C   0  0  0  0  0  0  0  0  0  0  0  0
  158.6823  141.6887  184.7970 C   0  0  0  0  0  0  0  0  0  0  0  0
  157.2408  141.8012  184.3591 C   0  0  0  0  0  0  0  0  0  0  0  0
  160.3330  143.5055  184.2992 C   0  0  0  0  0  0  0  0  0  0  0  0
  161.3956  143.0948  185.2383 C   0  0  0  0  0  0  0  0  0  0  0  0
  162.4895  142.3075  184.9961 C   0  0  0  0  0  0  0  0  0  0  0  0
  163.1920  142.1877  186.1201 N   0  0  0  0  0  0  0  0  0  0  0  0
  162.5656  142.8844  187.0740 C   0  0  0  0  0  0  0  0  0  0  0  0
  161.4728  143.4344  186.5315 N   0  0  0  0  0  0  0  0  0  0  0  0
  160.7805  144.0434  187.0517 H   0  0  0  0  0  0  0  0  0  0  0  0
 10 11  2  0  0  0
 11 12  1  0  0  0
 12 13  2  0  0  0
 13  4  1  0  0  0
  4  5  2  0  0  0
  5  6  1  0  0  0
  6  7  2  0  0  0
  7  3  1  0  0  0
  3  2  1  0  0  0
  2  1  1  0  0  0
  1 16  1  0  0  0
 16 17  1  0  0  0
 17 18  1  0  0  0
 18 19  1  0  0  0
 19 20  1  0  0  0
 20 23  1  0  0  0
 23 24  1  0  0  0
 24 25  2  0  0  0
 25 26  1  0  0  0
 26 27  2  0  0  0
 27 28  1  0  0  0
 20 21  1  0  0  0
 21 22  1  0  0  0
  7  8  1  0  0  0
  8  9  2  0  0  0
 13 14  1  0  0  0
 14 15  2  0  0  0
 15 10  1  0  0  0
  9  4  1  0  0  0
 22 17  1  0  0  0
 28 24  1  0  0  0
 28 29  1  0  0  0
M  END
> <minimizedAffinity>
-7.88676

> <CNNscore>
0.5065903664

> <CNNaffinity>
6.7482833862

> <CNN_VS>
3.4186153412

> <CNNaffinity_variance>
0.1348183602

$$$$
[H]c1nc(-c2c([H])c([H])c(OC([H])([H])C([H])([H])C([H])([H])N3C([H])([H])C([H])([H])C([H])(C([H])([H])c4c([H])nc([H])n4[H])C([H])([H])C3([H])[H])c([H])c2[H])nc([H])c1[H]


 29 32  0  0  0  0  0  0  0  0999 V2000
  155.9776  142.8487  182.5300 C   0  0  0  0  0  0  0  0  0  0  0  0
  154.4886  142.5642  182.4654 C   0  0  0  0  0  0  0  0  0  0  0  0
  154.2627  141.3598  183.1310 O   0  0  0  0  0  0  0  0  0  0  0  0
  151.6584  138.3635  181.6858 C   0  0  0  0  0  0  0  0  0  0  0  0
  151.8036  139.5669  181.0305 C   0  0  0  0  0  0  0  0  0  0  0  0
  152.6618  140.5571  181.5049 C   0  0  0  0  0  0  0  0  0  0  0  0
  153.3999  140.3668  182.6526 C   0  0  0  0  0  0  0  0  0  0  0  0
  153.2511  139.1610  183.3044 C   0  0  0  0  0  0  0  0  0  0  0  0
  152.3957  138.1711  182.8338 C   0  0  0  0  0  0  0  0  0  0  0  0
  149.0899  135.3536  180.2588 C   0  0  0  0  0  0  0  0  0  0  0  0
  150.1543  135.0524  181.0798 C   0  0  0  0  0  0  0  0  0  0  0  0
  150.9505  136.0453  181.5133 N   0  0  0  0  0  0  0  0  0  0  0  0
  150.7573  137.3329  181.1815 C   0  0  0  0  0  0  0  0  0  0  0  0
  149.7212  137.6205  180.3831 N   0  0  0  0  0  0  0  0  0  0  0  0
  148.8807  136.6640  179.9120 C   0  0  0  0  0  0  0  0  0  0  0  0
  156.6955  141.8097  181.6990 C   0  0  0  0  0  0  0  0  0  0  0  0
  157.7334  141.1261  182.4485 N   0  0  0  0  0  0  0  0  0  0  0  0
  159.0042  141.4969  181.8550 C   0  0  0  0  0  0  0  0  0  0  0  0
  159.5145  142.7697  182.5427 C   0  0  0  0  0  0  0  0  0  0  0  0
  160.0036  142.3374  183.9015 C   0  0  0  0  0  0  0  0  0  0  0  0
  158.9568  141.4927  184.5448 C   0  0  0  0  0  0  0  0  0  0  0  0
  157.6304  141.5625  183.8250 C   0  0  0  0  0  0  0  0  0  0  0  0
  160.4252  143.5109  184.7538 C   0  0  0  0  0  0  0  0  0  0  0  0
  161.5459  143.0833  185.6146 C   0  0  0  0  0  0  0  0  0  0  0  0
  162.6490  142.3466  185.2745 C   0  0  0  0  0  0  0  0  0  0  0  0
  163.4108  142.1874  186.3540 N   0  0  0  0  0  0  0  0  0  0  0  0
  162.8133  142.8092  187.3757 C   0  0  0  0  0  0  0  0  0  0  0  0
  161.6785  143.3528  186.9197 N   0  0  0  0  0  0  0  0  0  0  0  0
  160.9957  143.9091  187.5072 H   0  0  0  0  0  0  0  0  0  0  0  0
 10 11  2  0  0  0
 11 12  1  0  0  0
 12 13  2  0  0  0
 13  4  1  0  0  0
  4  5  2  0  0  0
  5  6  1  0  0  0
  6  7  2  0  0  0
  7  3  1  0  0  0
  3  2  1  0  0  0
  2  1  1  0  0  0
  1 16  1  0  0  0
 16 17  1  0  0  0
 17 18  1  0  0  0
 18 19  1  0  0  0
 19 20  1  0  0  0
 20 23  1  0  0  0
 23 24  1  0  0  0
 24 25  2  0  0  0
 25 26  1  0  0  0
 26 27  2  0  0  0
 27 28  1  0  0  0
 20 21  1  0  0  0
 21 22  1  0  0  0
  7  8  1  0  0  0
  8  9  2  0  0  0
 13 14  1  0  0  0
 14 15  2  0  0  0
 15 10  1  0  0  0
  9  4  1  0  0  0
 22 17  1  0  0  0
 28 24  1  0  0  0
 28 29  1  0  0  0
M  END
> <minimizedAffinity>
-7.39390

> <CNNscore>
0.4338564575

> <CNNaffinity>
6.3998999596

> <CNN_VS>
2.7766380310

> <CNNaffinity_variance>
0.0246330295

$$$$
[H]c1nc(-c2c([H])c([H])c(OC([H])([H])C([H])([H])C([H])([H])N3C([H])([H])C([H])([H])C([H])(C([H])([H])c4c([H])nc([H])n4[H])C([H])([H])C3([H])[H])c([H])c2[H])nc([H])c1[H]


 29 32  0  0  0  0  0  0  0  0999 V2000
  155.0738  141.3546  183.4562 C   0  0  0  0  0  0  0  0  0  0  0  0
  154.0203  140.3213  183.1034 C   0  0  0  0  0  0  0  0  0  0  0  0
  154.4322  139.1023  183.6410 O   0  0  0  0  0  0  0  0  0  0  0  0
  154.2401  138.2011  187.7641 C   0  0  0  0  0  0  0  0  0  0  0  0
  153.1247  138.6070  187.0643 C   0  0  0  0  0  0  0  0  0  0  0  0
  153.1850  138.9050  185.7043 C   0  0  0  0  0  0  0  0  0  0  0  0
  154.3691  138.8036  185.0071 C   0  0  0  0  0  0  0  0  0  0  0  0
  155.4821  138.3969  185.7118 C   0  0  0  0  0  0  0  0  0  0  0  0
  155.4252  138.0989  187.0687 C   0  0  0  0  0  0  0  0  0  0  0  0
  153.9935  137.2673  191.8580 C   0  0  0  0  0  0  0  0  0  0  0  0
  153.2773  136.5565  190.9202 C   0  0  0  0  0  0  0  0  0  0  0  0
  153.3854  136.8884  189.6217 N   0  0  0  0  0  0  0  0  0  0  0  0
  154.1670  137.8914  189.1879 C   0  0  0  0  0  0  0  0  0  0  0  0
  154.8613  138.5794  190.1035 N   0  0  0  0  0  0  0  0  0  0  0  0
  154.7956  138.2939  191.4292 C   0  0  0  0  0  0  0  0  0  0  0  0
  156.2433  141.1805  182.5141 C   0  0  0  0  0  0  0  0  0  0  0  0
  157.4132  140.6414  183.1826 N   0  0  0  0  0  0  0  0  0  0  0  0
  158.5474  140.8639  182.3057 C   0  0  0  0  0  0  0  0  0  0  0  0
  159.1499  142.2387  182.6216 C   0  0  0  0  0  0  0  0  0  0  0  0
  159.8866  142.0769  183.9268 C   0  0  0  0  0  0  0  0  0  0  0  0
  158.9909  141.3960  184.9051 C   0  0  0  0  0  0  0  0  0  0  0  0
  157.5545  141.3448  184.4400 C   0  0  0  0  0  0  0  0  0  0  0  0
  160.4340  143.3889  184.4371 C   0  0  0  0  0  0  0  0  0  0  0  0
  161.4361  143.1011  185.4825 C   0  0  0  0  0  0  0  0  0  0  0  0
  161.4277  143.4796  186.7985 C   0  0  0  0  0  0  0  0  0  0  0  0
  162.5230  143.0084  187.3896 N   0  0  0  0  0  0  0  0  0  0  0  0
  163.2290  142.3366  186.4743 C   0  0  0  0  0  0  0  0  0  0  0  0
  162.5626  142.3964  185.3153 N   0  0  0  0  0  0  0  0  0  0  0  0
  162.8835  141.9519  184.4096 H   0  0  0  0  0  0  0  0  0  0  0  0
 10 11  2  0  0  0
 11 12  1  0  0  0
 12 13  2  0  0  0
 13  4  1  0  0  0
  4  5  2  0  0  0
  5  6  1  0  0  0
  6  7  2  0  0  0
  7  3  1  0  0  0
  3  2  1  0  0  0
  2  1  1  0  0  0
  1 16  1  0  0  0
 16 17  1  0  0  0
 17 18  1  0  0  0
 18 19  1  0  0  0
 19 20  1  0  0  0
 20 23  1  0  0  0
 23 24  1  0  0  0
 24 25  2  0  0  0
 25 26  1  0  0  0
 26 27  2  0  0  0
 27 28  1  0  0  0
 20 21  1  0  0  0
 21 22  1  0  0  0
  7  8  1  0  0  0
  8  9  2  0  0  0
 13 14  1  0  0  0
 14 15  2  0  0  0
 15 10  1  0  0  0
  9  4  1  0  0  0
 22 17  1  0  0  0
 28 24  1  0  0  0
 28 29  1  0  0  0
M  END
> <minimizedAffinity>
-7.75005

> <CNNscore>
0.4056819677

> <CNNaffinity>
6.5634584427

> <CNN_VS>
2.6626768112

> <CNNaffinity_variance>
0.0934594497

$$$$
[H]c1nc(-c2c([H])c([H])c(OC([H])([H])C([H])([H])C([H])([H])N3C([H])([H])C([H])([H])C([H])(C([H])([H])c4c([H])nc([H])n4[H])C([H])([H])C3([H])[H])c([H])c2[H])nc([H])c1[H]


 29 32  0  0  0  0  0  0  0  0999 V2000
  153.9396  139.6438  184.4330 C   0  0  0  0  0  0  0  0  0  0  0  0
  153.9221  140.2355  183.0359 C   0  0  0  0  0  0  0  0  0  0  0  0
  155.2038  140.0945  182.5049 O   0  0  0  0  0  0  0  0  0  0  0  0
  158.6888  141.4740  184.4545 C   0  0  0  0  0  0  0  0  0  0  0  0
  157.9454  142.3008  183.6405 C   0  0  0  0  0  0  0  0  0  0  0  0
  156.7956  141.8485  182.9960 C   0  0  0  0  0  0  0  0  0  0  0  0
  156.3585  140.5511  183.1510 C   0  0  0  0  0  0  0  0  0  0  0  0
  157.1057  139.7281  183.9666 C   0  0  0  0  0  0  0  0  0  0  0  0
  158.2533  140.1762  184.6110 C   0  0  0  0  0  0  0  0  0  0  0  0
  162.1855  142.8539  186.3417 C   0  0  0  0  0  0  0  0  0  0  0  0
  162.2139  142.3748  185.0504 C   0  0  0  0  0  0  0  0  0  0  0  0
  161.0727  141.9434  184.4851 N   0  0  0  0  0  0  0  0  0  0  0  0
  159.8913  141.9566  185.1249 C   0  0  0  0  0  0  0  0  0  0  0  0
  159.8690  142.4234  186.3800 N   0  0  0  0  0  0  0  0  0  0  0  0
  160.9862  142.8733  187.0068 C   0  0  0  0  0  0  0  0  0  0  0  0
  153.4473  138.2168  184.3500 C   0  0  0  0  0  0  0  0  0  0  0  0
  153.0891  137.6814  185.6504 N   0  0  0  0  0  0  0  0  0  0  0  0
  153.9782  136.5655  185.9132 C   0  0  0  0  0  0  0  0  0  0  0  0
  155.2368  137.0946  186.6123 C   0  0  0  0  0  0  0  0  0  0  0  0
  154.8228  137.4073  188.0277 C   0  0  0  0  0  0  0  0  0  0  0  0
  153.5721  138.2184  187.9965 C   0  0  0  0  0  0  0  0  0  0  0  0
  153.2562  138.7463  186.6167 C   0  0  0  0  0  0  0  0  0  0  0  0
  155.9343  138.0612  188.8140 C   0  0  0  0  0  0  0  0  0  0  0  0
  156.2144  137.2323  190.0032 C   0  0  0  0  0  0  0  0  0  0  0  0
  156.3691  137.6322  191.3037 C   0  0  0  0  0  0  0  0  0  0  0  0
  156.6099  136.5626  192.0581 N   0  0  0  0  0  0  0  0  0  0  0  0
  156.6113  135.4884  191.2620 C   0  0  0  0  0  0  0  0  0  0  0  0
  156.3701  135.9021  190.0123 N   0  0  0  0  0  0  0  0  0  0  0  0
  156.3127  135.2686  189.1660 H   0  0  0  0  0  0  0  0  0  0  0  0
 10 11  2  0  0  0
 11 12  1  0  0  0
 12 13  2  0  0  0
 13  4  1  0  0  0
  4  5  2  0  0  0
  5  6  1  0  0  0
  6  7  2  0  0  0
  7  3  1  0  0  0
  3  2  1  0  0  0
  2  1  1  0  0  0
  1 16  1  0  0  0
 16 17  1  0  0  0
 17 18  1  0  0  0
 18 19  1  0  0  0
 19 20  1  0  0  0
 20 23  1  0  0  0
 23 24  1  0  0  0
 24 25  2  0  0  0
 25 26  1  0  0  0
 26 27  2  0  0  0
 27 28  1  0  0  0
 20 21  1  0  0  0
 21 22  1  0  0  0
  7  8  1  0  0  0
  8  9  2  0  0  0
 13 14  1  0  0  0
 14 15  2  0  0  0
 15 10  1  0  0  0
  9  4  1  0  0  0
 22 17  1  0  0  0
 28 24  1  0  0  0
 28 29  1  0  0  0
M  END
> <minimizedAffinity>
-7.78324

> <CNNscore>
0.3830283880

> <CNNaffinity>
6.3532814980

> <CNN_VS>
2.4334871769

> <CNNaffinity_variance>
0.1253426373

$$$$
[H]c1nc(-c2c([H])c([H])c(OC([H])([H])C([H])([H])C([H])([H])N3C([H])([H])C([H])([H])C([H])(C([H])([H])c4c([H])nc([H])n4[H])C([H])([H])C3([H])[H])c([H])c2[H])nc([H])c1[H]


 29 32  0  0  0  0  0  0  0  0999 V2000
  155.3517  139.1949  184.4523 C   0  0  0  0  0  0  0  0  0  0  0  0
  154.8090  138.1492  185.4084 C   0  0  0  0  0  0  0  0  0  0  0  0
  155.3298  138.4261  186.6721 O   0  0  0  0  0  0  0  0  0  0  0  0
  153.5240  137.1272  190.2639 C   0  0  0  0  0  0  0  0  0  0  0  0
  154.7994  137.6486  190.2481 C   0  0  0  0  0  0  0  0  0  0  0  0
  155.3976  138.0778  189.0649 C   0  0  0  0  0  0  0  0  0  0  0  0
  154.7311  137.9956  187.8618 C   0  0  0  0  0  0  0  0  0  0  0  0
  153.4553  137.4733  187.8831 C   0  0  0  0  0  0  0  0  0  0  0  0
  152.8557  137.0441  189.0618 C   0  0  0  0  0  0  0  0  0  0  0  0
  151.7885  135.8099  193.8618 C   0  0  0  0  0  0  0  0  0  0  0  0
  153.0601  135.4227  193.5001 C   0  0  0  0  0  0  0  0  0  0  0  0
  153.5768  135.8672  192.3410 N   0  0  0  0  0  0  0  0  0  0  0  0
  152.9062  136.6803  191.5076 C   0  0  0  0  0  0  0  0  0  0  0  0
  151.6703  137.0538  191.8640 N   0  0  0  0  0  0  0  0  0  0  0  0
  151.0924  136.6398  193.0207 C   0  0  0  0  0  0  0  0  0  0  0  0
  156.7482  139.5654  184.8975 C   0  0  0  0  0  0  0  0  0  0  0  0
  157.6516  139.7533  183.7774 N   0  0  0  0  0  0  0  0  0  0  0  0
  157.0846  140.7939  182.9405 C   0  0  0  0  0  0  0  0  0  0  0  0
  157.6014  142.1530  183.4291 C   0  0  0  0  0  0  0  0  0  0  0  0
  159.0361  142.2373  182.9741 C   0  0  0  0  0  0  0  0  0  0  0  0
  159.7369  140.9765  183.3517 C   0  0  0  0  0  0  0  0  0  0  0  0
  158.9383  140.1354  184.3198 C   0  0  0  0  0  0  0  0  0  0  0  0
  159.7253  143.4771  183.4930 C   0  0  0  0  0  0  0  0  0  0  0  0
  160.4779  143.1172  184.7110 C   0  0  0  0  0  0  0  0  0  0  0  0
  161.8102  142.8258  184.8348 C   0  0  0  0  0  0  0  0  0  0  0  0
  162.0757  142.5549  186.1104 N   0  0  0  0  0  0  0  0  0  0  0  0
  160.9369  142.6684  186.8017 C   0  0  0  0  0  0  0  0  0  0  0  0
  159.9677  143.0108  185.9447 N   0  0  0  0  0  0  0  0  0  0  0  0
  158.9553  143.1713  186.2094 H   0  0  0  0  0  0  0  0  0  0  0  0
 10 11  2  0  0  0
 11 12  1  0  0  0
 12 13  2  0  0  0
 13  4  1  0  0  0
  4  5  2  0  0  0
  5  6  1  0  0  0
  6  7  2  0  0  0
  7  3  1  0  0  0
  3  2  1  0  0  0
  2  1  1  0  0  0
  1 16  1  0  0  0
 16 17  1  0  0  0
 17 18  1  0  0  0
 18 19  1  0  0  0
 19 20  1  0  0  0
 20 23  1  0  0  0
 23 24  1  0  0  0
 24 25  2  0  0  0
 25 26  1  0  0  0
 26 27  2  0  0  0
 27 28  1  0  0  0
 20 21  1  0  0  0
 21 22  1  0  0  0
  7  8  1  0  0  0
  8  9  2  0  0  0
 13 14  1  0  0  0
 14 15  2  0  0  0
 15 10  1  0  0  0
  9  4  1  0  0  0
 22 17  1  0  0  0
 28 24  1  0  0  0
 28 29  1  0  0  0
M  END
> <minimizedAffinity>
-7.39110

> <CNNscore>
0.3671313822

> <CNNaffinity>
6.0355234146

> <CNN_VS>
2.2158300877

> <CNNaffinity_variance>
0.1551925540

$$$$
[H]c1nc(-c2c([H])c([H])c(OC([H])([H])C([H])([H])C([H])([H])N3C([H])([H])C([H])([H])C([H])(C([H])([H])c4c([H])nc([H])n4[H])C([H])([H])C3([H])[H])c([H])c2[H])nc([H])c1[H]


 29 32  0  0  0  0  0  0  0  0999 V2000
  153.7302  138.3981  187.4909 C   0  0  0  0  0  0  0  0  0  0  0  0
  154.1813  138.0710  186.0797 C   0  0  0  0  0  0  0  0  0  0  0  0
  153.7629  139.1137  185.2536 O   0  0  0  0  0  0  0  0  0  0  0  0
  156.3349  141.1231  182.5710 C   0  0  0  0  0  0  0  0  0  0  0  0
  156.8266  140.2740  183.5385 C   0  0  0  0  0  0  0  0  0  0  0  0
  155.9806  139.6100  184.4248 C   0  0  0  0  0  0  0  0  0  0  0  0
  154.6147  139.7797  184.3646 C   0  0  0  0  0  0  0  0  0  0  0  0
  154.1279  140.6301  183.3947 C   0  0  0  0  0  0  0  0  0  0  0  0
  154.9691  141.2942  182.5091 C   0  0  0  0  0  0  0  0  0  0  0  0
  158.9180  143.1557  179.9464 C   0  0  0  0  0  0  0  0  0  0  0  0
  158.6190  143.6666  181.1903 C   0  0  0  0  0  0  0  0  0  0  0  0
  157.7884  142.9841  181.9979 N   0  0  0  0  0  0  0  0  0  0  0  0
  157.2285  141.8140  181.6477 C   0  0  0  0  0  0  0  0  0  0  0  0
  157.5224  141.3216  180.4375 N   0  0  0  0  0  0  0  0  0  0  0  0
  158.3536  141.9619  179.5758 C   0  0  0  0  0  0  0  0  0  0  0  0
  154.8596  138.0650  188.4391 C   0  0  0  0  0  0  0  0  0  0  0  0
  154.5777  136.8875  189.2392 N   0  0  0  0  0  0  0  0  0  0  0  0
  155.2969  137.0382  190.4901 C   0  0  0  0  0  0  0  0  0  0  0  0
  154.3984  137.7818  191.4865 C   0  0  0  0  0  0  0  0  0  0  0  0
  153.3582  136.7844  191.9288 C   0  0  0  0  0  0  0  0  0  0  0  0
  152.7763  136.1274  190.7234 C   0  0  0  0  0  0  0  0  0  0  0  0
  153.1451  136.8354  189.4408 C   0  0  0  0  0  0  0  0  0  0  0  0
  152.3154  137.4100  192.8248 C   0  0  0  0  0  0  0  0  0  0  0  0
  151.6018  136.3298  193.5346 C   0  0  0  0  0  0  0  0  0  0  0  0
  150.2805  135.9806  193.4475 C   0  0  0  0  0  0  0  0  0  0  0  0
  150.0529  134.9491  194.2570 N   0  0  0  0  0  0  0  0  0  0  0  0
  151.2049  134.6348  194.8582 C   0  0  0  0  0  0  0  0  0  0  0  0
  152.1442  135.4785  194.4146 N   0  0  0  0  0  0  0  0  0  0  0  0
  153.1586  135.4681  194.7179 H   0  0  0  0  0  0  0  0  0  0  0  0
 10 11  2  0  0  0
 11 12  1  0  0  0
 12 13  2  0  0  0
 13  4  1  0  0  0
  4  5  2  0  0  0
  5  6  1  0  0  0
  6  7  2  0  0  0
  7  3  1  0  0  0
  3  2  1  0  0  0
  2  1  1  0  0  0
  1 16  1  0  0  0
 16 17  1  0  0  0
 17 18  1  0  0  0
 18 19  1  0  0  0
 19 20  1  0  0  0
 20 23  1  0  0  0
 23 24  1  0  0  0
 24 25  2  0  0  0
 25 26  1  0  0  0
 26 27  2  0  0  0
 27 28  1  0  0  0
 20 21  1  0  0  0
 21 22  1  0  0  0
  7  8  1  0  0  0
  8  9  2  0  0  0
 13 14  1  0  0  0
 14 15  2  0  0  0
 15 10  1  0  0  0
  9  4  1  0  0  0
 22 17  1  0  0  0
 28 24  1  0  0  0
 28 29  1  0  0  0
M  END
> <minimizedAffinity>
-7.62591

> <CNNscore>
0.3426450193

> <CNNaffinity>
5.5134062767

> <CNN_VS>
1.8891412020

> <CNNaffinity_variance>
0.0152547983

$$$$
[H]c1nc(-c2c([H])c([H])c(OC([H])([H])C([H])([H])C([H])([H])N3C([H])([H])C([H])([H])C([H])(C([H])([H])c4c([H])nc([H])n4[H])C([H])([H])C3([H])[H])c([H])c2[H])nc([H])c1[H]


 29 32  0  0  0  0  0  0  0  0999 V2000
  155.7865  142.4585  182.7363 C   0  0  0  0  0  0  0  0  0  0  0  0
  154.3244  142.1925  182.4306 C   0  0  0  0  0  0  0  0  0  0  0  0
  154.2252  140.8816  181.9654 O   0  0  0  0  0  0  0  0  0  0  0  0
  152.8297  137.6768  184.3383 C   0  0  0  0  0  0  0  0  0  0  0  0
  153.7261  138.5996  184.8320 C   0  0  0  0  0  0  0  0  0  0  0  0
  154.1882  139.6577  184.0515 C   0  0  0  0  0  0  0  0  0  0  0  0
  153.7626  139.8196  182.7512 C   0  0  0  0  0  0  0  0  0  0  0  0
  152.8657  138.8937  182.2622 C   0  0  0  0  0  0  0  0  0  0  0  0
  152.4028  137.8370  183.0381 C   0  0  0  0  0  0  0  0  0  0  0  0
  151.4055  134.4900  186.6853 C   0  0  0  0  0  0  0  0  0  0  0  0
  150.6704  134.9815  185.6290 C   0  0  0  0  0  0  0  0  0  0  0  0
  151.1632  136.0015  184.9047 N   0  0  0  0  0  0  0  0  0  0  0  0
  152.3518  136.5724  185.1630 C   0  0  0  0  0  0  0  0  0  0  0  0
  153.0625  136.0908  186.1909 N   0  0  0  0  0  0  0  0  0  0  0  0
  152.6208  135.0632  186.9604 C   0  0  0  0  0  0  0  0  0  0  0  0
  156.6261  141.7137  181.7234 C   0  0  0  0  0  0  0  0  0  0  0  0
  157.7778  141.0709  182.3288 N   0  0  0  0  0  0  0  0  0  0  0  0
  158.9605  141.7072  181.7801 C   0  0  0  0  0  0  0  0  0  0  0  0
  159.3225  142.9114  182.6587 C   0  0  0  0  0  0  0  0  0  0  0  0
  159.9229  142.3387  183.9173 C   0  0  0  0  0  0  0  0  0  0  0  0
  159.0284  141.2628  184.4324 C   0  0  0  0  0  0  0  0  0  0  0  0
  157.6754  141.2608  183.7604 C   0  0  0  0  0  0  0  0  0  0  0  0
  160.2177  143.4070  184.9436 C   0  0  0  0  0  0  0  0  0  0  0  0
  161.4220  143.0084  185.6989 C   0  0  0  0  0  0  0  0  0  0  0  0
  162.5548  142.3947  185.2348 C   0  0  0  0  0  0  0  0  0  0  0  0
  163.3954  142.2158  186.2510 N   0  0  0  0  0  0  0  0  0  0  0  0
  162.8190  142.7044  187.3539 C   0  0  0  0  0  0  0  0  0  0  0  0
  161.6179  143.1855  187.0119 N   0  0  0  0  0  0  0  0  0  0  0  0
  160.9335  143.6358  187.6824 H   0  0  0  0  0  0  0  0  0  0  0  0
 10 11  2  0  0  0
 11 12  1  0  0  0
 12 13  2  0  0  0
 13  4  1  0  0  0
  4  5  2  0  0  0
  5  6  1  0  0  0
  6  7  2  0  0  0
  7  3  1  0  0  0
  3  2  1  0  0  0
  2  1  1  0  0  0
  1 16  1  0  0  0
 16 17  1  0  0  0
 17 18  1  0  0  0
 18 19  1  0  0  0
 19 20  1  0  0  0
 20 23  1  0  0  0
 23 24  1  0  0  0
 24 25  2  0  0  0
 25 26  1  0  0  0
 26 27  2  0  0  0
 27 28  1  0  0  0
 20 21  1  0  0  0
 21 22  1  0  0  0
  7  8  1  0  0  0
  8  9  2  0  0  0
 13 14  1  0  0  0
 14 15  2  0  0  0
 15 10  1  0  0  0
  9  4  1  0  0  0
 22 17  1  0  0  0
 28 24  1  0  0  0
 28 29  1  0  0  0
M  END
> <minimizedAffinity>
-6.92968

> <CNNscore>
0.3365975320

> <CNNaffinity>
6.4027910233

> <CNN_VS>
2.1551637650

> <CNNaffinity_variance>
0.1697516739

$$$$
[H]c1nc(-c2c([H])c([H])c(OC([H])([H])C([H])([H])C([H])([H])N3C([H])([H])C([H])([H])C([H])(C([H])([H])c4c([H])nc([H])n4[H])C([H])([H])C3([H])[H])c([H])c2[H])nc([H])c1[H]


 29 32  0  0  0  0  0  0  0  0999 V2000
  155.7074  142.5606  182.7014 C   0  0  0  0  0  0  0  0  0  0  0  0
  154.2475  142.1903  182.5182 C   0  0  0  0  0  0  0  0  0  0  0  0
  153.9224  141.2642  183.5088 O   0  0  0  0  0  0  0  0  0  0  0  0
  152.8510  137.2620  182.6816 C   0  0  0  0  0  0  0  0  0  0  0  0
  152.4336  138.2992  181.8760 C   0  0  0  0  0  0  0  0  0  0  0  0
  152.7854  139.6202  182.1464 C   0  0  0  0  0  0  0  0  0  0  0  0
  153.5677  139.9380  183.2352 C   0  0  0  0  0  0  0  0  0  0  0  0
  153.9827  138.8968  184.0379 C   0  0  0  0  0  0  0  0  0  0  0  0
  153.6335  137.5777  183.7709 C   0  0  0  0  0  0  0  0  0  0  0  0
  151.7304  133.3020  181.8130 C   0  0  0  0  0  0  0  0  0  0  0  0
  150.9990  134.3697  181.3409 C   0  0  0  0  0  0  0  0  0  0  0  0
  151.3927  135.6195  181.6424 N   0  0  0  0  0  0  0  0  0  0  0  0
  152.4775  135.8822  182.3905 C   0  0  0  0  0  0  0  0  0  0  0  0
  153.1851  134.8407  182.8469 N   0  0  0  0  0  0  0  0  0  0  0  0
  152.8403  133.5554  182.5778 C   0  0  0  0  0  0  0  0  0  0  0  0
  156.5470  141.5883  181.9042 C   0  0  0  0  0  0  0  0  0  0  0  0
  157.5657  140.9471  182.7148 N   0  0  0  0  0  0  0  0  0  0  0  0
  158.8394  141.1721  182.0577 C   0  0  0  0  0  0  0  0  0  0  0  0
  159.4313  142.4903  182.5724 C   0  0  0  0  0  0  0  0  0  0  0  0
  159.9299  142.2032  183.9658 C   0  0  0  0  0  0  0  0  0  0  0  0
  158.8566  141.5026  184.7275 C   0  0  0  0  0  0  0  0  0  0  0  0
  157.5186  141.5551  184.0278 C   0  0  0  0  0  0  0  0  0  0  0  0
  160.4322  143.4483  184.6577 C   0  0  0  0  0  0  0  0  0  0  0  0
  161.5168  143.0627  185.5822 C   0  0  0  0  0  0  0  0  0  0  0  0
  162.6457  142.3349  185.3154 C   0  0  0  0  0  0  0  0  0  0  0  0
  163.3576  142.2178  186.4337 N   0  0  0  0  0  0  0  0  0  0  0  0
  162.7030  142.8577  187.4081 C   0  0  0  0  0  0  0  0  0  0  0  0
  161.5833  143.3701  186.8840 N   0  0  0  0  0  0  0  0  0  0  0  0
  160.8651  143.9312  187.4227 H   0  0  0  0  0  0  0  0  0  0  0  0
 10 11  2  0  0  0
 11 12  1  0  0  0
 12 13  2  0  0  0
 13  4  1  0  0  0
  4  5  2  0  0  0
  5  6  1  0  0  0
  6  7  2  0  0  0
  7  3  1  0  0  0
  3  2  1  0  0  0
  2  1  1  0  0  0
  1 16  1  0  0  0
 16 17  1  0  0  0
 17 18  1  0  0  0
 18 19  1  0  0  0
 19 20  1  0  0  0
 20 23  1  0  0  0
 23 24  1  0  0  0
 24 25  2  0  0  0
 25 26  1  0  0  0
 26 27  2  0  0  0
 27 28  1  0  0  0
 20 21  1  0  0  0
 21 22  1  0  0  0
  7  8  1  0  0  0
  8  9  2  0  0  0
 13 14  1  0  0  0
 14 15  2  0  0  0
 15 10  1  0  0  0
  9  4  1  0  0  0
 22 17  1  0  0  0
 28 24  1  0  0  0
 28 29  1  0  0  0
M  END
> <minimizedAffinity>
-6.85462

> <CNNscore>
0.3169466257

> <CNNaffinity>
6.3081078529

> <CNN_VS>
1.9993335009

> <CNNaffinity_variance>
0.0896264315

$$$$
[H]OC(=O)[C@]1([H])N([H])[C@@]([H])(C([H])([H])C([H])([H])c2c([H])c([H])c([H])c([H])c2[H])C(=O)N([H])[C@]([H])(C(=O)N([H])C([H])([H])[H])C([H])([H])C([H])([H])C(=O)OC([H])([H])C([H])([H])N([H])C(=O)C([H])([H])C1([H])[H]


 39 40  0  0  0  0  0  0  0  0999 V2000
  153.2224  134.6140  186.4196 C   0  0  0  0  0  0  0  0  0  0  0  0
  152.7820  135.2657  185.1503 C   0  0  0  0  0  0  0  0  0  0  0  0
  153.8315  135.5665  184.1387 C   0  0  0  0  0  0  0  0  0  0  0  0
  153.5824  136.9231  183.5266 C   0  0  0  0  0  0  0  0  0  0  0  0
  154.2463  137.8941  184.0272 O   0  0  0  0  0  0  0  0  0  0  0  0
  152.7121  137.1515  182.5006 O   0  0  0  0  0  0  0  0  0  0  0  0
  151.3841  136.7837  182.3680 C   0  0  0  0  0  0  0  0  0  0  0  0
  150.3893  137.8497  182.8278 C   0  0  0  0  0  0  0  0  0  0  0  0
  149.1214  137.2126  183.0542 N   0  0  0  0  0  0  0  0  0  0  0  0
  148.1118  137.6269  183.9512 C   0  0  0  0  0  0  0  0  0  0  0  0
  146.8894  137.6739  183.5752 O   0  0  0  0  0  0  0  0  0  0  0  0
  148.3565  138.0348  185.3687 C   0  0  0  0  0  0  0  0  0  0  0  0
  149.3839  137.1745  186.0286 C   0  0  0  0  0  0  0  0  0  0  0  0
  148.8488  135.9400  186.7229 C   0  0  0  0  0  0  0  0  0  0  0  0
  149.9525  135.2664  187.3429 N   0  0  0  0  0  0  0  0  0  0  0  0
  150.6859  135.8853  188.3572 C   0  0  0  0  0  0  0  0  0  0  0  0
  152.0887  136.2710  188.0382 C   0  0  0  0  0  0  0  0  0  0  0  0
  152.3557  137.5102  188.2271 O   0  0  0  0  0  0  0  0  0  0  0  0
  153.1356  135.4942  187.5753 N   0  0  0  0  0  0  0  0  0  0  0  0
  148.9096  136.3383  182.4900 H   0  0  0  0  0  0  0  0  0  0  0  0
  149.7745  134.2651  187.3705 H   0  0  0  0  0  0  0  0  0  0  0  0
  154.0499  135.5241  188.1401 H   0  0  0  0  0  0  0  0  0  0  0  0
  155.9726  132.0895  185.5330 C   0  0  0  0  0  0  0  0  0  0  0  0
  154.6881  132.7249  185.6823 N   0  0  0  0  0  0  0  0  0  0  0  0
  154.5466  133.9857  186.2790 C   0  0  0  0  0  0  0  0  0  0  0  0
  155.5554  134.5786  186.6944 O   0  0  0  0  0  0  0  0  0  0  0  0
  153.8398  132.2302  185.3360 H   0  0  0  0  0  0  0  0  0  0  0  0
  147.6918  136.2167  187.5712 C   0  0  0  0  0  0  0  0  0  0  0  0
  147.4017  137.3072  188.1144 O   0  0  0  0  0  0  0  0  0  0  0  0
  146.8122  135.1438  187.8054 O   0  0  0  0  0  0  0  0  0  0  0  0
  146.9648  134.6448  188.6716 H   0  0  0  0  0  0  0  0  0  0  0  0
  150.6603  135.1199  189.6854 C   0  0  0  0  0  0  0  0  0  0  0  0
  149.7999  135.7989  190.6955 C   0  0  0  0  0  0  0  0  0  0  0  0
  150.4803  135.8992  192.0256 C   0  0  0  0  0  0  0  0  0  0  0  0
  150.2555  135.0209  193.0410 C   0  0  0  0  0  0  0  0  0  0  0  0
  150.9505  135.2176  194.2283 C   0  0  0  0  0  0  0  0  0  0  0  0
  151.8417  136.2601  194.3938 C   0  0  0  0  0  0  0  0  0  0  0  0
  152.0590  137.1400  193.3594 C   0  0  0  0  0  0  0  0  0  0  0  0
  151.3678  136.9394  192.1870 C   0  0  0  0  0  0  0  0  0  0  0  0
 23 24  1  0  0  0
 24 25  1  0  0  0
 25 26  2  0  0  0
 25  1  1  0  0  0
  1  2  1  0  0  0
  2  3  1  0  0  0
  3  4  1  0  0  0
  4  5  2  0  0  0
  4  6  1  0  0  0
  6  7  1  0  0  0
  7  8  1  0  0  0
  8  9  1  0  0  0
  9 10  1  0  0  0
 10 11  2  0  0  0
 10 12  1  0  0  0
 12 13  1  0  0  0
 13 14  1  0  0  0
 14 28  1  0  0  0
 28 29  2  0  0  0
 28 30  1  0  0  0
 14 15  1  0  0  0
 15 16  1  0  0  0
 16 32  1  0  0  0
 32 33  1  0  0  0
 33 34  1  0  0  0
 34 35  2  0  0  0
 35 36  1  0  0  0
 36 37  2  0  0  0
 37 38  1  0  0  0
 38 39  2  0  0  0
 16 17  1  0  0  0
 17 18  2  0  0  0
 17 19  1  0  0  0
 19  1  1  0  0  0
 39 34  1  0  0  0
 24 27  1  0  0  0
  9 20  1  0  0  0
 30 31  1  0  0  0
 15 21  1  0  0  0
 19 22  1  0  0  0
M  END
> <minimizedAffinity>
-5.27120

> <CNNscore>
0.3559264839

> <CNNaffinity>
4.9908118248

> <CNN_VS>
1.7763620615

> <CNNaffinity_variance>
0.3806768656

$$$$
[H]OC(=O)[C@]1([H])N([H])[C@@]([H])(C([H])([H])C([H])([H])c2c([H])c([H])c([H])c([H])c2[H])C(=O)N([H])[C@]([H])(C(=O)N([H])C([H])([H])[H])C([H])([H])C([H])([H])C(=O)OC([H])([H])C([H])([H])N([H])C(=O)C([H])([H])C1([H])[H]


 39 40  0  0  0  0  0  0  0  0999 V2000
  156.4109  134.5031  187.3376 C   0  0  0  0  0  0  0  0  0  0  0  0
  155.7920  134.4528  188.6956 C   0  0  0  0  0  0  0  0  0  0  0  0
  156.5580  133.7623  189.7688 C   0  0  0  0  0  0  0  0  0  0  0  0
  155.6238  132.9340  190.6162 C   0  0  0  0  0  0  0  0  0  0  0  0
  155.5502  131.6927  190.3196 O   0  0  0  0  0  0  0  0  0  0  0  0
  154.8812  133.4323  191.6470 O   0  0  0  0  0  0  0  0  0  0  0  0
  154.0336  134.5264  191.6792 C   0  0  0  0  0  0  0  0  0  0  0  0
  152.5675  134.1921  191.4031 C   0  0  0  0  0  0  0  0  0  0  0  0
  151.8922  135.4055  191.0340 N   0  0  0  0  0  0  0  0  0  0  0  0
  150.7531  135.5248  190.2070 C   0  0  0  0  0  0  0  0  0  0  0  0
  149.7719  136.2678  190.5578 O   0  0  0  0  0  0  0  0  0  0  0  0
  150.5843  134.8266  188.8958 C   0  0  0  0  0  0  0  0  0  0  0  0
  151.8547  134.7962  188.1108 C   0  0  0  0  0  0  0  0  0  0  0  0
  152.0765  135.9755  187.1877 C   0  0  0  0  0  0  0  0  0  0  0  0
  153.3037  135.7588  186.4783 N   0  0  0  0  0  0  0  0  0  0  0  0
  153.4440  134.6718  185.6132 C   0  0  0  0  0  0  0  0  0  0  0  0
  154.3830  133.5932  186.0296 C   0  0  0  0  0  0  0  0  0  0  0  0
  153.8611  132.4238  186.0801 O   0  0  0  0  0  0  0  0  0  0  0  0
  155.7233  133.6683  186.3636 N   0  0  0  0  0  0  0  0  0  0  0  0
  152.2809  136.3147  191.4211 H   0  0  0  0  0  0  0  0  0  0  0  0
  153.7395  136.6522  186.2614 H   0  0  0  0  0  0  0  0  0  0  0  0
  156.3935  133.0148  185.8349 H   0  0  0  0  0  0  0  0  0  0  0  0
  160.1758  135.0044  187.8827 C   0  0  0  0  0  0  0  0  0  0  0  0
  158.7545  135.2328  187.8235 N   0  0  0  0  0  0  0  0  0  0  0  0
  157.8597  134.2448  187.3888 C   0  0  0  0  0  0  0  0  0  0  0  0
  158.2990  133.1364  187.0420 O   0  0  0  0  0  0  0  0  0  0  0  0
  158.3825  136.1614  188.1125 H   0  0  0  0  0  0  0  0  0  0  0  0
  150.9026  136.2984  186.3797 C   0  0  0  0  0  0  0  0  0  0  0  0
  150.3155  135.5431  185.5716 O   0  0  0  0  0  0  0  0  0  0  0  0
  150.3783  137.5963  186.5221 O   0  0  0  0  0  0  0  0  0  0  0  0
  150.6836  138.2616  185.8245 H   0  0  0  0  0  0  0  0  0  0  0  0
  153.7470  135.0765  184.1658 C   0  0  0  0  0  0  0  0  0  0  0  0
  153.3589  134.0073  183.2025 C   0  0  0  0  0  0  0  0  0  0  0  0
  154.4510  133.7255  182.2176 C   0  0  0  0  0  0  0  0  0  0  0  0
  155.6050  133.0863  182.5535 C   0  0  0  0  0  0  0  0  0  0  0  0
  156.5428  132.8801  181.5489 C   0  0  0  0  0  0  0  0  0  0  0  0
  156.3323  133.3006  180.2499 C   0  0  0  0  0  0  0  0  0  0  0  0
  155.1618  133.9453  179.9248 C   0  0  0  0  0  0  0  0  0  0  0  0
  154.2379  134.1460  180.9240 C   0  0  0  0  0  0  0  0  0  0  0  0
 23 24  1  0  0  0
 24 25  1  0  0  0
 25 26  2  0  0  0
 25  1  1  0  0  0
  1  2  1  0  0  0
  2  3  1  0  0  0
  3  4  1  0  0  0
  4  5  2  0  0  0
  4  6  1  0  0  0
  6  7  1  0  0  0
  7  8  1  0  0  0
  8  9  1  0  0  0
  9 10  1  0  0  0
 10 11  2  0  0  0
 10 12  1  0  0  0
 12 13  1  0  0  0
 13 14  1  0  0  0
 14 28  1  0  0  0
 28 29  2  0  0  0
 28 30  1  0  0  0
 14 15  1  0  0  0
 15 16  1  0  0  0
 16 32  1  0  0  0
 32 33  1  0  0  0
 33 34  1  0  0  0
 34 35  2  0  0  0
 35 36  1  0  0  0
 36 37  2  0  0  0
 37 38  1  0  0  0
 38 39  2  0  0  0
 16 17  1  0  0  0
 17 18  2  0  0  0
 17 19  1  0  0  0
 19  1  1  0  0  0
 39 34  1  0  0  0
 24 27  1  0  0  0
  9 20  1  0  0  0
 30 31  1  0  0  0
 15 21  1  0  0  0
 19 22  1  0  0  0
M  END
> <minimizedAffinity>
-4.47618

> <CNNscore>
0.3482432365

> <CNNaffinity>
4.9801692963

> <CNN_VS>
1.7343102694

> <CNNaffinity_variance>
0.2864775062

$$$$
[H]OC(=O)[C@]1([H])N([H])[C@@]([H])(C([H])([H])C([H])([H])c2c([H])c([H])c([H])c([H])c2[H])C(=O)N([H])[C@]([H])(C(=O)N([H])C([H])([H])[H])C([H])([H])C([H])([H])C(=O)OC([H])([H])C([H])([H])N([H])C(=O)C([H])([H])C1([H])[H]


 39 40  0  0  0  0  0  0  0  0999 V2000
  152.3071  135.6700  190.3508 C   0  0  0  0  0  0  0  0  0  0  0  0
  151.3101  134.6771  189.8508 C   0  0  0  0  0  0  0  0  0  0  0  0
  150.4907  133.9626  190.8674 C   0  0  0  0  0  0  0  0  0  0  0  0
  150.3529  132.5087  190.4878 C   0  0  0  0  0  0  0  0  0  0  0  0
  151.1683  131.7024  191.0528 O   0  0  0  0  0  0  0  0  0  0  0  0
  149.4310  132.0336  189.6009 O   0  0  0  0  0  0  0  0  0  0  0  0
  149.1394  132.4567  188.3154 C   0  0  0  0  0  0  0  0  0  0  0  0
  149.8914  131.6998  187.2204 C   0  0  0  0  0  0  0  0  0  0  0  0
  149.8516  132.4893  186.0206 N   0  0  0  0  0  0  0  0  0  0  0  0
  150.8003  132.4907  184.9740 C   0  0  0  0  0  0  0  0  0  0  0  0
  150.4197  132.4339  183.7534 O   0  0  0  0  0  0  0  0  0  0  0  0
  152.2804  132.5559  185.1754 C   0  0  0  0  0  0  0  0  0  0  0  0
  152.6536  133.4884  186.2810 C   0  0  0  0  0  0  0  0  0  0  0  0
  152.8828  134.9269  185.8681 C   0  0  0  0  0  0  0  0  0  0  0  0
  153.2826  135.6639  187.0314 N   0  0  0  0  0  0  0  0  0  0  0  0
  154.4687  135.3522  187.6992 C   0  0  0  0  0  0  0  0  0  0  0  0
  154.3427  134.7556  189.0581 C   0  0  0  0  0  0  0  0  0  0  0  0
  154.9391  133.6304  189.2023 O   0  0  0  0  0  0  0  0  0  0  0  0
  153.6850  135.2352  190.1766 N   0  0  0  0  0  0  0  0  0  0  0  0
  149.0235  133.1423  185.8962 H   0  0  0  0  0  0  0  0  0  0  0  0
  152.9719  136.6294  186.9521 H   0  0  0  0  0  0  0  0  0  0  0  0
  154.2587  135.3107  191.0827 H   0  0  0  0  0  0  0  0  0  0  0  0
  152.3999  135.9022  194.1797 C   0  0  0  0  0  0  0  0  0  0  0  0
  152.6709  135.5068  192.8210 N   0  0  0  0  0  0  0  0  0  0  0  0
  152.0119  136.0917  191.7304 C   0  0  0  0  0  0  0  0  0  0  0  0
  151.1669  136.9782  191.9346 O   0  0  0  0  0  0  0  0  0  0  0  0
  153.3782  134.7629  192.6459 H   0  0  0  0  0  0  0  0  0  0  0  0
  153.7352  135.0548  184.6883 C   0  0  0  0  0  0  0  0  0  0  0  0
  153.4777  135.6901  183.6403 O   0  0  0  0  0  0  0  0  0  0  0  0
  154.9753  134.3916  184.7330 O   0  0  0  0  0  0  0  0  0  0  0  0
  154.9921  133.4825  184.2905 H   0  0  0  0  0  0  0  0  0  0  0  0
  155.4679  136.5141  187.7465 C   0  0  0  0  0  0  0  0  0  0  0  0
  154.7838  137.8334  187.6318 C   0  0  0  0  0  0  0  0  0  0  0  0
  155.0475  138.4813  186.3078 C   0  0  0  0  0  0  0  0  0  0  0  0
  156.2966  138.8153  185.8820 C   0  0  0  0  0  0  0  0  0  0  0  0
  156.4130  139.4097  184.6311 C   0  0  0  0  0  0  0  0  0  0  0  0
  155.3143  139.6617  183.8324 C   0  0  0  0  0  0  0  0  0  0  0  0
  154.0582  139.3190  184.2755 C   0  0  0  0  0  0  0  0  0  0  0  0
  153.9503  138.7310  185.5145 C   0  0  0  0  0  0  0  0  0  0  0  0
 23 24  1  0  0  0
 24 25  1  0  0  0
 25 26  2  0  0  0
 25  1  1  0  0  0
  1  2  1  0  0  0
  2  3  1  0  0  0
  3  4  1  0  0  0
  4  5  2  0  0  0
  4  6  1  0  0  0
  6  7  1  0  0  0
  7  8  1  0  0  0
  8  9  1  0  0  0
  9 10  1  0  0  0
 10 11  2  0  0  0
 10 12  1  0  0  0
 12 13  1  0  0  0
 13 14  1  0  0  0
 14 28  1  0  0  0
 28 29  2  0  0  0
 28 30  1  0  0  0
 14 15  1  0  0  0
 15 16  1  0  0  0
 16 32  1  0  0  0
 32 33  1  0  0  0
 33 34  1  0  0  0
 34 35  2  0  0  0
 35 36  1  0  0  0
 36 37  2  0  0  0
 37 38  1  0  0  0
 38 39  2  0  0  0
 16 17  1  0  0  0
 17 18  2  0  0  0
 17 19  1  0  0  0
 19  1  1  0  0  0
 39 34  1  0  0  0
 24 27  1  0  0  0
  9 20  1  0  0  0
 30 31  1  0  0  0
 15 21  1  0  0  0
 19 22  1  0  0  0
M  END
> <minimizedAffinity>
-4.39229

> <CNNscore>
0.2922864556

> <CNNaffinity>
4.9477500916

> <CNN_VS>
1.4461603165

> <CNNaffinity_variance>
0.9139577746

$$$$
[H]OC(=O)[C@]1([H])N([H])[C@@]([H])(C([H])([H])C([H])([H])c2c([H])c([H])c([H])c([H])c2[H])C(=O)N([H])[C@]([H])(C(=O)N([H])C([H])([H])[H])C([H])([H])C([H])([H])C(=O)OC([H])([H])C([H])([H])N([H])C(=O)C([H])([H])C1([H])[H]


 39 40  0  0  0  0  0  0  0  0999 V2000
  153.2619  137.7606  184.6798 C   0  0  0  0  0  0  0  0  0  0  0  0
  152.4757  137.2333  183.5250 C   0  0  0  0  0  0  0  0  0  0  0  0
  152.3080  138.1294  182.3485 C   0  0  0  0  0  0  0  0  0  0  0  0
  150.8977  138.0282  181.8215 C   0  0  0  0  0  0  0  0  0  0  0  0
  150.0857  138.9332  182.2165 O   0  0  0  0  0  0  0  0  0  0  0  0
  150.4660  137.0499  180.9737 O   0  0  0  0  0  0  0  0  0  0  0  0
  150.5892  135.6747  181.0732 C   0  0  0  0  0  0  0  0  0  0  0  0
  149.3926  134.9837  181.7278 C   0  0  0  0  0  0  0  0  0  0  0  0
  149.8105  133.6798  182.1636 N   0  0  0  0  0  0  0  0  0  0  0  0
  149.2758  132.9321  183.2363 C   0  0  0  0  0  0  0  0  0  0  0  0
  148.9963  131.6921  183.0867 O   0  0  0  0  0  0  0  0  0  0  0  0
  148.9941  133.4873  184.5956 C   0  0  0  0  0  0  0  0  0  0  0  0
  150.0546  134.4402  185.0411 C   0  0  0  0  0  0  0  0  0  0  0  0
  151.2127  133.8184  185.7923 C   0  0  0  0  0  0  0  0  0  0  0  0
  152.1008  134.8720  186.1891 N   0  0  0  0  0  0  0  0  0  0  0  0
  151.6749  135.8691  187.0690 C   0  0  0  0  0  0  0  0  0  0  0  0
  151.5228  137.2421  186.5122 C   0  0  0  0  0  0  0  0  0  0  0  0
  150.3611  137.7575  186.6778 O   0  0  0  0  0  0  0  0  0  0  0  0
  152.4439  138.0353  185.8518 N   0  0  0  0  0  0  0  0  0  0  0  0
  150.6027  133.2192  181.6272 H   0  0  0  0  0  0  0  0  0  0  0  0
  153.0558  134.5231  186.2258 H   0  0  0  0  0  0  0  0  0  0  0  0
  152.6043  139.0234  186.2439 H   0  0  0  0  0  0  0  0  0  0  0  0
  156.3353  139.8717  183.7740 C   0  0  0  0  0  0  0  0  0  0  0  0
  155.4914  138.7676  184.1544 N   0  0  0  0  0  0  0  0  0  0  0  0
  154.1027  138.9048  184.2899 C   0  0  0  0  0  0  0  0  0  0  0  0
  153.5772  140.0096  184.0776 O   0  0  0  0  0  0  0  0  0  0  0  0
  155.9287  137.8398  184.3342 H   0  0  0  0  0  0  0  0  0  0  0  0
  150.7850  132.8946  186.8404 C   0  0  0  0  0  0  0  0  0  0  0  0
  151.1329  131.6993  186.9767 O   0  0  0  0  0  0  0  0  0  0  0  0
  149.8846  133.4003  187.7961 O   0  0  0  0  0  0  0  0  0  0  0  0
  148.9104  133.1953  187.6187 H   0  0  0  0  0  0  0  0  0  0  0  0
  152.4949  135.9348  188.3627 C   0  0  0  0  0  0  0  0  0  0  0  0
  153.9521  136.0789  188.0841 C   0  0  0  0  0  0  0  0  0  0  0  0
  154.6357  136.9115  189.1242 C   0  0  0  0  0  0  0  0  0  0  0  0
  154.0144  137.3380  190.2578 C   0  0  0  0  0  0  0  0  0  0  0  0
  154.7563  138.1031  191.1498 C   0  0  0  0  0  0  0  0  0  0  0  0
  156.0776  138.4308  190.9142 C   0  0  0  0  0  0  0  0  0  0  0  0
  156.6926  137.9931  189.7646 C   0  0  0  0  0  0  0  0  0  0  0  0
  155.9523  137.2362  188.8862 C   0  0  0  0  0  0  0  0  0  0  0  0
 23 24  1  0  0  0
 24 25  1  0  0  0
 25 26  2  0  0  0
 25  1  1  0  0  0
  1  2  1  0  0  0
  2  3  1  0  0  0
  3  4  1  0  0  0
  4  5  2  0  0  0
  4  6  1  0  0  0
  6  7  1  0  0  0
  7  8  1  0  0  0
  8  9  1  0  0  0
  9 10  1  0  0  0
 10 11  2  0  0  0
 10 12  1  0  0  0
 12 13  1  0  0  0
 13 14  1  0  0  0
 14 28  1  0  0  0
 28 29  2  0  0  0
 28 30  1  0  0  0
 14 15  1  0  0  0
 15 16  1  0  0  0
 16 32  1  0  0  0
 32 33  1  0  0  0
 33 34  1  0  0  0
 34 35  2  0  0  0
 35 36  1  0  0  0
 36 37  2  0  0  0
 37 38  1  0  0  0
 38 39  2  0  0  0
 16 17  1  0  0  0
 17 18  2  0  0  0
 17 19  1  0  0  0
 19  1  1  0  0  0
 39 34  1  0  0  0
 24 27  1  0  0  0
  9 20  1  0  0  0
 30 31  1  0  0  0
 15 21  1  0  0  0
 19 22  1  0  0  0
M  END
> <minimizedAffinity>
-4.74796

> <CNNscore>
0.2625628412

> <CNNaffinity>
5.0584058762

> <CNN_VS>
1.3281494379

> <CNNaffinity_variance>
0.7548477650

$$$$
[H]OC(=O)[C@]1([H])N([H])[C@@]([H])(C([H])([H])C([H])([H])c2c([H])c([H])c([H])c([H])c2[H])C(=O)N([H])[C@]([H])(C(=O)N([H])C([H])([H])[H])C([H])([H])C([H])([H])C(=O)OC([H])([H])C([H])([H])N([H])C(=O)C([H])([H])C1([H])[H]


 39 40  0  0  0  0  0  0  0  0999 V2000
  153.0777  136.8754  189.3673 C   0  0  0  0  0  0  0  0  0  0  0  0
  152.6295  136.4661  190.7317 C   0  0  0  0  0  0  0  0  0  0  0  0
  153.6102  136.6073  191.8423 C   0  0  0  0  0  0  0  0  0  0  0  0
  153.5309  135.4077  192.7543 C   0  0  0  0  0  0  0  0  0  0  0  0
  154.3925  134.4868  192.5449 O   0  0  0  0  0  0  0  0  0  0  0  0
  152.6144  135.2671  193.7555 O   0  0  0  0  0  0  0  0  0  0  0  0
  151.2373  135.4040  193.7205 C   0  0  0  0  0  0  0  0  0  0  0  0
  150.4828  134.0956  193.4828 C   0  0  0  0  0  0  0  0  0  0  0  0
  149.1552  134.4176  193.0374 N   0  0  0  0  0  0  0  0  0  0  0  0
  148.3210  133.6274  192.2156 C   0  0  0  0  0  0  0  0  0  0  0  0
  147.0925  133.4442  192.5239 O   0  0  0  0  0  0  0  0  0  0  0  0
  148.7675  132.9542  190.9576 C   0  0  0  0  0  0  0  0  0  0  0  0
  149.6975  133.8123  190.1639 C   0  0  0  0  0  0  0  0  0  0  0  0
  149.0356  134.7314  189.1593 C   0  0  0  0  0  0  0  0  0  0  0  0
  150.0676  135.4346  188.4543 N   0  0  0  0  0  0  0  0  0  0  0  0
  150.9892  134.7435  187.6651 C   0  0  0  0  0  0  0  0  0  0  0  0
  152.3985  134.7080  188.1457 C   0  0  0  0  0  0  0  0  0  0  0  0
  152.8845  133.5300  188.2821 O   0  0  0  0  0  0  0  0  0  0  0  0
  153.2516  135.7505  188.4603 N   0  0  0  0  0  0  0  0  0  0  0  0
  148.7472  135.3444  193.3569 H   0  0  0  0  0  0  0  0  0  0  0  0
  149.7295  136.3516  188.1718 H   0  0  0  0  0  0  0  0  0  0  0  0
  154.2090  135.7597  187.9713 H   0  0  0  0  0  0  0  0  0  0  0  0
  156.7197  138.0565  189.6196 C   0  0  0  0  0  0  0  0  0  0  0  0
  155.5482  137.2196  189.5641 N   0  0  0  0  0  0  0  0  0  0  0  0
  154.2592  137.7524  189.4218 C   0  0  0  0  0  0  0  0  0  0  0  0
  154.1154  138.9831  189.3410 O   0  0  0  0  0  0  0  0  0  0  0  0
  155.6649  136.1871  189.6325 H   0  0  0  0  0  0  0  0  0  0  0  0
  148.0292  134.0567  188.3427 C   0  0  0  0  0  0  0  0  0  0  0  0
  148.1367  132.9386  187.7891 O   0  0  0  0  0  0  0  0  0  0  0  0
  146.8115  134.7365  188.1557 O   0  0  0  0  0  0  0  0  0  0  0  0
  146.7409  135.2617  187.2944 H   0  0  0  0  0  0  0  0  0  0  0  0
  150.9670  135.1616  186.1903 C   0  0  0  0  0  0  0  0  0  0  0  0
  150.7905  136.6338  186.0381 C   0  0  0  0  0  0  0  0  0  0  0  0
  151.4536  137.1463  184.7971 C   0  0  0  0  0  0  0  0  0  0  0  0
  150.8220  137.2134  183.5932 C   0  0  0  0  0  0  0  0  0  0  0  0
  151.5431  137.7110  182.5145 C   0  0  0  0  0  0  0  0  0  0  0  0
  152.8545  138.1279  182.6371 C   0  0  0  0  0  0  0  0  0  0  0  0
  153.4802  138.0544  183.8596 C   0  0  0  0  0  0  0  0  0  0  0  0
  152.7605  137.5609  184.9230 C   0  0  0  0  0  0  0  0  0  0  0  0
 23 24  1  0  0  0
 24 25  1  0  0  0
 25 26  2  0  0  0
 25  1  1  0  0  0
  1  2  1  0  0  0
  2  3  1  0  0  0
  3  4  1  0  0  0
  4  5  2  0  0  0
  4  6  1  0  0  0
  6  7  1  0  0  0
  7  8  1  0  0  0
  8  9  1  0  0  0
  9 10  1  0  0  0
 10 11  2  0  0  0
 10 12  1  0  0  0
 12 13  1  0  0  0
 13 14  1  0  0  0
 14 28  1  0  0  0
 28 29  2  0  0  0
 28 30  1  0  0  0
 14 15  1  0  0  0
 15 16  1  0  0  0
 16 32  1  0  0  0
 32 33  1  0  0  0
 33 34  1  0  0  0
 34 35  2  0  0  0
 35 36  1  0  0  0
 36 37  2  0  0  0
 37 38  1  0  0  0
 38 39  2  0  0  0
 16 17  1  0  0  0
 17 18  2  0  0  0
 17 19  1  0  0  0
 19  1  1  0  0  0
 39 34  1  0  0  0
 24 27  1  0  0  0
  9 20  1  0  0  0
 30 31  1  0  0  0
 15 21  1  0  0  0
 19 22  1  0  0  0
M  END
> <minimizedAffinity>
-4.79868

> <CNNscore>
0.2604467571

> <CNNaffinity>
4.9239130020

> <CNN_VS>
1.2824171782

> <CNNaffinity_variance>
0.3245972097

$$$$
[H]OC(=O)[C@]1([H])N([H])[C@@]([H])(C([H])([H])C([H])([H])c2c([H])c([H])c([H])c([H])c2[H])C(=O)N([H])[C@]([H])(C(=O)N([H])C([H])([H])[H])C([H])([H])C([H])([H])C(=O)OC([H])([H])C([H])([H])N([H])C(=O)C([H])([H])C1([H])[H]


 39 40  0  0  0  0  0  0  0  0999 V2000
  153.3177  137.3159  189.1688 C   0  0  0  0  0  0  0  0  0  0  0  0
  152.6734  136.3969  190.1538 C   0  0  0  0  0  0  0  0  0  0  0  0
  153.5034  135.9359  191.3000 C   0  0  0  0  0  0  0  0  0  0  0  0
  153.2473  134.4726  191.5650 C   0  0  0  0  0  0  0  0  0  0  0  0
  154.0848  133.6551  191.0506 O   0  0  0  0  0  0  0  0  0  0  0  0
  152.2003  134.0003  192.3018 O   0  0  0  0  0  0  0  0  0  0  0  0
  150.8480  134.2775  192.1972 C   0  0  0  0  0  0  0  0  0  0  0  0
  150.0712  133.2903  191.3257 C   0  0  0  0  0  0  0  0  0  0  0  0
  148.8311  133.9078  190.9442 N   0  0  0  0  0  0  0  0  0  0  0  0
  148.0773  133.6477  189.7781 C   0  0  0  0  0  0  0  0  0  0  0  0
  146.8115  133.4733  189.8495 O   0  0  0  0  0  0  0  0  0  0  0  0
  148.6548  133.5539  188.4022 C   0  0  0  0  0  0  0  0  0  0  0  0
  149.7214  134.5742  188.1727 C   0  0  0  0  0  0  0  0  0  0  0  0
  149.2428  135.9028  187.6271 C   0  0  0  0  0  0  0  0  0  0  0  0
  150.3912  136.7355  187.4169 N   0  0  0  0  0  0  0  0  0  0  0  0
  151.3760  136.3717  186.4962 C   0  0  0  0  0  0  0  0  0  0  0  0
  152.7057  135.9863  187.0455 C   0  0  0  0  0  0  0  0  0  0  0  0
  153.1133  134.8255  186.6863 O   0  0  0  0  0  0  0  0  0  0  0  0
  153.5575  136.6924  187.8758 N   0  0  0  0  0  0  0  0  0  0  0  0
  148.4283  134.6362  191.6034 H   0  0  0  0  0  0  0  0  0  0  0  0
  150.1372  137.7125  187.5437 H   0  0  0  0  0  0  0  0  0  0  0  0
  154.5708  136.8182  187.5392 H   0  0  0  0  0  0  0  0  0  0  0  0
  156.9880  138.0202  190.0383 C   0  0  0  0  0  0  0  0  0  0  0  0
  155.7953  137.4133  189.5042 N   0  0  0  0  0  0  0  0  0  0  0  0
  154.5214  137.9552  189.7260 C   0  0  0  0  0  0  0  0  0  0  0  0
  154.4102  138.9899  190.4034 O   0  0  0  0  0  0  0  0  0  0  0  0
  155.8846  136.5449  188.9366 H   0  0  0  0  0  0  0  0  0  0  0  0
  148.3232  135.7611  186.5005 C   0  0  0  0  0  0  0  0  0  0  0  0
  148.5691  135.2346  185.3911 O   0  0  0  0  0  0  0  0  0  0  0  0
  147.0249  136.2731  186.6796 O   0  0  0  0  0  0  0  0  0  0  0  0
  146.8756  137.2030  186.3115 H   0  0  0  0  0  0  0  0  0  0  0  0
  151.5697  137.3948  185.3709 C   0  0  0  0  0  0  0  0  0  0  0  0
  151.6517  136.7362  184.0363 C   0  0  0  0  0  0  0  0  0  0  0  0
  151.5562  137.7304  182.9207 C   0  0  0  0  0  0  0  0  0  0  0  0
  152.6448  138.3391  182.3754 C   0  0  0  0  0  0  0  0  0  0  0  0
  152.4273  139.2422  181.3417 C   0  0  0  0  0  0  0  0  0  0  0  0
  151.1606  139.5269  180.8693 C   0  0  0  0  0  0  0  0  0  0  0  0
  150.0698  138.9045  181.4298 C   0  0  0  0  0  0  0  0  0  0  0  0
  150.2924  138.0117  182.4525 C   0  0  0  0  0  0  0  0  0  0  0  0
 23 24  1  0  0  0
 24 25  1  0  0  0
 25 26  2  0  0  0
 25  1  1  0  0  0
  1  2  1  0  0  0
  2  3  1  0  0  0
  3  4  1  0  0  0
  4  5  2  0  0  0
  4  6  1  0  0  0
  6  7  1  0  0  0
  7  8  1  0  0  0
  8  9  1  0  0  0
  9 10  1  0  0  0
 10 11  2  0  0  0
 10 12  1  0  0  0
 12 13  1  0  0  0
 13 14  1  0  0  0
 14 28  1  0  0  0
 28 29  2  0  0  0
 28 30  1  0  0  0
 14 15  1  0  0  0
 15 16  1  0  0  0
 16 32  1  0  0  0
 32 33  1  0  0  0
 33 34  1  0  0  0
 34 35  2  0  0  0
 35 36  1  0  0  0
 36 37  2  0  0  0
 37 38  1  0  0  0
 38 39  2  0  0  0
 16 17  1  0  0  0
 17 18  2  0  0  0
 17 19  1  0  0  0
 19  1  1  0  0  0
 39 34  1  0  0  0
 24 27  1  0  0  0
  9 20  1  0  0  0
 30 31  1  0  0  0
 15 21  1  0  0  0
 19 22  1  0  0  0
M  END
> <minimizedAffinity>
-4.92548

> <CNNscore>
0.2574805319

> <CNNaffinity>
4.9979877472

> <CNN_VS>
1.2868845463

> <CNNaffinity_variance>
0.2623835206

$$$$
[H]OC(=O)[C@]1([H])N([H])[C@@]([H])(C([H])([H])C([H])([H])c2c([H])c([H])c([H])c([H])c2[H])C(=O)N([H])[C@]([H])(C(=O)N([H])C([H])([H])[H])C([H])([H])C([H])([H])C(=O)OC([H])([H])C([H])([H])N([H])C(=O)C([H])([H])C1([H])[H]


 39 40  0  0  0  0  0  0  0  0999 V2000
  154.0202  136.3006  186.6250 C   0  0  0  0  0  0  0  0  0  0  0  0
  152.6725  136.5712  186.0418 C   0  0  0  0  0  0  0  0  0  0  0  0
  151.6985  137.3105  186.8903 C   0  0  0  0  0  0  0  0  0  0  0  0
  150.3250  136.7025  186.7459 C   0  0  0  0  0  0  0  0  0  0  0  0
  149.9842  135.8668  187.6514 O   0  0  0  0  0  0  0  0  0  0  0  0
  149.4623  136.9938  185.7295 O   0  0  0  0  0  0  0  0  0  0  0  0
  149.6722  136.9875  184.3612 C   0  0  0  0  0  0  0  0  0  0  0  0
  149.2976  135.6734  183.6753 C   0  0  0  0  0  0  0  0  0  0  0  0
  149.9502  135.6329  182.3958 N   0  0  0  0  0  0  0  0  0  0  0  0
  150.3432  134.4802  181.6799 C   0  0  0  0  0  0  0  0  0  0  0  0
  150.0860  134.3735  180.4308 O   0  0  0  0  0  0  0  0  0  0  0  0
  151.0674  133.3185  182.2809 C   0  0  0  0  0  0  0  0  0  0  0  0
  152.1012  133.7538  183.2673 C   0  0  0  0  0  0  0  0  0  0  0  0
  153.4778  134.0142  182.6935 C   0  0  0  0  0  0  0  0  0  0  0  0
  154.3503  134.3656  183.7759 N   0  0  0  0  0  0  0  0  0  0  0  0
  154.6204  133.4534  184.7980 C   0  0  0  0  0  0  0  0  0  0  0  0
  154.0712  133.7669  186.1465 C   0  0  0  0  0  0  0  0  0  0  0  0
  153.3349  132.8457  186.6483 O   0  0  0  0  0  0  0  0  0  0  0  0
  154.2405  134.8946  186.9296 N   0  0  0  0  0  0  0  0  0  0  0  0
  150.1614  136.5629  181.9287 H   0  0  0  0  0  0  0  0  0  0  0  0
  155.0731  135.0003  183.4447 H   0  0  0  0  0  0  0  0  0  0  0  0
  154.5911  134.7406  187.9343 H   0  0  0  0  0  0  0  0  0  0  0  0
  154.4023  137.5854  190.2203 C   0  0  0  0  0  0  0  0  0  0  0  0
  154.1283  136.7406  189.0857 N   0  0  0  0  0  0  0  0  0  0  0  0
  154.3073  137.1838  187.7677 C   0  0  0  0  0  0  0  0  0  0  0  0
  154.7137  138.3393  187.5645 O   0  0  0  0  0  0  0  0  0  0  0  0
  153.7863  135.7713  189.2523 H   0  0  0  0  0  0  0  0  0  0  0  0
  153.9370  132.9510  181.8026 C   0  0  0  0  0  0  0  0  0  0  0  0
  154.1100  131.7461  182.0968 O   0  0  0  0  0  0  0  0  0  0  0  0
  154.2176  133.3205  180.4742 O   0  0  0  0  0  0  0  0  0  0  0  0
  155.1913  133.5103  180.2780 H   0  0  0  0  0  0  0  0  0  0  0  0
  156.1067  133.0998  184.9258 C   0  0  0  0  0  0  0  0  0  0  0  0
  156.3979  132.4011  186.2098 C   0  0  0  0  0  0  0  0  0  0  0  0
  157.6647  132.8968  186.8358 C   0  0  0  0  0  0  0  0  0  0  0  0
  158.7491  132.1007  187.0440 C   0  0  0  0  0  0  0  0  0  0  0  0
  159.8686  132.6782  187.6312 C   0  0  0  0  0  0  0  0  0  0  0  0
  159.9012  134.0097  187.9984 C   0  0  0  0  0  0  0  0  0  0  0  0
  158.7981  134.8021  187.7821 C   0  0  0  0  0  0  0  0  0  0  0  0
  157.6936  134.2241  187.2005 C   0  0  0  0  0  0  0  0  0  0  0  0
 23 24  1  0  0  0
 24 25  1  0  0  0
 25 26  2  0  0  0
 25  1  1  0  0  0
  1  2  1  0  0  0
  2  3  1  0  0  0
  3  4  1  0  0  0
  4  5  2  0  0  0
  4  6  1  0  0  0
  6  7  1  0  0  0
  7  8  1  0  0  0
  8  9  1  0  0  0
  9 10  1  0  0  0
 10 11  2  0  0  0
 10 12  1  0  0  0
 12 13  1  0  0  0
 13 14  1  0  0  0
 14 28  1  0  0  0
 28 29  2  0  0  0
 28 30  1  0  0  0
 14 15  1  0  0  0
 15 16  1  0  0  0
 16 32  1  0  0  0
 32 33  1  0  0  0
 33 34  1  0  0  0
 34 35  2  0  0  0
 35 36  1  0  0  0
 36 37  2  0  0  0
 37 38  1  0  0  0
 38 39  2  0  0  0
 16 17  1  0  0  0
 17 18  2  0  0  0
 17 19  1  0  0  0
 19  1  1  0  0  0
 39 34  1  0  0  0
 24 27  1  0  0  0
  9 20  1  0  0  0
 30 31  1  0  0  0
 15 21  1  0  0  0
 19 22  1  0  0  0
M  END
> <minimizedAffinity>
-4.68915

> <CNNscore>
0.2532969713

> <CNNaffinity>
4.7194852829

> <CNN_VS>
1.1954313517

> <CNNaffinity_variance>
0.2374749184

$$$$
[H]OC(=O)[C@]1([H])N([H])[C@@]([H])(C([H])([H])C([H])([H])c2c([H])c([H])c([H])c([H])c2[H])C(=O)N([H])[C@]([H])(C(=O)N([H])C([H])([H])[H])C([H])([H])C([H])([H])C(=O)OC([H])([H])C([H])([H])N([H])C(=O)C([H])([H])C1([H])[H]


 39 40  0  0  0  0  0  0  0  0999 V2000
  150.9289  134.0152  187.0801 C   0  0  0  0  0  0  0  0  0  0  0  0
  151.3323  134.3464  188.4791 C   0  0  0  0  0  0  0  0  0  0  0  0
  150.4881  133.8043  189.5785 C   0  0  0  0  0  0  0  0  0  0  0  0
  150.3037  134.8511  190.6496 C   0  0  0  0  0  0  0  0  0  0  0  0
  149.2209  135.5282  190.5908 O   0  0  0  0  0  0  0  0  0  0  0  0
  151.2077  135.0984  191.6414 O   0  0  0  0  0  0  0  0  0  0  0  0
  152.5684  135.3395  191.5589 C   0  0  0  0  0  0  0  0  0  0  0  0
  152.9399  136.8211  191.4937 C   0  0  0  0  0  0  0  0  0  0  0  0
  154.2777  136.9262  190.9799 N   0  0  0  0  0  0  0  0  0  0  0  0
  154.8277  138.0110  190.2614 C   0  0  0  0  0  0  0  0  0  0  0  0
  155.9814  138.4731  190.5671 O   0  0  0  0  0  0  0  0  0  0  0  0
  154.1493  138.6999  189.1210 C   0  0  0  0  0  0  0  0  0  0  0  0
  153.4316  137.7367  188.2330 C   0  0  0  0  0  0  0  0  0  0  0  0
  154.2517  137.1675  187.0947 C   0  0  0  0  0  0  0  0  0  0  0  0
  153.4004  136.3134  186.3187 N   0  0  0  0  0  0  0  0  0  0  0  0
  152.2865  136.8311  185.6546 C   0  0  0  0  0  0  0  0  0  0  0  0
  150.9469  136.4261  186.1644 C   0  0  0  0  0  0  0  0  0  0  0  0
  150.1788  137.4033  186.4765 O   0  0  0  0  0  0  0  0  0  0  0  0
  150.4153  135.1619  186.3456 N   0  0  0  0  0  0  0  0  0  0  0  0
  154.9313  136.1081  191.1562 H   0  0  0  0  0  0  0  0  0  0  0  0
  153.9494  135.5651  185.9021 H   0  0  0  0  0  0  0  0  0  0  0  0
  149.4670  134.9620  185.8801 H   0  0  0  0  0  0  0  0  0  0  0  0
  147.7297  131.9083  186.8587 C   0  0  0  0  0  0  0  0  0  0  0  0
  148.6369  133.0266  186.9063 N   0  0  0  0  0  0  0  0  0  0  0  0
  150.0226  132.8556  187.0340 C   0  0  0  0  0  0  0  0  0  0  0  0
  150.4893  131.7074  187.1093 O   0  0  0  0  0  0  0  0  0  0  0  0
  148.2491  133.9910  186.8444 H   0  0  0  0  0  0  0  0  0  0  0  0
  154.9982  138.1872  186.3615 C   0  0  0  0  0  0  0  0  0  0  0  0
  154.5385  139.0023  185.5292 O   0  0  0  0  0  0  0  0  0  0  0  0
  156.3804  138.2592  186.6147 O   0  0  0  0  0  0  0  0  0  0  0  0
  156.9645  137.7670  185.9519 H   0  0  0  0  0  0  0  0  0  0  0  0
  152.3322  136.6314  184.1353 C   0  0  0  0  0  0  0  0  0  0  0  0
  153.6462  136.0857  183.6911 C   0  0  0  0  0  0  0  0  0  0  0  0
  153.4833  135.0470  182.6249 C   0  0  0  0  0  0  0  0  0  0  0  0
  154.5096  134.2668  182.1876 C   0  0  0  0  0  0  0  0  0  0  0  0
  154.2322  133.3352  181.1943 C   0  0  0  0  0  0  0  0  0  0  0  0
  152.9682  133.1896  180.6561 C   0  0  0  0  0  0  0  0  0  0  0  0
  151.9408  133.9847  181.1074 C   0  0  0  0  0  0  0  0  0  0  0  0
  152.2224  134.9046  182.0907 C   0  0  0  0  0  0  0  0  0  0  0  0
 23 24  1  0  0  0
 24 25  1  0  0  0
 25 26  2  0  0  0
 25  1  1  0  0  0
  1  2  1  0  0  0
  2  3  1  0  0  0
  3  4  1  0  0  0
  4  5  2  0  0  0
  4  6  1  0  0  0
  6  7  1  0  0  0
  7  8  1  0  0  0
  8  9  1  0  0  0
  9 10  1  0  0  0
 10 11  2  0  0  0
 10 12  1  0  0  0
 12 13  1  0  0  0
 13 14  1  0  0  0
 14 28  1  0  0  0
 28 29  2  0  0  0
 28 30  1  0  0  0
 14 15  1  0  0  0
 15 16  1  0  0  0
 16 32  1  0  0  0
 32 33  1  0  0  0
 33 34  1  0  0  0
 34 35  2  0  0  0
 35 36  1  0  0  0
 36 37  2  0  0  0
 37 38  1  0  0  0
 38 39  2  0  0  0
 16 17  1  0  0  0
 17 18  2  0  0  0
 17 19  1  0  0  0
 19  1  1  0  0  0
 39 34  1  0  0  0
 24 27  1  0  0  0
  9 20  1  0  0  0
 30 31  1  0  0  0
 15 21  1  0  0  0
 19 22  1  0  0  0
M  END
> <minimizedAffinity>
-4.90749

> <CNNscore>
0.2518641949

> <CNNaffinity>
4.8990488052

> <CNN_VS>
1.2338949442

> <CNNaffinity_variance>
0.8615695238

$$$$
[H]OC(=O)[C@]1([H])N([H])[C@@]([H])(C([H])([H])C([H])([H])c2c([H])c([H])c([H])c([H])c2[H])C(=O)N([H])[C@]([H])(C(=O)N([H])C([H])([H])[H])C([H])([H])C([H])([H])C(=O)OC([H])([H])C([H])([H])N([H])C(=O)C([H])([H])C1([H])[H]


 39 40  0  0  0  0  0  0  0  0999 V2000
  151.1296  136.5538  184.7182 C   0  0  0  0  0  0  0  0  0  0  0  0
  149.8804  136.4286  185.5265 C   0  0  0  0  0  0  0  0  0  0  0  0
  148.6452  137.0476  184.9729 C   0  0  0  0  0  0  0  0  0  0  0  0
  147.8728  137.7296  186.0753 C   0  0  0  0  0  0  0  0  0  0  0  0
  148.0599  138.9886  186.1944 O   0  0  0  0  0  0  0  0  0  0  0  0
  147.0154  137.0863  186.9198 O   0  0  0  0  0  0  0  0  0  0  0  0
  147.2122  135.9481  187.6828 C   0  0  0  0  0  0  0  0  0  0  0  0
  147.6714  136.2248  189.1147 C   0  0  0  0  0  0  0  0  0  0  0  0
  148.2487  135.0192  189.6418 N   0  0  0  0  0  0  0  0  0  0  0  0
  149.2437  134.9208  190.6397 C   0  0  0  0  0  0  0  0  0  0  0  0
  149.1142  134.0908  191.6052 O   0  0  0  0  0  0  0  0  0  0  0  0
  150.4945  135.7395  190.6693 C   0  0  0  0  0  0  0  0  0  0  0  0
  151.0750  135.9230  189.3053 C   0  0  0  0  0  0  0  0  0  0  0  0
  152.0609  134.8595  188.8703 C   0  0  0  0  0  0  0  0  0  0  0  0
  152.5560  135.2177  187.5731 N   0  0  0  0  0  0  0  0  0  0  0  0
  153.2851  136.3943  187.3889 C   0  0  0  0  0  0  0  0  0  0  0  0
  152.6344  137.4761  186.5985 C   0  0  0  0  0  0  0  0  0  0  0  0
  152.5533  138.6024  187.2046 O   0  0  0  0  0  0  0  0  0  0  0  0
  152.1129  137.4436  185.3177 N   0  0  0  0  0  0  0  0  0  0  0  0
  147.8946  134.0987  189.2482 H   0  0  0  0  0  0  0  0  0  0  0  0
  152.7881  134.3778  187.0480 H   0  0  0  0  0  0  0  0  0  0  0  0
  152.4725  138.1854  184.6274 H   0  0  0  0  0  0  0  0  0  0  0  0
  150.8404  138.5148  181.4328 C   0  0  0  0  0  0  0  0  0  0  0  0
  151.1152  138.1638  182.8029 N   0  0  0  0  0  0  0  0  0  0  0  0
  150.8392  136.8877  183.3138 C   0  0  0  0  0  0  0  0  0  0  0  0
  150.3419  136.0285  182.5679 O   0  0  0  0  0  0  0  0  0  0  0  0
  151.5312  138.8821  183.4317 H   0  0  0  0  0  0  0  0  0  0  0  0
  153.0614  134.5550  189.8907 C   0  0  0  0  0  0  0  0  0  0  0  0
  153.3402  135.2433  190.8990 O   0  0  0  0  0  0  0  0  0  0  0  0
  153.7911  133.3640  189.7208 O   0  0  0  0  0  0  0  0  0  0  0  0
  154.6944  133.4732  189.2795 H   0  0  0  0  0  0  0  0  0  0  0  0
  154.7026  136.1586  186.8543 C   0  0  0  0  0  0  0  0  0  0  0  0
  155.6314  137.2531  187.2558 C   0  0  0  0  0  0  0  0  0  0  0  0
  155.8242  137.2999  188.7401 C   0  0  0  0  0  0  0  0  0  0  0  0
  155.4260  138.3524  189.5061 C   0  0  0  0  0  0  0  0  0  0  0  0
  155.6577  138.2771  190.8743 C   0  0  0  0  0  0  0  0  0  0  0  0
  156.2686  137.1834  191.4568 C   0  0  0  0  0  0  0  0  0  0  0  0
  156.6659  136.1272  190.6705 C   0  0  0  0  0  0  0  0  0  0  0  0
  156.4334  136.2084  189.3171 C   0  0  0  0  0  0  0  0  0  0  0  0
 23 24  1  0  0  0
 24 25  1  0  0  0
 25 26  2  0  0  0
 25  1  1  0  0  0
  1  2  1  0  0  0
  2  3  1  0  0  0
  3  4  1  0  0  0
  4  5  2  0  0  0
  4  6  1  0  0  0
  6  7  1  0  0  0
  7  8  1  0  0  0
  8  9  1  0  0  0
  9 10  1  0  0  0
 10 11  2  0  0  0
 10 12  1  0  0  0
 12 13  1  0  0  0
 13 14  1  0  0  0
 14 28  1  0  0  0
 28 29  2  0  0  0
 28 30  1  0  0  0
 14 15  1  0  0  0
 15 16  1  0  0  0
 16 32  1  0  0  0
 32 33  1  0  0  0
 33 34  1  0  0  0
 34 35  2  0  0  0
 35 36  1  0  0  0
 36 37  2  0  0  0
 37 38  1  0  0  0
 38 39  2  0  0  0
 16 17  1  0  0  0
 17 18  2  0  0  0
 17 19  1  0  0  0
 19  1  1  0  0  0
 39 34  1  0  0  0
 24 27  1  0  0  0
  9 20  1  0  0  0
 30 31  1  0  0  0
 15 21  1  0  0  0
 19 22  1  0  0  0
M  END
> <minimizedAffinity>
-6.25792

> <CNNscore>
0.2177954018

> <CNNaffinity>
4.8211627007

> <CNN_VS>
1.0500270128

> <CNNaffinity_variance>
0.2246454507

$$$$
[H]c1nc2n(n1)C([H])(c1sc([H])c([H])c1[H])C([H])([H])C([H])(c1c([H])c([H])c(Cl)c(Cl)c1[H])N2[H]


 23 26  0  0  0  0  0  0  0  0999 V2000
  155.7573  140.6707  183.0403 C   0  0  0  0  0  0  0  0  0  0  0  0
  155.7129  142.1515  182.8884 C   0  0  0  0  0  0  0  0  0  0  0  0
  157.0572  142.7716  182.9986 C   0  0  0  0  0  0  0  0  0  0  0  0
  157.9216  142.1671  183.9620 N   0  0  0  0  0  0  0  0  0  0  0  0
  159.1071  142.5385  184.3997 N   0  0  0  0  0  0  0  0  0  0  0  0
  159.5690  141.6765  185.3143 C   0  0  0  0  0  0  0  0  0  0  0  0
  158.6113  140.7402  185.4309 N   0  0  0  0  0  0  0  0  0  0  0  0
  157.5848  141.0135  184.6122 C   0  0  0  0  0  0  0  0  0  0  0  0
  156.3432  140.3791  184.3338 N   0  0  0  0  0  0  0  0  0  0  0  0
  155.9435  139.7608  185.0584 H   0  0  0  0  0  0  0  0  0  0  0  0
  150.4142  138.0911  182.1774 Cl  0  0  0  0  0  0  0  0  0  0  0  0
  151.9746  138.8314  182.4431 C   0  0  0  0  0  0  0  0  0  0  0  0
  152.7769  138.3821  183.4658 C   0  0  0  0  0  0  0  0  0  0  0  0
  154.0225  138.9943  183.6552 C   0  0  0  0  0  0  0  0  0  0  0  0
  154.4530  140.0165  182.8551 C   0  0  0  0  0  0  0  0  0  0  0  0
  153.6325  140.4494  181.8375 C   0  0  0  0  0  0  0  0  0  0  0  0
  152.3801  139.8596  181.6195 C   0  0  0  0  0  0  0  0  0  0  0  0
  151.3263  140.3993  180.3303 Cl  0  0  0  0  0  0  0  0  0  0  0  0
  157.7770  142.8238  181.6719 C   0  0  0  0  0  0  0  0  0  0  0  0
  157.7127  141.9147  180.6548 C   0  0  0  0  0  0  0  0  0  0  0  0
  158.4396  142.1577  179.5583 C   0  0  0  0  0  0  0  0  0  0  0  0
  159.1923  143.3038  179.5458 C   0  0  0  0  0  0  0  0  0  0  0  0
  158.8560  143.9983  181.0656 S   0  0  0  0  0  0  0  0  0  0  0  0
 11 12  1  0  0  0
 12 13  2  0  0  0
 13 14  1  0  0  0
 14 15  2  0  0  0
 15  1  1  0  0  0
  1  2  1  0  0  0
  2  3  1  0  0  0
  3 19  1  0  0  0
 19 20  2  0  0  0
 20 21  1  0  0  0
 21 22  2  0  0  0
 22 23  1  0  0  0
  3  4  1  0  0  0
  4  5  1  0  0  0
  5  6  2  0  0  0
  6  7  1  0  0  0
  7  8  2  0  0  0
  8  9  1  0  0  0
 15 16  1  0  0  0
 16 17  2  0  0  0
 17 18  1  0  0  0
 17 12  1  0  0  0
  9  1  1  0  0  0
 23 19  1  0  0  0
  8  4  1  0  0  0
  9 10  1  0  0  0
M  END
> <minimizedAffinity>
-7.79836

> <CNNscore>
0.5478307605

> <CNNaffinity>
6.6270651817

> <CNN_VS>
3.6305100918

> <CNNaffinity_variance>
0.1684014350

$$$$
[H]c1nc2n(n1)C([H])(c1sc([H])c([H])c1[H])C([H])([H])C([H])(c1c([H])c([H])c(Cl)c(Cl)c1[H])N2[H]


 23 26  0  0  0  0  0  0  0  0999 V2000
  154.0338  140.1566  182.1974 C   0  0  0  0  0  0  0  0  0  0  0  0
  154.2301  141.6020  182.4975 C   0  0  0  0  0  0  0  0  0  0  0  0
  155.5662  141.8817  183.0811 C   0  0  0  0  0  0  0  0  0  0  0  0
  156.0520  140.8822  183.9788 N   0  0  0  0  0  0  0  0  0  0  0  0
  157.1155  140.8745  184.7559 N   0  0  0  0  0  0  0  0  0  0  0  0
  157.1958  139.7277  185.4423 C   0  0  0  0  0  0  0  0  0  0  0  0
  156.1256  139.0111  185.0570 N   0  0  0  0  0  0  0  0  0  0  0  0
  155.4021  139.6936  184.1574 C   0  0  0  0  0  0  0  0  0  0  0  0
  154.2072  139.4232  183.4359 N   0  0  0  0  0  0  0  0  0  0  0  0
  153.5490  138.7330  183.8326 H   0  0  0  0  0  0  0  0  0  0  0  0
  148.7573  138.8817  179.6515 Cl  0  0  0  0  0  0  0  0  0  0  0  0
  150.3014  139.2597  180.3772 C   0  0  0  0  0  0  0  0  0  0  0  0
  151.2995  139.8106  179.6079 C   0  0  0  0  0  0  0  0  0  0  0  0
  152.5267  140.1033  180.2165 C   0  0  0  0  0  0  0  0  0  0  0  0
  152.7514  139.8561  181.5427 C   0  0  0  0  0  0  0  0  0  0  0  0
  151.7371  139.3042  182.2928 C   0  0  0  0  0  0  0  0  0  0  0  0
  150.4967  138.9989  181.7164 C   0  0  0  0  0  0  0  0  0  0  0  0
  149.1983  138.2970  182.6573 Cl  0  0  0  0  0  0  0  0  0  0  0  0
  156.6154  142.1295  182.0234 C   0  0  0  0  0  0  0  0  0  0  0  0
  156.9855  143.3285  181.4843 C   0  0  0  0  0  0  0  0  0  0  0  0
  157.9438  143.3199  180.5508 C   0  0  0  0  0  0  0  0  0  0  0  0
  158.4775  142.1034  180.2107 C   0  0  0  0  0  0  0  0  0  0  0  0
  157.6208  141.0182  181.2076 S   0  0  0  0  0  0  0  0  0  0  0  0
 11 12  1  0  0  0
 12 13  2  0  0  0
 13 14  1  0  0  0
 14 15  2  0  0  0
 15  1  1  0  0  0
  1  2  1  0  0  0
  2  3  1  0  0  0
  3 19  1  0  0  0
 19 20  2  0  0  0
 20 21  1  0  0  0
 21 22  2  0  0  0
 22 23  1  0  0  0
  3  4  1  0  0  0
  4  5  1  0  0  0
  5  6  2  0  0  0
  6  7  1  0  0  0
  7  8  2  0  0  0
  8  9  1  0  0  0
 15 16  1  0  0  0
 16 17  2  0  0  0
 17 18  1  0  0  0
 17 12  1  0  0  0
  9  1  1  0  0  0
 23 19  1  0  0  0
  8  4  1  0  0  0
  9 10  1  0  0  0
M  END
> <minimizedAffinity>
-6.99795

> <CNNscore>
0.4603869617

> <CNNaffinity>
6.0514802933

> <CNN_VS>
2.7860226631

> <CNNaffinity_variance>
0.0591793582

$$$$
[H]c1nc2n(n1)C([H])(c1sc([H])c([H])c1[H])C([H])([H])C([H])(c1c([H])c([H])c(Cl)c(Cl)c1[H])N2[H]


 23 26  0  0  0  0  0  0  0  0999 V2000
  154.6561  137.5249  186.1340 C   0  0  0  0  0  0  0  0  0  0  0  0
  153.2060  137.2348  185.9583 C   0  0  0  0  0  0  0  0  0  0  0  0
  152.7491  137.4615  184.5641 C   0  0  0  0  0  0  0  0  0  0  0  0
  153.3496  138.5796  183.9083 N   0  0  0  0  0  0  0  0  0  0  0  0
  153.0833  139.1316  182.7425 N   0  0  0  0  0  0  0  0  0  0  0  0
  153.8931  140.1728  182.5121 C   0  0  0  0  0  0  0  0  0  0  0  0
  154.6855  140.2489  183.5954 N   0  0  0  0  0  0  0  0  0  0  0  0
  154.3763  139.2827  184.4726 C   0  0  0  0  0  0  0  0  0  0  0  0
  154.8781  138.9046  185.7481 N   0  0  0  0  0  0  0  0  0  0  0  0
  155.3611  139.6244  186.3100 H   0  0  0  0  0  0  0  0  0  0  0  0
  156.6497  136.4533  191.6861 Cl  0  0  0  0  0  0  0  0  0  0  0  0
  156.0766  136.7498  190.0621 C   0  0  0  0  0  0  0  0  0  0  0  0
  156.3706  135.8536  189.0613 C   0  0  0  0  0  0  0  0  0  0  0  0
  155.8980  136.1171  187.7693 C   0  0  0  0  0  0  0  0  0  0  0  0
  155.1596  137.2326  187.4847 C   0  0  0  0  0  0  0  0  0  0  0  0
  154.8777  138.1156  188.5031 C   0  0  0  0  0  0  0  0  0  0  0  0
  155.3346  137.8832  189.8074 C   0  0  0  0  0  0  0  0  0  0  0  0
  154.9843  138.9966  191.1118 Cl  0  0  0  0  0  0  0  0  0  0  0  0
  152.9287  136.2399  183.6943 C   0  0  0  0  0  0  0  0  0  0  0  0
  152.0535  135.7393  182.7731 C   0  0  0  0  0  0  0  0  0  0  0  0
  152.4154  134.6358  182.1088 C   0  0  0  0  0  0  0  0  0  0  0  0
  153.6399  134.0964  182.4086 C   0  0  0  0  0  0  0  0  0  0  0  0
  154.2390  135.1505  183.6066 S   0  0  0  0  0  0  0  0  0  0  0  0
 11 12  1  0  0  0
 12 13  2  0  0  0
 13 14  1  0  0  0
 14 15  2  0  0  0
 15  1  1  0  0  0
  1  2  1  0  0  0
  2  3  1  0  0  0
  3 19  1  0  0  0
 19 20  2  0  0  0
 20 21  1  0  0  0
 21 22  2  0  0  0
 22 23  1  0  0  0
  3  4  1  0  0  0
  4  5  1  0  0  0
  5  6  2  0  0  0
  6  7  1  0  0  0
  7  8  2  0  0  0
  8  9  1  0  0  0
 15 16  1  0  0  0
 16 17  2  0  0  0
 17 18  1  0  0  0
 17 12  1  0  0  0
  9  1  1  0  0  0
 23 19  1  0  0  0
  8  4  1  0  0  0
  9 10  1  0  0  0
M  END
> <minimizedAffinity>
-5.60770

> <CNNscore>
0.4091012478

> <CNNaffinity>
5.4300394058

> <CNN_VS>
2.2214357853

> <CNNaffinity_variance>
0.0511505827

$$$$
[H]c1nc2n(n1)C([H])(c1sc([H])c([H])c1[H])C([H])([H])C([H])(c1c([H])c([H])c(Cl)c(Cl)c1[H])N2[H]


 23 26  0  0  0  0  0  0  0  0999 V2000
  152.3153  136.7498  183.2433 C   0  0  0  0  0  0  0  0  0  0  0  0
  152.0853  136.2026  184.6092 C   0  0  0  0  0  0  0  0  0  0  0  0
  153.2793  135.5026  185.1460 C   0  0  0  0  0  0  0  0  0  0  0  0
  154.0236  134.7563  184.1817 N   0  0  0  0  0  0  0  0  0  0  0  0
  155.0373  133.9297  184.3368 N   0  0  0  0  0  0  0  0  0  0  0  0
  155.4375  133.4399  183.1566 C   0  0  0  0  0  0  0  0  0  0  0  0
  154.6220  134.0015  182.2474 N   0  0  0  0  0  0  0  0  0  0  0  0
  153.7411  134.8164  182.8463 C   0  0  0  0  0  0  0  0  0  0  0  0
  152.6808  135.6424  182.3821 N   0  0  0  0  0  0  0  0  0  0  0  0
  152.2452  135.4055  181.4760 H   0  0  0  0  0  0  0  0  0  0  0  0
  147.7693  139.9417  180.9863 Cl  0  0  0  0  0  0  0  0  0  0  0  0
  149.0829  139.0048  181.6573 C   0  0  0  0  0  0  0  0  0  0  0  0
  148.8661  138.2266  182.7704 C   0  0  0  0  0  0  0  0  0  0  0  0
  149.9375  137.4863  183.2863 C   0  0  0  0  0  0  0  0  0  0  0  0
  151.1794  137.5201  182.7144 C   0  0  0  0  0  0  0  0  0  0  0  0
  151.3725  138.3065  181.6006 C   0  0  0  0  0  0  0  0  0  0  0  0
  150.3230  139.0600  181.0580 C   0  0  0  0  0  0  0  0  0  0  0  0
  150.5535  140.0641  179.6429 Cl  0  0  0  0  0  0  0  0  0  0  0  0
  154.2227  136.4404  185.8613 C   0  0  0  0  0  0  0  0  0  0  0  0
  154.6479  137.6694  185.4445 C   0  0  0  0  0  0  0  0  0  0  0  0
  155.4925  138.3365  186.2393 C   0  0  0  0  0  0  0  0  0  0  0  0
  155.8629  137.7289  187.4114 C   0  0  0  0  0  0  0  0  0  0  0  0
  155.0178  136.2497  187.3588 S   0  0  0  0  0  0  0  0  0  0  0  0
 11 12  1  0  0  0
 12 13  2  0  0  0
 13 14  1  0  0  0
 14 15  2  0  0  0
 15  1  1  0  0  0
  1  2  1  0  0  0
  2  3  1  0  0  0
  3 19  1  0  0  0
 19 20  2  0  0  0
 20 21  1  0  0  0
 21 22  2  0  0  0
 22 23  1  0  0  0
  3  4  1  0  0  0
  4  5  1  0  0  0
  5  6  2  0  0  0
  6  7  1  0  0  0
  7  8  2  0  0  0
  8  9  1  0  0  0
 15 16  1  0  0  0
 16 17  2  0  0  0
 17 18  1  0  0  0
 17 12  1  0  0  0
  9  1  1  0  0  0
 23 19  1  0  0  0
  8  4  1  0  0  0
  9 10  1  0  0  0
M  END
> <minimizedAffinity>
-4.74785

> <CNNscore>
0.4087075293

> <CNNaffinity>
5.2503523827

> <CNN_VS>
2.1458585262

> <CNNaffinity_variance>
0.1403848082

$$$$
[H]c1nc2n(n1)C([H])(c1sc([H])c([H])c1[H])C([H])([H])C([H])(c1c([H])c([H])c(Cl)c(Cl)c1[H])N2[H]


 23 26  0  0  0  0  0  0  0  0999 V2000
  157.1131  140.5647  183.4974 C   0  0  0  0  0  0  0  0  0  0  0  0
  158.4420  139.8992  183.4030 C   0  0  0  0  0  0  0  0  0  0  0  0
  159.4324  140.7177  182.6594 C   0  0  0  0  0  0  0  0  0  0  0  0
  158.9023  141.4397  181.5465 N   0  0  0  0  0  0  0  0  0  0  0  0
  159.5120  142.1420  180.6138 N   0  0  0  0  0  0  0  0  0  0  0  0
  158.6276  142.6561  179.7499 C   0  0  0  0  0  0  0  0  0  0  0  0
  157.4261  142.2408  180.1871 N   0  0  0  0  0  0  0  0  0  0  0  0
  157.5611  141.4906  181.2905 C   0  0  0  0  0  0  0  0  0  0  0  0
  156.6495  140.8141  182.1467 N   0  0  0  0  0  0  0  0  0  0  0  0
  155.7299  140.5474  181.7590 H   0  0  0  0  0  0  0  0  0  0  0  0
  153.2156  137.4777  186.8482 Cl  0  0  0  0  0  0  0  0  0  0  0  0
  154.3376  138.3825  185.8603 C   0  0  0  0  0  0  0  0  0  0  0  0
  153.8814  139.0499  184.7477 C   0  0  0  0  0  0  0  0  0  0  0  0
  154.8035  139.7670  183.9747 C   0  0  0  0  0  0  0  0  0  0  0  0
  156.1314  139.8173  184.2981 C   0  0  0  0  0  0  0  0  0  0  0  0
  156.5649  139.1412  185.4167 C   0  0  0  0  0  0  0  0  0  0  0  0
  155.6698  138.4139  186.2128 C   0  0  0  0  0  0  0  0  0  0  0  0
  156.2062  137.5495  187.6372 Cl  0  0  0  0  0  0  0  0  0  0  0  0
  160.1670  141.6862  183.5557 C   0  0  0  0  0  0  0  0  0  0  0  0
  161.3558  141.4870  184.1976 C   0  0  0  0  0  0  0  0  0  0  0  0
  161.8301  142.4865  184.9499 C   0  0  0  0  0  0  0  0  0  0  0  0
  161.0807  143.6330  185.0147 C   0  0  0  0  0  0  0  0  0  0  0  0
  159.7426  143.2715  184.0228 S   0  0  0  0  0  0  0  0  0  0  0  0
 11 12  1  0  0  0
 12 13  2  0  0  0
 13 14  1  0  0  0
 14 15  2  0  0  0
 15  1  1  0  0  0
  1  2  1  0  0  0
  2  3  1  0  0  0
  3 19  1  0  0  0
 19 20  2  0  0  0
 20 21  1  0  0  0
 21 22  2  0  0  0
 22 23  1  0  0  0
  3  4  1  0  0  0
  4  5  1  0  0  0
  5  6  2  0  0  0
  6  7  1  0  0  0
  7  8  2  0  0  0
  8  9  1  0  0  0
 15 16  1  0  0  0
 16 17  2  0  0  0
 17 18  1  0  0  0
 17 12  1  0  0  0
  9  1  1  0  0  0
 23 19  1  0  0  0
  8  4  1  0  0  0
  9 10  1  0  0  0
M  END
> <minimizedAffinity>
-8.32339

> <CNNscore>
0.3812168837

> <CNNaffinity>
6.4164910316

> <CNN_VS>
2.4460747242

> <CNNaffinity_variance>
0.1259508878

$$$$
[H]c1nc2n(n1)C([H])(c1sc([H])c([H])c1[H])C([H])([H])C([H])(c1c([H])c([H])c(Cl)c(Cl)c1[H])N2[H]


 23 26  0  0  0  0  0  0  0  0999 V2000
  154.5219  138.2034  186.3751 C   0  0  0  0  0  0  0  0  0  0  0  0
  155.5494  138.1912  185.2973 C   0  0  0  0  0  0  0  0  0  0  0  0
  155.0129  138.6726  183.9994 C   0  0  0  0  0  0  0  0  0  0  0  0
  153.6670  138.2819  183.7226 N   0  0  0  0  0  0  0  0  0  0  0  0
  152.9430  138.4218  182.6312 N   0  0  0  0  0  0  0  0  0  0  0  0
  151.7189  137.9069  182.8021 C   0  0  0  0  0  0  0  0  0  0  0  0
  151.7083  137.4342  184.0605 N   0  0  0  0  0  0  0  0  0  0  0  0
  152.8918  137.6496  184.6533 C   0  0  0  0  0  0  0  0  0  0  0  0
  153.4210  137.3655  185.9422 N   0  0  0  0  0  0  0  0  0  0  0  0
  152.9949  136.5932  186.4798 H   0  0  0  0  0  0  0  0  0  0  0  0
  156.5725  136.7087  191.8074 Cl  0  0  0  0  0  0  0  0  0  0  0  0
  155.9838  137.1297  190.2168 C   0  0  0  0  0  0  0  0  0  0  0  0
  156.3385  136.3608  189.1331 C   0  0  0  0  0  0  0  0  0  0  0  0
  155.8517  136.7221  187.8704 C   0  0  0  0  0  0  0  0  0  0  0  0
  155.0414  137.8096  187.6937 C   0  0  0  0  0  0  0  0  0  0  0  0
  154.6996  138.5644  188.7935 C   0  0  0  0  0  0  0  0  0  0  0  0
  155.1686  138.2317  190.0715 C   0  0  0  0  0  0  0  0  0  0  0  0
  154.7428  139.1817  191.4787 Cl  0  0  0  0  0  0  0  0  0  0  0  0
  155.1184  140.1722  183.8541 C   0  0  0  0  0  0  0  0  0  0  0  0
  154.1005  141.0627  183.6643 C   0  0  0  0  0  0  0  0  0  0  0  0
  154.4203  142.3575  183.5589 C   0  0  0  0  0  0  0  0  0  0  0  0
  155.7486  142.6851  183.6505 C   0  0  0  0  0  0  0  0  0  0  0  0
  156.5002  141.1727  183.8803 S   0  0  0  0  0  0  0  0  0  0  0  0
 11 12  1  0  0  0
 12 13  2  0  0  0
 13 14  1  0  0  0
 14 15  2  0  0  0
 15  1  1  0  0  0
  1  2  1  0  0  0
  2  3  1  0  0  0
  3 19  1  0  0  0
 19 20  2  0  0  0
 20 21  1  0  0  0
 21 22  2  0  0  0
 22 23  1  0  0  0
  3  4  1  0  0  0
  4  5  1  0  0  0
  5  6  2  0  0  0
  6  7  1  0  0  0
  7  8  2  0  0  0
  8  9  1  0  0  0
 15 16  1  0  0  0
 16 17  2  0  0  0
 17 18  1  0  0  0
 17 12  1  0  0  0
  9  1  1  0  0  0
 23 19  1  0  0  0
  8  4  1  0  0  0
  9 10  1  0  0  0
M  END
> <minimizedAffinity>
-6.43509

> <CNNscore>
0.3661954999

> <CNNaffinity>
5.6421632767

> <CNN_VS>
2.0661346912

> <CNNaffinity_variance>
0.0358526744

$$$$
[H]c1nc2n(n1)C([H])(c1sc([H])c([H])c1[H])C([H])([H])C([H])(c1c([H])c([H])c(Cl)c(Cl)c1[H])N2[H]


 23 26  0  0  0  0  0  0  0  0999 V2000
  153.3888  137.9237  186.1274 C   0  0  0  0  0  0  0  0  0  0  0  0
  154.1824  137.5549  184.9224 C   0  0  0  0  0  0  0  0  0  0  0  0
  153.4101  137.7187  183.6652 C   0  0  0  0  0  0  0  0  0  0  0  0
  152.0281  137.3693  183.7581 N   0  0  0  0  0  0  0  0  0  0  0  0
  151.1057  137.2721  182.8228 N   0  0  0  0  0  0  0  0  0  0  0  0
  149.9289  136.9112  183.3498 C   0  0  0  0  0  0  0  0  0  0  0  0
  150.1574  136.7857  184.6687 N   0  0  0  0  0  0  0  0  0  0  0  0
  151.4391  137.0608  184.9518 C   0  0  0  0  0  0  0  0  0  0  0  0
  152.2065  137.0851  186.1485 N   0  0  0  0  0  0  0  0  0  0  0  0
  151.8789  136.5134  186.9441 H   0  0  0  0  0  0  0  0  0  0  0  0
  156.5764  137.5284  191.1902 Cl  0  0  0  0  0  0  0  0  0  0  0  0
  155.6365  137.6565  189.7226 C   0  0  0  0  0  0  0  0  0  0  0  0
  154.5718  138.5254  189.6687 C   0  0  0  0  0  0  0  0  0  0  0  0
  153.8366  138.6071  188.4792 C   0  0  0  0  0  0  0  0  0  0  0  0
  154.1503  137.8508  187.3837 C   0  0  0  0  0  0  0  0  0  0  0  0
  155.2206  136.9879  187.4613 C   0  0  0  0  0  0  0  0  0  0  0  0
  155.9781  136.8809  188.6356 C   0  0  0  0  0  0  0  0  0  0  0  0
  157.3410  135.7884  188.7491 Cl  0  0  0  0  0  0  0  0  0  0  0  0
  153.5165  139.1163  183.1027 C   0  0  0  0  0  0  0  0  0  0  0  0
  152.8024  139.6534  182.0700 C   0  0  0  0  0  0  0  0  0  0  0  0
  153.0599  140.9217  181.7308 C   0  0  0  0  0  0  0  0  0  0  0  0
  154.0233  141.5804  182.4508 C   0  0  0  0  0  0  0  0  0  0  0  0
  154.5326  140.4036  183.5737 S   0  0  0  0  0  0  0  0  0  0  0  0
 11 12  1  0  0  0
 12 13  2  0  0  0
 13 14  1  0  0  0
 14 15  2  0  0  0
 15  1  1  0  0  0
  1  2  1  0  0  0
  2  3  1  0  0  0
  3 19  1  0  0  0
 19 20  2  0  0  0
 20 21  1  0  0  0
 21 22  2  0  0  0
 22 23  1  0  0  0
  3  4  1  0  0  0
  4  5  1  0  0  0
  5  6  2  0  0  0
  6  7  1  0  0  0
  7  8  2  0  0  0
  8  9  1  0  0  0
 15 16  1  0  0  0
 16 17  2  0  0  0
 17 18  1  0  0  0
 17 12  1  0  0  0
  9  1  1  0  0  0
 23 19  1  0  0  0
  8  4  1  0  0  0
  9 10  1  0  0  0
M  END
> <minimizedAffinity>
-6.72198

> <CNNscore>
0.3179019392

> <CNNaffinity>
5.3641805649

> <CNN_VS>
1.7052834034

> <CNNaffinity_variance>
0.0999886543

$$$$
[H]c1nc2n(n1)C([H])(c1sc([H])c([H])c1[H])C([H])([H])C([H])(c1c([H])c([H])c(Cl)c(Cl)c1[H])N2[H]


 23 26  0  0  0  0  0  0  0  0999 V2000
  156.9937  140.9918  184.2563 C   0  0  0  0  0  0  0  0  0  0  0  0
  158.3250  140.4840  183.8232 C   0  0  0  0  0  0  0  0  0  0  0  0
  159.2834  141.5816  183.5388 C   0  0  0  0  0  0  0  0  0  0  0  0
  158.7110  142.7351  182.9204 N   0  0  0  0  0  0  0  0  0  0  0  0
  159.2838  143.8121  182.4234 N   0  0  0  0  0  0  0  0  0  0  0  0
  158.3672  144.6557  181.9324 C   0  0  0  0  0  0  0  0  0  0  0  0
  157.1843  144.0537  182.1459 N   0  0  0  0  0  0  0  0  0  0  0  0
  157.3618  142.8706  182.7520 C   0  0  0  0  0  0  0  0  0  0  0  0
  156.4846  141.8457  183.2012 N   0  0  0  0  0  0  0  0  0  0  0  0
  155.5556  141.7753  182.7552 H   0  0  0  0  0  0  0  0  0  0  0  0
  153.2179  136.6183  185.8576 Cl  0  0  0  0  0  0  0  0  0  0  0  0
  154.3064  137.8984  185.3777 C   0  0  0  0  0  0  0  0  0  0  0  0
  153.9598  138.7358  184.3432 C   0  0  0  0  0  0  0  0  0  0  0  0
  154.8518  139.7530  183.9805 C   0  0  0  0  0  0  0  0  0  0  0  0
  156.0453  139.9295  184.6246 C   0  0  0  0  0  0  0  0  0  0  0  0
  156.3707  139.0789  185.6574 C   0  0  0  0  0  0  0  0  0  0  0  0
  155.5019  138.0505  186.0467 C   0  0  0  0  0  0  0  0  0  0  0  0
  155.9019  136.9615  187.3574 Cl  0  0  0  0  0  0  0  0  0  0  0  0
  160.0373  142.0206  184.7717 C   0  0  0  0  0  0  0  0  0  0  0  0
  159.5422  142.1878  186.0334 C   0  0  0  0  0  0  0  0  0  0  0  0
  160.3922  142.5884  186.9857 C   0  0  0  0  0  0  0  0  0  0  0  0
  161.6955  142.7989  186.6150 C   0  0  0  0  0  0  0  0  0  0  0  0
  161.6841  142.4294  184.9512 S   0  0  0  0  0  0  0  0  0  0  0  0
 11 12  1  0  0  0
 12 13  2  0  0  0
 13 14  1  0  0  0
 14 15  2  0  0  0
 15  1  1  0  0  0
  1  2  1  0  0  0
  2  3  1  0  0  0
  3 19  1  0  0  0
 19 20  2  0  0  0
 20 21  1  0  0  0
 21 22  2  0  0  0
 22 23  1  0  0  0
  3  4  1  0  0  0
  4  5  1  0  0  0
  5  6  2  0  0  0
  6  7  1  0  0  0
  7  8  2  0  0  0
  8  9  1  0  0  0
 15 16  1  0  0  0
 16 17  2  0  0  0
 17 18  1  0  0  0
 17 12  1  0  0  0
  9  1  1  0  0  0
 23 19  1  0  0  0
  8  4  1  0  0  0
  9 10  1  0  0  0
M  END
> <minimizedAffinity>
-8.14426

> <CNNscore>
0.3158620894

> <CNNaffinity>
6.4597921371

> <CNN_VS>
2.0404033661

> <CNNaffinity_variance>
0.0092494683

$$$$
[H]c1nc2n(n1)C([H])(c1sc([H])c([H])c1[H])C([H])([H])C([H])(c1c([H])c([H])c(Cl)c(Cl)c1[H])N2[H]


 23 26  0  0  0  0  0  0  0  0999 V2000
  155.5787  138.1154  186.1880 C   0  0  0  0  0  0  0  0  0  0  0  0
  154.2179  138.6861  185.9869 C   0  0  0  0  0  0  0  0  0  0  0  0
  153.9827  139.1052  184.5823 C   0  0  0  0  0  0  0  0  0  0  0  0
  155.1146  139.6817  183.9287 N   0  0  0  0  0  0  0  0  0  0  0  0
  155.2172  140.2672  182.7533 N   0  0  0  0  0  0  0  0  0  0  0  0
  156.4744  140.6701  182.5297 C   0  0  0  0  0  0  0  0  0  0  0  0
  157.1608  140.3076  183.6273 N   0  0  0  0  0  0  0  0  0  0  0  0
  156.3527  139.6973  184.5066 C   0  0  0  0  0  0  0  0  0  0  0  0
  156.5413  139.1256  185.7947 N   0  0  0  0  0  0  0  0  0  0  0  0
  157.3388  139.4601  186.3596 H   0  0  0  0  0  0  0  0  0  0  0  0
  156.4811  136.1900  191.7939 Cl  0  0  0  0  0  0  0  0  0  0  0  0
  156.2268  136.7360  190.1535 C   0  0  0  0  0  0  0  0  0  0  0  0
  156.6955  135.9815  189.1036 C   0  0  0  0  0  0  0  0  0  0  0  0
  156.4771  136.4439  187.7995 C   0  0  0  0  0  0  0  0  0  0  0  0
  155.8161  137.6150  187.5506 C   0  0  0  0  0  0  0  0  0  0  0  0
  155.3559  138.3535  188.6178 C   0  0  0  0  0  0  0  0  0  0  0  0
  155.5569  137.9207  189.9355 C   0  0  0  0  0  0  0  0  0  0  0  0
  154.9778  138.8488  191.3020 Cl  0  0  0  0  0  0  0  0  0  0  0  0
  153.4551  137.9782  183.7265 C   0  0  0  0  0  0  0  0  0  0  0  0
  153.8052  136.6592  183.7805 C   0  0  0  0  0  0  0  0  0  0  0  0
  153.2106  135.8236  182.9213 C   0  0  0  0  0  0  0  0  0  0  0  0
  152.2953  136.3622  182.0540 C   0  0  0  0  0  0  0  0  0  0  0  0
  152.2998  138.0148  182.4714 S   0  0  0  0  0  0  0  0  0  0  0  0
 11 12  1  0  0  0
 12 13  2  0  0  0
 13 14  1  0  0  0
 14 15  2  0  0  0
 15  1  1  0  0  0
  1  2  1  0  0  0
  2  3  1  0  0  0
  3 19  1  0  0  0
 19 20  2  0  0  0
 20 21  1  0  0  0
 21 22  2  0  0  0
 22 23  1  0  0  0
  3  4  1  0  0  0
  4  5  1  0  0  0
  5  6  2  0  0  0
  6  7  1  0  0  0
  7  8  2  0  0  0
  8  9  1  0  0  0
 15 16  1  0  0  0
 16 17  2  0  0  0
 17 18  1  0  0  0
 17 12  1  0  0  0
  9  1  1  0  0  0
 23 19  1  0  0  0
  8  4  1  0  0  0
  9 10  1  0  0  0
M  END
> <minimizedAffinity>
-6.62058

> <CNNscore>
0.3009003103

> <CNNaffinity>
5.5183291435

> <CNN_VS>
1.6604669094

> <CNNaffinity_variance>
0.0595615692

$$$$
[H]c1nc([H])c2c(c1[H])c1c([H])nc(N([H])c3nnc(N([H])C([H])([H])C4([H])C([H])([H])N([H])C4([H])[H])c([H])c3[H])nc1n2C1([H])C([H])([H])C([H])([H])C([H])([H])C1([H])[H]


 34 39  0  0  0  0  0  0  0  0999 V2000
  151.4158  138.8759  180.8399 C   0  0  0  0  0  0  0  0  0  0  0  0
  151.8416  138.1513  181.9387 C   0  0  0  0  0  0  0  0  0  0  0  0
  152.8267  138.6641  182.7547 C   0  0  0  0  0  0  0  0  0  0  0  0
  153.4172  138.1632  183.8809 C   0  0  0  0  0  0  0  0  0  0  0  0
  153.2780  136.9962  184.6287 C   0  0  0  0  0  0  0  0  0  0  0  0
  154.0466  136.8252  185.7155 N   0  0  0  0  0  0  0  0  0  0  0  0
  154.9594  137.7271  186.1353 C   0  0  0  0  0  0  0  0  0  0  0  0
  155.1130  138.8601  185.4324 N   0  0  0  0  0  0  0  0  0  0  0  0
  154.3546  139.0675  184.3295 C   0  0  0  0  0  0  0  0  0  0  0  0
  154.3231  140.1199  183.4606 N   0  0  0  0  0  0  0  0  0  0  0  0
  153.4096  139.8880  182.5118 C   0  0  0  0  0  0  0  0  0  0  0  0
  152.9609  140.5836  181.4076 C   0  0  0  0  0  0  0  0  0  0  0  0
  152.0071  140.0732  180.6286 N   0  0  0  0  0  0  0  0  0  0  0  0
  155.1424  141.3078  183.5391 C   0  0  0  0  0  0  0  0  0  0  0  0
  154.3511  142.5800  183.3770 C   0  0  0  0  0  0  0  0  0  0  0  0
  155.2200  143.5390  182.6138 C   0  0  0  0  0  0  0  0  0  0  0  0
  156.3947  142.7785  182.0845 C   0  0  0  0  0  0  0  0  0  0  0  0
  156.2464  141.3430  182.5306 C   0  0  0  0  0  0  0  0  0  0  0  0
  155.7425  137.4634  187.3131 N   0  0  0  0  0  0  0  0  0  0  0  0
  156.7549  137.2410  187.1989 H   0  0  0  0  0  0  0  0  0  0  0  0
  155.1747  137.4991  188.6083 C   0  0  0  0  0  0  0  0  0  0  0  0
  155.7248  138.1981  189.6582 C   0  0  0  0  0  0  0  0  0  0  0  0
  155.1420  138.2120  190.9166 C   0  0  0  0  0  0  0  0  0  0  0  0
  153.9766  137.5068  191.1300 C   0  0  0  0  0  0  0  0  0  0  0  0
  153.4721  136.8338  190.0666 N   0  0  0  0  0  0  0  0  0  0  0  0
  154.0410  136.8313  188.8731 N   0  0  0  0  0  0  0  0  0  0  0  0
  153.3255  137.4772  192.3940 N   0  0  0  0  0  0  0  0  0  0  0  0
  153.3024  138.3240  192.9788 H   0  0  0  0  0  0  0  0  0  0  0  0
  152.6965  136.2612  192.8577 C   0  0  0  0  0  0  0  0  0  0  0  0
  151.3390  136.5312  193.4694 C   0  0  0  0  0  0  0  0  0  0  0  0
  150.2120  136.0924  192.5612 C   0  0  0  0  0  0  0  0  0  0  0  0
  149.5261  135.5108  193.7130 N   0  0  0  0  0  0  0  0  0  0  0  0
  150.8320  135.4319  194.3685 C   0  0  0  0  0  0  0  0  0  0  0  0
  149.1980  134.5345  193.4942 H   0  0  0  0  0  0  0  0  0  0  0  0
  1  2  2  0  0  0
  2  3  1  0  0  0
  3  4  1  0  0  0
  4  5  2  0  0  0
  5  6  1  0  0  0
  6  7  2  0  0  0
  7 19  1  0  0  0
 19 21  1  0  0  0
 21 22  2  0  0  0
 22 23  1  0  0  0
 23 24  2  0  0  0
 24 27  1  0  0  0
 27 29  1  0  0  0
 29 30  1  0  0  0
 30 31  1  0  0  0
 31 32  1  0  0  0
 32 33  1  0  0  0
 24 25  1  0  0  0
 25 26  2  0  0  0
  7  8  1  0  0  0
  8  9  2  0  0  0
  9 10  1  0  0  0
 10 14  1  0  0  0
 14 15  1  0  0  0
 15 16  1  0  0  0
 16 17  1  0  0  0
 17 18  1  0  0  0
 10 11  1  0  0  0
 11 12  1  0  0  0
 12 13  2  0  0  0
 13  1  1  0  0  0
 11  3  2  0  0  0
  9  4  1  0  0  0
 18 14  1  0  0  0
 26 21  1  0  0  0
 33 30  1  0  0  0
 19 20  1  0  0  0
 27 28  1  0  0  0
 32 34  1  0  0  0
M  END
> <minimizedAffinity>
-8.16161

> <CNNscore>
0.2829774618

> <CNNaffinity>
6.0937976837

> <CNN_VS>
1.7244074345

> <CNNaffinity_variance>
0.0398773886

$$$$
[H]c1nc([H])c2c(c1[H])c1c([H])nc(N([H])c3nnc(N([H])C([H])([H])C4([H])C([H])([H])N([H])C4([H])[H])c([H])c3[H])nc1n2C1([H])C([H])([H])C([H])([H])C([H])([H])C1([H])[H]


 34 39  0  0  0  0  0  0  0  0999 V2000
  150.5582  136.3218  193.3507 C   0  0  0  0  0  0  0  0  0  0  0  0
  150.2160  135.9838  192.0537 C   0  0  0  0  0  0  0  0  0  0  0  0
  151.1633  136.0603  191.0557 C   0  0  0  0  0  0  0  0  0  0  0  0
  151.0890  135.7892  189.7182 C   0  0  0  0  0  0  0  0  0  0  0  0
  150.0857  135.3491  188.8578 C   0  0  0  0  0  0  0  0  0  0  0  0
  150.3711  135.1849  187.5568 N   0  0  0  0  0  0  0  0  0  0  0  0
  151.5878  135.4231  187.0223 C   0  0  0  0  0  0  0  0  0  0  0  0
  152.5720  135.8480  187.8299 N   0  0  0  0  0  0  0  0  0  0  0  0
  152.3211  136.0253  189.1490 C   0  0  0  0  0  0  0  0  0  0  0  0
  153.1397  136.4421  190.1587 N   0  0  0  0  0  0  0  0  0  0  0  0
  152.4549  136.4667  191.3071 C   0  0  0  0  0  0  0  0  0  0  0  0
  152.7616  136.7962  192.6116 C   0  0  0  0  0  0  0  0  0  0  0  0
  151.8334  136.7166  193.5652 N   0  0  0  0  0  0  0  0  0  0  0  0
  154.5324  136.8043  190.0250 C   0  0  0  0  0  0  0  0  0  0  0  0
  155.4386  135.9975  190.9188 C   0  0  0  0  0  0  0  0  0  0  0  0
  156.5288  136.9217  191.3819 C   0  0  0  0  0  0  0  0  0  0  0  0
  156.1423  138.3178  191.0074 C   0  0  0  0  0  0  0  0  0  0  0  0
  154.8065  138.2477  190.3055 C   0  0  0  0  0  0  0  0  0  0  0  0
  151.8075  135.2207  185.6149 N   0  0  0  0  0  0  0  0  0  0  0  0
  152.3747  134.3998  185.3121 H   0  0  0  0  0  0  0  0  0  0  0  0
  151.2764  136.1019  184.6439 C   0  0  0  0  0  0  0  0  0  0  0  0
  149.9292  136.2353  184.3973 C   0  0  0  0  0  0  0  0  0  0  0  0
  149.4416  137.1093  183.4372 C   0  0  0  0  0  0  0  0  0  0  0  0
  150.3267  137.8705  182.7037 C   0  0  0  0  0  0  0  0  0  0  0  0
  151.6434  137.7051  182.9816 N   0  0  0  0  0  0  0  0  0  0  0  0
  152.0913  136.8669  183.9009 N   0  0  0  0  0  0  0  0  0  0  0  0
  149.8965  138.7862  181.7042 N   0  0  0  0  0  0  0  0  0  0  0  0
  150.5578  139.4764  181.3223 H   0  0  0  0  0  0  0  0  0  0  0  0
  148.5336  138.7487  181.2243 C   0  0  0  0  0  0  0  0  0  0  0  0
  148.3997  137.8895  179.9858 C   0  0  0  0  0  0  0  0  0  0  0  0
  147.0664  138.0892  179.3002 C   0  0  0  0  0  0  0  0  0  0  0  0
  147.7489  138.1236  178.0087 N   0  0  0  0  0  0  0  0  0  0  0  0
  148.9597  138.5133  178.7323 C   0  0  0  0  0  0  0  0  0  0  0  0
  147.4180  138.9435  177.4370 H   0  0  0  0  0  0  0  0  0  0  0  0
  1  2  2  0  0  0
  2  3  1  0  0  0
  3  4  1  0  0  0
  4  5  2  0  0  0
  5  6  1  0  0  0
  6  7  2  0  0  0
  7 19  1  0  0  0
 19 21  1  0  0  0
 21 22  2  0  0  0
 22 23  1  0  0  0
 23 24  2  0  0  0
 24 27  1  0  0  0
 27 29  1  0  0  0
 29 30  1  0  0  0
 30 31  1  0  0  0
 31 32  1  0  0  0
 32 33  1  0  0  0
 24 25  1  0  0  0
 25 26  2  0  0  0
  7  8  1  0  0  0
  8  9  2  0  0  0
  9 10  1  0  0  0
 10 14  1  0  0  0
 14 15  1  0  0  0
 15 16  1  0  0  0
 16 17  1  0  0  0
 17 18  1  0  0  0
 10 11  1  0  0  0
 11 12  1  0  0  0
 12 13  2  0  0  0
 13  1  1  0  0  0
 11  3  2  0  0  0
  9  4  1  0  0  0
 18 14  1  0  0  0
 26 21  1  0  0  0
 33 30  1  0  0  0
 19 20  1  0  0  0
 27 28  1  0  0  0
 32 34  1  0  0  0
M  END
> <minimizedAffinity>
-6.14436

> <CNNscore>
0.2653965056

> <CNNaffinity>
5.8663454056

> <CNN_VS>
1.5569075346

> <CNNaffinity_variance>
0.3161441684

$$$$
[H]c1nc([H])c2c(c1[H])c1c([H])nc(N([H])c3nnc(N([H])C([H])([H])C4([H])C([H])([H])N([H])C4([H])[H])c([H])c3[H])nc1n2C1([H])C([H])([H])C([H])([H])C([H])([H])C1([H])[H]


 34 39  0  0  0  0  0  0  0  0999 V2000
  150.4496  136.3593  193.1931 C   0  0  0  0  0  0  0  0  0  0  0  0
  150.2407  135.7398  191.9740 C   0  0  0  0  0  0  0  0  0  0  0  0
  151.2461  135.7309  191.0315 C   0  0  0  0  0  0  0  0  0  0  0  0
  151.2990  135.1998  189.7733 C   0  0  0  0  0  0  0  0  0  0  0  0
  150.4126  134.4889  188.9676 C   0  0  0  0  0  0  0  0  0  0  0  0
  150.8086  134.1104  187.7424 N   0  0  0  0  0  0  0  0  0  0  0  0
  152.0303  134.3798  187.2349 C   0  0  0  0  0  0  0  0  0  0  0  0
  152.9033  135.0635  187.9912 N   0  0  0  0  0  0  0  0  0  0  0  0
  152.5389  135.4621  189.2333 C   0  0  0  0  0  0  0  0  0  0  0  0
  153.2335  136.1578  190.1803 N   0  0  0  0  0  0  0  0  0  0  0  0
  152.4669  136.3246  191.2634 C   0  0  0  0  0  0  0  0  0  0  0  0
  152.6409  136.9332  192.4897 C   0  0  0  0  0  0  0  0  0  0  0  0
  151.6580  136.9326  193.3902 N   0  0  0  0  0  0  0  0  0  0  0  0
  154.5875  136.6458  190.0494 C   0  0  0  0  0  0  0  0  0  0  0  0
  155.5363  136.0210  191.0395 C   0  0  0  0  0  0  0  0  0  0  0  0
  156.5128  137.0898  191.4410 C   0  0  0  0  0  0  0  0  0  0  0  0
  156.0042  138.3990  190.9252 C   0  0  0  0  0  0  0  0  0  0  0  0
  154.7077  138.1292  190.1982 C   0  0  0  0  0  0  0  0  0  0  0  0
  152.3730  133.9361  185.9099 N   0  0  0  0  0  0  0  0  0  0  0  0
  152.9034  133.0445  185.8046 H   0  0  0  0  0  0  0  0  0  0  0  0
  152.0096  134.6752  184.7598 C   0  0  0  0  0  0  0  0  0  0  0  0
  152.7572  135.7170  184.2606 C   0  0  0  0  0  0  0  0  0  0  0  0
  152.3719  136.4214  183.1298 C   0  0  0  0  0  0  0  0  0  0  0  0
  151.2063  136.0735  182.4808 C   0  0  0  0  0  0  0  0  0  0  0  0
  150.5034  135.0414  183.0089 N   0  0  0  0  0  0  0  0  0  0  0  0
  150.8854  134.3804  184.0884 N   0  0  0  0  0  0  0  0  0  0  0  0
  150.7515  136.7523  181.3167 N   0  0  0  0  0  0  0  0  0  0  0  0
  150.4150  136.2128  180.5072 H   0  0  0  0  0  0  0  0  0  0  0  0
  150.7610  138.1969  181.2691 C   0  0  0  0  0  0  0  0  0  0  0  0
  151.2026  138.7095  179.9155 C   0  0  0  0  0  0  0  0  0  0  0  0
  150.0357  139.2019  179.0888 C   0  0  0  0  0  0  0  0  0  0  0  0
  150.8223  140.3686  178.6949 N   0  0  0  0  0  0  0  0  0  0  0  0
  151.6187  140.1589  179.9046 C   0  0  0  0  0  0  0  0  0  0  0  0
  150.2589  141.2507  178.8097 H   0  0  0  0  0  0  0  0  0  0  0  0
  1  2  2  0  0  0
  2  3  1  0  0  0
  3  4  1  0  0  0
  4  5  2  0  0  0
  5  6  1  0  0  0
  6  7  2  0  0  0
  7 19  1  0  0  0
 19 21  1  0  0  0
 21 22  2  0  0  0
 22 23  1  0  0  0
 23 24  2  0  0  0
 24 27  1  0  0  0
 27 29  1  0  0  0
 29 30  1  0  0  0
 30 31  1  0  0  0
 31 32  1  0  0  0
 32 33  1  0  0  0
 24 25  1  0  0  0
 25 26  2  0  0  0
  7  8  1  0  0  0
  8  9  2  0  0  0
  9 10  1  0  0  0
 10 14  1  0  0  0
 14 15  1  0  0  0
 15 16  1  0  0  0
 16 17  1  0  0  0
 17 18  1  0  0  0
 10 11  1  0  0  0
 11 12  1  0  0  0
 12 13  2  0  0  0
 13  1  1  0  0  0
 11  3  2  0  0  0
  9  4  1  0  0  0
 18 14  1  0  0  0
 26 21  1  0  0  0
 33 30  1  0  0  0
 19 20  1  0  0  0
 27 28  1  0  0  0
 32 34  1  0  0  0
M  END
> <minimizedAffinity>
-5.77483

> <CNNscore>
0.2113427371

> <CNNaffinity>
5.7631831169

> <CNN_VS>
1.2180068493

> <CNNaffinity_variance>
0.3207039833

$$$$
[H]c1nc([H])c2c(c1[H])c1c([H])nc(N([H])c3nnc(N([H])C([H])([H])C4([H])C([H])([H])N([H])C4([H])[H])c([H])c3[H])nc1n2C1([H])C([H])([H])C([H])([H])C([H])([H])C1([H])[H]


 34 39  0  0  0  0  0  0  0  0999 V2000
  150.5010  138.3493  180.6093 C   0  0  0  0  0  0  0  0  0  0  0  0
  151.1666  137.8895  181.7315 C   0  0  0  0  0  0  0  0  0  0  0  0
  152.2254  138.6100  182.2403 C   0  0  0  0  0  0  0  0  0  0  0  0
  153.0376  138.3831  183.3159 C   0  0  0  0  0  0  0  0  0  0  0  0
  153.1285  137.3891  184.2876 C   0  0  0  0  0  0  0  0  0  0  0  0
  154.0801  137.4858  185.2290 N   0  0  0  0  0  0  0  0  0  0  0  0
  154.9675  138.5012  185.2938 C   0  0  0  0  0  0  0  0  0  0  0  0
  154.9013  139.4719  184.3693 N   0  0  0  0  0  0  0  0  0  0  0  0
  153.9539  139.4081  183.4035 C   0  0  0  0  0  0  0  0  0  0  0  0
  153.6851  140.2561  182.3681 N   0  0  0  0  0  0  0  0  0  0  0  0
  152.6497  139.7865  181.6639 C   0  0  0  0  0  0  0  0  0  0  0  0
  151.9633  140.2157  180.5462 C   0  0  0  0  0  0  0  0  0  0  0  0
  150.9412  139.5068  180.0669 N   0  0  0  0  0  0  0  0  0  0  0  0
  154.3985  141.4760  182.0655 C   0  0  0  0  0  0  0  0  0  0  0  0
  155.8947  141.3201  182.1546 C   0  0  0  0  0  0  0  0  0  0  0  0
  156.4348  142.6093  182.7055 C   0  0  0  0  0  0  0  0  0  0  0  0
  155.2795  143.4217  183.1992 C   0  0  0  0  0  0  0  0  0  0  0  0
  154.0212  142.6256  182.9448 C   0  0  0  0  0  0  0  0  0  0  0  0
  155.9566  138.5268  186.3383 N   0  0  0  0  0  0  0  0  0  0  0  0
  156.7815  139.1551  186.2281 H   0  0  0  0  0  0  0  0  0  0  0  0
  155.8354  137.7267  187.4986 C   0  0  0  0  0  0  0  0  0  0  0  0
  155.3775  138.2050  188.7048 C   0  0  0  0  0  0  0  0  0  0  0  0
  155.2709  137.3928  189.8240 C   0  0  0  0  0  0  0  0  0  0  0  0
  155.6327  136.0655  189.7333 C   0  0  0  0  0  0  0  0  0  0  0  0
  156.0777  135.6398  188.5254 N   0  0  0  0  0  0  0  0  0  0  0  0
  156.1731  136.4280  187.4682 N   0  0  0  0  0  0  0  0  0  0  0  0
  155.5489  135.1764  190.8401 N   0  0  0  0  0  0  0  0  0  0  0  0
  155.1665  135.5080  191.7363 H   0  0  0  0  0  0  0  0  0  0  0  0
  155.9994  133.8093  190.7081 C   0  0  0  0  0  0  0  0  0  0  0  0
  157.4389  133.6494  191.1467 C   0  0  0  0  0  0  0  0  0  0  0  0
  157.7389  132.2376  191.5989 C   0  0  0  0  0  0  0  0  0  0  0  0
  158.9969  132.2798  190.8568 N   0  0  0  0  0  0  0  0  0  0  0  0
  158.3978  133.3269  190.0285 C   0  0  0  0  0  0  0  0  0  0  0  0
  159.1116  131.4110  190.2732 H   0  0  0  0  0  0  0  0  0  0  0  0
  1  2  2  0  0  0
  2  3  1  0  0  0
  3  4  1  0  0  0
  4  5  2  0  0  0
  5  6  1  0  0  0
  6  7  2  0  0  0
  7 19  1  0  0  0
 19 21  1  0  0  0
 21 22  2  0  0  0
 22 23  1  0  0  0
 23 24  2  0  0  0
 24 27  1  0  0  0
 27 29  1  0  0  0
 29 30  1  0  0  0
 30 31  1  0  0  0
 31 32  1  0  0  0
 32 33  1  0  0  0
 24 25  1  0  0  0
 25 26  2  0  0  0
  7  8  1  0  0  0
  8  9  2  0  0  0
  9 10  1  0  0  0
 10 14  1  0  0  0
 14 15  1  0  0  0
 15 16  1  0  0  0
 16 17  1  0  0  0
 17 18  1  0  0  0
 10 11  1  0  0  0
 11 12  1  0  0  0
 12 13  2  0  0  0
 13  1  1  0  0  0
 11  3  2  0  0  0
  9  4  1  0  0  0
 18 14  1  0  0  0
 26 21  1  0  0  0
 33 30  1  0  0  0
 19 20  1  0  0  0
 27 28  1  0  0  0
 32 34  1  0  0  0
M  END
> <minimizedAffinity>
-7.07145

> <CNNscore>
0.1706331372

> <CNNaffinity>
5.8720827103

> <CNN_VS>
1.0019718409

> <CNNaffinity_variance>
0.0196613297

$$$$
[H]c1nc([H])c2c(c1[H])c1c([H])nc(N([H])c3nnc(N([H])C([H])([H])C4([H])C([H])([H])N([H])C4([H])[H])c([H])c3[H])nc1n2C1([H])C([H])([H])C([H])([H])C([H])([H])C1([H])[H]


 34 39  0  0  0  0  0  0  0  0999 V2000
  150.4957  138.3068  180.5309 C   0  0  0  0  0  0  0  0  0  0  0  0
  151.1619  137.8280  181.6447 C   0  0  0  0  0  0  0  0  0  0  0  0
  152.1961  138.5588  182.1883 C   0  0  0  0  0  0  0  0  0  0  0  0
  153.0031  138.3180  183.2647 C   0  0  0  0  0  0  0  0  0  0  0  0
  153.1105  137.2954  184.2045 C   0  0  0  0  0  0  0  0  0  0  0  0
  154.0496  137.3860  185.1589 N   0  0  0  0  0  0  0  0  0  0  0  0
  154.9091  138.4215  185.2664 C   0  0  0  0  0  0  0  0  0  0  0  0
  154.8266  139.4200  184.3733 N   0  0  0  0  0  0  0  0  0  0  0  0
  153.8909  139.3632  183.3956 C   0  0  0  0  0  0  0  0  0  0  0  0
  153.6103  140.2374  182.3855 N   0  0  0  0  0  0  0  0  0  0  0  0
  152.5948  139.7643  181.6551 C   0  0  0  0  0  0  0  0  0  0  0  0
  151.9086  140.2119  180.5446 C   0  0  0  0  0  0  0  0  0  0  0  0
  150.9105  139.4926  180.0312 N   0  0  0  0  0  0  0  0  0  0  0  0
  154.2942  141.4848  182.1306 C   0  0  0  0  0  0  0  0  0  0  0  0
  155.7947  141.3495  182.1585 C   0  0  0  0  0  0  0  0  0  0  0  0
  156.3347  142.6134  182.7652 C   0  0  0  0  0  0  0  0  0  0  0  0
  155.1857  143.3760  183.3455 C   0  0  0  0  0  0  0  0  0  0  0  0
  153.9311  142.5747  183.0885 C   0  0  0  0  0  0  0  0  0  0  0  0
  155.8867  138.4386  186.3219 N   0  0  0  0  0  0  0  0  0  0  0  0
  156.7215  139.0548  186.2179 H   0  0  0  0  0  0  0  0  0  0  0  0
  155.7411  137.6464  187.4848 C   0  0  0  0  0  0  0  0  0  0  0  0
  156.0187  136.2992  187.5240 C   0  0  0  0  0  0  0  0  0  0  0  0
  155.8650  135.5513  188.6817 C   0  0  0  0  0  0  0  0  0  0  0  0
  155.4211  136.1687  189.8318 C   0  0  0  0  0  0  0  0  0  0  0  0
  155.1606  137.4964  189.7451 N   0  0  0  0  0  0  0  0  0  0  0  0
  155.3127  138.1945  188.6326 N   0  0  0  0  0  0  0  0  0  0  0  0
  155.2410  135.4633  191.0535 N   0  0  0  0  0  0  0  0  0  0  0  0
  155.7101  134.5584  191.1971 H   0  0  0  0  0  0  0  0  0  0  0  0
  154.4012  136.0149  192.0926 C   0  0  0  0  0  0  0  0  0  0  0  0
  152.9501  135.6299  191.9030 C   0  0  0  0  0  0  0  0  0  0  0  0
  152.1500  135.7952  193.1758 C   0  0  0  0  0  0  0  0  0  0  0  0
  151.0700  136.4056  192.4036 N   0  0  0  0  0  0  0  0  0  0  0  0
  152.0722  136.7447  191.3926 C   0  0  0  0  0  0  0  0  0  0  0  0
  150.7412  137.2932  192.8648 H   0  0  0  0  0  0  0  0  0  0  0  0
  1  2  2  0  0  0
  2  3  1  0  0  0
  3  4  1  0  0  0
  4  5  2  0  0  0
  5  6  1  0  0  0
  6  7  2  0  0  0
  7 19  1  0  0  0
 19 21  1  0  0  0
 21 22  2  0  0  0
 22 23  1  0  0  0
 23 24  2  0  0  0
 24 27  1  0  0  0
 27 29  1  0  0  0
 29 30  1  0  0  0
 30 31  1  0  0  0
 31 32  1  0  0  0
 32 33  1  0  0  0
 24 25  1  0  0  0
 25 26  2  0  0  0
  7  8  1  0  0  0
  8  9  2  0  0  0
  9 10  1  0  0  0
 10 14  1  0  0  0
 14 15  1  0  0  0
 15 16  1  0  0  0
 16 17  1  0  0  0
 17 18  1  0  0  0
 10 11  1  0  0  0
 11 12  1  0  0  0
 12 13  2  0  0  0
 13  1  1  0  0  0
 11  3  2  0  0  0
  9  4  1  0  0  0
 18 14  1  0  0  0
 26 21  1  0  0  0
 33 30  1  0  0  0
 19 20  1  0  0  0
 27 28  1  0  0  0
 32 34  1  0  0  0
M  END
> <minimizedAffinity>
-6.99336

> <CNNscore>
0.1530494690

> <CNNaffinity>
5.9220018387

> <CNN_VS>
0.9063592553

> <CNNaffinity_variance>
0.0189295225

$$$$
[H]c1nc([H])c2c(c1[H])c1c([H])nc(N([H])c3nnc(N([H])C([H])([H])C4([H])C([H])([H])N([H])C4([H])[H])c([H])c3[H])nc1n2C1([H])C([H])([H])C([H])([H])C([H])([H])C1([H])[H]


 34 39  0  0  0  0  0  0  0  0999 V2000
  155.1996  142.1188  183.3015 C   0  0  0  0  0  0  0  0  0  0  0  0
  155.1890  140.9480  184.0384 C   0  0  0  0  0  0  0  0  0  0  0  0
  154.3491  139.9186  183.6725 C   0  0  0  0  0  0  0  0  0  0  0  0
  154.1467  138.6818  184.2177 C   0  0  0  0  0  0  0  0  0  0  0  0
  154.6730  137.9878  185.3047 C   0  0  0  0  0  0  0  0  0  0  0  0
  154.2304  136.7467  185.5595 N   0  0  0  0  0  0  0  0  0  0  0  0
  153.2932  136.1199  184.8168 C   0  0  0  0  0  0  0  0  0  0  0  0
  152.7700  136.7668  183.7636 N   0  0  0  0  0  0  0  0  0  0  0  0
  153.1923  138.0211  183.4757 C   0  0  0  0  0  0  0  0  0  0  0  0
  152.8211  138.8738  182.4765 N   0  0  0  0  0  0  0  0  0  0  0  0
  153.5093  140.0154  182.5853 C   0  0  0  0  0  0  0  0  0  0  0  0
  153.5457  141.1968  181.8730 C   0  0  0  0  0  0  0  0  0  0  0  0
  154.3642  142.1828  182.2405 N   0  0  0  0  0  0  0  0  0  0  0  0
  151.8389  138.6014  181.4519 C   0  0  0  0  0  0  0  0  0  0  0  0
  152.2002  139.1994  180.1167 C   0  0  0  0  0  0  0  0  0  0  0  0
  150.9163  139.6496  179.4795 C   0  0  0  0  0  0  0  0  0  0  0  0
  149.8376  139.5827  180.5142 C   0  0  0  0  0  0  0  0  0  0  0  0
  150.4651  139.0834  181.7944 C   0  0  0  0  0  0  0  0  0  0  0  0
  152.8755  134.7868  185.1609 N   0  0  0  0  0  0  0  0  0  0  0  0
  152.3038  134.2506  184.4732 H   0  0  0  0  0  0  0  0  0  0  0  0
  153.2200  134.1946  186.3986 C   0  0  0  0  0  0  0  0  0  0  0  0
  152.5915  134.4970  187.5848 C   0  0  0  0  0  0  0  0  0  0  0  0
  152.9543  133.8974  188.7816 C   0  0  0  0  0  0  0  0  0  0  0  0
  153.9743  132.9697  188.7914 C   0  0  0  0  0  0  0  0  0  0  0  0
  154.5635  132.7042  187.5995 N   0  0  0  0  0  0  0  0  0  0  0  0
  154.2049  133.2854  186.4673 N   0  0  0  0  0  0  0  0  0  0  0  0
  154.3977  132.3165  189.9816 N   0  0  0  0  0  0  0  0  0  0  0  0
  154.0195  131.3894  190.2199 H   0  0  0  0  0  0  0  0  0  0  0  0
  155.3574  132.9522  190.8557 C   0  0  0  0  0  0  0  0  0  0  0  0
  156.7760  132.5474  190.5183 C   0  0  0  0  0  0  0  0  0  0  0  0
  157.4810  133.5963  189.6874 C   0  0  0  0  0  0  0  0  0  0  0  0
  158.6739  133.4334  190.5155 N   0  0  0  0  0  0  0  0  0  0  0  0
  157.7949  132.9187  191.5661 C   0  0  0  0  0  0  0  0  0  0  0  0
  159.0468  134.3711  190.8159 H   0  0  0  0  0  0  0  0  0  0  0  0
  1  2  2  0  0  0
  2  3  1  0  0  0
  3  4  1  0  0  0
  4  5  2  0  0  0
  5  6  1  0  0  0
  6  7  2  0  0  0
  7 19  1  0  0  0
 19 21  1  0  0  0
 21 22  2  0  0  0
 22 23  1  0  0  0
 23 24  2  0  0  0
 24 27  1  0  0  0
 27 29  1  0  0  0
 29 30  1  0  0  0
 30 31  1  0  0  0
 31 32  1  0  0  0
 32 33  1  0  0  0
 24 25  1  0  0  0
 25 26  2  0  0  0
  7  8  1  0  0  0
  8  9  2  0  0  0
  9 10  1  0  0  0
 10 14  1  0  0  0
 14 15  1  0  0  0
 15 16  1  0  0  0
 16 17  1  0  0  0
 17 18  1  0  0  0
 10 11  1  0  0  0
 11 12  1  0  0  0
 12 13  2  0  0  0
 13  1  1  0  0  0
 11  3  2  0  0  0
  9  4  1  0  0  0
 18 14  1  0  0  0
 26 21  1  0  0  0
 33 30  1  0  0  0
 19 20  1  0  0  0
 27 28  1  0  0  0
 32 34  1  0  0  0
M  END
> <minimizedAffinity>
-5.71608

> <CNNscore>
0.1385563314

> <CNNaffinity>
5.7180948257

> <CNN_VS>
0.7922782302

> <CNNaffinity_variance>
0.4936252236

$$$$
[H]c1nc([H])c2c(c1[H])c1c([H])nc(N([H])c3nnc(N([H])C([H])([H])C4([H])C([H])([H])N([H])C4([H])[H])c([H])c3[H])nc1n2C1([H])C([H])([H])C([H])([H])C([H])([H])C1([H])[H]


 34 39  0  0  0  0  0  0  0  0999 V2000
  149.5415  138.9968  178.8736 C   0  0  0  0  0  0  0  0  0  0  0  0
  150.5753  139.6297  179.5403 C   0  0  0  0  0  0  0  0  0  0  0  0
  151.1156  139.0512  180.6683 C   0  0  0  0  0  0  0  0  0  0  0  0
  152.1229  139.4586  181.4974 C   0  0  0  0  0  0  0  0  0  0  0  0
  152.9722  140.5617  181.5452 C   0  0  0  0  0  0  0  0  0  0  0  0
  153.8766  140.6432  182.5333 N   0  0  0  0  0  0  0  0  0  0  0  0
  154.0166  139.7090  183.4978 C   0  0  0  0  0  0  0  0  0  0  0  0
  153.2104  138.6361  183.4745 N   0  0  0  0  0  0  0  0  0  0  0  0
  152.2853  138.5196  182.4922 C   0  0  0  0  0  0  0  0  0  0  0  0
  151.3642  137.5408  182.2538 N   0  0  0  0  0  0  0  0  0  0  0  0
  150.6570  137.8500  181.1616 C   0  0  0  0  0  0  0  0  0  0  0  0
  149.6252  137.2464  180.4720 C   0  0  0  0  0  0  0  0  0  0  0  0
  149.1139  137.8195  179.3824 N   0  0  0  0  0  0  0  0  0  0  0  0
  151.1698  136.3491  183.0479 C   0  0  0  0  0  0  0  0  0  0  0  0
  150.8590  136.6485  184.4918 C   0  0  0  0  0  0  0  0  0  0  0  0
  151.5289  135.5824  185.3115 C   0  0  0  0  0  0  0  0  0  0  0  0
  152.4509  134.8191  184.4138 C   0  0  0  0  0  0  0  0  0  0  0  0
  152.3417  135.4198  183.0320 C   0  0  0  0  0  0  0  0  0  0  0  0
  155.0137  139.8755  184.5216 N   0  0  0  0  0  0  0  0  0  0  0  0
  154.7579  139.6515  185.5074 H   0  0  0  0  0  0  0  0  0  0  0  0
  156.3190  140.3315  184.2227 C   0  0  0  0  0  0  0  0  0  0  0  0
  157.3860  139.4891  184.0094 C   0  0  0  0  0  0  0  0  0  0  0  0
  158.6540  139.9695  183.7181 C   0  0  0  0  0  0  0  0  0  0  0  0
  158.8597  141.3305  183.6383 C   0  0  0  0  0  0  0  0  0  0  0  0
  157.7795  142.1205  183.8559 N   0  0  0  0  0  0  0  0  0  0  0  0
  156.5770  141.6455  184.1326 N   0  0  0  0  0  0  0  0  0  0  0  0
  160.1327  141.8919  183.3439 N   0  0  0  0  0  0  0  0  0  0  0  0
  160.2833  142.3808  182.4507 H   0  0  0  0  0  0  0  0  0  0  0  0
  161.2140  141.7772  184.2962 C   0  0  0  0  0  0  0  0  0  0  0  0
  161.1849  142.8969  185.3138 C   0  0  0  0  0  0  0  0  0  0  0  0
  160.2807  142.5756  186.4828 C   0  0  0  0  0  0  0  0  0  0  0  0
  161.2975  143.0925  187.3961 N   0  0  0  0  0  0  0  0  0  0  0  0
  162.2819  142.8280  186.3462 C   0  0  0  0  0  0  0  0  0  0  0  0
  161.4595  142.4190  188.1890 H   0  0  0  0  0  0  0  0  0  0  0  0
  1  2  2  0  0  0
  2  3  1  0  0  0
  3  4  1  0  0  0
  4  5  2  0  0  0
  5  6  1  0  0  0
  6  7  2  0  0  0
  7 19  1  0  0  0
 19 21  1  0  0  0
 21 22  2  0  0  0
 22 23  1  0  0  0
 23 24  2  0  0  0
 24 27  1  0  0  0
 27 29  1  0  0  0
 29 30  1  0  0  0
 30 31  1  0  0  0
 31 32  1  0  0  0
 32 33  1  0  0  0
 24 25  1  0  0  0
 25 26  2  0  0  0
  7  8  1  0  0  0
  8  9  2  0  0  0
  9 10  1  0  0  0
 10 14  1  0  0  0
 14 15  1  0  0  0
 15 16  1  0  0  0
 16 17  1  0  0  0
 17 18  1  0  0  0
 10 11  1  0  0  0
 11 12  1  0  0  0
 12 13  2  0  0  0
 13  1  1  0  0  0
 11  3  2  0  0  0
  9  4  1  0  0  0
 18 14  1  0  0  0
 26 21  1  0  0  0
 33 30  1  0  0  0
 19 20  1  0  0  0
 27 28  1  0  0  0
 32 34  1  0  0  0
M  END
> <minimizedAffinity>
-8.26390

> <CNNscore>
0.1202229485

> <CNNaffinity>
6.3127188683

> <CNN_VS>
0.7589336634

> <CNNaffinity_variance>
0.1672954112

$$$$
[H]c1nc([H])c2c(c1[H])c1c([H])nc(N([H])c3nnc(N([H])C([H])([H])C4([H])C([H])([H])N([H])C4([H])[H])c([H])c3[H])nc1n2C1([H])C([H])([H])C([H])([H])C([H])([H])C1([H])[H]


 34 39  0  0  0  0  0  0  0  0999 V2000
  161.0609  142.8043  186.5882 C   0  0  0  0  0  0  0  0  0  0  0  0
  159.9349  142.0013  186.5594 C   0  0  0  0  0  0  0  0  0  0  0  0
  159.3284  141.7187  185.3546 C   0  0  0  0  0  0  0  0  0  0  0  0
  158.2270  140.9678  185.0528 C   0  0  0  0  0  0  0  0  0  0  0  0
  157.3134  140.2201  185.7922 C   0  0  0  0  0  0  0  0  0  0  0  0
  156.3189  139.5888  185.1492 N   0  0  0  0  0  0  0  0  0  0  0  0
  156.1464  139.6339  183.8110 C   0  0  0  0  0  0  0  0  0  0  0  0
  157.0131  140.3475  183.0754 N   0  0  0  0  0  0  0  0  0  0  0  0
  158.0298  140.9982  183.6898 C   0  0  0  0  0  0  0  0  0  0  0  0
  159.0249  141.7764  183.1726 N   0  0  0  0  0  0  0  0  0  0  0  0
  159.8098  142.2138  184.1631 C   0  0  0  0  0  0  0  0  0  0  0  0
  160.9343  143.0111  184.2287 C   0  0  0  0  0  0  0  0  0  0  0  0
  161.5088  143.2746  185.4024 N   0  0  0  0  0  0  0  0  0  0  0  0
  159.2155  142.0892  181.7746 C   0  0  0  0  0  0  0  0  0  0  0  0
  158.5395  143.3709  181.3609 C   0  0  0  0  0  0  0  0  0  0  0  0
  158.0288  143.1625  179.9634 C   0  0  0  0  0  0  0  0  0  0  0  0
  158.1443  141.7061  179.6408 C   0  0  0  0  0  0  0  0  0  0  0  0
  158.7343  141.0174  180.8489 C   0  0  0  0  0  0  0  0  0  0  0  0
  155.0514  138.9263  183.2024 N   0  0  0  0  0  0  0  0  0  0  0  0
  155.0427  138.8187  182.1652 H   0  0  0  0  0  0  0  0  0  0  0  0
  153.9982  138.3794  183.9724 C   0  0  0  0  0  0  0  0  0  0  0  0
  152.8967  137.7650  183.4221 C   0  0  0  0  0  0  0  0  0  0  0  0
  151.8811  137.2391  184.2066 C   0  0  0  0  0  0  0  0  0  0  0  0
  151.9704  137.3306  185.5793 C   0  0  0  0  0  0  0  0  0  0  0  0
  153.0732  137.9439  186.0754 N   0  0  0  0  0  0  0  0  0  0  0  0
  154.0325  138.4400  185.3127 N   0  0  0  0  0  0  0  0  0  0  0  0
  150.9665  136.8133  186.4436 N   0  0  0  0  0  0  0  0  0  0  0  0
  150.8404  137.2166  187.3822 H   0  0  0  0  0  0  0  0  0  0  0  0
  150.1237  135.7235  186.0061 C   0  0  0  0  0  0  0  0  0  0  0  0
  148.7315  136.1996  185.6525 C   0  0  0  0  0  0  0  0  0  0  0  0
  148.0316  135.2489  184.7070 C   0  0  0  0  0  0  0  0  0  0  0  0
  146.8115  135.3763  185.5009 N   0  0  0  0  0  0  0  0  0  0  0  0
  147.6616  135.7708  186.6248 C   0  0  0  0  0  0  0  0  0  0  0  0
  146.4012  134.4281  185.7037 H   0  0  0  0  0  0  0  0  0  0  0  0
  1  2  2  0  0  0
  2  3  1  0  0  0
  3  4  1  0  0  0
  4  5  2  0  0  0
  5  6  1  0  0  0
  6  7  2  0  0  0
  7 19  1  0  0  0
 19 21  1  0  0  0
 21 22  2  0  0  0
 22 23  1  0  0  0
 23 24  2  0  0  0
 24 27  1  0  0  0
 27 29  1  0  0  0
 29 30  1  0  0  0
 30 31  1  0  0  0
 31 32  1  0  0  0
 32 33  1  0  0  0
 24 25  1  0  0  0
 25 26  2  0  0  0
  7  8  1  0  0  0
  8  9  2  0  0  0
  9 10  1  0  0  0
 10 14  1  0  0  0
 14 15  1  0  0  0
 15 16  1  0  0  0
 16 17  1  0  0  0
 17 18  1  0  0  0
 10 11  1  0  0  0
 11 12  1  0  0  0
 12 13  2  0  0  0
 13  1  1  0  0  0
 11  3  2  0  0  0
  9  4  1  0  0  0
 18 14  1  0  0  0
 26 21  1  0  0  0
 33 30  1  0  0  0
 19 20  1  0  0  0
 27 28  1  0  0  0
 32 34  1  0  0  0
M  END
> <minimizedAffinity>
-6.65003

> <CNNscore>
0.1198866144

> <CNNaffinity>
6.2462253571

> <CNN_VS>
0.7488387823

> <CNNaffinity_variance>
0.1234562621

$$$$
[H]c1nc([H])c2c(c1[H])c1c([H])nc(N([H])c3nnc(N([H])C([H])([H])C4([H])C([H])([H])N([H])C4([H])[H])c([H])c3[H])nc1n2C1([H])C([H])([H])C([H])([H])C([H])([H])C1([H])[H]


 34 39  0  0  0  0  0  0  0  0999 V2000
  155.2562  142.3573  183.0999 C   0  0  0  0  0  0  0  0  0  0  0  0
  155.2403  141.2966  183.9877 C   0  0  0  0  0  0  0  0  0  0  0  0
  154.4035  140.2261  183.7576 C   0  0  0  0  0  0  0  0  0  0  0  0
  154.1973  139.0738  184.4630 C   0  0  0  0  0  0  0  0  0  0  0  0
  154.7155  138.5333  185.6376 C   0  0  0  0  0  0  0  0  0  0  0  0
  154.2714  137.3373  186.0539 N   0  0  0  0  0  0  0  0  0  0  0  0
  153.3400  136.6149  185.3956 C   0  0  0  0  0  0  0  0  0  0  0  0
  152.8247  137.1133  184.2609 N   0  0  0  0  0  0  0  0  0  0  0  0
  153.2488  138.3179  183.8097 C   0  0  0  0  0  0  0  0  0  0  0  0
  152.8850  139.0277  182.7019 N   0  0  0  0  0  0  0  0  0  0  0  0
  153.5719  140.1744  182.6611 C   0  0  0  0  0  0  0  0  0  0  0  0
  153.6135  141.2491  181.7964 C   0  0  0  0  0  0  0  0  0  0  0  0
  154.4288  142.2767  182.0337 N   0  0  0  0  0  0  0  0  0  0  0  0
  151.9107  138.6184  181.7160 C   0  0  0  0  0  0  0  0  0  0  0  0
  152.2516  139.0831  180.3237 C   0  0  0  0  0  0  0  0  0  0  0  0
  150.9536  139.4236  179.6482 C   0  0  0  0  0  0  0  0  0  0  0  0
  149.8787  139.4327  180.6889 C   0  0  0  0  0  0  0  0  0  0  0  0
  150.5228  139.0910  182.0119 C   0  0  0  0  0  0  0  0  0  0  0  0
  152.9202  135.3398  185.9130 N   0  0  0  0  0  0  0  0  0  0  0  0
  152.8547  134.5326  185.2562 H   0  0  0  0  0  0  0  0  0  0  0  0
  152.5979  135.1599  187.2787 C   0  0  0  0  0  0  0  0  0  0  0  0
  151.4113  135.5745  187.8386 C   0  0  0  0  0  0  0  0  0  0  0  0
  151.1268  135.3823  189.1823 C   0  0  0  0  0  0  0  0  0  0  0  0
  152.0555  134.7581  189.9877 C   0  0  0  0  0  0  0  0  0  0  0  0
  153.2091  134.3673  189.3921 N   0  0  0  0  0  0  0  0  0  0  0  0
  153.4642  134.5585  188.1089 N   0  0  0  0  0  0  0  0  0  0  0  0
  151.8300  134.5286  191.3730 N   0  0  0  0  0  0  0  0  0  0  0  0
  151.3299  133.6821  191.6777 H   0  0  0  0  0  0  0  0  0  0  0  0
  152.3016  135.4813  192.3523 C   0  0  0  0  0  0  0  0  0  0  0  0
  151.1600  136.0852  193.1409 C   0  0  0  0  0  0  0  0  0  0  0  0
  149.8157  135.5776  192.6690 C   0  0  0  0  0  0  0  0  0  0  0  0
  149.3993  135.4213  194.0609 N   0  0  0  0  0  0  0  0  0  0  0  0
  150.8186  135.3434  194.4087 C   0  0  0  0  0  0  0  0  0  0  0  0
  148.9616  134.4758  194.2122 H   0  0  0  0  0  0  0  0  0  0  0  0
  1  2  2  0  0  0
  2  3  1  0  0  0
  3  4  1  0  0  0
  4  5  2  0  0  0
  5  6  1  0  0  0
  6  7  2  0  0  0
  7 19  1  0  0  0
 19 21  1  0  0  0
 21 22  2  0  0  0
 22 23  1  0  0  0
 23 24  2  0  0  0
 24 27  1  0  0  0
 27 29  1  0  0  0
 29 30  1  0  0  0
 30 31  1  0  0  0
 31 32  1  0  0  0
 32 33  1  0  0  0
 24 25  1  0  0  0
 25 26  2  0  0  0
  7  8  1  0  0  0
  8  9  2  0  0  0
  9 10  1  0  0  0
 10 14  1  0  0  0
 14 15  1  0  0  0
 15 16  1  0  0  0
 16 17  1  0  0  0
 17 18  1  0  0  0
 10 11  1  0  0  0
 11 12  1  0  0  0
 12 13  2  0  0  0
 13  1  1  0  0  0
 11  3  2  0  0  0
  9  4  1  0  0  0
 18 14  1  0  0  0
 26 21  1  0  0  0
 33 30  1  0  0  0
 19 20  1  0  0  0
 27 28  1  0  0  0
 32 34  1  0  0  0
M  END
> <minimizedAffinity>
-6.60576

> <CNNscore>
0.1168282330

> <CNNaffinity>
5.6194119453

> <CNN_VS>
0.6565059423

> <CNNaffinity_variance>
0.1182535738

$$$$
[H]Oc1c([H])c([H])c(C([H])([H])[C@@]2([H])C(=O)N(C([H])([H])c3c([H])c([H])c([H])c4c(C(=O)N([H])c5c([H])nc(N6C([H])([H])C([H])([H])C([H])(N7C([H])([H])C([H])([H])C7([H])[H])C([H])([H])C6([H])[H])c([H])c5[H])c([H])n(C([H])([H])[H])c34)C([H])([H])[C@]3([H])N(C(=O)N([H])C([H])([H])c4c([H])c([H])c([H])c([H])c4[H])N(C([H])([H])C([H])=C([H])[H])C([H])([H])C(=O)N23)c([H])c1[H]


 66 74  0  0  0  0  0  0  0  0999 V2000
  148.3755  136.8460  182.2545 N   0  0  0  0  0  0  0  0  0  0  0  0
  148.1797  135.6715  183.0852 C   0  0  0  0  0  0  0  0  0  0  0  0
  148.4580  134.5389  182.1112 C   0  0  0  0  0  0  0  0  0  0  0  0
  147.5990  133.6424  182.0294 O   0  0  0  0  0  0  0  0  0  0  0  0
  149.6408  134.5524  181.3721 N   0  0  0  0  0  0  0  0  0  0  0  0
  150.2105  133.3311  180.8787 C   0  0  0  0  0  0  0  0  0  0  0  0
  151.3891  133.1278  181.8016 C   0  0  0  0  0  0  0  0  0  0  0  0
  151.6532  132.0272  182.2546 O   0  0  0  0  0  0  0  0  0  0  0  0
  152.1651  134.2622  182.1113 N   0  0  0  0  0  0  0  0  0  0  0  0
  151.8034  135.6197  181.6353 C   0  0  0  0  0  0  0  0  0  0  0  0
  150.3929  135.7622  181.1689 C   0  0  0  0  0  0  0  0  0  0  0  0
  149.6527  136.9043  181.6544 N   0  0  0  0  0  0  0  0  0  0  0  0
  150.1765  138.2283  181.5284 C   0  0  0  0  0  0  0  0  0  0  0  0
  149.4822  139.1703  182.0398 O   0  0  0  0  0  0  0  0  0  0  0  0
  151.3678  138.6162  180.9030 N   0  0  0  0  0  0  0  0  0  0  0  0
  151.9814  137.9317  180.4605 H   0  0  0  0  0  0  0  0  0  0  0  0
  147.3037  136.7661  181.2734 C   0  0  0  0  0  0  0  0  0  0  0  0
  145.6600  138.3012  182.1867 C   0  0  0  0  0  0  0  0  0  0  0  0
  146.4456  137.9250  181.2137 C   0  0  0  0  0  0  0  0  0  0  0  0
  150.6116  133.2466  179.4671 C   0  0  0  0  0  0  0  0  0  0  0  0
  151.1799  131.9997  178.9490 C   0  0  0  0  0  0  0  0  0  0  0  0
  152.1717  132.0289  177.9668 C   0  0  0  0  0  0  0  0  0  0  0  0
  152.6641  130.8600  177.4270 C   0  0  0  0  0  0  0  0  0  0  0  0
  152.2142  129.6138  177.8152 C   0  0  0  0  0  0  0  0  0  0  0  0
  152.7520  128.4804  177.2356 O   0  0  0  0  0  0  0  0  0  0  0  0
  151.2420  129.5805  178.7756 C   0  0  0  0  0  0  0  0  0  0  0  0
  150.7340  130.7546  179.3313 C   0  0  0  0  0  0  0  0  0  0  0  0
  153.4749  128.5177  176.5253 H   0  0  0  0  0  0  0  0  0  0  0  0
  153.3658  134.2276  182.9481 C   0  0  0  0  0  0  0  0  0  0  0  0
  154.5140  133.8273  182.1290 C   0  0  0  0  0  0  0  0  0  0  0  0
  154.6470  134.2326  180.8266 C   0  0  0  0  0  0  0  0  0  0  0  0
  155.6978  133.8134  180.0289 C   0  0  0  0  0  0  0  0  0  0  0  0
  156.6554  132.9592  180.5443 C   0  0  0  0  0  0  0  0  0  0  0  0
  156.5305  132.5400  181.8749 C   0  0  0  0  0  0  0  0  0  0  0  0
  157.3080  131.7410  182.6444 C   0  0  0  0  0  0  0  0  0  0  0  0
  156.7251  131.6945  183.8784 C   0  0  0  0  0  0  0  0  0  0  0  0
  155.6037  132.4358  183.9116 N   0  0  0  0  0  0  0  0  0  0  0  0
  154.7312  132.6214  185.0444 C   0  0  0  0  0  0  0  0  0  0  0  0
  155.4695  132.9684  182.6634 C   0  0  0  0  0  0  0  0  0  0  0  0
  158.5580  130.9870  182.2851 C   0  0  0  0  0  0  0  0  0  0  0  0
  158.9419  130.9731  181.0961 O   0  0  0  0  0  0  0  0  0  0  0  0
  159.2195  130.3460  183.3486 N   0  0  0  0  0  0  0  0  0  0  0  0
  160.2898  130.1672  182.4952 H   0  0  0  0  0  0  0  0  0  0  0  0
  159.8464  129.7455  184.3224 C   0  0  0  0  0  0  0  0  0  0  0  0
  160.2380  130.4725  185.4657 C   0  0  0  0  0  0  0  0  0  0  0  0
  160.8935  129.9375  186.5115 C   0  0  0  0  0  0  0  0  0  0  0  0
  161.2125  128.5993  186.4720 C   0  0  0  0  0  0  0  0  0  0  0  0
  160.8722  127.8349  185.4096 N   0  0  0  0  0  0  0  0  0  0  0  0
  160.2072  128.3814  184.3655 C   0  0  0  0  0  0  0  0  0  0  0  0
  161.9558  127.9783  187.5250 N   0  0  0  0  0  0  0  0  0  0  0  0
  163.3930  128.0962  187.5239 C   0  0  0  0  0  0  0  0  0  0  0  0
  164.0352  128.2597  188.8518 C   0  0  0  0  0  0  0  0  0  0  0  0
  163.1527  128.0405  190.0296 C   0  0  0  0  0  0  0  0  0  0  0  0
  162.0594  127.0083  189.7729 C   0  0  0  0  0  0  0  0  0  0  0  0
  161.2722  127.2288  188.5415 C   0  0  0  0  0  0  0  0  0  0  0  0
  163.8049  127.6543  191.2301 N   0  0  0  0  0  0  0  0  0  0  0  0
  163.0794  126.8199  192.1331 C   0  0  0  0  0  0  0  0  0  0  0  0
  163.8925  127.4327  193.2557 C   0  0  0  0  0  0  0  0  0  0  0  0
  164.0782  128.5797  192.2643 C   0  0  0  0  0  0  0  0  0  0  0  0
  151.7749  140.0175  180.8470 C   0  0  0  0  0  0  0  0  0  0  0  0
  152.8421  140.2967  181.8768 C   0  0  0  0  0  0  0  0  0  0  0  0
  153.4041  141.5281  181.9510 C   0  0  0  0  0  0  0  0  0  0  0  0
  154.4343  141.7626  182.8961 C   0  0  0  0  0  0  0  0  0  0  0  0
  154.8530  140.7274  183.7310 C   0  0  0  0  0  0  0  0  0  0  0  0
  154.1997  139.4899  183.5632 C   0  0  0  0  0  0  0  0  0  0  0  0
  153.2318  139.2598  182.6850 C   0  0  0  0  0  0  0  0  0  0  0  0
 18 19  2  0  0  0
 19 17  1  0  0  0
 17  1  1  0  0  0
  1  2  1  0  0  0
  2  3  1  0  0  0
  3  4  2  0  0  0
  3  5  1  0  0  0
  5  6  1  0  0  0
  6 20  1  0  0  0
 20 21  1  0  0  0
 21 22  2  0  0  0
 22 23  1  0  0  0
 23 24  2  0  0  0
 24 25  1  0  0  0
 24 26  1  0  0  0
 26 27  2  0  0  0
  6  7  1  0  0  0
  7  8  2  0  0  0
  7  9  1  0  0  0
  9 29  1  0  0  0
 29 30  1  0  0  0
 30 31  2  0  0  0
 31 32  1  0  0  0
 32 33  2  0  0  0
 33 34  1  0  0  0
 34 35  1  0  0  0
 35 40  1  0  0  0
 40 41  2  0  0  0
 40 42  1  0  0  0
 42 44  1  0  0  0
 44 45  2  0  0  0
 45 46  1  0  0  0
 46 47  2  0  0  0
 47 50  1  0  0  0
 50 51  1  0  0  0
 51 52  1  0  0  0
 52 53  1  0  0  0
 53 56  1  0  0  0
 56 57  1  0  0  0
 57 58  1  0  0  0
 58 59  1  0  0  0
 53 54  1  0  0  0
 54 55  1  0  0  0
 47 48  1  0  0  0
 48 49  2  0  0  0
 35 36  2  0  0  0
 36 37  1  0  0  0
 37 38  1  0  0  0
 37 39  1  0  0  0
  9 10  1  0  0  0
 10 11  1  0  0  0
 11 12  1  0  0  0
 12 13  1  0  0  0
 13 14  2  0  0  0
 13 15  1  0  0  0
 15 60  1  0  0  0
 60 61  1  0  0  0
 61 62  2  0  0  0
 62 63  1  0  0  0
 63 64  2  0  0  0
 64 65  1  0  0  0
 65 66  2  0  0  0
 12  1  1  0  0  0
 66 61  1  0  0  0
 11  5  1  0  0  0
 27 21  1  0  0  0
 39 30  1  0  0  0
 39 34  2  0  0  0
 49 44  1  0  0  0
 55 50  1  0  0  0
 59 56  1  0  0  0
 25 28  1  0  0  0
 42 43  1  0  0  0
 15 16  1  0  0  0
M  END
> <minimizedAffinity>
-7.46374

> <CNNscore>
0.2510206401

> <CNNaffinity>
6.6444458961

> <CNN_VS>
1.6678930521

> <CNNaffinity_variance>
0.0718857199

$$$$
[H]Oc1c([H])c([H])c(C([H])([H])[C@@]2([H])C(=O)N(C([H])([H])c3c([H])c([H])c([H])c4c(C(=O)N([H])c5c([H])nc(N6C([H])([H])C([H])([H])C([H])(N7C([H])([H])C([H])([H])C7([H])[H])C([H])([H])C6([H])[H])c([H])c5[H])c([H])n(C([H])([H])[H])c34)C([H])([H])[C@]3([H])N(C(=O)N([H])C([H])([H])c4c([H])c([H])c([H])c([H])c4[H])N(C([H])([H])C([H])=C([H])[H])C([H])([H])C(=O)N23)c([H])c1[H]


 66 74  0  0  0  0  0  0  0  0999 V2000
  155.2531  137.2054  187.6346 N   0  0  0  0  0  0  0  0  0  0  0  0
  154.9876  135.8158  187.9607 C   0  0  0  0  0  0  0  0  0  0  0  0
  153.4880  135.7142  187.7384 C   0  0  0  0  0  0  0  0  0  0  0  0
  152.8125  135.2309  188.6649 O   0  0  0  0  0  0  0  0  0  0  0  0
  152.9481  136.1535  186.5296 N   0  0  0  0  0  0  0  0  0  0  0  0
  151.7078  135.6194  186.0439 C   0  0  0  0  0  0  0  0  0  0  0  0
  152.1623  134.7123  184.9246 C   0  0  0  0  0  0  0  0  0  0  0  0
  151.6740  133.6059  184.7714 O   0  0  0  0  0  0  0  0  0  0  0  0
  153.1697  135.2024  184.0702 N   0  0  0  0  0  0  0  0  0  0  0  0
  153.8304  136.5106  184.2982 C   0  0  0  0  0  0  0  0  0  0  0  0
  153.6555  137.0670  185.6720 C   0  0  0  0  0  0  0  0  0  0  0  0
  154.8387  137.5672  186.3337 N   0  0  0  0  0  0  0  0  0  0  0  0
  155.6893  138.5234  185.6970 C   0  0  0  0  0  0  0  0  0  0  0  0
  156.7447  138.8632  186.3307 O   0  0  0  0  0  0  0  0  0  0  0  0
  155.4978  139.1376  184.4533 N   0  0  0  0  0  0  0  0  0  0  0  0
  154.6784  138.9323  183.8813 H   0  0  0  0  0  0  0  0  0  0  0  0
  154.5507  137.9502  188.6687 C   0  0  0  0  0  0  0  0  0  0  0  0
  154.8964  138.7058  190.9495 C   0  0  0  0  0  0  0  0  0  0  0  0
  155.3705  138.3696  189.7800 C   0  0  0  0  0  0  0  0  0  0  0  0
  150.6568  136.5435  185.5945 C   0  0  0  0  0  0  0  0  0  0  0  0
  149.4544  136.7254  186.4113 C   0  0  0  0  0  0  0  0  0  0  0  0
  149.3613  136.1369  187.6739 C   0  0  0  0  0  0  0  0  0  0  0  0
  148.2079  136.2482  188.4204 C   0  0  0  0  0  0  0  0  0  0  0  0
  147.0956  136.9331  187.9734 C   0  0  0  0  0  0  0  0  0  0  0  0
  145.9710  137.0092  188.7731 O   0  0  0  0  0  0  0  0  0  0  0  0
  147.1817  137.5097  186.7371 C   0  0  0  0  0  0  0  0  0  0  0  0
  148.3419  137.4059  185.9699 C   0  0  0  0  0  0  0  0  0  0  0  0
  145.9198  136.5789  189.6901 H   0  0  0  0  0  0  0  0  0  0  0  0
  153.6856  134.4716  182.9113 C   0  0  0  0  0  0  0  0  0  0  0  0
  154.8149  133.6360  183.3309 C   0  0  0  0  0  0  0  0  0  0  0  0
  155.1052  133.4273  184.6539 C   0  0  0  0  0  0  0  0  0  0  0  0
  156.2026  132.6869  185.0588 C   0  0  0  0  0  0  0  0  0  0  0  0
  157.0447  132.1305  184.1136 C   0  0  0  0  0  0  0  0  0  0  0  0
  156.7566  132.3360  182.7583 C   0  0  0  0  0  0  0  0  0  0  0  0
  157.3730  131.9063  181.6311 C   0  0  0  0  0  0  0  0  0  0  0  0
  156.6460  132.3834  180.5783 C   0  0  0  0  0  0  0  0  0  0  0  0
  155.5927  133.1025  181.0045 N   0  0  0  0  0  0  0  0  0  0  0  0
  154.6085  133.7553  180.1775 C   0  0  0  0  0  0  0  0  0  0  0  0
  155.6517  133.0824  182.3668 C   0  0  0  0  0  0  0  0  0  0  0  0
  158.6288  131.0945  181.4759 C   0  0  0  0  0  0  0  0  0  0  0  0
  159.1384  130.9693  180.3420 O   0  0  0  0  0  0  0  0  0  0  0  0
  159.1497  130.5316  182.6555 N   0  0  0  0  0  0  0  0  0  0  0  0
  160.2995  130.2545  181.9435 H   0  0  0  0  0  0  0  0  0  0  0  0
  159.6474  130.0023  183.7390 C   0  0  0  0  0  0  0  0  0  0  0  0
  160.2034  130.8278  184.7381 C   0  0  0  0  0  0  0  0  0  0  0  0
  160.7441  130.3685  185.8811 C   0  0  0  0  0  0  0  0  0  0  0  0
  160.7670  129.0096  186.0973 C   0  0  0  0  0  0  0  0  0  0  0  0
  160.2543  128.1521  185.1858 N   0  0  0  0  0  0  0  0  0  0  0  0
  159.7068  128.6248  184.0422 C   0  0  0  0  0  0  0  0  0  0  0  0
  161.3750  128.4502  187.2654 N   0  0  0  0  0  0  0  0  0  0  0  0
  162.5343  127.6069  187.1090 C   0  0  0  0  0  0  0  0  0  0  0  0
  163.5865  127.7453  188.1464 C   0  0  0  0  0  0  0  0  0  0  0  0
  163.2159  128.5506  189.3416 C   0  0  0  0  0  0  0  0  0  0  0  0
  161.7339  128.4560  189.6895 C   0  0  0  0  0  0  0  0  0  0  0  0
  160.8125  128.7079  188.5614 C   0  0  0  0  0  0  0  0  0  0  0  0
  163.9338  128.2608  190.5317 N   0  0  0  0  0  0  0  0  0  0  0  0
  163.5008  127.1412  191.3044 C   0  0  0  0  0  0  0  0  0  0  0  0
  164.0477  127.8513  192.5265 C   0  0  0  0  0  0  0  0  0  0  0  0
  163.8705  129.1017  191.6673 C   0  0  0  0  0  0  0  0  0  0  0  0
  156.4563  140.1067  183.9292 C   0  0  0  0  0  0  0  0  0  0  0  0
  155.7404  141.3395  183.4339 C   0  0  0  0  0  0  0  0  0  0  0  0
  154.4008  141.3065  183.2284 C   0  0  0  0  0  0  0  0  0  0  0  0
  153.7497  142.4600  182.7237 C   0  0  0  0  0  0  0  0  0  0  0  0
  154.4938  143.6062  182.4465 C   0  0  0  0  0  0  0  0  0  0  0  0
  155.8784  143.5245  182.6961 C   0  0  0  0  0  0  0  0  0  0  0  0
  156.4981  142.4518  183.1719 C   0  0  0  0  0  0  0  0  0  0  0  0
 18 19  2  0  0  0
 19 17  1  0  0  0
 17  1  1  0  0  0
  1  2  1  0  0  0
  2  3  1  0  0  0
  3  4  2  0  0  0
  3  5  1  0  0  0
  5  6  1  0  0  0
  6 20  1  0  0  0
 20 21  1  0  0  0
 21 22  2  0  0  0
 22 23  1  0  0  0
 23 24  2  0  0  0
 24 25  1  0  0  0
 24 26  1  0  0  0
 26 27  2  0  0  0
  6  7  1  0  0  0
  7  8  2  0  0  0
  7  9  1  0  0  0
  9 29  1  0  0  0
 29 30  1  0  0  0
 30 31  2  0  0  0
 31 32  1  0  0  0
 32 33  2  0  0  0
 33 34  1  0  0  0
 34 35  1  0  0  0
 35 40  1  0  0  0
 40 41  2  0  0  0
 40 42  1  0  0  0
 42 44  1  0  0  0
 44 45  2  0  0  0
 45 46  1  0  0  0
 46 47  2  0  0  0
 47 50  1  0  0  0
 50 51  1  0  0  0
 51 52  1  0  0  0
 52 53  1  0  0  0
 53 56  1  0  0  0
 56 57  1  0  0  0
 57 58  1  0  0  0
 58 59  1  0  0  0
 53 54  1  0  0  0
 54 55  1  0  0  0
 47 48  1  0  0  0
 48 49  2  0  0  0
 35 36  2  0  0  0
 36 37  1  0  0  0
 37 38  1  0  0  0
 37 39  1  0  0  0
  9 10  1  0  0  0
 10 11  1  0  0  0
 11 12  1  0  0  0
 12 13  1  0  0  0
 13 14  2  0  0  0
 13 15  1  0  0  0
 15 60  1  0  0  0
 60 61  1  0  0  0
 61 62  2  0  0  0
 62 63  1  0  0  0
 63 64  2  0  0  0
 64 65  1  0  0  0
 65 66  2  0  0  0
 12  1  1  0  0  0
 66 61  1  0  0  0
 11  5  1  0  0  0
 27 21  1  0  0  0
 39 30  1  0  0  0
 39 34  2  0  0  0
 49 44  1  0  0  0
 55 50  1  0  0  0
 59 56  1  0  0  0
 25 28  1  0  0  0
 42 43  1  0  0  0
 15 16  1  0  0  0
M  END
> <minimizedAffinity>
-9.76288

> <CNNscore>
0.2445488721

> <CNNaffinity>
7.1691536903

> <CNN_VS>
1.7532083988

> <CNNaffinity_variance>
0.1950978339

$$$$
[H]Oc1c([H])c([H])c(C([H])([H])[C@@]2([H])C(=O)N(C([H])([H])c3c([H])c([H])c([H])c4c(C(=O)N([H])c5c([H])nc(N6C([H])([H])C([H])([H])C([H])(N7C([H])([H])C([H])([H])C7([H])[H])C([H])([H])C6([H])[H])c([H])c5[H])c([H])n(C([H])([H])[H])c34)C([H])([H])[C@]3([H])N(C(=O)N([H])C([H])([H])c4c([H])c([H])c([H])c([H])c4[H])N(C([H])([H])C([H])=C([H])[H])C([H])([H])C(=O)N23)c([H])c1[H]


 66 74  0  0  0  0  0  0  0  0999 V2000
  160.3932  127.9009  183.7291 N   0  0  0  0  0  0  0  0  0  0  0  0
  160.0267  127.1267  184.9014 C   0  0  0  0  0  0  0  0  0  0  0  0
  160.3293  128.0943  186.0332 C   0  0  0  0  0  0  0  0  0  0  0  0
  161.0429  127.6712  186.9605 O   0  0  0  0  0  0  0  0  0  0  0  0
  159.8008  129.3843  185.9850 N   0  0  0  0  0  0  0  0  0  0  0  0
  159.5835  130.1326  187.1901 C   0  0  0  0  0  0  0  0  0  0  0  0
  158.0817  130.0727  187.3419 C   0  0  0  0  0  0  0  0  0  0  0  0
  157.5648  129.8726  188.4277 O   0  0  0  0  0  0  0  0  0  0  0  0
  157.3109  130.2594  186.1774 N   0  0  0  0  0  0  0  0  0  0  0  0
  157.9293  130.4181  184.8386 C   0  0  0  0  0  0  0  0  0  0  0  0
  159.3511  129.9727  184.7513 C   0  0  0  0  0  0  0  0  0  0  0  0
  159.7086  129.1323  183.6314 N   0  0  0  0  0  0  0  0  0  0  0  0
  159.4031  129.5234  182.2909 C   0  0  0  0  0  0  0  0  0  0  0  0
  159.7013  128.6913  181.3691 O   0  0  0  0  0  0  0  0  0  0  0  0
  158.8145  130.7212  181.8671 N   0  0  0  0  0  0  0  0  0  0  0  0
  158.5507  131.4471  182.5337 H   0  0  0  0  0  0  0  0  0  0  0  0
  161.8324  128.0738  183.8572 C   0  0  0  0  0  0  0  0  0  0  0  0
  163.5169  127.5206  182.1992 C   0  0  0  0  0  0  0  0  0  0  0  0
  162.6276  127.1521  183.0817 C   0  0  0  0  0  0  0  0  0  0  0  0
  160.0783  131.5141  187.2746 C   0  0  0  0  0  0  0  0  0  0  0  0
  159.3050  132.5167  188.0116 C   0  0  0  0  0  0  0  0  0  0  0  0
  159.3870  132.5904  189.4033 C   0  0  0  0  0  0  0  0  0  0  0  0
  158.6127  133.4865  190.1087 C   0  0  0  0  0  0  0  0  0  0  0  0
  157.7250  134.3473  189.4947 C   0  0  0  0  0  0  0  0  0  0  0  0
  156.9799  135.2237  190.2607 O   0  0  0  0  0  0  0  0  0  0  0  0
  157.6404  134.2776  188.1322 C   0  0  0  0  0  0  0  0  0  0  0  0
  158.4173  133.3763  187.4045 C   0  0  0  0  0  0  0  0  0  0  0  0
  157.0531  135.2678  191.2713 H   0  0  0  0  0  0  0  0  0  0  0  0
  155.8472  130.2802  186.1606 C   0  0  0  0  0  0  0  0  0  0  0  0
  155.3879  131.6068  185.7378 C   0  0  0  0  0  0  0  0  0  0  0  0
  155.5756  132.0611  184.4586 C   0  0  0  0  0  0  0  0  0  0  0  0
  155.1964  133.3333  184.0661 C   0  0  0  0  0  0  0  0  0  0  0  0
  154.6063  134.1883  184.9788 C   0  0  0  0  0  0  0  0  0  0  0  0
  154.4079  133.7338  186.2888 C   0  0  0  0  0  0  0  0  0  0  0  0
  153.8473  134.3238  187.3717 C   0  0  0  0  0  0  0  0  0  0  0  0
  153.8921  133.4100  188.3854 C   0  0  0  0  0  0  0  0  0  0  0  0
  154.4653  132.2638  187.9781 N   0  0  0  0  0  0  0  0  0  0  0  0
  154.6803  131.0817  188.7750 C   0  0  0  0  0  0  0  0  0  0  0  0
  154.7947  132.4543  186.6686 C   0  0  0  0  0  0  0  0  0  0  0  0
  153.2941  135.7130  187.5270 C   0  0  0  0  0  0  0  0  0  0  0  0
  152.3028  135.8963  188.2652 O   0  0  0  0  0  0  0  0  0  0  0  0
  153.9616  136.7264  186.8149 N   0  0  0  0  0  0  0  0  0  0  0  0
  153.2494  137.6396  187.5662 H   0  0  0  0  0  0  0  0  0  0  0  0
  154.5683  137.6790  186.1620 C   0  0  0  0  0  0  0  0  0  0  0  0
  153.9216  138.3215  185.0859 C   0  0  0  0  0  0  0  0  0  0  0  0
  154.4734  139.3060  184.3539 C   0  0  0  0  0  0  0  0  0  0  0  0
  155.7505  139.7164  184.6612 C   0  0  0  0  0  0  0  0  0  0  0  0
  156.4370  139.1484  185.6787 N   0  0  0  0  0  0  0  0  0  0  0  0
  155.8704  138.1632  186.4130 C   0  0  0  0  0  0  0  0  0  0  0  0
  156.4175  140.7201  183.8900 N   0  0  0  0  0  0  0  0  0  0  0  0
  157.5756  141.3714  184.4506 C   0  0  0  0  0  0  0  0  0  0  0  0
  158.6740  141.6797  183.5013 C   0  0  0  0  0  0  0  0  0  0  0  0
  158.3526  141.5029  182.0593 C   0  0  0  0  0  0  0  0  0  0  0  0
  156.8893  141.7854  181.7343 C   0  0  0  0  0  0  0  0  0  0  0  0
  155.9140  141.0837  182.5952 C   0  0  0  0  0  0  0  0  0  0  0  0
  159.1279  142.2721  181.1521 N   0  0  0  0  0  0  0  0  0  0  0  0
  158.9851  143.6916  181.2048 C   0  0  0  0  0  0  0  0  0  0  0  0
  159.3522  143.7215  179.7348 C   0  0  0  0  0  0  0  0  0  0  0  0
  158.8708  142.2721  179.7612 C   0  0  0  0  0  0  0  0  0  0  0  0
  158.5657  130.9865  180.4529 C   0  0  0  0  0  0  0  0  0  0  0  0
  157.2786  131.7554  180.2804 C   0  0  0  0  0  0  0  0  0  0  0  0
  156.2157  131.1678  179.6783 C   0  0  0  0  0  0  0  0  0  0  0  0
  155.0276  131.9170  179.4868 C   0  0  0  0  0  0  0  0  0  0  0  0
  154.9707  133.2417  179.9181 C   0  0  0  0  0  0  0  0  0  0  0  0
  156.1359  133.7481  180.5281 C   0  0  0  0  0  0  0  0  0  0  0  0
  157.2520  133.0553  180.7161 C   0  0  0  0  0  0  0  0  0  0  0  0
 18 19  2  0  0  0
 19 17  1  0  0  0
 17  1  1  0  0  0
  1  2  1  0  0  0
  2  3  1  0  0  0
  3  4  2  0  0  0
  3  5  1  0  0  0
  5  6  1  0  0  0
  6 20  1  0  0  0
 20 21  1  0  0  0
 21 22  2  0  0  0
 22 23  1  0  0  0
 23 24  2  0  0  0
 24 25  1  0  0  0
 24 26  1  0  0  0
 26 27  2  0  0  0
  6  7  1  0  0  0
  7  8  2  0  0  0
  7  9  1  0  0  0
  9 29  1  0  0  0
 29 30  1  0  0  0
 30 31  2  0  0  0
 31 32  1  0  0  0
 32 33  2  0  0  0
 33 34  1  0  0  0
 34 35  1  0  0  0
 35 40  1  0  0  0
 40 41  2  0  0  0
 40 42  1  0  0  0
 42 44  1  0  0  0
 44 45  2  0  0  0
 45 46  1  0  0  0
 46 47  2  0  0  0
 47 50  1  0  0  0
 50 51  1  0  0  0
 51 52  1  0  0  0
 52 53  1  0  0  0
 53 56  1  0  0  0
 56 57  1  0  0  0
 57 58  1  0  0  0
 58 59  1  0  0  0
 53 54  1  0  0  0
 54 55  1  0  0  0
 47 48  1  0  0  0
 48 49  2  0  0  0
 35 36  2  0  0  0
 36 37  1  0  0  0
 37 38  1  0  0  0
 37 39  1  0  0  0
  9 10  1  0  0  0
 10 11  1  0  0  0
 11 12  1  0  0  0
 12 13  1  0  0  0
 13 14  2  0  0  0
 13 15  1  0  0  0
 15 60  1  0  0  0
 60 61  1  0  0  0
 61 62  2  0  0  0
 62 63  1  0  0  0
 63 64  2  0  0  0
 64 65  1  0  0  0
 65 66  2  0  0  0
 12  1  1  0  0  0
 66 61  1  0  0  0
 11  5  1  0  0  0
 27 21  1  0  0  0
 39 30  1  0  0  0
 39 34  2  0  0  0
 49 44  1  0  0  0
 55 50  1  0  0  0
 59 56  1  0  0  0
 25 28  1  0  0  0
 42 43  1  0  0  0
 15 16  1  0  0  0
M  END
> <minimizedAffinity>
-8.68523

> <CNNscore>
0.2206672579

> <CNNaffinity>
7.4215364456

> <CNN_VS>
1.6376900673

> <CNNaffinity_variance>
0.5884971619

$$$$
[H]Oc1c([H])c([H])c(C([H])([H])[C@@]2([H])C(=O)N(C([H])([H])c3c([H])c([H])c([H])c4c(C(=O)N([H])c5c([H])nc(N6C([H])([H])C([H])([H])C([H])(N7C([H])([H])C([H])([H])C7([H])[H])C([H])([H])C6([H])[H])c([H])c5[H])c([H])n(C([H])([H])[H])c34)C([H])([H])[C@]3([H])N(C(=O)N([H])C([H])([H])c4c([H])c([H])c([H])c([H])c4[H])N(C([H])([H])C([H])=C([H])[H])C([H])([H])C(=O)N23)c([H])c1[H]


 66 74  0  0  0  0  0  0  0  0999 V2000
  151.2887  134.5361  192.9953 N   0  0  0  0  0  0  0  0  0  0  0  0
  150.4435  133.3862  192.7280 C   0  0  0  0  0  0  0  0  0  0  0  0
  149.3031  134.0028  191.9355 C   0  0  0  0  0  0  0  0  0  0  0  0
  148.1478  133.7581  192.3275 O   0  0  0  0  0  0  0  0  0  0  0  0
  149.5962  134.7945  190.8252 N   0  0  0  0  0  0  0  0  0  0  0  0
  148.6441  134.9473  189.7623 C   0  0  0  0  0  0  0  0  0  0  0  0
  149.2389  134.0904  188.6696 C   0  0  0  0  0  0  0  0  0  0  0  0
  148.5399  133.3546  187.9940 O   0  0  0  0  0  0  0  0  0  0  0  0
  150.6302  134.1817  188.4677 N   0  0  0  0  0  0  0  0  0  0  0  0
  151.5015  135.0078  189.3387 C   0  0  0  0  0  0  0  0  0  0  0  0
  150.8911  135.3954  190.6444 C   0  0  0  0  0  0  0  0  0  0  0  0
  151.7010  135.2150  191.8274 N   0  0  0  0  0  0  0  0  0  0  0  0
  153.0203  135.7596  191.9061 C   0  0  0  0  0  0  0  0  0  0  0  0
  153.6856  135.4991  192.9646 O   0  0  0  0  0  0  0  0  0  0  0  0
  153.6715  136.5531  190.9538 N   0  0  0  0  0  0  0  0  0  0  0  0
  153.2133  136.8177  190.0815 H   0  0  0  0  0  0  0  0  0  0  0  0
  150.4791  135.3730  193.8680 C   0  0  0  0  0  0  0  0  0  0  0  0
  151.4321  135.1880  196.0928 C   0  0  0  0  0  0  0  0  0  0  0  0
  150.4572  134.9663  195.2526 C   0  0  0  0  0  0  0  0  0  0  0  0
  148.3253  136.2968  189.2745 C   0  0  0  0  0  0  0  0  0  0  0  0
  147.3019  136.4703  188.2408 C   0  0  0  0  0  0  0  0  0  0  0  0
  147.6476  136.9533  186.9773 C   0  0  0  0  0  0  0  0  0  0  0  0
  146.6814  137.1819  186.0212 C   0  0  0  0  0  0  0  0  0  0  0  0
  145.3392  136.9539  186.2505 C   0  0  0  0  0  0  0  0  0  0  0  0
  144.4213  137.2015  185.2475 O   0  0  0  0  0  0  0  0  0  0  0  0
  144.9959  136.4823  187.4868 C   0  0  0  0  0  0  0  0  0  0  0  0
  145.9622  136.2460  188.4645 C   0  0  0  0  0  0  0  0  0  0  0  0
  144.6884  137.5492  184.3330 H   0  0  0  0  0  0  0  0  0  0  0  0
  151.3537  133.4579  187.4209 C   0  0  0  0  0  0  0  0  0  0  0  0
  151.4842  134.3182  186.2409 C   0  0  0  0  0  0  0  0  0  0  0  0
  150.7779  135.4861  186.1182 C   0  0  0  0  0  0  0  0  0  0  0  0
  150.8518  136.2754  184.9834 C   0  0  0  0  0  0  0  0  0  0  0  0
  151.6596  135.8912  183.9288 C   0  0  0  0  0  0  0  0  0  0  0  0
  152.3875  134.7000  184.0440 C   0  0  0  0  0  0  0  0  0  0  0  0
  153.2592  134.0922  183.2039 C   0  0  0  0  0  0  0  0  0  0  0  0
  153.6952  132.9639  183.8375 C   0  0  0  0  0  0  0  0  0  0  0  0
  153.1247  132.8386  185.0487 N   0  0  0  0  0  0  0  0  0  0  0  0
  153.3476  131.7748  185.9961 C   0  0  0  0  0  0  0  0  0  0  0  0
  152.3025  133.9174  185.1891 C   0  0  0  0  0  0  0  0  0  0  0  0
  153.6911  134.4894  181.8198 C   0  0  0  0  0  0  0  0  0  0  0  0
  153.2384  135.5400  181.3171 O   0  0  0  0  0  0  0  0  0  0  0  0
  154.6035  133.6260  181.1861 N   0  0  0  0  0  0  0  0  0  0  0  0
  154.7952  134.6175  180.2451 H   0  0  0  0  0  0  0  0  0  0  0  0
  155.4498  132.8371  180.5833 C   0  0  0  0  0  0  0  0  0  0  0  0
  154.9833  131.7177  179.8634 C   0  0  0  0  0  0  0  0  0  0  0  0
  155.7831  130.8487  179.2193 C   0  0  0  0  0  0  0  0  0  0  0  0
  157.1436  131.0511  179.2634 C   0  0  0  0  0  0  0  0  0  0  0  0
  157.6684  132.1016  179.9343 N   0  0  0  0  0  0  0  0  0  0  0  0
  156.8548  132.9736  180.5735 C   0  0  0  0  0  0  0  0  0  0  0  0
  158.0543  130.1362  178.6465 N   0  0  0  0  0  0  0  0  0  0  0  0
  157.5275  129.1051  177.7870 C   0  0  0  0  0  0  0  0  0  0  0  0
  158.3362  128.7812  176.5855 C   0  0  0  0  0  0  0  0  0  0  0  0
  159.6978  129.3795  176.5405 C   0  0  0  0  0  0  0  0  0  0  0  0
  160.3209  129.5511  177.9221 C   0  0  0  0  0  0  0  0  0  0  0  0
  159.4622  130.2359  178.9113 C   0  0  0  0  0  0  0  0  0  0  0  0
  160.6518  128.6916  175.7452 N   0  0  0  0  0  0  0  0  0  0  0  0
  160.7301  129.0413  174.3633 C   0  0  0  0  0  0  0  0  0  0  0  0
  161.2091  127.6285  174.0963 C   0  0  0  0  0  0  0  0  0  0  0  0
  160.5054  127.3235  175.4172 C   0  0  0  0  0  0  0  0  0  0  0  0
  155.0284  137.0455  191.1751 C   0  0  0  0  0  0  0  0  0  0  0  0
  156.0294  136.1642  190.4688 C   0  0  0  0  0  0  0  0  0  0  0  0
  156.6167  135.1400  191.1349 C   0  0  0  0  0  0  0  0  0  0  0  0
  157.5854  134.3472  190.4697 C   0  0  0  0  0  0  0  0  0  0  0  0
  157.9189  134.6321  189.1461 C   0  0  0  0  0  0  0  0  0  0  0  0
  157.2468  135.7212  188.5558 C   0  0  0  0  0  0  0  0  0  0  0  0
  156.3358  136.4677  189.1671 C   0  0  0  0  0  0  0  0  0  0  0  0
 18 19  2  0  0  0
 19 17  1  0  0  0
 17  1  1  0  0  0
  1  2  1  0  0  0
  2  3  1  0  0  0
  3  4  2  0  0  0
  3  5  1  0  0  0
  5  6  1  0  0  0
  6 20  1  0  0  0
 20 21  1  0  0  0
 21 22  2  0  0  0
 22 23  1  0  0  0
 23 24  2  0  0  0
 24 25  1  0  0  0
 24 26  1  0  0  0
 26 27  2  0  0  0
  6  7  1  0  0  0
  7  8  2  0  0  0
  7  9  1  0  0  0
  9 29  1  0  0  0
 29 30  1  0  0  0
 30 31  2  0  0  0
 31 32  1  0  0  0
 32 33  2  0  0  0
 33 34  1  0  0  0
 34 35  1  0  0  0
 35 40  1  0  0  0
 40 41  2  0  0  0
 40 42  1  0  0  0
 42 44  1  0  0  0
 44 45  2  0  0  0
 45 46  1  0  0  0
 46 47  2  0  0  0
 47 50  1  0  0  0
 50 51  1  0  0  0
 51 52  1  0  0  0
 52 53  1  0  0  0
 53 56  1  0  0  0
 56 57  1  0  0  0
 57 58  1  0  0  0
 58 59  1  0  0  0
 53 54  1  0  0  0
 54 55  1  0  0  0
 47 48  1  0  0  0
 48 49  2  0  0  0
 35 36  2  0  0  0
 36 37  1  0  0  0
 37 38  1  0  0  0
 37 39  1  0  0  0
  9 10  1  0  0  0
 10 11  1  0  0  0
 11 12  1  0  0  0
 12 13  1  0  0  0
 13 14  2  0  0  0
 13 15  1  0  0  0
 15 60  1  0  0  0
 60 61  1  0  0  0
 61 62  2  0  0  0
 62 63  1  0  0  0
 63 64  2  0  0  0
 64 65  1  0  0  0
 65 66  2  0  0  0
 12  1  1  0  0  0
 66 61  1  0  0  0
 11  5  1  0  0  0
 27 21  1  0  0  0
 39 30  1  0  0  0
 39 34  2  0  0  0
 49 44  1  0  0  0
 55 50  1  0  0  0
 59 56  1  0  0  0
 25 28  1  0  0  0
 42 43  1  0  0  0
 15 16  1  0  0  0
M  END
> <minimizedAffinity>
-7.33149

> <CNNscore>
0.2083452791

> <CNNaffinity>
6.5589241982

> <CNN_VS>
1.3665208817

> <CNNaffinity_variance>
0.0333571546

$$$$
[H]Oc1c([H])c([H])c(C([H])([H])[C@@]2([H])C(=O)N(C([H])([H])c3c([H])c([H])c([H])c4c(C(=O)N([H])c5c([H])nc(N6C([H])([H])C([H])([H])C([H])(N7C([H])([H])C([H])([H])C7([H])[H])C([H])([H])C6([H])[H])c([H])c5[H])c([H])n(C([H])([H])[H])c34)C([H])([H])[C@]3([H])N(C(=O)N([H])C([H])([H])c4c([H])c([H])c([H])c([H])c4[H])N(C([H])([H])C([H])=C([H])[H])C([H])([H])C(=O)N23)c([H])c1[H]


 66 74  0  0  0  0  0  0  0  0999 V2000
  148.6768  136.9744  182.2615 N   0  0  0  0  0  0  0  0  0  0  0  0
  148.4212  135.8568  183.1524 C   0  0  0  0  0  0  0  0  0  0  0  0
  148.8275  134.6666  182.2997 C   0  0  0  0  0  0  0  0  0  0  0  0
  148.0030  133.7405  182.1956 O   0  0  0  0  0  0  0  0  0  0  0  0
  150.0815  134.6637  181.6889 N   0  0  0  0  0  0  0  0  0  0  0  0
  150.7284  133.4283  181.3498 C   0  0  0  0  0  0  0  0  0  0  0  0
  151.8067  133.3280  182.4031 C   0  0  0  0  0  0  0  0  0  0  0  0
  152.0466  132.2713  182.9617 O   0  0  0  0  0  0  0  0  0  0  0  0
  152.5190  134.5051  182.7068 N   0  0  0  0  0  0  0  0  0  0  0  0
  152.1786  135.8132  182.0960 C   0  0  0  0  0  0  0  0  0  0  0  0
  150.8227  135.8784  181.4758 C   0  0  0  0  0  0  0  0  0  0  0  0
  150.0089  137.0290  181.7952 N   0  0  0  0  0  0  0  0  0  0  0  0
  150.5123  138.3561  181.6264 C   0  0  0  0  0  0  0  0  0  0  0  0
  149.7460  139.3104  181.9911 O   0  0  0  0  0  0  0  0  0  0  0  0
  151.7540  138.7349  181.1015 N   0  0  0  0  0  0  0  0  0  0  0  0
  152.4268  138.0397  180.7775 H   0  0  0  0  0  0  0  0  0  0  0  0
  147.7175  136.7915  181.1828 C   0  0  0  0  0  0  0  0  0  0  0  0
  146.6696  138.8542  180.4483 C   0  0  0  0  0  0  0  0  0  0  0  0
  146.6435  137.7553  181.1534 C   0  0  0  0  0  0  0  0  0  0  0  0
  151.2790  133.2555  179.9979 C   0  0  0  0  0  0  0  0  0  0  0  0
  151.9752  132.0136  179.6526 C   0  0  0  0  0  0  0  0  0  0  0  0
  151.3552  130.7778  179.8466 C   0  0  0  0  0  0  0  0  0  0  0  0
  152.0278  129.6030  179.5865 C   0  0  0  0  0  0  0  0  0  0  0  0
  153.3304  129.5770  179.1295 C   0  0  0  0  0  0  0  0  0  0  0  0
  153.9465  128.3641  178.8857 O   0  0  0  0  0  0  0  0  0  0  0  0
  153.9418  130.7847  178.9396 C   0  0  0  0  0  0  0  0  0  0  0  0
  153.2743  131.9818  179.1982 C   0  0  0  0  0  0  0  0  0  0  0  0
  153.4815  127.4742  179.0283 H   0  0  0  0  0  0  0  0  0  0  0  0
  153.6245  134.5675  183.6644 C   0  0  0  0  0  0  0  0  0  0  0  0
  154.7826  133.8580  183.1120 C   0  0  0  0  0  0  0  0  0  0  0  0
  155.0601  133.8656  181.7700 C   0  0  0  0  0  0  0  0  0  0  0  0
  156.1180  133.1523  181.2330 C   0  0  0  0  0  0  0  0  0  0  0  0
  156.9337  132.4026  182.0607 C   0  0  0  0  0  0  0  0  0  0  0  0
  156.6604  132.3891  183.4343 C   0  0  0  0  0  0  0  0  0  0  0  0
  157.2838  131.7790  184.4709 C   0  0  0  0  0  0  0  0  0  0  0  0
  156.6048  132.1321  185.6018 C   0  0  0  0  0  0  0  0  0  0  0  0
  155.5718  132.9427  185.3122 N   0  0  0  0  0  0  0  0  0  0  0  0
  154.6391  133.5129  186.2523 C   0  0  0  0  0  0  0  0  0  0  0  0
  155.5941  133.1095  183.9590 C   0  0  0  0  0  0  0  0  0  0  0  0
  158.4683  130.8533  184.4657 C   0  0  0  0  0  0  0  0  0  0  0  0
  158.9077  130.4303  183.3751 O   0  0  0  0  0  0  0  0  0  0  0  0
  159.0085  130.5350  185.7252 N   0  0  0  0  0  0  0  0  0  0  0  0
  160.0967  130.0090  185.0582 H   0  0  0  0  0  0  0  0  0  0  0  0
  159.5229  130.2290  186.8844 C   0  0  0  0  0  0  0  0  0  0  0  0
  159.6321  131.2110  187.8907 C   0  0  0  0  0  0  0  0  0  0  0  0
  160.1550  130.9866  189.1097 C   0  0  0  0  0  0  0  0  0  0  0  0
  160.6211  129.7253  189.4025 C   0  0  0  0  0  0  0  0  0  0  0  0
  160.5526  128.7298  188.4896 N   0  0  0  0  0  0  0  0  0  0  0  0
  160.0189  128.9644  187.2686 C   0  0  0  0  0  0  0  0  0  0  0  0
  161.2383  129.4312  190.6594 N   0  0  0  0  0  0  0  0  0  0  0  0
  161.4953  130.5134  191.5771 C   0  0  0  0  0  0  0  0  0  0  0  0
  161.2950  130.2101  193.0160 C   0  0  0  0  0  0  0  0  0  0  0  0
  161.0915  128.7752  193.3533 C   0  0  0  0  0  0  0  0  0  0  0  0
  161.8352  127.8298  192.4154 C   0  0  0  0  0  0  0  0  0  0  0  0
  161.6170  128.0825  190.9756 C   0  0  0  0  0  0  0  0  0  0  0  0
  161.4380  128.3938  194.6763 N   0  0  0  0  0  0  0  0  0  0  0  0
  160.8885  127.1737  195.1739 C   0  0  0  0  0  0  0  0  0  0  0  0
  160.9780  127.7719  196.5634 C   0  0  0  0  0  0  0  0  0  0  0  0
  160.9632  129.0987  195.8069 C   0  0  0  0  0  0  0  0  0  0  0  0
  152.1322  140.1404  180.9842 C   0  0  0  0  0  0  0  0  0  0  0  0
  153.1350  140.5061  182.0510 C   0  0  0  0  0  0  0  0  0  0  0  0
  153.5706  141.7852  182.1592 C   0  0  0  0  0  0  0  0  0  0  0  0
  154.5435  142.1042  183.1396 C   0  0  0  0  0  0  0  0  0  0  0  0
  155.0364  141.1015  183.9738 C   0  0  0  0  0  0  0  0  0  0  0  0
  154.5134  139.8089  183.7690 C   0  0  0  0  0  0  0  0  0  0  0  0
  153.6001  139.4994  182.8575 C   0  0  0  0  0  0  0  0  0  0  0  0
 18 19  2  0  0  0
 19 17  1  0  0  0
 17  1  1  0  0  0
  1  2  1  0  0  0
  2  3  1  0  0  0
  3  4  2  0  0  0
  3  5  1  0  0  0
  5  6  1  0  0  0
  6 20  1  0  0  0
 20 21  1  0  0  0
 21 22  2  0  0  0
 22 23  1  0  0  0
 23 24  2  0  0  0
 24 25  1  0  0  0
 24 26  1  0  0  0
 26 27  2  0  0  0
  6  7  1  0  0  0
  7  8  2  0  0  0
  7  9  1  0  0  0
  9 29  1  0  0  0
 29 30  1  0  0  0
 30 31  2  0  0  0
 31 32  1  0  0  0
 32 33  2  0  0  0
 33 34  1  0  0  0
 34 35  1  0  0  0
 35 40  1  0  0  0
 40 41  2  0  0  0
 40 42  1  0  0  0
 42 44  1  0  0  0
 44 45  2  0  0  0
 45 46  1  0  0  0
 46 47  2  0  0  0
 47 50  1  0  0  0
 50 51  1  0  0  0
 51 52  1  0  0  0
 52 53  1  0  0  0
 53 56  1  0  0  0
 56 57  1  0  0  0
 57 58  1  0  0  0
 58 59  1  0  0  0
 53 54  1  0  0  0
 54 55  1  0  0  0
 47 48  1  0  0  0
 48 49  2  0  0  0
 35 36  2  0  0  0
 36 37  1  0  0  0
 37 38  1  0  0  0
 37 39  1  0  0  0
  9 10  1  0  0  0
 10 11  1  0  0  0
 11 12  1  0  0  0
 12 13  1  0  0  0
 13 14  2  0  0  0
 13 15  1  0  0  0
 15 60  1  0  0  0
 60 61  1  0  0  0
 61 62  2  0  0  0
 62 63  1  0  0  0
 63 64  2  0  0  0
 64 65  1  0  0  0
 65 66  2  0  0  0
 12  1  1  0  0  0
 66 61  1  0  0  0
 11  5  1  0  0  0
 27 21  1  0  0  0
 39 30  1  0  0  0
 39 34  2  0  0  0
 49 44  1  0  0  0
 55 50  1  0  0  0
 59 56  1  0  0  0
 25 28  1  0  0  0
 42 43  1  0  0  0
 15 16  1  0  0  0
M  END
> <minimizedAffinity>
-7.56817

> <CNNscore>
0.1957887411

> <CNNaffinity>
6.5117912292

> <CNN_VS>
1.2749353647

> <CNNaffinity_variance>
0.1683748662

$$$$
[H]Oc1c([H])c([H])c(C([H])([H])[C@@]2([H])C(=O)N(C([H])([H])c3c([H])c([H])c([H])c4c(C(=O)N([H])c5c([H])nc(N6C([H])([H])C([H])([H])C([H])(N7C([H])([H])C([H])([H])C7([H])[H])C([H])([H])C6([H])[H])c([H])c5[H])c([H])n(C([H])([H])[H])c34)C([H])([H])[C@]3([H])N(C(=O)N([H])C([H])([H])c4c([H])c([H])c([H])c([H])c4[H])N(C([H])([H])C([H])=C([H])[H])C([H])([H])C(=O)N23)c([H])c1[H]


 66 74  0  0  0  0  0  0  0  0999 V2000
  146.3723  136.9458  181.0778 N   0  0  0  0  0  0  0  0  0  0  0  0
  145.9736  135.8140  181.8952 C   0  0  0  0  0  0  0  0  0  0  0  0
  145.9189  134.6864  180.8781 C   0  0  0  0  0  0  0  0  0  0  0  0
  144.8753  134.0097  180.8429 O   0  0  0  0  0  0  0  0  0  0  0  0
  147.0193  134.4625  180.0508 N   0  0  0  0  0  0  0  0  0  0  0  0
  147.2612  133.1645  179.4885 C   0  0  0  0  0  0  0  0  0  0  0  0
  148.4244  132.6660  180.3135 C   0  0  0  0  0  0  0  0  0  0  0  0
  148.4629  131.5175  180.7206 O   0  0  0  0  0  0  0  0  0  0  0  0
  149.4572  133.5843  180.5874 N   0  0  0  0  0  0  0  0  0  0  0  0
  149.3807  135.0057  180.1705 C   0  0  0  0  0  0  0  0  0  0  0  0
  148.0102  135.4793  179.8170 C   0  0  0  0  0  0  0  0  0  0  0  0
  147.5842  136.7389  180.3828 N   0  0  0  0  0  0  0  0  0  0  0  0
  148.3847  137.9152  180.2461 C   0  0  0  0  0  0  0  0  0  0  0  0
  147.9597  138.9686  180.8298 O   0  0  0  0  0  0  0  0  0  0  0  0
  149.5862  138.0495  179.5397 N   0  0  0  0  0  0  0  0  0  0  0  0
  149.9961  137.2624  179.0365 H   0  0  0  0  0  0  0  0  0  0  0  0
  145.2444  137.1467  180.1805 C   0  0  0  0  0  0  0  0  0  0  0  0
  143.6243  138.8721  179.6414 C   0  0  0  0  0  0  0  0  0  0  0  0
  144.4041  138.2752  180.5023 C   0  0  0  0  0  0  0  0  0  0  0  0
  147.5329  133.0467  178.0487 C   0  0  0  0  0  0  0  0  0  0  0  0
  146.5229  133.4857  177.0826 C   0  0  0  0  0  0  0  0  0  0  0  0
  146.8649  134.3618  176.0508 C   0  0  0  0  0  0  0  0  0  0  0  0
  145.9068  134.8313  175.1779 C   0  0  0  0  0  0  0  0  0  0  0  0
  144.5767  134.4728  175.2701 C   0  0  0  0  0  0  0  0  0  0  0  0
  143.6668  134.9776  174.3606 O   0  0  0  0  0  0  0  0  0  0  0  0
  144.2372  133.6163  176.2798 C   0  0  0  0  0  0  0  0  0  0  0  0
  145.1952  133.1327  177.1707 C   0  0  0  0  0  0  0  0  0  0  0  0
  143.9312  135.6109  173.6139 H   0  0  0  0  0  0  0  0  0  0  0  0
  150.6742  133.2485  181.3286 C   0  0  0  0  0  0  0  0  0  0  0  0
  150.7099  134.0213  182.5740 C   0  0  0  0  0  0  0  0  0  0  0  0
  149.5670  134.3298  183.2643 C   0  0  0  0  0  0  0  0  0  0  0  0
  149.5859  135.1069  184.4097 C   0  0  0  0  0  0  0  0  0  0  0  0
  150.7868  135.5963  184.8901 C   0  0  0  0  0  0  0  0  0  0  0  0
  151.9616  135.2857  184.1935 C   0  0  0  0  0  0  0  0  0  0  0  0
  153.2585  135.5970  184.4306 C   0  0  0  0  0  0  0  0  0  0  0  0
  153.9922  135.0077  183.4412 C   0  0  0  0  0  0  0  0  0  0  0  0
  153.2003  134.3372  182.5860 N   0  0  0  0  0  0  0  0  0  0  0  0
  153.6254  133.5950  181.4253 C   0  0  0  0  0  0  0  0  0  0  0  0
  151.9269  134.5051  183.0443 C   0  0  0  0  0  0  0  0  0  0  0  0
  153.8568  136.4446  185.5186 C   0  0  0  0  0  0  0  0  0  0  0  0
  153.5778  137.6616  185.5674 O   0  0  0  0  0  0  0  0  0  0  0  0
  154.7006  135.7786  186.4264 N   0  0  0  0  0  0  0  0  0  0  0  0
  154.6322  136.9044  187.2223 H   0  0  0  0  0  0  0  0  0  0  0  0
  155.4855  135.1777  187.2776 C   0  0  0  0  0  0  0  0  0  0  0  0
  156.5589  135.8782  187.8659 C   0  0  0  0  0  0  0  0  0  0  0  0
  157.4207  135.3370  188.7457 C   0  0  0  0  0  0  0  0  0  0  0  0
  157.2583  134.0163  189.0968 C   0  0  0  0  0  0  0  0  0  0  0  0
  156.2533  133.2771  188.5748 N   0  0  0  0  0  0  0  0  0  0  0  0
  155.3879  133.8328  187.6956 C   0  0  0  0  0  0  0  0  0  0  0  0
  158.1702  133.3629  189.9847 N   0  0  0  0  0  0  0  0  0  0  0  0
  157.9337  133.4418  191.4050 C   0  0  0  0  0  0  0  0  0  0  0  0
  158.2414  132.2182  192.1866 C   0  0  0  0  0  0  0  0  0  0  0  0
  158.9778  131.1513  191.4563 C   0  0  0  0  0  0  0  0  0  0  0  0
  159.9226  131.6990  190.3915 C   0  0  0  0  0  0  0  0  0  0  0  0
  159.3129  132.6701  189.4587 C   0  0  0  0  0  0  0  0  0  0  0  0
  159.7396  130.2622  192.2595 N   0  0  0  0  0  0  0  0  0  0  0  0
  160.2083  130.7499  193.5167 C   0  0  0  0  0  0  0  0  0  0  0  0
  161.3684  129.7831  193.3896 C   0  0  0  0  0  0  0  0  0  0  0  0
  161.0471  129.8614  191.8984 C   0  0  0  0  0  0  0  0  0  0  0  0
  150.2957  139.3246  179.4833 C   0  0  0  0  0  0  0  0  0  0  0  0
  151.3804  139.3698  180.5317 C   0  0  0  0  0  0  0  0  0  0  0  0
  151.6131  138.2851  181.3107 C   0  0  0  0  0  0  0  0  0  0  0  0
  152.6074  138.3576  182.3184 C   0  0  0  0  0  0  0  0  0  0  0  0
  153.3275  139.5388  182.4931 C   0  0  0  0  0  0  0  0  0  0  0  0
  152.9986  140.6016  181.6280 C   0  0  0  0  0  0  0  0  0  0  0  0
  152.0729  140.5441  180.6789 C   0  0  0  0  0  0  0  0  0  0  0  0
 18 19  2  0  0  0
 19 17  1  0  0  0
 17  1  1  0  0  0
  1  2  1  0  0  0
  2  3  1  0  0  0
  3  4  2  0  0  0
  3  5  1  0  0  0
  5  6  1  0  0  0
  6 20  1  0  0  0
 20 21  1  0  0  0
 21 22  2  0  0  0
 22 23  1  0  0  0
 23 24  2  0  0  0
 24 25  1  0  0  0
 24 26  1  0  0  0
 26 27  2  0  0  0
  6  7  1  0  0  0
  7  8  2  0  0  0
  7  9  1  0  0  0
  9 29  1  0  0  0
 29 30  1  0  0  0
 30 31  2  0  0  0
 31 32  1  0  0  0
 32 33  2  0  0  0
 33 34  1  0  0  0
 34 35  1  0  0  0
 35 40  1  0  0  0
 40 41  2  0  0  0
 40 42  1  0  0  0
 42 44  1  0  0  0
 44 45  2  0  0  0
 45 46  1  0  0  0
 46 47  2  0  0  0
 47 50  1  0  0  0
 50 51  1  0  0  0
 51 52  1  0  0  0
 52 53  1  0  0  0
 53 56  1  0  0  0
 56 57  1  0  0  0
 57 58  1  0  0  0
 58 59  1  0  0  0
 53 54  1  0  0  0
 54 55  1  0  0  0
 47 48  1  0  0  0
 48 49  2  0  0  0
 35 36  2  0  0  0
 36 37  1  0  0  0
 37 38  1  0  0  0
 37 39  1  0  0  0
  9 10  1  0  0  0
 10 11  1  0  0  0
 11 12  1  0  0  0
 12 13  1  0  0  0
 13 14  2  0  0  0
 13 15  1  0  0  0
 15 60  1  0  0  0
 60 61  1  0  0  0
 61 62  2  0  0  0
 62 63  1  0  0  0
 63 64  2  0  0  0
 64 65  1  0  0  0
 65 66  2  0  0  0
 12  1  1  0  0  0
 66 61  1  0  0  0
 11  5  1  0  0  0
 27 21  1  0  0  0
 39 30  1  0  0  0
 39 34  2  0  0  0
 49 44  1  0  0  0
 55 50  1  0  0  0
 59 56  1  0  0  0
 25 28  1  0  0  0
 42 43  1  0  0  0
 15 16  1  0  0  0
M  END
> <minimizedAffinity>
-6.79640

> <CNNscore>
0.1809193641

> <CNNaffinity>
6.5076856613

> <CNN_VS>
1.1773663759

> <CNNaffinity_variance>
0.2285549194

$$$$
[H]Oc1c([H])c([H])c(C([H])([H])[C@@]2([H])C(=O)N(C([H])([H])c3c([H])c([H])c([H])c4c(C(=O)N([H])c5c([H])nc(N6C([H])([H])C([H])([H])C([H])(N7C([H])([H])C([H])([H])C7([H])[H])C([H])([H])C6([H])[H])c([H])c5[H])c([H])n(C([H])([H])[H])c34)C([H])([H])[C@]3([H])N(C(=O)N([H])C([H])([H])c4c([H])c([H])c([H])c([H])c4[H])N(C([H])([H])C([H])=C([H])[H])C([H])([H])C(=O)N23)c([H])c1[H]


 66 74  0  0  0  0  0  0  0  0999 V2000
  149.8639  138.3037  181.1397 N   0  0  0  0  0  0  0  0  0  0  0  0
  148.9003  139.1899  181.7674 C   0  0  0  0  0  0  0  0  0  0  0  0
  147.5924  138.7399  181.1385 C   0  0  0  0  0  0  0  0  0  0  0  0
  146.8778  139.6233  180.6313 O   0  0  0  0  0  0  0  0  0  0  0  0
  147.2566  137.3863  181.1619 N   0  0  0  0  0  0  0  0  0  0  0  0
  145.8846  136.9705  181.0973 C   0  0  0  0  0  0  0  0  0  0  0  0
  145.6099  136.5392  182.5189 C   0  0  0  0  0  0  0  0  0  0  0  0
  144.5675  136.8350  183.0776 O   0  0  0  0  0  0  0  0  0  0  0  0
  146.6078  135.7825  183.1643 N   0  0  0  0  0  0  0  0  0  0  0  0
  147.9138  135.4901  182.5249 C   0  0  0  0  0  0  0  0  0  0  0  0
  148.2487  136.3634  181.3619 C   0  0  0  0  0  0  0  0  0  0  0  0
  149.5758  136.9341  181.3295 N   0  0  0  0  0  0  0  0  0  0  0  0
  150.7351  136.1092  181.4665 C   0  0  0  0  0  0  0  0  0  0  0  0
  151.8639  136.7061  181.4873 O   0  0  0  0  0  0  0  0  0  0  0  0
  150.7784  134.7141  181.5778 N   0  0  0  0  0  0  0  0  0  0  0  0
  149.9256  134.1544  181.5625 H   0  0  0  0  0  0  0  0  0  0  0  0
  149.8344  138.6885  179.7366 C   0  0  0  0  0  0  0  0  0  0  0  0
  152.0056  139.7738  179.7576 C   0  0  0  0  0  0  0  0  0  0  0  0
  150.7580  139.7363  179.3733 C   0  0  0  0  0  0  0  0  0  0  0  0
  145.4958  135.9299  180.1347 C   0  0  0  0  0  0  0  0  0  0  0  0
  145.5613  136.2109  178.6984 C   0  0  0  0  0  0  0  0  0  0  0  0
  145.0447  137.4027  178.1866 C   0  0  0  0  0  0  0  0  0  0  0  0
  145.0428  137.6451  176.8297 C   0  0  0  0  0  0  0  0  0  0  0  0
  145.5397  136.7414  175.9117 C   0  0  0  0  0  0  0  0  0  0  0  0
  145.5101  137.0475  174.5643 O   0  0  0  0  0  0  0  0  0  0  0  0
  146.0451  135.5725  176.4083 C   0  0  0  0  0  0  0  0  0  0  0  0
  146.0541  135.3128  177.7787 C   0  0  0  0  0  0  0  0  0  0  0  0
  145.1345  137.9195  174.2080 H   0  0  0  0  0  0  0  0  0  0  0  0
  146.4781  135.2462  184.5202 C   0  0  0  0  0  0  0  0  0  0  0  0
  147.6345  135.6655  185.3181 C   0  0  0  0  0  0  0  0  0  0  0  0
  147.8082  136.9681  185.7070 C   0  0  0  0  0  0  0  0  0  0  0  0
  148.9251  137.3834  186.4114 C   0  0  0  0  0  0  0  0  0  0  0  0
  149.9083  136.4697  186.7444 C   0  0  0  0  0  0  0  0  0  0  0  0
  149.7403  135.1352  186.3536 C   0  0  0  0  0  0  0  0  0  0  0  0
  150.5062  134.0354  186.5514 C   0  0  0  0  0  0  0  0  0  0  0  0
  149.8468  132.9875  185.9754 C   0  0  0  0  0  0  0  0  0  0  0  0
  148.6915  133.3908  185.4181 N   0  0  0  0  0  0  0  0  0  0  0  0
  147.7377  132.5610  184.7249 C   0  0  0  0  0  0  0  0  0  0  0  0
  148.6140  134.7331  185.6459 C   0  0  0  0  0  0  0  0  0  0  0  0
  151.8435  133.9080  187.2261 C   0  0  0  0  0  0  0  0  0  0  0  0
  151.9319  134.1292  188.4527 O   0  0  0  0  0  0  0  0  0  0  0  0
  152.9182  133.5304  186.4002 N   0  0  0  0  0  0  0  0  0  0  0  0
  153.6465  133.3092  187.5518 H   0  0  0  0  0  0  0  0  0  0  0  0
  153.9263  133.1807  185.6498 C   0  0  0  0  0  0  0  0  0  0  0  0
  154.2030  133.8893  184.4622 C   0  0  0  0  0  0  0  0  0  0  0  0
  155.2147  133.5941  183.6262 C   0  0  0  0  0  0  0  0  0  0  0  0
  156.0342  132.5328  183.9357 C   0  0  0  0  0  0  0  0  0  0  0  0
  155.8331  131.8034  185.0567 N   0  0  0  0  0  0  0  0  0  0  0  0
  154.8164  132.1126  185.8943 C   0  0  0  0  0  0  0  0  0  0  0  0
  157.0950  132.1304  183.0641 N   0  0  0  0  0  0  0  0  0  0  0  0
  158.1014  131.2274  183.5654 C   0  0  0  0  0  0  0  0  0  0  0  0
  158.6005  130.2098  182.6073 C   0  0  0  0  0  0  0  0  0  0  0  0
  158.1858  130.3958  181.1904 C   0  0  0  0  0  0  0  0  0  0  0  0
  158.0101  131.8615  180.8069 C   0  0  0  0  0  0  0  0  0  0  0  0
  157.1607  132.6478  181.7260 C   0  0  0  0  0  0  0  0  0  0  0  0
  159.0386  129.8176  180.2135 N   0  0  0  0  0  0  0  0  0  0  0  0
  159.3074  130.5839  179.0394 C   0  0  0  0  0  0  0  0  0  0  0  0
  159.4997  129.2735  178.3028 C   0  0  0  0  0  0  0  0  0  0  0  0
  158.6365  128.7106  179.4302 C   0  0  0  0  0  0  0  0  0  0  0  0
  152.0464  134.0015  181.7073 C   0  0  0  0  0  0  0  0  0  0  0  0
  152.3938  133.3063  180.4136 C   0  0  0  0  0  0  0  0  0  0  0  0
  151.4070  132.8205  179.6213 C   0  0  0  0  0  0  0  0  0  0  0  0
  151.7513  132.1338  178.4299 C   0  0  0  0  0  0  0  0  0  0  0  0
  153.0941  131.9683  178.0928 C   0  0  0  0  0  0  0  0  0  0  0  0
  154.0329  132.5123  178.9922 C   0  0  0  0  0  0  0  0  0  0  0  0
  153.7224  133.1602  180.1079 C   0  0  0  0  0  0  0  0  0  0  0  0
 18 19  2  0  0  0
 19 17  1  0  0  0
 17  1  1  0  0  0
  1  2  1  0  0  0
  2  3  1  0  0  0
  3  4  2  0  0  0
  3  5  1  0  0  0
  5  6  1  0  0  0
  6 20  1  0  0  0
 20 21  1  0  0  0
 21 22  2  0  0  0
 22 23  1  0  0  0
 23 24  2  0  0  0
 24 25  1  0  0  0
 24 26  1  0  0  0
 26 27  2  0  0  0
  6  7  1  0  0  0
  7  8  2  0  0  0
  7  9  1  0  0  0
  9 29  1  0  0  0
 29 30  1  0  0  0
 30 31  2  0  0  0
 31 32  1  0  0  0
 32 33  2  0  0  0
 33 34  1  0  0  0
 34 35  1  0  0  0
 35 40  1  0  0  0
 40 41  2  0  0  0
 40 42  1  0  0  0
 42 44  1  0  0  0
 44 45  2  0  0  0
 45 46  1  0  0  0
 46 47  2  0  0  0
 47 50  1  0  0  0
 50 51  1  0  0  0
 51 52  1  0  0  0
 52 53  1  0  0  0
 53 56  1  0  0  0
 56 57  1  0  0  0
 57 58  1  0  0  0
 58 59  1  0  0  0
 53 54  1  0  0  0
 54 55  1  0  0  0
 47 48  1  0  0  0
 48 49  2  0  0  0
 35 36  2  0  0  0
 36 37  1  0  0  0
 37 38  1  0  0  0
 37 39  1  0  0  0
  9 10  1  0  0  0
 10 11  1  0  0  0
 11 12  1  0  0  0
 12 13  1  0  0  0
 13 14  2  0  0  0
 13 15  1  0  0  0
 15 60  1  0  0  0
 60 61  1  0  0  0
 61 62  2  0  0  0
 62 63  1  0  0  0
 63 64  2  0  0  0
 64 65  1  0  0  0
 65 66  2  0  0  0
 12  1  1  0  0  0
 66 61  1  0  0  0
 11  5  1  0  0  0
 27 21  1  0  0  0
 39 30  1  0  0  0
 39 34  2  0  0  0
 49 44  1  0  0  0
 55 50  1  0  0  0
 59 56  1  0  0  0
 25 28  1  0  0  0
 42 43  1  0  0  0
 15 16  1  0  0  0
M  END
> <minimizedAffinity>
-6.64573

> <CNNscore>
0.1787576824

> <CNNaffinity>
6.9639053345

> <CNN_VS>
1.2448515892

> <CNNaffinity_variance>
0.7374799252

$$$$
[H]Oc1c([H])c([H])c(C([H])([H])[C@@]2([H])C(=O)N(C([H])([H])c3c([H])c([H])c([H])c4c(C(=O)N([H])c5c([H])nc(N6C([H])([H])C([H])([H])C([H])(N7C([H])([H])C([H])([H])C7([H])[H])C([H])([H])C6([H])[H])c([H])c5[H])c([H])n(C([H])([H])[H])c34)C([H])([H])[C@]3([H])N(C(=O)N([H])C([H])([H])c4c([H])c([H])c([H])c([H])c4[H])N(C([H])([H])C([H])=C([H])[H])C([H])([H])C(=O)N23)c([H])c1[H]


 66 74  0  0  0  0  0  0  0  0999 V2000
  151.8942  139.6951  181.8087 N   0  0  0  0  0  0  0  0  0  0  0  0
  150.7254  138.9445  182.2311 C   0  0  0  0  0  0  0  0  0  0  0  0
  151.2758  137.5335  182.3521 C   0  0  0  0  0  0  0  0  0  0  0  0
  150.6533  136.6333  181.7601 O   0  0  0  0  0  0  0  0  0  0  0  0
  152.4267  137.3147  183.1090 N   0  0  0  0  0  0  0  0  0  0  0  0
  152.6826  136.0320  183.6995 C   0  0  0  0  0  0  0  0  0  0  0  0
  152.3863  136.2830  185.1594 C   0  0  0  0  0  0  0  0  0  0  0  0
  151.7626  135.4739  185.8247 O   0  0  0  0  0  0  0  0  0  0  0  0
  152.8628  137.4876  185.7133 N   0  0  0  0  0  0  0  0  0  0  0  0
  153.5475  138.5167  184.8935 C   0  0  0  0  0  0  0  0  0  0  0  0
  153.3413  138.3808  183.4216 C   0  0  0  0  0  0  0  0  0  0  0  0
  152.9882  139.5784  182.6944 N   0  0  0  0  0  0  0  0  0  0  0  0
  153.7738  140.7671  182.8084 C   0  0  0  0  0  0  0  0  0  0  0  0
  153.3529  141.7949  182.1779 O   0  0  0  0  0  0  0  0  0  0  0  0
  154.9603  140.9368  183.5324 N   0  0  0  0  0  0  0  0  0  0  0  0
  155.3742  140.1676  184.0596 H   0  0  0  0  0  0  0  0  0  0  0  0
  152.1919  139.1678  180.4854 C   0  0  0  0  0  0  0  0  0  0  0  0
  150.3372  139.5855  178.9762 C   0  0  0  0  0  0  0  0  0  0  0  0
  151.5437  139.8572  179.3956 C   0  0  0  0  0  0  0  0  0  0  0  0
  154.0018  135.4097  183.5174 C   0  0  0  0  0  0  0  0  0  0  0  0
  154.1892  134.4025  182.4703 C   0  0  0  0  0  0  0  0  0  0  0  0
  154.8206  133.1912  182.7590 C   0  0  0  0  0  0  0  0  0  0  0  0
  155.0598  132.2664  181.7652 C   0  0  0  0  0  0  0  0  0  0  0  0
  154.6989  132.4779  180.4495 C   0  0  0  0  0  0  0  0  0  0  0  0
  154.9656  131.5080  179.5018 O   0  0  0  0  0  0  0  0  0  0  0  0
  154.0817  133.6632  180.1620 C   0  0  0  0  0  0  0  0  0  0  0  0
  153.8327  134.6088  181.1566 C   0  0  0  0  0  0  0  0  0  0  0  0
  155.4222  130.6311  179.7277 H   0  0  0  0  0  0  0  0  0  0  0  0
  152.7043  137.8594  187.1204 C   0  0  0  0  0  0  0  0  0  0  0  0
  153.9867  137.6933  187.8113 C   0  0  0  0  0  0  0  0  0  0  0  0
  155.1428  138.2491  187.3292 C   0  0  0  0  0  0  0  0  0  0  0  0
  156.3673  138.0502  187.9436 C   0  0  0  0  0  0  0  0  0  0  0  0
  156.4476  137.2698  189.0824 C   0  0  0  0  0  0  0  0  0  0  0  0
  155.2718  136.6981  189.5850 C   0  0  0  0  0  0  0  0  0  0  0  0
  155.0401  135.9227  190.6714 C   0  0  0  0  0  0  0  0  0  0  0  0
  153.6980  135.6729  190.6980 C   0  0  0  0  0  0  0  0  0  0  0  0
  153.0757  136.2629  189.6622 N   0  0  0  0  0  0  0  0  0  0  0  0
  151.6646  136.2174  189.3702 C   0  0  0  0  0  0  0  0  0  0  0  0
  154.0498  136.9059  188.9568 C   0  0  0  0  0  0  0  0  0  0  0  0
  156.0098  135.3708  191.6789 C   0  0  0  0  0  0  0  0  0  0  0  0
  156.0516  135.8707  192.8233 O   0  0  0  0  0  0  0  0  0  0  0  0
  156.8100  134.2988  191.2428 N   0  0  0  0  0  0  0  0  0  0  0  0
  157.1613  134.1030  192.5634 H   0  0  0  0  0  0  0  0  0  0  0  0
  157.5600  133.3040  190.8559 C   0  0  0  0  0  0  0  0  0  0  0  0
  158.6743  133.5404  190.0244 C   0  0  0  0  0  0  0  0  0  0  0  0
  159.4960  132.5759  189.5724 C   0  0  0  0  0  0  0  0  0  0  0  0
  159.2398  131.2726  189.9326 C   0  0  0  0  0  0  0  0  0  0  0  0
  158.1893  130.9648  190.7268 N   0  0  0  0  0  0  0  0  0  0  0  0
  157.3726  131.9432  191.1813 C   0  0  0  0  0  0  0  0  0  0  0  0
  160.0407  130.1925  189.4439 N   0  0  0  0  0  0  0  0  0  0  0  0
  159.4402  129.2300  188.5535 C   0  0  0  0  0  0  0  0  0  0  0  0
  160.3061  128.7247  187.4592 C   0  0  0  0  0  0  0  0  0  0  0  0
  161.7472  129.0827  187.5557 C   0  0  0  0  0  0  0  0  0  0  0  0
  162.2375  129.2041  188.9949 C   0  0  0  0  0  0  0  0  0  0  0  0
  161.4078  130.0643  189.8645 C   0  0  0  0  0  0  0  0  0  0  0  0
  162.6487  128.2113  186.8895 N   0  0  0  0  0  0  0  0  0  0  0  0
  162.7523  128.3321  185.4708 C   0  0  0  0  0  0  0  0  0  0  0  0
  163.1275  126.8642  185.4350 C   0  0  0  0  0  0  0  0  0  0  0  0
  162.4035  126.8227  186.7792 C   0  0  0  0  0  0  0  0  0  0  0  0
  155.6612  142.2177  183.5526 C   0  0  0  0  0  0  0  0  0  0  0  0
  156.7486  142.2388  182.5064 C   0  0  0  0  0  0  0  0  0  0  0  0
  157.5620  141.1650  182.3551 C   0  0  0  0  0  0  0  0  0  0  0  0
  158.6048  141.2165  181.3962 C   0  0  0  0  0  0  0  0  0  0  0  0
  158.7780  142.3665  180.6270 C   0  0  0  0  0  0  0  0  0  0  0  0
  157.8755  143.4208  180.8721 C   0  0  0  0  0  0  0  0  0  0  0  0
  156.8936  143.3825  181.7639 C   0  0  0  0  0  0  0  0  0  0  0  0
 18 19  2  0  0  0
 19 17  1  0  0  0
 17  1  1  0  0  0
  1  2  1  0  0  0
  2  3  1  0  0  0
  3  4  2  0  0  0
  3  5  1  0  0  0
  5  6  1  0  0  0
  6 20  1  0  0  0
 20 21  1  0  0  0
 21 22  2  0  0  0
 22 23  1  0  0  0
 23 24  2  0  0  0
 24 25  1  0  0  0
 24 26  1  0  0  0
 26 27  2  0  0  0
  6  7  1  0  0  0
  7  8  2  0  0  0
  7  9  1  0  0  0
  9 29  1  0  0  0
 29 30  1  0  0  0
 30 31  2  0  0  0
 31 32  1  0  0  0
 32 33  2  0  0  0
 33 34  1  0  0  0
 34 35  1  0  0  0
 35 40  1  0  0  0
 40 41  2  0  0  0
 40 42  1  0  0  0
 42 44  1  0  0  0
 44 45  2  0  0  0
 45 46  1  0  0  0
 46 47  2  0  0  0
 47 50  1  0  0  0
 50 51  1  0  0  0
 51 52  1  0  0  0
 52 53  1  0  0  0
 53 56  1  0  0  0
 56 57  1  0  0  0
 57 58  1  0  0  0
 58 59  1  0  0  0
 53 54  1  0  0  0
 54 55  1  0  0  0
 47 48  1  0  0  0
 48 49  2  0  0  0
 35 36  2  0  0  0
 36 37  1  0  0  0
 37 38  1  0  0  0
 37 39  1  0  0  0
  9 10  1  0  0  0
 10 11  1  0  0  0
 11 12  1  0  0  0
 12 13  1  0  0  0
 13 14  2  0  0  0
 13 15  1  0  0  0
 15 60  1  0  0  0
 60 61  1  0  0  0
 61 62  2  0  0  0
 62 63  1  0  0  0
 63 64  2  0  0  0
 64 65  1  0  0  0
 65 66  2  0  0  0
 12  1  1  0  0  0
 66 61  1  0  0  0
 11  5  1  0  0  0
 27 21  1  0  0  0
 39 30  1  0  0  0
 39 34  2  0  0  0
 49 44  1  0  0  0
 55 50  1  0  0  0
 59 56  1  0  0  0
 25 28  1  0  0  0
 42 43  1  0  0  0
 15 16  1  0  0  0
M  END
> <minimizedAffinity>
-9.32046

> <CNNscore>
0.1783655882

> <CNNaffinity>
7.2507858276

> <CNN_VS>
1.2932907343

> <CNNaffinity_variance>
0.3678873479

$$$$
[H]Oc1c([H])c([H])c(C([H])([H])[C@@]2([H])C(=O)N(C([H])([H])c3c([H])c([H])c([H])c4c(C(=O)N([H])c5c([H])nc(N6C([H])([H])C([H])([H])C([H])(N7C([H])([H])C([H])([H])C7([H])[H])C([H])([H])C6([H])[H])c([H])c5[H])c([H])n(C([H])([H])[H])c34)C([H])([H])[C@]3([H])N(C(=O)N([H])C([H])([H])c4c([H])c([H])c([H])c([H])c4[H])N(C([H])([H])C([H])=C([H])[H])C([H])([H])C(=O)N23)c([H])c1[H]


 66 74  0  0  0  0  0  0  0  0999 V2000
  147.5600  137.5542  181.3287 N   0  0  0  0  0  0  0  0  0  0  0  0
  146.9874  136.4950  182.1400 C   0  0  0  0  0  0  0  0  0  0  0  0
  147.2878  135.2574  181.3114 C   0  0  0  0  0  0  0  0  0  0  0  0
  146.3331  134.4976  181.0670 O   0  0  0  0  0  0  0  0  0  0  0  0
  148.5932  135.0308  180.8755 N   0  0  0  0  0  0  0  0  0  0  0  0
  149.0489  133.7010  180.5865 C   0  0  0  0  0  0  0  0  0  0  0  0
  149.9353  133.3981  181.7716 C   0  0  0  0  0  0  0  0  0  0  0  0
  149.9022  132.3111  182.3227 O   0  0  0  0  0  0  0  0  0  0  0  0
  150.7980  134.4234  182.2068 N   0  0  0  0  0  0  0  0  0  0  0  0
  150.7856  135.7763  181.5988 C   0  0  0  0  0  0  0  0  0  0  0  0
  149.5624  136.0920  180.8040 C   0  0  0  0  0  0  0  0  0  0  0  0
  148.9318  137.3690  181.0481 N   0  0  0  0  0  0  0  0  0  0  0  0
  149.6834  138.5835  180.9922 C   0  0  0  0  0  0  0  0  0  0  0  0
  149.0576  139.6586  181.2812 O   0  0  0  0  0  0  0  0  0  0  0  0
  151.0333  138.7339  180.6520 N   0  0  0  0  0  0  0  0  0  0  0  0
  151.6089  137.9305  180.3991 H   0  0  0  0  0  0  0  0  0  0  0  0
  146.7421  137.5573  180.1251 C   0  0  0  0  0  0  0  0  0  0  0  0
  144.8908  138.4402  181.4234 C   0  0  0  0  0  0  0  0  0  0  0  0
  145.3527  137.8872  180.3342 C   0  0  0  0  0  0  0  0  0  0  0  0
  149.7413  133.4412  179.3162 C   0  0  0  0  0  0  0  0  0  0  0  0
  149.0036  132.8508  178.1966 C   0  0  0  0  0  0  0  0  0  0  0  0
  147.7678  133.3728  177.8102 C   0  0  0  0  0  0  0  0  0  0  0  0
  147.0372  132.7822  176.8014 C   0  0  0  0  0  0  0  0  0  0  0  0
  147.4732  131.6595  176.1264 C   0  0  0  0  0  0  0  0  0  0  0  0
  146.6929  131.1180  175.1224 O   0  0  0  0  0  0  0  0  0  0  0  0
  148.6821  131.1441  176.5025 C   0  0  0  0  0  0  0  0  0  0  0  0
  149.4328  131.7305  177.5212 C   0  0  0  0  0  0  0  0  0  0  0  0
  145.7983  131.5109  174.8505 H   0  0  0  0  0  0  0  0  0  0  0  0
  151.7534  134.2763  183.3062 C   0  0  0  0  0  0  0  0  0  0  0  0
  151.3218  135.1059  184.4354 C   0  0  0  0  0  0  0  0  0  0  0  0
  150.0106  135.4661  184.6059 C   0  0  0  0  0  0  0  0  0  0  0  0
  149.6031  136.2955  185.6366 C   0  0  0  0  0  0  0  0  0  0  0  0
  150.5334  136.7861  186.5345 C   0  0  0  0  0  0  0  0  0  0  0  0
  151.8762  136.4229  186.3709 C   0  0  0  0  0  0  0  0  0  0  0  0
  152.9845  136.7225  187.0900 C   0  0  0  0  0  0  0  0  0  0  0  0
  154.0281  136.0749  186.4933 C   0  0  0  0  0  0  0  0  0  0  0  0
  153.6149  135.3788  185.4196 N   0  0  0  0  0  0  0  0  0  0  0  0
  154.4374  134.5758  184.5492 C   0  0  0  0  0  0  0  0  0  0  0  0
  152.2706  135.5900  185.3307 C   0  0  0  0  0  0  0  0  0  0  0  0
  153.1342  137.6096  188.2944 C   0  0  0  0  0  0  0  0  0  0  0  0
  153.6239  138.7506  188.1550 O   0  0  0  0  0  0  0  0  0  0  0  0
  152.6899  137.0718  189.5163 N   0  0  0  0  0  0  0  0  0  0  0  0
  152.7943  138.3430  190.0443 H   0  0  0  0  0  0  0  0  0  0  0  0
  152.2828  136.5896  190.6580 C   0  0  0  0  0  0  0  0  0  0  0  0
  153.1936  136.4286  191.7226 C   0  0  0  0  0  0  0  0  0  0  0  0
  152.8635  135.9333  192.9290 C   0  0  0  0  0  0  0  0  0  0  0  0
  151.5598  135.5510  193.1479 C   0  0  0  0  0  0  0  0  0  0  0  0
  150.6273  135.6733  192.1761 N   0  0  0  0  0  0  0  0  0  0  0  0
  150.9682  136.1787  190.9681 C   0  0  0  0  0  0  0  0  0  0  0  0
  151.1520  134.9665  194.3885 N   0  0  0  0  0  0  0  0  0  0  0  0
  149.9541  134.1642  194.4179 C   0  0  0  0  0  0  0  0  0  0  0  0
  149.9909  132.9689  195.2969 C   0  0  0  0  0  0  0  0  0  0  0  0
  151.1564  132.8775  196.2175 C   0  0  0  0  0  0  0  0  0  0  0  0
  151.6673  134.2410  196.6717 C   0  0  0  0  0  0  0  0  0  0  0  0
  151.9147  135.2077  195.5812 C   0  0  0  0  0  0  0  0  0  0  0  0
  150.9603  132.1034  197.3914 N   0  0  0  0  0  0  0  0  0  0  0  0
  152.0156  131.2256  197.7838 C   0  0  0  0  0  0  0  0  0  0  0  0
  150.9619  130.3454  198.4254 C   0  0  0  0  0  0  0  0  0  0  0  0
  150.0253  131.0432  197.4411 C   0  0  0  0  0  0  0  0  0  0  0  0
  151.6699  140.0480  180.6326 C   0  0  0  0  0  0  0  0  0  0  0  0
  152.7014  140.1490  181.7296 C   0  0  0  0  0  0  0  0  0  0  0  0
  152.9744  139.0691  182.5022 C   0  0  0  0  0  0  0  0  0  0  0  0
  153.9158  139.1918  183.5549 C   0  0  0  0  0  0  0  0  0  0  0  0
  154.5434  140.4165  183.7796 C   0  0  0  0  0  0  0  0  0  0  0  0
  154.1799  141.4695  182.9164 C   0  0  0  0  0  0  0  0  0  0  0  0
  153.3033  141.3654  181.9255 C   0  0  0  0  0  0  0  0  0  0  0  0
 18 19  2  0  0  0
 19 17  1  0  0  0
 17  1  1  0  0  0
  1  2  1  0  0  0
  2  3  1  0  0  0
  3  4  2  0  0  0
  3  5  1  0  0  0
  5  6  1  0  0  0
  6 20  1  0  0  0
 20 21  1  0  0  0
 21 22  2  0  0  0
 22 23  1  0  0  0
 23 24  2  0  0  0
 24 25  1  0  0  0
 24 26  1  0  0  0
 26 27  2  0  0  0
  6  7  1  0  0  0
  7  8  2  0  0  0
  7  9  1  0  0  0
  9 29  1  0  0  0
 29 30  1  0  0  0
 30 31  2  0  0  0
 31 32  1  0  0  0
 32 33  2  0  0  0
 33 34  1  0  0  0
 34 35  1  0  0  0
 35 40  1  0  0  0
 40 41  2  0  0  0
 40 42  1  0  0  0
 42 44  1  0  0  0
 44 45  2  0  0  0
 45 46  1  0  0  0
 46 47  2  0  0  0
 47 50  1  0  0  0
 50 51  1  0  0  0
 51 52  1  0  0  0
 52 53  1  0  0  0
 53 56  1  0  0  0
 56 57  1  0  0  0
 57 58  1  0  0  0
 58 59  1  0  0  0
 53 54  1  0  0  0
 54 55  1  0  0  0
 47 48  1  0  0  0
 48 49  2  0  0  0
 35 36  2  0  0  0
 36 37  1  0  0  0
 37 38  1  0  0  0
 37 39  1  0  0  0
  9 10  1  0  0  0
 10 11  1  0  0  0
 11 12  1  0  0  0
 12 13  1  0  0  0
 13 14  2  0  0  0
 13 15  1  0  0  0
 15 60  1  0  0  0
 60 61  1  0  0  0
 61 62  2  0  0  0
 62 63  1  0  0  0
 63 64  2  0  0  0
 64 65  1  0  0  0
 65 66  2  0  0  0
 12  1  1  0  0  0
 66 61  1  0  0  0
 11  5  1  0  0  0
 27 21  1  0  0  0
 39 30  1  0  0  0
 39 34  2  0  0  0
 49 44  1  0  0  0
 55 50  1  0  0  0
 59 56  1  0  0  0
 25 28  1  0  0  0
 42 43  1  0  0  0
 15 16  1  0  0  0
M  END
> <minimizedAffinity>
-7.38158

> <CNNscore>
0.1700187922

> <CNNaffinity>
6.5243806839

> <CNN_VS>
1.1092673540

> <CNNaffinity_variance>
0.3525298238

$$$$
[H]c1nc(Oc2c([H])c([H])c(C(=O)N([H])C([H])([H])C([H])([H])N3C([H])([H])C([H])([H])C([H])([H])C3([H])[H])c([H])c2[H])c(N([H])S(=O)(=O)c2c([H])c([H])c(Cl)c(Cl)c2[H])c([H])c1Cl


 38 41  0  0  0  0  0  0  0  0999 V2000
  154.7259  138.6771  184.1297 C   0  0  0  0  0  0  0  0  0  0  0  0
  153.7204  137.9794  183.5712 N   0  0  0  0  0  0  0  0  0  0  0  0
  152.9097  138.5263  182.6606 C   0  0  0  0  0  0  0  0  0  0  0  0
  153.1106  139.8206  182.2923 C   0  0  0  0  0  0  0  0  0  0  0  0
  152.0400  140.5297  181.0957 Cl  0  0  0  0  0  0  0  0  0  0  0  0
  154.1535  140.5667  182.8618 C   0  0  0  0  0  0  0  0  0  0  0  0
  154.9753  139.9866  183.7967 C   0  0  0  0  0  0  0  0  0  0  0  0
  156.0645  140.6495  184.4076 N   0  0  0  0  0  0  0  0  0  0  0  0
  155.9691  141.0669  185.3799 H   0  0  0  0  0  0  0  0  0  0  0  0
  157.5578  140.7842  183.5756 S   0  0  0  0  0  0  0  0  0  0  0  0
  157.9293  139.4120  183.0281 O   0  0  0  0  0  0  0  0  0  0  0  0
  157.3367  141.7339  182.4006 O   0  0  0  0  0  0  0  0  0  0  0  0
  158.8743  141.3798  184.5152 C   0  0  0  0  0  0  0  0  0  0  0  0
  158.6769  141.8341  185.8237 C   0  0  0  0  0  0  0  0  0  0  0  0
  159.7519  142.2990  186.5250 C   0  0  0  0  0  0  0  0  0  0  0  0
  161.0164  142.3243  185.9609 C   0  0  0  0  0  0  0  0  0  0  0  0
  162.3797  142.9228  186.8698 Cl  0  0  0  0  0  0  0  0  0  0  0  0
  161.2167  141.8745  184.6624 C   0  0  0  0  0  0  0  0  0  0  0  0
  162.8252  141.9238  183.9904 Cl  0  0  0  0  0  0  0  0  0  0  0  0
  160.1245  141.4010  183.9473 C   0  0  0  0  0  0  0  0  0  0  0  0
  155.5307  138.0332  185.0754 O   0  0  0  0  0  0  0  0  0  0  0  0
  154.6271  138.0940  189.1721 C   0  0  0  0  0  0  0  0  0  0  0  0
  153.6347  138.3503  188.2141 C   0  0  0  0  0  0  0  0  0  0  0  0
  153.9436  138.3284  186.8657 C   0  0  0  0  0  0  0  0  0  0  0  0
  155.2163  138.0581  186.4226 C   0  0  0  0  0  0  0  0  0  0  0  0
  156.1693  137.8111  187.3796 C   0  0  0  0  0  0  0  0  0  0  0  0
  155.8865  137.8270  188.7348 C   0  0  0  0  0  0  0  0  0  0  0  0
  154.8812  138.9225  191.3750 O   0  0  0  0  0  0  0  0  0  0  0  0
  154.2786  138.1085  190.5844 C   0  0  0  0  0  0  0  0  0  0  0  0
  153.2978  137.2624  191.1398 N   0  0  0  0  0  0  0  0  0  0  0  0
  152.8209  136.6055  190.4744 H   0  0  0  0  0  0  0  0  0  0  0  0
  152.8940  137.2093  192.5160 C   0  0  0  0  0  0  0  0  0  0  0  0
  151.4288  136.8793  192.5958 C   0  0  0  0  0  0  0  0  0  0  0  0
  151.2473  135.5329  193.0561 N   0  0  0  0  0  0  0  0  0  0  0  0
  150.0273  135.2710  193.7398 C   0  0  0  0  0  0  0  0  0  0  0  0
  150.3576  135.1224  195.2157 C   0  0  0  0  0  0  0  0  0  0  0  0
  151.7874  134.6632  195.1828 C   0  0  0  0  0  0  0  0  0  0  0  0
  152.3309  134.9999  193.8189 C   0  0  0  0  0  0  0  0  0  0  0  0
 28 29  2  0  0  0
 29 30  1  0  0  0
 30 32  1  0  0  0
 32 33  1  0  0  0
 33 34  1  0  0  0
 34 35  1  0  0  0
 35 36  1  0  0  0
 36 37  1  0  0  0
 37 38  1  0  0  0
 29 22  1  0  0  0
 22 23  2  0  0  0
 23 24  1  0  0  0
 24 25  2  0  0  0
 25 21  1  0  0  0
 21  1  1  0  0  0
  1  2  2  0  0  0
  2  3  1  0  0  0
  3  4  2  0  0  0
  4  5  1  0  0  0
  4  6  1  0  0  0
  6  7  2  0  0  0
  7  8  1  0  0  0
  8 10  1  0  0  0
 10 11  2  0  0  0
 10 12  2  0  0  0
 10 13  1  0  0  0
 13 14  2  0  0  0
 14 15  1  0  0  0
 15 16  2  0  0  0
 16 17  1  0  0  0
 16 18  1  0  0  0
 18 19  1  0  0  0
 18 20  2  0  0  0
 25 26  1  0  0  0
 26 27  2  0  0  0
 38 34  1  0  0  0
 27 22  1  0  0  0
  7  1  1  0  0  0
 20 13  1  0  0  0
 30 31  1  0  0  0
  8  9  1  0  0  0
M  END
> <minimizedAffinity>
-9.49152

> <CNNscore>
0.4955314100

> <CNNaffinity>
6.6542272568

> <CNN_VS>
3.2973785400

> <CNNaffinity_variance>
0.2636566758

$$$$
[H]c1nc(Oc2c([H])c([H])c(C(=O)N([H])C([H])([H])C([H])([H])N3C([H])([H])C([H])([H])C([H])([H])C3([H])[H])c([H])c2[H])c(N([H])S(=O)(=O)c2c([H])c([H])c(Cl)c(Cl)c2[H])c([H])c1Cl


 38 41  0  0  0  0  0  0  0  0999 V2000
  154.9989  139.7815  184.0957 C   0  0  0  0  0  0  0  0  0  0  0  0
  153.9114  140.0583  183.3538 N   0  0  0  0  0  0  0  0  0  0  0  0
  153.7556  141.2419  182.7538 C   0  0  0  0  0  0  0  0  0  0  0  0
  154.7235  142.1870  182.8995 C   0  0  0  0  0  0  0  0  0  0  0  0
  154.5092  143.7387  182.1077 Cl  0  0  0  0  0  0  0  0  0  0  0  0
  155.8662  141.9195  183.6687 C   0  0  0  0  0  0  0  0  0  0  0  0
  156.0072  140.6968  184.2779 C   0  0  0  0  0  0  0  0  0  0  0  0
  157.1314  140.3274  185.0516 N   0  0  0  0  0  0  0  0  0  0  0  0
  157.0092  139.9102  186.0210 H   0  0  0  0  0  0  0  0  0  0  0  0
  158.7113  140.5522  184.4242 S   0  0  0  0  0  0  0  0  0  0  0  0
  159.5110  141.3826  185.4200 O   0  0  0  0  0  0  0  0  0  0  0  0
  159.3546  139.1719  184.3135 O   0  0  0  0  0  0  0  0  0  0  0  0
  158.7900  141.3137  182.8799 C   0  0  0  0  0  0  0  0  0  0  0  0
  158.6824  140.5655  181.7025 C   0  0  0  0  0  0  0  0  0  0  0  0
  158.7540  141.2157  180.5043 C   0  0  0  0  0  0  0  0  0  0  0  0
  158.9295  142.5881  180.4453 C   0  0  0  0  0  0  0  0  0  0  0  0
  159.0205  143.4039  178.9062 Cl  0  0  0  0  0  0  0  0  0  0  0  0
  159.0369  143.3344  181.6115 C   0  0  0  0  0  0  0  0  0  0  0  0
  159.2571  145.0603  181.4922 Cl  0  0  0  0  0  0  0  0  0  0  0  0
  158.9642  142.6750  182.8315 C   0  0  0  0  0  0  0  0  0  0  0  0
  155.0880  138.5190  184.6913 O   0  0  0  0  0  0  0  0  0  0  0  0
  154.5781  137.9948  188.8227 C   0  0  0  0  0  0  0  0  0  0  0  0
  153.5134  138.4251  188.0168 C   0  0  0  0  0  0  0  0  0  0  0  0
  153.6925  138.5953  186.6555 C   0  0  0  0  0  0  0  0  0  0  0  0
  154.9034  138.3520  186.0524 C   0  0  0  0  0  0  0  0  0  0  0  0
  155.9293  137.9324  186.8627 C   0  0  0  0  0  0  0  0  0  0  0  0
  155.7764  137.7543  188.2271 C   0  0  0  0  0  0  0  0  0  0  0  0
  155.0004  138.5508  191.0846 O   0  0  0  0  0  0  0  0  0  0  0  0
  154.3652  137.8090  190.2497 C   0  0  0  0  0  0  0  0  0  0  0  0
  153.4836  136.8419  190.7729 N   0  0  0  0  0  0  0  0  0  0  0  0
  152.9777  136.2473  190.0713 H   0  0  0  0  0  0  0  0  0  0  0  0
  153.2155  136.5904  192.1602 C   0  0  0  0  0  0  0  0  0  0  0  0
  151.7311  136.6312  192.3991 C   0  0  0  0  0  0  0  0  0  0  0  0
  151.2920  135.4081  193.0063 N   0  0  0  0  0  0  0  0  0  0  0  0
  150.4478  135.5488  194.1429 C   0  0  0  0  0  0  0  0  0  0  0  0
  151.2731  135.1905  195.3676 C   0  0  0  0  0  0  0  0  0  0  0  0
  152.3051  134.2577  194.8010 C   0  0  0  0  0  0  0  0  0  0  0  0
  152.3287  134.4738  193.3104 C   0  0  0  0  0  0  0  0  0  0  0  0
 28 29  2  0  0  0
 29 30  1  0  0  0
 30 32  1  0  0  0
 32 33  1  0  0  0
 33 34  1  0  0  0
 34 35  1  0  0  0
 35 36  1  0  0  0
 36 37  1  0  0  0
 37 38  1  0  0  0
 29 22  1  0  0  0
 22 23  2  0  0  0
 23 24  1  0  0  0
 24 25  2  0  0  0
 25 21  1  0  0  0
 21  1  1  0  0  0
  1  2  2  0  0  0
  2  3  1  0  0  0
  3  4  2  0  0  0
  4  5  1  0  0  0
  4  6  1  0  0  0
  6  7  2  0  0  0
  7  8  1  0  0  0
  8 10  1  0  0  0
 10 11  2  0  0  0
 10 12  2  0  0  0
 10 13  1  0  0  0
 13 14  2  0  0  0
 14 15  1  0  0  0
 15 16  2  0  0  0
 16 17  1  0  0  0
 16 18  1  0  0  0
 18 19  1  0  0  0
 18 20  2  0  0  0
 25 26  1  0  0  0
 26 27  2  0  0  0
 38 34  1  0  0  0
 27 22  1  0  0  0
  7  1  1  0  0  0
 20 13  1  0  0  0
 30 31  1  0  0  0
  8  9  1  0  0  0
M  END
> <minimizedAffinity>
-8.87779

> <CNNscore>
0.4926218092

> <CNNaffinity>
6.6106443405

> <CNN_VS>
3.2565476894

> <CNNaffinity_variance>
0.2083178461

$$$$
[H]c1nc(Oc2c([H])c([H])c(C(=O)N([H])C([H])([H])C([H])([H])N3C([H])([H])C([H])([H])C([H])([H])C3([H])[H])c([H])c2[H])c(N([H])S(=O)(=O)c2c([H])c([H])c(Cl)c(Cl)c2[H])c([H])c1Cl


 38 41  0  0  0  0  0  0  0  0999 V2000
  154.4775  139.5291  183.5176 C   0  0  0  0  0  0  0  0  0  0  0  0
  153.4244  140.0353  182.8510 N   0  0  0  0  0  0  0  0  0  0  0  0
  153.3763  141.3208  182.4898 C   0  0  0  0  0  0  0  0  0  0  0  0
  154.4206  142.1336  182.8059 C   0  0  0  0  0  0  0  0  0  0  0  0
  154.3475  143.8206  182.3273 Cl  0  0  0  0  0  0  0  0  0  0  0  0
  155.5293  141.6265  183.5005 C   0  0  0  0  0  0  0  0  0  0  0  0
  155.5592  140.3024  183.8636 C   0  0  0  0  0  0  0  0  0  0  0  0
  156.6407  139.6964  184.5434 N   0  0  0  0  0  0  0  0  0  0  0  0
  156.4841  138.8495  185.1655 H   0  0  0  0  0  0  0  0  0  0  0  0
  158.2240  140.3301  184.3658 S   0  0  0  0  0  0  0  0  0  0  0  0
  158.5043  141.2609  185.5386 O   0  0  0  0  0  0  0  0  0  0  0  0
  159.1931  139.1522  184.4366 O   0  0  0  0  0  0  0  0  0  0  0  0
  158.5156  141.1859  182.8983 C   0  0  0  0  0  0  0  0  0  0  0  0
  158.5408  140.5184  181.6690 C   0  0  0  0  0  0  0  0  0  0  0  0
  158.7788  141.2415  180.5357 C   0  0  0  0  0  0  0  0  0  0  0  0
  158.9922  142.6086  180.5919 C   0  0  0  0  0  0  0  0  0  0  0  0
  159.2965  143.5180  179.1348 Cl  0  0  0  0  0  0  0  0  0  0  0  0
  158.9681  143.2750  181.8101 C   0  0  0  0  0  0  0  0  0  0  0  0
  159.2416  144.9971  181.8360 Cl  0  0  0  0  0  0  0  0  0  0  0  0
  158.7260  142.5414  182.9642 C   0  0  0  0  0  0  0  0  0  0  0  0
  154.4525  138.1731  183.8600 O   0  0  0  0  0  0  0  0  0  0  0  0
  153.3235  136.8656  187.6835 C   0  0  0  0  0  0  0  0  0  0  0  0
  153.1322  138.2002  187.2955 C   0  0  0  0  0  0  0  0  0  0  0  0
  153.5087  138.6210  186.0325 C   0  0  0  0  0  0  0  0  0  0  0  0
  154.0755  137.7583  185.1250 C   0  0  0  0  0  0  0  0  0  0  0  0
  154.2525  136.4580  185.5289 C   0  0  0  0  0  0  0  0  0  0  0  0
  153.8847  136.0115  186.7867 C   0  0  0  0  0  0  0  0  0  0  0  0
  152.9984  137.2626  189.9944 O   0  0  0  0  0  0  0  0  0  0  0  0
  152.9084  136.4403  189.0113 C   0  0  0  0  0  0  0  0  0  0  0  0
  152.4039  135.1520  189.2799 N   0  0  0  0  0  0  0  0  0  0  0  0
  152.3415  134.4982  188.4612 H   0  0  0  0  0  0  0  0  0  0  0  0
  151.9745  134.6501  190.5541 C   0  0  0  0  0  0  0  0  0  0  0  0
  150.5145  134.2957  190.4868 C   0  0  0  0  0  0  0  0  0  0  0  0
  149.9837  134.6201  189.1943 N   0  0  0  0  0  0  0  0  0  0  0  0
  149.0173  135.6639  189.1655 C   0  0  0  0  0  0  0  0  0  0  0  0
  147.6616  135.0201  188.9265 C   0  0  0  0  0  0  0  0  0  0  0  0
  148.0262  133.7600  188.1946 C   0  0  0  0  0  0  0  0  0  0  0  0
  149.4907  133.5098  188.4432 C   0  0  0  0  0  0  0  0  0  0  0  0
 28 29  2  0  0  0
 29 30  1  0  0  0
 30 32  1  0  0  0
 32 33  1  0  0  0
 33 34  1  0  0  0
 34 35  1  0  0  0
 35 36  1  0  0  0
 36 37  1  0  0  0
 37 38  1  0  0  0
 29 22  1  0  0  0
 22 23  2  0  0  0
 23 24  1  0  0  0
 24 25  2  0  0  0
 25 21  1  0  0  0
 21  1  1  0  0  0
  1  2  2  0  0  0
  2  3  1  0  0  0
  3  4  2  0  0  0
  4  5  1  0  0  0
  4  6  1  0  0  0
  6  7  2  0  0  0
  7  8  1  0  0  0
  8 10  1  0  0  0
 10 11  2  0  0  0
 10 12  2  0  0  0
 10 13  1  0  0  0
 13 14  2  0  0  0
 14 15  1  0  0  0
 15 16  2  0  0  0
 16 17  1  0  0  0
 16 18  1  0  0  0
 18 19  1  0  0  0
 18 20  2  0  0  0
 25 26  1  0  0  0
 26 27  2  0  0  0
 38 34  1  0  0  0
 27 22  1  0  0  0
  7  1  1  0  0  0
 20 13  1  0  0  0
 30 31  1  0  0  0
  8  9  1  0  0  0
M  END
> <minimizedAffinity>
-7.26591

> <CNNscore>
0.4373117983

> <CNNaffinity>
6.6924524307

> <CNN_VS>
2.9266884327

> <CNNaffinity_variance>
0.0900047421

$$$$
[H]c1nc(Oc2c([H])c([H])c(C(=O)N([H])C([H])([H])C([H])([H])N3C([H])([H])C([H])([H])C([H])([H])C3([H])[H])c([H])c2[H])c(N([H])S(=O)(=O)c2c([H])c([H])c(Cl)c(Cl)c2[H])c([H])c1Cl


 38 41  0  0  0  0  0  0  0  0999 V2000
  154.7155  139.0461  184.4150 C   0  0  0  0  0  0  0  0  0  0  0  0
  153.7156  138.2694  183.9604 N   0  0  0  0  0  0  0  0  0  0  0  0
  152.9937  138.6125  182.8897 C   0  0  0  0  0  0  0  0  0  0  0  0
  153.2810  139.7767  182.2467 C   0  0  0  0  0  0  0  0  0  0  0  0
  152.3265  140.2185  180.8416 Cl  0  0  0  0  0  0  0  0  0  0  0  0
  154.3198  140.6018  182.7037 C   0  0  0  0  0  0  0  0  0  0  0  0
  155.0497  140.2318  183.8065 C   0  0  0  0  0  0  0  0  0  0  0  0
  156.1278  140.9843  184.3262 N   0  0  0  0  0  0  0  0  0  0  0  0
  155.9937  141.6094  185.1748 H   0  0  0  0  0  0  0  0  0  0  0  0
  157.6707  140.8914  183.5838 S   0  0  0  0  0  0  0  0  0  0  0  0
  157.9363  139.4398  183.2058 O   0  0  0  0  0  0  0  0  0  0  0  0
  157.6082  141.7240  182.3053 O   0  0  0  0  0  0  0  0  0  0  0  0
  158.9852  141.4633  184.5407 C   0  0  0  0  0  0  0  0  0  0  0  0
  158.7825  141.8991  185.8547 C   0  0  0  0  0  0  0  0  0  0  0  0
  159.8562  142.3456  186.5698 C   0  0  0  0  0  0  0  0  0  0  0  0
  161.1245  142.3704  186.0143 C   0  0  0  0  0  0  0  0  0  0  0  0
  162.4860  142.9452  186.9409 Cl  0  0  0  0  0  0  0  0  0  0  0  0
  161.3301  141.9388  184.7104 C   0  0  0  0  0  0  0  0  0  0  0  0
  162.9433  141.9866  184.0496 Cl  0  0  0  0  0  0  0  0  0  0  0  0
  160.2392  141.4840  183.9812 C   0  0  0  0  0  0  0  0  0  0  0  0
  155.4247  138.6172  185.5419 O   0  0  0  0  0  0  0  0  0  0  0  0
  153.5215  136.6070  188.6948 C   0  0  0  0  0  0  0  0  0  0  0  0
  153.2928  137.9732  188.4724 C   0  0  0  0  0  0  0  0  0  0  0  0
  153.9261  138.6266  187.4302 C   0  0  0  0  0  0  0  0  0  0  0  0
  154.7897  137.9694  186.5868 C   0  0  0  0  0  0  0  0  0  0  0  0
  154.9970  136.6333  186.8257 C   0  0  0  0  0  0  0  0  0  0  0  0
  154.3761  135.9562  187.8614 C   0  0  0  0  0  0  0  0  0  0  0  0
  152.6783  136.5489  190.9059 O   0  0  0  0  0  0  0  0  0  0  0  0
  152.8353  135.9357  189.7878 C   0  0  0  0  0  0  0  0  0  0  0  0
  152.3251  134.6262  189.6824 N   0  0  0  0  0  0  0  0  0  0  0  0
  152.4671  134.1458  188.7601 H   0  0  0  0  0  0  0  0  0  0  0  0
  151.6394  133.8904  190.7063 C   0  0  0  0  0  0  0  0  0  0  0  0
  150.1646  134.1732  190.6241 C   0  0  0  0  0  0  0  0  0  0  0  0
  149.4141  133.0079  190.9932 N   0  0  0  0  0  0  0  0  0  0  0  0
  148.2734  132.7256  190.1910 C   0  0  0  0  0  0  0  0  0  0  0  0
  147.0437  133.0747  191.0128 C   0  0  0  0  0  0  0  0  0  0  0  0
  147.5377  132.9079  192.4215 C   0  0  0  0  0  0  0  0  0  0  0  0
  149.0429  132.9348  192.3705 C   0  0  0  0  0  0  0  0  0  0  0  0
 28 29  2  0  0  0
 29 30  1  0  0  0
 30 32  1  0  0  0
 32 33  1  0  0  0
 33 34  1  0  0  0
 34 35  1  0  0  0
 35 36  1  0  0  0
 36 37  1  0  0  0
 37 38  1  0  0  0
 29 22  1  0  0  0
 22 23  2  0  0  0
 23 24  1  0  0  0
 24 25  2  0  0  0
 25 21  1  0  0  0
 21  1  1  0  0  0
  1  2  2  0  0  0
  2  3  1  0  0  0
  3  4  2  0  0  0
  4  5  1  0  0  0
  4  6  1  0  0  0
  6  7  2  0  0  0
  7  8  1  0  0  0
  8 10  1  0  0  0
 10 11  2  0  0  0
 10 12  2  0  0  0
 10 13  1  0  0  0
 13 14  2  0  0  0
 14 15  1  0  0  0
 15 16  2  0  0  0
 16 17  1  0  0  0
 16 18  1  0  0  0
 18 19  1  0  0  0
 18 20  2  0  0  0
 25 26  1  0  0  0
 26 27  2  0  0  0
 38 34  1  0  0  0
 27 22  1  0  0  0
  7  1  1  0  0  0
 20 13  1  0  0  0
 30 31  1  0  0  0
  8  9  1  0  0  0
M  END
> <minimizedAffinity>
-7.99782

> <CNNscore>
0.3826088309

> <CNNaffinity>
6.4538245201

> <CNN_VS>
2.4692902565

> <CNNaffinity_variance>
0.0972913355

$$$$
[H]c1nc(Oc2c([H])c([H])c(C(=O)N([H])C([H])([H])C([H])([H])N3C([H])([H])C([H])([H])C([H])([H])C3([H])[H])c([H])c2[H])c(N([H])S(=O)(=O)c2c([H])c([H])c(Cl)c(Cl)c2[H])c([H])c1Cl


 38 41  0  0  0  0  0  0  0  0999 V2000
  154.8832  139.4714  184.1111 C   0  0  0  0  0  0  0  0  0  0  0  0
  153.7164  139.9587  183.6521 N   0  0  0  0  0  0  0  0  0  0  0  0
  153.6489  141.1326  183.0176 C   0  0  0  0  0  0  0  0  0  0  0  0
  154.7910  141.8487  182.8334 C   0  0  0  0  0  0  0  0  0  0  0  0
  154.6915  143.3897  181.9991 Cl  0  0  0  0  0  0  0  0  0  0  0  0
  156.0190  141.3592  183.3037 C   0  0  0  0  0  0  0  0  0  0  0  0
  156.0672  140.1506  183.9541 C   0  0  0  0  0  0  0  0  0  0  0  0
  157.2583  139.5657  184.4420 N   0  0  0  0  0  0  0  0  0  0  0  0
  157.2434  138.9411  185.3012 H   0  0  0  0  0  0  0  0  0  0  0  0
  158.7458  139.8636  183.6426 S   0  0  0  0  0  0  0  0  0  0  0  0
  159.8123  138.9690  184.2613 O   0  0  0  0  0  0  0  0  0  0  0  0
  158.5618  139.4626  182.1808 O   0  0  0  0  0  0  0  0  0  0  0  0
  159.2959  141.4963  183.6929 C   0  0  0  0  0  0  0  0  0  0  0  0
  158.9564  142.4014  182.6815 C   0  0  0  0  0  0  0  0  0  0  0  0
  159.4199  143.6827  182.7662 C   0  0  0  0  0  0  0  0  0  0  0  0
  160.2110  144.0876  183.8283 C   0  0  0  0  0  0  0  0  0  0  0  0
  160.7966  145.7281  183.9212 Cl  0  0  0  0  0  0  0  0  0  0  0  0
  160.5505  143.1924  184.8342 C   0  0  0  0  0  0  0  0  0  0  0  0
  161.5486  143.7437  186.1537 Cl  0  0  0  0  0  0  0  0  0  0  0  0
  160.0798  141.8885  184.7501 C   0  0  0  0  0  0  0  0  0  0  0  0
  154.8709  138.2348  184.7649 O   0  0  0  0  0  0  0  0  0  0  0  0
  154.5087  137.9608  188.9359 C   0  0  0  0  0  0  0  0  0  0  0  0
  153.4117  138.3289  188.1426 C   0  0  0  0  0  0  0  0  0  0  0  0
  153.5422  138.4169  186.7681 C   0  0  0  0  0  0  0  0  0  0  0  0
  154.7349  138.1500  186.1392 C   0  0  0  0  0  0  0  0  0  0  0  0
  155.7932  137.7924  186.9375 C   0  0  0  0  0  0  0  0  0  0  0  0
  155.6891  137.6971  188.3148 C   0  0  0  0  0  0  0  0  0  0  0  0
  155.0525  138.6116  191.1459 O   0  0  0  0  0  0  0  0  0  0  0  0
  154.3469  137.8610  190.3781 C   0  0  0  0  0  0  0  0  0  0  0  0
  153.4413  136.9692  190.9872 N   0  0  0  0  0  0  0  0  0  0  0  0
  152.8778  136.3657  190.3393 H   0  0  0  0  0  0  0  0  0  0  0  0
  153.2196  136.8047  192.3956 C   0  0  0  0  0  0  0  0  0  0  0  0
  153.2558  135.3413  192.7408 C   0  0  0  0  0  0  0  0  0  0  0  0
  152.5165  135.0968  193.9455 N   0  0  0  0  0  0  0  0  0  0  0  0
  152.2258  133.7330  194.2281 C   0  0  0  0  0  0  0  0  0  0  0  0
  150.7459  133.5193  193.9567 C   0  0  0  0  0  0  0  0  0  0  0  0
  150.1759  134.8924  194.1709 C   0  0  0  0  0  0  0  0  0  0  0  0
  151.3223  135.8665  194.0928 C   0  0  0  0  0  0  0  0  0  0  0  0
 28 29  2  0  0  0
 29 30  1  0  0  0
 30 32  1  0  0  0
 32 33  1  0  0  0
 33 34  1  0  0  0
 34 35  1  0  0  0
 35 36  1  0  0  0
 36 37  1  0  0  0
 37 38  1  0  0  0
 29 22  1  0  0  0
 22 23  2  0  0  0
 23 24  1  0  0  0
 24 25  2  0  0  0
 25 21  1  0  0  0
 21  1  1  0  0  0
  1  2  2  0  0  0
  2  3  1  0  0  0
  3  4  2  0  0  0
  4  5  1  0  0  0
  4  6  1  0  0  0
  6  7  2  0  0  0
  7  8  1  0  0  0
  8 10  1  0  0  0
 10 11  2  0  0  0
 10 12  2  0  0  0
 10 13  1  0  0  0
 13 14  2  0  0  0
 14 15  1  0  0  0
 15 16  2  0  0  0
 16 17  1  0  0  0
 16 18  1  0  0  0
 18 19  1  0  0  0
 18 20  2  0  0  0
 25 26  1  0  0  0
 26 27  2  0  0  0
 38 34  1  0  0  0
 27 22  1  0  0  0
  7  1  1  0  0  0
 20 13  1  0  0  0
 30 31  1  0  0  0
  8  9  1  0  0  0
M  END
> <minimizedAffinity>
-8.35355

> <CNNscore>
0.3621613681

> <CNNaffinity>
6.6670441628

> <CNN_VS>
2.4145457745

> <CNNaffinity_variance>
0.2104219198

$$$$
[H]c1nc(Oc2c([H])c([H])c(C(=O)N([H])C([H])([H])C([H])([H])N3C([H])([H])C([H])([H])C([H])([H])C3([H])[H])c([H])c2[H])c(N([H])S(=O)(=O)c2c([H])c([H])c(Cl)c(Cl)c2[H])c([H])c1Cl


 38 41  0  0  0  0  0  0  0  0999 V2000
  154.5507  139.6424  183.4261 C   0  0  0  0  0  0  0  0  0  0  0  0
  153.4691  140.1619  182.8181 N   0  0  0  0  0  0  0  0  0  0  0  0
  153.4264  141.4424  182.4387 C   0  0  0  0  0  0  0  0  0  0  0  0
  154.5060  142.2359  182.6750 C   0  0  0  0  0  0  0  0  0  0  0  0
  154.4397  143.9165  182.1730 Cl  0  0  0  0  0  0  0  0  0  0  0  0
  155.6448  141.7147  183.3075 C   0  0  0  0  0  0  0  0  0  0  0  0
  155.6687  140.3961  183.6905 C   0  0  0  0  0  0  0  0  0  0  0  0
  156.7772  139.7763  184.3117 N   0  0  0  0  0  0  0  0  0  0  0  0
  156.6531  139.2086  185.2012 H   0  0  0  0  0  0  0  0  0  0  0  0
  158.3409  139.9386  183.6270 S   0  0  0  0  0  0  0  0  0  0  0  0
  159.2816  138.9772  184.3421 O   0  0  0  0  0  0  0  0  0  0  0  0
  158.2386  139.5205  182.1620 O   0  0  0  0  0  0  0  0  0  0  0  0
  159.0143  141.5238  183.6939 C   0  0  0  0  0  0  0  0  0  0  0  0
  158.7190  142.4731  182.7095 C   0  0  0  0  0  0  0  0  0  0  0  0
  159.2803  143.7137  182.8064 C   0  0  0  0  0  0  0  0  0  0  0  0
  160.1263  144.0354  183.8545 C   0  0  0  0  0  0  0  0  0  0  0  0
  160.8368  145.6248  183.9633 Cl  0  0  0  0  0  0  0  0  0  0  0  0
  160.4222  143.0961  184.8336 C   0  0  0  0  0  0  0  0  0  0  0  0
  161.4922  143.5426  186.1363 Cl  0  0  0  0  0  0  0  0  0  0  0  0
  159.8521  141.8334  184.7371 C   0  0  0  0  0  0  0  0  0  0  0  0
  154.5177  138.2928  183.7925 O   0  0  0  0  0  0  0  0  0  0  0  0
  151.6399  136.8588  186.4880 C   0  0  0  0  0  0  0  0  0  0  0  0
  151.7326  136.3340  185.1902 C   0  0  0  0  0  0  0  0  0  0  0  0
  152.6848  136.8146  184.3090 C   0  0  0  0  0  0  0  0  0  0  0  0
  153.5623  137.8094  184.6689 C   0  0  0  0  0  0  0  0  0  0  0  0
  153.4509  138.3065  185.9440 C   0  0  0  0  0  0  0  0  0  0  0  0
  152.5071  137.8433  186.8447 C   0  0  0  0  0  0  0  0  0  0  0  0
  149.3978  136.3849  187.0814 O   0  0  0  0  0  0  0  0  0  0  0  0
  150.6405  136.3302  187.4034 C   0  0  0  0  0  0  0  0  0  0  0  0
  150.9697  135.7515  188.6456 N   0  0  0  0  0  0  0  0  0  0  0  0
  151.9908  135.7200  188.8867 H   0  0  0  0  0  0  0  0  0  0  0  0
  150.0520  135.2094  189.6067 C   0  0  0  0  0  0  0  0  0  0  0  0
  150.7869  134.8991  190.8816 C   0  0  0  0  0  0  0  0  0  0  0  0
  151.5684  136.0298  191.2921 N   0  0  0  0  0  0  0  0  0  0  0  0
  152.8948  135.7438  191.7200 C   0  0  0  0  0  0  0  0  0  0  0  0
  152.9267  135.8978  193.2316 C   0  0  0  0  0  0  0  0  0  0  0  0
  151.8166  136.8786  193.4805 C   0  0  0  0  0  0  0  0  0  0  0  0
  150.9446  136.8837  192.2522 C   0  0  0  0  0  0  0  0  0  0  0  0
 28 29  2  0  0  0
 29 30  1  0  0  0
 30 32  1  0  0  0
 32 33  1  0  0  0
 33 34  1  0  0  0
 34 35  1  0  0  0
 35 36  1  0  0  0
 36 37  1  0  0  0
 37 38  1  0  0  0
 29 22  1  0  0  0
 22 23  2  0  0  0
 23 24  1  0  0  0
 24 25  2  0  0  0
 25 21  1  0  0  0
 21  1  1  0  0  0
  1  2  2  0  0  0
  2  3  1  0  0  0
  3  4  2  0  0  0
  4  5  1  0  0  0
  4  6  1  0  0  0
  6  7  2  0  0  0
  7  8  1  0  0  0
  8 10  1  0  0  0
 10 11  2  0  0  0
 10 12  2  0  0  0
 10 13  1  0  0  0
 13 14  2  0  0  0
 14 15  1  0  0  0
 15 16  2  0  0  0
 16 17  1  0  0  0
 16 18  1  0  0  0
 18 19  1  0  0  0
 18 20  2  0  0  0
 25 26  1  0  0  0
 26 27  2  0  0  0
 38 34  1  0  0  0
 27 22  1  0  0  0
  7  1  1  0  0  0
 20 13  1  0  0  0
 30 31  1  0  0  0
  8  9  1  0  0  0
M  END
> <minimizedAffinity>
-7.86579

> <CNNscore>
0.3560026288

> <CNNaffinity>
6.6821851730

> <CNN_VS>
2.3788754940

> <CNNaffinity_variance>
0.0662686229

$$$$
[H]c1nc(Oc2c([H])c([H])c(C(=O)N([H])C([H])([H])C([H])([H])N3C([H])([H])C([H])([H])C([H])([H])C3([H])[H])c([H])c2[H])c(N([H])S(=O)(=O)c2c([H])c([H])c(Cl)c(Cl)c2[H])c([H])c1Cl


 38 41  0  0  0  0  0  0  0  0999 V2000
  154.6193  139.8970  183.4241 C   0  0  0  0  0  0  0  0  0  0  0  0
  153.4834  140.0940  182.7309 N   0  0  0  0  0  0  0  0  0  0  0  0
  153.0932  141.3165  182.3585 C   0  0  0  0  0  0  0  0  0  0  0  0
  153.8674  142.3849  182.6907 C   0  0  0  0  0  0  0  0  0  0  0  0
  153.3459  143.9865  182.1972 Cl  0  0  0  0  0  0  0  0  0  0  0  0
  155.0562  142.2023  183.4132 C   0  0  0  0  0  0  0  0  0  0  0  0
  155.4395  140.9378  183.7873 C   0  0  0  0  0  0  0  0  0  0  0  0
  156.6296  140.6525  184.4952 N   0  0  0  0  0  0  0  0  0  0  0  0
  156.5940  140.3095  185.5001 H   0  0  0  0  0  0  0  0  0  0  0  0
  158.1496  140.8601  183.7292 S   0  0  0  0  0  0  0  0  0  0  0  0
  158.6088  139.5088  183.1966 O   0  0  0  0  0  0  0  0  0  0  0  0
  157.9352  141.8022  182.5469 O   0  0  0  0  0  0  0  0  0  0  0  0
  159.3945  141.5139  184.7260 C   0  0  0  0  0  0  0  0  0  0  0  0
  159.1171  141.9642  186.0212 C   0  0  0  0  0  0  0  0  0  0  0  0
  160.1377  142.4763  186.7694 C   0  0  0  0  0  0  0  0  0  0  0  0
  161.4251  142.5528  186.2649 C   0  0  0  0  0  0  0  0  0  0  0  0
  162.7180  143.2113  187.2331 Cl  0  0  0  0  0  0  0  0  0  0  0  0
  161.7047  142.1071  184.9797 C   0  0  0  0  0  0  0  0  0  0  0  0
  163.3396  142.2214  184.3834 Cl  0  0  0  0  0  0  0  0  0  0  0  0
  160.6680  141.5855  184.2169 C   0  0  0  0  0  0  0  0  0  0  0  0
  154.9588  138.5866  183.7767 O   0  0  0  0  0  0  0  0  0  0  0  0
  154.2430  137.1169  187.6407 C   0  0  0  0  0  0  0  0  0  0  0  0
  155.4513  137.7579  187.3288 C   0  0  0  0  0  0  0  0  0  0  0  0
  155.6774  138.2383  186.0513 C   0  0  0  0  0  0  0  0  0  0  0  0
  154.7389  138.1068  185.0557 C   0  0  0  0  0  0  0  0  0  0  0  0
  153.5652  137.4756  185.3861 C   0  0  0  0  0  0  0  0  0  0  0  0
  153.3142  136.9858  186.6565 C   0  0  0  0  0  0  0  0  0  0  0  0
  152.9090  136.8943  189.5835 O   0  0  0  0  0  0  0  0  0  0  0  0
  154.0196  136.6310  188.9936 C   0  0  0  0  0  0  0  0  0  0  0  0
  154.9737  135.8738  189.7026 N   0  0  0  0  0  0  0  0  0  0  0  0
  155.8732  135.6733  189.2002 H   0  0  0  0  0  0  0  0  0  0  0  0
  154.8376  135.3579  191.0349 C   0  0  0  0  0  0  0  0  0  0  0  0
  154.6797  133.8633  190.9798 C   0  0  0  0  0  0  0  0  0  0  0  0
  155.9207  133.2205  191.3028 N   0  0  0  0  0  0  0  0  0  0  0  0
  157.0476  134.0792  191.4337 C   0  0  0  0  0  0  0  0  0  0  0  0
  157.9202  133.8725  190.2068 C   0  0  0  0  0  0  0  0  0  0  0  0
  157.5763  132.4686  189.7980 C   0  0  0  0  0  0  0  0  0  0  0  0
  156.2712  132.1189  190.4640 C   0  0  0  0  0  0  0  0  0  0  0  0
 28 29  2  0  0  0
 29 30  1  0  0  0
 30 32  1  0  0  0
 32 33  1  0  0  0
 33 34  1  0  0  0
 34 35  1  0  0  0
 35 36  1  0  0  0
 36 37  1  0  0  0
 37 38  1  0  0  0
 29 22  1  0  0  0
 22 23  2  0  0  0
 23 24  1  0  0  0
 24 25  2  0  0  0
 25 21  1  0  0  0
 21  1  1  0  0  0
  1  2  2  0  0  0
  2  3  1  0  0  0
  3  4  2  0  0  0
  4  5  1  0  0  0
  4  6  1  0  0  0
  6  7  2  0  0  0
  7  8  1  0  0  0
  8 10  1  0  0  0
 10 11  2  0  0  0
 10 12  2  0  0  0
 10 13  1  0  0  0
 13 14  2  0  0  0
 14 15  1  0  0  0
 15 16  2  0  0  0
 16 17  1  0  0  0
 16 18  1  0  0  0
 18 19  1  0  0  0
 18 20  2  0  0  0
 25 26  1  0  0  0
 26 27  2  0  0  0
 38 34  1  0  0  0
 27 22  1  0  0  0
  7  1  1  0  0  0
 20 13  1  0  0  0
 30 31  1  0  0  0
  8  9  1  0  0  0
M  END
> <minimizedAffinity>
-7.80640

> <CNNscore>
0.3533962965

> <CNNaffinity>
6.7269043922

> <CNN_VS>
2.3772630692

> <CNNaffinity_variance>
0.1627378613

$$$$
[H]c1nc(Oc2c([H])c([H])c(C(=O)N([H])C([H])([H])C([H])([H])N3C([H])([H])C([H])([H])C([H])([H])C3([H])[H])c([H])c2[H])c(N([H])S(=O)(=O)c2c([H])c([H])c(Cl)c(Cl)c2[H])c([H])c1Cl


 38 41  0  0  0  0  0  0  0  0999 V2000
  154.2565  139.4168  183.2221 C   0  0  0  0  0  0  0  0  0  0  0  0
  155.4156  140.0054  183.5678 N   0  0  0  0  0  0  0  0  0  0  0  0
  155.6794  141.2752  183.2464 C   0  0  0  0  0  0  0  0  0  0  0  0
  154.7496  141.9862  182.5527 C   0  0  0  0  0  0  0  0  0  0  0  0
  155.1059  143.6533  182.1351 Cl  0  0  0  0  0  0  0  0  0  0  0  0
  153.5336  141.3921  182.1822 C   0  0  0  0  0  0  0  0  0  0  0  0
  153.2818  140.0854  182.5215 C   0  0  0  0  0  0  0  0  0  0  0  0
  152.0789  139.4094  182.2133 N   0  0  0  0  0  0  0  0  0  0  0  0
  151.5064  138.9450  182.9783 H   0  0  0  0  0  0  0  0  0  0  0  0
  151.5329  139.3350  180.5895 S   0  0  0  0  0  0  0  0  0  0  0  0
  151.0893  140.7296  180.1665 O   0  0  0  0  0  0  0  0  0  0  0  0
  152.7253  138.9216  179.7300 O   0  0  0  0  0  0  0  0  0  0  0  0
  150.2424  138.2310  180.2953 C   0  0  0  0  0  0  0  0  0  0  0  0
  150.0805  137.0867  181.0840 C   0  0  0  0  0  0  0  0  0  0  0  0
  149.0440  136.2422  180.8082 C   0  0  0  0  0  0  0  0  0  0  0  0
  148.1652  136.5045  179.7706 C   0  0  0  0  0  0  0  0  0  0  0  0
  146.8465  135.4146  179.4300 Cl  0  0  0  0  0  0  0  0  0  0  0  0
  148.3224  137.6390  178.9852 C   0  0  0  0  0  0  0  0  0  0  0  0
  147.1933  137.9316  177.6887 Cl  0  0  0  0  0  0  0  0  0  0  0  0
  149.3761  138.4996  179.2642 C   0  0  0  0  0  0  0  0  0  0  0  0
  154.0555  138.0839  183.5959 O   0  0  0  0  0  0  0  0  0  0  0  0
  154.2147  136.8502  187.6029 C   0  0  0  0  0  0  0  0  0  0  0  0
  154.2041  138.2134  187.2713 C   0  0  0  0  0  0  0  0  0  0  0  0
  154.1521  138.6094  185.9467 C   0  0  0  0  0  0  0  0  0  0  0  0
  154.1092  137.6938  184.9223 C   0  0  0  0  0  0  0  0  0  0  0  0
  154.1211  136.3664  185.2730 C   0  0  0  0  0  0  0  0  0  0  0  0
  154.1729  135.9438  186.5904 C   0  0  0  0  0  0  0  0  0  0  0  0
  154.7137  137.2772  189.8772 O   0  0  0  0  0  0  0  0  0  0  0  0
  154.2560  136.4550  189.0023 C   0  0  0  0  0  0  0  0  0  0  0  0
  153.8126  135.1965  189.4560 N   0  0  0  0  0  0  0  0  0  0  0  0
  153.4448  134.5420  188.7224 H   0  0  0  0  0  0  0  0  0  0  0  0
  153.8188  134.7252  190.8116 C   0  0  0  0  0  0  0  0  0  0  0  0
  152.4031  134.5341  191.2820 C   0  0  0  0  0  0  0  0  0  0  0  0
  151.9552  135.6961  191.9938 N   0  0  0  0  0  0  0  0  0  0  0  0
  152.4904  135.8665  193.3010 C   0  0  0  0  0  0  0  0  0  0  0  0
  151.3841  135.5394  194.2902 C   0  0  0  0  0  0  0  0  0  0  0  0
  150.1432  135.8412  193.4993 C   0  0  0  0  0  0  0  0  0  0  0  0
  150.5383  135.8686  192.0460 C   0  0  0  0  0  0  0  0  0  0  0  0
 28 29  2  0  0  0
 29 30  1  0  0  0
 30 32  1  0  0  0
 32 33  1  0  0  0
 33 34  1  0  0  0
 34 35  1  0  0  0
 35 36  1  0  0  0
 36 37  1  0  0  0
 37 38  1  0  0  0
 29 22  1  0  0  0
 22 23  2  0  0  0
 23 24  1  0  0  0
 24 25  2  0  0  0
 25 21  1  0  0  0
 21  1  1  0  0  0
  1  2  2  0  0  0
  2  3  1  0  0  0
  3  4  2  0  0  0
  4  5  1  0  0  0
  4  6  1  0  0  0
  6  7  2  0  0  0
  7  8  1  0  0  0
  8 10  1  0  0  0
 10 11  2  0  0  0
 10 12  2  0  0  0
 10 13  1  0  0  0
 13 14  2  0  0  0
 14 15  1  0  0  0
 15 16  2  0  0  0
 16 17  1  0  0  0
 16 18  1  0  0  0
 18 19  1  0  0  0
 18 20  2  0  0  0
 25 26  1  0  0  0
 26 27  2  0  0  0
 38 34  1  0  0  0
 27 22  1  0  0  0
  7  1  1  0  0  0
 20 13  1  0  0  0
 30 31  1  0  0  0
  8  9  1  0  0  0
M  END
> <minimizedAffinity>
-6.91173

> <CNNscore>
0.3465992212

> <CNNaffinity>
5.8734765053

> <CNN_VS>
2.0357422829

> <CNNaffinity_variance>
0.3086049855

$$$$
[H]c1nc(Oc2c([H])c([H])c(C(=O)N([H])C([H])([H])C([H])([H])N3C([H])([H])C([H])([H])C([H])([H])C3([H])[H])c([H])c2[H])c(N([H])S(=O)(=O)c2c([H])c([H])c(Cl)c(Cl)c2[H])c([H])c1Cl


 38 41  0  0  0  0  0  0  0  0999 V2000
  154.4610  139.5260  183.5464 C   0  0  0  0  0  0  0  0  0  0  0  0
  153.4202  140.0451  182.8703 N   0  0  0  0  0  0  0  0  0  0  0  0
  153.4046  141.3236  182.4824 C   0  0  0  0  0  0  0  0  0  0  0  0
  154.4700  142.1156  182.7804 C   0  0  0  0  0  0  0  0  0  0  0  0
  154.4396  143.7937  182.2667 Cl  0  0  0  0  0  0  0  0  0  0  0  0
  155.5663  141.5948  183.4845 C   0  0  0  0  0  0  0  0  0  0  0  0
  155.5627  140.2782  183.8750 C   0  0  0  0  0  0  0  0  0  0  0  0
  156.6292  139.6589  184.5663 N   0  0  0  0  0  0  0  0  0  0  0  0
  156.4518  138.8296  185.2063 H   0  0  0  0  0  0  0  0  0  0  0  0
  158.2281  140.2475  184.3737 S   0  0  0  0  0  0  0  0  0  0  0  0
  158.5610  141.1356  185.5658 O   0  0  0  0  0  0  0  0  0  0  0  0
  159.1604  139.0383  184.3919 O   0  0  0  0  0  0  0  0  0  0  0  0
  158.5177  141.1350  182.9248 C   0  0  0  0  0  0  0  0  0  0  0  0
  158.5376  140.4950  181.6809 C   0  0  0  0  0  0  0  0  0  0  0  0
  158.7742  141.2424  180.5632 C   0  0  0  0  0  0  0  0  0  0  0  0
  158.9915  142.6074  180.6492 C   0  0  0  0  0  0  0  0  0  0  0  0
  159.2941  143.5481  179.2118 Cl  0  0  0  0  0  0  0  0  0  0  0  0
  158.9729  143.2465  181.8820 C   0  0  0  0  0  0  0  0  0  0  0  0
  159.2512  144.9670  181.9454 Cl  0  0  0  0  0  0  0  0  0  0  0  0
  158.7321  142.4881  183.0201 C   0  0  0  0  0  0  0  0  0  0  0  0
  154.4016  138.1785  183.9170 O   0  0  0  0  0  0  0  0  0  0  0  0
  153.1568  137.0790  187.7700 C   0  0  0  0  0  0  0  0  0  0  0  0
  153.5495  136.1069  186.8376 C   0  0  0  0  0  0  0  0  0  0  0  0
  153.9577  136.4803  185.5695 C   0  0  0  0  0  0  0  0  0  0  0  0
  153.9928  137.7990  185.1833 C   0  0  0  0  0  0  0  0  0  0  0  0
  153.6033  138.7307  186.1135 C   0  0  0  0  0  0  0  0  0  0  0  0
  153.1907  138.3836  187.3887 C   0  0  0  0  0  0  0  0  0  0  0  0
  151.6481  136.0117  189.2494 O   0  0  0  0  0  0  0  0  0  0  0  0
  152.7439  136.6663  189.1024 C   0  0  0  0  0  0  0  0  0  0  0  0
  153.4959  136.9515  190.2599 N   0  0  0  0  0  0  0  0  0  0  0  0
  154.3859  137.4886  190.1142 H   0  0  0  0  0  0  0  0  0  0  0  0
  153.1638  136.5857  191.6073 C   0  0  0  0  0  0  0  0  0  0  0  0
  154.2721  135.7508  192.1874 C   0  0  0  0  0  0  0  0  0  0  0  0
  155.2003  135.3748  191.1604 N   0  0  0  0  0  0  0  0  0  0  0  0
  155.0968  134.0354  190.6918 C   0  0  0  0  0  0  0  0  0  0  0  0
  156.2843  133.2675  191.2483 C   0  0  0  0  0  0  0  0  0  0  0  0
  157.3076  134.3499  191.4423 C   0  0  0  0  0  0  0  0  0  0  0  0
  156.5702  135.6633  191.4437 C   0  0  0  0  0  0  0  0  0  0  0  0
 28 29  2  0  0  0
 29 30  1  0  0  0
 30 32  1  0  0  0
 32 33  1  0  0  0
 33 34  1  0  0  0
 34 35  1  0  0  0
 35 36  1  0  0  0
 36 37  1  0  0  0
 37 38  1  0  0  0
 29 22  1  0  0  0
 22 23  2  0  0  0
 23 24  1  0  0  0
 24 25  2  0  0  0
 25 21  1  0  0  0
 21  1  1  0  0  0
  1  2  2  0  0  0
  2  3  1  0  0  0
  3  4  2  0  0  0
  4  5  1  0  0  0
  4  6  1  0  0  0
  6  7  2  0  0  0
  7  8  1  0  0  0
  8 10  1  0  0  0
 10 11  2  0  0  0
 10 12  2  0  0  0
 10 13  1  0  0  0
 13 14  2  0  0  0
 14 15  1  0  0  0
 15 16  2  0  0  0
 16 17  1  0  0  0
 16 18  1  0  0  0
 18 19  1  0  0  0
 18 20  2  0  0  0
 25 26  1  0  0  0
 26 27  2  0  0  0
 38 34  1  0  0  0
 27 22  1  0  0  0
  7  1  1  0  0  0
 20 13  1  0  0  0
 30 31  1  0  0  0
  8  9  1  0  0  0
M  END
> <minimizedAffinity>
-8.07971

> <CNNscore>
0.3461923599

> <CNNaffinity>
6.6994543076

> <CNN_VS>
2.3192999363

> <CNNaffinity_variance>
0.2511989474

$$$$
[H]c1c([H])c(N([H])c2nc(N([H])[H])nc(C([H])([H])Cl)n2)c([H])c([H])c1OC([H])([H])[H]


 21 22  0  0  0  0  0  0  0  0999 V2000
  158.0102  140.8524  182.6633 C   0  0  0  0  0  0  0  0  0  0  0  0
  158.4490  141.1600  181.4379 N   0  0  0  0  0  0  0  0  0  0  0  0
  157.7096  141.6258  180.4294 C   0  0  0  0  0  0  0  0  0  0  0  0
  158.2494  141.9310  179.1507 N   0  0  0  0  0  0  0  0  0  0  0  0
  156.3769  141.8119  180.6526 N   0  0  0  0  0  0  0  0  0  0  0  0
  155.8643  141.5215  181.8690 C   0  0  0  0  0  0  0  0  0  0  0  0
  156.6613  141.0585  182.8340 N   0  0  0  0  0  0  0  0  0  0  0  0
  159.2722  142.0978  179.0447 H   0  0  0  0  0  0  0  0  0  0  0  0
  157.6274  141.9886  178.3193 H   0  0  0  0  0  0  0  0  0  0  0  0
  158.7850  140.3604  183.7324 N   0  0  0  0  0  0  0  0  0  0  0  0
  158.7745  139.3085  183.8447 H   0  0  0  0  0  0  0  0  0  0  0  0
  161.2537  142.6661  186.2042 C   0  0  0  0  0  0  0  0  0  0  0  0
  159.9859  142.3745  186.6400 C   0  0  0  0  0  0  0  0  0  0  0  0
  159.1200  141.6000  185.8556 C   0  0  0  0  0  0  0  0  0  0  0  0
  159.5347  141.1214  184.6322 C   0  0  0  0  0  0  0  0  0  0  0  0
  160.8454  141.4368  184.2089 C   0  0  0  0  0  0  0  0  0  0  0  0
  161.6873  142.1975  184.9866 C   0  0  0  0  0  0  0  0  0  0  0  0
  163.1956  142.8529  187.6026 C   0  0  0  0  0  0  0  0  0  0  0  0
  162.0845  143.4272  186.9907 O   0  0  0  0  0  0  0  0  0  0  0  0
  154.4100  141.7104  182.1568 C   0  0  0  0  0  0  0  0  0  0  0  0
  154.1310  143.3836  182.6887 Cl  0  0  0  0  0  0  0  0  0  0  0  0
 18 19  1  0  0  0
 19 12  1  0  0  0
 12 13  2  0  0  0
 13 14  1  0  0  0
 14 15  2  0  0  0
 15 10  1  0  0  0
 10  1  1  0  0  0
  1  2  2  0  0  0
  2  3  1  0  0  0
  3  4  1  0  0  0
  3  5  2  0  0  0
  5  6  1  0  0  0
  6 20  1  0  0  0
 20 21  1  0  0  0
  6  7  2  0  0  0
 15 16  1  0  0  0
 16 17  2  0  0  0
 17 12  1  0  0  0
  7  1  1  0  0  0
 10 11  1  0  0  0
  4  8  1  0  0  0
  4  9  1  0  0  0
M  END
> <minimizedAffinity>
-7.31906

> <CNNscore>
0.6784053445

> <CNNaffinity>
6.1021623611

> <CNN_VS>
4.1397395134

> <CNNaffinity_variance>
0.0897993296

$$$$
[H]c1c([H])c(N([H])c2nc(N([H])[H])nc(C([H])([H])Cl)n2)c([H])c([H])c1OC([H])([H])[H]


 21 22  0  0  0  0  0  0  0  0999 V2000
  157.1544  140.4525  183.7022 C   0  0  0  0  0  0  0  0  0  0  0  0
  156.6395  139.5408  184.5343 N   0  0  0  0  0  0  0  0  0  0  0  0
  155.3460  139.2459  184.6782 C   0  0  0  0  0  0  0  0  0  0  0  0
  154.8734  138.2606  185.5867 N   0  0  0  0  0  0  0  0  0  0  0  0
  154.4498  139.9304  183.9108 N   0  0  0  0  0  0  0  0  0  0  0  0
  154.9002  140.8672  183.0470 C   0  0  0  0  0  0  0  0  0  0  0  0
  156.2085  141.1124  182.9533 N   0  0  0  0  0  0  0  0  0  0  0  0
  155.5221  137.5266  185.9410 H   0  0  0  0  0  0  0  0  0  0  0  0
  153.8818  138.2690  185.8999 H   0  0  0  0  0  0  0  0  0  0  0  0
  158.5185  140.7687  183.5452 N   0  0  0  0  0  0  0  0  0  0  0  0
  158.9376  140.4895  182.6147 H   0  0  0  0  0  0  0  0  0  0  0  0
  161.1891  142.6825  186.1386 C   0  0  0  0  0  0  0  0  0  0  0  0
  159.9342  142.3800  186.6034 C   0  0  0  0  0  0  0  0  0  0  0  0
  159.0028  141.7328  185.7796 C   0  0  0  0  0  0  0  0  0  0  0  0
  159.3391  141.3922  184.4879 C   0  0  0  0  0  0  0  0  0  0  0  0
  160.6383  141.7156  184.0361 C   0  0  0  0  0  0  0  0  0  0  0  0
  161.5449  142.3506  184.8528 C   0  0  0  0  0  0  0  0  0  0  0  0
  163.1839  142.6292  187.4725 C   0  0  0  0  0  0  0  0  0  0  0  0
  162.0850  143.3172  186.9647 O   0  0  0  0  0  0  0  0  0  0  0  0
  153.9532  141.6405  182.1873 C   0  0  0  0  0  0  0  0  0  0  0  0
  153.8220  143.3012  182.8079 Cl  0  0  0  0  0  0  0  0  0  0  0  0
 18 19  1  0  0  0
 19 12  1  0  0  0
 12 13  2  0  0  0
 13 14  1  0  0  0
 14 15  2  0  0  0
 15 10  1  0  0  0
 10  1  1  0  0  0
  1  2  2  0  0  0
  2  3  1  0  0  0
  3  4  1  0  0  0
  3  5  2  0  0  0
  5  6  1  0  0  0
  6 20  1  0  0  0
 20 21  1  0  0  0
  6  7  2  0  0  0
 15 16  1  0  0  0
 16 17  2  0  0  0
 17 12  1  0  0  0
  7  1  1  0  0  0
 10 11  1  0  0  0
  4  8  1  0  0  0
  4  9  1  0  0  0
M  END
> <minimizedAffinity>
-7.15227

> <CNNscore>
0.6215058565

> <CNNaffinity>
5.5341863632

> <CNN_VS>
3.4395291805

> <CNNaffinity_variance>
0.0827836320

$$$$
[H]c1c([H])c(N([H])c2nc(N([H])[H])nc(C([H])([H])Cl)n2)c([H])c([H])c1OC([H])([H])[H]


 21 22  0  0  0  0  0  0  0  0999 V2000
  158.4446  142.6369  182.9856 C   0  0  0  0  0  0  0  0  0  0  0  0
  157.5794  141.7720  183.5260 N   0  0  0  0  0  0  0  0  0  0  0  0
  156.7989  140.9179  182.8610 C   0  0  0  0  0  0  0  0  0  0  0  0
  155.9012  140.0259  183.5076 N   0  0  0  0  0  0  0  0  0  0  0  0
  156.8788  140.9135  181.4993 N   0  0  0  0  0  0  0  0  0  0  0  0
  157.7328  141.7621  180.8853 C   0  0  0  0  0  0  0  0  0  0  0  0
  158.4851  142.5909  181.6118 N   0  0  0  0  0  0  0  0  0  0  0  0
  156.0394  139.7869  184.5120 H   0  0  0  0  0  0  0  0  0  0  0  0
  155.1060  139.6101  182.9819 H   0  0  0  0  0  0  0  0  0  0  0  0
  159.2715  143.5411  183.6815 N   0  0  0  0  0  0  0  0  0  0  0  0
  159.1969  144.5482  183.3661 H   0  0  0  0  0  0  0  0  0  0  0  0
  161.6783  142.5498  186.9594 C   0  0  0  0  0  0  0  0  0  0  0  0
  162.2813  142.7323  185.7406 C   0  0  0  0  0  0  0  0  0  0  0  0
  161.5238  143.0726  184.6113 C   0  0  0  0  0  0  0  0  0  0  0  0
  160.1588  143.2277  184.7137 C   0  0  0  0  0  0  0  0  0  0  0  0
  159.5648  143.0341  185.9810 C   0  0  0  0  0  0  0  0  0  0  0  0
  160.3175  142.7005  187.0831 C   0  0  0  0  0  0  0  0  0  0  0  0
  163.8310  142.2858  187.9879 C   0  0  0  0  0  0  0  0  0  0  0  0
  162.4418  142.2166  188.0522 O   0  0  0  0  0  0  0  0  0  0  0  0
  157.8521  141.7905  179.3958 C   0  0  0  0  0  0  0  0  0  0  0  0
  158.9969  143.0663  178.9244 Cl  0  0  0  0  0  0  0  0  0  0  0  0
 18 19  1  0  0  0
 19 12  1  0  0  0
 12 13  2  0  0  0
 13 14  1  0  0  0
 14 15  2  0  0  0
 15 10  1  0  0  0
 10  1  1  0  0  0
  1  2  2  0  0  0
  2  3  1  0  0  0
  3  4  1  0  0  0
  3  5  2  0  0  0
  5  6  1  0  0  0
  6 20  1  0  0  0
 20 21  1  0  0  0
  6  7  2  0  0  0
 15 16  1  0  0  0
 16 17  2  0  0  0
 17 12  1  0  0  0
  7  1  1  0  0  0
 10 11  1  0  0  0
  4  8  1  0  0  0
  4  9  1  0  0  0
M  END
> <minimizedAffinity>
-5.23855

> <CNNscore>
0.4265856147

> <CNNaffinity>
5.8895759583

> <CNN_VS>
2.5124084949

> <CNNaffinity_variance>
0.2404709309

$$$$
[H]c1c([H])c(N([H])c2nc(N([H])[H])nc(C([H])([H])Cl)n2)c([H])c([H])c1OC([H])([H])[H]


 21 22  0  0  0  0  0  0  0  0999 V2000
  157.0730  140.4864  183.5672 C   0  0  0  0  0  0  0  0  0  0  0  0
  156.2715  141.3992  183.0075 N   0  0  0  0  0  0  0  0  0  0  0  0
  154.9409  141.4425  183.0992 C   0  0  0  0  0  0  0  0  0  0  0  0
  154.1546  142.4477  182.4742 N   0  0  0  0  0  0  0  0  0  0  0  0
  154.3231  140.4703  183.8299 N   0  0  0  0  0  0  0  0  0  0  0  0
  155.0718  139.5147  184.4240 C   0  0  0  0  0  0  0  0  0  0  0  0
  156.3995  139.5308  184.2914 N   0  0  0  0  0  0  0  0  0  0  0  0
  154.5937  143.3478  182.1877 H   0  0  0  0  0  0  0  0  0  0  0  0
  153.1415  142.2887  182.3013 H   0  0  0  0  0  0  0  0  0  0  0  0
  158.4781  140.4347  183.4746 N   0  0  0  0  0  0  0  0  0  0  0  0
  158.8536  139.7610  182.7504 H   0  0  0  0  0  0  0  0  0  0  0  0
  161.0074  142.5957  186.0148 C   0  0  0  0  0  0  0  0  0  0  0  0
  161.4571  142.2887  184.7554 C   0  0  0  0  0  0  0  0  0  0  0  0
  160.6484  141.5735  183.8614 C   0  0  0  0  0  0  0  0  0  0  0  0
  159.3872  141.1686  184.2399 C   0  0  0  0  0  0  0  0  0  0  0  0
  158.9501  141.4988  185.5423 C   0  0  0  0  0  0  0  0  0  0  0  0
  159.7517  142.2015  186.4119 C   0  0  0  0  0  0  0  0  0  0  0  0
  162.9871  142.7232  187.3661 C   0  0  0  0  0  0  0  0  0  0  0  0
  161.8183  143.2978  186.8736 O   0  0  0  0  0  0  0  0  0  0  0  0
  154.4361  138.4311  185.2336 C   0  0  0  0  0  0  0  0  0  0  0  0
  155.4041  138.1497  186.6978 Cl  0  0  0  0  0  0  0  0  0  0  0  0
 18 19  1  0  0  0
 19 12  1  0  0  0
 12 13  2  0  0  0
 13 14  1  0  0  0
 14 15  2  0  0  0
 15 10  1  0  0  0
 10  1  1  0  0  0
  1  2  2  0  0  0
  2  3  1  0  0  0
  3  4  1  0  0  0
  3  5  2  0  0  0
  5  6  1  0  0  0
  6 20  1  0  0  0
 20 21  1  0  0  0
  6  7  2  0  0  0
 15 16  1  0  0  0
 16 17  2  0  0  0
 17 12  1  0  0  0
  7  1  1  0  0  0
 10 11  1  0  0  0
  4  8  1  0  0  0
  4  9  1  0  0  0
M  END
> <minimizedAffinity>
-6.72980

> <CNNscore>
0.4092780650

> <CNNaffinity>
5.5494332314

> <CNN_VS>
2.2712612152

> <CNNaffinity_variance>
0.0882299840

$$$$
[H]c1c([H])c(N([H])c2nc(N([H])[H])nc(C([H])([H])Cl)n2)c([H])c([H])c1OC([H])([H])[H]


 21 22  0  0  0  0  0  0  0  0999 V2000
  158.7385  141.6272  184.7192 C   0  0  0  0  0  0  0  0  0  0  0  0
  159.6612  141.8185  185.6683 N   0  0  0  0  0  0  0  0  0  0  0  0
  160.5492  142.8136  185.7157 C   0  0  0  0  0  0  0  0  0  0  0  0
  161.5023  142.9509  186.7608 N   0  0  0  0  0  0  0  0  0  0  0  0
  160.5274  143.7322  184.7076 N   0  0  0  0  0  0  0  0  0  0  0  0
  159.6206  143.6008  183.7142 C   0  0  0  0  0  0  0  0  0  0  0  0
  158.7605  142.5807  183.7284 N   0  0  0  0  0  0  0  0  0  0  0  0
  161.3463  142.4722  187.6727 H   0  0  0  0  0  0  0  0  0  0  0  0
  162.3559  143.5278  186.6192 H   0  0  0  0  0  0  0  0  0  0  0  0
  157.7982  140.5793  184.6629 N   0  0  0  0  0  0  0  0  0  0  0  0
  158.0703  139.7059  185.1944 H   0  0  0  0  0  0  0  0  0  0  0  0
  154.0461  140.4007  182.8164 C   0  0  0  0  0  0  0  0  0  0  0  0
  154.9194  141.3829  182.4225 C   0  0  0  0  0  0  0  0  0  0  0  0
  156.1915  141.4839  183.0025 C   0  0  0  0  0  0  0  0  0  0  0  0
  156.5803  140.5938  183.9794 C   0  0  0  0  0  0  0  0  0  0  0  0
  155.6609  139.5926  184.3651 C   0  0  0  0  0  0  0  0  0  0  0  0
  154.4148  139.5021  183.7892 C   0  0  0  0  0  0  0  0  0  0  0  0
  152.4264  139.1783  181.5342 C   0  0  0  0  0  0  0  0  0  0  0  0
  152.8044  140.3217  182.2333 O   0  0  0  0  0  0  0  0  0  0  0  0
  159.5618  144.5844  182.5904 C   0  0  0  0  0  0  0  0  0  0  0  0
  158.8356  143.8047  181.1674 Cl  0  0  0  0  0  0  0  0  0  0  0  0
 18 19  1  0  0  0
 19 12  1  0  0  0
 12 13  2  0  0  0
 13 14  1  0  0  0
 14 15  2  0  0  0
 15 10  1  0  0  0
 10  1  1  0  0  0
  1  2  2  0  0  0
  2  3  1  0  0  0
  3  4  1  0  0  0
  3  5  2  0  0  0
  5  6  1  0  0  0
  6 20  1  0  0  0
 20 21  1  0  0  0
  6  7  2  0  0  0
 15 16  1  0  0  0
 16 17  2  0  0  0
 17 12  1  0  0  0
  7  1  1  0  0  0
 10 11  1  0  0  0
  4  8  1  0  0  0
  4  9  1  0  0  0
M  END
> <minimizedAffinity>
-6.19611

> <CNNscore>
0.3970639110

> <CNNaffinity>
5.6765718460

> <CNN_VS>
2.2539618015

> <CNNaffinity_variance>
0.1451692283

$$$$
[H]c1c([H])c(N([H])c2nc(N([H])[H])nc(C([H])([H])Cl)n2)c([H])c([H])c1OC([H])([H])[H]


 21 22  0  0  0  0  0  0  0  0999 V2000
  156.6731  141.2699  182.1088 C   0  0  0  0  0  0  0  0  0  0  0  0
  157.0981  141.4205  180.8497 N   0  0  0  0  0  0  0  0  0  0  0  0
  158.2588  141.9570  180.4680 C   0  0  0  0  0  0  0  0  0  0  0  0
  158.6419  142.0833  179.1053 N   0  0  0  0  0  0  0  0  0  0  0  0
  159.1045  142.3992  181.4426 N   0  0  0  0  0  0  0  0  0  0  0  0
  158.7393  142.2787  182.7382 C   0  0  0  0  0  0  0  0  0  0  0  0
  157.5628  141.7318  183.0502 N   0  0  0  0  0  0  0  0  0  0  0  0
  158.1839  141.4925  178.3798 H   0  0  0  0  0  0  0  0  0  0  0  0
  159.3783  142.7635  178.8288 H   0  0  0  0  0  0  0  0  0  0  0  0
  155.4493  140.7045  182.5188 N   0  0  0  0  0  0  0  0  0  0  0  0
  154.6321  140.8921  181.8736 H   0  0  0  0  0  0  0  0  0  0  0  0
  155.0992  138.4797  186.0470 C   0  0  0  0  0  0  0  0  0  0  0  0
  153.9550  138.7870  185.3549 C   0  0  0  0  0  0  0  0  0  0  0  0
  154.0154  139.5232  184.1635 C   0  0  0  0  0  0  0  0  0  0  0  0
  155.2302  139.9487  183.6727 C   0  0  0  0  0  0  0  0  0  0  0  0
  156.3918  139.6176  184.4059 C   0  0  0  0  0  0  0  0  0  0  0  0
  156.3216  138.8943  185.5739 C   0  0  0  0  0  0  0  0  0  0  0  0
  154.1319  138.1424  188.2177 C   0  0  0  0  0  0  0  0  0  0  0  0
  155.0149  137.7569  187.2125 O   0  0  0  0  0  0  0  0  0  0  0  0
  159.6353  142.7499  183.8377 C   0  0  0  0  0  0  0  0  0  0  0  0
  159.2099  141.9044  185.3425 Cl  0  0  0  0  0  0  0  0  0  0  0  0
 18 19  1  0  0  0
 19 12  1  0  0  0
 12 13  2  0  0  0
 13 14  1  0  0  0
 14 15  2  0  0  0
 15 10  1  0  0  0
 10  1  1  0  0  0
  1  2  2  0  0  0
  2  3  1  0  0  0
  3  4  1  0  0  0
  3  5  2  0  0  0
  5  6  1  0  0  0
  6 20  1  0  0  0
 20 21  1  0  0  0
  6  7  2  0  0  0
 15 16  1  0  0  0
 16 17  2  0  0  0
 17 12  1  0  0  0
  7  1  1  0  0  0
 10 11  1  0  0  0
  4  8  1  0  0  0
  4  9  1  0  0  0
M  END
> <minimizedAffinity>
-6.41074

> <CNNscore>
0.3970454931

> <CNNaffinity>
5.5353121758

> <CNN_VS>
2.1977708340

> <CNNaffinity_variance>
0.0890582725

$$$$
[H]c1c([H])c(N([H])c2nc(N([H])[H])nc(C([H])([H])Cl)n2)c([H])c([H])c1OC([H])([H])[H]


 21 22  0  0  0  0  0  0  0  0999 V2000
  157.0841  140.3519  183.5939 C   0  0  0  0  0  0  0  0  0  0  0  0
  156.5919  139.4967  184.4967 N   0  0  0  0  0  0  0  0  0  0  0  0
  155.3008  139.2663  184.7429 C   0  0  0  0  0  0  0  0  0  0  0  0
  154.8532  138.3386  185.7220 N   0  0  0  0  0  0  0  0  0  0  0  0
  154.3817  139.9612  184.0128 N   0  0  0  0  0  0  0  0  0  0  0  0
  154.8082  140.8433  183.0819 C   0  0  0  0  0  0  0  0  0  0  0  0
  156.1156  141.0252  182.8867 N   0  0  0  0  0  0  0  0  0  0  0  0
  155.4939  137.5899  186.0597 H   0  0  0  0  0  0  0  0  0  0  0  0
  153.8879  138.4037  186.1033 H   0  0  0  0  0  0  0  0  0  0  0  0
  158.4455  140.5999  183.3288 N   0  0  0  0  0  0  0  0  0  0  0  0
  158.7931  140.2353  182.3984 H   0  0  0  0  0  0  0  0  0  0  0  0
  160.9382  142.5355  186.0784 C   0  0  0  0  0  0  0  0  0  0  0  0
  161.4400  142.2495  184.8338 C   0  0  0  0  0  0  0  0  0  0  0  0
  160.6462  141.6092  183.8722 C   0  0  0  0  0  0  0  0  0  0  0  0
  159.3474  141.2580  184.1680 C   0  0  0  0  0  0  0  0  0  0  0  0
  158.8570  141.5651  185.4571 C   0  0  0  0  0  0  0  0  0  0  0  0
  159.6444  142.1941  186.3935 C   0  0  0  0  0  0  0  0  0  0  0  0
  163.0308  142.7112  187.2411 C   0  0  0  0  0  0  0  0  0  0  0  0
  161.7354  143.1638  187.0045 O   0  0  0  0  0  0  0  0  0  0  0  0
  153.8357  141.6255  182.2598 C   0  0  0  0  0  0  0  0  0  0  0  0
  152.6697  140.5102  181.5135 Cl  0  0  0  0  0  0  0  0  0  0  0  0
 18 19  1  0  0  0
 19 12  1  0  0  0
 12 13  2  0  0  0
 13 14  1  0  0  0
 14 15  2  0  0  0
 15 10  1  0  0  0
 10  1  1  0  0  0
  1  2  2  0  0  0
  2  3  1  0  0  0
  3  4  1  0  0  0
  3  5  2  0  0  0
  5  6  1  0  0  0
  6 20  1  0  0  0
 20 21  1  0  0  0
  6  7  2  0  0  0
 15 16  1  0  0  0
 16 17  2  0  0  0
 17 12  1  0  0  0
  7  1  1  0  0  0
 10 11  1  0  0  0
  4  8  1  0  0  0
  4  9  1  0  0  0
M  END
> <minimizedAffinity>
-6.97042

> <CNNscore>
0.3962187469

> <CNNaffinity>
5.3526353836

> <CNN_VS>
2.1208145618

> <CNNaffinity_variance>
0.1220277920

$$$$
[H]c1c([H])c(N([H])c2nc(N([H])[H])nc(C([H])([H])Cl)n2)c([H])c([H])c1OC([H])([H])[H]


 21 22  0  0  0  0  0  0  0  0999 V2000
  154.0935  140.8562  182.7379 C   0  0  0  0  0  0  0  0  0  0  0  0
  153.9486  139.8053  183.5523 N   0  0  0  0  0  0  0  0  0  0  0  0
  153.2346  138.7061  183.3018 C   0  0  0  0  0  0  0  0  0  0  0  0
  153.1277  137.6268  184.2201 N   0  0  0  0  0  0  0  0  0  0  0  0
  152.5839  138.6309  182.1053 N   0  0  0  0  0  0  0  0  0  0  0  0
  152.6861  139.6578  181.2325 C   0  0  0  0  0  0  0  0  0  0  0  0
  153.4176  140.7285  181.5470 N   0  0  0  0  0  0  0  0  0  0  0  0
  153.8373  137.5140  184.9743 H   0  0  0  0  0  0  0  0  0  0  0  0
  152.3435  136.9483  184.1425 H   0  0  0  0  0  0  0  0  0  0  0  0
  154.8457  142.0195  182.9958 N   0  0  0  0  0  0  0  0  0  0  0  0
  154.3006  142.9247  182.9431 H   0  0  0  0  0  0  0  0  0  0  0  0
  158.9519  142.4312  183.6958 C   0  0  0  0  0  0  0  0  0  0  0  0
  158.2407  141.5633  184.4854 C   0  0  0  0  0  0  0  0  0  0  0  0
  156.8647  141.3815  184.2894 C   0  0  0  0  0  0  0  0  0  0  0  0
  156.2083  142.0761  183.2972 C   0  0  0  0  0  0  0  0  0  0  0  0
  156.9657  142.9626  182.4992 C   0  0  0  0  0  0  0  0  0  0  0  0
  158.3159  143.1336  182.6997 C   0  0  0  0  0  0  0  0  0  0  0  0
  160.7633  143.5733  184.7801 C   0  0  0  0  0  0  0  0  0  0  0  0
  160.3000  142.5928  183.9068 O   0  0  0  0  0  0  0  0  0  0  0  0
  151.9897  139.6170  179.9108 C   0  0  0  0  0  0  0  0  0  0  0  0
  150.2447  139.8462  180.1610 Cl  0  0  0  0  0  0  0  0  0  0  0  0
 18 19  1  0  0  0
 19 12  1  0  0  0
 12 13  2  0  0  0
 13 14  1  0  0  0
 14 15  2  0  0  0
 15 10  1  0  0  0
 10  1  1  0  0  0
  1  2  2  0  0  0
  2  3  1  0  0  0
  3  4  1  0  0  0
  3  5  2  0  0  0
  5  6  1  0  0  0
  6 20  1  0  0  0
 20 21  1  0  0  0
  6  7  2  0  0  0
 15 16  1  0  0  0
 16 17  2  0  0  0
 17 12  1  0  0  0
  7  1  1  0  0  0
 10 11  1  0  0  0
  4  8  1  0  0  0
  4  9  1  0  0  0
M  END
> <minimizedAffinity>
-5.78792

> <CNNscore>
0.3344819844

> <CNNaffinity>
5.2211413383

> <CNN_VS>
1.7463777065

> <CNNaffinity_variance>
0.2418377846

$$$$
[H]c1c([H])c(N([H])c2nc(N([H])[H])nc(C([H])([H])Cl)n2)c([H])c([H])c1OC([H])([H])[H]


 21 22  0  0  0  0  0  0  0  0999 V2000
  156.0027  139.7107  184.1139 C   0  0  0  0  0  0  0  0  0  0  0  0
  157.3264  139.6048  183.9548 N   0  0  0  0  0  0  0  0  0  0  0  0
  158.1245  140.5003  183.3698 C   0  0  0  0  0  0  0  0  0  0  0  0
  159.5275  140.3167  183.2376 N   0  0  0  0  0  0  0  0  0  0  0  0
  157.5516  141.6380  182.8820 N   0  0  0  0  0  0  0  0  0  0  0  0
  156.2173  141.8118  183.0082 C   0  0  0  0  0  0  0  0  0  0  0  0
  155.4774  140.8752  183.6048 N   0  0  0  0  0  0  0  0  0  0  0  0
  160.0233  139.6392  183.8543 H   0  0  0  0  0  0  0  0  0  0  0  0
  160.0620  140.8562  182.5273 H   0  0  0  0  0  0  0  0  0  0  0  0
  155.1543  138.7696  184.7303 N   0  0  0  0  0  0  0  0  0  0  0  0
  154.5285  138.2314  184.0685 H   0  0  0  0  0  0  0  0  0  0  0  0
  154.5801  138.0056  188.8055 C   0  0  0  0  0  0  0  0  0  0  0  0
  155.8327  137.8173  188.2780 C   0  0  0  0  0  0  0  0  0  0  0  0
  156.0823  138.0653  186.9211 C   0  0  0  0  0  0  0  0  0  0  0  0
  155.0674  138.5025  186.0985 C   0  0  0  0  0  0  0  0  0  0  0  0
  153.7880  138.6881  186.6687 C   0  0  0  0  0  0  0  0  0  0  0  0
  153.5538  138.4420  188.0017 C   0  0  0  0  0  0  0  0  0  0  0  0
  155.0613  138.4615  191.1125 C   0  0  0  0  0  0  0  0  0  0  0  0
  154.3596  137.7558  190.1385 O   0  0  0  0  0  0  0  0  0  0  0  0
  155.5486  143.0431  182.4881 C   0  0  0  0  0  0  0  0  0  0  0  0
  153.9765  143.2405  183.2942 Cl  0  0  0  0  0  0  0  0  0  0  0  0
 18 19  1  0  0  0
 19 12  1  0  0  0
 12 13  2  0  0  0
 13 14  1  0  0  0
 14 15  2  0  0  0
 15 10  1  0  0  0
 10  1  1  0  0  0
  1  2  2  0  0  0
  2  3  1  0  0  0
  3  4  1  0  0  0
  3  5  2  0  0  0
  5  6  1  0  0  0
  6 20  1  0  0  0
 20 21  1  0  0  0
  6  7  2  0  0  0
 15 16  1  0  0  0
 16 17  2  0  0  0
 17 12  1  0  0  0
  7  1  1  0  0  0
 10 11  1  0  0  0
  4  8  1  0  0  0
  4  9  1  0  0  0
M  END
> <minimizedAffinity>
-5.79176

> <CNNscore>
0.3344407678

> <CNNaffinity>
4.9262623787

> <CNN_VS>
1.6475429535

> <CNNaffinity_variance>
0.1247910410

$$$$
[H]c1nc2sc3c(=O)n(C4([H])C([H])([H])C([H])([H])C([H])([H])C([H])([H])C4([H])[H])c([H])nc3c2c(N(C([H])([H])[H])C([H])([H])[H])c1[H]


 23 26  0  0  0  0  0  0  0  0999 V2000
  150.5485  138.0903  181.0606 C   0  0  0  0  0  0  0  0  0  0  0  0
  150.0430  138.4911  179.8403 C   0  0  0  0  0  0  0  0  0  0  0  0
  150.5037  139.5641  179.1130 C   0  0  0  0  0  0  0  0  0  0  0  0
  151.5209  140.2385  179.6749 N   0  0  0  0  0  0  0  0  0  0  0  0
  152.0606  139.8843  180.8851 C   0  0  0  0  0  0  0  0  0  0  0  0
  153.3176  140.5334  181.8393 S   0  0  0  0  0  0  0  0  0  0  0  0
  153.2555  139.4498  183.1524 C   0  0  0  0  0  0  0  0  0  0  0  0
  153.9630  139.3067  184.3619 C   0  0  0  0  0  0  0  0  0  0  0  0
  154.8603  140.1508  184.5485 O   0  0  0  0  0  0  0  0  0  0  0  0
  153.6741  138.3274  185.2311 N   0  0  0  0  0  0  0  0  0  0  0  0
  152.6777  137.5015  184.8773 C   0  0  0  0  0  0  0  0  0  0  0  0
  152.0004  137.6214  183.7415 N   0  0  0  0  0  0  0  0  0  0  0  0
  152.2436  138.5980  182.8088 C   0  0  0  0  0  0  0  0  0  0  0  0
  151.6184  138.8216  181.6261 C   0  0  0  0  0  0  0  0  0  0  0  0
  154.4212  138.2148  186.4576 C   0  0  0  0  0  0  0  0  0  0  0  0
  153.5634  138.4420  187.6776 C   0  0  0  0  0  0  0  0  0  0  0  0
  154.4611  138.4296  188.8807 C   0  0  0  0  0  0  0  0  0  0  0  0
  155.8734  138.0669  188.5939 C   0  0  0  0  0  0  0  0  0  0  0  0
  156.0537  136.8935  187.6844 C   0  0  0  0  0  0  0  0  0  0  0  0
  154.9868  136.7971  186.6186 C   0  0  0  0  0  0  0  0  0  0  0  0
  150.4572  135.5844  181.4924 C   0  0  0  0  0  0  0  0  0  0  0  0
  149.9797  136.9403  181.6601 N   0  0  0  0  0  0  0  0  0  0  0  0
  148.8232  137.1419  182.5121 C   0  0  0  0  0  0  0  0  0  0  0  0
 21 22  1  0  0  0
 22 23  1  0  0  0
 22  1  1  0  0  0
  1  2  2  0  0  0
  2  3  1  0  0  0
  3  4  2  0  0  0
  4  5  1  0  0  0
  5  6  1  0  0  0
  6  7  1  0  0  0
  7  8  1  0  0  0
  8  9  2  0  0  0
  8 10  1  0  0  0
 10 15  1  0  0  0
 15 16  1  0  0  0
 16 17  1  0  0  0
 17 18  1  0  0  0
 18 19  1  0  0  0
 19 20  1  0  0  0
 10 11  1  0  0  0
 11 12  2  0  0  0
 12 13  1  0  0  0
 13 14  1  0  0  0
 14  1  1  0  0  0
 14  5  2  0  0  0
 13  7  2  0  0  0
 20 15  1  0  0  0
M  END
> <minimizedAffinity>
-6.18067

> <CNNscore>
0.5381305218

> <CNNaffinity>
5.3976159096

> <CNN_VS>
2.9046218395

> <CNNaffinity_variance>
0.1683079898

$$$$
[H]c1nc2sc3c(=O)n(C4([H])C([H])([H])C([H])([H])C([H])([H])C([H])([H])C4([H])[H])c([H])nc3c2c(N(C([H])([H])[H])C([H])([H])[H])c1[H]


 23 26  0  0  0  0  0  0  0  0999 V2000
  152.5516  137.0925  185.8590 C   0  0  0  0  0  0  0  0  0  0  0  0
  153.1165  137.5868  184.7006 C   0  0  0  0  0  0  0  0  0  0  0  0
  154.2841  138.3121  184.6430 C   0  0  0  0  0  0  0  0  0  0  0  0
  154.8796  138.5279  185.8280 N   0  0  0  0  0  0  0  0  0  0  0  0
  154.3616  138.0605  187.0090 C   0  0  0  0  0  0  0  0  0  0  0  0
  154.8668  138.1783  188.6346 S   0  0  0  0  0  0  0  0  0  0  0  0
  153.6021  137.3140  189.3802 C   0  0  0  0  0  0  0  0  0  0  0  0
  153.2778  136.9662  190.7061 C   0  0  0  0  0  0  0  0  0  0  0  0
  154.0885  137.3610  191.5659 O   0  0  0  0  0  0  0  0  0  0  0  0
  152.1739  136.2623  190.9958 N   0  0  0  0  0  0  0  0  0  0  0  0
  151.4065  135.9148  189.9516 C   0  0  0  0  0  0  0  0  0  0  0  0
  151.6969  136.2337  188.6958 N   0  0  0  0  0  0  0  0  0  0  0  0
  152.8082  136.9503  188.3291 C   0  0  0  0  0  0  0  0  0  0  0  0
  153.2020  137.3377  187.0903 C   0  0  0  0  0  0  0  0  0  0  0  0
  151.8774  135.9265  192.3649 C   0  0  0  0  0  0  0  0  0  0  0  0
  150.3983  135.7581  192.6095 C   0  0  0  0  0  0  0  0  0  0  0  0
  150.1966  135.5396  194.0809 C   0  0  0  0  0  0  0  0  0  0  0  0
  151.4528  135.4030  194.8630 C   0  0  0  0  0  0  0  0  0  0  0  0
  152.4875  134.5145  194.2491 C   0  0  0  0  0  0  0  0  0  0  0  0
  152.5058  134.5772  192.7394 C   0  0  0  0  0  0  0  0  0  0  0  0
  150.0176  136.8658  185.8188 C   0  0  0  0  0  0  0  0  0  0  0  0
  151.3615  136.3349  185.7366 N   0  0  0  0  0  0  0  0  0  0  0  0
  151.5051  134.9093  185.5100 C   0  0  0  0  0  0  0  0  0  0  0  0
 21 22  1  0  0  0
 22 23  1  0  0  0
 22  1  1  0  0  0
  1  2  2  0  0  0
  2  3  1  0  0  0
  3  4  2  0  0  0
  4  5  1  0  0  0
  5  6  1  0  0  0
  6  7  1  0  0  0
  7  8  1  0  0  0
  8  9  2  0  0  0
  8 10  1  0  0  0
 10 15  1  0  0  0
 15 16  1  0  0  0
 16 17  1  0  0  0
 17 18  1  0  0  0
 18 19  1  0  0  0
 19 20  1  0  0  0
 10 11  1  0  0  0
 11 12  2  0  0  0
 12 13  1  0  0  0
 13 14  1  0  0  0
 14  1  1  0  0  0
 14  5  2  0  0  0
 13  7  2  0  0  0
 20 15  1  0  0  0
M  END
> <minimizedAffinity>
-5.17188

> <CNNscore>
0.4410867691

> <CNNaffinity>
5.2129869461

> <CNN_VS>
2.2993795872

> <CNNaffinity_variance>
0.0854316801

$$$$
[H]c1nc2sc3c(=O)n(C4([H])C([H])([H])C([H])([H])C([H])([H])C([H])([H])C4([H])[H])c([H])nc3c2c(N(C([H])([H])[H])C([H])([H])[H])c1[H]


 23 26  0  0  0  0  0  0  0  0999 V2000
  154.6695  136.8315  188.8405 C   0  0  0  0  0  0  0  0  0  0  0  0
  153.8091  136.1709  189.6941 C   0  0  0  0  0  0  0  0  0  0  0  0
  152.4808  135.9240  189.4351 C   0  0  0  0  0  0  0  0  0  0  0  0
  152.0371  136.3795  188.2515 N   0  0  0  0  0  0  0  0  0  0  0  0
  152.8481  137.0428  187.3662 C   0  0  0  0  0  0  0  0  0  0  0  0
  152.5815  137.7344  185.8291 S   0  0  0  0  0  0  0  0  0  0  0  0
  154.1461  138.3337  185.5206 C   0  0  0  0  0  0  0  0  0  0  0  0
  154.7529  139.0414  184.4648 C   0  0  0  0  0  0  0  0  0  0  0  0
  153.9999  139.3041  183.5075 O   0  0  0  0  0  0  0  0  0  0  0  0
  156.0457  139.3946  184.5097 N   0  0  0  0  0  0  0  0  0  0  0  0
  156.7163  139.0338  185.6143 C   0  0  0  0  0  0  0  0  0  0  0  0
  156.1606  138.3665  186.6188 N   0  0  0  0  0  0  0  0  0  0  0  0
  154.8459  137.9741  186.6380 C   0  0  0  0  0  0  0  0  0  0  0  0
  154.1717  137.2998  187.6026 C   0  0  0  0  0  0  0  0  0  0  0  0
  156.6292  140.1180  183.4091 C   0  0  0  0  0  0  0  0  0  0  0  0
  156.7070  141.6015  183.6715 C   0  0  0  0  0  0  0  0  0  0  0  0
  157.2061  142.2650  182.4208 C   0  0  0  0  0  0  0  0  0  0  0  0
  157.6176  141.3257  181.3453 C   0  0  0  0  0  0  0  0  0  0  0  0
  158.4514  140.1699  181.7988 C   0  0  0  0  0  0  0  0  0  0  0  0
  158.0790  139.6716  183.1760 C   0  0  0  0  0  0  0  0  0  0  0  0
  157.0894  136.0504  188.9319 C   0  0  0  0  0  0  0  0  0  0  0  0
  156.0185  136.9712  189.2480 N   0  0  0  0  0  0  0  0  0  0  0  0
  156.3507  138.1348  190.0480 C   0  0  0  0  0  0  0  0  0  0  0  0
 21 22  1  0  0  0
 22 23  1  0  0  0
 22  1  1  0  0  0
  1  2  2  0  0  0
  2  3  1  0  0  0
  3  4  2  0  0  0
  4  5  1  0  0  0
  5  6  1  0  0  0
  6  7  1  0  0  0
  7  8  1  0  0  0
  8  9  2  0  0  0
  8 10  1  0  0  0
 10 15  1  0  0  0
 15 16  1  0  0  0
 16 17  1  0  0  0
 17 18  1  0  0  0
 18 19  1  0  0  0
 19 20  1  0  0  0
 10 11  1  0  0  0
 11 12  2  0  0  0
 12 13  1  0  0  0
 13 14  1  0  0  0
 14  1  1  0  0  0
 14  5  2  0  0  0
 13  7  2  0  0  0
 20 15  1  0  0  0
M  END
> <minimizedAffinity>
-5.91021

> <CNNscore>
0.4378808141

> <CNNaffinity>
5.7177739143

> <CNN_VS>
2.5037035942

> <CNNaffinity_variance>
0.0440977365

$$$$
[H]c1nc2sc3c(=O)n(C4([H])C([H])([H])C([H])([H])C([H])([H])C([H])([H])C4([H])[H])c([H])nc3c2c(N(C([H])([H])[H])C([H])([H])[H])c1[H]


 23 26  0  0  0  0  0  0  0  0999 V2000
  156.8185  141.6438  182.4059 C   0  0  0  0  0  0  0  0  0  0  0  0
  155.7797  141.9192  181.5395 C   0  0  0  0  0  0  0  0  0  0  0  0
  155.5112  143.1570  181.0028 C   0  0  0  0  0  0  0  0  0  0  0  0
  156.3504  144.1359  181.3807 N   0  0  0  0  0  0  0  0  0  0  0  0
  157.3978  143.9180  182.2392 C   0  0  0  0  0  0  0  0  0  0  0  0
  158.5997  144.9344  182.8983 S   0  0  0  0  0  0  0  0  0  0  0  0
  159.4345  143.7940  183.8496 C   0  0  0  0  0  0  0  0  0  0  0  0
  160.5490  143.8375  184.7098 C   0  0  0  0  0  0  0  0  0  0  0  0
  161.0824  144.9578  184.8222 O   0  0  0  0  0  0  0  0  0  0  0  0
  160.9843  142.7417  185.3484 N   0  0  0  0  0  0  0  0  0  0  0  0
  160.2964  141.6134  185.1171 C   0  0  0  0  0  0  0  0  0  0  0  0
  159.2440  141.5541  184.3096 N   0  0  0  0  0  0  0  0  0  0  0  0
  158.7465  142.6347  183.6258 C   0  0  0  0  0  0  0  0  0  0  0  0
  157.6836  142.6959  182.7855 C   0  0  0  0  0  0  0  0  0  0  0  0
  162.1281  142.8276  186.2200 C   0  0  0  0  0  0  0  0  0  0  0  0
  161.8971  142.1407  187.5430 C   0  0  0  0  0  0  0  0  0  0  0  0
  163.0928  142.4012  188.4124 C   0  0  0  0  0  0  0  0  0  0  0  0
  164.2089  143.1083  187.7320 C   0  0  0  0  0  0  0  0  0  0  0  0
  164.5448  142.5961  186.3677 C   0  0  0  0  0  0  0  0  0  0  0  0
  163.3366  142.1138  185.5988 C   0  0  0  0  0  0  0  0  0  0  0  0
  157.9723  139.3766  182.3519 C   0  0  0  0  0  0  0  0  0  0  0  0
  156.9738  140.3044  182.8385 N   0  0  0  0  0  0  0  0  0  0  0  0
  156.0544  139.8263  183.8537 C   0  0  0  0  0  0  0  0  0  0  0  0
 21 22  1  0  0  0
 22 23  1  0  0  0
 22  1  1  0  0  0
  1  2  2  0  0  0
  2  3  1  0  0  0
  3  4  2  0  0  0
  4  5  1  0  0  0
  5  6  1  0  0  0
  6  7  1  0  0  0
  7  8  1  0  0  0
  8  9  2  0  0  0
  8 10  1  0  0  0
 10 15  1  0  0  0
 15 16  1  0  0  0
 16 17  1  0  0  0
 17 18  1  0  0  0
 18 19  1  0  0  0
 19 20  1  0  0  0
 10 11  1  0  0  0
 11 12  2  0  0  0
 12 13  1  0  0  0
 13 14  1  0  0  0
 14  1  1  0  0  0
 14  5  2  0  0  0
 13  7  2  0  0  0
 20 15  1  0  0  0
M  END
> <minimizedAffinity>
0.89881

> <CNNscore>
0.4289692938

> <CNNaffinity>
6.4380083084

> <CNN_VS>
2.7617077827

> <CNNaffinity_variance>
0.5450783968

$$$$
[H]c1nc2sc3c(=O)n(C4([H])C([H])([H])C([H])([H])C([H])([H])C([H])([H])C4([H])[H])c([H])nc3c2c(N(C([H])([H])[H])C([H])([H])[H])c1[H]


 23 26  0  0  0  0  0  0  0  0999 V2000
  150.0868  138.8586  180.7541 C   0  0  0  0  0  0  0  0  0  0  0  0
  150.6995  139.6040  179.7670 C   0  0  0  0  0  0  0  0  0  0  0  0
  152.0422  139.9005  179.7254 C   0  0  0  0  0  0  0  0  0  0  0  0
  152.7667  139.4052  180.7428 N   0  0  0  0  0  0  0  0  0  0  0  0
  152.2091  138.6592  181.7499 C   0  0  0  0  0  0  0  0  0  0  0  0
  152.8489  137.9201  183.1485 S   0  0  0  0  0  0  0  0  0  0  0  0
  151.4197  137.2419  183.7809 C   0  0  0  0  0  0  0  0  0  0  0  0
  151.0967  136.4790  184.9200 C   0  0  0  0  0  0  0  0  0  0  0  0
  152.0604  136.2104  185.6627 O   0  0  0  0  0  0  0  0  0  0  0  0
  149.8391  136.0833  185.1649 N   0  0  0  0  0  0  0  0  0  0  0  0
  148.9184  136.4576  184.2638 C   0  0  0  0  0  0  0  0  0  0  0  0
  149.2048  137.1762  183.1846 N   0  0  0  0  0  0  0  0  0  0  0  0
  150.4678  137.6131  182.8733 C   0  0  0  0  0  0  0  0  0  0  0  0
  150.8766  138.3523  181.8121 C   0  0  0  0  0  0  0  0  0  0  0  0
  149.5498  135.3040  186.3414 C   0  0  0  0  0  0  0  0  0  0  0  0
  150.3575  134.0314  186.4023 C   0  0  0  0  0  0  0  0  0  0  0  0
  149.8864  133.2432  187.5899 C   0  0  0  0  0  0  0  0  0  0  0  0
  148.8977  133.9483  188.4465 C   0  0  0  0  0  0  0  0  0  0  0  0
  149.2273  135.3749  188.7511 C   0  0  0  0  0  0  0  0  0  0  0  0
  149.9230  136.0815  187.6109 C   0  0  0  0  0  0  0  0  0  0  0  0
  148.1013  137.4968  179.9309 C   0  0  0  0  0  0  0  0  0  0  0  0
  148.6972  138.6174  180.6263 N   0  0  0  0  0  0  0  0  0  0  0  0
  147.8000  139.5748  181.2451 C   0  0  0  0  0  0  0  0  0  0  0  0
 21 22  1  0  0  0
 22 23  1  0  0  0
 22  1  1  0  0  0
  1  2  2  0  0  0
  2  3  1  0  0  0
  3  4  2  0  0  0
  4  5  1  0  0  0
  5  6  1  0  0  0
  6  7  1  0  0  0
  7  8  1  0  0  0
  8  9  2  0  0  0
  8 10  1  0  0  0
 10 15  1  0  0  0
 15 16  1  0  0  0
 16 17  1  0  0  0
 17 18  1  0  0  0
 18 19  1  0  0  0
 19 20  1  0  0  0
 10 11  1  0  0  0
 11 12  2  0  0  0
 12 13  1  0  0  0
 13 14  1  0  0  0
 14  1  1  0  0  0
 14  5  2  0  0  0
 13  7  2  0  0  0
 20 15  1  0  0  0
M  END
> <minimizedAffinity>
-4.34314

> <CNNscore>
0.4155658782

> <CNNaffinity>
5.3028078079

> <CNN_VS>
2.2036659718

> <CNNaffinity_variance>
0.0072052451

$$$$
[H]c1nc2sc3c(=O)n(C4([H])C([H])([H])C([H])([H])C([H])([H])C([H])([H])C4([H])[H])c([H])nc3c2c(N(C([H])([H])[H])C([H])([H])[H])c1[H]


 23 26  0  0  0  0  0  0  0  0999 V2000
  158.0209  142.4483  183.0696 C   0  0  0  0  0  0  0  0  0  0  0  0
  159.2191  142.7062  183.7046 C   0  0  0  0  0  0  0  0  0  0  0  0
  159.6988  142.0107  184.7902 C   0  0  0  0  0  0  0  0  0  0  0  0
  158.9058  141.0174  185.2261 N   0  0  0  0  0  0  0  0  0  0  0  0
  157.7055  140.7188  184.6332 C   0  0  0  0  0  0  0  0  0  0  0  0
  156.5006  139.5541  184.9553 S   0  0  0  0  0  0  0  0  0  0  0  0
  155.3959  139.9508  183.7205 C   0  0  0  0  0  0  0  0  0  0  0  0
  154.1403  139.4615  183.3104 C   0  0  0  0  0  0  0  0  0  0  0  0
  153.7037  138.5071  183.9819 O   0  0  0  0  0  0  0  0  0  0  0  0
  153.4839  139.9992  182.2721 N   0  0  0  0  0  0  0  0  0  0  0  0
  154.0944  141.0226  181.6559 C   0  0  0  0  0  0  0  0  0  0  0  0
  155.2775  141.4965  182.0287 N   0  0  0  0  0  0  0  0  0  0  0  0
  156.0027  140.9943  183.0798 C   0  0  0  0  0  0  0  0  0  0  0  0
  157.2083  141.3970  183.5531 C   0  0  0  0  0  0  0  0  0  0  0  0
  152.2016  139.4699  181.8839 C   0  0  0  0  0  0  0  0  0  0  0  0
  151.5928  140.2247  180.7283 C   0  0  0  0  0  0  0  0  0  0  0  0
  150.2153  139.6760  180.4942 C   0  0  0  0  0  0  0  0  0  0  0  0
  149.8745  138.4890  181.3207 C   0  0  0  0  0  0  0  0  0  0  0  0
  150.9428  137.4455  181.4010 C   0  0  0  0  0  0  0  0  0  0  0  0
  152.3396  138.0220  181.3938 C   0  0  0  0  0  0  0  0  0  0  0  0
  158.0278  142.9235  180.5699 C   0  0  0  0  0  0  0  0  0  0  0  0
  157.6928  143.2396  181.9420 N   0  0  0  0  0  0  0  0  0  0  0  0
  156.9603  144.4677  182.1861 C   0  0  0  0  0  0  0  0  0  0  0  0
 21 22  1  0  0  0
 22 23  1  0  0  0
 22  1  1  0  0  0
  1  2  2  0  0  0
  2  3  1  0  0  0
  3  4  2  0  0  0
  4  5  1  0  0  0
  5  6  1  0  0  0
  6  7  1  0  0  0
  7  8  1  0  0  0
  8  9  2  0  0  0
  8 10  1  0  0  0
 10 15  1  0  0  0
 15 16  1  0  0  0
 16 17  1  0  0  0
 17 18  1  0  0  0
 18 19  1  0  0  0
 19 20  1  0  0  0
 10 11  1  0  0  0
 11 12  2  0  0  0
 12 13  1  0  0  0
 13 14  1  0  0  0
 14  1  1  0  0  0
 14  5  2  0  0  0
 13  7  2  0  0  0
 20 15  1  0  0  0
M  END
> <minimizedAffinity>
-7.39583

> <CNNscore>
0.4065879285

> <CNNaffinity>
6.1712298393

> <CNN_VS>
2.5091476440

> <CNNaffinity_variance>
0.0792603046

$$$$
[H]c1nc2sc3c(=O)n(C4([H])C([H])([H])C([H])([H])C([H])([H])C([H])([H])C4([H])[H])c([H])nc3c2c(N(C([H])([H])[H])C([H])([H])[H])c1[H]


 23 26  0  0  0  0  0  0  0  0999 V2000
  153.3988  134.7539  182.7756 C   0  0  0  0  0  0  0  0  0  0  0  0
  152.9090  134.5604  181.4996 C   0  0  0  0  0  0  0  0  0  0  0  0
  153.3416  133.5850  180.6313 C   0  0  0  0  0  0  0  0  0  0  0  0
  154.3133  132.7887  181.1076 N   0  0  0  0  0  0  0  0  0  0  0  0
  154.8366  132.9370  182.3668 C   0  0  0  0  0  0  0  0  0  0  0  0
  156.0541  132.1109  183.2313 S   0  0  0  0  0  0  0  0  0  0  0  0
  156.0135  133.0006  184.6837 C   0  0  0  0  0  0  0  0  0  0  0  0
  156.7174  132.9525  185.9028 C   0  0  0  0  0  0  0  0  0  0  0  0
  157.5781  132.0547  185.9773 O   0  0  0  0  0  0  0  0  0  0  0  0
  156.4621  133.8188  186.8939 N   0  0  0  0  0  0  0  0  0  0  0  0
  155.5028  134.7248  186.6512 C   0  0  0  0  0  0  0  0  0  0  0  0
  154.8292  134.7845  185.5084 N   0  0  0  0  0  0  0  0  0  0  0  0
  155.0388  133.9306  184.4550 C   0  0  0  0  0  0  0  0  0  0  0  0
  154.4222  133.8997  183.2472 C   0  0  0  0  0  0  0  0  0  0  0  0
  157.2041  133.7366  188.1259 C   0  0  0  0  0  0  0  0  0  0  0  0
  158.6361  134.1835  187.9668 C   0  0  0  0  0  0  0  0  0  0  0  0
  159.3431  133.9362  189.2678 C   0  0  0  0  0  0  0  0  0  0  0  0
  158.4617  133.4759  190.3721 C   0  0  0  0  0  0  0  0  0  0  0  0
  157.1741  134.2245  190.5086 C   0  0  0  0  0  0  0  0  0  0  0  0
  156.6030  134.6726  189.1833 C   0  0  0  0  0  0  0  0  0  0  0  0
  153.2833  137.1539  183.6128 C   0  0  0  0  0  0  0  0  0  0  0  0
  152.8167  135.7852  183.5520 N   0  0  0  0  0  0  0  0  0  0  0  0
  151.6569  135.4375  184.3510 C   0  0  0  0  0  0  0  0  0  0  0  0
 21 22  1  0  0  0
 22 23  1  0  0  0
 22  1  1  0  0  0
  1  2  2  0  0  0
  2  3  1  0  0  0
  3  4  2  0  0  0
  4  5  1  0  0  0
  5  6  1  0  0  0
  6  7  1  0  0  0
  7  8  1  0  0  0
  8  9  2  0  0  0
  8 10  1  0  0  0
 10 15  1  0  0  0
 15 16  1  0  0  0
 16 17  1  0  0  0
 17 18  1  0  0  0
 18 19  1  0  0  0
 19 20  1  0  0  0
 10 11  1  0  0  0
 11 12  2  0  0  0
 12 13  1  0  0  0
 13 14  1  0  0  0
 14  1  1  0  0  0
 14  5  2  0  0  0
 13  7  2  0  0  0
 20 15  1  0  0  0
M  END
> <minimizedAffinity>
-3.85234

> <CNNscore>
0.3776506186

> <CNNaffinity>
4.9953498840

> <CNN_VS>
1.8864970207

> <CNNaffinity_variance>
0.1246832758

$$$$
[H]c1nc2sc3c(=O)n(C4([H])C([H])([H])C([H])([H])C([H])([H])C([H])([H])C4([H])[H])c([H])nc3c2c(N(C([H])([H])[H])C([H])([H])[H])c1[H]


 23 26  0  0  0  0  0  0  0  0999 V2000
  156.2799  141.1934  183.4128 C   0  0  0  0  0  0  0  0  0  0  0  0
  157.3812  141.2359  184.2438 C   0  0  0  0  0  0  0  0  0  0  0  0
  157.6565  140.3186  185.2314 C   0  0  0  0  0  0  0  0  0  0  0  0
  156.7569  139.3284  185.3557 N   0  0  0  0  0  0  0  0  0  0  0  0
  155.6450  139.2384  184.5576 C   0  0  0  0  0  0  0  0  0  0  0  0
  154.3468  138.1334  184.4819 S   0  0  0  0  0  0  0  0  0  0  0  0
  153.4614  138.8343  183.2063 C   0  0  0  0  0  0  0  0  0  0  0  0
  152.2578  138.5286  182.5417 C   0  0  0  0  0  0  0  0  0  0  0  0
  151.6768  137.5053  182.9514 O   0  0  0  0  0  0  0  0  0  0  0  0
  151.7928  139.2964  181.5456 N   0  0  0  0  0  0  0  0  0  0  0  0
  152.5408  140.3636  181.2267 C   0  0  0  0  0  0  0  0  0  0  0  0
  153.6777  140.6667  181.8422 N   0  0  0  0  0  0  0  0  0  0  0  0
  154.2104  139.9258  182.8669 C   0  0  0  0  0  0  0  0  0  0  0  0
  155.3508  140.1391  183.5697 C   0  0  0  0  0  0  0  0  0  0  0  0
  150.5574  138.9497  180.8908 C   0  0  0  0  0  0  0  0  0  0  0  0
  149.3544  139.5492  181.5757 C   0  0  0  0  0  0  0  0  0  0  0  0
  148.1256  139.0225  180.8931 C   0  0  0  0  0  0  0  0  0  0  0  0
  148.3945  138.2029  179.6830 C   0  0  0  0  0  0  0  0  0  0  0  0
  149.4175  138.7681  178.7499 C   0  0  0  0  0  0  0  0  0  0  0  0
  150.5281  139.5061  179.4607 C   0  0  0  0  0  0  0  0  0  0  0  0
  155.3651  143.4005  182.5375 C   0  0  0  0  0  0  0  0  0  0  0  0
  156.1656  142.2002  182.4236 N   0  0  0  0  0  0  0  0  0  0  0  0
  156.9145  142.0093  181.1959 C   0  0  0  0  0  0  0  0  0  0  0  0
 21 22  1  0  0  0
 22 23  1  0  0  0
 22  1  1  0  0  0
  1  2  2  0  0  0
  2  3  1  0  0  0
  3  4  2  0  0  0
  4  5  1  0  0  0
  5  6  1  0  0  0
  6  7  1  0  0  0
  7  8  1  0  0  0
  8  9  2  0  0  0
  8 10  1  0  0  0
 10 15  1  0  0  0
 15 16  1  0  0  0
 16 17  1  0  0  0
 17 18  1  0  0  0
 18 19  1  0  0  0
 19 20  1  0  0  0
 10 11  1  0  0  0
 11 12  2  0  0  0
 12 13  1  0  0  0
 13 14  1  0  0  0
 14  1  1  0  0  0
 14  5  2  0  0  0
 13  7  2  0  0  0
 20 15  1  0  0  0
M  END
> <minimizedAffinity>
-7.32455

> <CNNscore>
0.3545260429

> <CNNaffinity>
5.6718049049

> <CNN_VS>
2.0108025074

> <CNNaffinity_variance>
0.1263651103

$$$$
[H]c1nc2sc3c(=O)n(C4([H])C([H])([H])C([H])([H])C([H])([H])C([H])([H])C4([H])[H])c([H])nc3c2c(N(C([H])([H])[H])C([H])([H])[H])c1[H]


 23 26  0  0  0  0  0  0  0  0999 V2000
  154.8721  138.7307  184.6541 C   0  0  0  0  0  0  0  0  0  0  0  0
  156.0824  139.1741  185.1479 C   0  0  0  0  0  0  0  0  0  0  0  0
  156.7768  140.2602  184.6675 C   0  0  0  0  0  0  0  0  0  0  0  0
  156.1919  140.9021  183.6423 N   0  0  0  0  0  0  0  0  0  0  0  0
  154.9909  140.5041  183.1125 C   0  0  0  0  0  0  0  0  0  0  0  0
  154.0245  141.0925  181.8351 S   0  0  0  0  0  0  0  0  0  0  0  0
  152.7497  139.9649  181.9111 C   0  0  0  0  0  0  0  0  0  0  0  0
  151.5581  139.7563  181.1896 C   0  0  0  0  0  0  0  0  0  0  0  0
  151.3483  140.5752  180.2742 O   0  0  0  0  0  0  0  0  0  0  0  0
  150.7280  138.7454  181.4846 N   0  0  0  0  0  0  0  0  0  0  0  0
  151.1026  137.9539  182.5011 C   0  0  0  0  0  0  0  0  0  0  0  0
  152.2218  138.1358  183.1922 N   0  0  0  0  0  0  0  0  0  0  0  0
  153.1143  139.1481  182.9444 C   0  0  0  0  0  0  0  0  0  0  0  0
  154.2829  139.4272  183.5738 C   0  0  0  0  0  0  0  0  0  0  0  0
  149.5187  138.5660  180.7227 C   0  0  0  0  0  0  0  0  0  0  0  0
  149.3308  137.1400  180.2678 C   0  0  0  0  0  0  0  0  0  0  0  0
  148.1192  137.0948  179.3826 C   0  0  0  0  0  0  0  0  0  0  0  0
  147.3645  138.3723  179.3028 C   0  0  0  0  0  0  0  0  0  0  0  0
  147.1392  139.0577  180.6129 C   0  0  0  0  0  0  0  0  0  0  0  0
  148.2864  138.8829  181.5809 C   0  0  0  0  0  0  0  0  0  0  0  0
  154.3605  136.2444  184.8300 C   0  0  0  0  0  0  0  0  0  0  0  0
  154.2745  137.6145  185.2883 N   0  0  0  0  0  0  0  0  0  0  0  0
  153.5142  137.8692  186.4972 C   0  0  0  0  0  0  0  0  0  0  0  0
 21 22  1  0  0  0
 22 23  1  0  0  0
 22  1  1  0  0  0
  1  2  2  0  0  0
  2  3  1  0  0  0
  3  4  2  0  0  0
  4  5  1  0  0  0
  5  6  1  0  0  0
  6  7  1  0  0  0
  7  8  1  0  0  0
  8  9  2  0  0  0
  8 10  1  0  0  0
 10 15  1  0  0  0
 15 16  1  0  0  0
 16 17  1  0  0  0
 17 18  1  0  0  0
 18 19  1  0  0  0
 19 20  1  0  0  0
 10 11  1  0  0  0
 11 12  2  0  0  0
 12 13  1  0  0  0
 13 14  1  0  0  0
 14  1  1  0  0  0
 14  5  2  0  0  0
 13  7  2  0  0  0
 20 15  1  0  0  0
M  END
> <minimizedAffinity>
-6.06273

> <CNNscore>
0.3460335433

> <CNNaffinity>
5.3734669685

> <CNN_VS>
1.8593997955

> <CNNaffinity_variance>
0.1648566574

$$$$
[H]c1c([H])c(-c2c(C([H])([H])C([H])([H])[H])c(C3=NC4(C(=O)N3[H])C([H])([H])C([H])([H])C4([H])[H])nn2-c2c([H])c([H])c(Cl)c([H])c2Cl)c([H])c([H])c1Cl


 32 36  0  0  0  0  0  0  0  0999 V2000
  154.3757  138.2473  185.1657 C   0  0  0  0  0  0  0  0  0  0  0  0
  155.4220  138.3123  186.0349 C   0  0  0  0  0  0  0  0  0  0  0  0
  156.3448  139.0741  185.3657 N   0  0  0  0  0  0  0  0  0  0  0  0
  155.9032  139.4536  184.1810 N   0  0  0  0  0  0  0  0  0  0  0  0
  154.6777  138.9744  183.9958 C   0  0  0  0  0  0  0  0  0  0  0  0
  155.6428  137.8087  187.3799 C   0  0  0  0  0  0  0  0  0  0  0  0
  155.0709  138.3906  188.4344 N   0  0  0  0  0  0  0  0  0  0  0  0
  155.4128  137.7493  189.6487 C   0  0  0  0  0  0  0  0  0  0  0  0
  154.2643  137.3648  190.5538 C   0  0  0  0  0  0  0  0  0  0  0  0
  154.6327  138.5044  191.4561 C   0  0  0  0  0  0  0  0  0  0  0  0
  155.9624  138.6227  190.7498 C   0  0  0  0  0  0  0  0  0  0  0  0
  156.2670  136.6071  189.2897 C   0  0  0  0  0  0  0  0  0  0  0  0
  156.7943  135.7257  190.0034 O   0  0  0  0  0  0  0  0  0  0  0  0
  156.3828  136.7163  187.8428 N   0  0  0  0  0  0  0  0  0  0  0  0
  156.9555  136.0227  187.3187 H   0  0  0  0  0  0  0  0  0  0  0  0
  156.6508  140.2632  183.2723 C   0  0  0  0  0  0  0  0  0  0  0  0
  157.6008  139.7525  182.3918 C   0  0  0  0  0  0  0  0  0  0  0  0
  158.3167  140.5687  181.5538 C   0  0  0  0  0  0  0  0  0  0  0  0
  158.1131  141.9206  181.5619 C   0  0  0  0  0  0  0  0  0  0  0  0
  158.9918  143.0204  180.5180 Cl  0  0  0  0  0  0  0  0  0  0  0  0
  157.1853  142.4591  182.4170 C   0  0  0  0  0  0  0  0  0  0  0  0
  156.4562  141.6163  183.2731 C   0  0  0  0  0  0  0  0  0  0  0  0
  155.3125  142.3795  184.3755 Cl  0  0  0  0  0  0  0  0  0  0  0  0
  153.7298  139.2635  182.9389 C   0  0  0  0  0  0  0  0  0  0  0  0
  153.1641  138.2587  182.2006 C   0  0  0  0  0  0  0  0  0  0  0  0
  152.3527  138.5380  181.1084 C   0  0  0  0  0  0  0  0  0  0  0  0
  152.0762  139.8270  180.7144 C   0  0  0  0  0  0  0  0  0  0  0  0
  151.0543  140.1956  179.3406 Cl  0  0  0  0  0  0  0  0  0  0  0  0
  152.6400  140.8482  181.4494 C   0  0  0  0  0  0  0  0  0  0  0  0
  153.4460  140.5539  182.5321 C   0  0  0  0  0  0  0  0  0  0  0  0
  153.5285  135.9364  185.0429 C   0  0  0  0  0  0  0  0  0  0  0  0
  153.1602  137.4049  185.4119 C   0  0  0  0  0  0  0  0  0  0  0  0
 31 32  1  0  0  0
 32  1  1  0  0  0
  1  2  1  0  0  0
  2  6  1  0  0  0
  6  7  2  0  0  0
  7  8  1  0  0  0
  8  9  1  0  0  0
  9 10  1  0  0  0
 10 11  1  0  0  0
  8 12  1  0  0  0
 12 13  2  0  0  0
 12 14  1  0  0  0
  2  3  2  0  0  0
  3  4  1  0  0  0
  4 16  1  0  0  0
 16 17  2  0  0  0
 17 18  1  0  0  0
 18 19  2  0  0  0
 19 20  1  0  0  0
 19 21  1  0  0  0
 21 22  2  0  0  0
 22 23  1  0  0  0
  4  5  1  0  0  0
  5 24  1  0  0  0
 24 25  2  0  0  0
 25 26  1  0  0  0
 26 27  2  0  0  0
 27 28  1  0  0  0
 27 29  1  0  0  0
 29 30  2  0  0  0
  5  1  2  0  0  0
 30 24  1  0  0  0
 14  6  1  0  0  0
 22 16  1  0  0  0
 11  8  1  0  0  0
 14 15  1  0  0  0
M  END
> <minimizedAffinity>
-9.07948

> <CNNscore>
0.5989829898

> <CNNaffinity>
6.9272241592

> <CNN_VS>
4.1492896080

> <CNNaffinity_variance>
0.0793928653

$$$$
[H]c1c([H])c(-c2c(C([H])([H])C([H])([H])[H])c(C3=NC4(C(=O)N3[H])C([H])([H])C([H])([H])C4([H])[H])nn2-c2c([H])c([H])c(Cl)c([H])c2Cl)c([H])c([H])c1Cl


 32 36  0  0  0  0  0  0  0  0999 V2000
  156.7011  139.4341  185.0423 C   0  0  0  0  0  0  0  0  0  0  0  0
  155.8451  138.6637  185.7691 C   0  0  0  0  0  0  0  0  0  0  0  0
  154.7069  138.6450  185.0051 N   0  0  0  0  0  0  0  0  0  0  0  0
  154.8489  139.3430  183.8937 N   0  0  0  0  0  0  0  0  0  0  0  0
  156.0729  139.8585  183.8532 C   0  0  0  0  0  0  0  0  0  0  0  0
  155.9668  137.9332  187.0193 C   0  0  0  0  0  0  0  0  0  0  0  0
  155.5965  138.4835  188.1760 N   0  0  0  0  0  0  0  0  0  0  0  0
  155.7955  137.6093  189.2709 C   0  0  0  0  0  0  0  0  0  0  0  0
  154.6134  137.4021  190.1906 C   0  0  0  0  0  0  0  0  0  0  0  0
  155.2911  138.2699  191.2085 C   0  0  0  0  0  0  0  0  0  0  0  0
  156.5847  138.1480  190.4388 C   0  0  0  0  0  0  0  0  0  0  0  0
  156.3132  136.3519  188.7105 C   0  0  0  0  0  0  0  0  0  0  0  0
  156.6142  135.2728  189.2666 O   0  0  0  0  0  0  0  0  0  0  0  0
  156.4111  136.6345  187.2859 N   0  0  0  0  0  0  0  0  0  0  0  0
  156.7686  135.9012  186.6393 H   0  0  0  0  0  0  0  0  0  0  0  0
  153.8270  139.4885  182.9065 C   0  0  0  0  0  0  0  0  0  0  0  0
  153.4888  140.7077  182.3252 C   0  0  0  0  0  0  0  0  0  0  0  0
  152.4818  140.8082  181.3996 C   0  0  0  0  0  0  0  0  0  0  0  0
  151.7761  139.7006  181.0197 C   0  0  0  0  0  0  0  0  0  0  0  0
  150.4788  139.7575  179.8428 Cl  0  0  0  0  0  0  0  0  0  0  0  0
  152.0814  138.4825  181.5722 C   0  0  0  0  0  0  0  0  0  0  0  0
  153.1143  138.3877  182.5204 C   0  0  0  0  0  0  0  0  0  0  0  0
  153.4236  136.8005  183.2210 Cl  0  0  0  0  0  0  0  0  0  0  0  0
  156.7442  140.5437  182.7673 C   0  0  0  0  0  0  0  0  0  0  0  0
  157.7713  139.9507  182.0831 C   0  0  0  0  0  0  0  0  0  0  0  0
  158.4968  140.6499  181.1270 C   0  0  0  0  0  0  0  0  0  0  0  0
  158.2242  141.9628  180.8189 C   0  0  0  0  0  0  0  0  0  0  0  0
  159.1287  142.8577  179.6154 Cl  0  0  0  0  0  0  0  0  0  0  0  0
  157.1922  142.5719  181.5011 C   0  0  0  0  0  0  0  0  0  0  0  0
  156.4812  141.8633  182.4501 C   0  0  0  0  0  0  0  0  0  0  0  0
  158.0908  141.4046  185.5516 C   0  0  0  0  0  0  0  0  0  0  0  0
  158.0533  139.8468  185.5413 C   0  0  0  0  0  0  0  0  0  0  0  0
 31 32  1  0  0  0
 32  1  1  0  0  0
  1  2  1  0  0  0
  2  6  1  0  0  0
  6  7  2  0  0  0
  7  8  1  0  0  0
  8  9  1  0  0  0
  9 10  1  0  0  0
 10 11  1  0  0  0
  8 12  1  0  0  0
 12 13  2  0  0  0
 12 14  1  0  0  0
  2  3  2  0  0  0
  3  4  1  0  0  0
  4 16  1  0  0  0
 16 17  2  0  0  0
 17 18  1  0  0  0
 18 19  2  0  0  0
 19 20  1  0  0  0
 19 21  1  0  0  0
 21 22  2  0  0  0
 22 23  1  0  0  0
  4  5  1  0  0  0
  5 24  1  0  0  0
 24 25  2  0  0  0
 25 26  1  0  0  0
 26 27  2  0  0  0
 27 28  1  0  0  0
 27 29  1  0  0  0
 29 30  2  0  0  0
  5  1  2  0  0  0
 30 24  1  0  0  0
 14  6  1  0  0  0
 22 16  1  0  0  0
 11  8  1  0  0  0
 14 15  1  0  0  0
M  END
> <minimizedAffinity>
-9.14094

> <CNNscore>
0.4742734432

> <CNNaffinity>
6.8479294777

> <CNN_VS>
3.2477910519

> <CNNaffinity_variance>
0.1318788081

$$$$
[H]c1c([H])c(-c2c(C([H])([H])C([H])([H])[H])c(C3=NC4(C(=O)N3[H])C([H])([H])C([H])([H])C4([H])[H])nn2-c2c([H])c([H])c(Cl)c([H])c2Cl)c([H])c([H])c1Cl


 32 36  0  0  0  0  0  0  0  0999 V2000
  156.8319  139.5209  185.0062 C   0  0  0  0  0  0  0  0  0  0  0  0
  155.9737  138.7780  185.7586 C   0  0  0  0  0  0  0  0  0  0  0  0
  154.8282  138.7554  185.0057 N   0  0  0  0  0  0  0  0  0  0  0  0
  154.9680  139.4257  183.8771 N   0  0  0  0  0  0  0  0  0  0  0  0
  156.1976  139.9252  183.8134 C   0  0  0  0  0  0  0  0  0  0  0  0
  156.0985  138.0752  187.0243 C   0  0  0  0  0  0  0  0  0  0  0  0
  156.2327  136.7493  187.0641 N   0  0  0  0  0  0  0  0  0  0  0  0
  156.3383  136.2629  188.3889 C   0  0  0  0  0  0  0  0  0  0  0  0
  157.5030  135.3431  188.6778 C   0  0  0  0  0  0  0  0  0  0  0  0
  156.5469  134.1882  188.7004 C   0  0  0  0  0  0  0  0  0  0  0  0
  155.3917  135.1571  188.7866 C   0  0  0  0  0  0  0  0  0  0  0  0
  156.3065  137.4414  189.2683 C   0  0  0  0  0  0  0  0  0  0  0  0
  156.3973  137.5346  190.5122 O   0  0  0  0  0  0  0  0  0  0  0  0
  156.1372  138.5491  188.3392 N   0  0  0  0  0  0  0  0  0  0  0  0
  156.0716  139.5217  188.7047 H   0  0  0  0  0  0  0  0  0  0  0  0
  153.9386  139.5607  182.8962 C   0  0  0  0  0  0  0  0  0  0  0  0
  153.4434  138.4940  182.1508 C   0  0  0  0  0  0  0  0  0  0  0  0
  152.4724  138.6716  181.1987 C   0  0  0  0  0  0  0  0  0  0  0  0
  151.9601  139.9154  180.9543 C   0  0  0  0  0  0  0  0  0  0  0  0
  150.7186  140.2130  179.7538 Cl  0  0  0  0  0  0  0  0  0  0  0  0
  152.4249  140.9900  181.6693 C   0  0  0  0  0  0  0  0  0  0  0  0
  153.4204  140.8001  182.6429 C   0  0  0  0  0  0  0  0  0  0  0  0
  154.0016  142.2304  183.4926 Cl  0  0  0  0  0  0  0  0  0  0  0  0
  156.8667  140.5769  182.7057 C   0  0  0  0  0  0  0  0  0  0  0  0
  157.8736  139.9520  182.0199 C   0  0  0  0  0  0  0  0  0  0  0  0
  158.5990  140.6191  181.0410 C   0  0  0  0  0  0  0  0  0  0  0  0
  158.3462  141.9307  180.7110 C   0  0  0  0  0  0  0  0  0  0  0  0
  159.2507  142.7853  179.4786 Cl  0  0  0  0  0  0  0  0  0  0  0  0
  157.3347  142.5717  181.3946 C   0  0  0  0  0  0  0  0  0  0  0  0
  156.6236  141.8948  182.3663 C   0  0  0  0  0  0  0  0  0  0  0  0
  158.2124  141.4846  185.5645 C   0  0  0  0  0  0  0  0  0  0  0  0
  158.1936  139.9285  185.4830 C   0  0  0  0  0  0  0  0  0  0  0  0
 31 32  1  0  0  0
 32  1  1  0  0  0
  1  2  1  0  0  0
  2  6  1  0  0  0
  6  7  2  0  0  0
  7  8  1  0  0  0
  8  9  1  0  0  0
  9 10  1  0  0  0
 10 11  1  0  0  0
  8 12  1  0  0  0
 12 13  2  0  0  0
 12 14  1  0  0  0
  2  3  2  0  0  0
  3  4  1  0  0  0
  4 16  1  0  0  0
 16 17  2  0  0  0
 17 18  1  0  0  0
 18 19  2  0  0  0
 19 20  1  0  0  0
 19 21  1  0  0  0
 21 22  2  0  0  0
 22 23  1  0  0  0
  4  5  1  0  0  0
  5 24  1  0  0  0
 24 25  2  0  0  0
 25 26  1  0  0  0
 26 27  2  0  0  0
 27 28  1  0  0  0
 27 29  1  0  0  0
 29 30  2  0  0  0
  5  1  2  0  0  0
 30 24  1  0  0  0
 14  6  1  0  0  0
 22 16  1  0  0  0
 11  8  1  0  0  0
 14 15  1  0  0  0
M  END
> <minimizedAffinity>
-7.77500

> <CNNscore>
0.3316824436

> <CNNaffinity>
6.7746200562

> <CNN_VS>
2.2470226288

> <CNNaffinity_variance>
0.0879092738

$$$$
[H]c1c([H])c(-c2c(C([H])([H])C([H])([H])[H])c(C3=NC4(C(=O)N3[H])C([H])([H])C([H])([H])C4([H])[H])nn2-c2c([H])c([H])c(Cl)c([H])c2Cl)c([H])c([H])c1Cl


 32 36  0  0  0  0  0  0  0  0999 V2000
  152.8455  137.1391  185.1725 C   0  0  0  0  0  0  0  0  0  0  0  0
  152.6852  137.1628  183.8203 C   0  0  0  0  0  0  0  0  0  0  0  0
  153.6354  138.0586  183.4029 N   0  0  0  0  0  0  0  0  0  0  0  0
  154.3302  138.5459  184.4141 N   0  0  0  0  0  0  0  0  0  0  0  0
  153.8900  138.0092  185.5472 C   0  0  0  0  0  0  0  0  0  0  0  0
  151.8187  136.4471  182.8992 C   0  0  0  0  0  0  0  0  0  0  0  0
  151.8644  135.1180  182.8044 N   0  0  0  0  0  0  0  0  0  0  0  0
  150.9436  134.6187  181.8528 C   0  0  0  0  0  0  0  0  0  0  0  0
  150.0275  133.5100  182.3195 C   0  0  0  0  0  0  0  0  0  0  0  0
  150.8454  132.5388  181.5219 C   0  0  0  0  0  0  0  0  0  0  0  0
  151.4915  133.6936  180.7941 C   0  0  0  0  0  0  0  0  0  0  0  0
  150.2137  135.7834  181.3295 C   0  0  0  0  0  0  0  0  0  0  0  0
  149.2849  135.8576  180.4952 O   0  0  0  0  0  0  0  0  0  0  0  0
  150.8300  136.9051  182.0230 N   0  0  0  0  0  0  0  0  0  0  0  0
  150.5027  137.8737  181.8271 H   0  0  0  0  0  0  0  0  0  0  0  0
  155.3906  139.4920  184.2717 C   0  0  0  0  0  0  0  0  0  0  0  0
  156.6471  139.3299  184.8491 C   0  0  0  0  0  0  0  0  0  0  0  0
  157.6298  140.2763  184.7100 C   0  0  0  0  0  0  0  0  0  0  0  0
  157.3978  141.4166  183.9924 C   0  0  0  0  0  0  0  0  0  0  0  0
  158.6079  142.6654  183.7744 Cl  0  0  0  0  0  0  0  0  0  0  0  0
  156.1709  141.6105  183.4099 C   0  0  0  0  0  0  0  0  0  0  0  0
  155.1688  140.6363  183.5574 C   0  0  0  0  0  0  0  0  0  0  0  0
  153.6036  140.9703  182.8197 Cl  0  0  0  0  0  0  0  0  0  0  0  0
  154.4464  138.1000  186.8820 C   0  0  0  0  0  0  0  0  0  0  0  0
  155.6154  137.4653  187.2066 C   0  0  0  0  0  0  0  0  0  0  0  0
  156.0852  137.4478  188.5137 C   0  0  0  0  0  0  0  0  0  0  0  0
  155.4079  138.0621  189.5418 C   0  0  0  0  0  0  0  0  0  0  0  0
  155.9875  138.0500  191.1944 Cl  0  0  0  0  0  0  0  0  0  0  0  0
  154.2289  138.7046  189.2281 C   0  0  0  0  0  0  0  0  0  0  0  0
  153.7743  138.7118  187.9237 C   0  0  0  0  0  0  0  0  0  0  0  0
  150.6962  137.2889  186.3689 C   0  0  0  0  0  0  0  0  0  0  0  0
  151.9328  136.3826  186.0902 C   0  0  0  0  0  0  0  0  0  0  0  0
 31 32  1  0  0  0
 32  1  1  0  0  0
  1  2  1  0  0  0
  2  6  1  0  0  0
  6  7  2  0  0  0
  7  8  1  0  0  0
  8  9  1  0  0  0
  9 10  1  0  0  0
 10 11  1  0  0  0
  8 12  1  0  0  0
 12 13  2  0  0  0
 12 14  1  0  0  0
  2  3  2  0  0  0
  3  4  1  0  0  0
  4 16  1  0  0  0
 16 17  2  0  0  0
 17 18  1  0  0  0
 18 19  2  0  0  0
 19 20  1  0  0  0
 19 21  1  0  0  0
 21 22  2  0  0  0
 22 23  1  0  0  0
  4  5  1  0  0  0
  5 24  1  0  0  0
 24 25  2  0  0  0
 25 26  1  0  0  0
 26 27  2  0  0  0
 27 28  1  0  0  0
 27 29  1  0  0  0
 29 30  2  0  0  0
  5  1  2  0  0  0
 30 24  1  0  0  0
 14  6  1  0  0  0
 22 16  1  0  0  0
 11  8  1  0  0  0
 14 15  1  0  0  0
M  END
> <minimizedAffinity>
-7.29824

> <CNNscore>
0.2834112644

> <CNNaffinity>
6.2417430878

> <CNN_VS>
1.7689802647

> <CNNaffinity_variance>
0.0860075206

$$$$
[H]c1c([H])c(-c2c(C([H])([H])C([H])([H])[H])c(C3=NC4(C(=O)N3[H])C([H])([H])C([H])([H])C4([H])[H])nn2-c2c([H])c([H])c(Cl)c([H])c2Cl)c([H])c([H])c1Cl


 32 36  0  0  0  0  0  0  0  0999 V2000
  153.5028  138.4301  184.6505 C   0  0  0  0  0  0  0  0  0  0  0  0
  152.6681  137.9003  183.7139 C   0  0  0  0  0  0  0  0  0  0  0  0
  152.2994  136.6980  184.2598 N   0  0  0  0  0  0  0  0  0  0  0  0
  152.8567  136.5022  185.4404 N   0  0  0  0  0  0  0  0  0  0  0  0
  153.6170  137.5485  185.7451 C   0  0  0  0  0  0  0  0  0  0  0  0
  152.1555  138.3776  182.4408 C   0  0  0  0  0  0  0  0  0  0  0  0
  150.8605  138.2765  182.1396 N   0  0  0  0  0  0  0  0  0  0  0  0
  150.5684  138.7982  180.8570 C   0  0  0  0  0  0  0  0  0  0  0  0
  149.4371  139.7982  180.7784 C   0  0  0  0  0  0  0  0  0  0  0  0
  148.5801  138.7353  180.1586 C   0  0  0  0  0  0  0  0  0  0  0  0
  149.8124  137.8981  179.9108 C   0  0  0  0  0  0  0  0  0  0  0  0
  151.8347  139.3220  180.3228 C   0  0  0  0  0  0  0  0  0  0  0  0
  152.0879  139.9029  179.2445 O   0  0  0  0  0  0  0  0  0  0  0  0
  152.7963  139.0074  181.3694 N   0  0  0  0  0  0  0  0  0  0  0  0
  153.7971  139.2643  181.2427 H   0  0  0  0  0  0  0  0  0  0  0  0
  152.6424  135.3391  186.2412 C   0  0  0  0  0  0  0  0  0  0  0  0
  153.4872  134.2324  186.2297 C   0  0  0  0  0  0  0  0  0  0  0  0
  153.2301  133.1237  186.9948 C   0  0  0  0  0  0  0  0  0  0  0  0
  152.1246  133.0764  187.7979 C   0  0  0  0  0  0  0  0  0  0  0  0
  151.7368  131.6926  188.8009 Cl  0  0  0  0  0  0  0  0  0  0  0  0
  151.2694  134.1485  187.8340 C   0  0  0  0  0  0  0  0  0  0  0  0
  151.5393  135.2808  187.0466 C   0  0  0  0  0  0  0  0  0  0  0  0
  150.3760  136.6031  187.1088 Cl  0  0  0  0  0  0  0  0  0  0  0  0
  154.2810  137.8675  186.9928 C   0  0  0  0  0  0  0  0  0  0  0  0
  155.5877  137.5202  187.2086 C   0  0  0  0  0  0  0  0  0  0  0  0
  156.1882  137.7133  188.4461 C   0  0  0  0  0  0  0  0  0  0  0  0
  155.5087  138.2594  189.5106 C   0  0  0  0  0  0  0  0  0  0  0  0
  156.2519  138.5104  191.0765 Cl  0  0  0  0  0  0  0  0  0  0  0  0
  154.1918  138.6133  189.3065 C   0  0  0  0  0  0  0  0  0  0  0  0
  153.6086  138.4134  188.0703 C   0  0  0  0  0  0  0  0  0  0  0  0
  155.6691  139.3220  183.8859 C   0  0  0  0  0  0  0  0  0  0  0  0
  154.2636  139.7046  184.4395 C   0  0  0  0  0  0  0  0  0  0  0  0
 31 32  1  0  0  0
 32  1  1  0  0  0
  1  2  1  0  0  0
  2  6  1  0  0  0
  6  7  2  0  0  0
  7  8  1  0  0  0
  8  9  1  0  0  0
  9 10  1  0  0  0
 10 11  1  0  0  0
  8 12  1  0  0  0
 12 13  2  0  0  0
 12 14  1  0  0  0
  2  3  2  0  0  0
  3  4  1  0  0  0
  4 16  1  0  0  0
 16 17  2  0  0  0
 17 18  1  0  0  0
 18 19  2  0  0  0
 19 20  1  0  0  0
 19 21  1  0  0  0
 21 22  2  0  0  0
 22 23  1  0  0  0
  4  5  1  0  0  0
  5 24  1  0  0  0
 24 25  2  0  0  0
 25 26  1  0  0  0
 26 27  2  0  0  0
 27 28  1  0  0  0
 27 29  1  0  0  0
 29 30  2  0  0  0
  5  1  2  0  0  0
 30 24  1  0  0  0
 14  6  1  0  0  0
 22 16  1  0  0  0
 11  8  1  0  0  0
 14 15  1  0  0  0
M  END
> <minimizedAffinity>
-7.16430

> <CNNscore>
0.2633712292

> <CNNaffinity>
6.0617079735

> <CNN_VS>
1.5964795351

> <CNNaffinity_variance>
0.1454044282

$$$$
[H]c1c([H])c(-c2c(C([H])([H])C([H])([H])[H])c(C3=NC4(C(=O)N3[H])C([H])([H])C([H])([H])C4([H])[H])nn2-c2c([H])c([H])c(Cl)c([H])c2Cl)c([H])c([H])c1Cl


 32 36  0  0  0  0  0  0  0  0999 V2000
  153.7626  138.3277  183.9326 C   0  0  0  0  0  0  0  0  0  0  0  0
  154.1064  139.4495  183.2413 C   0  0  0  0  0  0  0  0  0  0  0  0
  153.0089  139.6877  182.4551 N   0  0  0  0  0  0  0  0  0  0  0  0
  152.0612  138.7892  182.6479 N   0  0  0  0  0  0  0  0  0  0  0  0
  152.4665  137.9138  183.5617 C   0  0  0  0  0  0  0  0  0  0  0  0
  155.2698  140.3201  183.2547 C   0  0  0  0  0  0  0  0  0  0  0  0
  155.6027  141.0392  182.1824 N   0  0  0  0  0  0  0  0  0  0  0  0
  156.7637  141.8181  182.4015 C   0  0  0  0  0  0  0  0  0  0  0  0
  156.6625  143.2879  182.0618 C   0  0  0  0  0  0  0  0  0  0  0  0
  157.4885  143.0313  180.8369 C   0  0  0  0  0  0  0  0  0  0  0  0
  157.8769  141.6815  181.3919 C   0  0  0  0  0  0  0  0  0  0  0  0
  157.1686  141.5783  183.7950 C   0  0  0  0  0  0  0  0  0  0  0  0
  158.1100  142.0562  184.4655 O   0  0  0  0  0  0  0  0  0  0  0  0
  156.1896  140.6100  184.2671 N   0  0  0  0  0  0  0  0  0  0  0  0
  156.2502  140.2508  185.2423 H   0  0  0  0  0  0  0  0  0  0  0  0
  150.8042  138.7967  181.9698 C   0  0  0  0  0  0  0  0  0  0  0  0
  149.5844  138.5981  182.6111 C   0  0  0  0  0  0  0  0  0  0  0  0
  148.4011  138.5860  181.9179 C   0  0  0  0  0  0  0  0  0  0  0  0
  148.3891  138.7710  180.5633 C   0  0  0  0  0  0  0  0  0  0  0  0
  146.9144  138.7681  179.6166 Cl  0  0  0  0  0  0  0  0  0  0  0  0
  149.5724  138.9689  179.8979 C   0  0  0  0  0  0  0  0  0  0  0  0
  150.7808  138.9793  180.6152 C   0  0  0  0  0  0  0  0  0  0  0  0
  152.2660  139.1953  179.6913 Cl  0  0  0  0  0  0  0  0  0  0  0  0
  151.7175  136.8640  184.2221 C   0  0  0  0  0  0  0  0  0  0  0  0
  151.5182  135.6503  183.6205 C   0  0  0  0  0  0  0  0  0  0  0  0
  150.6980  134.6883  184.1960 C   0  0  0  0  0  0  0  0  0  0  0  0
  150.0490  134.9014  185.3903 C   0  0  0  0  0  0  0  0  0  0  0  0
  149.0126  133.6985  186.1294 Cl  0  0  0  0  0  0  0  0  0  0  0  0
  150.2410  136.1199  186.0064 C   0  0  0  0  0  0  0  0  0  0  0  0
  151.0587  137.0667  185.4204 C   0  0  0  0  0  0  0  0  0  0  0  0
  154.5099  138.1839  186.2766 C   0  0  0  0  0  0  0  0  0  0  0  0
  154.7104  137.6065  184.8431 C   0  0  0  0  0  0  0  0  0  0  0  0
 31 32  1  0  0  0
 32  1  1  0  0  0
  1  2  1  0  0  0
  2  6  1  0  0  0
  6  7  2  0  0  0
  7  8  1  0  0  0
  8  9  1  0  0  0
  9 10  1  0  0  0
 10 11  1  0  0  0
  8 12  1  0  0  0
 12 13  2  0  0  0
 12 14  1  0  0  0
  2  3  2  0  0  0
  3  4  1  0  0  0
  4 16  1  0  0  0
 16 17  2  0  0  0
 17 18  1  0  0  0
 18 19  2  0  0  0
 19 20  1  0  0  0
 19 21  1  0  0  0
 21 22  2  0  0  0
 22 23  1  0  0  0
  4  5  1  0  0  0
  5 24  1  0  0  0
 24 25  2  0  0  0
 25 26  1  0  0  0
 26 27  2  0  0  0
 27 28  1  0  0  0
 27 29  1  0  0  0
 29 30  2  0  0  0
  5  1  2  0  0  0
 30 24  1  0  0  0
 14  6  1  0  0  0
 22 16  1  0  0  0
 11  8  1  0  0  0
 14 15  1  0  0  0
M  END
> <minimizedAffinity>
-7.33186

> <CNNscore>
0.2615031004

> <CNNaffinity>
6.5637984276

> <CNN_VS>
1.7164536715

> <CNNaffinity_variance>
0.1188296825

$$$$
[H]c1c([H])c(-c2c(C([H])([H])C([H])([H])[H])c(C3=NC4(C(=O)N3[H])C([H])([H])C([H])([H])C4([H])[H])nn2-c2c([H])c([H])c(Cl)c([H])c2Cl)c([H])c([H])c1Cl


 32 36  0  0  0  0  0  0  0  0999 V2000
  154.0805  137.7312  187.4520 C   0  0  0  0  0  0  0  0  0  0  0  0
  155.2666  137.8937  186.8029 C   0  0  0  0  0  0  0  0  0  0  0  0
  156.1059  137.0249  187.4512 N   0  0  0  0  0  0  0  0  0  0  0  0
  155.4880  136.3742  188.4195 N   0  0  0  0  0  0  0  0  0  0  0  0
  154.2191  136.7655  188.4703 C   0  0  0  0  0  0  0  0  0  0  0  0
  155.6878  138.6957  185.6667 C   0  0  0  0  0  0  0  0  0  0  0  0
  156.8730  139.3062  185.6578 N   0  0  0  0  0  0  0  0  0  0  0  0
  157.0897  140.0338  184.4634 C   0  0  0  0  0  0  0  0  0  0  0  0
  158.3911  139.7693  183.7405 C   0  0  0  0  0  0  0  0  0  0  0  0
  158.8969  141.0939  184.2283 C   0  0  0  0  0  0  0  0  0  0  0  0
  157.4882  141.4819  184.6100 C   0  0  0  0  0  0  0  0  0  0  0  0
  155.9078  139.8069  183.6180 C   0  0  0  0  0  0  0  0  0  0  0  0
  155.6400  140.2086  182.4642 O   0  0  0  0  0  0  0  0  0  0  0  0
  155.0575  138.9664  184.4483 N   0  0  0  0  0  0  0  0  0  0  0  0
  154.1303  138.6584  184.0889 H   0  0  0  0  0  0  0  0  0  0  0  0
  156.1160  135.3997  189.2537 C   0  0  0  0  0  0  0  0  0  0  0  0
  156.2570  134.0608  188.8984 C   0  0  0  0  0  0  0  0  0  0  0  0
  156.8429  133.1511  189.7410 C   0  0  0  0  0  0  0  0  0  0  0  0
  157.3090  133.5405  190.9659 C   0  0  0  0  0  0  0  0  0  0  0  0
  158.0682  132.4315  192.0905 Cl  0  0  0  0  0  0  0  0  0  0  0  0
  157.1864  134.8519  191.3498 C   0  0  0  0  0  0  0  0  0  0  0  0
  156.5843  135.7780  190.4810 C   0  0  0  0  0  0  0  0  0  0  0  0
  156.4205  137.4358  191.0561 Cl  0  0  0  0  0  0  0  0  0  0  0  0
  153.1206  136.2183  189.2404 C   0  0  0  0  0  0  0  0  0  0  0  0
  152.3466  135.2024  188.7468 C   0  0  0  0  0  0  0  0  0  0  0  0
  151.2193  134.7611  189.4278 C   0  0  0  0  0  0  0  0  0  0  0  0
  150.8245  135.3154  190.6236 C   0  0  0  0  0  0  0  0  0  0  0  0
  149.4067  134.7696  191.4949 Cl  0  0  0  0  0  0  0  0  0  0  0  0
  151.5953  136.3397  191.1315 C   0  0  0  0  0  0  0  0  0  0  0  0
  152.7127  136.7682  190.4414 C   0  0  0  0  0  0  0  0  0  0  0  0
  152.0059  137.8125  186.1244 C   0  0  0  0  0  0  0  0  0  0  0  0
  152.8732  138.5744  187.1711 C   0  0  0  0  0  0  0  0  0  0  0  0
 31 32  1  0  0  0
 32  1  1  0  0  0
  1  2  1  0  0  0
  2  6  1  0  0  0
  6  7  2  0  0  0
  7  8  1  0  0  0
  8  9  1  0  0  0
  9 10  1  0  0  0
 10 11  1  0  0  0
  8 12  1  0  0  0
 12 13  2  0  0  0
 12 14  1  0  0  0
  2  3  2  0  0  0
  3  4  1  0  0  0
  4 16  1  0  0  0
 16 17  2  0  0  0
 17 18  1  0  0  0
 18 19  2  0  0  0
 19 20  1  0  0  0
 19 21  1  0  0  0
 21 22  2  0  0  0
 22 23  1  0  0  0
  4  5  1  0  0  0
  5 24  1  0  0  0
 24 25  2  0  0  0
 25 26  1  0  0  0
 26 27  2  0  0  0
 27 28  1  0  0  0
 27 29  1  0  0  0
 29 30  2  0  0  0
  5  1  2  0  0  0
 30 24  1  0  0  0
 14  6  1  0  0  0
 22 16  1  0  0  0
 11  8  1  0  0  0
 14 15  1  0  0  0
M  END
> <minimizedAffinity>
-7.37790

> <CNNscore>
0.2522820234

> <CNNaffinity>
6.3508315086

> <CNN_VS>
1.6022006273

> <CNNaffinity_variance>
0.0875652879

$$$$
[H]c1c([H])c(-c2c(C([H])([H])C([H])([H])[H])c(C3=NC4(C(=O)N3[H])C([H])([H])C([H])([H])C4([H])[H])nn2-c2c([H])c([H])c(Cl)c([H])c2Cl)c([H])c([H])c1Cl


 32 36  0  0  0  0  0  0  0  0999 V2000
  154.2555  139.2356  183.2213 C   0  0  0  0  0  0  0  0  0  0  0  0
  154.2682  140.4051  182.5236 C   0  0  0  0  0  0  0  0  0  0  0  0
  153.0285  140.4404  181.9391 N   0  0  0  0  0  0  0  0  0  0  0  0
  152.3060  139.3813  182.2536 N   0  0  0  0  0  0  0  0  0  0  0  0
  153.0122  138.5913  183.0554 C   0  0  0  0  0  0  0  0  0  0  0  0
  155.2396  141.4756  182.3757 C   0  0  0  0  0  0  0  0  0  0  0  0
  156.4396  141.2461  181.8420 N   0  0  0  0  0  0  0  0  0  0  0  0
  157.2328  142.4169  181.7885 C   0  0  0  0  0  0  0  0  0  0  0  0
  157.8574  142.7466  180.4516 C   0  0  0  0  0  0  0  0  0  0  0  0
  159.1809  142.2938  180.9917 C   0  0  0  0  0  0  0  0  0  0  0  0
  158.6138  142.3329  182.3909 C   0  0  0  0  0  0  0  0  0  0  0  0
  156.4000  143.5080  182.3168 C   0  0  0  0  0  0  0  0  0  0  0  0
  156.6393  144.7287  182.4460 O   0  0  0  0  0  0  0  0  0  0  0  0
  155.1610  142.8374  182.6830 N   0  0  0  0  0  0  0  0  0  0  0  0
  154.3829  143.3873  183.1024 H   0  0  0  0  0  0  0  0  0  0  0  0
  150.9720  139.1598  181.7937 C   0  0  0  0  0  0  0  0  0  0  0  0
  149.9203  138.8005  182.6323 C   0  0  0  0  0  0  0  0  0  0  0  0
  148.6589  138.5707  182.1456 C   0  0  0  0  0  0  0  0  0  0  0  0
  148.3991  138.6900  180.8087 C   0  0  0  0  0  0  0  0  0  0  0  0
  146.8116  138.4118  180.1203 Cl  0  0  0  0  0  0  0  0  0  0  0  0
  149.4115  139.0417  179.9524 C   0  0  0  0  0  0  0  0  0  0  0  0
  150.7016  139.2750  180.4586 C   0  0  0  0  0  0  0  0  0  0  0  0
  151.9634  139.6805  179.2970 Cl  0  0  0  0  0  0  0  0  0  0  0  0
  152.5887  137.4178  183.7923 C   0  0  0  0  0  0  0  0  0  0  0  0
  152.1463  137.5145  185.0844 C   0  0  0  0  0  0  0  0  0  0  0  0
  151.8582  136.3802  185.8327 C   0  0  0  0  0  0  0  0  0  0  0  0
  152.0000  135.1113  185.3200 C   0  0  0  0  0  0  0  0  0  0  0  0
  151.6399  133.6716  186.2500 Cl  0  0  0  0  0  0  0  0  0  0  0  0
  152.4453  135.0002  184.0197 C   0  0  0  0  0  0  0  0  0  0  0  0
  152.7289  136.1378  183.2892 C   0  0  0  0  0  0  0  0  0  0  0  0
  155.2843  139.0196  185.4502 C   0  0  0  0  0  0  0  0  0  0  0  0
  155.4587  138.6974  183.9356 C   0  0  0  0  0  0  0  0  0  0  0  0
 31 32  1  0  0  0
 32  1  1  0  0  0
  1  2  1  0  0  0
  2  6  1  0  0  0
  6  7  2  0  0  0
  7  8  1  0  0  0
  8  9  1  0  0  0
  9 10  1  0  0  0
 10 11  1  0  0  0
  8 12  1  0  0  0
 12 13  2  0  0  0
 12 14  1  0  0  0
  2  3  2  0  0  0
  3  4  1  0  0  0
  4 16  1  0  0  0
 16 17  2  0  0  0
 17 18  1  0  0  0
 18 19  2  0  0  0
 19 20  1  0  0  0
 19 21  1  0  0  0
 21 22  2  0  0  0
 22 23  1  0  0  0
  4  5  1  0  0  0
  5 24  1  0  0  0
 24 25  2  0  0  0
 25 26  1  0  0  0
 26 27  2  0  0  0
 27 28  1  0  0  0
 27 29  1  0  0  0
 29 30  2  0  0  0
  5  1  2  0  0  0
 30 24  1  0  0  0
 14  6  1  0  0  0
 22 16  1  0  0  0
 11  8  1  0  0  0
 14 15  1  0  0  0
M  END
> <minimizedAffinity>
-7.50402

> <CNNscore>
0.2363471389

> <CNNaffinity>
6.5751218796

> <CNN_VS>
1.5540112257

> <CNNaffinity_variance>
0.2604416609

$$$$
[H]c1c([H])c(-c2c(C([H])([H])C([H])([H])[H])c(C3=NC4(C(=O)N3[H])C([H])([H])C([H])([H])C4([H])[H])nn2-c2c([H])c([H])c(Cl)c([H])c2Cl)c([H])c([H])c1Cl


 32 36  0  0  0  0  0  0  0  0999 V2000
  153.3447  137.6334  184.8977 C   0  0  0  0  0  0  0  0  0  0  0  0
  153.6916  136.6150  185.7326 C   0  0  0  0  0  0  0  0  0  0  0  0
  152.9751  135.5502  185.2506 N   0  0  0  0  0  0  0  0  0  0  0  0
  152.2478  135.8817  184.2000 N   0  0  0  0  0  0  0  0  0  0  0  0
  152.4363  137.1679  183.9247 C   0  0  0  0  0  0  0  0  0  0  0  0
  154.6083  136.5045  186.8547 C   0  0  0  0  0  0  0  0  0  0  0  0
  154.5036  137.3125  187.9101 N   0  0  0  0  0  0  0  0  0  0  0  0
  155.4887  137.0417  188.8894 C   0  0  0  0  0  0  0  0  0  0  0  0
  154.9949  136.8459  190.3050 C   0  0  0  0  0  0  0  0  0  0  0  0
  155.5268  138.2056  190.6470 C   0  0  0  0  0  0  0  0  0  0  0  0
  156.3196  138.2095  189.3616 C   0  0  0  0  0  0  0  0  0  0  0  0
  156.2677  135.8983  188.3907 C   0  0  0  0  0  0  0  0  0  0  0  0
  157.2214  135.2736  188.9048 O   0  0  0  0  0  0  0  0  0  0  0  0
  155.6664  135.6224  187.0940 N   0  0  0  0  0  0  0  0  0  0  0  0
  156.0420  134.8492  186.5068 H   0  0  0  0  0  0  0  0  0  0  0  0
  151.4100  134.9692  183.4890 C   0  0  0  0  0  0  0  0  0  0  0  0
  150.0999  134.6799  183.8613 C   0  0  0  0  0  0  0  0  0  0  0  0
  149.3378  133.7762  183.1661 C   0  0  0  0  0  0  0  0  0  0  0  0
  149.8513  133.1287  182.0769 C   0  0  0  0  0  0  0  0  0  0  0  0
  148.9333  131.9637  181.1435 Cl  0  0  0  0  0  0  0  0  0  0  0  0
  151.1391  133.3884  181.6815 C   0  0  0  0  0  0  0  0  0  0  0  0
  151.9139  134.3154  182.3994 C   0  0  0  0  0  0  0  0  0  0  0  0
  153.5733  134.5678  181.8624 Cl  0  0  0  0  0  0  0  0  0  0  0  0
  151.9960  137.9343  182.7766 C   0  0  0  0  0  0  0  0  0  0  0  0
  150.6861  138.3063  182.6335 C   0  0  0  0  0  0  0  0  0  0  0  0
  150.2383  138.9317  181.4769 C   0  0  0  0  0  0  0  0  0  0  0  0
  151.0793  139.2089  180.4238 C   0  0  0  0  0  0  0  0  0  0  0  0
  150.5305  139.9978  178.9597 Cl  0  0  0  0  0  0  0  0  0  0  0  0
  152.4011  138.8391  180.5552 C   0  0  0  0  0  0  0  0  0  0  0  0
  152.8305  138.2165  181.7112 C   0  0  0  0  0  0  0  0  0  0  0  0
  155.1945  139.1987  184.4492 C   0  0  0  0  0  0  0  0  0  0  0  0
  153.7900  139.0495  185.1074 C   0  0  0  0  0  0  0  0  0  0  0  0
 31 32  1  0  0  0
 32  1  1  0  0  0
  1  2  1  0  0  0
  2  6  1  0  0  0
  6  7  2  0  0  0
  7  8  1  0  0  0
  8  9  1  0  0  0
  9 10  1  0  0  0
 10 11  1  0  0  0
  8 12  1  0  0  0
 12 13  2  0  0  0
 12 14  1  0  0  0
  2  3  2  0  0  0
  3  4  1  0  0  0
  4 16  1  0  0  0
 16 17  2  0  0  0
 17 18  1  0  0  0
 18 19  2  0  0  0
 19 20  1  0  0  0
 19 21  1  0  0  0
 21 22  2  0  0  0
 22 23  1  0  0  0
  4  5  1  0  0  0
  5 24  1  0  0  0
 24 25  2  0  0  0
 25 26  1  0  0  0
 26 27  2  0  0  0
 27 28  1  0  0  0
 27 29  1  0  0  0
 29 30  2  0  0  0
  5  1  2  0  0  0
 30 24  1  0  0  0
 14  6  1  0  0  0
 22 16  1  0  0  0
 11  8  1  0  0  0
 14 15  1  0  0  0
M  END
> <minimizedAffinity>
-5.86989

> <CNNscore>
0.2345610708

> <CNNaffinity>
6.0307645798

> <CNN_VS>
1.4145826101

> <CNNaffinity_variance>
0.1335337013

$$$$
[H]c1nc(OC([H])([H])C([H])([H])Oc2nc([H])c(Br)c([H])n2)c(-c2c([H])c([H])c(C([H])([H])[H])c([H])c2[H])c(N([H])S(=O)(=O)c2c([H])c([H])c(Cl)c([H])c2[H])n1


 36 39  0  0  0  0  0  0  0  0999 V2000
  154.1623  139.2703  184.1390 C   0  0  0  0  0  0  0  0  0  0  0  0
  154.7888  140.3775  183.6823 C   0  0  0  0  0  0  0  0  0  0  0  0
  154.3934  140.8757  182.3704 N   0  0  0  0  0  0  0  0  0  0  0  0
  153.4761  140.2940  181.6553 C   0  0  0  0  0  0  0  0  0  0  0  0
  152.8480  139.1975  182.0965 N   0  0  0  0  0  0  0  0  0  0  0  0
  153.1519  138.6999  183.2325 C   0  0  0  0  0  0  0  0  0  0  0  0
  155.2918  138.2006  189.5975 C   0  0  0  0  0  0  0  0  0  0  0  0
  154.9395  138.2192  188.1633 C   0  0  0  0  0  0  0  0  0  0  0  0
  155.8154  138.0510  187.1588 C   0  0  0  0  0  0  0  0  0  0  0  0
  155.5804  138.2387  185.8288 C   0  0  0  0  0  0  0  0  0  0  0  0
  154.2889  138.6439  185.4106 C   0  0  0  0  0  0  0  0  0  0  0  0
  153.3556  138.7902  186.4259 C   0  0  0  0  0  0  0  0  0  0  0  0
  153.5937  138.5965  187.7900 C   0  0  0  0  0  0  0  0  0  0  0  0
  155.8216  141.0180  184.3328 N   0  0  0  0  0  0  0  0  0  0  0  0
  155.8192  141.5243  185.1673 H   0  0  0  0  0  0  0  0  0  0  0  0
  157.3923  140.9798  183.4725 S   0  0  0  0  0  0  0  0  0  0  0  0
  157.5318  139.4369  183.1845 O   0  0  0  0  0  0  0  0  0  0  0  0
  157.2696  141.5935  182.1267 O   0  0  0  0  0  0  0  0  0  0  0  0
  158.7419  141.4454  184.3677 C   0  0  0  0  0  0  0  0  0  0  0  0
  158.6654  141.6462  185.6901 C   0  0  0  0  0  0  0  0  0  0  0  0
  159.5910  142.1026  186.5367 C   0  0  0  0  0  0  0  0  0  0  0  0
  160.8136  142.4427  185.9993 C   0  0  0  0  0  0  0  0  0  0  0  0
  162.1194  143.0700  187.0029 Cl  0  0  0  0  0  0  0  0  0  0  0  0
  161.0636  142.3174  184.6047 C   0  0  0  0  0  0  0  0  0  0  0  0
  160.0068  141.8094  183.8084 C   0  0  0  0  0  0  0  0  0  0  0  0
  152.6431  137.5556  183.7710 O   0  0  0  0  0  0  0  0  0  0  0  0
  152.2043  136.4264  183.4350 C   0  0  0  0  0  0  0  0  0  0  0  0
  152.5225  135.2113  182.7078 C   0  0  0  0  0  0  0  0  0  0  0  0
  153.6027  134.6264  182.3331 O   0  0  0  0  0  0  0  0  0  0  0  0
  154.6721  134.0546  181.9579 C   0  0  0  0  0  0  0  0  0  0  0  0
  155.4319  133.2689  182.9415 N   0  0  0  0  0  0  0  0  0  0  0  0
  156.5440  132.6042  182.6337 C   0  0  0  0  0  0  0  0  0  0  0  0
  157.0299  132.6410  181.3203 C   0  0  0  0  0  0  0  0  0  0  0  0
  158.6433  131.7292  180.8966 Br  0  0  0  0  0  0  0  0  0  0  0  0
  156.3501  133.3767  180.3857 C   0  0  0  0  0  0  0  0  0  0  0  0
  155.3026  133.9931  180.7511 N   0  0  0  0  0  0  0  0  0  0  0  0
  7  8  1  0  0  0
  8  9  2  0  0  0
  9 10  1  0  0  0
 10 11  2  0  0  0
 11  1  1  0  0  0
  1  2  1  0  0  0
  2 14  1  0  0  0
 14 16  1  0  0  0
 16 17  2  0  0  0
 16 18  2  0  0  0
 16 19  1  0  0  0
 19 20  2  0  0  0
 20 21  1  0  0  0
 21 22  2  0  0  0
 22 23  1  0  0  0
 22 24  1  0  0  0
 24 25  2  0  0  0
  2  3  2  0  0  0
  3  4  1  0  0  0
  4  5  2  0  0  0
  5  6  1  0  0  0
  6 26  1  0  0  0
 26 27  1  0  0  0
 27 28  1  0  0  0
 28 29  1  0  0  0
 29 30  1  0  0  0
 30 31  2  0  0  0
 31 32  1  0  0  0
 32 33  2  0  0  0
 33 34  1  0  0  0
 33 35  1  0  0  0
 35 36  2  0  0  0
 11 12  1  0  0  0
 12 13  2  0  0  0
 13  8  1  0  0  0
  6  1  2  0  0  0
 36 30  1  0  0  0
 25 19  1  0  0  0
 14 15  1  0  0  0
M  END
> <minimizedAffinity>
-8.72159

> <CNNscore>
0.4101742804

> <CNNaffinity>
6.7129378319

> <CNN_VS>
2.7534744740

> <CNNaffinity_variance>
0.2023967952

$$$$
[H]c1nc(OC([H])([H])C([H])([H])Oc2nc([H])c(Br)c([H])n2)c(-c2c([H])c([H])c(C([H])([H])[H])c([H])c2[H])c(N([H])S(=O)(=O)c2c([H])c([H])c(Cl)c([H])c2[H])n1


 36 39  0  0  0  0  0  0  0  0999 V2000
  154.4956  136.0285  186.1689 C   0  0  0  0  0  0  0  0  0  0  0  0
  154.7920  134.7139  186.2744 C   0  0  0  0  0  0  0  0  0  0  0  0
  154.7367  133.9167  185.0551 N   0  0  0  0  0  0  0  0  0  0  0  0
  154.4199  134.4315  183.9036 C   0  0  0  0  0  0  0  0  0  0  0  0
  154.1249  135.7317  183.7858 N   0  0  0  0  0  0  0  0  0  0  0  0
  154.1427  136.4873  184.8150 C   0  0  0  0  0  0  0  0  0  0  0  0
  155.0796  138.7668  191.1060 C   0  0  0  0  0  0  0  0  0  0  0  0
  154.8503  138.2912  189.7268 C   0  0  0  0  0  0  0  0  0  0  0  0
  153.6977  137.7642  189.2816 C   0  0  0  0  0  0  0  0  0  0  0  0
  153.4892  137.1474  188.0835 C   0  0  0  0  0  0  0  0  0  0  0  0
  154.5685  137.0345  187.1729 C   0  0  0  0  0  0  0  0  0  0  0  0
  155.7615  137.6026  187.5939 C   0  0  0  0  0  0  0  0  0  0  0  0
  155.9771  138.2372  188.8211 C   0  0  0  0  0  0  0  0  0  0  0  0
  155.0656  134.0651  187.4594 N   0  0  0  0  0  0  0  0  0  0  0  0
  154.4613  133.7696  188.1667 H   0  0  0  0  0  0  0  0  0  0  0  0
  156.8059  133.7931  187.7848 S   0  0  0  0  0  0  0  0  0  0  0  0
  157.1297  132.6688  186.7294 O   0  0  0  0  0  0  0  0  0  0  0  0
  157.6122  134.9567  187.3388 O   0  0  0  0  0  0  0  0  0  0  0  0
  157.1906  133.1773  189.3055 C   0  0  0  0  0  0  0  0  0  0  0  0
  157.5263  133.9854  190.3199 C   0  0  0  0  0  0  0  0  0  0  0  0
  157.9480  133.6788  191.5488 C   0  0  0  0  0  0  0  0  0  0  0  0
  158.0849  132.3399  191.8447 C   0  0  0  0  0  0  0  0  0  0  0  0
  158.6451  131.7976  193.4253 Cl  0  0  0  0  0  0  0  0  0  0  0  0
  157.7959  131.3399  190.8754 C   0  0  0  0  0  0  0  0  0  0  0  0
  157.3439  131.7882  189.6090 C   0  0  0  0  0  0  0  0  0  0  0  0
  153.8000  137.8062  184.8501 O   0  0  0  0  0  0  0  0  0  0  0  0
  153.9977  138.8857  184.2366 C   0  0  0  0  0  0  0  0  0  0  0  0
  154.7938  140.0992  184.2213 C   0  0  0  0  0  0  0  0  0  0  0  0
  155.6110  140.6463  183.3953 O   0  0  0  0  0  0  0  0  0  0  0  0
  156.4247  141.1859  182.5842 C   0  0  0  0  0  0  0  0  0  0  0  0
  156.4992  142.6536  182.5347 N   0  0  0  0  0  0  0  0  0  0  0  0
  157.3467  143.3092  181.7439 C   0  0  0  0  0  0  0  0  0  0  0  0
  158.2151  142.5887  180.9138 C   0  0  0  0  0  0  0  0  0  0  0  0
  159.3901  143.5293  179.7523 Br  0  0  0  0  0  0  0  0  0  0  0  0
  158.1582  141.2200  180.9286 C   0  0  0  0  0  0  0  0  0  0  0  0
  157.3195  140.6613  181.7000 N   0  0  0  0  0  0  0  0  0  0  0  0
  7  8  1  0  0  0
  8  9  2  0  0  0
  9 10  1  0  0  0
 10 11  2  0  0  0
 11  1  1  0  0  0
  1  2  1  0  0  0
  2 14  1  0  0  0
 14 16  1  0  0  0
 16 17  2  0  0  0
 16 18  2  0  0  0
 16 19  1  0  0  0
 19 20  2  0  0  0
 20 21  1  0  0  0
 21 22  2  0  0  0
 22 23  1  0  0  0
 22 24  1  0  0  0
 24 25  2  0  0  0
  2  3  2  0  0  0
  3  4  1  0  0  0
  4  5  2  0  0  0
  5  6  1  0  0  0
  6 26  1  0  0  0
 26 27  1  0  0  0
 27 28  1  0  0  0
 28 29  1  0  0  0
 29 30  1  0  0  0
 30 31  2  0  0  0
 31 32  1  0  0  0
 32 33  2  0  0  0
 33 34  1  0  0  0
 33 35  1  0  0  0
 35 36  2  0  0  0
 11 12  1  0  0  0
 12 13  2  0  0  0
 13  8  1  0  0  0
  6  1  2  0  0  0
 36 30  1  0  0  0
 25 19  1  0  0  0
 14 15  1  0  0  0
M  END
> <minimizedAffinity>
-7.01091

> <CNNscore>
0.3833714724

> <CNNaffinity>
6.2439336777

> <CNN_VS>
2.3937461376

> <CNNaffinity_variance>
0.0707922429

$$$$
[H]c1nc(OC([H])([H])C([H])([H])Oc2nc([H])c(Br)c([H])n2)c(-c2c([H])c([H])c(C([H])([H])[H])c([H])c2[H])c(N([H])S(=O)(=O)c2c([H])c([H])c(Cl)c([H])c2[H])n1


 36 39  0  0  0  0  0  0  0  0999 V2000
  153.2088  137.4154  186.8917 C   0  0  0  0  0  0  0  0  0  0  0  0
  152.4296  136.4782  186.3073 C   0  0  0  0  0  0  0  0  0  0  0  0
  151.6134  135.6468  187.1836 N   0  0  0  0  0  0  0  0  0  0  0  0
  151.6192  135.7877  188.4765 C   0  0  0  0  0  0  0  0  0  0  0  0
  152.3857  136.7124  189.0672 N   0  0  0  0  0  0  0  0  0  0  0  0
  153.1345  137.4683  188.3613 C   0  0  0  0  0  0  0  0  0  0  0  0
  156.5220  140.2537  183.2611 C   0  0  0  0  0  0  0  0  0  0  0  0
  155.7091  139.7180  184.3716 C   0  0  0  0  0  0  0  0  0  0  0  0
  156.1618  138.8716  185.3114 C   0  0  0  0  0  0  0  0  0  0  0  0
  155.4176  138.2089  186.2421 C   0  0  0  0  0  0  0  0  0  0  0  0
  154.0153  138.4085  186.2684 C   0  0  0  0  0  0  0  0  0  0  0  0
  153.5265  139.3058  185.3307 C   0  0  0  0  0  0  0  0  0  0  0  0
  154.2878  139.9879  184.3767 C   0  0  0  0  0  0  0  0  0  0  0  0
  152.4121  136.2052  184.9563 N   0  0  0  0  0  0  0  0  0  0  0  0
  153.1153  135.8524  184.3785 H   0  0  0  0  0  0  0  0  0  0  0  0
  150.8884  136.6384  184.1200 S   0  0  0  0  0  0  0  0  0  0  0  0
  150.4512  135.2322  183.5593 O   0  0  0  0  0  0  0  0  0  0  0  0
  149.8305  136.9859  185.1014 O   0  0  0  0  0  0  0  0  0  0  0  0
  151.0333  137.6791  182.8026 C   0  0  0  0  0  0  0  0  0  0  0  0
  149.9606  138.2721  182.2618 C   0  0  0  0  0  0  0  0  0  0  0  0
  149.8706  139.0400  181.1736 C   0  0  0  0  0  0  0  0  0  0  0  0
  151.0342  139.2618  180.4694 C   0  0  0  0  0  0  0  0  0  0  0  0
  151.0537  140.2460  179.0075 Cl  0  0  0  0  0  0  0  0  0  0  0  0
  152.2665  138.6871  180.8869 C   0  0  0  0  0  0  0  0  0  0  0  0
  152.2386  137.8998  182.0651 C   0  0  0  0  0  0  0  0  0  0  0  0
  154.0104  138.3998  188.8338 O   0  0  0  0  0  0  0  0  0  0  0  0
  154.8780  138.5625  189.7290 C   0  0  0  0  0  0  0  0  0  0  0  0
  155.9794  137.9252  190.4271 C   0  0  0  0  0  0  0  0  0  0  0  0
  156.5081  136.7548  190.4253 O   0  0  0  0  0  0  0  0  0  0  0  0
  157.0238  135.5949  190.4204 C   0  0  0  0  0  0  0  0  0  0  0  0
  157.6066  135.0896  189.1686 N   0  0  0  0  0  0  0  0  0  0  0  0
  158.2017  133.9020  189.0747 C   0  0  0  0  0  0  0  0  0  0  0  0
  158.2879  133.0809  190.2064 C   0  0  0  0  0  0  0  0  0  0  0  0
  159.0965  131.3670  190.0561 Br  0  0  0  0  0  0  0  0  0  0  0  0
  157.7412  133.5199  191.3833 C   0  0  0  0  0  0  0  0  0  0  0  0
  157.1806  134.6585  191.3983 N   0  0  0  0  0  0  0  0  0  0  0  0
  7  8  1  0  0  0
  8  9  2  0  0  0
  9 10  1  0  0  0
 10 11  2  0  0  0
 11  1  1  0  0  0
  1  2  1  0  0  0
  2 14  1  0  0  0
 14 16  1  0  0  0
 16 17  2  0  0  0
 16 18  2  0  0  0
 16 19  1  0  0  0
 19 20  2  0  0  0
 20 21  1  0  0  0
 21 22  2  0  0  0
 22 23  1  0  0  0
 22 24  1  0  0  0
 24 25  2  0  0  0
  2  3  2  0  0  0
  3  4  1  0  0  0
  4  5  2  0  0  0
  5  6  1  0  0  0
  6 26  1  0  0  0
 26 27  1  0  0  0
 27 28  1  0  0  0
 28 29  1  0  0  0
 29 30  1  0  0  0
 30 31  2  0  0  0
 31 32  1  0  0  0
 32 33  2  0  0  0
 33 34  1  0  0  0
 33 35  1  0  0  0
 35 36  2  0  0  0
 11 12  1  0  0  0
 12 13  2  0  0  0
 13  8  1  0  0  0
  6  1  2  0  0  0
 36 30  1  0  0  0
 25 19  1  0  0  0
 14 15  1  0  0  0
M  END
> <minimizedAffinity>
-6.41799

> <CNNscore>
0.3754971325

> <CNNaffinity>
6.1713590622

> <CNN_VS>
2.3173277378

> <CNNaffinity_variance>
0.1814859807

$$$$
[H]c1nc(OC([H])([H])C([H])([H])Oc2nc([H])c(Br)c([H])n2)c(-c2c([H])c([H])c(C([H])([H])[H])c([H])c2[H])c(N([H])S(=O)(=O)c2c([H])c([H])c(Cl)c([H])c2[H])n1


 36 39  0  0  0  0  0  0  0  0999 V2000
  153.9522  136.7897  186.0129 C   0  0  0  0  0  0  0  0  0  0  0  0
  153.2744  135.6237  186.1019 C   0  0  0  0  0  0  0  0  0  0  0  0
  152.9202  134.9598  184.8532 N   0  0  0  0  0  0  0  0  0  0  0  0
  153.2368  135.4522  183.6919 C   0  0  0  0  0  0  0  0  0  0  0  0
  153.9084  136.6055  183.5903 N   0  0  0  0  0  0  0  0  0  0  0  0
  154.2414  137.2465  184.6432 C   0  0  0  0  0  0  0  0  0  0  0  0
  155.5939  138.7059  191.0969 C   0  0  0  0  0  0  0  0  0  0  0  0
  155.2403  138.4481  189.6864 C   0  0  0  0  0  0  0  0  0  0  0  0
  154.0241  138.6521  189.1537 C   0  0  0  0  0  0  0  0  0  0  0  0
  153.5967  138.2638  187.9184 C   0  0  0  0  0  0  0  0  0  0  0  0
  154.4962  137.5786  187.0651 C   0  0  0  0  0  0  0  0  0  0  0  0
  155.7704  137.3866  187.5779 C   0  0  0  0  0  0  0  0  0  0  0  0
  156.2115  137.7855  188.8434 C   0  0  0  0  0  0  0  0  0  0  0  0
  152.8312  135.0630  187.2806 N   0  0  0  0  0  0  0  0  0  0  0  0
  152.1354  135.3637  187.8955 H   0  0  0  0  0  0  0  0  0  0  0  0
  153.7244  133.6003  187.8013 S   0  0  0  0  0  0  0  0  0  0  0  0
  153.1837  133.4342  189.2720 O   0  0  0  0  0  0  0  0  0  0  0  0
  153.2242  132.3977  187.0897 O   0  0  0  0  0  0  0  0  0  0  0  0
  155.4003  133.7477  187.8983 C   0  0  0  0  0  0  0  0  0  0  0  0
  156.0054  134.0779  189.0471 C   0  0  0  0  0  0  0  0  0  0  0  0
  157.2937  134.3306  189.2886 C   0  0  0  0  0  0  0  0  0  0  0  0
  158.1535  134.2667  188.2135 C   0  0  0  0  0  0  0  0  0  0  0  0
  159.8768  134.5905  188.3908 Cl  0  0  0  0  0  0  0  0  0  0  0  0
  157.6780  133.9537  186.9100 C   0  0  0  0  0  0  0  0  0  0  0  0
  156.2908  133.6929  186.7807 C   0  0  0  0  0  0  0  0  0  0  0  0
  154.8636  138.4587  184.6835 O   0  0  0  0  0  0  0  0  0  0  0  0
  155.1343  139.4449  183.9522 C   0  0  0  0  0  0  0  0  0  0  0  0
  156.0688  140.5373  183.7518 C   0  0  0  0  0  0  0  0  0  0  0  0
  157.1476  140.9343  184.3244 O   0  0  0  0  0  0  0  0  0  0  0  0
  158.2097  141.3326  184.8941 C   0  0  0  0  0  0  0  0  0  0  0  0
  159.4077  141.5562  184.0715 N   0  0  0  0  0  0  0  0  0  0  0  0
  160.5560  142.0077  184.5724 C   0  0  0  0  0  0  0  0  0  0  0  0
  160.6494  142.2890  185.9415 C   0  0  0  0  0  0  0  0  0  0  0  0
  162.3042  142.8886  186.6600 Br  0  0  0  0  0  0  0  0  0  0  0  0
  159.5529  142.0768  186.7351 C   0  0  0  0  0  0  0  0  0  0  0  0
  158.4939  141.6357  186.1922 N   0  0  0  0  0  0  0  0  0  0  0  0
  7  8  1  0  0  0
  8  9  2  0  0  0
  9 10  1  0  0  0
 10 11  2  0  0  0
 11  1  1  0  0  0
  1  2  1  0  0  0
  2 14  1  0  0  0
 14 16  1  0  0  0
 16 17  2  0  0  0
 16 18  2  0  0  0
 16 19  1  0  0  0
 19 20  2  0  0  0
 20 21  1  0  0  0
 21 22  2  0  0  0
 22 23  1  0  0  0
 22 24  1  0  0  0
 24 25  2  0  0  0
  2  3  2  0  0  0
  3  4  1  0  0  0
  4  5  2  0  0  0
  5  6  1  0  0  0
  6 26  1  0  0  0
 26 27  1  0  0  0
 27 28  1  0  0  0
 28 29  1  0  0  0
 29 30  1  0  0  0
 30 31  2  0  0  0
 31 32  1  0  0  0
 32 33  2  0  0  0
 33 34  1  0  0  0
 33 35  1  0  0  0
 35 36  2  0  0  0
 11 12  1  0  0  0
 12 13  2  0  0  0
 13  8  1  0  0  0
  6  1  2  0  0  0
 36 30  1  0  0  0
 25 19  1  0  0  0
 14 15  1  0  0  0
M  END
> <minimizedAffinity>
-7.22062

> <CNNscore>
0.3585101962

> <CNNaffinity>
6.5861997604

> <CNN_VS>
2.3612198830

> <CNNaffinity_variance>
0.1952247024

$$$$
[H]c1nc(OC([H])([H])C([H])([H])Oc2nc([H])c(Br)c([H])n2)c(-c2c([H])c([H])c(C([H])([H])[H])c([H])c2[H])c(N([H])S(=O)(=O)c2c([H])c([H])c(Cl)c([H])c2[H])n1


 36 39  0  0  0  0  0  0  0  0999 V2000
  155.1680  138.3188  185.9129 C   0  0  0  0  0  0  0  0  0  0  0  0
  155.8057  138.9523  184.9035 C   0  0  0  0  0  0  0  0  0  0  0  0
  155.0040  139.3515  183.7530 N   0  0  0  0  0  0  0  0  0  0  0  0
  153.7264  139.1187  183.6837 C   0  0  0  0  0  0  0  0  0  0  0  0
  153.0833  138.4929  184.6767 N   0  0  0  0  0  0  0  0  0  0  0  0
  153.7253  138.1053  185.7102 C   0  0  0  0  0  0  0  0  0  0  0  0
  155.8154  136.0028  191.0541 C   0  0  0  0  0  0  0  0  0  0  0  0
  155.8780  136.7277  189.7689 C   0  0  0  0  0  0  0  0  0  0  0  0
  155.3221  137.9291  189.5410 C   0  0  0  0  0  0  0  0  0  0  0  0
  155.1926  138.5552  188.3366 C   0  0  0  0  0  0  0  0  0  0  0  0
  155.6904  137.9164  187.1741 C   0  0  0  0  0  0  0  0  0  0  0  0
  156.3014  136.6899  187.3871 C   0  0  0  0  0  0  0  0  0  0  0  0
  156.4371  136.0469  188.6213 C   0  0  0  0  0  0  0  0  0  0  0  0
  157.1648  139.1764  184.8535 N   0  0  0  0  0  0  0  0  0  0  0  0
  157.9071  138.5807  185.0703 H   0  0  0  0  0  0  0  0  0  0  0  0
  157.6372  140.8422  184.3948 S   0  0  0  0  0  0  0  0  0  0  0  0
  157.8950  140.6597  182.8511 O   0  0  0  0  0  0  0  0  0  0  0  0
  156.4710  141.7576  184.4653 O   0  0  0  0  0  0  0  0  0  0  0  0
  159.0650  141.4241  185.0750 C   0  0  0  0  0  0  0  0  0  0  0  0
  159.1057  141.8635  186.3399 C   0  0  0  0  0  0  0  0  0  0  0  0
  160.1069  142.4394  187.0091 C   0  0  0  0  0  0  0  0  0  0  0  0
  161.2827  142.6415  186.3193 C   0  0  0  0  0  0  0  0  0  0  0  0
  162.6783  143.4032  187.0796 Cl  0  0  0  0  0  0  0  0  0  0  0  0
  161.4095  142.2582  184.9554 C   0  0  0  0  0  0  0  0  0  0  0  0
  160.2814  141.6445  184.3559 C   0  0  0  0  0  0  0  0  0  0  0  0
  153.2119  137.4011  186.7584 O   0  0  0  0  0  0  0  0  0  0  0  0
  152.5835  136.3421  187.0123 C   0  0  0  0  0  0  0  0  0  0  0  0
  152.4310  135.2697  187.9783 C   0  0  0  0  0  0  0  0  0  0  0  0
  151.9695  135.1741  189.1730 O   0  0  0  0  0  0  0  0  0  0  0  0
  151.5090  135.0863  190.3526 C   0  0  0  0  0  0  0  0  0  0  0  0
  152.3481  134.4702  191.3911 N   0  0  0  0  0  0  0  0  0  0  0  0
  151.9667  134.3667  192.6629 C   0  0  0  0  0  0  0  0  0  0  0  0
  150.7144  134.8601  193.0510 C   0  0  0  0  0  0  0  0  0  0  0  0
  150.1551  134.6678  194.8578 Br  0  0  0  0  0  0  0  0  0  0  0  0
  149.9053  135.4267  192.1017 C   0  0  0  0  0  0  0  0  0  0  0  0
  150.3288  135.4836  190.9067 N   0  0  0  0  0  0  0  0  0  0  0  0
  7  8  1  0  0  0
  8  9  2  0  0  0
  9 10  1  0  0  0
 10 11  2  0  0  0
 11  1  1  0  0  0
  1  2  1  0  0  0
  2 14  1  0  0  0
 14 16  1  0  0  0
 16 17  2  0  0  0
 16 18  2  0  0  0
 16 19  1  0  0  0
 19 20  2  0  0  0
 20 21  1  0  0  0
 21 22  2  0  0  0
 22 23  1  0  0  0
 22 24  1  0  0  0
 24 25  2  0  0  0
  2  3  2  0  0  0
  3  4  1  0  0  0
  4  5  2  0  0  0
  5  6  1  0  0  0
  6 26  1  0  0  0
 26 27  1  0  0  0
 27 28  1  0  0  0
 28 29  1  0  0  0
 29 30  1  0  0  0
 30 31  2  0  0  0
 31 32  1  0  0  0
 32 33  2  0  0  0
 33 34  1  0  0  0
 33 35  1  0  0  0
 35 36  2  0  0  0
 11 12  1  0  0  0
 12 13  2  0  0  0
 13  8  1  0  0  0
  6  1  2  0  0  0
 36 30  1  0  0  0
 25 19  1  0  0  0
 14 15  1  0  0  0
M  END
> <minimizedAffinity>
-7.23978

> <CNNscore>
0.3276001215

> <CNNaffinity>
6.4882950783

> <CNN_VS>
2.1255662441

> <CNNaffinity_variance>
0.1073668748

$$$$
[H]c1nc(OC([H])([H])C([H])([H])Oc2nc([H])c(Br)c([H])n2)c(-c2c([H])c([H])c(C([H])([H])[H])c([H])c2[H])c(N([H])S(=O)(=O)c2c([H])c([H])c(Cl)c([H])c2[H])n1


 36 39  0  0  0  0  0  0  0  0999 V2000
  154.4781  136.2422  186.1875 C   0  0  0  0  0  0  0  0  0  0  0  0
  154.4261  134.8970  186.3085 C   0  0  0  0  0  0  0  0  0  0  0  0
  154.2100  134.1245  185.0911 N   0  0  0  0  0  0  0  0  0  0  0  0
  154.0732  134.6884  183.9271 C   0  0  0  0  0  0  0  0  0  0  0  0
  154.1234  136.0192  183.7939 N   0  0  0  0  0  0  0  0  0  0  0  0
  154.2989  136.7584  184.8201 C   0  0  0  0  0  0  0  0  0  0  0  0
  155.1572  138.9134  191.1491 C   0  0  0  0  0  0  0  0  0  0  0  0
  155.0355  138.4559  189.7502 C   0  0  0  0  0  0  0  0  0  0  0  0
  153.8887  138.4309  189.0511 C   0  0  0  0  0  0  0  0  0  0  0  0
  153.6862  137.8540  187.8323 C   0  0  0  0  0  0  0  0  0  0  0  0
  154.7716  137.2093  187.1895 C   0  0  0  0  0  0  0  0  0  0  0  0
  155.9766  137.2519  187.8745 C   0  0  0  0  0  0  0  0  0  0  0  0
  156.1871  137.8444  189.1234 C   0  0  0  0  0  0  0  0  0  0  0  0
  154.4858  134.2151  187.5049 N   0  0  0  0  0  0  0  0  0  0  0  0
  155.2434  133.7837  187.9439 H   0  0  0  0  0  0  0  0  0  0  0  0
  152.9141  134.0255  188.3430 S   0  0  0  0  0  0  0  0  0  0  0  0
  151.9392  134.6743  187.2886 O   0  0  0  0  0  0  0  0  0  0  0  0
  152.5097  132.5981  188.3853 O   0  0  0  0  0  0  0  0  0  0  0  0
  152.7322  134.8796  189.7842 C   0  0  0  0  0  0  0  0  0  0  0  0
  151.6408  135.6190  190.0230 C   0  0  0  0  0  0  0  0  0  0  0  0
  151.3682  136.4274  191.0497 C   0  0  0  0  0  0  0  0  0  0  0  0
  152.3409  136.5554  192.0174 C   0  0  0  0  0  0  0  0  0  0  0  0
  152.1152  137.6000  193.4188 Cl  0  0  0  0  0  0  0  0  0  0  0  0
  153.5776  135.8606  191.9126 C   0  0  0  0  0  0  0  0  0  0  0  0
  153.7462  135.0217  190.7826 C   0  0  0  0  0  0  0  0  0  0  0  0
  154.3026  138.1215  184.8379 O   0  0  0  0  0  0  0  0  0  0  0  0
  154.0723  139.1108  184.0972 C   0  0  0  0  0  0  0  0  0  0  0  0
  154.4056  140.5034  183.8597 C   0  0  0  0  0  0  0  0  0  0  0  0
  155.3104  141.1263  183.1944 O   0  0  0  0  0  0  0  0  0  0  0  0
  156.2006  141.7405  182.5300 C   0  0  0  0  0  0  0  0  0  0  0  0
  156.9043  141.0172  181.4605 N   0  0  0  0  0  0  0  0  0  0  0  0
  157.8262  141.5867  180.6865 C   0  0  0  0  0  0  0  0  0  0  0  0
  158.1561  142.9341  180.8821 C   0  0  0  0  0  0  0  0  0  0  0  0
  159.5062  143.7297  179.8058 Br  0  0  0  0  0  0  0  0  0  0  0  0
  157.5265  143.6293  181.8806 C   0  0  0  0  0  0  0  0  0  0  0  0
  156.6650  143.0207  182.5864 N   0  0  0  0  0  0  0  0  0  0  0  0
  7  8  1  0  0  0
  8  9  2  0  0  0
  9 10  1  0  0  0
 10 11  2  0  0  0
 11  1  1  0  0  0
  1  2  1  0  0  0
  2 14  1  0  0  0
 14 16  1  0  0  0
 16 17  2  0  0  0
 16 18  2  0  0  0
 16 19  1  0  0  0
 19 20  2  0  0  0
 20 21  1  0  0  0
 21 22  2  0  0  0
 22 23  1  0  0  0
 22 24  1  0  0  0
 24 25  2  0  0  0
  2  3  2  0  0  0
  3  4  1  0  0  0
  4  5  2  0  0  0
  5  6  1  0  0  0
  6 26  1  0  0  0
 26 27  1  0  0  0
 27 28  1  0  0  0
 28 29  1  0  0  0
 29 30  1  0  0  0
 30 31  2  0  0  0
 31 32  1  0  0  0
 32 33  2  0  0  0
 33 34  1  0  0  0
 33 35  1  0  0  0
 35 36  2  0  0  0
 11 12  1  0  0  0
 12 13  2  0  0  0
 13  8  1  0  0  0
  6  1  2  0  0  0
 36 30  1  0  0  0
 25 19  1  0  0  0
 14 15  1  0  0  0
M  END
> <minimizedAffinity>
-7.37351

> <CNNscore>
0.3233552277

> <CNNaffinity>
6.2065258026

> <CNN_VS>
2.0069124699

> <CNNaffinity_variance>
0.2530706525

$$$$
[H]c1nc(OC([H])([H])C([H])([H])Oc2nc([H])c(Br)c([H])n2)c(-c2c([H])c([H])c(C([H])([H])[H])c([H])c2[H])c(N([H])S(=O)(=O)c2c([H])c([H])c(Cl)c([H])c2[H])n1


 36 39  0  0  0  0  0  0  0  0999 V2000
  153.0766  138.2911  184.0251 C   0  0  0  0  0  0  0  0  0  0  0  0
  152.0616  137.5190  183.5775 C   0  0  0  0  0  0  0  0  0  0  0  0
  151.6337  137.7121  182.1973 N   0  0  0  0  0  0  0  0  0  0  0  0
  152.1949  138.5845  181.4129 C   0  0  0  0  0  0  0  0  0  0  0  0
  153.2013  139.3545  181.8438 N   0  0  0  0  0  0  0  0  0  0  0  0
  153.6200  139.2465  183.0452 C   0  0  0  0  0  0  0  0  0  0  0  0
  154.5396  137.0408  189.3647 C   0  0  0  0  0  0  0  0  0  0  0  0
  154.3510  137.5503  187.9914 C   0  0  0  0  0  0  0  0  0  0  0  0
  153.4856  138.5182  187.6472 C   0  0  0  0  0  0  0  0  0  0  0  0
  153.1419  138.8965  186.3831 C   0  0  0  0  0  0  0  0  0  0  0  0
  153.7413  138.2361  185.2824 C   0  0  0  0  0  0  0  0  0  0  0  0
  154.6660  137.2561  185.6107 C   0  0  0  0  0  0  0  0  0  0  0  0
  155.0213  136.8678  186.9061 C   0  0  0  0  0  0  0  0  0  0  0  0
  151.3578  136.6229  184.3533 N   0  0  0  0  0  0  0  0  0  0  0  0
  150.8985  136.7556  185.2043 H   0  0  0  0  0  0  0  0  0  0  0  0
  151.3529  134.9391  183.7422 S   0  0  0  0  0  0  0  0  0  0  0  0
  151.3637  134.1351  185.0974 O   0  0  0  0  0  0  0  0  0  0  0  0
  150.0427  134.6060  183.1296 O   0  0  0  0  0  0  0  0  0  0  0  0
  152.7114  134.4620  182.8668 C   0  0  0  0  0  0  0  0  0  0  0  0
  153.8911  134.2572  183.4678 C   0  0  0  0  0  0  0  0  0  0  0  0
  155.0810  133.9738  182.9332 C   0  0  0  0  0  0  0  0  0  0  0  0
  155.1424  133.8883  181.5592 C   0  0  0  0  0  0  0  0  0  0  0  0
  156.6534  133.5334  180.7242 Cl  0  0  0  0  0  0  0  0  0  0  0  0
  153.9873  134.1027  180.7573 C   0  0  0  0  0  0  0  0  0  0  0  0
  152.7778  134.3849  181.4402 C   0  0  0  0  0  0  0  0  0  0  0  0
  154.5851  140.0097  183.6319 O   0  0  0  0  0  0  0  0  0  0  0  0
  155.4082  140.9220  183.3657 C   0  0  0  0  0  0  0  0  0  0  0  0
  156.8141  141.2084  183.1465 C   0  0  0  0  0  0  0  0  0  0  0  0
  157.8179  141.4884  183.8970 O   0  0  0  0  0  0  0  0  0  0  0  0
  158.8134  141.7578  184.6371 C   0  0  0  0  0  0  0  0  0  0  0  0
  160.1326  141.9227  184.0090 N   0  0  0  0  0  0  0  0  0  0  0  0
  161.2273  142.2416  184.6971 C   0  0  0  0  0  0  0  0  0  0  0  0
  161.1414  142.4334  186.0821 C   0  0  0  0  0  0  0  0  0  0  0  0
  162.7154  142.8423  187.0667 Br  0  0  0  0  0  0  0  0  0  0  0  0
  159.9275  142.2726  186.6965 C   0  0  0  0  0  0  0  0  0  0  0  0
  158.9278  141.9587  185.9803 N   0  0  0  0  0  0  0  0  0  0  0  0
  7  8  1  0  0  0
  8  9  2  0  0  0
  9 10  1  0  0  0
 10 11  2  0  0  0
 11  1  1  0  0  0
  1  2  1  0  0  0
  2 14  1  0  0  0
 14 16  1  0  0  0
 16 17  2  0  0  0
 16 18  2  0  0  0
 16 19  1  0  0  0
 19 20  2  0  0  0
 20 21  1  0  0  0
 21 22  2  0  0  0
 22 23  1  0  0  0
 22 24  1  0  0  0
 24 25  2  0  0  0
  2  3  2  0  0  0
  3  4  1  0  0  0
  4  5  2  0  0  0
  5  6  1  0  0  0
  6 26  1  0  0  0
 26 27  1  0  0  0
 27 28  1  0  0  0
 28 29  1  0  0  0
 29 30  1  0  0  0
 30 31  2  0  0  0
 31 32  1  0  0  0
 32 33  2  0  0  0
 33 34  1  0  0  0
 33 35  1  0  0  0
 35 36  2  0  0  0
 11 12  1  0  0  0
 12 13  2  0  0  0
 13  8  1  0  0  0
  6  1  2  0  0  0
 36 30  1  0  0  0
 25 19  1  0  0  0
 14 15  1  0  0  0
M  END
> <minimizedAffinity>
-7.30237

> <CNNscore>
0.3198065162

> <CNNaffinity>
6.5061631203

> <CNN_VS>
2.0807132721

> <CNNaffinity_variance>
0.1410426050

$$$$
[H]c1nc(OC([H])([H])C([H])([H])Oc2nc([H])c(Br)c([H])n2)c(-c2c([H])c([H])c(C([H])([H])[H])c([H])c2[H])c(N([H])S(=O)(=O)c2c([H])c([H])c(Cl)c([H])c2[H])n1


 36 39  0  0  0  0  0  0  0  0999 V2000
  154.2870  139.2033  183.6202 C   0  0  0  0  0  0  0  0  0  0  0  0
  155.4482  139.8059  183.9602 C   0  0  0  0  0  0  0  0  0  0  0  0
  156.0712  139.3969  185.2132 N   0  0  0  0  0  0  0  0  0  0  0  0
  155.5479  138.4896  185.9841 C   0  0  0  0  0  0  0  0  0  0  0  0
  154.3990  137.8851  185.6584 N   0  0  0  0  0  0  0  0  0  0  0  0
  153.7928  138.2022  184.5803 C   0  0  0  0  0  0  0  0  0  0  0  0
  150.0860  139.3354  179.8059 C   0  0  0  0  0  0  0  0  0  0  0  0
  151.3385  139.3403  180.5883 C   0  0  0  0  0  0  0  0  0  0  0  0
  152.0526  138.2447  180.8949 C   0  0  0  0  0  0  0  0  0  0  0  0
  153.1048  138.1694  181.7589 C   0  0  0  0  0  0  0  0  0  0  0  0
  153.5351  139.3461  182.4203 C   0  0  0  0  0  0  0  0  0  0  0  0
  152.8366  140.4989  182.0940 C   0  0  0  0  0  0  0  0  0  0  0  0
  151.7587  140.5787  181.2070 C   0  0  0  0  0  0  0  0  0  0  0  0
  156.0389  140.8272  183.2475 N   0  0  0  0  0  0  0  0  0  0  0  0
  155.6460  141.6360  182.8678 H   0  0  0  0  0  0  0  0  0  0  0  0
  157.7802  140.5932  182.8988 S   0  0  0  0  0  0  0  0  0  0  0  0
  157.9086  139.0331  183.0792 O   0  0  0  0  0  0  0  0  0  0  0  0
  158.0632  140.8195  181.4595 O   0  0  0  0  0  0  0  0  0  0  0  0
  158.8575  141.3116  183.9771 C   0  0  0  0  0  0  0  0  0  0  0  0
  160.1386  141.5218  183.6461 C   0  0  0  0  0  0  0  0  0  0  0  0
  161.1456  141.9833  184.3911 C   0  0  0  0  0  0  0  0  0  0  0  0
  160.8619  142.2820  185.7061 C   0  0  0  0  0  0  0  0  0  0  0  0
  162.1023  142.8869  186.8023 Cl  0  0  0  0  0  0  0  0  0  0  0  0
  159.5555  142.0950  186.2368 C   0  0  0  0  0  0  0  0  0  0  0  0
  158.5662  141.6105  185.3450 C   0  0  0  0  0  0  0  0  0  0  0  0
  152.5888  137.7183  184.1628 O   0  0  0  0  0  0  0  0  0  0  0  0
  151.6091  137.0450  184.5722 C   0  0  0  0  0  0  0  0  0  0  0  0
  151.0873  136.2976  185.7016 C   0  0  0  0  0  0  0  0  0  0  0  0
  151.3168  136.2709  186.9649 O   0  0  0  0  0  0  0  0  0  0  0  0
  151.5502  136.2397  188.2123 C   0  0  0  0  0  0  0  0  0  0  0  0
  152.7490  136.9227  188.7208 N   0  0  0  0  0  0  0  0  0  0  0  0
  153.0575  136.9760  190.0151 C   0  0  0  0  0  0  0  0  0  0  0  0
  152.2168  136.3610  190.9518 C   0  0  0  0  0  0  0  0  0  0  0  0
  152.6861  136.3995  192.7936 Br  0  0  0  0  0  0  0  0  0  0  0  0
  151.0998  135.7052  190.5054 C   0  0  0  0  0  0  0  0  0  0  0  0
  150.8723  135.6860  189.2570 N   0  0  0  0  0  0  0  0  0  0  0  0
  7  8  1  0  0  0
  8  9  2  0  0  0
  9 10  1  0  0  0
 10 11  2  0  0  0
 11  1  1  0  0  0
  1  2  1  0  0  0
  2 14  1  0  0  0
 14 16  1  0  0  0
 16 17  2  0  0  0
 16 18  2  0  0  0
 16 19  1  0  0  0
 19 20  2  0  0  0
 20 21  1  0  0  0
 21 22  2  0  0  0
 22 23  1  0  0  0
 22 24  1  0  0  0
 24 25  2  0  0  0
  2  3  2  0  0  0
  3  4  1  0  0  0
  4  5  2  0  0  0
  5  6  1  0  0  0
  6 26  1  0  0  0
 26 27  1  0  0  0
 27 28  1  0  0  0
 28 29  1  0  0  0
 29 30  1  0  0  0
 30 31  2  0  0  0
 31 32  1  0  0  0
 32 33  2  0  0  0
 33 34  1  0  0  0
 33 35  1  0  0  0
 35 36  2  0  0  0
 11 12  1  0  0  0
 12 13  2  0  0  0
 13  8  1  0  0  0
  6  1  2  0  0  0
 36 30  1  0  0  0
 25 19  1  0  0  0
 14 15  1  0  0  0
M  END
> <minimizedAffinity>
-7.81423

> <CNNscore>
0.3167538941

> <CNNaffinity>
6.5082793236

> <CNN_VS>
2.0615227222

> <CNNaffinity_variance>
0.1309713721

$$$$
[H]c1nc(OC([H])([H])C([H])([H])Oc2nc([H])c(Br)c([H])n2)c(-c2c([H])c([H])c(C([H])([H])[H])c([H])c2[H])c(N([H])S(=O)(=O)c2c([H])c([H])c(Cl)c([H])c2[H])n1


 36 39  0  0  0  0  0  0  0  0999 V2000
  154.7497  139.1434  184.4680 C   0  0  0  0  0  0  0  0  0  0  0  0
  156.0665  139.4093  184.3184 C   0  0  0  0  0  0  0  0  0  0  0  0
  156.9486  139.0594  185.4252 N   0  0  0  0  0  0  0  0  0  0  0  0
  156.5059  138.5110  186.5182 C   0  0  0  0  0  0  0  0  0  0  0  0
  155.2046  138.2420  186.6782 N   0  0  0  0  0  0  0  0  0  0  0  0
  154.3732  138.5322  185.7536 C   0  0  0  0  0  0  0  0  0  0  0  0
  151.8152  139.7139  179.6433 C   0  0  0  0  0  0  0  0  0  0  0  0
  152.3450  139.6123  181.0181 C   0  0  0  0  0  0  0  0  0  0  0  0
  152.8757  140.6339  181.7103 C   0  0  0  0  0  0  0  0  0  0  0  0
  153.5393  140.5591  182.8991 C   0  0  0  0  0  0  0  0  0  0  0  0
  153.7036  139.2939  183.5149 C   0  0  0  0  0  0  0  0  0  0  0  0
  153.1334  138.2264  182.8378 C   0  0  0  0  0  0  0  0  0  0  0  0
  152.4509  138.3009  181.6197 C   0  0  0  0  0  0  0  0  0  0  0  0
  156.6172  140.0540  183.2316 N   0  0  0  0  0  0  0  0  0  0  0  0
  156.7920  139.7248  182.3295 H   0  0  0  0  0  0  0  0  0  0  0  0
  157.1673  141.7290  183.5487 S   0  0  0  0  0  0  0  0  0  0  0  0
  157.3994  142.2450  182.0780 O   0  0  0  0  0  0  0  0  0  0  0  0
  156.0490  142.5623  184.0565 O   0  0  0  0  0  0  0  0  0  0  0  0
  158.6294  141.8882  184.3712 C   0  0  0  0  0  0  0  0  0  0  0  0
  158.6716  141.9705  185.7077 C   0  0  0  0  0  0  0  0  0  0  0  0
  159.7118  142.1920  186.5145 C   0  0  0  0  0  0  0  0  0  0  0  0
  160.9366  142.3854  185.9132 C   0  0  0  0  0  0  0  0  0  0  0  0
  162.3892  142.7000  186.8605 Cl  0  0  0  0  0  0  0  0  0  0  0  0
  161.0730  142.3569  184.4977 C   0  0  0  0  0  0  0  0  0  0  0  0
  159.8985  142.1005  183.7469 C   0  0  0  0  0  0  0  0  0  0  0  0
  153.0202  138.3765  185.8111 O   0  0  0  0  0  0  0  0  0  0  0  0
  152.1402  137.6443  186.3309 C   0  0  0  0  0  0  0  0  0  0  0  0
  151.9182  136.5646  187.2751 C   0  0  0  0  0  0  0  0  0  0  0  0
  151.9569  136.4452  188.5532 O   0  0  0  0  0  0  0  0  0  0  0  0
  151.9917  136.3200  189.8159 C   0  0  0  0  0  0  0  0  0  0  0  0
  150.8991  135.5950  190.4812 N   0  0  0  0  0  0  0  0  0  0  0  0
  150.8668  135.3811  191.7952 C   0  0  0  0  0  0  0  0  0  0  0  0
  151.9098  135.8591  192.5989 C   0  0  0  0  0  0  0  0  0  0  0  0
  151.8359  135.5923  194.4797 Br  0  0  0  0  0  0  0  0  0  0  0  0
  152.9344  136.5505  192.0081 C   0  0  0  0  0  0  0  0  0  0  0  0
  152.8958  136.7259  190.7517 N   0  0  0  0  0  0  0  0  0  0  0  0
  7  8  1  0  0  0
  8  9  2  0  0  0
  9 10  1  0  0  0
 10 11  2  0  0  0
 11  1  1  0  0  0
  1  2  1  0  0  0
  2 14  1  0  0  0
 14 16  1  0  0  0
 16 17  2  0  0  0
 16 18  2  0  0  0
 16 19  1  0  0  0
 19 20  2  0  0  0
 20 21  1  0  0  0
 21 22  2  0  0  0
 22 23  1  0  0  0
 22 24  1  0  0  0
 24 25  2  0  0  0
  2  3  2  0  0  0
  3  4  1  0  0  0
  4  5  2  0  0  0
  5  6  1  0  0  0
  6 26  1  0  0  0
 26 27  1  0  0  0
 27 28  1  0  0  0
 28 29  1  0  0  0
 29 30  1  0  0  0
 30 31  2  0  0  0
 31 32  1  0  0  0
 32 33  2  0  0  0
 33 34  1  0  0  0
 33 35  1  0  0  0
 35 36  2  0  0  0
 11 12  1  0  0  0
 12 13  2  0  0  0
 13  8  1  0  0  0
  6  1  2  0  0  0
 36 30  1  0  0  0
 25 19  1  0  0  0
 14 15  1  0  0  0
M  END
> <minimizedAffinity>
-8.38664

> <CNNscore>
0.3036909103

> <CNNaffinity>
6.4309792519

> <CNN_VS>
1.9530299902

> <CNNaffinity_variance>
0.1518162489

$$$$
[H]c1nc(N([H])[C@@]([H])(c2c([H])c([H])c(Cl)c([H])c2[H])C([H])([H])N([H])C([H])([H])[H])c2nc([H])c([H])c(C(=O)N([H])[H])c2n1


 29 31  0  0  0  0  0  0  0  0999 V2000
  156.1897  140.2892  183.3591 C   0  0  0  0  0  0  0  0  0  0  0  0
  155.2683  140.6001  182.4295 N   0  0  0  0  0  0  0  0  0  0  0  0
  153.9815  140.1711  182.5440 C   0  0  0  0  0  0  0  0  0  0  0  0
  153.5788  139.4171  183.5946 N   0  0  0  0  0  0  0  0  0  0  0  0
  154.4500  139.0807  184.5436 C   0  0  0  0  0  0  0  0  0  0  0  0
  154.0408  138.3130  185.6146 C   0  0  0  0  0  0  0  0  0  0  0  0
  154.9987  138.0056  186.5557 C   0  0  0  0  0  0  0  0  0  0  0  0
  156.2927  138.4496  186.4194 C   0  0  0  0  0  0  0  0  0  0  0  0
  156.6530  139.1939  185.3647 N   0  0  0  0  0  0  0  0  0  0  0  0
  155.7687  139.5224  184.4224 C   0  0  0  0  0  0  0  0  0  0  0  0
  152.6717  137.8366  185.7744 C   0  0  0  0  0  0  0  0  0  0  0  0
  152.0262  137.2132  184.6939 N   0  0  0  0  0  0  0  0  0  0  0  0
  152.0477  137.9714  186.8676 O   0  0  0  0  0  0  0  0  0  0  0  0
  151.0047  137.4516  184.5511 H   0  0  0  0  0  0  0  0  0  0  0  0
  152.5327  136.5582  184.0773 H   0  0  0  0  0  0  0  0  0  0  0  0
  157.5290  140.7472  183.2258 N   0  0  0  0  0  0  0  0  0  0  0  0
  158.2655  140.0243  183.0449 H   0  0  0  0  0  0  0  0  0  0  0  0
  157.8766  142.1462  183.3327 C   0  0  0  0  0  0  0  0  0  0  0  0
  158.9323  142.3318  184.3286 C   0  0  0  0  0  0  0  0  0  0  0  0
  158.8653  141.8677  185.6241 C   0  0  0  0  0  0  0  0  0  0  0  0
  159.8901  142.0694  186.5242 C   0  0  0  0  0  0  0  0  0  0  0  0
  161.0213  142.7509  186.1396 C   0  0  0  0  0  0  0  0  0  0  0  0
  162.3298  143.0098  187.2845 Cl  0  0  0  0  0  0  0  0  0  0  0  0
  161.1131  143.2263  184.8460 C   0  0  0  0  0  0  0  0  0  0  0  0
  160.0771  143.0110  183.9708 C   0  0  0  0  0  0  0  0  0  0  0  0
  158.2093  142.6785  181.9610 C   0  0  0  0  0  0  0  0  0  0  0  0
  158.0181  141.7742  179.7351 C   0  0  0  0  0  0  0  0  0  0  0  0
  158.6127  141.6703  181.0336 N   0  0  0  0  0  0  0  0  0  0  0  0
  159.6355  141.6939  180.9341 H   0  0  0  0  0  0  0  0  0  0  0  0
 27 28  1  0  0  0
 28 26  1  0  0  0
 26 18  1  0  0  0
 18 16  1  0  0  0
 16  1  1  0  0  0
  1  2  2  0  0  0
  2  3  1  0  0  0
  3  4  2  0  0  0
  4  5  1  0  0  0
  5  6  2  0  0  0
  6 11  1  0  0  0
 11 12  1  0  0  0
 11 13  2  0  0  0
  6  7  1  0  0  0
  7  8  2  0  0  0
  8  9  1  0  0  0
  9 10  2  0  0  0
 18 19  1  0  0  0
 19 20  2  0  0  0
 20 21  1  0  0  0
 21 22  2  0  0  0
 22 23  1  0  0  0
 22 24  1  0  0  0
 24 25  2  0  0  0
 10  1  1  0  0  0
 25 19  1  0  0  0
 10  5  1  0  0  0
 28 29  1  0  0  0
 16 17  1  0  0  0
 12 14  1  0  0  0
 12 15  1  0  0  0
M  END
> <minimizedAffinity>
-7.55772

> <CNNscore>
0.5091785192

> <CNNaffinity>
6.5384635925

> <CNN_VS>
3.3292453289

> <CNNaffinity_variance>
0.2051872313

$$$$
[H]c1nc(N([H])[C@@]([H])(c2c([H])c([H])c(Cl)c([H])c2[H])C([H])([H])N([H])C([H])([H])[H])c2nc([H])c([H])c(C(=O)N([H])[H])c2n1


 29 31  0  0  0  0  0  0  0  0999 V2000
  154.0237  138.9384  184.4107 C   0  0  0  0  0  0  0  0  0  0  0  0
  155.2809  139.2921  184.0884 N   0  0  0  0  0  0  0  0  0  0  0  0
  156.2996  139.1593  184.9816 C   0  0  0  0  0  0  0  0  0  0  0  0
  156.0889  138.6674  186.2257 N   0  0  0  0  0  0  0  0  0  0  0  0
  154.8636  138.3015  186.5968 C   0  0  0  0  0  0  0  0  0  0  0  0
  154.6478  137.7998  187.8639 C   0  0  0  0  0  0  0  0  0  0  0  0
  153.3541  137.4429  188.1746 C   0  0  0  0  0  0  0  0  0  0  0  0
  152.3407  137.5861  187.2566 C   0  0  0  0  0  0  0  0  0  0  0  0
  152.5889  138.0774  186.0346 N   0  0  0  0  0  0  0  0  0  0  0  0
  153.8217  138.4395  185.6780 C   0  0  0  0  0  0  0  0  0  0  0  0
  155.7124  137.6398  188.8477 C   0  0  0  0  0  0  0  0  0  0  0  0
  156.6789  136.6375  188.6634 N   0  0  0  0  0  0  0  0  0  0  0  0
  155.7876  138.3851  189.8683 O   0  0  0  0  0  0  0  0  0  0  0  0
  156.9855  136.1104  189.5289 H   0  0  0  0  0  0  0  0  0  0  0  0
  157.0630  136.4340  187.7270 H   0  0  0  0  0  0  0  0  0  0  0  0
  152.9715  139.0812  183.4653 N   0  0  0  0  0  0  0  0  0  0  0  0
  152.0110  138.7971  183.7729 H   0  0  0  0  0  0  0  0  0  0  0  0
  153.1999  139.5942  182.1334 C   0  0  0  0  0  0  0  0  0  0  0  0
  152.0676  139.2718  181.2646 C   0  0  0  0  0  0  0  0  0  0  0  0
  151.1489  138.2789  181.5260 C   0  0  0  0  0  0  0  0  0  0  0  0
  150.0980  138.0159  180.6732 C   0  0  0  0  0  0  0  0  0  0  0  0
  149.9426  138.7534  179.5225 C   0  0  0  0  0  0  0  0  0  0  0  0
  148.6039  138.4208  178.4329 Cl  0  0  0  0  0  0  0  0  0  0  0  0
  150.8503  139.7548  179.2377 C   0  0  0  0  0  0  0  0  0  0  0  0
  151.8875  139.9947  180.1050 C   0  0  0  0  0  0  0  0  0  0  0  0
  153.5241  141.0649  182.2196 C   0  0  0  0  0  0  0  0  0  0  0  0
  155.3952  142.5608  182.4840 C   0  0  0  0  0  0  0  0  0  0  0  0
  154.8716  141.3799  181.8665 N   0  0  0  0  0  0  0  0  0  0  0  0
  155.4768  140.5838  182.1039 H   0  0  0  0  0  0  0  0  0  0  0  0
 27 28  1  0  0  0
 28 26  1  0  0  0
 26 18  1  0  0  0
 18 16  1  0  0  0
 16  1  1  0  0  0
  1  2  2  0  0  0
  2  3  1  0  0  0
  3  4  2  0  0  0
  4  5  1  0  0  0
  5  6  2  0  0  0
  6 11  1  0  0  0
 11 12  1  0  0  0
 11 13  2  0  0  0
  6  7  1  0  0  0
  7  8  2  0  0  0
  8  9  1  0  0  0
  9 10  2  0  0  0
 18 19  1  0  0  0
 19 20  2  0  0  0
 20 21  1  0  0  0
 21 22  2  0  0  0
 22 23  1  0  0  0
 22 24  1  0  0  0
 24 25  2  0  0  0
 10  1  1  0  0  0
 25 19  1  0  0  0
 10  5  1  0  0  0
 28 29  1  0  0  0
 16 17  1  0  0  0
 12 14  1  0  0  0
 12 15  1  0  0  0
M  END
> <minimizedAffinity>
-6.42217

> <CNNscore>
0.3414678574

> <CNNaffinity>
5.4271278381

> <CNN_VS>
1.8531897068

> <CNNaffinity_variance>
0.0271604545

$$$$
[H]c1nc(N([H])[C@@]([H])(c2c([H])c([H])c(Cl)c([H])c2[H])C([H])([H])N([H])C([H])([H])[H])c2nc([H])c([H])c(C(=O)N([H])[H])c2n1


 29 31  0  0  0  0  0  0  0  0999 V2000
  155.5091  141.0094  183.0157 C   0  0  0  0  0  0  0  0  0  0  0  0
  154.8455  141.3982  181.9120 N   0  0  0  0  0  0  0  0  0  0  0  0
  153.7355  140.7337  181.4883 C   0  0  0  0  0  0  0  0  0  0  0  0
  153.2566  139.6588  182.1587 N   0  0  0  0  0  0  0  0  0  0  0  0
  153.8748  139.2316  183.2579 C   0  0  0  0  0  0  0  0  0  0  0  0
  153.3876  138.1369  183.9419 C   0  0  0  0  0  0  0  0  0  0  0  0
  154.0806  137.7547  185.0694 C   0  0  0  0  0  0  0  0  0  0  0  0
  155.1996  138.4407  185.4786 C   0  0  0  0  0  0  0  0  0  0  0  0
  155.6432  139.5002  184.7880 N   0  0  0  0  0  0  0  0  0  0  0  0
  155.0129  139.9157  183.6888 C   0  0  0  0  0  0  0  0  0  0  0  0
  152.2009  137.4005  183.5219 C   0  0  0  0  0  0  0  0  0  0  0  0
  151.0391  138.1059  183.1677 N   0  0  0  0  0  0  0  0  0  0  0  0
  152.1917  136.1357  183.4683 O   0  0  0  0  0  0  0  0  0  0  0  0
  150.1183  137.6931  183.4879 H   0  0  0  0  0  0  0  0  0  0  0  0
  151.0930  138.9812  182.6230 H   0  0  0  0  0  0  0  0  0  0  0  0
  156.6654  141.7159  183.4460 N   0  0  0  0  0  0  0  0  0  0  0  0
  156.6855  142.0372  184.4431 H   0  0  0  0  0  0  0  0  0  0  0  0
  157.7739  141.9875  182.5591 C   0  0  0  0  0  0  0  0  0  0  0  0
  159.0055  142.1704  183.3278 C   0  0  0  0  0  0  0  0  0  0  0  0
  159.3854  143.3596  183.9105 C   0  0  0  0  0  0  0  0  0  0  0  0
  160.5579  143.4784  184.6261 C   0  0  0  0  0  0  0  0  0  0  0  0
  161.3875  142.3914  184.7755 C   0  0  0  0  0  0  0  0  0  0  0  0
  162.8831  142.5393  185.6873 Cl  0  0  0  0  0  0  0  0  0  0  0  0
  161.0291  141.1876  184.2010 C   0  0  0  0  0  0  0  0  0  0  0  0
  159.8556  141.0982  183.4935 C   0  0  0  0  0  0  0  0  0  0  0  0
  157.8449  140.9046  181.5113 C   0  0  0  0  0  0  0  0  0  0  0  0
  158.5217  142.2149  179.6050 C   0  0  0  0  0  0  0  0  0  0  0  0
  157.5368  141.3575  180.1924 N   0  0  0  0  0  0  0  0  0  0  0  0
  157.3968  140.5434  179.5808 H   0  0  0  0  0  0  0  0  0  0  0  0
 27 28  1  0  0  0
 28 26  1  0  0  0
 26 18  1  0  0  0
 18 16  1  0  0  0
 16  1  1  0  0  0
  1  2  2  0  0  0
  2  3  1  0  0  0
  3  4  2  0  0  0
  4  5  1  0  0  0
  5  6  2  0  0  0
  6 11  1  0  0  0
 11 12  1  0  0  0
 11 13  2  0  0  0
  6  7  1  0  0  0
  7  8  2  0  0  0
  8  9  1  0  0  0
  9 10  2  0  0  0
 18 19  1  0  0  0
 19 20  2  0  0  0
 20 21  1  0  0  0
 21 22  2  0  0  0
 22 23  1  0  0  0
 22 24  1  0  0  0
 24 25  2  0  0  0
 10  1  1  0  0  0
 25 19  1  0  0  0
 10  5  1  0  0  0
 28 29  1  0  0  0
 16 17  1  0  0  0
 12 14  1  0  0  0
 12 15  1  0  0  0
M  END
> <minimizedAffinity>
-6.89617

> <CNNscore>
0.3287417591

> <CNNaffinity>
6.3997364044

> <CNN_VS>
2.1038606167

> <CNNaffinity_variance>
0.1675988734

$$$$
[H]c1nc(N([H])[C@@]([H])(c2c([H])c([H])c(Cl)c([H])c2[H])C([H])([H])N([H])C([H])([H])[H])c2nc([H])c([H])c(C(=O)N([H])[H])c2n1


 29 31  0  0  0  0  0  0  0  0999 V2000
  153.1816  139.4417  182.3385 C   0  0  0  0  0  0  0  0  0  0  0  0
  153.1614  138.5808  183.3721 N   0  0  0  0  0  0  0  0  0  0  0  0
  152.1961  137.6264  183.4734 C   0  0  0  0  0  0  0  0  0  0  0  0
  151.2212  137.5057  182.5411 N   0  0  0  0  0  0  0  0  0  0  0  0
  151.1941  138.3318  181.4972 C   0  0  0  0  0  0  0  0  0  0  0  0
  150.2016  138.2095  180.5465 C   0  0  0  0  0  0  0  0  0  0  0  0
  150.2397  139.0998  179.4960 C   0  0  0  0  0  0  0  0  0  0  0  0
  151.2242  140.0560  179.4143 C   0  0  0  0  0  0  0  0  0  0  0  0
  152.1723  140.1441  180.3575 N   0  0  0  0  0  0  0  0  0  0  0  0
  152.1857  139.3093  181.3971 C   0  0  0  0  0  0  0  0  0  0  0  0
  149.1522  137.1992  180.6180 C   0  0  0  0  0  0  0  0  0  0  0  0
  148.1777  137.2851  181.6258 N   0  0  0  0  0  0  0  0  0  0  0  0
  149.0975  136.2425  179.7907 O   0  0  0  0  0  0  0  0  0  0  0  0
  147.8824  136.3745  182.0777 H   0  0  0  0  0  0  0  0  0  0  0  0
  147.7774  138.1954  181.9031 H   0  0  0  0  0  0  0  0  0  0  0  0
  154.1983  140.4312  182.2464 N   0  0  0  0  0  0  0  0  0  0  0  0
  153.9605  141.3145  181.7353 H   0  0  0  0  0  0  0  0  0  0  0  0
  155.5086  140.2427  182.8268 C   0  0  0  0  0  0  0  0  0  0  0  0
  156.4407  141.2460  182.3116 C   0  0  0  0  0  0  0  0  0  0  0  0
  157.6718  140.9523  181.7673 C   0  0  0  0  0  0  0  0  0  0  0  0
  158.5132  141.9371  181.2949 C   0  0  0  0  0  0  0  0  0  0  0  0
  158.1333  143.2576  181.3588 C   0  0  0  0  0  0  0  0  0  0  0  0
  159.2035  144.5157  180.7575 Cl  0  0  0  0  0  0  0  0  0  0  0  0
  156.9036  143.5784  181.9000 C   0  0  0  0  0  0  0  0  0  0  0  0
  156.0860  142.5770  182.3630 C   0  0  0  0  0  0  0  0  0  0  0  0
  155.3838  140.2174  184.3300 C   0  0  0  0  0  0  0  0  0  0  0  0
  155.3979  138.4979  186.0188 C   0  0  0  0  0  0  0  0  0  0  0  0
  156.0960  139.1458  184.9496 N   0  0  0  0  0  0  0  0  0  0  0  0
  156.3375  138.4454  184.2371 H   0  0  0  0  0  0  0  0  0  0  0  0
 27 28  1  0  0  0
 28 26  1  0  0  0
 26 18  1  0  0  0
 18 16  1  0  0  0
 16  1  1  0  0  0
  1  2  2  0  0  0
  2  3  1  0  0  0
  3  4  2  0  0  0
  4  5  1  0  0  0
  5  6  2  0  0  0
  6 11  1  0  0  0
 11 12  1  0  0  0
 11 13  2  0  0  0
  6  7  1  0  0  0
  7  8  2  0  0  0
  8  9  1  0  0  0
  9 10  2  0  0  0
 18 19  1  0  0  0
 19 20  2  0  0  0
 20 21  1  0  0  0
 21 22  2  0  0  0
 22 23  1  0  0  0
 22 24  1  0  0  0
 24 25  2  0  0  0
 10  1  1  0  0  0
 25 19  1  0  0  0
 10  5  1  0  0  0
 28 29  1  0  0  0
 16 17  1  0  0  0
 12 14  1  0  0  0
 12 15  1  0  0  0
M  END
> <minimizedAffinity>
-6.48930

> <CNNscore>
0.3282383084

> <CNNaffinity>
5.8210315704

> <CNN_VS>
1.9106855392

> <CNNaffinity_variance>
0.0333989337

$$$$
[H]c1nc(N([H])[C@@]([H])(c2c([H])c([H])c(Cl)c([H])c2[H])C([H])([H])N([H])C([H])([H])[H])c2nc([H])c([H])c(C(=O)N([H])[H])c2n1


 29 31  0  0  0  0  0  0  0  0999 V2000
  156.4373  140.4743  183.5927 C   0  0  0  0  0  0  0  0  0  0  0  0
  157.2003  139.4229  183.2431 N   0  0  0  0  0  0  0  0  0  0  0  0
  158.1106  139.5190  182.2356 C   0  0  0  0  0  0  0  0  0  0  0  0
  158.2841  140.6726  181.5476 N   0  0  0  0  0  0  0  0  0  0  0  0
  157.5552  141.7443  181.8528 C   0  0  0  0  0  0  0  0  0  0  0  0
  157.7314  142.9202  181.1529 C   0  0  0  0  0  0  0  0  0  0  0  0
  156.9412  143.9852  181.5260 C   0  0  0  0  0  0  0  0  0  0  0  0
  156.0279  143.8652  182.5466 C   0  0  0  0  0  0  0  0  0  0  0  0
  155.8850  142.7060  183.2040 N   0  0  0  0  0  0  0  0  0  0  0  0
  156.6226  141.6415  182.8864 C   0  0  0  0  0  0  0  0  0  0  0  0
  158.6974  143.0638  180.0697 C   0  0  0  0  0  0  0  0  0  0  0  0
  158.6849  142.1463  179.0064 N   0  0  0  0  0  0  0  0  0  0  0  0
  159.5506  143.9990  180.0639 O   0  0  0  0  0  0  0  0  0  0  0  0
  159.6276  141.8330  178.6402 H   0  0  0  0  0  0  0  0  0  0  0  0
  157.7957  141.8020  178.6107 H   0  0  0  0  0  0  0  0  0  0  0  0
  155.4928  140.3579  184.6489 N   0  0  0  0  0  0  0  0  0  0  0  0
  155.6223  140.9864  185.4772 H   0  0  0  0  0  0  0  0  0  0  0  0
  154.3956  139.4183  184.5983 C   0  0  0  0  0  0  0  0  0  0  0  0
  153.6702  139.5531  183.3347 C   0  0  0  0  0  0  0  0  0  0  0  0
  153.4480  140.7521  182.6933 C   0  0  0  0  0  0  0  0  0  0  0  0
  152.7577  140.8240  181.5020 C   0  0  0  0  0  0  0  0  0  0  0  0
  152.2677  139.6786  180.9189 C   0  0  0  0  0  0  0  0  0  0  0  0
  151.3871  139.7666  179.4000 Cl  0  0  0  0  0  0  0  0  0  0  0  0
  152.4773  138.4639  181.5419 C   0  0  0  0  0  0  0  0  0  0  0  0
  153.1682  138.4220  182.7280 C   0  0  0  0  0  0  0  0  0  0  0  0
  154.9203  138.0311  184.8740 C   0  0  0  0  0  0  0  0  0  0  0  0
  154.9851  136.3621  186.6115 C   0  0  0  0  0  0  0  0  0  0  0  0
  154.2151  137.3429  185.9077 N   0  0  0  0  0  0  0  0  0  0  0  0
  153.8529  138.0285  186.5823 H   0  0  0  0  0  0  0  0  0  0  0  0
 27 28  1  0  0  0
 28 26  1  0  0  0
 26 18  1  0  0  0
 18 16  1  0  0  0
 16  1  1  0  0  0
  1  2  2  0  0  0
  2  3  1  0  0  0
  3  4  2  0  0  0
  4  5  1  0  0  0
  5  6  2  0  0  0
  6 11  1  0  0  0
 11 12  1  0  0  0
 11 13  2  0  0  0
  6  7  1  0  0  0
  7  8  2  0  0  0
  8  9  1  0  0  0
  9 10  2  0  0  0
 18 19  1  0  0  0
 19 20  2  0  0  0
 20 21  1  0  0  0
 21 22  2  0  0  0
 22 23  1  0  0  0
 22 24  1  0  0  0
 24 25  2  0  0  0
 10  1  1  0  0  0
 25 19  1  0  0  0
 10  5  1  0  0  0
 28 29  1  0  0  0
 16 17  1  0  0  0
 12 14  1  0  0  0
 12 15  1  0  0  0
M  END
> <minimizedAffinity>
-6.94224

> <CNNscore>
0.3116554618

> <CNNaffinity>
5.9294013977

> <CNN_VS>
1.8479303122

> <CNNaffinity_variance>
0.1484898329

$$$$
[H]c1nc(N([H])[C@@]([H])(c2c([H])c([H])c(Cl)c([H])c2[H])C([H])([H])N([H])C([H])([H])[H])c2nc([H])c([H])c(C(=O)N([H])[H])c2n1


 29 31  0  0  0  0  0  0  0  0999 V2000
  152.6226  137.8541  183.2583 C   0  0  0  0  0  0  0  0  0  0  0  0
  151.8176  137.1727  184.0934 N   0  0  0  0  0  0  0  0  0  0  0  0
  150.4706  137.1386  183.8998 C   0  0  0  0  0  0  0  0  0  0  0  0
  149.8892  137.7867  182.8624 N   0  0  0  0  0  0  0  0  0  0  0  0
  150.6395  138.4762  182.0053 C   0  0  0  0  0  0  0  0  0  0  0  0
  150.0483  139.1365  180.9478 C   0  0  0  0  0  0  0  0  0  0  0  0
  150.8893  139.8281  180.1039 C   0  0  0  0  0  0  0  0  0  0  0  0
  152.2470  139.8489  180.3190 C   0  0  0  0  0  0  0  0  0  0  0  0
  152.7852  139.1949  181.3576 N   0  0  0  0  0  0  0  0  0  0  0  0
  152.0203  138.5088  182.2075 C   0  0  0  0  0  0  0  0  0  0  0  0
  148.6103  139.1219  180.7050 C   0  0  0  0  0  0  0  0  0  0  0  0
  148.0800  138.2424  179.7469 N   0  0  0  0  0  0  0  0  0  0  0  0
  147.8245  139.8856  181.3391 O   0  0  0  0  0  0  0  0  0  0  0  0
  147.3014  138.6200  179.1371 H   0  0  0  0  0  0  0  0  0  0  0  0
  148.4396  137.2794  179.6515 H   0  0  0  0  0  0  0  0  0  0  0  0
  154.0277  137.8776  183.4733 N   0  0  0  0  0  0  0  0  0  0  0  0
  154.6145  137.2572  182.8661 H   0  0  0  0  0  0  0  0  0  0  0  0
  154.6366  138.7152  184.4818 C   0  0  0  0  0  0  0  0  0  0  0  0
  155.0190  140.0051  183.9066 C   0  0  0  0  0  0  0  0  0  0  0  0
  154.2007  141.1132  183.8772 C   0  0  0  0  0  0  0  0  0  0  0  0
  154.6107  142.3071  183.3228 C   0  0  0  0  0  0  0  0  0  0  0  0
  155.8687  142.4181  182.7775 C   0  0  0  0  0  0  0  0  0  0  0  0
  156.3947  143.9388  182.0699 Cl  0  0  0  0  0  0  0  0  0  0  0  0
  156.7084  141.3216  182.7946 C   0  0  0  0  0  0  0  0  0  0  0  0
  156.2736  140.1449  183.3533 C   0  0  0  0  0  0  0  0  0  0  0  0
  153.7119  138.8090  185.6700 C   0  0  0  0  0  0  0  0  0  0  0  0
  155.6376  137.8703  186.7742 C   0  0  0  0  0  0  0  0  0  0  0  0
  154.2949  138.3537  186.8915 N   0  0  0  0  0  0  0  0  0  0  0  0
  154.2750  139.1172  187.5794 H   0  0  0  0  0  0  0  0  0  0  0  0
 27 28  1  0  0  0
 28 26  1  0  0  0
 26 18  1  0  0  0
 18 16  1  0  0  0
 16  1  1  0  0  0
  1  2  2  0  0  0
  2  3  1  0  0  0
  3  4  2  0  0  0
  4  5  1  0  0  0
  5  6  2  0  0  0
  6 11  1  0  0  0
 11 12  1  0  0  0
 11 13  2  0  0  0
  6  7  1  0  0  0
  7  8  2  0  0  0
  8  9  1  0  0  0
  9 10  2  0  0  0
 18 19  1  0  0  0
 19 20  2  0  0  0
 20 21  1  0  0  0
 21 22  2  0  0  0
 22 23  1  0  0  0
 22 24  1  0  0  0
 24 25  2  0  0  0
 10  1  1  0  0  0
 25 19  1  0  0  0
 10  5  1  0  0  0
 28 29  1  0  0  0
 16 17  1  0  0  0
 12 14  1  0  0  0
 12 15  1  0  0  0
M  END
> <minimizedAffinity>
-6.12775

> <CNNscore>
0.2793011367

> <CNNaffinity>
5.5176115036

> <CNN_VS>
1.5410751104

> <CNNaffinity_variance>
0.1342614591

$$$$
[H]c1nc(N([H])[C@@]([H])(c2c([H])c([H])c(Cl)c([H])c2[H])C([H])([H])N([H])C([H])([H])[H])c2nc([H])c([H])c(C(=O)N([H])[H])c2n1


 29 31  0  0  0  0  0  0  0  0999 V2000
  154.5736  140.1654  183.9562 C   0  0  0  0  0  0  0  0  0  0  0  0
  153.7447  140.6229  183.0005 N   0  0  0  0  0  0  0  0  0  0  0  0
  154.2291  141.2037  181.8687 C   0  0  0  0  0  0  0  0  0  0  0  0
  155.5600  141.3436  181.6603 N   0  0  0  0  0  0  0  0  0  0  0  0
  156.4251  140.9079  182.5739 C   0  0  0  0  0  0  0  0  0  0  0  0
  157.7812  141.0495  182.3624 C   0  0  0  0  0  0  0  0  0  0  0  0
  158.6133  140.5746  183.3522 C   0  0  0  0  0  0  0  0  0  0  0  0
  158.1017  139.9916  184.4874 C   0  0  0  0  0  0  0  0  0  0  0  0
  156.7778  139.8714  184.6576 N   0  0  0  0  0  0  0  0  0  0  0  0
  155.9242  140.3130  183.7332 C   0  0  0  0  0  0  0  0  0  0  0  0
  158.3391  141.6633  181.1629 C   0  0  0  0  0  0  0  0  0  0  0  0
  157.9565  141.1839  179.8993 N   0  0  0  0  0  0  0  0  0  0  0  0
  159.1632  142.6218  181.2323 O   0  0  0  0  0  0  0  0  0  0  0  0
  158.7186  141.1174  179.1675 H   0  0  0  0  0  0  0  0  0  0  0  0
  156.9792  140.9131  179.7062 H   0  0  0  0  0  0  0  0  0  0  0  0
  154.0515  139.5591  185.1313 N   0  0  0  0  0  0  0  0  0  0  0  0
  153.4176  140.1418  185.7285 H   0  0  0  0  0  0  0  0  0  0  0  0
  154.3714  138.1988  185.5010 C   0  0  0  0  0  0  0  0  0  0  0  0
  154.6950  138.1231  186.9259 C   0  0  0  0  0  0  0  0  0  0  0  0
  153.8419  138.5117  187.9356 C   0  0  0  0  0  0  0  0  0  0  0  0
  154.1962  138.4190  189.2648 C   0  0  0  0  0  0  0  0  0  0  0  0
  155.4319  137.9273  189.6162 C   0  0  0  0  0  0  0  0  0  0  0  0
  155.8869  137.8077  191.3099 Cl  0  0  0  0  0  0  0  0  0  0  0  0
  156.3055  137.5307  188.6226 C   0  0  0  0  0  0  0  0  0  0  0  0
  155.9261  137.6344  187.3069 C   0  0  0  0  0  0  0  0  0  0  0  0
  153.2479  137.2914  185.0650 C   0  0  0  0  0  0  0  0  0  0  0  0
  152.6733  137.0992  182.7323 C   0  0  0  0  0  0  0  0  0  0  0  0
  153.4856  136.6381  183.8175 N   0  0  0  0  0  0  0  0  0  0  0  0
  154.4752  136.7483  183.5627 H   0  0  0  0  0  0  0  0  0  0  0  0
 27 28  1  0  0  0
 28 26  1  0  0  0
 26 18  1  0  0  0
 18 16  1  0  0  0
 16  1  1  0  0  0
  1  2  2  0  0  0
  2  3  1  0  0  0
  3  4  2  0  0  0
  4  5  1  0  0  0
  5  6  2  0  0  0
  6 11  1  0  0  0
 11 12  1  0  0  0
 11 13  2  0  0  0
  6  7  1  0  0  0
  7  8  2  0  0  0
  8  9  1  0  0  0
  9 10  2  0  0  0
 18 19  1  0  0  0
 19 20  2  0  0  0
 20 21  1  0  0  0
 21 22  2  0  0  0
 22 23  1  0  0  0
 22 24  1  0  0  0
 24 25  2  0  0  0
 10  1  1  0  0  0
 25 19  1  0  0  0
 10  5  1  0  0  0
 28 29  1  0  0  0
 16 17  1  0  0  0
 12 14  1  0  0  0
 12 15  1  0  0  0
M  END
> <minimizedAffinity>
-7.23643

> <CNNscore>
0.2780270278

> <CNNaffinity>
5.8265767097

> <CNN_VS>
1.6199457645

> <CNNaffinity_variance>
0.0193230771

$$$$
[H]c1nc(N([H])[C@@]([H])(c2c([H])c([H])c(Cl)c([H])c2[H])C([H])([H])N([H])C([H])([H])[H])c2nc([H])c([H])c(C(=O)N([H])[H])c2n1


 29 31  0  0  0  0  0  0  0  0999 V2000
  154.7510  138.2321  184.5383 C   0  0  0  0  0  0  0  0  0  0  0  0
  155.8794  138.5616  185.1924 N   0  0  0  0  0  0  0  0  0  0  0  0
  156.4917  139.7585  184.9793 C   0  0  0  0  0  0  0  0  0  0  0  0
  155.9911  140.6623  184.1036 N   0  0  0  0  0  0  0  0  0  0  0  0
  154.8762  140.3873  183.4296 C   0  0  0  0  0  0  0  0  0  0  0  0
  154.3650  141.3075  182.5375 C   0  0  0  0  0  0  0  0  0  0  0  0
  153.2090  140.9519  181.8781 C   0  0  0  0  0  0  0  0  0  0  0  0
  152.6078  139.7372  182.1090 C   0  0  0  0  0  0  0  0  0  0  0  0
  153.1341  138.8687  182.9836 N   0  0  0  0  0  0  0  0  0  0  0  0
  154.2515  139.1587  183.6509 C   0  0  0  0  0  0  0  0  0  0  0  0
  154.9897  142.6006  182.2836 C   0  0  0  0  0  0  0  0  0  0  0  0
  156.3512  142.6556  181.9433 N   0  0  0  0  0  0  0  0  0  0  0  0
  154.3324  143.6798  182.3625 O   0  0  0  0  0  0  0  0  0  0  0  0
  156.9147  143.4434  182.3707 H   0  0  0  0  0  0  0  0  0  0  0  0
  156.7698  141.9576  181.3082 H   0  0  0  0  0  0  0  0  0  0  0  0
  154.1226  136.9789  184.7743 N   0  0  0  0  0  0  0  0  0  0  0  0
  154.2602  136.2319  184.0525 H   0  0  0  0  0  0  0  0  0  0  0  0
  153.3249  136.7294  185.9536 C   0  0  0  0  0  0  0  0  0  0  0  0
  154.0871  137.0543  187.1596 C   0  0  0  0  0  0  0  0  0  0  0  0
  155.1933  136.3541  187.5887 C   0  0  0  0  0  0  0  0  0  0  0  0
  155.8771  136.7028  188.7340 C   0  0  0  0  0  0  0  0  0  0  0  0
  155.4607  137.7770  189.4855 C   0  0  0  0  0  0  0  0  0  0  0  0
  156.3301  138.2244  190.9463 Cl  0  0  0  0  0  0  0  0  0  0  0  0
  154.3542  138.4956  189.0766 C   0  0  0  0  0  0  0  0  0  0  0  0
  153.6924  138.1256  187.9316 C   0  0  0  0  0  0  0  0  0  0  0  0
  152.0125  137.4622  185.8260 C   0  0  0  0  0  0  0  0  0  0  0  0
  150.2085  136.4383  187.0532 C   0  0  0  0  0  0  0  0  0  0  0  0
  150.8727  136.6024  185.7953 N   0  0  0  0  0  0  0  0  0  0  0  0
  150.1986  136.9610  185.1073 H   0  0  0  0  0  0  0  0  0  0  0  0
 27 28  1  0  0  0
 28 26  1  0  0  0
 26 18  1  0  0  0
 18 16  1  0  0  0
 16  1  1  0  0  0
  1  2  2  0  0  0
  2  3  1  0  0  0
  3  4  2  0  0  0
  4  5  1  0  0  0
  5  6  2  0  0  0
  6 11  1  0  0  0
 11 12  1  0  0  0
 11 13  2  0  0  0
  6  7  1  0  0  0
  7  8  2  0  0  0
  8  9  1  0  0  0
  9 10  2  0  0  0
 18 19  1  0  0  0
 19 20  2  0  0  0
 20 21  1  0  0  0
 21 22  2  0  0  0
 22 23  1  0  0  0
 22 24  1  0  0  0
 24 25  2  0  0  0
 10  1  1  0  0  0
 25 19  1  0  0  0
 10  5  1  0  0  0
 28 29  1  0  0  0
 16 17  1  0  0  0
 12 14  1  0  0  0
 12 15  1  0  0  0
M  END
> <minimizedAffinity>
-6.00425

> <CNNscore>
0.2658513188

> <CNNaffinity>
5.4412870407

> <CNN_VS>
1.4465733767

> <CNNaffinity_variance>
0.1135150418

$$$$
[H]c1nc(N([H])[C@@]([H])(c2c([H])c([H])c(Cl)c([H])c2[H])C([H])([H])N([H])C([H])([H])[H])c2nc([H])c([H])c(C(=O)N([H])[H])c2n1


 29 31  0  0  0  0  0  0  0  0999 V2000
  155.9226  140.2100  184.3592 C   0  0  0  0  0  0  0  0  0  0  0  0
  156.0060  139.1734  185.2125 N   0  0  0  0  0  0  0  0  0  0  0  0
  155.0819  138.1740  185.1972 C   0  0  0  0  0  0  0  0  0  0  0  0
  154.0455  138.1832  184.3254 N   0  0  0  0  0  0  0  0  0  0  0  0
  153.9153  139.1855  183.4585 C   0  0  0  0  0  0  0  0  0  0  0  0
  152.8601  139.1957  182.5696 C   0  0  0  0  0  0  0  0  0  0  0  0
  152.7924  140.2652  181.7039 C   0  0  0  0  0  0  0  0  0  0  0  0
  153.7370  141.2635  181.7375 C   0  0  0  0  0  0  0  0  0  0  0  0
  154.7485  141.2191  182.6156 N   0  0  0  0  0  0  0  0  0  0  0  0
  154.8650  140.2085  183.4776 C   0  0  0  0  0  0  0  0  0  0  0  0
  151.8518  138.1432  182.5202 C   0  0  0  0  0  0  0  0  0  0  0  0
  152.2573  136.8002  182.4529 N   0  0  0  0  0  0  0  0  0  0  0  0
  150.6146  138.4110  182.5365 O   0  0  0  0  0  0  0  0  0  0  0  0
  151.6970  136.1677  181.8151 H   0  0  0  0  0  0  0  0  0  0  0  0
  153.0624  136.4590  183.0018 H   0  0  0  0  0  0  0  0  0  0  0  0
  156.8974  141.2445  184.3866 N   0  0  0  0  0  0  0  0  0  0  0  0
  156.6459  142.1247  184.8963 H   0  0  0  0  0  0  0  0  0  0  0  0
  158.1846  141.1043  183.7440 C   0  0  0  0  0  0  0  0  0  0  0  0
  159.2472  141.5883  184.6259 C   0  0  0  0  0  0  0  0  0  0  0  0
  159.0685  141.8976  185.9565 C   0  0  0  0  0  0  0  0  0  0  0  0
  160.1051  142.3501  186.7448 C   0  0  0  0  0  0  0  0  0  0  0  0
  161.3624  142.5048  186.2086 C   0  0  0  0  0  0  0  0  0  0  0  0
  162.6864  143.0814  187.2108 Cl  0  0  0  0  0  0  0  0  0  0  0  0
  161.5677  142.2012  184.8769 C   0  0  0  0  0  0  0  0  0  0  0  0
  160.5168  141.7525  184.1152 C   0  0  0  0  0  0  0  0  0  0  0  0
  158.3541  139.6776  183.2840 C   0  0  0  0  0  0  0  0  0  0  0  0
  158.3467  140.6497  181.0787 C   0  0  0  0  0  0  0  0  0  0  0  0
  158.7396  139.5554  181.9144 N   0  0  0  0  0  0  0  0  0  0  0  0
  159.7600  139.4449  181.8602 H   0  0  0  0  0  0  0  0  0  0  0  0
 27 28  1  0  0  0
 28 26  1  0  0  0
 26 18  1  0  0  0
 18 16  1  0  0  0
 16  1  1  0  0  0
  1  2  2  0  0  0
  2  3  1  0  0  0
  3  4  2  0  0  0
  4  5  1  0  0  0
  5  6  2  0  0  0
  6 11  1  0  0  0
 11 12  1  0  0  0
 11 13  2  0  0  0
  6  7  1  0  0  0
  7  8  2  0  0  0
  8  9  1  0  0  0
  9 10  2  0  0  0
 18 19  1  0  0  0
 19 20  2  0  0  0
 20 21  1  0  0  0
 21 22  2  0  0  0
 22 23  1  0  0  0
 22 24  1  0  0  0
 24 25  2  0  0  0
 10  1  1  0  0  0
 25 19  1  0  0  0
 10  5  1  0  0  0
 28 29  1  0  0  0
 16 17  1  0  0  0
 12 14  1  0  0  0
 12 15  1  0  0  0
M  END
> <minimizedAffinity>
-8.19198

> <CNNscore>
0.2642861307

> <CNNaffinity>
6.0100507736

> <CNN_VS>
1.5883730650

> <CNNaffinity_variance>
0.0455428138

$$$$
[H]Oc1c(OC([H])([H])[H])c(OC([H])([H])[H])c2c3c1-c1c([H])c([H])c([H])c([H])c1C([H])([H])[C@@]3([H])N([H])C([H])([H])C2([H])[H]


 24 27  0  0  0  0  0  0  0  0999 V2000
  154.5146  137.5841  189.4717 C   0  0  0  0  0  0  0  0  0  0  0  0
  153.7617  137.3390  190.6118 C   0  0  0  0  0  0  0  0  0  0  0  0
  154.2426  137.9050  191.7620 O   0  0  0  0  0  0  0  0  0  0  0  0
  152.6265  136.5697  190.4920 C   0  0  0  0  0  0  0  0  0  0  0  0
  152.2284  136.0447  189.2829 C   0  0  0  0  0  0  0  0  0  0  0  0
  153.0100  136.3143  188.1641 C   0  0  0  0  0  0  0  0  0  0  0  0
  154.1454  137.0746  188.2382 C   0  0  0  0  0  0  0  0  0  0  0  0
  152.5770  135.7458  186.8759 C   0  0  0  0  0  0  0  0  0  0  0  0
  151.1112  135.6176  186.7185 C   0  0  0  0  0  0  0  0  0  0  0  0
  150.3588  135.3737  187.8754 N   0  0  0  0  0  0  0  0  0  0  0  0
  151.0780  135.1898  189.1073 C   0  0  0  0  0  0  0  0  0  0  0  0
  150.1017  135.1882  190.2122 C   0  0  0  0  0  0  0  0  0  0  0  0
  150.6009  135.6272  191.5183 C   0  0  0  0  0  0  0  0  0  0  0  0
  149.8240  135.3545  192.6590 C   0  0  0  0  0  0  0  0  0  0  0  0
  150.1891  135.7757  193.9011 C   0  0  0  0  0  0  0  0  0  0  0  0
  151.3517  136.4820  194.0034 C   0  0  0  0  0  0  0  0  0  0  0  0
  152.1728  136.7872  192.9090 C   0  0  0  0  0  0  0  0  0  0  0  0
  151.7850  136.3522  191.6718 C   0  0  0  0  0  0  0  0  0  0  0  0
  155.0668  138.4619  191.8364 H   0  0  0  0  0  0  0  0  0  0  0  0
  149.7102  134.5431  187.7805 H   0  0  0  0  0  0  0  0  0  0  0  0
  156.9363  137.8722  189.8603 C   0  0  0  0  0  0  0  0  0  0  0  0
  155.6575  138.3525  189.5652 O   0  0  0  0  0  0  0  0  0  0  0  0
  154.8949  137.3181  187.0963 O   0  0  0  0  0  0  0  0  0  0  0  0
  154.6432  138.4651  186.3179 C   0  0  0  0  0  0  0  0  0  0  0  0
 21 22  1  0  0  0
 22  1  1  0  0  0
  1  2  2  0  0  0
  2  3  1  0  0  0
  2  4  1  0  0  0
  4  5  2  0  0  0
  5  6  1  0  0  0
  6  7  2  0  0  0
  7 23  1  0  0  0
 23 24  1  0  0  0
  6  8  1  0  0  0
  8  9  1  0  0  0
  9 10  1  0  0  0
 10 11  1  0  0  0
 11 12  1  0  0  0
 12 13  1  0  0  0
 13 14  2  0  0  0
 14 15  1  0  0  0
 15 16  2  0  0  0
 16 17  1  0  0  0
 17 18  2  0  0  0
  7  1  1  0  0  0
 18 13  1  0  0  0
 18  4  1  0  0  0
 11  5  1  0  0  0
  3 19  1  0  0  0
 10 20  1  0  0  0
M  END
> <minimizedAffinity>
-5.10838

> <CNNscore>
0.5515079498

> <CNNaffinity>
4.7336430550

> <CNN_VS>
2.6106417179

> <CNNaffinity_variance>
0.0572630949

$$$$
[H]Oc1c(OC([H])([H])[H])c(OC([H])([H])[H])c2c3c1-c1c([H])c([H])c([H])c([H])c1C([H])([H])[C@@]3([H])N([H])C([H])([H])C2([H])[H]


 24 27  0  0  0  0  0  0  0  0999 V2000
  154.8442  140.3470  183.2542 C   0  0  0  0  0  0  0  0  0  0  0  0
  153.8367  140.2371  182.3056 C   0  0  0  0  0  0  0  0  0  0  0  0
  153.8146  141.2270  181.3600 O   0  0  0  0  0  0  0  0  0  0  0  0
  152.9702  139.1712  182.3935 C   0  0  0  0  0  0  0  0  0  0  0  0
  153.0791  138.2260  183.3889 C   0  0  0  0  0  0  0  0  0  0  0  0
  154.1028  138.3718  184.3195 C   0  0  0  0  0  0  0  0  0  0  0  0
  154.9864  139.4155  184.2688 C   0  0  0  0  0  0  0  0  0  0  0  0
  154.2092  137.3567  185.3819 C   0  0  0  0  0  0  0  0  0  0  0  0
  153.7860  135.9964  184.9816 C   0  0  0  0  0  0  0  0  0  0  0  0
  152.7708  135.8953  184.0208 N   0  0  0  0  0  0  0  0  0  0  0  0
  152.1693  137.1180  183.5607 C   0  0  0  0  0  0  0  0  0  0  0  0
  151.3143  136.8006  182.4020 C   0  0  0  0  0  0  0  0  0  0  0  0
  151.1129  137.8795  181.4309 C   0  0  0  0  0  0  0  0  0  0  0  0
  150.0764  137.7484  180.4888 C   0  0  0  0  0  0  0  0  0  0  0  0
  149.8576  138.6787  179.5191 C   0  0  0  0  0  0  0  0  0  0  0  0
  150.6904  139.7589  179.4918 C   0  0  0  0  0  0  0  0  0  0  0  0
  151.7406  139.9517  180.4001 C   0  0  0  0  0  0  0  0  0  0  0  0
  151.9395  139.0037  181.3654 C   0  0  0  0  0  0  0  0  0  0  0  0
  154.4491  141.9948  181.3058 H   0  0  0  0  0  0  0  0  0  0  0  0
  151.9759  135.2655  184.3226 H   0  0  0  0  0  0  0  0  0  0  0  0
  155.5319  142.6617  183.7721 C   0  0  0  0  0  0  0  0  0  0  0  0
  155.7260  141.4069  183.1881 O   0  0  0  0  0  0  0  0  0  0  0  0
  155.9926  139.5215  185.2182 O   0  0  0  0  0  0  0  0  0  0  0  0
  157.3439  139.4962  184.8208 C   0  0  0  0  0  0  0  0  0  0  0  0
 21 22  1  0  0  0
 22  1  1  0  0  0
  1  2  2  0  0  0
  2  3  1  0  0  0
  2  4  1  0  0  0
  4  5  2  0  0  0
  5  6  1  0  0  0
  6  7  2  0  0  0
  7 23  1  0  0  0
 23 24  1  0  0  0
  6  8  1  0  0  0
  8  9  1  0  0  0
  9 10  1  0  0  0
 10 11  1  0  0  0
 11 12  1  0  0  0
 12 13  1  0  0  0
 13 14  2  0  0  0
 14 15  1  0  0  0
 15 16  2  0  0  0
 16 17  1  0  0  0
 17 18  2  0  0  0
  7  1  1  0  0  0
 18 13  1  0  0  0
 18  4  1  0  0  0
 11  5  1  0  0  0
  3 19  1  0  0  0
 10 20  1  0  0  0
M  END
> <minimizedAffinity>
-6.70067

> <CNNscore>
0.5388151407

> <CNNaffinity>
5.0602107048

> <CNN_VS>
2.7265181541

> <CNNaffinity_variance>
0.1102517396

$$$$
[H]Oc1c(OC([H])([H])[H])c(OC([H])([H])[H])c2c3c1-c1c([H])c([H])c([H])c([H])c1C([H])([H])[C@@]3([H])N([H])C([H])([H])C2([H])[H]


 24 27  0  0  0  0  0  0  0  0999 V2000
  154.6791  137.1820  190.4332 C   0  0  0  0  0  0  0  0  0  0  0  0
  155.0318  137.6386  189.1706 C   0  0  0  0  0  0  0  0  0  0  0  0
  156.2986  138.1471  189.0664 O   0  0  0  0  0  0  0  0  0  0  0  0
  154.1035  137.5430  188.1587 C   0  0  0  0  0  0  0  0  0  0  0  0
  152.8502  137.0130  188.3695 C   0  0  0  0  0  0  0  0  0  0  0  0
  152.5364  136.5659  189.6489 C   0  0  0  0  0  0  0  0  0  0  0  0
  153.4290  136.6414  190.6833 C   0  0  0  0  0  0  0  0  0  0  0  0
  151.1921  136.0030  189.8646 C   0  0  0  0  0  0  0  0  0  0  0  0
  150.6214  135.3001  188.6941 C   0  0  0  0  0  0  0  0  0  0  0  0
  150.9857  135.7658  187.4235 N   0  0  0  0  0  0  0  0  0  0  0  0
  151.8203  136.9354  187.3604 C   0  0  0  0  0  0  0  0  0  0  0  0
  152.2702  137.1028  185.9662 C   0  0  0  0  0  0  0  0  0  0  0  0
  153.5486  137.7939  185.7767 C   0  0  0  0  0  0  0  0  0  0  0  0
  153.8753  138.2578  184.4894 C   0  0  0  0  0  0  0  0  0  0  0  0
  155.0656  138.8603  184.2175 C   0  0  0  0  0  0  0  0  0  0  0  0
  155.9439  139.0010  185.2518 C   0  0  0  0  0  0  0  0  0  0  0  0
  155.6815  138.5629  186.5573 C   0  0  0  0  0  0  0  0  0  0  0  0
  154.4787  137.9616  186.8054 C   0  0  0  0  0  0  0  0  0  0  0  0
  156.9634  138.2104  189.8074 H   0  0  0  0  0  0  0  0  0  0  0  0
  150.1540  135.9573  186.7981 H   0  0  0  0  0  0  0  0  0  0  0  0
  156.4554  136.2455  191.8707 C   0  0  0  0  0  0  0  0  0  0  0  0
  155.5919  137.2668  191.4651 O   0  0  0  0  0  0  0  0  0  0  0  0
  153.0732  136.1832  191.9436 O   0  0  0  0  0  0  0  0  0  0  0  0
  152.4960  137.0650  192.8785 C   0  0  0  0  0  0  0  0  0  0  0  0
 21 22  1  0  0  0
 22  1  1  0  0  0
  1  2  2  0  0  0
  2  3  1  0  0  0
  2  4  1  0  0  0
  4  5  2  0  0  0
  5  6  1  0  0  0
  6  7  2  0  0  0
  7 23  1  0  0  0
 23 24  1  0  0  0
  6  8  1  0  0  0
  8  9  1  0  0  0
  9 10  1  0  0  0
 10 11  1  0  0  0
 11 12  1  0  0  0
 12 13  1  0  0  0
 13 14  2  0  0  0
 14 15  1  0  0  0
 15 16  2  0  0  0
 16 17  1  0  0  0
 17 18  2  0  0  0
  7  1  1  0  0  0
 18 13  1  0  0  0
 18  4  1  0  0  0
 11  5  1  0  0  0
  3 19  1  0  0  0
 10 20  1  0  0  0
M  END
> <minimizedAffinity>
-5.70649

> <CNNscore>
0.4983180761

> <CNNaffinity>
4.8189506531

> <CNN_VS>
2.4013702869

> <CNNaffinity_variance>
0.0867787972

$$$$
[H]Oc1c(OC([H])([H])[H])c(OC([H])([H])[H])c2c3c1-c1c([H])c([H])c([H])c([H])c1C([H])([H])[C@@]3([H])N([H])C([H])([H])C2([H])[H]


 24 27  0  0  0  0  0  0  0  0999 V2000
  152.8949  139.2304  181.8603 C   0  0  0  0  0  0  0  0  0  0  0  0
  151.8317  139.0846  180.9798 C   0  0  0  0  0  0  0  0  0  0  0  0
  151.7609  140.0264  179.9887 O   0  0  0  0  0  0  0  0  0  0  0  0
  150.9636  138.0339  181.1724 C   0  0  0  0  0  0  0  0  0  0  0  0
  151.1243  137.1380  182.2058 C   0  0  0  0  0  0  0  0  0  0  0  0
  152.2030  137.3187  183.0655 C   0  0  0  0  0  0  0  0  0  0  0  0
  153.0901  138.3489  182.9102 C   0  0  0  0  0  0  0  0  0  0  0  0
  152.3646  136.3565  184.1694 C   0  0  0  0  0  0  0  0  0  0  0  0
  151.9074  134.9827  183.8636 C   0  0  0  0  0  0  0  0  0  0  0  0
  150.8358  134.8451  182.9710 N   0  0  0  0  0  0  0  0  0  0  0  0
  150.2176  136.0500  182.4866 C   0  0  0  0  0  0  0  0  0  0  0  0
  149.2924  135.6848  181.3981 C   0  0  0  0  0  0  0  0  0  0  0  0
  149.0418  136.7163  180.3877 C   0  0  0  0  0  0  0  0  0  0  0  0
  147.9498  136.5499  179.5165 C   0  0  0  0  0  0  0  0  0  0  0  0
  147.6808  137.4333  178.5160 C   0  0  0  0  0  0  0  0  0  0  0  0
  148.5191  138.5016  178.3852 C   0  0  0  0  0  0  0  0  0  0  0  0
  149.6232  138.7278  179.2188 C   0  0  0  0  0  0  0  0  0  0  0  0
  149.8720  137.8268  180.2170 C   0  0  0  0  0  0  0  0  0  0  0  0
  152.3971  140.7837  179.8586 H   0  0  0  0  0  0  0  0  0  0  0  0
  150.0554  134.2398  183.3506 H   0  0  0  0  0  0  0  0  0  0  0  0
  153.6423  141.5536  182.2386 C   0  0  0  0  0  0  0  0  0  0  0  0
  153.7796  140.2760  181.6889 O   0  0  0  0  0  0  0  0  0  0  0  0
  154.1521  138.4909  183.7917 O   0  0  0  0  0  0  0  0  0  0  0  0
  153.9863  139.2210  184.9851 C   0  0  0  0  0  0  0  0  0  0  0  0
 21 22  1  0  0  0
 22  1  1  0  0  0
  1  2  2  0  0  0
  2  3  1  0  0  0
  2  4  1  0  0  0
  4  5  2  0  0  0
  5  6  1  0  0  0
  6  7  2  0  0  0
  7 23  1  0  0  0
 23 24  1  0  0  0
  6  8  1  0  0  0
  8  9  1  0  0  0
  9 10  1  0  0  0
 10 11  1  0  0  0
 11 12  1  0  0  0
 12 13  1  0  0  0
 13 14  2  0  0  0
 14 15  1  0  0  0
 15 16  2  0  0  0
 16 17  1  0  0  0
 17 18  2  0  0  0
  7  1  1  0  0  0
 18 13  1  0  0  0
 18  4  1  0  0  0
 11  5  1  0  0  0
  3 19  1  0  0  0
 10 20  1  0  0  0
M  END
> <minimizedAffinity>
-5.69626

> <CNNscore>
0.4897553027

> <CNNaffinity>
4.5922498703

> <CNN_VS>
2.2490787506

> <CNNaffinity_variance>
0.0156950019

$$$$
[H]Oc1c(OC([H])([H])[H])c(OC([H])([H])[H])c2c3c1-c1c([H])c([H])c([H])c([H])c1C([H])([H])[C@@]3([H])N([H])C([H])([H])C2([H])[H]


 24 27  0  0  0  0  0  0  0  0999 V2000
  150.9174  136.0630  187.9544 C   0  0  0  0  0  0  0  0  0  0  0  0
  152.1953  136.5714  188.1427 C   0  0  0  0  0  0  0  0  0  0  0  0
  152.8388  136.9706  187.0021 O   0  0  0  0  0  0  0  0  0  0  0  0
  152.6926  136.6300  189.4249 C   0  0  0  0  0  0  0  0  0  0  0  0
  151.9603  136.2000  190.5090 C   0  0  0  0  0  0  0  0  0  0  0  0
  150.6837  135.6982  190.2778 C   0  0  0  0  0  0  0  0  0  0  0  0
  150.1504  135.6225  189.0199 C   0  0  0  0  0  0  0  0  0  0  0  0
  149.9096  135.2384  191.4439 C   0  0  0  0  0  0  0  0  0  0  0  0
  150.1775  135.9812  192.6954 C   0  0  0  0  0  0  0  0  0  0  0  0
  151.4694  136.4937  192.8752 N   0  0  0  0  0  0  0  0  0  0  0  0
  152.4495  136.1896  191.8675 C   0  0  0  0  0  0  0  0  0  0  0  0
  153.6454  137.0117  192.1283 C   0  0  0  0  0  0  0  0  0  0  0  0
  154.4748  137.3358  190.9644 C   0  0  0  0  0  0  0  0  0  0  0  0
  155.7708  137.8373  191.1837 C   0  0  0  0  0  0  0  0  0  0  0  0
  156.5842  138.2140  190.1590 C   0  0  0  0  0  0  0  0  0  0  0  0
  156.0923  138.0866  188.8930 C   0  0  0  0  0  0  0  0  0  0  0  0
  154.8121  137.5938  188.6043 C   0  0  0  0  0  0  0  0  0  0  0  0
  154.0143  137.2211  189.6505 C   0  0  0  0  0  0  0  0  0  0  0  0
  152.4675  136.9240  186.0774 H   0  0  0  0  0  0  0  0  0  0  0  0
  151.8985  136.2197  193.8027 H   0  0  0  0  0  0  0  0  0  0  0  0
  149.7176  137.0239  186.0215 C   0  0  0  0  0  0  0  0  0  0  0  0
  150.3958  135.9934  186.6783 O   0  0  0  0  0  0  0  0  0  0  0  0
  148.8725  135.1147  188.8357 O   0  0  0  0  0  0  0  0  0  0  0  0
  147.7562  135.9718  188.8987 C   0  0  0  0  0  0  0  0  0  0  0  0
 21 22  1  0  0  0
 22  1  1  0  0  0
  1  2  2  0  0  0
  2  3  1  0  0  0
  2  4  1  0  0  0
  4  5  2  0  0  0
  5  6  1  0  0  0
  6  7  2  0  0  0
  7 23  1  0  0  0
 23 24  1  0  0  0
  6  8  1  0  0  0
  8  9  1  0  0  0
  9 10  1  0  0  0
 10 11  1  0  0  0
 11 12  1  0  0  0
 12 13  1  0  0  0
 13 14  2  0  0  0
 14 15  1  0  0  0
 15 16  2  0  0  0
 16 17  1  0  0  0
 17 18  2  0  0  0
  7  1  1  0  0  0
 18 13  1  0  0  0
 18  4  1  0  0  0
 11  5  1  0  0  0
  3 19  1  0  0  0
 10 20  1  0  0  0
M  END
> <minimizedAffinity>
-5.95402

> <CNNscore>
0.4798312783

> <CNNaffinity>
4.7373018265

> <CNN_VS>
2.2731056213

> <CNNaffinity_variance>
0.0576641932

$$$$
[H]Oc1c(OC([H])([H])[H])c(OC([H])([H])[H])c2c3c1-c1c([H])c([H])c([H])c([H])c1C([H])([H])[C@@]3([H])N([H])C([H])([H])C2([H])[H]


 24 27  0  0  0  0  0  0  0  0999 V2000
  153.6417  140.2565  182.6313 C   0  0  0  0  0  0  0  0  0  0  0  0
  154.2829  139.6972  183.7281 C   0  0  0  0  0  0  0  0  0  0  0  0
  155.3911  140.3728  184.1637 O   0  0  0  0  0  0  0  0  0  0  0  0
  153.7636  138.5433  184.2699 C   0  0  0  0  0  0  0  0  0  0  0  0
  152.6386  137.9399  183.7536 C   0  0  0  0  0  0  0  0  0  0  0  0
  152.0252  138.5325  182.6547 C   0  0  0  0  0  0  0  0  0  0  0  0
  152.5074  139.6796  182.0854 C   0  0  0  0  0  0  0  0  0  0  0  0
  150.8238  137.8778  182.1082 C   0  0  0  0  0  0  0  0  0  0  0  0
  149.9892  137.1808  183.1120 C   0  0  0  0  0  0  0  0  0  0  0  0
  150.6448  136.6224  184.2177 N   0  0  0  0  0  0  0  0  0  0  0  0
  152.0805  136.7032  184.2475 C   0  0  0  0  0  0  0  0  0  0  0  0
  152.5357  136.2791  185.5843 C   0  0  0  0  0  0  0  0  0  0  0  0
  153.8091  136.8409  186.0432 C   0  0  0  0  0  0  0  0  0  0  0  0
  154.4440  136.2467  187.1491 C   0  0  0  0  0  0  0  0  0  0  0  0
  155.6001  136.7407  187.6716 C   0  0  0  0  0  0  0  0  0  0  0  0
  156.1299  137.8484  187.0771 C   0  0  0  0  0  0  0  0  0  0  0  0
  155.5500  138.4885  185.9730 C   0  0  0  0  0  0  0  0  0  0  0  0
  154.3895  137.9728  185.4658 C   0  0  0  0  0  0  0  0  0  0  0  0
  155.7578  141.2095  183.7631 H   0  0  0  0  0  0  0  0  0  0  0  0
  150.3987  135.6055  184.3751 H   0  0  0  0  0  0  0  0  0  0  0  0
  153.8651  142.7126  182.5034 C   0  0  0  0  0  0  0  0  0  0  0  0
  154.1426  141.4135  182.0694 O   0  0  0  0  0  0  0  0  0  0  0  0
  151.8633  140.2361  180.9898 O   0  0  0  0  0  0  0  0  0  0  0  0
  152.1078  139.7335  179.6966 C   0  0  0  0  0  0  0  0  0  0  0  0
 21 22  1  0  0  0
 22  1  1  0  0  0
  1  2  2  0  0  0
  2  3  1  0  0  0
  2  4  1  0  0  0
  4  5  2  0  0  0
  5  6  1  0  0  0
  6  7  2  0  0  0
  7 23  1  0  0  0
 23 24  1  0  0  0
  6  8  1  0  0  0
  8  9  1  0  0  0
  9 10  1  0  0  0
 10 11  1  0  0  0
 11 12  1  0  0  0
 12 13  1  0  0  0
 13 14  2  0  0  0
 14 15  1  0  0  0
 15 16  2  0  0  0
 16 17  1  0  0  0
 17 18  2  0  0  0
  7  1  1  0  0  0
 18 13  1  0  0  0
 18  4  1  0  0  0
 11  5  1  0  0  0
  3 19  1  0  0  0
 10 20  1  0  0  0
M  END
> <minimizedAffinity>
-5.79089

> <CNNscore>
0.4633092880

> <CNNaffinity>
4.7886877060

> <CNN_VS>
2.2186434269

> <CNNaffinity_variance>
0.1360023320

$$$$
[H]Oc1c(OC([H])([H])[H])c(OC([H])([H])[H])c2c3c1-c1c([H])c([H])c([H])c([H])c1C([H])([H])[C@@]3([H])N([H])C([H])([H])C2([H])[H]


 24 27  0  0  0  0  0  0  0  0999 V2000
  150.8061  135.9061  188.1107 C   0  0  0  0  0  0  0  0  0  0  0  0
  151.8495  136.2527  188.9581 C   0  0  0  0  0  0  0  0  0  0  0  0
  151.6874  135.8819  190.2659 O   0  0  0  0  0  0  0  0  0  0  0  0
  152.9290  136.9205  188.4256 C   0  0  0  0  0  0  0  0  0  0  0  0
  152.9942  137.2485  187.0898 C   0  0  0  0  0  0  0  0  0  0  0  0
  151.9284  136.8824  186.2741 C   0  0  0  0  0  0  0  0  0  0  0  0
  150.8365  136.2173  186.7618 C   0  0  0  0  0  0  0  0  0  0  0  0
  152.0067  137.2402  184.8471 C   0  0  0  0  0  0  0  0  0  0  0  0
  153.3759  137.2471  184.2860 C   0  0  0  0  0  0  0  0  0  0  0  0
  154.4234  137.5948  185.1497 N   0  0  0  0  0  0  0  0  0  0  0  0
  154.0754  137.9923  186.4874 C   0  0  0  0  0  0  0  0  0  0  0  0
  155.3172  138.0784  187.2776 C   0  0  0  0  0  0  0  0  0  0  0  0
  155.1837  137.8555  188.7199 C   0  0  0  0  0  0  0  0  0  0  0  0
  156.2512  138.2279  189.5573 C   0  0  0  0  0  0  0  0  0  0  0  0
  156.2296  138.0048  190.9002 C   0  0  0  0  0  0  0  0  0  0  0  0
  155.1207  137.3987  191.4140 C   0  0  0  0  0  0  0  0  0  0  0  0
  154.0226  137.0035  190.6373 C   0  0  0  0  0  0  0  0  0  0  0  0
  154.0677  137.2393  189.2910 C   0  0  0  0  0  0  0  0  0  0  0  0
  150.9002  135.3970  190.6404 H   0  0  0  0  0  0  0  0  0  0  0  0
  155.0437  138.3593  184.7619 H   0  0  0  0  0  0  0  0  0  0  0  0
  148.5945  135.8356  189.2073 C   0  0  0  0  0  0  0  0  0  0  0  0
  149.7120  135.2361  188.6201 O   0  0  0  0  0  0  0  0  0  0  0  0
  149.7959  135.8718  185.9116 O   0  0  0  0  0  0  0  0  0  0  0  0
  148.7315  136.7695  185.6973 C   0  0  0  0  0  0  0  0  0  0  0  0
 21 22  1  0  0  0
 22  1  1  0  0  0
  1  2  2  0  0  0
  2  3  1  0  0  0
  2  4  1  0  0  0
  4  5  2  0  0  0
  5  6  1  0  0  0
  6  7  2  0  0  0
  7 23  1  0  0  0
 23 24  1  0  0  0
  6  8  1  0  0  0
  8  9  1  0  0  0
  9 10  1  0  0  0
 10 11  1  0  0  0
 11 12  1  0  0  0
 12 13  1  0  0  0
 13 14  2  0  0  0
 14 15  1  0  0  0
 15 16  2  0  0  0
 16 17  1  0  0  0
 17 18  2  0  0  0
  7  1  1  0  0  0
 18 13  1  0  0  0
 18  4  1  0  0  0
 11  5  1  0  0  0
  3 19  1  0  0  0
 10 20  1  0  0  0
M  END
> <minimizedAffinity>
-5.37639

> <CNNscore>
0.4512682557

> <CNNaffinity>
4.7845325470

> <CNN_VS>
2.1591076851

> <CNNaffinity_variance>
0.0355759785

$$$$
[H]Oc1c(OC([H])([H])[H])c(OC([H])([H])[H])c2c3c1-c1c([H])c([H])c([H])c([H])c1C([H])([H])[C@@]3([H])N([H])C([H])([H])C2([H])[H]


 24 27  0  0  0  0  0  0  0  0999 V2000
  151.5439  136.8341  186.7306 C   0  0  0  0  0  0  0  0  0  0  0  0
  152.7347  137.1959  187.3456 C   0  0  0  0  0  0  0  0  0  0  0  0
  153.6398  137.8305  186.5379 O   0  0  0  0  0  0  0  0  0  0  0  0
  152.8990  136.8948  188.6787 C   0  0  0  0  0  0  0  0  0  0  0  0
  151.9220  136.2505  189.4043 C   0  0  0  0  0  0  0  0  0  0  0  0
  150.7431  135.9058  188.7512 C   0  0  0  0  0  0  0  0  0  0  0  0
  150.5379  136.1865  187.4277 C   0  0  0  0  0  0  0  0  0  0  0  0
  149.7052  135.2144  189.5356 C   0  0  0  0  0  0  0  0  0  0  0  0
  149.6538  135.5960  190.9644 C   0  0  0  0  0  0  0  0  0  0  0  0
  150.8602  135.9631  191.5760 N   0  0  0  0  0  0  0  0  0  0  0  0
  152.0597  135.8639  190.7887 C   0  0  0  0  0  0  0  0  0  0  0  0
  153.1524  136.5152  191.5342 C   0  0  0  0  0  0  0  0  0  0  0  0
  154.2436  137.0716  190.7294 C   0  0  0  0  0  0  0  0  0  0  0  0
  155.4441  137.4177  191.3760 C   0  0  0  0  0  0  0  0  0  0  0  0
  156.4852  137.9904  190.7114 C   0  0  0  0  0  0  0  0  0  0  0  0
  156.3221  138.2206  189.3767 C   0  0  0  0  0  0  0  0  0  0  0  0
  155.1541  137.8995  188.6713 C   0  0  0  0  0  0  0  0  0  0  0  0
  154.1227  137.3242  189.3609 C   0  0  0  0  0  0  0  0  0  0  0  0
  153.5090  138.0442  185.5724 H   0  0  0  0  0  0  0  0  0  0  0  0
  151.0468  135.4356  192.4740 H   0  0  0  0  0  0  0  0  0  0  0  0
  151.5908  136.2479  184.3321 C   0  0  0  0  0  0  0  0  0  0  0  0
  151.3546  137.1245  185.3945 O   0  0  0  0  0  0  0  0  0  0  0  0
  149.3461  135.8241  186.8167 O   0  0  0  0  0  0  0  0  0  0  0  0
  148.3062  136.7652  186.6837 C   0  0  0  0  0  0  0  0  0  0  0  0
 21 22  1  0  0  0
 22  1  1  0  0  0
  1  2  2  0  0  0
  2  3  1  0  0  0
  2  4  1  0  0  0
  4  5  2  0  0  0
  5  6  1  0  0  0
  6  7  2  0  0  0
  7 23  1  0  0  0
 23 24  1  0  0  0
  6  8  1  0  0  0
  8  9  1  0  0  0
  9 10  1  0  0  0
 10 11  1  0  0  0
 11 12  1  0  0  0
 12 13  1  0  0  0
 13 14  2  0  0  0
 14 15  1  0  0  0
 15 16  2  0  0  0
 16 17  1  0  0  0
 17 18  2  0  0  0
  7  1  1  0  0  0
 18 13  1  0  0  0
 18  4  1  0  0  0
 11  5  1  0  0  0
  3 19  1  0  0  0
 10 20  1  0  0  0
M  END
> <minimizedAffinity>
-5.48644

> <CNNscore>
0.4347519875

> <CNNaffinity>
4.6536436081

> <CNN_VS>
2.0231807232

> <CNNaffinity_variance>
0.0283380859

$$$$
[H]Oc1c(OC([H])([H])[H])c(OC([H])([H])[H])c2c3c1-c1c([H])c([H])c([H])c([H])c1C([H])([H])[C@@]3([H])N([H])C([H])([H])C2([H])[H]


 24 27  0  0  0  0  0  0  0  0999 V2000
  151.9789  138.2015  181.6781 C   0  0  0  0  0  0  0  0  0  0  0  0
  152.8902  138.3084  182.7198 C   0  0  0  0  0  0  0  0  0  0  0  0
  154.0804  138.9022  182.3958 O   0  0  0  0  0  0  0  0  0  0  0  0
  152.5290  137.8225  183.9560 C   0  0  0  0  0  0  0  0  0  0  0  0
  151.3012  137.2398  184.1778 C   0  0  0  0  0  0  0  0  0  0  0  0
  150.4163  137.1527  183.1079 C   0  0  0  0  0  0  0  0  0  0  0  0
  150.7343  137.6234  181.8630 C   0  0  0  0  0  0  0  0  0  0  0  0
  149.1064  136.5253  183.3549 C   0  0  0  0  0  0  0  0  0  0  0  0
  148.5713  136.7285  184.7195 C   0  0  0  0  0  0  0  0  0  0  0  0
  149.4988  136.8388  185.7643 N   0  0  0  0  0  0  0  0  0  0  0  0
  150.8889  136.6673  185.4376 C   0  0  0  0  0  0  0  0  0  0  0  0
  151.6877  137.0562  186.6144 C   0  0  0  0  0  0  0  0  0  0  0  0
  153.0423  137.5461  186.3445 C   0  0  0  0  0  0  0  0  0  0  0  0
  153.9498  137.6322  187.4161 C   0  0  0  0  0  0  0  0  0  0  0  0
  155.2083  138.1278  187.2608 C   0  0  0  0  0  0  0  0  0  0  0  0
  155.5649  138.5442  186.0116 C   0  0  0  0  0  0  0  0  0  0  0  0
  154.7112  138.4853  184.9013 C   0  0  0  0  0  0  0  0  0  0  0  0
  153.4524  137.9827  185.0825 C   0  0  0  0  0  0  0  0  0  0  0  0
  154.3307  139.2517  181.4956 H   0  0  0  0  0  0  0  0  0  0  0  0
  149.2969  136.1817  186.5687 H   0  0  0  0  0  0  0  0  0  0  0  0
  152.0177  139.9558  179.9405 C   0  0  0  0  0  0  0  0  0  0  0  0
  152.3170  138.6810  180.4287 O   0  0  0  0  0  0  0  0  0  0  0  0
  149.8205  137.5155  180.8245 O   0  0  0  0  0  0  0  0  0  0  0  0
  148.8508  138.5188  180.6303 C   0  0  0  0  0  0  0  0  0  0  0  0
 21 22  1  0  0  0
 22  1  1  0  0  0
  1  2  2  0  0  0
  2  3  1  0  0  0
  2  4  1  0  0  0
  4  5  2  0  0  0
  5  6  1  0  0  0
  6  7  2  0  0  0
  7 23  1  0  0  0
 23 24  1  0  0  0
  6  8  1  0  0  0
  8  9  1  0  0  0
  9 10  1  0  0  0
 10 11  1  0  0  0
 11 12  1  0  0  0
 12 13  1  0  0  0
 13 14  2  0  0  0
 14 15  1  0  0  0
 15 16  2  0  0  0
 16 17  1  0  0  0
 17 18  2  0  0  0
  7  1  1  0  0  0
 18 13  1  0  0  0
 18  4  1  0  0  0
 11  5  1  0  0  0
  3 19  1  0  0  0
 10 20  1  0  0  0
M  END
> <minimizedAffinity>
-4.72108

> <CNNscore>
0.4257416725

> <CNNaffinity>
4.8059496880

> <CNN_VS>
2.0460929871

> <CNNaffinity_variance>
0.2206515372

$$$$
[H]c1c([H])c([H])c(N([H])[C@@]2([H])c3c([H])c(-c4c([H])c([H])c(C(F)(F)F)c([H])c4[H])c([H])c([H])c3N(C(=O)C([H])([H])[H])[C@@]([H])(C([H])([H])[H])C2([H])[H])c([H])c1[H]


 32 35  0  0  0  0  0  0  0  0999 V2000
  152.8071  138.5974  182.2139 C   0  0  0  0  0  0  0  0  0  0  0  0
  153.5165  139.8813  182.1419 C   0  0  0  0  0  0  0  0  0  0  0  0
  153.1868  140.6750  181.1957 O   0  0  0  0  0  0  0  0  0  0  0  0
  154.5282  140.2658  183.0448 N   0  0  0  0  0  0  0  0  0  0  0  0
  154.8575  139.6456  184.2693 C   0  0  0  0  0  0  0  0  0  0  0  0
  153.8593  139.0090  184.9982 C   0  0  0  0  0  0  0  0  0  0  0  0
  154.2270  138.3515  186.1477 C   0  0  0  0  0  0  0  0  0  0  0  0
  155.5199  138.2805  186.6302 C   0  0  0  0  0  0  0  0  0  0  0  0
  156.4825  138.9259  185.8922 C   0  0  0  0  0  0  0  0  0  0  0  0
  156.1562  139.6076  184.7151 C   0  0  0  0  0  0  0  0  0  0  0  0
  157.2602  140.3133  184.0521 C   0  0  0  0  0  0  0  0  0  0  0  0
  156.8537  140.9594  182.7566 C   0  0  0  0  0  0  0  0  0  0  0  0
  155.4252  141.3831  182.6861 C   0  0  0  0  0  0  0  0  0  0  0  0
  155.0369  142.6216  183.4027 C   0  0  0  0  0  0  0  0  0  0  0  0
  155.8724  137.5360  187.8438 C   0  0  0  0  0  0  0  0  0  0  0  0
  155.6873  138.1120  189.0936 C   0  0  0  0  0  0  0  0  0  0  0  0
  155.9482  137.4482  190.2715 C   0  0  0  0  0  0  0  0  0  0  0  0
  156.4219  136.1454  190.2040 C   0  0  0  0  0  0  0  0  0  0  0  0
  156.6207  135.5423  188.9811 C   0  0  0  0  0  0  0  0  0  0  0  0
  156.3423  136.2501  187.8099 C   0  0  0  0  0  0  0  0  0  0  0  0
  156.6891  135.4342  191.5053 C   0  0  0  0  0  0  0  0  0  0  0  0
  156.9693  136.3559  192.5004 F   0  0  0  0  0  0  0  0  0  0  0  0
  157.7386  134.5701  191.4198 F   0  0  0  0  0  0  0  0  0  0  0  0
  155.4948  134.8264  191.8830 F   0  0  0  0  0  0  0  0  0  0  0  0
  157.7411  141.3544  184.9834 N   0  0  0  0  0  0  0  0  0  0  0  0
  157.0111  141.8554  185.5361 H   0  0  0  0  0  0  0  0  0  0  0  0
  159.1296  141.6463  185.0990 C   0  0  0  0  0  0  0  0  0  0  0  0
  159.9821  141.4055  184.0333 C   0  0  0  0  0  0  0  0  0  0  0  0
  161.3038  141.7561  184.1631 C   0  0  0  0  0  0  0  0  0  0  0  0
  161.8370  142.3314  185.2891 C   0  0  0  0  0  0  0  0  0  0  0  0
  160.9955  142.5774  186.3663 C   0  0  0  0  0  0  0  0  0  0  0  0
  159.6671  142.2320  186.2494 C   0  0  0  0  0  0  0  0  0  0  0  0
  1  2  1  0  0  0
  2  3  2  0  0  0
  2  4  1  0  0  0
  4  5  1  0  0  0
  5  6  2  0  0  0
  6  7  1  0  0  0
  7  8  2  0  0  0
  8 15  1  0  0  0
 15 16  2  0  0  0
 16 17  1  0  0  0
 17 18  2  0  0  0
 18 21  1  0  0  0
 21 22  1  0  0  0
 21 23  1  0  0  0
 21 24  1  0  0  0
 18 19  1  0  0  0
 19 20  2  0  0  0
  8  9  1  0  0  0
  9 10  2  0  0  0
 10 11  1  0  0  0
 11 25  1  0  0  0
 25 27  1  0  0  0
 27 28  2  0  0  0
 28 29  1  0  0  0
 29 30  2  0  0  0
 30 31  1  0  0  0
 31 32  2  0  0  0
 11 12  1  0  0  0
 12 13  1  0  0  0
 13 14  1  0  0  0
 13  4  1  0  0  0
 10  5  1  0  0  0
 32 27  1  0  0  0
 20 15  1  0  0  0
 25 26  1  0  0  0
M  END
> <minimizedAffinity>
-11.15125

> <CNNscore>
0.5743851066

> <CNNaffinity>
6.5513277054

> <CNN_VS>
3.7629849911

> <CNNaffinity_variance>
0.0704630762

$$$$
[H]c1c([H])c([H])c(N([H])[C@@]2([H])c3c([H])c(-c4c([H])c([H])c(C(F)(F)F)c([H])c4[H])c([H])c([H])c3N(C(=O)C([H])([H])[H])[C@@]([H])(C([H])([H])[H])C2([H])[H])c([H])c1[H]


 32 35  0  0  0  0  0  0  0  0999 V2000
  155.4968  135.2026  186.9857 C   0  0  0  0  0  0  0  0  0  0  0  0
  154.0715  135.2962  186.6440 C   0  0  0  0  0  0  0  0  0  0  0  0
  153.2898  134.4328  187.1709 O   0  0  0  0  0  0  0  0  0  0  0  0
  153.5396  136.2691  185.7738 N   0  0  0  0  0  0  0  0  0  0  0  0
  154.1874  137.4281  185.2944 C   0  0  0  0  0  0  0  0  0  0  0  0
  155.1449  138.0488  186.0888 C   0  0  0  0  0  0  0  0  0  0  0  0
  155.8095  139.1304  185.5623 C   0  0  0  0  0  0  0  0  0  0  0  0
  155.5910  139.6448  184.2985 C   0  0  0  0  0  0  0  0  0  0  0  0
  154.6334  139.0149  183.5408 C   0  0  0  0  0  0  0  0  0  0  0  0
  153.9316  137.9099  184.0338 C   0  0  0  0  0  0  0  0  0  0  0  0
  152.8875  137.3658  183.1561 C   0  0  0  0  0  0  0  0  0  0  0  0
  152.2274  136.1367  183.7166 C   0  0  0  0  0  0  0  0  0  0  0  0
  152.1913  136.0658  185.2061 C   0  0  0  0  0  0  0  0  0  0  0  0
  151.1907  136.9012  185.9125 C   0  0  0  0  0  0  0  0  0  0  0  0
  156.3503  140.7800  183.7636 C   0  0  0  0  0  0  0  0  0  0  0  0
  155.7502  141.6648  182.8776 C   0  0  0  0  0  0  0  0  0  0  0  0
  156.3900  142.7782  182.3805 C   0  0  0  0  0  0  0  0  0  0  0  0
  157.6959  143.0230  182.7815 C   0  0  0  0  0  0  0  0  0  0  0  0
  158.3248  142.1650  183.6572 C   0  0  0  0  0  0  0  0  0  0  0  0
  157.6398  141.0475  184.1392 C   0  0  0  0  0  0  0  0  0  0  0  0
  158.3723  144.2535  182.2345 C   0  0  0  0  0  0  0  0  0  0  0  0
  158.6781  144.0710  180.8961 F   0  0  0  0  0  0  0  0  0  0  0  0
  159.5253  144.5507  182.8963 F   0  0  0  0  0  0  0  0  0  0  0  0
  157.4298  145.2776  182.2674 F   0  0  0  0  0  0  0  0  0  0  0  0
  151.8707  138.4216  182.9726 N   0  0  0  0  0  0  0  0  0  0  0  0
  151.5477  138.9098  183.8368 H   0  0  0  0  0  0  0  0  0  0  0  0
  151.3679  138.7346  181.6781 C   0  0  0  0  0  0  0  0  0  0  0  0
  150.1529  138.2158  181.2597 C   0  0  0  0  0  0  0  0  0  0  0  0
  149.6737  138.5892  180.0277 C   0  0  0  0  0  0  0  0  0  0  0  0
  150.3272  139.4470  179.1792 C   0  0  0  0  0  0  0  0  0  0  0  0
  151.5469  139.9739  179.5837 C   0  0  0  0  0  0  0  0  0  0  0  0
  152.0389  139.6091  180.8176 C   0  0  0  0  0  0  0  0  0  0  0  0
  1  2  1  0  0  0
  2  3  2  0  0  0
  2  4  1  0  0  0
  4  5  1  0  0  0
  5  6  2  0  0  0
  6  7  1  0  0  0
  7  8  2  0  0  0
  8 15  1  0  0  0
 15 16  2  0  0  0
 16 17  1  0  0  0
 17 18  2  0  0  0
 18 21  1  0  0  0
 21 22  1  0  0  0
 21 23  1  0  0  0
 21 24  1  0  0  0
 18 19  1  0  0  0
 19 20  2  0  0  0
  8  9  1  0  0  0
  9 10  2  0  0  0
 10 11  1  0  0  0
 11 25  1  0  0  0
 25 27  1  0  0  0
 27 28  2  0  0  0
 28 29  1  0  0  0
 29 30  2  0  0  0
 30 31  1  0  0  0
 31 32  2  0  0  0
 11 12  1  0  0  0
 12 13  1  0  0  0
 13 14  1  0  0  0
 13  4  1  0  0  0
 10  5  1  0  0  0
 32 27  1  0  0  0
 20 15  1  0  0  0
 25 26  1  0  0  0
M  END
> <minimizedAffinity>
-8.74736

> <CNNscore>
0.5251849890

> <CNNaffinity>
6.3002266884

> <CNN_VS>
3.3087844849

> <CNNaffinity_variance>
0.1708178818

$$$$
[H]c1c([H])c([H])c(N([H])[C@@]2([H])c3c([H])c(-c4c([H])c([H])c(C(F)(F)F)c([H])c4[H])c([H])c([H])c3N(C(=O)C([H])([H])[H])[C@@]([H])(C([H])([H])[H])C2([H])[H])c([H])c1[H]


 32 35  0  0  0  0  0  0  0  0999 V2000
  148.1440  133.0292  181.8746 C   0  0  0  0  0  0  0  0  0  0  0  0
  149.5585  132.8833  182.2413 C   0  0  0  0  0  0  0  0  0  0  0  0
  149.9987  131.6933  182.3969 O   0  0  0  0  0  0  0  0  0  0  0  0
  150.4317  133.9730  182.4331 N   0  0  0  0  0  0  0  0  0  0  0  0
  150.2019  135.3206  182.0811 C   0  0  0  0  0  0  0  0  0  0  0  0
  149.4011  135.6082  180.9815 C   0  0  0  0  0  0  0  0  0  0  0  0
  149.1367  136.9295  180.7108 C   0  0  0  0  0  0  0  0  0  0  0  0
  149.6129  137.9921  181.4548 C   0  0  0  0  0  0  0  0  0  0  0  0
  150.4076  137.6760  182.5302 C   0  0  0  0  0  0  0  0  0  0  0  0
  150.7036  136.3457  182.8453 C   0  0  0  0  0  0  0  0  0  0  0  0
  151.6170  136.1395  183.9766 C   0  0  0  0  0  0  0  0  0  0  0  0
  151.8304  134.6878  184.3051 C   0  0  0  0  0  0  0  0  0  0  0  0
  151.7064  133.7559  183.1470 C   0  0  0  0  0  0  0  0  0  0  0  0
  152.8393  133.6863  182.1932 C   0  0  0  0  0  0  0  0  0  0  0  0
  149.2750  139.3865  181.1501 C   0  0  0  0  0  0  0  0  0  0  0  0
  148.1535  139.9729  181.7212 C   0  0  0  0  0  0  0  0  0  0  0  0
  147.8106  141.2910  181.5182 C   0  0  0  0  0  0  0  0  0  0  0  0
  148.6225  142.0659  180.7016 C   0  0  0  0  0  0  0  0  0  0  0  0
  149.7422  141.5170  180.1154 C   0  0  0  0  0  0  0  0  0  0  0  0
  150.0552  140.1761  180.3482 C   0  0  0  0  0  0  0  0  0  0  0  0
  148.2350  143.5085  180.5033 C   0  0  0  0  0  0  0  0  0  0  0  0
  149.1796  144.1495  179.7189 F   0  0  0  0  0  0  0  0  0  0  0  0
  148.1313  144.1857  181.6806 F   0  0  0  0  0  0  0  0  0  0  0  0
  147.0620  143.5096  179.7534 F   0  0  0  0  0  0  0  0  0  0  0  0
  152.9124  136.7506  183.6151 N   0  0  0  0  0  0  0  0  0  0  0  0
  153.1969  136.6763  182.6136 H   0  0  0  0  0  0  0  0  0  0  0  0
  153.7159  137.3947  184.5978 C   0  0  0  0  0  0  0  0  0  0  0  0
  154.6621  138.3328  184.2169 C   0  0  0  0  0  0  0  0  0  0  0  0
  155.3756  138.9756  185.1991 C   0  0  0  0  0  0  0  0  0  0  0  0
  155.2110  138.7444  186.5416 C   0  0  0  0  0  0  0  0  0  0  0  0
  154.2677  137.8058  186.9391 C   0  0  0  0  0  0  0  0  0  0  0  0
  153.5439  137.1544  185.9646 C   0  0  0  0  0  0  0  0  0  0  0  0
  1  2  1  0  0  0
  2  3  2  0  0  0
  2  4  1  0  0  0
  4  5  1  0  0  0
  5  6  2  0  0  0
  6  7  1  0  0  0
  7  8  2  0  0  0
  8 15  1  0  0  0
 15 16  2  0  0  0
 16 17  1  0  0  0
 17 18  2  0  0  0
 18 21  1  0  0  0
 21 22  1  0  0  0
 21 23  1  0  0  0
 21 24  1  0  0  0
 18 19  1  0  0  0
 19 20  2  0  0  0
  8  9  1  0  0  0
  9 10  2  0  0  0
 10 11  1  0  0  0
 11 25  1  0  0  0
 25 27  1  0  0  0
 27 28  2  0  0  0
 28 29  1  0  0  0
 29 30  2  0  0  0
 30 31  1  0  0  0
 31 32  2  0  0  0
 11 12  1  0  0  0
 12 13  1  0  0  0
 13 14  1  0  0  0
 13  4  1  0  0  0
 10  5  1  0  0  0
 32 27  1  0  0  0
 20 15  1  0  0  0
 25 26  1  0  0  0
M  END
> <minimizedAffinity>
7.16799

> <CNNscore>
0.5165745020

> <CNNaffinity>
5.8807420731

> <CNN_VS>
3.0378413200

> <CNNaffinity_variance>
1.3263410330

$$$$
[H]c1c([H])c([H])c(N([H])[C@@]2([H])c3c([H])c(-c4c([H])c([H])c(C(F)(F)F)c([H])c4[H])c([H])c([H])c3N(C(=O)C([H])([H])[H])[C@@]([H])(C([H])([H])[H])C2([H])[H])c([H])c1[H]


 32 35  0  0  0  0  0  0  0  0999 V2000
  149.6553  137.2594  183.2591 C   0  0  0  0  0  0  0  0  0  0  0  0
  150.3075  136.3861  184.2434 C   0  0  0  0  0  0  0  0  0  0  0  0
  149.7070  135.2981  184.5429 O   0  0  0  0  0  0  0  0  0  0  0  0
  151.5352  136.6909  184.8651 N   0  0  0  0  0  0  0  0  0  0  0  0
  152.4476  137.7034  184.4977 C   0  0  0  0  0  0  0  0  0  0  0  0
  152.5450  138.0778  183.1622 C   0  0  0  0  0  0  0  0  0  0  0  0
  153.3880  139.1171  182.8491 C   0  0  0  0  0  0  0  0  0  0  0  0
  154.1468  139.8148  183.7693 C   0  0  0  0  0  0  0  0  0  0  0  0
  154.0349  139.4163  185.0795 C   0  0  0  0  0  0  0  0  0  0  0  0
  153.1893  138.3642  185.4463 C   0  0  0  0  0  0  0  0  0  0  0  0
  153.2070  137.9883  186.8658 C   0  0  0  0  0  0  0  0  0  0  0  0
  152.2212  136.9035  187.2009 C   0  0  0  0  0  0  0  0  0  0  0  0
  151.9241  135.9574  186.0867 C   0  0  0  0  0  0  0  0  0  0  0  0
  152.9339  134.9168  185.7776 C   0  0  0  0  0  0  0  0  0  0  0  0
  155.0065  140.9425  183.3944 C   0  0  0  0  0  0  0  0  0  0  0  0
  156.3677  140.7475  183.2015 C   0  0  0  0  0  0  0  0  0  0  0  0
  157.2196  141.7514  182.7983 C   0  0  0  0  0  0  0  0  0  0  0  0
  156.6920  143.0163  182.5791 C   0  0  0  0  0  0  0  0  0  0  0  0
  155.3463  143.2479  182.7634 C   0  0  0  0  0  0  0  0  0  0  0  0
  154.5163  142.2017  183.1718 C   0  0  0  0  0  0  0  0  0  0  0  0
  157.6403  144.0965  182.1267 C   0  0  0  0  0  0  0  0  0  0  0  0
  158.8560  143.9628  182.7766 F   0  0  0  0  0  0  0  0  0  0  0  0
  157.1613  145.3470  182.3763 F   0  0  0  0  0  0  0  0  0  0  0  0
  157.9065  143.8589  180.7810 F   0  0  0  0  0  0  0  0  0  0  0  0
  154.5715  137.5180  187.1809 N   0  0  0  0  0  0  0  0  0  0  0  0
  155.1013  137.0742  186.3987 H   0  0  0  0  0  0  0  0  0  0  0  0
  155.1114  137.6664  188.4897 C   0  0  0  0  0  0  0  0  0  0  0  0
  156.2990  137.0373  188.8276 C   0  0  0  0  0  0  0  0  0  0  0  0
  156.8180  137.2535  190.0810 C   0  0  0  0  0  0  0  0  0  0  0  0
  156.2299  138.0562  191.0258 C   0  0  0  0  0  0  0  0  0  0  0  0
  155.0383  138.6922  190.7026 C   0  0  0  0  0  0  0  0  0  0  0  0
  154.5070  138.4854  189.4485 C   0  0  0  0  0  0  0  0  0  0  0  0
  1  2  1  0  0  0
  2  3  2  0  0  0
  2  4  1  0  0  0
  4  5  1  0  0  0
  5  6  2  0  0  0
  6  7  1  0  0  0
  7  8  2  0  0  0
  8 15  1  0  0  0
 15 16  2  0  0  0
 16 17  1  0  0  0
 17 18  2  0  0  0
 18 21  1  0  0  0
 21 22  1  0  0  0
 21 23  1  0  0  0
 21 24  1  0  0  0
 18 19  1  0  0  0
 19 20  2  0  0  0
  8  9  1  0  0  0
  9 10  2  0  0  0
 10 11  1  0  0  0
 11 25  1  0  0  0
 25 27  1  0  0  0
 27 28  2  0  0  0
 28 29  1  0  0  0
 29 30  2  0  0  0
 30 31  1  0  0  0
 31 32  2  0  0  0
 11 12  1  0  0  0
 12 13  1  0  0  0
 13 14  1  0  0  0
 13  4  1  0  0  0
 10  5  1  0  0  0
 32 27  1  0  0  0
 20 15  1  0  0  0
 25 26  1  0  0  0
M  END
> <minimizedAffinity>
-9.27911

> <CNNscore>
0.4722141325

> <CNNaffinity>
6.1772713661

> <CNN_VS>
2.9169948101

> <CNNaffinity_variance>
0.1575111151

$$$$
[H]c1c([H])c([H])c(N([H])[C@@]2([H])c3c([H])c(-c4c([H])c([H])c(C(F)(F)F)c([H])c4[H])c([H])c([H])c3N(C(=O)C([H])([H])[H])[C@@]([H])(C([H])([H])[H])C2([H])[H])c([H])c1[H]


 32 35  0  0  0  0  0  0  0  0999 V2000
  154.2993  137.7299  186.7563 C   0  0  0  0  0  0  0  0  0  0  0  0
  155.4591  138.4297  186.1889 C   0  0  0  0  0  0  0  0  0  0  0  0
  156.5165  138.4778  186.9055 O   0  0  0  0  0  0  0  0  0  0  0  0
  155.4561  139.0445  184.9205 N   0  0  0  0  0  0  0  0  0  0  0  0
  154.4874  138.8960  183.9044 C   0  0  0  0  0  0  0  0  0  0  0  0
  153.7983  137.6935  183.7937 C   0  0  0  0  0  0  0  0  0  0  0  0
  152.8102  137.6078  182.8423 C   0  0  0  0  0  0  0  0  0  0  0  0
  152.4552  138.6333  181.9869 C   0  0  0  0  0  0  0  0  0  0  0  0
  153.1596  139.8061  182.1154 C   0  0  0  0  0  0  0  0  0  0  0  0
  154.1734  139.9406  183.0698 C   0  0  0  0  0  0  0  0  0  0  0  0
  154.8977  141.2181  183.0646 C   0  0  0  0  0  0  0  0  0  0  0  0
  155.9197  141.3210  184.1627 C   0  0  0  0  0  0  0  0  0  0  0  0
  156.5137  140.0222  184.5929 C   0  0  0  0  0  0  0  0  0  0  0  0
  157.5435  139.4114  183.7186 C   0  0  0  0  0  0  0  0  0  0  0  0
  151.3683  138.5091  181.0099 C   0  0  0  0  0  0  0  0  0  0  0  0
  150.4576  137.4657  181.1090 C   0  0  0  0  0  0  0  0  0  0  0  0
  149.3854  137.3223  180.2569 C   0  0  0  0  0  0  0  0  0  0  0  0
  149.2115  138.2627  179.2511 C   0  0  0  0  0  0  0  0  0  0  0  0
  150.0972  139.3101  179.1203 C   0  0  0  0  0  0  0  0  0  0  0  0
  151.1709  139.4198  180.0064 C   0  0  0  0  0  0  0  0  0  0  0  0
  148.0249  138.0929  178.3379 C   0  0  0  0  0  0  0  0  0  0  0  0
  147.6871  136.7531  178.2437 F   0  0  0  0  0  0  0  0  0  0  0  0
  148.2652  138.5591  177.0807 F   0  0  0  0  0  0  0  0  0  0  0  0
  146.9449  138.7086  178.9647 F   0  0  0  0  0  0  0  0  0  0  0  0
  155.5764  141.3354  181.7577 N   0  0  0  0  0  0  0  0  0  0  0  0
  155.2241  140.7160  180.9949 H   0  0  0  0  0  0  0  0  0  0  0  0
  156.6549  142.2460  181.5737 C   0  0  0  0  0  0  0  0  0  0  0  0
  156.5720  143.5337  182.0789 C   0  0  0  0  0  0  0  0  0  0  0  0
  157.6573  144.3629  181.9329 C   0  0  0  0  0  0  0  0  0  0  0  0
  158.8247  143.9951  181.3126 C   0  0  0  0  0  0  0  0  0  0  0  0
  158.9225  142.7082  180.7995 C   0  0  0  0  0  0  0  0  0  0  0  0
  157.8420  141.8653  180.9401 C   0  0  0  0  0  0  0  0  0  0  0  0
  1  2  1  0  0  0
  2  3  2  0  0  0
  2  4  1  0  0  0
  4  5  1  0  0  0
  5  6  2  0  0  0
  6  7  1  0  0  0
  7  8  2  0  0  0
  8 15  1  0  0  0
 15 16  2  0  0  0
 16 17  1  0  0  0
 17 18  2  0  0  0
 18 21  1  0  0  0
 21 22  1  0  0  0
 21 23  1  0  0  0
 21 24  1  0  0  0
 18 19  1  0  0  0
 19 20  2  0  0  0
  8  9  1  0  0  0
  9 10  2  0  0  0
 10 11  1  0  0  0
 11 25  1  0  0  0
 25 27  1  0  0  0
 27 28  2  0  0  0
 28 29  1  0  0  0
 29 30  2  0  0  0
 30 31  1  0  0  0
 31 32  2  0  0  0
 11 12  1  0  0  0
 12 13  1  0  0  0
 13 14  1  0  0  0
 13  4  1  0  0  0
 10  5  1  0  0  0
 32 27  1  0  0  0
 20 15  1  0  0  0
 25 26  1  0  0  0
M  END
> <minimizedAffinity>
-10.02676

> <CNNscore>
0.4568914175

> <CNNaffinity>
6.2106237411

> <CNN_VS>
2.8375806808

> <CNNaffinity_variance>
0.0790715069

$$$$
[H]c1c([H])c([H])c(N([H])[C@@]2([H])c3c([H])c(-c4c([H])c([H])c(C(F)(F)F)c([H])c4[H])c([H])c([H])c3N(C(=O)C([H])([H])[H])[C@@]([H])(C([H])([H])[H])C2([H])[H])c([H])c1[H]


 32 35  0  0  0  0  0  0  0  0999 V2000
  157.1984  132.6614  181.6596 C   0  0  0  0  0  0  0  0  0  0  0  0
  155.7772  132.6209  181.2921 C   0  0  0  0  0  0  0  0  0  0  0  0
  155.4784  132.0494  180.1884 O   0  0  0  0  0  0  0  0  0  0  0  0
  154.7507  133.1791  182.0805 N   0  0  0  0  0  0  0  0  0  0  0  0
  154.8508  133.6285  183.4149 C   0  0  0  0  0  0  0  0  0  0  0  0
  155.7568  133.0143  184.2723 C   0  0  0  0  0  0  0  0  0  0  0  0
  155.8825  133.5245  185.5423 C   0  0  0  0  0  0  0  0  0  0  0  0
  155.1697  134.6046  186.0267 C   0  0  0  0  0  0  0  0  0  0  0  0
  154.2769  135.1850  185.1585 C   0  0  0  0  0  0  0  0  0  0  0  0
  154.1150  134.7012  183.8561 C   0  0  0  0  0  0  0  0  0  0  0  0
  153.0833  135.3624  183.0467 C   0  0  0  0  0  0  0  0  0  0  0  0
  153.0163  134.8425  181.6374 C   0  0  0  0  0  0  0  0  0  0  0  0
  153.4261  133.4178  181.4723 C   0  0  0  0  0  0  0  0  0  0  0  0
  152.4608  132.3703  181.8837 C   0  0  0  0  0  0  0  0  0  0  0  0
  155.3628  135.1384  187.3792 C   0  0  0  0  0  0  0  0  0  0  0  0
  156.6106  135.6023  187.7741 C   0  0  0  0  0  0  0  0  0  0  0  0
  156.8459  136.1630  189.0096 C   0  0  0  0  0  0  0  0  0  0  0  0
  155.7868  136.2643  189.9008 C   0  0  0  0  0  0  0  0  0  0  0  0
  154.5350  135.8117  189.5447 C   0  0  0  0  0  0  0  0  0  0  0  0
  154.3385  135.2506  188.2811 C   0  0  0  0  0  0  0  0  0  0  0  0
  156.0643  136.8921  191.2423 C   0  0  0  0  0  0  0  0  0  0  0  0
  157.1238  136.2464  191.8578 F   0  0  0  0  0  0  0  0  0  0  0  0
  154.9892  136.8330  192.0766 F   0  0  0  0  0  0  0  0  0  0  0  0
  156.5083  138.1882  190.9946 F   0  0  0  0  0  0  0  0  0  0  0  0
  151.7847  135.1305  183.7116 N   0  0  0  0  0  0  0  0  0  0  0  0
  150.9604  135.6250  183.3047 H   0  0  0  0  0  0  0  0  0  0  0  0
  151.6877  134.2797  184.8487 C   0  0  0  0  0  0  0  0  0  0  0  0
  151.4283  134.8170  186.0994 C   0  0  0  0  0  0  0  0  0  0  0  0
  151.2827  133.9578  187.1612 C   0  0  0  0  0  0  0  0  0  0  0  0
  151.3809  132.5928  187.0613 C   0  0  0  0  0  0  0  0  0  0  0  0
  151.6423  132.0392  185.8147 C   0  0  0  0  0  0  0  0  0  0  0  0
  151.7892  132.8892  184.7406 C   0  0  0  0  0  0  0  0  0  0  0  0
  1  2  1  0  0  0
  2  3  2  0  0  0
  2  4  1  0  0  0
  4  5  1  0  0  0
  5  6  2  0  0  0
  6  7  1  0  0  0
  7  8  2  0  0  0
  8 15  1  0  0  0
 15 16  2  0  0  0
 16 17  1  0  0  0
 17 18  2  0  0  0
 18 21  1  0  0  0
 21 22  1  0  0  0
 21 23  1  0  0  0
 21 24  1  0  0  0
 18 19  1  0  0  0
 19 20  2  0  0  0
  8  9  1  0  0  0
  9 10  2  0  0  0
 10 11  1  0  0  0
 11 25  1  0  0  0
 25 27  1  0  0  0
 27 28  2  0  0  0
 28 29  1  0  0  0
 29 30  2  0  0  0
 30 31  1  0  0  0
 31 32  2  0  0  0
 11 12  1  0  0  0
 12 13  1  0  0  0
 13 14  1  0  0  0
 13  4  1  0  0  0
 10  5  1  0  0  0
 32 27  1  0  0  0
 20 15  1  0  0  0
 25 26  1  0  0  0
M  END
> <minimizedAffinity>
-4.67518

> <CNNscore>
0.4225412607

> <CNNaffinity>
5.3857827187

> <CNN_VS>
2.2757153511

> <CNNaffinity_variance>
0.1321741790

$$$$
[H]c1c([H])c([H])c(N([H])[C@@]2([H])c3c([H])c(-c4c([H])c([H])c(C(F)(F)F)c([H])c4[H])c([H])c([H])c3N(C(=O)C([H])([H])[H])[C@@]([H])(C([H])([H])[H])C2([H])[H])c([H])c1[H]


 32 35  0  0  0  0  0  0  0  0999 V2000
  150.2051  138.0273  182.6717 C   0  0  0  0  0  0  0  0  0  0  0  0
  150.3697  137.0186  183.7263 C   0  0  0  0  0  0  0  0  0  0  0  0
  149.4676  136.1171  183.8140 O   0  0  0  0  0  0  0  0  0  0  0  0
  151.4499  137.0047  184.6316 N   0  0  0  0  0  0  0  0  0  0  0  0
  152.6429  137.7545  184.5454 C   0  0  0  0  0  0  0  0  0  0  0  0
  153.1443  138.0913  183.2932 C   0  0  0  0  0  0  0  0  0  0  0  0
  154.2656  138.8845  183.2454 C   0  0  0  0  0  0  0  0  0  0  0  0
  154.9303  139.3693  184.3556 C   0  0  0  0  0  0  0  0  0  0  0  0
  154.4153  139.0127  185.5786 C   0  0  0  0  0  0  0  0  0  0  0  0
  153.2755  138.2078  185.6772 C   0  0  0  0  0  0  0  0  0  0  0  0
  152.8618  137.8406  187.0375 C   0  0  0  0  0  0  0  0  0  0  0  0
  151.5899  137.0394  187.0711 C   0  0  0  0  0  0  0  0  0  0  0  0
  151.3446  136.1977  185.8642 C   0  0  0  0  0  0  0  0  0  0  0  0
  152.1127  134.9361  185.7354 C   0  0  0  0  0  0  0  0  0  0  0  0
  156.1037  140.2437  184.2569 C   0  0  0  0  0  0  0  0  0  0  0  0
  157.2955  139.8833  184.8714 C   0  0  0  0  0  0  0  0  0  0  0  0
  158.4467  140.6325  184.7732 C   0  0  0  0  0  0  0  0  0  0  0  0
  158.4105  141.8033  184.0288 C   0  0  0  0  0  0  0  0  0  0  0  0
  157.2446  142.1943  183.4072 C   0  0  0  0  0  0  0  0  0  0  0  0
  156.0993  141.4049  183.5309 C   0  0  0  0  0  0  0  0  0  0  0  0
  159.6848  142.6010  183.9249 C   0  0  0  0  0  0  0  0  0  0  0  0
  160.0531  143.0710  185.1745 F   0  0  0  0  0  0  0  0  0  0  0  0
  159.5627  143.6695  183.0889 F   0  0  0  0  0  0  0  0  0  0  0  0
  160.6865  141.7099  183.5494 F   0  0  0  0  0  0  0  0  0  0  0  0
  153.9540  137.0419  187.6306 N   0  0  0  0  0  0  0  0  0  0  0  0
  154.1832  136.1427  187.1529 H   0  0  0  0  0  0  0  0  0  0  0  0
  154.6383  137.4912  188.7952 C   0  0  0  0  0  0  0  0  0  0  0  0
  153.9429  137.6902  189.9772 C   0  0  0  0  0  0  0  0  0  0  0  0
  154.6489  138.0663  191.0940 C   0  0  0  0  0  0  0  0  0  0  0  0
  156.0071  138.2607  191.1124 C   0  0  0  0  0  0  0  0  0  0  0  0
  156.7178  138.0669  189.9350 C   0  0  0  0  0  0  0  0  0  0  0  0
  156.0227  137.6882  188.8076 C   0  0  0  0  0  0  0  0  0  0  0  0
  1  2  1  0  0  0
  2  3  2  0  0  0
  2  4  1  0  0  0
  4  5  1  0  0  0
  5  6  2  0  0  0
  6  7  1  0  0  0
  7  8  2  0  0  0
  8 15  1  0  0  0
 15 16  2  0  0  0
 16 17  1  0  0  0
 17 18  2  0  0  0
 18 21  1  0  0  0
 21 22  1  0  0  0
 21 23  1  0  0  0
 21 24  1  0  0  0
 18 19  1  0  0  0
 19 20  2  0  0  0
  8  9  1  0  0  0
  9 10  2  0  0  0
 10 11  1  0  0  0
 11 25  1  0  0  0
 25 27  1  0  0  0
 27 28  2  0  0  0
 28 29  1  0  0  0
 29 30  2  0  0  0
 30 31  1  0  0  0
 31 32  2  0  0  0
 11 12  1  0  0  0
 12 13  1  0  0  0
 13 14  1  0  0  0
 13  4  1  0  0  0
 10  5  1  0  0  0
 32 27  1  0  0  0
 20 15  1  0  0  0
 25 26  1  0  0  0
M  END
> <minimizedAffinity>
-9.01990

> <CNNscore>
0.4221822023

> <CNNaffinity>
6.1607933044

> <CNN_VS>
2.6009771824

> <CNNaffinity_variance>
0.1721629798

$$$$
[H]c1c([H])c([H])c(N([H])[C@@]2([H])c3c([H])c(-c4c([H])c([H])c(C(F)(F)F)c([H])c4[H])c([H])c([H])c3N(C(=O)C([H])([H])[H])[C@@]([H])(C([H])([H])[H])C2([H])[H])c([H])c1[H]


 32 35  0  0  0  0  0  0  0  0999 V2000
  153.8435  134.6175  187.5201 C   0  0  0  0  0  0  0  0  0  0  0  0
  152.5085  135.0203  187.0594 C   0  0  0  0  0  0  0  0  0  0  0  0
  151.5113  134.3766  187.5341 O   0  0  0  0  0  0  0  0  0  0  0  0
  152.2827  136.0568  186.1313 N   0  0  0  0  0  0  0  0  0  0  0  0
  153.2141  137.0202  185.6875 C   0  0  0  0  0  0  0  0  0  0  0  0
  154.2243  137.4352  186.5480 C   0  0  0  0  0  0  0  0  0  0  0  0
  155.1579  138.3178  186.0600 C   0  0  0  0  0  0  0  0  0  0  0  0
  155.1614  138.8228  184.7738 C   0  0  0  0  0  0  0  0  0  0  0  0
  154.1462  138.4002  183.9500 C   0  0  0  0  0  0  0  0  0  0  0  0
  153.1737  137.5021  184.4019 C   0  0  0  0  0  0  0  0  0  0  0  0
  152.1035  137.1784  183.4498 C   0  0  0  0  0  0  0  0  0  0  0  0
  151.1377  136.1524  183.9745 C   0  0  0  0  0  0  0  0  0  0  0  0
  150.9716  136.1450  185.4569 C   0  0  0  0  0  0  0  0  0  0  0  0
  150.1380  137.2108  186.0629 C   0  0  0  0  0  0  0  0  0  0  0  0
  156.1998  139.7358  184.2844 C   0  0  0  0  0  0  0  0  0  0  0  0
  157.3941  139.8703  184.9798 C   0  0  0  0  0  0  0  0  0  0  0  0
  158.4286  140.6691  184.5465 C   0  0  0  0  0  0  0  0  0  0  0  0
  158.2663  141.3744  183.3622 C   0  0  0  0  0  0  0  0  0  0  0  0
  157.0936  141.2678  182.6467 C   0  0  0  0  0  0  0  0  0  0  0  0
  156.0692  140.4454  183.1205 C   0  0  0  0  0  0  0  0  0  0  0  0
  159.4157  142.2327  182.9007 C   0  0  0  0  0  0  0  0  0  0  0  0
  159.7564  143.1405  183.8897 F   0  0  0  0  0  0  0  0  0  0  0  0
  159.1222  142.9298  181.7679 F   0  0  0  0  0  0  0  0  0  0  0  0
  160.5171  141.3913  182.7689 F   0  0  0  0  0  0  0  0  0  0  0  0
  151.3733  138.4305  183.1641 N   0  0  0  0  0  0  0  0  0  0  0  0
  151.0340  138.9687  183.9915 H   0  0  0  0  0  0  0  0  0  0  0  0
  151.1502  138.8566  181.8243 C   0  0  0  0  0  0  0  0  0  0  0  0
  152.1377  139.5480  181.1408 C   0  0  0  0  0  0  0  0  0  0  0  0
  151.9071  139.8894  179.8304 C   0  0  0  0  0  0  0  0  0  0  0  0
  150.7527  139.5891  179.1521 C   0  0  0  0  0  0  0  0  0  0  0  0
  149.7529  138.8979  179.8241 C   0  0  0  0  0  0  0  0  0  0  0  0
  149.9713  138.5480  181.1385 C   0  0  0  0  0  0  0  0  0  0  0  0
  1  2  1  0  0  0
  2  3  2  0  0  0
  2  4  1  0  0  0
  4  5  1  0  0  0
  5  6  2  0  0  0
  6  7  1  0  0  0
  7  8  2  0  0  0
  8 15  1  0  0  0
 15 16  2  0  0  0
 16 17  1  0  0  0
 17 18  2  0  0  0
 18 21  1  0  0  0
 21 22  1  0  0  0
 21 23  1  0  0  0
 21 24  1  0  0  0
 18 19  1  0  0  0
 19 20  2  0  0  0
  8  9  1  0  0  0
  9 10  2  0  0  0
 10 11  1  0  0  0
 11 25  1  0  0  0
 25 27  1  0  0  0
 27 28  2  0  0  0
 28 29  1  0  0  0
 29 30  2  0  0  0
 30 31  1  0  0  0
 31 32  2  0  0  0
 11 12  1  0  0  0
 12 13  1  0  0  0
 13 14  1  0  0  0
 13  4  1  0  0  0
 10  5  1  0  0  0
 32 27  1  0  0  0
 20 15  1  0  0  0
 25 26  1  0  0  0
M  END
> <minimizedAffinity>
-8.55892

> <CNNscore>
0.4161202908

> <CNNaffinity>
6.0342082977

> <CNN_VS>
2.5109565258

> <CNNaffinity_variance>
0.2169139683

$$$$
[H]c1c([H])c([H])c(N([H])[C@@]2([H])c3c([H])c(-c4c([H])c([H])c(C(F)(F)F)c([H])c4[H])c([H])c([H])c3N(C(=O)C([H])([H])[H])[C@@]([H])(C([H])([H])[H])C2([H])[H])c([H])c1[H]


 32 35  0  0  0  0  0  0  0  0999 V2000
  153.9115  141.9725  184.2627 C   0  0  0  0  0  0  0  0  0  0  0  0
  154.2687  141.8937  182.8404 C   0  0  0  0  0  0  0  0  0  0  0  0
  153.3090  141.9370  181.9970 O   0  0  0  0  0  0  0  0  0  0  0  0
  155.5927  141.7672  182.3738 N   0  0  0  0  0  0  0  0  0  0  0  0
  156.7786  141.9405  183.1197 C   0  0  0  0  0  0  0  0  0  0  0  0
  156.7879  142.8378  184.1817 C   0  0  0  0  0  0  0  0  0  0  0  0
  157.9351  142.9276  184.9332 C   0  0  0  0  0  0  0  0  0  0  0  0
  159.0806  142.1892  184.7054 C   0  0  0  0  0  0  0  0  0  0  0  0
  159.0432  141.3172  183.6442 C   0  0  0  0  0  0  0  0  0  0  0  0
  157.8977  141.1907  182.8514 C   0  0  0  0  0  0  0  0  0  0  0  0
  158.0037  140.2760  181.7075 C   0  0  0  0  0  0  0  0  0  0  0  0
  156.7152  140.1324  180.9459 C   0  0  0  0  0  0  0  0  0  0  0  0
  155.8260  141.3294  180.9826 C   0  0  0  0  0  0  0  0  0  0  0  0
  156.1841  142.4814  180.1207 C   0  0  0  0  0  0  0  0  0  0  0  0
  160.2710  142.2915  185.5563 C   0  0  0  0  0  0  0  0  0  0  0  0
  160.1412  142.2991  186.9387 C   0  0  0  0  0  0  0  0  0  0  0  0
  161.2203  142.3398  187.7932 C   0  0  0  0  0  0  0  0  0  0  0  0
  162.4948  142.3794  187.2453 C   0  0  0  0  0  0  0  0  0  0  0  0
  162.6621  142.3763  185.8776 C   0  0  0  0  0  0  0  0  0  0  0  0
  161.5411  142.3329  185.0460 C   0  0  0  0  0  0  0  0  0  0  0  0
  163.6611  142.4113  188.1990 C   0  0  0  0  0  0  0  0  0  0  0  0
  164.4940  143.4751  187.8939 F   0  0  0  0  0  0  0  0  0  0  0  0
  164.4002  141.2679  188.1551 F   0  0  0  0  0  0  0  0  0  0  0  0
  163.1411  142.6920  189.4596 F   0  0  0  0  0  0  0  0  0  0  0  0
  159.0425  140.8151  180.8060 N   0  0  0  0  0  0  0  0  0  0  0  0
  159.6176  140.1138  180.2893 H   0  0  0  0  0  0  0  0  0  0  0  0
  159.2354  142.2189  180.6706 C   0  0  0  0  0  0  0  0  0  0  0  0
  159.3283  142.7900  179.4114 C   0  0  0  0  0  0  0  0  0  0  0  0
  159.4543  144.1549  179.3218 C   0  0  0  0  0  0  0  0  0  0  0  0
  159.4963  144.9934  180.4072 C   0  0  0  0  0  0  0  0  0  0  0  0
  159.4061  144.4359  181.6760 C   0  0  0  0  0  0  0  0  0  0  0  0
  159.2781  143.0682  181.7807 C   0  0  0  0  0  0  0  0  0  0  0  0
  1  2  1  0  0  0
  2  3  2  0  0  0
  2  4  1  0  0  0
  4  5  1  0  0  0
  5  6  2  0  0  0
  6  7  1  0  0  0
  7  8  2  0  0  0
  8 15  1  0  0  0
 15 16  2  0  0  0
 16 17  1  0  0  0
 17 18  2  0  0  0
 18 21  1  0  0  0
 21 22  1  0  0  0
 21 23  1  0  0  0
 21 24  1  0  0  0
 18 19  1  0  0  0
 19 20  2  0  0  0
  8  9  1  0  0  0
  9 10  2  0  0  0
 10 11  1  0  0  0
 11 25  1  0  0  0
 25 27  1  0  0  0
 27 28  2  0  0  0
 28 29  1  0  0  0
 29 30  2  0  0  0
 30 31  1  0  0  0
 31 32  2  0  0  0
 11 12  1  0  0  0
 12 13  1  0  0  0
 13 14  1  0  0  0
 13  4  1  0  0  0
 10  5  1  0  0  0
 32 27  1  0  0  0
 20 15  1  0  0  0
 25 26  1  0  0  0
M  END
> <minimizedAffinity>
2.68885

> <CNNscore>
0.4131191969

> <CNNaffinity>
6.7314658165

> <CNN_VS>
2.7808978558

> <CNNaffinity_variance>
0.4686360359

$$$$
[H]c1nc(OC2([H])C([H])([H])[C@@]3([H])N(C(=O)OC(C([H])([H])[H])(C([H])([H])[H])C([H])([H])[H])[C@]([H])(C2([H])[H])C([H])([H])C3([H])[H])c([N+](=O)[O-])c(N([H])c2c([H])c([H])c(S(=O)(=O)C([H])([H])[H])c([H])c2[H])n1


 37 40  0  0  0  0  0  0  0  0999 V2000
  151.6373  137.9923  182.8369 C   0  0  0  0  0  0  0  0  0  0  0  0
  151.9866  137.4740  184.2005 N   0  0  0  0  0  0  0  0  0  0  0  0
  153.1336  138.0728  184.9592 C   0  0  0  0  0  0  0  0  0  0  0  0
  153.9314  139.1899  184.3545 N   0  0  0  0  0  0  0  0  0  0  0  0
  153.5820  139.7082  182.9909 C   0  0  0  0  0  0  0  0  0  0  0  0
  152.4350  139.1094  182.2321 C   0  0  0  0  0  0  0  0  0  0  0  0
  152.0857  139.6277  180.8686 N   0  0  0  0  0  0  0  0  0  0  0  0
  152.7780  139.0774  179.6570 O   0  0  0  0  0  0  0  0  0  0  0  0
  151.1230  140.6601  180.3613 O   0  0  0  0  0  0  0  0  0  0  0  0
  154.3798  140.8253  182.3861 N   0  0  0  0  0  0  0  0  0  0  0  0
  153.7694  141.6950  181.3273 H   0  0  0  0  0  0  0  0  0  0  0  0
  155.7878  141.0726  182.8402 C   0  0  0  0  0  0  0  0  0  0  0  0
  156.6499  139.9232  183.2711 C   0  0  0  0  0  0  0  0  0  0  0  0
  158.0578  140.1706  183.7251 C   0  0  0  0  0  0  0  0  0  0  0  0
  158.6039  141.5676  183.7484 C   0  0  0  0  0  0  0  0  0  0  0  0
  157.7418  142.7170  183.3176 C   0  0  0  0  0  0  0  0  0  0  0  0
  156.3338  142.4696  182.8635 C   0  0  0  0  0  0  0  0  0  0  0  0
  160.0119  141.8150  184.2025 S   0  0  0  0  0  0  0  0  0  0  0  0
  161.4200  142.0625  184.6567 C   0  0  0  0  0  0  0  0  0  0  0  0
  160.5187  141.4171  182.8480 O   0  0  0  0  0  0  0  0  0  0  0  0
  159.5051  142.2130  185.5571 O   0  0  0  0  0  0  0  0  0  0  0  0
  150.4902  137.3936  182.0781 O   0  0  0  0  0  0  0  0  0  0  0  0
  150.3631  136.0570  182.0100 C   0  0  0  0  0  0  0  0  0  0  0  0
  151.6492  136.0578  181.2381 O   0  0  0  0  0  0  0  0  0  0  0  0
  149.4190  134.9821  182.4607 N   0  0  0  0  0  0  0  0  0  0  0  0
  148.1552  135.1891  183.2417 C   0  0  0  0  0  0  0  0  0  0  0  0
  147.5280  133.8464  183.4732 C   0  0  0  0  0  0  0  0  0  0  0  0
  148.4042  132.8094  182.8352 C   0  0  0  0  0  0  0  0  0  0  0  0
  149.5729  133.5113  182.2095 C   0  0  0  0  0  0  0  0  0  0  0  0
  150.6169  134.4680  181.6861 C   0  0  0  0  0  0  0  0  0  0  0  0
  150.3302  135.9035  182.0132 C   0  0  0  0  0  0  0  0  0  0  0  0
  149.0994  136.2641  182.7910 C   0  0  0  0  0  0  0  0  0  0  0  0
  150.0764  137.4926  182.3372 O   0  0  0  0  0  0  0  0  0  0  0  0
  148.4973  138.8145  182.8460 C   0  0  0  0  0  0  0  0  0  0  0  0
  149.0316  138.2433  181.5661 C   0  0  0  0  0  0  0  0  0  0  0  0
  149.5659  137.6721  180.2861 C   0  0  0  0  0  0  0  0  0  0  0  0
  147.9868  138.9941  180.7949 C   0  0  0  0  0  0  0  0  0  0  0  0
 34 35  1  0  0  0
 35 36  1  0  0  0
 35 37  1  0  0  0
 35 33  1  0  0  0
 33 23  1  0  0  0
 23 24  2  0  0  0
 23 25  1  0  0  0
 25 26  1  0  0  0
 26 27  1  0  0  0
 27 28  1  0  0  0
 28 29  1  0  0  0
 29 30  1  0  0  0
 30 31  1  0  0  0
 31 22  1  0  0  0
 22  1  1  0  0  0
  1  2  2  0  0  0
  2  3  1  0  0  0
  3  4  2  0  0  0
  4  5  1  0  0  0
  5 10  1  0  0  0
 10 12  1  0  0  0
 12 13  2  0  0  0
 13 14  1  0  0  0
 14 15  2  0  0  0
 15 18  1  0  0  0
 18 19  1  0  0  0
 18 20  2  0  0  0
 18 21  2  0  0  0
 15 16  1  0  0  0
 16 17  2  0  0  0
  5  6  2  0  0  0
  6  7  1  0  0  0
  7  8  2  0  0  0
  7  9  1  0  0  0
 31 32  1  0  0  0
 29 25  1  0  0  0
  6  1  1  0  0  0
 32 26  1  0  0  0
 17 12  1  0  0  0
 10 11  1  0  0  0
M  CHG 1   7   1
M  CHG 1   9  -1
M  END
> <minimizedAffinity>
-6.71174

> <CNNscore>
0.2761362791

> <CNNaffinity>
5.8954896927

> <CNN_VS>
1.6279585361

> <CNNaffinity_variance>
0.1651501954

$$$$
[H]c1nc(OC2([H])C([H])([H])[C@@]3([H])N(C(=O)OC(C([H])([H])[H])(C([H])([H])[H])C([H])([H])[H])[C@]([H])(C2([H])[H])C([H])([H])C3([H])[H])c([N+](=O)[O-])c(N([H])c2c([H])c([H])c(S(=O)(=O)C([H])([H])[H])c([H])c2[H])n1


 37 40  0  0  0  0  0  0  0  0999 V2000
  153.4206  136.1089  188.7172 C   0  0  0  0  0  0  0  0  0  0  0  0
  151.9233  136.1781  188.7753 N   0  0  0  0  0  0  0  0  0  0  0  0
  151.1307  136.3442  187.5127 C   0  0  0  0  0  0  0  0  0  0  0  0
  151.8353  136.4411  186.1920 N   0  0  0  0  0  0  0  0  0  0  0  0
  153.3325  136.3718  186.1339 C   0  0  0  0  0  0  0  0  0  0  0  0
  154.1252  136.2057  187.3965 C   0  0  0  0  0  0  0  0  0  0  0  0
  155.6225  136.1364  187.3383 N   0  0  0  0  0  0  0  0  0  0  0  0
  156.4284  137.3979  187.2418 O   0  0  0  0  0  0  0  0  0  0  0  0
  156.6151  135.0119  187.3541 O   0  0  0  0  0  0  0  0  0  0  0  0
  154.0371  136.4687  184.8132 N   0  0  0  0  0  0  0  0  0  0  0  0
  155.3784  135.8227  184.6296 H   0  0  0  0  0  0  0  0  0  0  0  0
  153.4004  137.2115  183.6762 C   0  0  0  0  0  0  0  0  0  0  0  0
  152.6472  136.4610  182.6182 C   0  0  0  0  0  0  0  0  0  0  0  0
  152.0105  137.2038  181.4812 C   0  0  0  0  0  0  0  0  0  0  0  0
  152.1269  138.6973  181.4023 C   0  0  0  0  0  0  0  0  0  0  0  0
  152.8801  139.4478  182.4604 C   0  0  0  0  0  0  0  0  0  0  0  0
  153.5168  138.7049  183.5973 C   0  0  0  0  0  0  0  0  0  0  0  0
  151.4902  139.4401  180.2654 S   0  0  0  0  0  0  0  0  0  0  0  0
  150.8535  140.1830  179.1283 C   0  0  0  0  0  0  0  0  0  0  0  0
  150.1822  139.4430  180.9997 O   0  0  0  0  0  0  0  0  0  0  0  0
  152.7982  139.4373  179.5310 O   0  0  0  0  0  0  0  0  0  0  0  0
  154.2134  135.9427  189.9797 O   0  0  0  0  0  0  0  0  0  0  0  0
  153.8112  135.0591  190.9095 C   0  0  0  0  0  0  0  0  0  0  0  0
  154.3361  133.9888  189.9991 O   0  0  0  0  0  0  0  0  0  0  0  0
  153.1443  135.0495  192.2531 N   0  0  0  0  0  0  0  0  0  0  0  0
  152.6830  136.2551  193.0171 C   0  0  0  0  0  0  0  0  0  0  0  0
  152.0751  135.7833  194.3048 C   0  0  0  0  0  0  0  0  0  0  0  0
  152.1608  134.2861  194.3365 C   0  0  0  0  0  0  0  0  0  0  0  0
  152.8215  133.8326  193.0685 C   0  0  0  0  0  0  0  0  0  0  0  0
  153.4982  133.6714  191.7286 C   0  0  0  0  0  0  0  0  0  0  0  0
  153.7575  134.9730  191.0293 C   0  0  0  0  0  0  0  0  0  0  0  0
  153.3499  136.2647  191.6736 C   0  0  0  0  0  0  0  0  0  0  0  0
  154.0705  136.3605  190.2103 O   0  0  0  0  0  0  0  0  0  0  0  0
  156.1093  135.9133  190.5888 C   0  0  0  0  0  0  0  0  0  0  0  0
  155.2872  137.1675  190.5544 C   0  0  0  0  0  0  0  0  0  0  0  0
  154.4651  138.4217  190.5201 C   0  0  0  0  0  0  0  0  0  0  0  0
  156.5039  137.9745  190.8986 C   0  0  0  0  0  0  0  0  0  0  0  0
 34 35  1  0  0  0
 35 36  1  0  0  0
 35 37  1  0  0  0
 35 33  1  0  0  0
 33 23  1  0  0  0
 23 24  2  0  0  0
 23 25  1  0  0  0
 25 26  1  0  0  0
 26 27  1  0  0  0
 27 28  1  0  0  0
 28 29  1  0  0  0
 29 30  1  0  0  0
 30 31  1  0  0  0
 31 22  1  0  0  0
 22  1  1  0  0  0
  1  2  2  0  0  0
  2  3  1  0  0  0
  3  4  2  0  0  0
  4  5  1  0  0  0
  5 10  1  0  0  0
 10 12  1  0  0  0
 12 13  2  0  0  0
 13 14  1  0  0  0
 14 15  2  0  0  0
 15 18  1  0  0  0
 18 19  1  0  0  0
 18 20  2  0  0  0
 18 21  2  0  0  0
 15 16  1  0  0  0
 16 17  2  0  0  0
  5  6  2  0  0  0
  6  7  1  0  0  0
  7  8  2  0  0  0
  7  9  1  0  0  0
 31 32  1  0  0  0
 29 25  1  0  0  0
  6  1  1  0  0  0
 32 26  1  0  0  0
 17 12  1  0  0  0
 10 11  1  0  0  0
M  CHG 1   7   1
M  CHG 1   9  -1
M  END
> <minimizedAffinity>
-7.13993

> <CNNscore>
0.2463430911

> <CNNaffinity>
5.5993027687

> <CNN_VS>
1.3793495893

> <CNNaffinity_variance>
0.2293773890

$$$$
[H]c1nc(OC2([H])C([H])([H])[C@@]3([H])N(C(=O)OC(C([H])([H])[H])(C([H])([H])[H])C([H])([H])[H])[C@]([H])(C2([H])[H])C([H])([H])C3([H])[H])c([N+](=O)[O-])c(N([H])c2c([H])c([H])c(S(=O)(=O)C([H])([H])[H])c([H])c2[H])n1


 37 40  0  0  0  0  0  0  0  0999 V2000
  151.3034  137.1987  183.4090 C   0  0  0  0  0  0  0  0  0  0  0  0
  151.1690  137.5908  181.9674 N   0  0  0  0  0  0  0  0  0  0  0  0
  152.1888  138.4922  181.3371 C   0  0  0  0  0  0  0  0  0  0  0  0
  153.3431  139.0016  182.1484 N   0  0  0  0  0  0  0  0  0  0  0  0
  153.4775  138.6095  183.5900 C   0  0  0  0  0  0  0  0  0  0  0  0
  152.4577  137.7081  184.2203 C   0  0  0  0  0  0  0  0  0  0  0  0
  152.5921  137.3160  185.6619 N   0  0  0  0  0  0  0  0  0  0  0  0
  153.3768  136.0937  186.0366 O   0  0  0  0  0  0  0  0  0  0  0  0
  152.0897  137.8959  186.9508 O   0  0  0  0  0  0  0  0  0  0  0  0
  154.6319  139.1189  184.4013 N   0  0  0  0  0  0  0  0  0  0  0  0
  154.9344  138.5113  185.7389 H   0  0  0  0  0  0  0  0  0  0  0  0
  155.4835  140.2358  183.8749 C   0  0  0  0  0  0  0  0  0  0  0  0
  156.9005  139.9681  183.4621 C   0  0  0  0  0  0  0  0  0  0  0  0
  157.7521  141.0851  182.9357 C   0  0  0  0  0  0  0  0  0  0  0  0
  157.1866  142.4698  182.8220 C   0  0  0  0  0  0  0  0  0  0  0  0
  155.7696  142.7375  183.2348 C   0  0  0  0  0  0  0  0  0  0  0  0
  154.9181  141.6205  183.7612 C   0  0  0  0  0  0  0  0  0  0  0  0
  158.0382  143.5868  182.2956 S   0  0  0  0  0  0  0  0  0  0  0  0
  158.8898  144.7039  181.7691 C   0  0  0  0  0  0  0  0  0  0  0  0
  159.2666  142.7553  182.5182 O   0  0  0  0  0  0  0  0  0  0  0  0
  156.8098  144.4184  182.0730 O   0  0  0  0  0  0  0  0  0  0  0  0
  150.2836  136.2973  184.0394 O   0  0  0  0  0  0  0  0  0  0  0  0
  149.3533  136.8207  184.8566 C   0  0  0  0  0  0  0  0  0  0  0  0
  149.0951  137.8311  183.7784 O   0  0  0  0  0  0  0  0  0  0  0  0
  148.7744  136.5800  186.2193 N   0  0  0  0  0  0  0  0  0  0  0  0
  149.1767  135.4901  187.1682 C   0  0  0  0  0  0  0  0  0  0  0  0
  148.3425  135.6234  188.4077 C   0  0  0  0  0  0  0  0  0  0  0  0
  147.4247  136.7956  188.2249 C   0  0  0  0  0  0  0  0  0  0  0  0
  147.6916  137.3868  186.8724 C   0  0  0  0  0  0  0  0  0  0  0  0
  148.1657  137.7612  185.4888 C   0  0  0  0  0  0  0  0  0  0  0  0
  149.2501  136.8664  184.9658 C   0  0  0  0  0  0  0  0  0  0  0  0
  149.7556  135.7309  185.8055 C   0  0  0  0  0  0  0  0  0  0  0  0
  150.4376  135.9259  184.3336 O   0  0  0  0  0  0  0  0  0  0  0  0
  151.1464  133.9353  184.5207 C   0  0  0  0  0  0  0  0  0  0  0  0
  150.0859  134.6111  183.7029 C   0  0  0  0  0  0  0  0  0  0  0  0
  149.0255  135.2870  182.8851 C   0  0  0  0  0  0  0  0  0  0  0  0
  149.7343  133.2963  183.0723 C   0  0  0  0  0  0  0  0  0  0  0  0
 34 35  1  0  0  0
 35 36  1  0  0  0
 35 37  1  0  0  0
 35 33  1  0  0  0
 33 23  1  0  0  0
 23 24  2  0  0  0
 23 25  1  0  0  0
 25 26  1  0  0  0
 26 27  1  0  0  0
 27 28  1  0  0  0
 28 29  1  0  0  0
 29 30  1  0  0  0
 30 31  1  0  0  0
 31 22  1  0  0  0
 22  1  1  0  0  0
  1  2  2  0  0  0
  2  3  1  0  0  0
  3  4  2  0  0  0
  4  5  1  0  0  0
  5 10  1  0  0  0
 10 12  1  0  0  0
 12 13  2  0  0  0
 13 14  1  0  0  0
 14 15  2  0  0  0
 15 18  1  0  0  0
 18 19  1  0  0  0
 18 20  2  0  0  0
 18 21  2  0  0  0
 15 16  1  0  0  0
 16 17  2  0  0  0
  5  6  2  0  0  0
  6  7  1  0  0  0
  7  8  2  0  0  0
  7  9  1  0  0  0
 31 32  1  0  0  0
 29 25  1  0  0  0
  6  1  1  0  0  0
 32 26  1  0  0  0
 17 12  1  0  0  0
 10 11  1  0  0  0
M  CHG 1   7   1
M  CHG 1   9  -1
M  END
> <minimizedAffinity>
-6.25935

> <CNNscore>
0.2239557654

> <CNNaffinity>
5.8185615540

> <CNN_VS>
1.3031003475

> <CNNaffinity_variance>
0.1688038260

$$$$
[H]c1nc(OC2([H])C([H])([H])[C@@]3([H])N(C(=O)OC(C([H])([H])[H])(C([H])([H])[H])C([H])([H])[H])[C@]([H])(C2([H])[H])C([H])([H])C3([H])[H])c([N+](=O)[O-])c(N([H])c2c([H])c([H])c(S(=O)(=O)C([H])([H])[H])c([H])c2[H])n1


 37 40  0  0  0  0  0  0  0  0999 V2000
  153.2915  136.5930  188.4393 C   0  0  0  0  0  0  0  0  0  0  0  0
  151.7980  136.7103  188.3645 N   0  0  0  0  0  0  0  0  0  0  0  0
  151.1327  136.9923  187.0501 C   0  0  0  0  0  0  0  0  0  0  0  0
  151.9610  137.1571  185.8103 N   0  0  0  0  0  0  0  0  0  0  0  0
  153.4545  137.0399  185.8851 C   0  0  0  0  0  0  0  0  0  0  0  0
  154.1198  136.7579  187.1995 C   0  0  0  0  0  0  0  0  0  0  0  0
  155.6133  136.6407  187.2743 N   0  0  0  0  0  0  0  0  0  0  0  0
  156.4569  137.8744  187.4027 O   0  0  0  0  0  0  0  0  0  0  0  0
  156.5705  135.4860  187.2507 O   0  0  0  0  0  0  0  0  0  0  0  0
  154.2827  137.2048  184.6454 N   0  0  0  0  0  0  0  0  0  0  0  0
  154.7693  135.9960  183.9022 H   0  0  0  0  0  0  0  0  0  0  0  0
  154.6244  138.5784  184.1488 C   0  0  0  0  0  0  0  0  0  0  0  0
  155.9509  139.1904  184.4888 C   0  0  0  0  0  0  0  0  0  0  0  0
  156.2925  140.5640  183.9923 C   0  0  0  0  0  0  0  0  0  0  0  0
  155.3074  141.3256  183.1557 C   0  0  0  0  0  0  0  0  0  0  0  0
  153.9809  140.7135  182.8158 C   0  0  0  0  0  0  0  0  0  0  0  0
  153.6393  139.3399  183.3123 C   0  0  0  0  0  0  0  0  0  0  0  0
  155.6490  142.6991  182.6592 S   0  0  0  0  0  0  0  0  0  0  0  0
  155.9906  144.0728  182.1626 C   0  0  0  0  0  0  0  0  0  0  0  0
  154.1897  142.9991  182.4850 O   0  0  0  0  0  0  0  0  0  0  0  0
  157.1084  142.3992  182.8333 O   0  0  0  0  0  0  0  0  0  0  0  0
  153.9569  136.3110  189.7537 O   0  0  0  0  0  0  0  0  0  0  0  0
  153.4068  135.4245  190.6014 C   0  0  0  0  0  0  0  0  0  0  0  0
  153.7215  134.3755  189.5764 O   0  0  0  0  0  0  0  0  0  0  0  0
  152.7587  135.3985  191.9539 N   0  0  0  0  0  0  0  0  0  0  0  0
  152.5302  136.5833  192.8450 C   0  0  0  0  0  0  0  0  0  0  0  0
  151.8555  136.1003  194.0946 C   0  0  0  0  0  0  0  0  0  0  0  0
  151.6669  134.6169  193.9757 C   0  0  0  0  0  0  0  0  0  0  0  0
  152.2251  134.1832  192.6527 C   0  0  0  0  0  0  0  0  0  0  0  0
  152.8518  134.0400  191.2867 C   0  0  0  0  0  0  0  0  0  0  0  0
  153.3392  135.3376  190.7134 C   0  0  0  0  0  0  0  0  0  0  0  0
  153.1784  136.6093  191.4925 C   0  0  0  0  0  0  0  0  0  0  0  0
  153.8942  136.7220  190.0281 O   0  0  0  0  0  0  0  0  0  0  0  0
  155.8099  135.9261  190.4713 C   0  0  0  0  0  0  0  0  0  0  0  0
  155.2030  137.2978  190.4814 C   0  0  0  0  0  0  0  0  0  0  0  0
  154.5962  138.6695  190.4915 C   0  0  0  0  0  0  0  0  0  0  0  0
  156.5119  137.8735  190.9348 C   0  0  0  0  0  0  0  0  0  0  0  0
 34 35  1  0  0  0
 35 36  1  0  0  0
 35 37  1  0  0  0
 35 33  1  0  0  0
 33 23  1  0  0  0
 23 24  2  0  0  0
 23 25  1  0  0  0
 25 26  1  0  0  0
 26 27  1  0  0  0
 27 28  1  0  0  0
 28 29  1  0  0  0
 29 30  1  0  0  0
 30 31  1  0  0  0
 31 22  1  0  0  0
 22  1  1  0  0  0
  1  2  2  0  0  0
  2  3  1  0  0  0
  3  4  2  0  0  0
  4  5  1  0  0  0
  5 10  1  0  0  0
 10 12  1  0  0  0
 12 13  2  0  0  0
 13 14  1  0  0  0
 14 15  2  0  0  0
 15 18  1  0  0  0
 18 19  1  0  0  0
 18 20  2  0  0  0
 18 21  2  0  0  0
 15 16  1  0  0  0
 16 17  2  0  0  0
  5  6  2  0  0  0
  6  7  1  0  0  0
  7  8  2  0  0  0
  7  9  1  0  0  0
 31 32  1  0  0  0
 29 25  1  0  0  0
  6  1  1  0  0  0
 32 26  1  0  0  0
 17 12  1  0  0  0
 10 11  1  0  0  0
M  CHG 1   7   1
M  CHG 1   9  -1
M  END
> <minimizedAffinity>
-7.36838

> <CNNscore>
0.2239233702

> <CNNaffinity>
5.7518100739

> <CNN_VS>
1.2879647017

> <CNNaffinity_variance>
0.3951099515

$$$$
[H]c1nc(OC2([H])C([H])([H])[C@@]3([H])N(C(=O)OC(C([H])([H])[H])(C([H])([H])[H])C([H])([H])[H])[C@]([H])(C2([H])[H])C([H])([H])C3([H])[H])c([N+](=O)[O-])c(N([H])c2c([H])c([H])c(S(=O)(=O)C([H])([H])[H])c([H])c2[H])n1


 37 40  0  0  0  0  0  0  0  0999 V2000
  153.4818  135.9966  189.0532 C   0  0  0  0  0  0  0  0  0  0  0  0
  152.0624  135.5576  188.8469 N   0  0  0  0  0  0  0  0  0  0  0  0
  151.4275  135.6836  187.4937 C   0  0  0  0  0  0  0  0  0  0  0  0
  152.2120  136.2487  186.3468 N   0  0  0  0  0  0  0  0  0  0  0  0
  153.6314  136.6877  186.5532 C   0  0  0  0  0  0  0  0  0  0  0  0
  154.2663  136.5617  187.9063 C   0  0  0  0  0  0  0  0  0  0  0  0
  155.6857  137.0007  188.1126 N   0  0  0  0  0  0  0  0  0  0  0  0
  156.8150  136.0824  187.7499 O   0  0  0  0  0  0  0  0  0  0  0  0
  156.3233  138.2506  188.6428 O   0  0  0  0  0  0  0  0  0  0  0  0
  154.4159  137.2527  185.4062 N   0  0  0  0  0  0  0  0  0  0  0  0
  155.9153  137.2489  185.4491 H   0  0  0  0  0  0  0  0  0  0  0  0
  153.7010  137.8214  184.2166 C   0  0  0  0  0  0  0  0  0  0  0  0
  153.9056  139.2574  183.8343 C   0  0  0  0  0  0  0  0  0  0  0  0
  153.1906  139.8260  182.6446 C   0  0  0  0  0  0  0  0  0  0  0  0
  152.2710  138.9587  181.8371 C   0  0  0  0  0  0  0  0  0  0  0  0
  152.0664  137.5227  182.2193 C   0  0  0  0  0  0  0  0  0  0  0  0
  152.7814  136.9541  183.4090 C   0  0  0  0  0  0  0  0  0  0  0  0
  151.5560  139.5273  180.6474 S   0  0  0  0  0  0  0  0  0  0  0  0
  150.8411  140.0960  179.4576 C   0  0  0  0  0  0  0  0  0  0  0  0
  150.2418  139.3306  181.3431 O   0  0  0  0  0  0  0  0  0  0  0  0
  152.8703  139.7240  179.9516 O   0  0  0  0  0  0  0  0  0  0  0  0
  154.1167  135.8707  190.4063 O   0  0  0  0  0  0  0  0  0  0  0  0
  153.4392  136.2636  191.4989 C   0  0  0  0  0  0  0  0  0  0  0  0
  153.5638  137.6620  190.9707 O   0  0  0  0  0  0  0  0  0  0  0  0
  152.8129  135.6640  192.7229 N   0  0  0  0  0  0  0  0  0  0  0  0
  152.7939  134.2073  193.0801 C   0  0  0  0  0  0  0  0  0  0  0  0
  152.0650  134.0588  194.3827 C   0  0  0  0  0  0  0  0  0  0  0  0
  151.6334  135.4238  194.8305 C   0  0  0  0  0  0  0  0  0  0  0  0
  152.0957  136.4159  193.8047 C   0  0  0  0  0  0  0  0  0  0  0  0
  152.6727  137.1712  192.6318 C   0  0  0  0  0  0  0  0  0  0  0  0
  153.3596  136.2888  191.6319 C   0  0  0  0  0  0  0  0  0  0  0  0
  153.4202  134.8069  191.8561 C   0  0  0  0  0  0  0  0  0  0  0  0
  154.1260  135.3813  190.4990 O   0  0  0  0  0  0  0  0  0  0  0  0
  155.9104  136.2028  191.2997 C   0  0  0  0  0  0  0  0  0  0  0  0
  155.5017  134.8552  190.7831 C   0  0  0  0  0  0  0  0  0  0  0  0
  155.0929  133.5076  190.2665 C   0  0  0  0  0  0  0  0  0  0  0  0
  156.8773  134.3290  191.0673 C   0  0  0  0  0  0  0  0  0  0  0  0
 34 35  1  0  0  0
 35 36  1  0  0  0
 35 37  1  0  0  0
 35 33  1  0  0  0
 33 23  1  0  0  0
 23 24  2  0  0  0
 23 25  1  0  0  0
 25 26  1  0  0  0
 26 27  1  0  0  0
 27 28  1  0  0  0
 28 29  1  0  0  0
 29 30  1  0  0  0
 30 31  1  0  0  0
 31 22  1  0  0  0
 22  1  1  0  0  0
  1  2  2  0  0  0
  2  3  1  0  0  0
  3  4  2  0  0  0
  4  5  1  0  0  0
  5 10  1  0  0  0
 10 12  1  0  0  0
 12 13  2  0  0  0
 13 14  1  0  0  0
 14 15  2  0  0  0
 15 18  1  0  0  0
 18 19  1  0  0  0
 18 20  2  0  0  0
 18 21  2  0  0  0
 15 16  1  0  0  0
 16 17  2  0  0  0
  5  6  2  0  0  0
  6  7  1  0  0  0
  7  8  2  0  0  0
  7  9  1  0  0  0
 31 32  1  0  0  0
 29 25  1  0  0  0
  6  1  1  0  0  0
 32 26  1  0  0  0
 17 12  1  0  0  0
 10 11  1  0  0  0
M  CHG 1   7   1
M  CHG 1   9  -1
M  END
> <minimizedAffinity>
-7.23544

> <CNNscore>
0.2171898782

> <CNNaffinity>
5.6453194618

> <CNN_VS>
1.2261062860

> <CNNaffinity_variance>
0.2022374123

$$$$
[H]c1nc(OC2([H])C([H])([H])[C@@]3([H])N(C(=O)OC(C([H])([H])[H])(C([H])([H])[H])C([H])([H])[H])[C@]([H])(C2([H])[H])C([H])([H])C3([H])[H])c([N+](=O)[O-])c(N([H])c2c([H])c([H])c(S(=O)(=O)C([H])([H])[H])c([H])c2[H])n1


 37 40  0  0  0  0  0  0  0  0999 V2000
  154.4274  135.4076  187.8911 C   0  0  0  0  0  0  0  0  0  0  0  0
  155.2940  134.2813  187.4110 N   0  0  0  0  0  0  0  0  0  0  0  0
  155.4496  134.0291  185.9406 C   0  0  0  0  0  0  0  0  0  0  0  0
  154.7388  134.9032  184.9503 N   0  0  0  0  0  0  0  0  0  0  0  0
  153.8722  136.0295  185.4304 C   0  0  0  0  0  0  0  0  0  0  0  0
  153.7166  136.2817  186.9008 C   0  0  0  0  0  0  0  0  0  0  0  0
  152.8500  137.4080  187.3809 N   0  0  0  0  0  0  0  0  0  0  0  0
  151.3885  137.1772  187.6276 O   0  0  0  0  0  0  0  0  0  0  0  0
  153.1020  138.8499  187.7090 O   0  0  0  0  0  0  0  0  0  0  0  0
  153.1613  136.9035  184.4400 N   0  0  0  0  0  0  0  0  0  0  0  0
  151.8285  136.4865  183.8928 H   0  0  0  0  0  0  0  0  0  0  0  0
  153.7834  138.1946  183.9971 C   0  0  0  0  0  0  0  0  0  0  0  0
  153.1458  138.9977  182.9024 C   0  0  0  0  0  0  0  0  0  0  0  0
  153.7679  140.2887  182.4595 C   0  0  0  0  0  0  0  0  0  0  0  0
  155.0277  140.7766  183.1113 C   0  0  0  0  0  0  0  0  0  0  0  0
  155.6654  139.9735  184.2060 C   0  0  0  0  0  0  0  0  0  0  0  0
  155.0432  138.6825  184.6489 C   0  0  0  0  0  0  0  0  0  0  0  0
  155.6498  142.0676  182.6684 S   0  0  0  0  0  0  0  0  0  0  0  0
  156.2720  143.3587  182.2255 C   0  0  0  0  0  0  0  0  0  0  0  0
  156.1981  141.3856  181.4501 O   0  0  0  0  0  0  0  0  0  0  0  0
  155.1016  142.7498  183.8866 O   0  0  0  0  0  0  0  0  0  0  0  0
  154.2717  135.6600  189.3615 O   0  0  0  0  0  0  0  0  0  0  0  0
  153.2090  135.1523  190.0097 C   0  0  0  0  0  0  0  0  0  0  0  0
  153.4798  133.8714  189.2778 O   0  0  0  0  0  0  0  0  0  0  0  0
  152.1775  135.5828  191.0100 N   0  0  0  0  0  0  0  0  0  0  0  0
  152.0725  136.9402  191.6397 C   0  0  0  0  0  0  0  0  0  0  0  0
  150.8999  136.9279  192.5751 C   0  0  0  0  0  0  0  0  0  0  0  0
  150.2802  135.5628  192.5236 C   0  0  0  0  0  0  0  0  0  0  0  0
  151.0698  134.7316  191.5563 C   0  0  0  0  0  0  0  0  0  0  0  0
  152.0307  134.1454  190.5501 C   0  0  0  0  0  0  0  0  0  0  0  0
  153.0831  135.1123  190.0946 C   0  0  0  0  0  0  0  0  0  0  0  0
  153.1040  136.5097  190.6394 C   0  0  0  0  0  0  0  0  0  0  0  0
  154.2615  136.1192  189.5542 O   0  0  0  0  0  0  0  0  0  0  0  0
  155.1349  137.9281  190.2361 C   0  0  0  0  0  0  0  0  0  0  0  0
  155.4019  136.4697  190.4634 C   0  0  0  0  0  0  0  0  0  0  0  0
  155.6689  135.0112  190.6907 C   0  0  0  0  0  0  0  0  0  0  0  0
  156.5424  136.8201  191.3725 C   0  0  0  0  0  0  0  0  0  0  0  0
 34 35  1  0  0  0
 35 36  1  0  0  0
 35 37  1  0  0  0
 35 33  1  0  0  0
 33 23  1  0  0  0
 23 24  2  0  0  0
 23 25  1  0  0  0
 25 26  1  0  0  0
 26 27  1  0  0  0
 27 28  1  0  0  0
 28 29  1  0  0  0
 29 30  1  0  0  0
 30 31  1  0  0  0
 31 22  1  0  0  0
 22  1  1  0  0  0
  1  2  2  0  0  0
  2  3  1  0  0  0
  3  4  2  0  0  0
  4  5  1  0  0  0
  5 10  1  0  0  0
 10 12  1  0  0  0
 12 13  2  0  0  0
 13 14  1  0  0  0
 14 15  2  0  0  0
 15 18  1  0  0  0
 18 19  1  0  0  0
 18 20  2  0  0  0
 18 21  2  0  0  0
 15 16  1  0  0  0
 16 17  2  0  0  0
  5  6  2  0  0  0
  6  7  1  0  0  0
  7  8  2  0  0  0
  7  9  1  0  0  0
 31 32  1  0  0  0
 29 25  1  0  0  0
  6  1  1  0  0  0
 32 26  1  0  0  0
 17 12  1  0  0  0
 10 11  1  0  0  0
M  CHG 1   7   1
M  CHG 1   9  -1
M  END
> <minimizedAffinity>
-7.00182

> <CNNscore>
0.1981066763

> <CNNaffinity>
5.5825376511

> <CNN_VS>
1.1059379578

> <CNNaffinity_variance>
0.4489514232

$$$$
[H]c1nc(OC2([H])C([H])([H])[C@@]3([H])N(C(=O)OC(C([H])([H])[H])(C([H])([H])[H])C([H])([H])[H])[C@]([H])(C2([H])[H])C([H])([H])C3([H])[H])c([N+](=O)[O-])c(N([H])c2c([H])c([H])c(S(=O)(=O)C([H])([H])[H])c([H])c2[H])n1


 37 40  0  0  0  0  0  0  0  0999 V2000
  151.8936  137.6521  183.5440 C   0  0  0  0  0  0  0  0  0  0  0  0
  152.2716  137.2905  184.9498 N   0  0  0  0  0  0  0  0  0  0  0  0
  153.4005  138.0061  185.6306 C   0  0  0  0  0  0  0  0  0  0  0  0
  154.1515  139.0833  184.9056 N   0  0  0  0  0  0  0  0  0  0  0  0
  153.7734  139.4450  183.4998 C   0  0  0  0  0  0  0  0  0  0  0  0
  152.6445  138.7294  182.8190 C   0  0  0  0  0  0  0  0  0  0  0  0
  152.2665  139.0911  181.4132 N   0  0  0  0  0  0  0  0  0  0  0  0
  152.8170  138.3024  180.2621 O   0  0  0  0  0  0  0  0  0  0  0  0
  151.3897  140.1475  180.8088 O   0  0  0  0  0  0  0  0  0  0  0  0
  154.5244  140.5223  182.7747 N   0  0  0  0  0  0  0  0  0  0  0  0
  153.8640  141.2755  181.6583 H   0  0  0  0  0  0  0  0  0  0  0  0
  155.9357  140.8462  183.1662 C   0  0  0  0  0  0  0  0  0  0  0  0
  156.5097  142.1963  182.8538 C   0  0  0  0  0  0  0  0  0  0  0  0
  157.9210  142.5201  183.2453 C   0  0  0  0  0  0  0  0  0  0  0  0
  158.7584  141.4938  183.9492 C   0  0  0  0  0  0  0  0  0  0  0  0
  158.1844  140.1436  184.2616 C   0  0  0  0  0  0  0  0  0  0  0  0
  156.7731  139.8198  183.8701 C   0  0  0  0  0  0  0  0  0  0  0  0
  160.1697  141.8176  184.3407 S   0  0  0  0  0  0  0  0  0  0  0  0
  161.5811  142.1414  184.7322 C   0  0  0  0  0  0  0  0  0  0  0  0
  159.7134  142.1174  185.7378 O   0  0  0  0  0  0  0  0  0  0  0  0
  160.6260  141.5179  182.9436 O   0  0  0  0  0  0  0  0  0  0  0  0
  150.7647  136.9366  182.8632 O   0  0  0  0  0  0  0  0  0  0  0  0
  149.6271  137.6003  182.5937 C   0  0  0  0  0  0  0  0  0  0  0  0
  149.6180  138.0027  184.0386 O   0  0  0  0  0  0  0  0  0  0  0  0
  148.7186  137.8703  181.4310 N   0  0  0  0  0  0  0  0  0  0  0  0
  148.9046  137.3654  180.0309 C   0  0  0  0  0  0  0  0  0  0  0  0
  147.7655  137.8757  179.1989 C   0  0  0  0  0  0  0  0  0  0  0  0
  146.8755  138.6959  180.0849 C   0  0  0  0  0  0  0  0  0  0  0  0
  147.4645  138.6926  181.4644 C   0  0  0  0  0  0  0  0  0  0  0  0
  148.2715  138.5161  182.7281 C   0  0  0  0  0  0  0  0  0  0  0  0
  149.4966  137.6707  182.5421 C   0  0  0  0  0  0  0  0  0  0  0  0
  149.8131  137.0954  181.1935 C   0  0  0  0  0  0  0  0  0  0  0  0
  150.8521  136.7549  182.4077 O   0  0  0  0  0  0  0  0  0  0  0  0
  149.8528  135.3984  183.6966 C   0  0  0  0  0  0  0  0  0  0  0  0
  150.7547  135.2613  182.5059 C   0  0  0  0  0  0  0  0  0  0  0  0
  151.6566  135.1242  181.3151 C   0  0  0  0  0  0  0  0  0  0  0  0
  150.6573  133.7677  182.6040 C   0  0  0  0  0  0  0  0  0  0  0  0
 34 35  1  0  0  0
 35 36  1  0  0  0
 35 37  1  0  0  0
 35 33  1  0  0  0
 33 23  1  0  0  0
 23 24  2  0  0  0
 23 25  1  0  0  0
 25 26  1  0  0  0
 26 27  1  0  0  0
 27 28  1  0  0  0
 28 29  1  0  0  0
 29 30  1  0  0  0
 30 31  1  0  0  0
 31 22  1  0  0  0
 22  1  1  0  0  0
  1  2  2  0  0  0
  2  3  1  0  0  0
  3  4  2  0  0  0
  4  5  1  0  0  0
  5 10  1  0  0  0
 10 12  1  0  0  0
 12 13  2  0  0  0
 13 14  1  0  0  0
 14 15  2  0  0  0
 15 18  1  0  0  0
 18 19  1  0  0  0
 18 20  2  0  0  0
 18 21  2  0  0  0
 15 16  1  0  0  0
 16 17  2  0  0  0
  5  6  2  0  0  0
  6  7  1  0  0  0
  7  8  2  0  0  0
  7  9  1  0  0  0
 31 32  1  0  0  0
 29 25  1  0  0  0
  6  1  1  0  0  0
 32 26  1  0  0  0
 17 12  1  0  0  0
 10 11  1  0  0  0
M  CHG 1   7   1
M  CHG 1   9  -1
M  END
> <minimizedAffinity>
-6.99464

> <CNNscore>
0.1946543455

> <CNNaffinity>
5.8508691788

> <CNN_VS>
1.1388970613

> <CNNaffinity_variance>
0.2876411080

$$$$
[H]c1nc(OC2([H])C([H])([H])[C@@]3([H])N(C(=O)OC(C([H])([H])[H])(C([H])([H])[H])C([H])([H])[H])[C@]([H])(C2([H])[H])C([H])([H])C3([H])[H])c([N+](=O)[O-])c(N([H])c2c([H])c([H])c(S(=O)(=O)C([H])([H])[H])c([H])c2[H])n1


 37 40  0  0  0  0  0  0  0  0999 V2000
  154.1010  135.2809  186.1131 C   0  0  0  0  0  0  0  0  0  0  0  0
  154.6869  134.2100  185.2415 N   0  0  0  0  0  0  0  0  0  0  0  0
  154.6000  134.3271  183.7486 C   0  0  0  0  0  0  0  0  0  0  0  0
  153.9271  135.5151  183.1274 N   0  0  0  0  0  0  0  0  0  0  0  0
  153.3412  136.5860  183.9990 C   0  0  0  0  0  0  0  0  0  0  0  0
  153.4281  136.4689  185.4919 C   0  0  0  0  0  0  0  0  0  0  0  0
  152.8422  137.5398  186.3636 N   0  0  0  0  0  0  0  0  0  0  0  0
  151.3945  137.4820  186.7521 O   0  0  0  0  0  0  0  0  0  0  0  0
  153.3941  138.7766  187.0085 O   0  0  0  0  0  0  0  0  0  0  0  0
  152.6684  137.7740  183.3778 N   0  0  0  0  0  0  0  0  0  0  0  0
  151.2224  137.6972  182.9861 H   0  0  0  0  0  0  0  0  0  0  0  0
  153.4415  139.0388  183.1483 C   0  0  0  0  0  0  0  0  0  0  0  0
  154.7593  139.2472  183.8338 C   0  0  0  0  0  0  0  0  0  0  0  0
  155.5323  140.5119  183.6042 C   0  0  0  0  0  0  0  0  0  0  0  0
  154.9875  141.5684  182.6893 C   0  0  0  0  0  0  0  0  0  0  0  0
  153.6697  141.3600  182.0038 C   0  0  0  0  0  0  0  0  0  0  0  0
  152.8967  140.0953  182.2334 C   0  0  0  0  0  0  0  0  0  0  0  0
  155.7606  142.8332  182.4597 S   0  0  0  0  0  0  0  0  0  0  0  0
  156.5336  144.0981  182.2302 C   0  0  0  0  0  0  0  0  0  0  0  0
  157.0455  142.0648  182.5530 O   0  0  0  0  0  0  0  0  0  0  0  0
  154.4757  143.6016  182.3665 O   0  0  0  0  0  0  0  0  0  0  0  0
  154.1879  135.1639  187.6060 O   0  0  0  0  0  0  0  0  0  0  0  0
  155.1093  135.8801  188.2732 C   0  0  0  0  0  0  0  0  0  0  0  0
  156.1127  135.3429  187.2962 O   0  0  0  0  0  0  0  0  0  0  0  0
  155.1933  136.8075  189.4492 N   0  0  0  0  0  0  0  0  0  0  0  0
  154.0486  137.2322  190.3205 C   0  0  0  0  0  0  0  0  0  0  0  0
  154.5844  138.1602  191.3702 C   0  0  0  0  0  0  0  0  0  0  0  0
  156.0603  138.3090  191.1475 C   0  0  0  0  0  0  0  0  0  0  0  0
  156.4366  137.4730  189.9603 C   0  0  0  0  0  0  0  0  0  0  0  0
  156.5210  136.5625  188.7589 C   0  0  0  0  0  0  0  0  0  0  0  0
  155.2008  135.9700  188.3638 C   0  0  0  0  0  0  0  0  0  0  0  0
  153.9647  136.3048  189.1446 C   0  0  0  0  0  0  0  0  0  0  0  0
  153.7893  135.2875  187.8781 O   0  0  0  0  0  0  0  0  0  0  0  0
  151.9401  134.7271  188.7536 C   0  0  0  0  0  0  0  0  0  0  0  0
  153.2752  134.0658  188.5803 C   0  0  0  0  0  0  0  0  0  0  0  0
  154.6104  133.4044  188.4069 C   0  0  0  0  0  0  0  0  0  0  0  0
  152.7612  132.8440  189.2825 C   0  0  0  0  0  0  0  0  0  0  0  0
 34 35  1  0  0  0
 35 36  1  0  0  0
 35 37  1  0  0  0
 35 33  1  0  0  0
 33 23  1  0  0  0
 23 24  2  0  0  0
 23 25  1  0  0  0
 25 26  1  0  0  0
 26 27  1  0  0  0
 27 28  1  0  0  0
 28 29  1  0  0  0
 29 30  1  0  0  0
 30 31  1  0  0  0
 31 22  1  0  0  0
 22  1  1  0  0  0
  1  2  2  0  0  0
  2  3  1  0  0  0
  3  4  2  0  0  0
  4  5  1  0  0  0
  5 10  1  0  0  0
 10 12  1  0  0  0
 12 13  2  0  0  0
 13 14  1  0  0  0
 14 15  2  0  0  0
 15 18  1  0  0  0
 18 19  1  0  0  0
 18 20  2  0  0  0
 18 21  2  0  0  0
 15 16  1  0  0  0
 16 17  2  0  0  0
  5  6  2  0  0  0
  6  7  1  0  0  0
  7  8  2  0  0  0
  7  9  1  0  0  0
 31 32  1  0  0  0
 29 25  1  0  0  0
  6  1  1  0  0  0
 32 26  1  0  0  0
 17 12  1  0  0  0
 10 11  1  0  0  0
M  CHG 1   7   1
M  CHG 1   9  -1
M  END
> <minimizedAffinity>
-7.08807

> <CNNscore>
0.1939634532

> <CNNaffinity>
5.5754041672

> <CNN_VS>
1.0814245939

> <CNNaffinity_variance>
0.4468542635

$$$$
[H]c1nc(OC2([H])C([H])([H])[C@@]3([H])N(C(=O)OC(C([H])([H])[H])(C([H])([H])[H])C([H])([H])[H])[C@]([H])(C2([H])[H])C([H])([H])C3([H])[H])c([N+](=O)[O-])c(N([H])c2c([H])c([H])c(S(=O)(=O)C([H])([H])[H])c([H])c2[H])n1


 37 40  0  0  0  0  0  0  0  0999 V2000
  151.3877  137.5054  182.0333 C   0  0  0  0  0  0  0  0  0  0  0  0
  151.2220  138.1873  180.7076 N   0  0  0  0  0  0  0  0  0  0  0  0
  152.0376  139.4035  180.3826 C   0  0  0  0  0  0  0  0  0  0  0  0
  153.0189  139.9379  181.3834 N   0  0  0  0  0  0  0  0  0  0  0  0
  153.1846  139.2561  182.7092 C   0  0  0  0  0  0  0  0  0  0  0  0
  152.3690  138.0399  183.0341 C   0  0  0  0  0  0  0  0  0  0  0  0
  152.5347  137.3580  184.3598 N   0  0  0  0  0  0  0  0  0  0  0  0
  153.5529  136.2682  184.5206 O   0  0  0  0  0  0  0  0  0  0  0  0
  151.8730  137.5062  185.6979 O   0  0  0  0  0  0  0  0  0  0  0  0
  154.1658  139.7905  183.7099 N   0  0  0  0  0  0  0  0  0  0  0  0
  154.1453  139.2873  185.1229 H   0  0  0  0  0  0  0  0  0  0  0  0
  155.1676  140.8281  183.2977 C   0  0  0  0  0  0  0  0  0  0  0  0
  154.7666  142.2718  183.2280 C   0  0  0  0  0  0  0  0  0  0  0  0
  155.7684  143.3093  182.8158 C   0  0  0  0  0  0  0  0  0  0  0  0
  157.1712  142.9031  182.4732 C   0  0  0  0  0  0  0  0  0  0  0  0
  157.5721  141.4594  182.5430 C   0  0  0  0  0  0  0  0  0  0  0  0
  156.5704  140.4219  182.9552 C   0  0  0  0  0  0  0  0  0  0  0  0
  158.1729  143.9406  182.0610 S   0  0  0  0  0  0  0  0  0  0  0  0
  159.1748  144.9782  181.6487 C   0  0  0  0  0  0  0  0  0  0  0  0
  159.1626  142.8590  181.7435 O   0  0  0  0  0  0  0  0  0  0  0  0
  157.1833  145.0223  182.3784 O   0  0  0  0  0  0  0  0  0  0  0  0
  150.5722  136.2892  182.3584 O   0  0  0  0  0  0  0  0  0  0  0  0
  150.5731  135.2397  181.5182 C   0  0  0  0  0  0  0  0  0  0  0  0
  151.9217  134.8984  182.0792 O   0  0  0  0  0  0  0  0  0  0  0  0
  149.6909  134.6195  180.4756 N   0  0  0  0  0  0  0  0  0  0  0  0
  148.3448  135.1234  180.0464 C   0  0  0  0  0  0  0  0  0  0  0  0
  147.8219  134.2018  178.9846 C   0  0  0  0  0  0  0  0  0  0  0  0
  148.8447  133.1284  178.7576 C   0  0  0  0  0  0  0  0  0  0  0  0
  149.9998  133.3866  179.6791 C   0  0  0  0  0  0  0  0  0  0  0  0
  150.9987  133.8844  180.6958 C   0  0  0  0  0  0  0  0  0  0  0  0
  150.5539  135.1241  181.4137 C   0  0  0  0  0  0  0  0  0  0  0  0
  149.2270  135.7436  181.0890 C   0  0  0  0  0  0  0  0  0  0  0  0
  150.1283  136.4794  182.2361 O   0  0  0  0  0  0  0  0  0  0  0  0
  148.3814  137.4962  182.8799 C   0  0  0  0  0  0  0  0  0  0  0  0
  149.2152  136.3729  183.4213 C   0  0  0  0  0  0  0  0  0  0  0  0
  150.0490  135.2497  183.9628 C   0  0  0  0  0  0  0  0  0  0  0  0
  148.3020  136.2665  184.6066 C   0  0  0  0  0  0  0  0  0  0  0  0
 34 35  1  0  0  0
 35 36  1  0  0  0
 35 37  1  0  0  0
 35 33  1  0  0  0
 33 23  1  0  0  0
 23 24  2  0  0  0
 23 25  1  0  0  0
 25 26  1  0  0  0
 26 27  1  0  0  0
 27 28  1  0  0  0
 28 29  1  0  0  0
 29 30  1  0  0  0
 30 31  1  0  0  0
 31 22  1  0  0  0
 22  1  1  0  0  0
  1  2  2  0  0  0
  2  3  1  0  0  0
  3  4  2  0  0  0
  4  5  1  0  0  0
  5 10  1  0  0  0
 10 12  1  0  0  0
 12 13  2  0  0  0
 13 14  1  0  0  0
 14 15  2  0  0  0
 15 18  1  0  0  0
 18 19  1  0  0  0
 18 20  2  0  0  0
 18 21  2  0  0  0
 15 16  1  0  0  0
 16 17  2  0  0  0
  5  6  2  0  0  0
  6  7  1  0  0  0
  7  8  2  0  0  0
  7  9  1  0  0  0
 31 32  1  0  0  0
 29 25  1  0  0  0
  6  1  1  0  0  0
 32 26  1  0  0  0
 17 12  1  0  0  0
 10 11  1  0  0  0
M  CHG 1   7   1
M  CHG 1   9  -1
M  END
> <minimizedAffinity>
-6.41844

> <CNNscore>
0.1910624057

> <CNNaffinity>
5.8146386147

> <CNN_VS>
1.1109588146

> <CNNaffinity_variance>
0.2341062576

$$$$
[H]c1c([H])c(N([H])c2nc(N3C([H])([H])C([H])([H])C([H])([H])C3([H])[H])c3c([H])c([H])c([H])c([H])c3n2)c([H])c([H])c1OC([H])([H])[H]


 25 28  0  0  0  0  0  0  0  0999 V2000
  156.3146  138.9930  185.3505 C   0  0  0  0  0  0  0  0  0  0  0  0
  156.0525  138.6071  186.6020 N   0  0  0  0  0  0  0  0  0  0  0  0
  154.8923  138.0357  186.9850 C   0  0  0  0  0  0  0  0  0  0  0  0
  153.9231  137.8412  186.0275 C   0  0  0  0  0  0  0  0  0  0  0  0
  152.7135  137.2776  186.3361 C   0  0  0  0  0  0  0  0  0  0  0  0
  151.7793  137.1174  185.3271 C   0  0  0  0  0  0  0  0  0  0  0  0
  152.0156  137.5000  184.0334 C   0  0  0  0  0  0  0  0  0  0  0  0
  153.2177  138.0653  183.7083 C   0  0  0  0  0  0  0  0  0  0  0  0
  154.1727  138.2362  184.7092 C   0  0  0  0  0  0  0  0  0  0  0  0
  155.3591  138.7914  184.4458 N   0  0  0  0  0  0  0  0  0  0  0  0
  154.7190  137.6267  188.3414 N   0  0  0  0  0  0  0  0  0  0  0  0
  154.9231  136.3223  188.8853 C   0  0  0  0  0  0  0  0  0  0  0  0
  155.1584  136.5267  190.3838 C   0  0  0  0  0  0  0  0  0  0  0  0
  155.2384  138.0094  190.5291 C   0  0  0  0  0  0  0  0  0  0  0  0
  154.3032  138.4968  189.4156 C   0  0  0  0  0  0  0  0  0  0  0  0
  157.5517  139.5988  185.0461 N   0  0  0  0  0  0  0  0  0  0  0  0
  158.3334  139.3989  185.7413 H   0  0  0  0  0  0  0  0  0  0  0  0
  158.6711  141.8664  181.6215 C   0  0  0  0  0  0  0  0  0  0  0  0
  158.1230  142.4878  182.7146 C   0  0  0  0  0  0  0  0  0  0  0  0
  157.7313  141.7778  183.8620 C   0  0  0  0  0  0  0  0  0  0  0  0
  157.8789  140.4179  183.9476 C   0  0  0  0  0  0  0  0  0  0  0  0
  158.4414  139.8002  182.8183 C   0  0  0  0  0  0  0  0  0  0  0  0
  158.8219  140.5021  181.6993 C   0  0  0  0  0  0  0  0  0  0  0  0
  158.3513  142.4323  179.2770 C   0  0  0  0  0  0  0  0  0  0  0  0
  159.0529  142.5803  180.4964 O   0  0  0  0  0  0  0  0  0  0  0  0
 24 25  1  0  0  0
 25 18  1  0  0  0
 18 19  2  0  0  0
 19 20  1  0  0  0
 20 21  2  0  0  0
 21 16  1  0  0  0
 16  1  1  0  0  0
  1  2  2  0  0  0
  2  3  1  0  0  0
  3 11  1  0  0  0
 11 12  1  0  0  0
 12 13  1  0  0  0
 13 14  1  0  0  0
 14 15  1  0  0  0
  3  4  2  0  0  0
  4  5  1  0  0  0
  5  6  2  0  0  0
  6  7  1  0  0  0
  7  8  2  0  0  0
  8  9  1  0  0  0
  9 10  2  0  0  0
 21 22  1  0  0  0
 22 23  2  0  0  0
 23 18  1  0  0  0
 10  1  1  0  0  0
 15 11  1  0  0  0
  9  4  1  0  0  0
 16 17  1  0  0  0
M  END
> <minimizedAffinity>
-6.25063

> <CNNscore>
0.5037831068

> <CNNaffinity>
5.8452787399

> <CNN_VS>
2.9447526932

> <CNNaffinity_variance>
0.0559379086

$$$$
[H]c1c([H])c(N([H])c2nc(N3C([H])([H])C([H])([H])C([H])([H])C3([H])[H])c3c([H])c([H])c([H])c([H])c3n2)c([H])c([H])c1OC([H])([H])[H]


 25 28  0  0  0  0  0  0  0  0999 V2000
  155.4002  139.5232  184.8703 C   0  0  0  0  0  0  0  0  0  0  0  0
  156.7034  139.8067  184.9410 N   0  0  0  0  0  0  0  0  0  0  0  0
  157.2672  140.8960  184.3797 C   0  0  0  0  0  0  0  0  0  0  0  0
  156.4486  141.7637  183.6935 C   0  0  0  0  0  0  0  0  0  0  0  0
  156.9438  142.8868  183.0854 C   0  0  0  0  0  0  0  0  0  0  0  0
  156.0671  143.7138  182.4043 C   0  0  0  0  0  0  0  0  0  0  0  0
  154.7254  143.4543  182.3137 C   0  0  0  0  0  0  0  0  0  0  0  0
  154.2147  142.3367  182.9140 C   0  0  0  0  0  0  0  0  0  0  0  0
  155.0800  141.4899  183.6049 C   0  0  0  0  0  0  0  0  0  0  0  0
  154.6329  140.3809  184.2011 N   0  0  0  0  0  0  0  0  0  0  0  0
  158.6662  141.1299  184.5387 N   0  0  0  0  0  0  0  0  0  0  0  0
  159.7155  140.7406  183.6519 C   0  0  0  0  0  0  0  0  0  0  0  0
  160.8885  141.6752  183.9571 C   0  0  0  0  0  0  0  0  0  0  0  0
  160.3119  142.6638  184.9143 C   0  0  0  0  0  0  0  0  0  0  0  0
  159.2615  141.8263  185.6542 C   0  0  0  0  0  0  0  0  0  0  0  0
  154.9021  138.3499  185.4747 N   0  0  0  0  0  0  0  0  0  0  0  0
  154.3903  137.6875  184.8164 H   0  0  0  0  0  0  0  0  0  0  0  0
  155.0081  137.3037  189.5999 C   0  0  0  0  0  0  0  0  0  0  0  0
  156.0096  136.8957  188.7562 C   0  0  0  0  0  0  0  0  0  0  0  0
  156.0103  137.2106  187.3869 C   0  0  0  0  0  0  0  0  0  0  0  0
  155.0029  137.9477  186.8211 C   0  0  0  0  0  0  0  0  0  0  0  0
  153.9869  138.3556  187.7013 C   0  0  0  0  0  0  0  0  0  0  0  0
  153.9934  138.0430  189.0399 C   0  0  0  0  0  0  0  0  0  0  0  0
  156.2351  136.6698  191.6029 C   0  0  0  0  0  0  0  0  0  0  0  0
  155.0211  136.9854  190.9490 O   0  0  0  0  0  0  0  0  0  0  0  0
 24 25  1  0  0  0
 25 18  1  0  0  0
 18 19  2  0  0  0
 19 20  1  0  0  0
 20 21  2  0  0  0
 21 16  1  0  0  0
 16  1  1  0  0  0
  1  2  2  0  0  0
  2  3  1  0  0  0
  3 11  1  0  0  0
 11 12  1  0  0  0
 12 13  1  0  0  0
 13 14  1  0  0  0
 14 15  1  0  0  0
  3  4  2  0  0  0
  4  5  1  0  0  0
  5  6  2  0  0  0
  6  7  1  0  0  0
  7  8  2  0  0  0
  8  9  1  0  0  0
  9 10  2  0  0  0
 21 22  1  0  0  0
 22 23  2  0  0  0
 23 18  1  0  0  0
 10  1  1  0  0  0
 15 11  1  0  0  0
  9  4  1  0  0  0
 16 17  1  0  0  0
M  END
> <minimizedAffinity>
-7.99840

> <CNNscore>
0.4967533052

> <CNNaffinity>
6.0649752617

> <CNN_VS>
3.0127964020

> <CNNaffinity_variance>
0.0498235226

$$$$
[H]c1c([H])c(N([H])c2nc(N3C([H])([H])C([H])([H])C([H])([H])C3([H])[H])c3c([H])c([H])c([H])c([H])c3n2)c([H])c([H])c1OC([H])([H])[H]


 25 28  0  0  0  0  0  0  0  0999 V2000
  153.7996  140.6557  182.1969 C   0  0  0  0  0  0  0  0  0  0  0  0
  154.9499  141.2080  181.8028 N   0  0  0  0  0  0  0  0  0  0  0  0
  156.1212  141.0500  182.4528 C   0  0  0  0  0  0  0  0  0  0  0  0
  156.1275  140.2743  183.5895 C   0  0  0  0  0  0  0  0  0  0  0  0
  157.2728  140.0729  184.3135 C   0  0  0  0  0  0  0  0  0  0  0  0
  157.2086  139.2879  185.4519 C   0  0  0  0  0  0  0  0  0  0  0  0
  156.0468  138.7051  185.8835 C   0  0  0  0  0  0  0  0  0  0  0  0
  154.8941  138.8969  185.1730 C   0  0  0  0  0  0  0  0  0  0  0  0
  154.9361  139.6842  184.0235 C   0  0  0  0  0  0  0  0  0  0  0  0
  153.8364  139.9098  183.2990 N   0  0  0  0  0  0  0  0  0  0  0  0
  157.3055  141.6545  181.9338 N   0  0  0  0  0  0  0  0  0  0  0  0
  158.1833  141.1255  180.9396 C   0  0  0  0  0  0  0  0  0  0  0  0
  158.9220  142.3300  180.3511 C   0  0  0  0  0  0  0  0  0  0  0  0
  158.2407  143.5011  180.9758 C   0  0  0  0  0  0  0  0  0  0  0  0
  157.8168  142.9420  182.3396 C   0  0  0  0  0  0  0  0  0  0  0  0
  152.6186  140.8909  181.4622 N   0  0  0  0  0  0  0  0  0  0  0  0
  152.4237  141.9140  181.2397 H   0  0  0  0  0  0  0  0  0  0  0  0
  149.7423  138.2182  179.8170 C   0  0  0  0  0  0  0  0  0  0  0  0
  150.2154  138.0281  181.0904 C   0  0  0  0  0  0  0  0  0  0  0  0
  151.1709  138.8801  181.6696 C   0  0  0  0  0  0  0  0  0  0  0  0
  151.6817  139.9526  180.9862 C   0  0  0  0  0  0  0  0  0  0  0  0
  151.1850  140.1300  179.6841 C   0  0  0  0  0  0  0  0  0  0  0  0
  150.2503  139.2916  179.1246 C   0  0  0  0  0  0  0  0  0  0  0  0
  147.7139  137.8880  178.5148 C   0  0  0  0  0  0  0  0  0  0  0  0
  148.7993  137.3692  179.2589 O   0  0  0  0  0  0  0  0  0  0  0  0
 24 25  1  0  0  0
 25 18  1  0  0  0
 18 19  2  0  0  0
 19 20  1  0  0  0
 20 21  2  0  0  0
 21 16  1  0  0  0
 16  1  1  0  0  0
  1  2  2  0  0  0
  2  3  1  0  0  0
  3 11  1  0  0  0
 11 12  1  0  0  0
 12 13  1  0  0  0
 13 14  1  0  0  0
 14 15  1  0  0  0
  3  4  2  0  0  0
  4  5  1  0  0  0
  5  6  2  0  0  0
  6  7  1  0  0  0
  7  8  2  0  0  0
  8  9  1  0  0  0
  9 10  2  0  0  0
 21 22  1  0  0  0
 22 23  2  0  0  0
 23 18  1  0  0  0
 10  1  1  0  0  0
 15 11  1  0  0  0
  9  4  1  0  0  0
 16 17  1  0  0  0
M  END
> <minimizedAffinity>
-8.03778

> <CNNscore>
0.4562580585

> <CNNaffinity>
5.8300256729

> <CNN_VS>
2.6599962711

> <CNNaffinity_variance>
0.0247347504

$$$$
[H]c1c([H])c(N([H])c2nc(N3C([H])([H])C([H])([H])C([H])([H])C3([H])[H])c3c([H])c([H])c([H])c([H])c3n2)c([H])c([H])c1OC([H])([H])[H]


 25 28  0  0  0  0  0  0  0  0999 V2000
  156.2718  140.5264  183.1970 C   0  0  0  0  0  0  0  0  0  0  0  0
  157.3397  140.7528  183.9664 N   0  0  0  0  0  0  0  0  0  0  0  0
  158.4557  141.3778  183.5384 C   0  0  0  0  0  0  0  0  0  0  0  0
  158.4933  141.8053  182.2308 C   0  0  0  0  0  0  0  0  0  0  0  0
  159.5931  142.4384  181.7150 C   0  0  0  0  0  0  0  0  0  0  0  0
  159.5688  142.8359  180.3891 C   0  0  0  0  0  0  0  0  0  0  0  0
  158.4902  142.6214  179.5727 C   0  0  0  0  0  0  0  0  0  0  0  0
  157.3845  141.9898  180.0715 C   0  0  0  0  0  0  0  0  0  0  0  0
  157.3878  141.5808  181.4041 C   0  0  0  0  0  0  0  0  0  0  0  0
  156.3365  140.9518  181.9372 N   0  0  0  0  0  0  0  0  0  0  0  0
  159.5333  141.6029  184.4470 N   0  0  0  0  0  0  0  0  0  0  0  0
  160.9308  141.5813  184.1550 C   0  0  0  0  0  0  0  0  0  0  0  0
  161.6005  142.4061  185.2569 C   0  0  0  0  0  0  0  0  0  0  0  0
  160.4511  142.9872  186.0102 C   0  0  0  0  0  0  0  0  0  0  0  0
  159.3761  141.9052  185.8497 C   0  0  0  0  0  0  0  0  0  0  0  0
  155.1542  139.8484  183.7272 N   0  0  0  0  0  0  0  0  0  0  0  0
  155.2674  139.5114  184.7311 H   0  0  0  0  0  0  0  0  0  0  0  0
  151.4486  138.7630  181.9347 C   0  0  0  0  0  0  0  0  0  0  0  0
  152.0385  139.9638  181.6324 C   0  0  0  0  0  0  0  0  0  0  0  0
  153.2560  140.3661  182.2069 C   0  0  0  0  0  0  0  0  0  0  0  0
  153.9209  139.5723  183.1048 C   0  0  0  0  0  0  0  0  0  0  0  0
  153.3006  138.3473  183.4015 C   0  0  0  0  0  0  0  0  0  0  0  0
  152.1090  137.9612  182.8352 C   0  0  0  0  0  0  0  0  0  0  0  0
  149.5544  139.2528  180.4885 C   0  0  0  0  0  0  0  0  0  0  0  0
  150.2470  138.3796  181.3597 O   0  0  0  0  0  0  0  0  0  0  0  0
 24 25  1  0  0  0
 25 18  1  0  0  0
 18 19  2  0  0  0
 19 20  1  0  0  0
 20 21  2  0  0  0
 21 16  1  0  0  0
 16  1  1  0  0  0
  1  2  2  0  0  0
  2  3  1  0  0  0
  3 11  1  0  0  0
 11 12  1  0  0  0
 12 13  1  0  0  0
 13 14  1  0  0  0
 14 15  1  0  0  0
  3  4  2  0  0  0
  4  5  1  0  0  0
  5  6  2  0  0  0
  6  7  1  0  0  0
  7  8  2  0  0  0
  8  9  1  0  0  0
  9 10  2  0  0  0
 21 22  1  0  0  0
 22 23  2  0  0  0
 23 18  1  0  0  0
 10  1  1  0  0  0
 15 11  1  0  0  0
  9  4  1  0  0  0
 16 17  1  0  0  0
M  END
> <minimizedAffinity>
-8.42327

> <CNNscore>
0.3960824013

> <CNNaffinity>
6.3644881248

> <CNN_VS>
2.5208616257

> <CNNaffinity_variance>
0.2778730690

$$$$
[H]c1c([H])c(N([H])c2nc(N3C([H])([H])C([H])([H])C([H])([H])C3([H])[H])c3c([H])c([H])c([H])c([H])c3n2)c([H])c([H])c1OC([H])([H])[H]


 25 28  0  0  0  0  0  0  0  0999 V2000
  156.4766  140.4585  183.2338 C   0  0  0  0  0  0  0  0  0  0  0  0
  157.5682  140.7363  183.9513 N   0  0  0  0  0  0  0  0  0  0  0  0
  158.6395  141.3962  183.4651 C   0  0  0  0  0  0  0  0  0  0  0  0
  158.6027  141.8048  182.1515 C   0  0  0  0  0  0  0  0  0  0  0  0
  159.6535  142.4707  181.5783 C   0  0  0  0  0  0  0  0  0  0  0  0
  159.5553  142.8468  180.2496 C   0  0  0  0  0  0  0  0  0  0  0  0
  158.4505  142.5798  179.4855 C   0  0  0  0  0  0  0  0  0  0  0  0
  157.3928  141.9149  180.0420 C   0  0  0  0  0  0  0  0  0  0  0  0
  157.4709  141.5266  181.3784 C   0  0  0  0  0  0  0  0  0  0  0  0
  156.4690  140.8668  181.9668 N   0  0  0  0  0  0  0  0  0  0  0  0
  159.7470  141.6752  184.3213 N   0  0  0  0  0  0  0  0  0  0  0  0
  161.1297  141.4419  184.0521 C   0  0  0  0  0  0  0  0  0  0  0  0
  161.9005  142.3884  184.9756 C   0  0  0  0  0  0  0  0  0  0  0  0
  160.8321  143.2301  185.5890 C   0  0  0  0  0  0  0  0  0  0  0  0
  159.6423  142.2635  185.6353 C   0  0  0  0  0  0  0  0  0  0  0  0
  155.4102  139.7473  183.8229 N   0  0  0  0  0  0  0  0  0  0  0  0
  155.5786  139.4345  184.8268 H   0  0  0  0  0  0  0  0  0  0  0  0
  151.6267  138.9814  182.0281 C   0  0  0  0  0  0  0  0  0  0  0  0
  152.1845  138.0668  182.8847 C   0  0  0  0  0  0  0  0  0  0  0  0
  153.4343  138.2746  183.4922 C   0  0  0  0  0  0  0  0  0  0  0  0
  154.1642  139.4107  183.2582 C   0  0  0  0  0  0  0  0  0  0  0  0
  153.5762  140.3345  182.3781 C   0  0  0  0  0  0  0  0  0  0  0  0
  152.3530  140.1236  181.7876 C   0  0  0  0  0  0  0  0  0  0  0  0
  150.1535  139.1616  180.1002 C   0  0  0  0  0  0  0  0  0  0  0  0
  150.3925  138.7626  181.4362 O   0  0  0  0  0  0  0  0  0  0  0  0
 24 25  1  0  0  0
 25 18  1  0  0  0
 18 19  2  0  0  0
 19 20  1  0  0  0
 20 21  2  0  0  0
 21 16  1  0  0  0
 16  1  1  0  0  0
  1  2  2  0  0  0
  2  3  1  0  0  0
  3 11  1  0  0  0
 11 12  1  0  0  0
 12 13  1  0  0  0
 13 14  1  0  0  0
 14 15  1  0  0  0
  3  4  2  0  0  0
  4  5  1  0  0  0
  5  6  2  0  0  0
  6  7  1  0  0  0
  7  8  2  0  0  0
  8  9  1  0  0  0
  9 10  2  0  0  0
 21 22  1  0  0  0
 22 23  2  0  0  0
 23 18  1  0  0  0
 10  1  1  0  0  0
 15 11  1  0  0  0
  9  4  1  0  0  0
 16 17  1  0  0  0
M  END
> <minimizedAffinity>
-8.32848

> <CNNscore>
0.3920786083

> <CNNaffinity>
6.3715963364

> <CNN_VS>
2.4981665611

> <CNNaffinity_variance>
0.2948187888

$$$$
[H]c1c([H])c(N([H])c2nc(N3C([H])([H])C([H])([H])C([H])([H])C3([H])[H])c3c([H])c([H])c([H])c([H])c3n2)c([H])c([H])c1OC([H])([H])[H]


 25 28  0  0  0  0  0  0  0  0999 V2000
  154.9128  141.0716  182.6978 C   0  0  0  0  0  0  0  0  0  0  0  0
  154.8155  140.1663  183.6749 N   0  0  0  0  0  0  0  0  0  0  0  0
  153.8665  139.2088  183.7207 C   0  0  0  0  0  0  0  0  0  0  0  0
  152.9452  139.1656  182.6993 C   0  0  0  0  0  0  0  0  0  0  0  0
  151.9435  138.2317  182.6766 C   0  0  0  0  0  0  0  0  0  0  0  0
  151.0445  138.2483  181.6239 C   0  0  0  0  0  0  0  0  0  0  0  0
  151.1162  139.1607  180.6050 C   0  0  0  0  0  0  0  0  0  0  0  0
  152.1095  140.1007  180.6128 C   0  0  0  0  0  0  0  0  0  0  0  0
  153.0253  140.1022  181.6637 C   0  0  0  0  0  0  0  0  0  0  0  0
  154.0087  141.0047  181.7229 N   0  0  0  0  0  0  0  0  0  0  0  0
  153.8652  138.2646  184.7911 N   0  0  0  0  0  0  0  0  0  0  0  0
  154.3124  136.9091  184.7505 C   0  0  0  0  0  0  0  0  0  0  0  0
  154.6286  136.5301  186.1993 C   0  0  0  0  0  0  0  0  0  0  0  0
  154.4868  137.8177  186.9396 C   0  0  0  0  0  0  0  0  0  0  0  0
  153.4032  138.5410  186.1304 C   0  0  0  0  0  0  0  0  0  0  0  0
  155.9299  142.0480  182.7428 N   0  0  0  0  0  0  0  0  0  0  0  0
  155.6348  143.0198  182.4220 H   0  0  0  0  0  0  0  0  0  0  0  0
  160.0391  141.5754  183.7495 C   0  0  0  0  0  0  0  0  0  0  0  0
  159.0787  141.5453  184.7282 C   0  0  0  0  0  0  0  0  0  0  0  0
  157.7124  141.7058  184.4422 C   0  0  0  0  0  0  0  0  0  0  0  0
  157.2672  141.9011  183.1609 C   0  0  0  0  0  0  0  0  0  0  0  0
  158.2659  141.9291  182.1733 C   0  0  0  0  0  0  0  0  0  0  0  0
  159.6007  141.7717  182.4614 C   0  0  0  0  0  0  0  0  0  0  0  0
  162.0469  142.3309  184.8974 C   0  0  0  0  0  0  0  0  0  0  0  0
  161.3836  141.4155  184.0469 O   0  0  0  0  0  0  0  0  0  0  0  0
 24 25  1  0  0  0
 25 18  1  0  0  0
 18 19  2  0  0  0
 19 20  1  0  0  0
 20 21  2  0  0  0
 21 16  1  0  0  0
 16  1  1  0  0  0
  1  2  2  0  0  0
  2  3  1  0  0  0
  3 11  1  0  0  0
 11 12  1  0  0  0
 12 13  1  0  0  0
 13 14  1  0  0  0
 14 15  1  0  0  0
  3  4  2  0  0  0
  4  5  1  0  0  0
  5  6  2  0  0  0
  6  7  1  0  0  0
  7  8  2  0  0  0
  8  9  1  0  0  0
  9 10  2  0  0  0
 21 22  1  0  0  0
 22 23  2  0  0  0
 23 18  1  0  0  0
 10  1  1  0  0  0
 15 11  1  0  0  0
  9  4  1  0  0  0
 16 17  1  0  0  0
M  END
> <minimizedAffinity>
-7.54343

> <CNNscore>
0.3828904331

> <CNNaffinity>
6.0655069351

> <CNN_VS>
2.3224246502

> <CNNaffinity_variance>
0.1972988844

$$$$
[H]c1c([H])c(N([H])c2nc(N3C([H])([H])C([H])([H])C([H])([H])C3([H])[H])c3c([H])c([H])c([H])c([H])c3n2)c([H])c([H])c1OC([H])([H])[H]


 25 28  0  0  0  0  0  0  0  0999 V2000
  153.0928  137.0275  187.6018 C   0  0  0  0  0  0  0  0  0  0  0  0
  152.4268  136.5551  188.6586 N   0  0  0  0  0  0  0  0  0  0  0  0
  152.9291  136.5213  189.9100 C   0  0  0  0  0  0  0  0  0  0  0  0
  154.2038  137.0018  190.1056 C   0  0  0  0  0  0  0  0  0  0  0  0
  154.7910  136.9932  191.3431 C   0  0  0  0  0  0  0  0  0  0  0  0
  156.0793  137.4841  191.4696 C   0  0  0  0  0  0  0  0  0  0  0  0
  156.7900  137.9773  190.4079 C   0  0  0  0  0  0  0  0  0  0  0  0
  156.2190  137.9923  189.1653 C   0  0  0  0  0  0  0  0  0  0  0  0
  154.9226  137.5024  189.0153 C   0  0  0  0  0  0  0  0  0  0  0  0
  154.3230  137.4864  187.8214 N   0  0  0  0  0  0  0  0  0  0  0  0
  152.1261  136.0273  190.9817 N   0  0  0  0  0  0  0  0  0  0  0  0
  152.0851  134.6933  191.4891 C   0  0  0  0  0  0  0  0  0  0  0  0
  151.5443  134.8059  192.9166 C   0  0  0  0  0  0  0  0  0  0  0  0
  151.4865  136.2774  193.1567 C   0  0  0  0  0  0  0  0  0  0  0  0
  151.2030  136.8256  191.7527 C   0  0  0  0  0  0  0  0  0  0  0  0
  152.4922  137.0068  186.3255 N   0  0  0  0  0  0  0  0  0  0  0  0
  151.6646  136.3434  186.2288 H   0  0  0  0  0  0  0  0  0  0  0  0
  153.6571  139.4350  183.0287 C   0  0  0  0  0  0  0  0  0  0  0  0
  152.8026  138.3784  182.8425 C   0  0  0  0  0  0  0  0  0  0  0  0
  152.3989  137.5460  183.9001 C   0  0  0  0  0  0  0  0  0  0  0  0
  152.8417  137.7500  185.1809 C   0  0  0  0  0  0  0  0  0  0  0  0
  153.7160  138.8364  185.3508 C   0  0  0  0  0  0  0  0  0  0  0  0
  154.1064  139.6459  184.3107 C   0  0  0  0  0  0  0  0  0  0  0  0
  154.6776  141.4900  182.2195 C   0  0  0  0  0  0  0  0  0  0  0  0
  154.0465  140.2478  181.9755 O   0  0  0  0  0  0  0  0  0  0  0  0
 24 25  1  0  0  0
 25 18  1  0  0  0
 18 19  2  0  0  0
 19 20  1  0  0  0
 20 21  2  0  0  0
 21 16  1  0  0  0
 16  1  1  0  0  0
  1  2  2  0  0  0
  2  3  1  0  0  0
  3 11  1  0  0  0
 11 12  1  0  0  0
 12 13  1  0  0  0
 13 14  1  0  0  0
 14 15  1  0  0  0
  3  4  2  0  0  0
  4  5  1  0  0  0
  5  6  2  0  0  0
  6  7  1  0  0  0
  7  8  2  0  0  0
  8  9  1  0  0  0
  9 10  2  0  0  0
 21 22  1  0  0  0
 22 23  2  0  0  0
 23 18  1  0  0  0
 10  1  1  0  0  0
 15 11  1  0  0  0
  9  4  1  0  0  0
 16 17  1  0  0  0
M  END
> <minimizedAffinity>
-6.32097

> <CNNscore>
0.3621057570

> <CNNaffinity>
5.3307471275

> <CNN_VS>
1.9302942753

> <CNNaffinity_variance>
0.0779400617

$$$$
[H]c1c([H])c(N([H])c2nc(N3C([H])([H])C([H])([H])C([H])([H])C3([H])[H])c3c([H])c([H])c([H])c([H])c3n2)c([H])c([H])c1OC([H])([H])[H]


 25 28  0  0  0  0  0  0  0  0999 V2000
  151.1748  135.8193  188.8592 C   0  0  0  0  0  0  0  0  0  0  0  0
  152.4230  136.2793  188.9778 N   0  0  0  0  0  0  0  0  0  0  0  0
  152.9951  136.6062  190.1547 C   0  0  0  0  0  0  0  0  0  0  0  0
  152.2452  136.4566  191.2990 C   0  0  0  0  0  0  0  0  0  0  0  0
  152.7480  136.7761  192.5324 C   0  0  0  0  0  0  0  0  0  0  0  0
  151.9380  136.6095  193.6426 C   0  0  0  0  0  0  0  0  0  0  0  0
  150.6548  136.1386  193.5574 C   0  0  0  0  0  0  0  0  0  0  0  0
  150.1368  135.8159  192.3336 C   0  0  0  0  0  0  0  0  0  0  0  0
  150.9352  135.9763  191.2022 C   0  0  0  0  0  0  0  0  0  0  0  0
  150.4738  135.6841  189.9829 N   0  0  0  0  0  0  0  0  0  0  0  0
  154.3486  137.0585  190.1821 N   0  0  0  0  0  0  0  0  0  0  0  0
  154.8132  138.4058  190.0931 C   0  0  0  0  0  0  0  0  0  0  0  0
  156.2096  138.4082  190.7197 C   0  0  0  0  0  0  0  0  0  0  0  0
  156.3448  137.0341  191.2852 C   0  0  0  0  0  0  0  0  0  0  0  0
  155.5001  136.1984  190.3155 C   0  0  0  0  0  0  0  0  0  0  0  0
  150.6542  135.5194  187.5829 N   0  0  0  0  0  0  0  0  0  0  0  0
  149.6874  135.0727  187.5852 H   0  0  0  0  0  0  0  0  0  0  0  0
  152.5653  135.9590  183.8044 C   0  0  0  0  0  0  0  0  0  0  0  0
  151.8744  137.0072  184.3569 C   0  0  0  0  0  0  0  0  0  0  0  0
  151.2216  136.9036  185.5968 C   0  0  0  0  0  0  0  0  0  0  0  0
  151.2432  135.7412  186.3226 C   0  0  0  0  0  0  0  0  0  0  0  0
  151.9554  134.6797  185.7398 C   0  0  0  0  0  0  0  0  0  0  0  0
  152.5911  134.7891  184.5259 C   0  0  0  0  0  0  0  0  0  0  0  0
  153.0937  135.0535  181.6089 C   0  0  0  0  0  0  0  0  0  0  0  0
  153.2045  136.0761  182.5800 O   0  0  0  0  0  0  0  0  0  0  0  0
 24 25  1  0  0  0
 25 18  1  0  0  0
 18 19  2  0  0  0
 19 20  1  0  0  0
 20 21  2  0  0  0
 21 16  1  0  0  0
 16  1  1  0  0  0
  1  2  2  0  0  0
  2  3  1  0  0  0
  3 11  1  0  0  0
 11 12  1  0  0  0
 12 13  1  0  0  0
 13 14  1  0  0  0
 14 15  1  0  0  0
  3  4  2  0  0  0
  4  5  1  0  0  0
  5  6  2  0  0  0
  6  7  1  0  0  0
  7  8  2  0  0  0
  8  9  1  0  0  0
  9 10  2  0  0  0
 21 22  1  0  0  0
 22 23  2  0  0  0
 23 18  1  0  0  0
 10  1  1  0  0  0
 15 11  1  0  0  0
  9  4  1  0  0  0
 16 17  1  0  0  0
M  END
> <minimizedAffinity>
-5.32919

> <CNNscore>
0.3565950394

> <CNNaffinity>
5.2808079720

> <CNN_VS>
1.8831099272

> <CNNaffinity_variance>
0.0892804116

$$$$
[H]c1c([H])c(N([H])c2nc(N3C([H])([H])C([H])([H])C([H])([H])C3([H])[H])c3c([H])c([H])c([H])c([H])c3n2)c([H])c([H])c1OC([H])([H])[H]


 25 28  0  0  0  0  0  0  0  0999 V2000
  153.9974  139.8406  182.8267 C   0  0  0  0  0  0  0  0  0  0  0  0
  153.4787  138.7965  183.4783 N   0  0  0  0  0  0  0  0  0  0  0  0
  152.4123  138.0939  183.0443 C   0  0  0  0  0  0  0  0  0  0  0  0
  151.8257  138.4789  181.8604 C   0  0  0  0  0  0  0  0  0  0  0  0
  150.7328  137.8251  181.3561 C   0  0  0  0  0  0  0  0  0  0  0  0
  150.1861  138.2684  180.1640 C   0  0  0  0  0  0  0  0  0  0  0  0
  150.6935  139.3340  179.4691 C   0  0  0  0  0  0  0  0  0  0  0  0
  151.7837  139.9986  179.9591 C   0  0  0  0  0  0  0  0  0  0  0  0
  152.3498  139.5690  181.1583 C   0  0  0  0  0  0  0  0  0  0  0  0
  153.4099  140.1894  181.6841 N   0  0  0  0  0  0  0  0  0  0  0  0
  151.9515  136.9711  183.7955 N   0  0  0  0  0  0  0  0  0  0  0  0
  150.9802  136.9693  184.8422 C   0  0  0  0  0  0  0  0  0  0  0  0
  150.4459  135.5368  184.9137 C   0  0  0  0  0  0  0  0  0  0  0  0
  151.0692  134.8687  183.7341 C   0  0  0  0  0  0  0  0  0  0  0  0
  152.4037  135.6134  183.6055 C   0  0  0  0  0  0  0  0  0  0  0  0
  155.1054  140.5266  183.3667 N   0  0  0  0  0  0  0  0  0  0  0  0
  155.3447  140.2726  184.3729 H   0  0  0  0  0  0  0  0  0  0  0  0
  157.7801  143.2422  181.4709 C   0  0  0  0  0  0  0  0  0  0  0  0
  156.6292  143.7011  182.0591 C   0  0  0  0  0  0  0  0  0  0  0  0
  155.7143  142.8398  182.6879 C   0  0  0  0  0  0  0  0  0  0  0  0
  155.9280  141.4873  182.7462 C   0  0  0  0  0  0  0  0  0  0  0  0
  157.1116  141.0372  182.1379 C   0  0  0  0  0  0  0  0  0  0  0  0
  158.0015  141.8865  181.5244 C   0  0  0  0  0  0  0  0  0  0  0  0
  159.4877  143.6557  179.7879 C   0  0  0  0  0  0  0  0  0  0  0  0
  158.6735  144.1042  180.8542 O   0  0  0  0  0  0  0  0  0  0  0  0
 24 25  1  0  0  0
 25 18  1  0  0  0
 18 19  2  0  0  0
 19 20  1  0  0  0
 20 21  2  0  0  0
 21 16  1  0  0  0
 16  1  1  0  0  0
  1  2  2  0  0  0
  2  3  1  0  0  0
  3 11  1  0  0  0
 11 12  1  0  0  0
 12 13  1  0  0  0
 13 14  1  0  0  0
 14 15  1  0  0  0
  3  4  2  0  0  0
  4  5  1  0  0  0
  5  6  2  0  0  0
  6  7  1  0  0  0
  7  8  2  0  0  0
  8  9  1  0  0  0
  9 10  2  0  0  0
 21 22  1  0  0  0
 22 23  2  0  0  0
 23 18  1  0  0  0
 10  1  1  0  0  0
 15 11  1  0  0  0
  9  4  1  0  0  0
 16 17  1  0  0  0
M  END
> <minimizedAffinity>
-6.87914

> <CNNscore>
0.3539990187

> <CNNaffinity>
5.6718339920

> <CNN_VS>
2.0078237057

> <CNNaffinity_variance>
0.1108100563

$$$$
[H]OC12N(C([H])([H])c3c([H])c([H])c(OC([H])([H])[H])c([H])c3[H])C3([H])C4([H])C5([H])C([H])([H])C([H])(C14[H])C1([H])C2([H])C3([H])C51[H]


 23 29  0  0  0  0  0  0  0  0999 V2000
  158.6401  141.3104  183.1281 N   0  0  0  0  0  0  0  0  0  0  0  0
  159.3174  142.4609  182.5454 C   0  0  0  0  0  0  0  0  0  0  0  0
  159.4813  141.9578  181.1279 C   0  0  0  0  0  0  0  0  0  0  0  0
  159.3185  143.1793  180.2706 C   0  0  0  0  0  0  0  0  0  0  0  0
  158.5613  142.5807  179.0791 C   0  0  0  0  0  0  0  0  0  0  0  0
  157.4392  141.9395  179.9088 C   0  0  0  0  0  0  0  0  0  0  0  0
  156.9695  143.1037  180.7209 C   0  0  0  0  0  0  0  0  0  0  0  0
  158.2365  143.9374  180.9605 C   0  0  0  0  0  0  0  0  0  0  0  0
  158.2599  143.5072  182.3956 C   0  0  0  0  0  0  0  0  0  0  0  0
  156.9925  142.6858  182.1482 C   0  0  0  0  0  0  0  0  0  0  0  0
  157.5097  141.2725  182.2327 C   0  0  0  0  0  0  0  0  0  0  0  0
  156.5812  140.3208  182.4496 O   0  0  0  0  0  0  0  0  0  0  0  0
  158.2269  141.1404  180.8903 C   0  0  0  0  0  0  0  0  0  0  0  0
  155.6663  140.6752  182.3284 H   0  0  0  0  0  0  0  0  0  0  0  0
  158.3306  141.4902  184.5081 C   0  0  0  0  0  0  0  0  0  0  0  0
  161.9186  142.6554  186.5969 C   0  0  0  0  0  0  0  0  0  0  0  0
  160.6879  142.6866  187.2153 C   0  0  0  0  0  0  0  0  0  0  0  0
  159.5402  142.3178  186.5484 C   0  0  0  0  0  0  0  0  0  0  0  0
  159.5653  141.8970  185.2223 C   0  0  0  0  0  0  0  0  0  0  0  0
  160.8223  141.8731  184.6157 C   0  0  0  0  0  0  0  0  0  0  0  0
  161.9679  142.2422  185.2848 C   0  0  0  0  0  0  0  0  0  0  0  0
  163.5469  142.2884  188.3940 C   0  0  0  0  0  0  0  0  0  0  0  0
  163.0753  143.0335  187.2896 O   0  0  0  0  0  0  0  0  0  0  0  0
 22 23  1  0  0  0
 23 16  1  0  0  0
 16 17  2  0  0  0
 17 18  1  0  0  0
 18 19  2  0  0  0
 19 15  1  0  0  0
 15  1  1  0  0  0
  1  2  1  0  0  0
  2  3  1  0  0  0
  3  4  1  0  0  0
  4  5  1  0  0  0
  5  6  1  0  0  0
  6  7  1  0  0  0
  7  8  1  0  0  0
  8  9  1  0  0  0
  9 10  1  0  0  0
 10 11  1  0  0  0
 11 12  1  0  0  0
 11 13  1  0  0  0
 19 20  1  0  0  0
 20 21  2  0  0  0
 21 16  1  0  0  0
 11  1  1  0  0  0
  9  2  1  0  0  0
 13  3  1  0  0  0
  8  4  1  0  0  0
 13  6  1  0  0  0
 10  7  1  0  0  0
 12 14  1  0  0  0
M  END
> <minimizedAffinity>
-8.85261

> <CNNscore>
0.5255309343

> <CNNaffinity>
6.2870125771

> <CNN_VS>
3.3040196896

> <CNNaffinity_variance>
0.0123758297

$$$$
[H]OC12N(C([H])([H])c3c([H])c([H])c(OC([H])([H])[H])c([H])c3[H])C3([H])C4([H])C5([H])C([H])([H])C([H])(C14[H])C1([H])C2([H])C3([H])C51[H]


 23 29  0  0  0  0  0  0  0  0999 V2000
  157.7735  141.6513  183.2231 N   0  0  0  0  0  0  0  0  0  0  0  0
  156.7669  141.9286  184.2388 C   0  0  0  0  0  0  0  0  0  0  0  0
  155.9230  142.9305  183.4816 C   0  0  0  0  0  0  0  0  0  0  0  0
  154.5164  142.6569  183.9291 C   0  0  0  0  0  0  0  0  0  0  0  0
  153.7594  142.8893  182.6160 C   0  0  0  0  0  0  0  0  0  0  0  0
  154.6094  141.9301  181.7697 C   0  0  0  0  0  0  0  0  0  0  0  0
  154.5416  140.6779  182.5839 C   0  0  0  0  0  0  0  0  0  0  0  0
  154.4766  141.1709  184.0367 C   0  0  0  0  0  0  0  0  0  0  0  0
  155.8874  140.7197  184.2631 C   0  0  0  0  0  0  0  0  0  0  0  0
  155.9391  140.2246  182.8159 C   0  0  0  0  0  0  0  0  0  0  0  0
  156.8827  141.2115  182.1772 C   0  0  0  0  0  0  0  0  0  0  0  0
  157.4399  140.8211  181.0144 O   0  0  0  0  0  0  0  0  0  0  0  0
  155.9826  142.4390  182.0487 C   0  0  0  0  0  0  0  0  0  0  0  0
  156.9940  140.0161  180.6531 H   0  0  0  0  0  0  0  0  0  0  0  0
  158.7441  140.6985  183.6507 C   0  0  0  0  0  0  0  0  0  0  0  0
  161.5370  142.6795  186.2716 C   0  0  0  0  0  0  0  0  0  0  0  0
  161.8880  142.3251  184.9874 C   0  0  0  0  0  0  0  0  0  0  0  0
  160.9980  141.6892  184.1499 C   0  0  0  0  0  0  0  0  0  0  0  0
  159.7051  141.3738  184.5564 C   0  0  0  0  0  0  0  0  0  0  0  0
  159.3711  141.7419  185.8608 C   0  0  0  0  0  0  0  0  0  0  0  0
  160.2628  142.3775  186.6958 C   0  0  0  0  0  0  0  0  0  0  0  0
  163.3870  142.5947  187.8797 C   0  0  0  0  0  0  0  0  0  0  0  0
  162.4541  143.3255  187.1097 O   0  0  0  0  0  0  0  0  0  0  0  0
 22 23  1  0  0  0
 23 16  1  0  0  0
 16 17  2  0  0  0
 17 18  1  0  0  0
 18 19  2  0  0  0
 19 15  1  0  0  0
 15  1  1  0  0  0
  1  2  1  0  0  0
  2  3  1  0  0  0
  3  4  1  0  0  0
  4  5  1  0  0  0
  5  6  1  0  0  0
  6  7  1  0  0  0
  7  8  1  0  0  0
  8  9  1  0  0  0
  9 10  1  0  0  0
 10 11  1  0  0  0
 11 12  1  0  0  0
 11 13  1  0  0  0
 19 20  1  0  0  0
 20 21  2  0  0  0
 21 16  1  0  0  0
 11  1  1  0  0  0
  9  2  1  0  0  0
 13  3  1  0  0  0
  8  4  1  0  0  0
 13  6  1  0  0  0
 10  7  1  0  0  0
 12 14  1  0  0  0
M  END
> <minimizedAffinity>
-9.17037

> <CNNscore>
0.4770004749

> <CNNaffinity>
6.1943254471

> <CNN_VS>
2.9546961784

> <CNNaffinity_variance>
0.1367630064

$$$$
[H]OC12N(C([H])([H])c3c([H])c([H])c(OC([H])([H])[H])c([H])c3[H])C3([H])C4([H])C5([H])C([H])([H])C([H])(C14[H])C1([H])C2([H])C3([H])C51[H]


 23 29  0  0  0  0  0  0  0  0999 V2000
  154.6542  137.2802  190.5756 N   0  0  0  0  0  0  0  0  0  0  0  0
  153.9443  136.6092  189.4951 C   0  0  0  0  0  0  0  0  0  0  0  0
  154.0078  137.6975  188.4459 C   0  0  0  0  0  0  0  0  0  0  0  0
  154.1545  136.9626  187.1452 C   0  0  0  0  0  0  0  0  0  0  0  0
  155.1089  137.9052  186.4022 C   0  0  0  0  0  0  0  0  0  0  0  0
  156.1772  137.9522  187.5047 C   0  0  0  0  0  0  0  0  0  0  0  0
  156.4255  136.4966  187.7383 C   0  0  0  0  0  0  0  0  0  0  0  0
  155.0625  135.8331  187.4932 C   0  0  0  0  0  0  0  0  0  0  0  0
  154.9039  135.5931  188.9637 C   0  0  0  0  0  0  0  0  0  0  0  0
  156.2670  136.2490  189.1965 C   0  0  0  0  0  0  0  0  0  0  0  0
  155.8851  137.5421  189.8704 C   0  0  0  0  0  0  0  0  0  0  0  0
  156.8688  138.1600  190.5526 O   0  0  0  0  0  0  0  0  0  0  0  0
  155.3565  138.3474  188.6848 C   0  0  0  0  0  0  0  0  0  0  0  0
  157.7523  137.7667  190.3473 H   0  0  0  0  0  0  0  0  0  0  0  0
  154.7710  136.4746  191.7460 C   0  0  0  0  0  0  0  0  0  0  0  0
  150.8284  135.7087  193.3158 C   0  0  0  0  0  0  0  0  0  0  0  0
  151.7516  134.6961  193.1732 C   0  0  0  0  0  0  0  0  0  0  0  0
  153.0105  134.9384  192.6688 C   0  0  0  0  0  0  0  0  0  0  0  0
  153.4119  136.2126  192.2793 C   0  0  0  0  0  0  0  0  0  0  0  0
  152.4611  137.2230  192.4323 C   0  0  0  0  0  0  0  0  0  0  0  0
  151.2035  136.9779  192.9369 C   0  0  0  0  0  0  0  0  0  0  0  0
  148.8535  134.2650  193.4905 C   0  0  0  0  0  0  0  0  0  0  0  0
  149.5532  135.4448  193.8304 O   0  0  0  0  0  0  0  0  0  0  0  0
 22 23  1  0  0  0
 23 16  1  0  0  0
 16 17  2  0  0  0
 17 18  1  0  0  0
 18 19  2  0  0  0
 19 15  1  0  0  0
 15  1  1  0  0  0
  1  2  1  0  0  0
  2  3  1  0  0  0
  3  4  1  0  0  0
  4  5  1  0  0  0
  5  6  1  0  0  0
  6  7  1  0  0  0
  7  8  1  0  0  0
  8  9  1  0  0  0
  9 10  1  0  0  0
 10 11  1  0  0  0
 11 12  1  0  0  0
 11 13  1  0  0  0
 19 20  1  0  0  0
 20 21  2  0  0  0
 21 16  1  0  0  0
 11  1  1  0  0  0
  9  2  1  0  0  0
 13  3  1  0  0  0
  8  4  1  0  0  0
 13  6  1  0  0  0
 10  7  1  0  0  0
 12 14  1  0  0  0
M  END
> <minimizedAffinity>
-6.12751

> <CNNscore>
0.4222371578

> <CNNaffinity>
4.6550364494

> <CNN_VS>
1.9655293226

> <CNNaffinity_variance>
0.4233709276

$$$$
[H]OC12N(C([H])([H])c3c([H])c([H])c(OC([H])([H])[H])c([H])c3[H])C3([H])C4([H])C5([H])C([H])([H])C([H])(C14[H])C1([H])C2([H])C3([H])C51[H]


 23 29  0  0  0  0  0  0  0  0999 V2000
  153.8849  136.3719  188.2354 N   0  0  0  0  0  0  0  0  0  0  0  0
  153.5744  137.2347  189.3672 C   0  0  0  0  0  0  0  0  0  0  0  0
  154.2709  136.4607  190.4650 C   0  0  0  0  0  0  0  0  0  0  0  0
  154.8022  137.5138  191.3934 C   0  0  0  0  0  0  0  0  0  0  0  0
  156.1375  136.8771  191.7970 C   0  0  0  0  0  0  0  0  0  0  0  0
  156.6404  136.6398  190.3654 C   0  0  0  0  0  0  0  0  0  0  0  0
  156.4904  138.0027  189.7694 C   0  0  0  0  0  0  0  0  0  0  0  0
  155.2536  138.5892  190.4653 C   0  0  0  0  0  0  0  0  0  0  0  0
  154.4576  138.4303  189.2058 C   0  0  0  0  0  0  0  0  0  0  0  0
  155.6982  137.8543  188.5193 C   0  0  0  0  0  0  0  0  0  0  0  0
  155.3224  136.4043  188.3510 C   0  0  0  0  0  0  0  0  0  0  0  0
  156.0319  135.7178  187.4343 O   0  0  0  0  0  0  0  0  0  0  0  0
  155.4950  135.8877  189.7783 C   0  0  0  0  0  0  0  0  0  0  0  0
  156.8295  136.2238  187.1425 H   0  0  0  0  0  0  0  0  0  0  0  0
  153.3519  136.8578  187.0057 C   0  0  0  0  0  0  0  0  0  0  0  0
  149.1937  135.7370  186.7883 C   0  0  0  0  0  0  0  0  0  0  0  0
  150.1709  134.8102  187.0781 C   0  0  0  0  0  0  0  0  0  0  0  0
  151.5002  135.1659  187.1447 C   0  0  0  0  0  0  0  0  0  0  0  0
  151.9217  136.4734  186.9235 C   0  0  0  0  0  0  0  0  0  0  0  0
  150.9152  137.3956  186.6316 C   0  0  0  0  0  0  0  0  0  0  0  0
  149.5872  137.0372  186.5658 C   0  0  0  0  0  0  0  0  0  0  0  0
  146.8147  136.3219  186.6709 C   0  0  0  0  0  0  0  0  0  0  0  0
  147.8471  135.3583  186.7246 O   0  0  0  0  0  0  0  0  0  0  0  0
 22 23  1  0  0  0
 23 16  1  0  0  0
 16 17  2  0  0  0
 17 18  1  0  0  0
 18 19  2  0  0  0
 19 15  1  0  0  0
 15  1  1  0  0  0
  1  2  1  0  0  0
  2  3  1  0  0  0
  3  4  1  0  0  0
  4  5  1  0  0  0
  5  6  1  0  0  0
  6  7  1  0  0  0
  7  8  1  0  0  0
  8  9  1  0  0  0
  9 10  1  0  0  0
 10 11  1  0  0  0
 11 12  1  0  0  0
 11 13  1  0  0  0
 19 20  1  0  0  0
 20 21  2  0  0  0
 21 16  1  0  0  0
 11  1  1  0  0  0
  9  2  1  0  0  0
 13  3  1  0  0  0
  8  4  1  0  0  0
 13  6  1  0  0  0
 10  7  1  0  0  0
 12 14  1  0  0  0
M  END
> <minimizedAffinity>
-5.56223

> <CNNscore>
0.4197990000

> <CNNaffinity>
4.6829690933

> <CNN_VS>
1.9659057856

> <CNNaffinity_variance>
0.1934964955

$$$$
[H]OC12N(C([H])([H])c3c([H])c([H])c(OC([H])([H])[H])c([H])c3[H])C3([H])C4([H])C5([H])C([H])([H])C([H])(C14[H])C1([H])C2([H])C3([H])C51[H]


 23 29  0  0  0  0  0  0  0  0999 V2000
  155.0621  136.1382  188.1317 N   0  0  0  0  0  0  0  0  0  0  0  0
  156.2349  136.6916  188.7953 C   0  0  0  0  0  0  0  0  0  0  0  0
  155.6637  138.0218  189.2354 C   0  0  0  0  0  0  0  0  0  0  0  0
  156.3156  138.2951  190.5596 C   0  0  0  0  0  0  0  0  0  0  0  0
  155.1496  138.9486  191.3111 C   0  0  0  0  0  0  0  0  0  0  0  0
  154.1397  137.8212  191.0503 C   0  0  0  0  0  0  0  0  0  0  0  0
  154.9004  136.6262  191.5284 C   0  0  0  0  0  0  0  0  0  0  0  0
  156.3649  136.9496  191.1988 C   0  0  0  0  0  0  0  0  0  0  0  0
  156.3463  135.9458  190.0864 C   0  0  0  0  0  0  0  0  0  0  0  0
  154.8893  135.6253  190.4281 C   0  0  0  0  0  0  0  0  0  0  0  0
  154.1523  136.2071  189.2490 C   0  0  0  0  0  0  0  0  0  0  0  0
  152.9005  135.7479  189.0559 O   0  0  0  0  0  0  0  0  0  0  0  0
  154.2198  137.6998  189.5667 C   0  0  0  0  0  0  0  0  0  0  0  0
  152.5802  135.2341  189.8375 H   0  0  0  0  0  0  0  0  0  0  0  0
  155.2902  134.8357  187.5988 C   0  0  0  0  0  0  0  0  0  0  0  0
  154.2156  134.8574  183.4228 C   0  0  0  0  0  0  0  0  0  0  0  0
  153.9252  135.9259  184.2424 C   0  0  0  0  0  0  0  0  0  0  0  0
  154.2648  135.9193  185.5776 C   0  0  0  0  0  0  0  0  0  0  0  0
  154.9155  134.8379  186.1637 C   0  0  0  0  0  0  0  0  0  0  0  0
  155.1998  133.7666  185.3151 C   0  0  0  0  0  0  0  0  0  0  0  0
  154.8592  133.7760  183.9808 C   0  0  0  0  0  0  0  0  0  0  0  0
  153.1069  133.8376  181.4872 C   0  0  0  0  0  0  0  0  0  0  0  0
  153.8633  134.8807  182.0678 O   0  0  0  0  0  0  0  0  0  0  0  0
 22 23  1  0  0  0
 23 16  1  0  0  0
 16 17  2  0  0  0
 17 18  1  0  0  0
 18 19  2  0  0  0
 19 15  1  0  0  0
 15  1  1  0  0  0
  1  2  1  0  0  0
  2  3  1  0  0  0
  3  4  1  0  0  0
  4  5  1  0  0  0
  5  6  1  0  0  0
  6  7  1  0  0  0
  7  8  1  0  0  0
  8  9  1  0  0  0
  9 10  1  0  0  0
 10 11  1  0  0  0
 11 12  1  0  0  0
 11 13  1  0  0  0
 19 20  1  0  0  0
 20 21  2  0  0  0
 21 16  1  0  0  0
 11  1  1  0  0  0
  9  2  1  0  0  0
 13  3  1  0  0  0
  8  4  1  0  0  0
 13  6  1  0  0  0
 10  7  1  0  0  0
 12 14  1  0  0  0
M  END
> <minimizedAffinity>
-5.64055

> <CNNscore>
0.4193718731

> <CNNaffinity>
4.7899084091

> <CNN_VS>
2.0087528229

> <CNNaffinity_variance>
0.2115351856

$$$$
[H]OC12N(C([H])([H])c3c([H])c([H])c(OC([H])([H])[H])c([H])c3[H])C3([H])C4([H])C5([H])C([H])([H])C([H])(C14[H])C1([H])C2([H])C3([H])C51[H]


 23 29  0  0  0  0  0  0  0  0999 V2000
  155.0060  135.1994  187.4266 N   0  0  0  0  0  0  0  0  0  0  0  0
  154.7322  135.1605  188.8568 C   0  0  0  0  0  0  0  0  0  0  0  0
  155.6643  136.2604  189.3157 C   0  0  0  0  0  0  0  0  0  0  0  0
  154.9384  136.9243  190.4495 C   0  0  0  0  0  0  0  0  0  0  0  0
  155.3324  138.3868  190.2101 C   0  0  0  0  0  0  0  0  0  0  0  0
  154.8873  138.4336  188.7409 C   0  0  0  0  0  0  0  0  0  0  0  0
  153.4818  137.9338  188.8415 C   0  0  0  0  0  0  0  0  0  0  0  0
  153.5193  136.9199  189.9941 C   0  0  0  0  0  0  0  0  0  0  0  0
  153.3861  135.7907  189.0181 C   0  0  0  0  0  0  0  0  0  0  0  0
  153.3417  136.8099  187.8772 C   0  0  0  0  0  0  0  0  0  0  0  0
  154.6685  136.5833  187.1987 C   0  0  0  0  0  0  0  0  0  0  0  0
  154.7672  137.0436  185.9364 O   0  0  0  0  0  0  0  0  0  0  0  0
  155.6214  137.2637  188.1799 C   0  0  0  0  0  0  0  0  0  0  0  0
  154.0103  137.6376  185.7089 H   0  0  0  0  0  0  0  0  0  0  0  0
  154.2424  134.2469  186.6903 C   0  0  0  0  0  0  0  0  0  0  0  0
  156.8352  132.3439  183.8179 C   0  0  0  0  0  0  0  0  0  0  0  0
  155.7355  133.0712  183.4184 C   0  0  0  0  0  0  0  0  0  0  0  0
  154.9043  133.6770  184.3348 C   0  0  0  0  0  0  0  0  0  0  0  0
  155.1319  133.5856  185.7045 C   0  0  0  0  0  0  0  0  0  0  0  0
  156.2511  132.8442  186.0867 C   0  0  0  0  0  0  0  0  0  0  0  0
  157.0804  132.2397  185.1684 C   0  0  0  0  0  0  0  0  0  0  0  0
  157.7651  132.2263  181.5514 C   0  0  0  0  0  0  0  0  0  0  0  0
  157.6697  131.7345  182.8729 O   0  0  0  0  0  0  0  0  0  0  0  0
 22 23  1  0  0  0
 23 16  1  0  0  0
 16 17  2  0  0  0
 17 18  1  0  0  0
 18 19  2  0  0  0
 19 15  1  0  0  0
 15  1  1  0  0  0
  1  2  1  0  0  0
  2  3  1  0  0  0
  3  4  1  0  0  0
  4  5  1  0  0  0
  5  6  1  0  0  0
  6  7  1  0  0  0
  7  8  1  0  0  0
  8  9  1  0  0  0
  9 10  1  0  0  0
 10 11  1  0  0  0
 11 12  1  0  0  0
 11 13  1  0  0  0
 19 20  1  0  0  0
 20 21  2  0  0  0
 21 16  1  0  0  0
 11  1  1  0  0  0
  9  2  1  0  0  0
 13  3  1  0  0  0
  8  4  1  0  0  0
 13  6  1  0  0  0
 10  7  1  0  0  0
 12 14  1  0  0  0
M  END
> <minimizedAffinity>
-4.84075

> <CNNscore>
0.4148724973

> <CNNaffinity>
4.6006827354

> <CNN_VS>
1.9086967707

> <CNNaffinity_variance>
0.3248205781

$$$$
[H]OC12N(C([H])([H])c3c([H])c([H])c(OC([H])([H])[H])c([H])c3[H])C3([H])C4([H])C5([H])C([H])([H])C([H])(C14[H])C1([H])C2([H])C3([H])C51[H]


 23 29  0  0  0  0  0  0  0  0999 V2000
  153.9189  135.5872  191.3791 N   0  0  0  0  0  0  0  0  0  0  0  0
  152.9773  136.6876  191.5356 C   0  0  0  0  0  0  0  0  0  0  0  0
  151.7340  136.0284  190.9799 C   0  0  0  0  0  0  0  0  0  0  0  0
  150.6099  136.5796  191.8081 C   0  0  0  0  0  0  0  0  0  0  0  0
  149.7167  135.3383  191.9212 C   0  0  0  0  0  0  0  0  0  0  0  0
  150.8126  134.4005  192.4488 C   0  0  0  0  0  0  0  0  0  0  0  0
  151.3377  135.1827  193.6097 C   0  0  0  0  0  0  0  0  0  0  0  0
  151.1975  136.6491  193.1760 C   0  0  0  0  0  0  0  0  0  0  0  0
  152.6822  136.7491  193.0000 C   0  0  0  0  0  0  0  0  0  0  0  0
  152.8117  135.2893  193.4411 C   0  0  0  0  0  0  0  0  0  0  0  0
  153.2050  134.6044  192.1572 C   0  0  0  0  0  0  0  0  0  0  0  0
  153.7734  133.3904  192.2911 O   0  0  0  0  0  0  0  0  0  0  0  0
  151.8704  134.5824  191.4142 C   0  0  0  0  0  0  0  0  0  0  0  0
  153.6717  133.0440  193.2114 H   0  0  0  0  0  0  0  0  0  0  0  0
  155.2289  135.9091  191.8403 C   0  0  0  0  0  0  0  0  0  0  0  0
  158.0778  134.6047  188.8778 C   0  0  0  0  0  0  0  0  0  0  0  0
  158.0030  134.0011  190.1140 C   0  0  0  0  0  0  0  0  0  0  0  0
  157.0956  134.4187  191.0628 C   0  0  0  0  0  0  0  0  0  0  0  0
  156.2126  135.4668  190.8221 C   0  0  0  0  0  0  0  0  0  0  0  0
  156.3058  136.0637  189.5638 C   0  0  0  0  0  0  0  0  0  0  0  0
  157.2137  135.6441  188.6172 C   0  0  0  0  0  0  0  0  0  0  0  0
  160.2508  134.8161  187.7603 C   0  0  0  0  0  0  0  0  0  0  0  0
  159.0060  134.1675  187.9250 O   0  0  0  0  0  0  0  0  0  0  0  0
 22 23  1  0  0  0
 23 16  1  0  0  0
 16 17  2  0  0  0
 17 18  1  0  0  0
 18 19  2  0  0  0
 19 15  1  0  0  0
 15  1  1  0  0  0
  1  2  1  0  0  0
  2  3  1  0  0  0
  3  4  1  0  0  0
  4  5  1  0  0  0
  5  6  1  0  0  0
  6  7  1  0  0  0
  7  8  1  0  0  0
  8  9  1  0  0  0
  9 10  1  0  0  0
 10 11  1  0  0  0
 11 12  1  0  0  0
 11 13  1  0  0  0
 19 20  1  0  0  0
 20 21  2  0  0  0
 21 16  1  0  0  0
 11  1  1  0  0  0
  9  2  1  0  0  0
 13  3  1  0  0  0
  8  4  1  0  0  0
 13  6  1  0  0  0
 10  7  1  0  0  0
 12 14  1  0  0  0
M  END
> <minimizedAffinity>
-5.84600

> <CNNscore>
0.4127780199

> <CNNaffinity>
4.7367606163

> <CNN_VS>
1.9552307129

> <CNNaffinity_variance>
0.1144090444

$$$$
[H]OC12N(C([H])([H])c3c([H])c([H])c(OC([H])([H])[H])c([H])c3[H])C3([H])C4([H])C5([H])C([H])([H])C([H])(C14[H])C1([H])C2([H])C3([H])C51[H]


 23 29  0  0  0  0  0  0  0  0999 V2000
  152.9772  136.7424  190.7074 N   0  0  0  0  0  0  0  0  0  0  0  0
  152.7798  137.1051  192.1043 C   0  0  0  0  0  0  0  0  0  0  0  0
  151.2831  136.9054  192.2011 C   0  0  0  0  0  0  0  0  0  0  0  0
  151.0593  136.3818  193.5900 C   0  0  0  0  0  0  0  0  0  0  0  0
  149.9294  135.3788  193.3276 C   0  0  0  0  0  0  0  0  0  0  0  0
  150.6528  134.6120  192.2107 C   0  0  0  0  0  0  0  0  0  0  0  0
  151.9517  134.2805  192.8727 C   0  0  0  0  0  0  0  0  0  0  0  0
  152.2211  135.4726  193.8022 C   0  0  0  0  0  0  0  0  0  0  0  0
  153.3105  135.9496  192.8907 C   0  0  0  0  0  0  0  0  0  0  0  0
  153.0393  134.7536  191.9751 C   0  0  0  0  0  0  0  0  0  0  0  0
  152.4216  135.4126  190.7683 C   0  0  0  0  0  0  0  0  0  0  0  0
  152.4325  134.6857  189.6341 O   0  0  0  0  0  0  0  0  0  0  0  0
  151.0194  135.7242  191.2881 C   0  0  0  0  0  0  0  0  0  0  0  0
  152.6743  133.7437  189.8117 H   0  0  0  0  0  0  0  0  0  0  0  0
  154.3412  136.8253  190.3010 C   0  0  0  0  0  0  0  0  0  0  0  0
  154.4988  138.4650  186.3159 C   0  0  0  0  0  0  0  0  0  0  0  0
  155.5924  137.8441  186.8785 C   0  0  0  0  0  0  0  0  0  0  0  0
  155.5448  137.3225  188.1527 C   0  0  0  0  0  0  0  0  0  0  0  0
  154.3950  137.3962  188.9331 C   0  0  0  0  0  0  0  0  0  0  0  0
  153.2995  138.0292  188.3435 C   0  0  0  0  0  0  0  0  0  0  0  0
  153.3499  138.5496  187.0695 C   0  0  0  0  0  0  0  0  0  0  0  0
  155.7696  139.5129  184.4986 C   0  0  0  0  0  0  0  0  0  0  0  0
  154.5645  138.9896  185.0193 O   0  0  0  0  0  0  0  0  0  0  0  0
 22 23  1  0  0  0
 23 16  1  0  0  0
 16 17  2  0  0  0
 17 18  1  0  0  0
 18 19  2  0  0  0
 19 15  1  0  0  0
 15  1  1  0  0  0
  1  2  1  0  0  0
  2  3  1  0  0  0
  3  4  1  0  0  0
  4  5  1  0  0  0
  5  6  1  0  0  0
  6  7  1  0  0  0
  7  8  1  0  0  0
  8  9  1  0  0  0
  9 10  1  0  0  0
 10 11  1  0  0  0
 11 12  1  0  0  0
 11 13  1  0  0  0
 19 20  1  0  0  0
 20 21  2  0  0  0
 21 16  1  0  0  0
 11  1  1  0  0  0
  9  2  1  0  0  0
 13  3  1  0  0  0
  8  4  1  0  0  0
 13  6  1  0  0  0
 10  7  1  0  0  0
 12 14  1  0  0  0
M  END
> <minimizedAffinity>
-6.10383

> <CNNscore>
0.4090244472

> <CNNaffinity>
4.7983050346

> <CNN_VS>
1.9626240730

> <CNNaffinity_variance>
0.2432046831

$$$$
[H]OC12N(C([H])([H])c3c([H])c([H])c(OC([H])([H])[H])c([H])c3[H])C3([H])C4([H])C5([H])C([H])([H])C([H])(C14[H])C1([H])C2([H])C3([H])C51[H]


 23 29  0  0  0  0  0  0  0  0999 V2000
  152.6137  136.5874  191.5308 N   0  0  0  0  0  0  0  0  0  0  0  0
  151.5798  136.9658  192.4846 C   0  0  0  0  0  0  0  0  0  0  0  0
  150.5433  135.9143  192.1538 C   0  0  0  0  0  0  0  0  0  0  0  0
  149.9025  135.5858  193.4709 C   0  0  0  0  0  0  0  0  0  0  0  0
  149.6862  134.0770  193.3033 C   0  0  0  0  0  0  0  0  0  0  0  0
  151.1398  133.7476  192.9324 C   0  0  0  0  0  0  0  0  0  0  0  0
  151.8847  134.3827  194.0624 C   0  0  0  0  0  0  0  0  0  0  0  0
  151.0478  135.6183  194.4241 C   0  0  0  0  0  0  0  0  0  0  0  0
  152.0860  136.5114  193.8161 C   0  0  0  0  0  0  0  0  0  0  0  0
  152.9162  135.2739  193.4672 C   0  0  0  0  0  0  0  0  0  0  0  0
  152.7940  135.2238  191.9656 C   0  0  0  0  0  0  0  0  0  0  0  0
  153.7248  134.4891  191.3263 O   0  0  0  0  0  0  0  0  0  0  0  0
  151.3706  134.6933  191.8033 C   0  0  0  0  0  0  0  0  0  0  0  0
  154.2404  133.9308  191.9585 H   0  0  0  0  0  0  0  0  0  0  0  0
  153.7691  137.4191  191.6071 C   0  0  0  0  0  0  0  0  0  0  0  0
  155.2745  138.0681  187.6188 C   0  0  0  0  0  0  0  0  0  0  0  0
  153.9225  137.9794  187.8682 C   0  0  0  0  0  0  0  0  0  0  0  0
  153.4400  137.7688  189.1413 C   0  0  0  0  0  0  0  0  0  0  0  0
  154.2897  137.6354  190.2352 C   0  0  0  0  0  0  0  0  0  0  0  0
  155.6549  137.7285  189.9595 C   0  0  0  0  0  0  0  0  0  0  0  0
  156.1344  137.9391  188.6859 C   0  0  0  0  0  0  0  0  0  0  0  0
  154.8694  138.6128  185.2620 C   0  0  0  0  0  0  0  0  0  0  0  0
  155.7479  138.2825  186.3185 O   0  0  0  0  0  0  0  0  0  0  0  0
 22 23  1  0  0  0
 23 16  1  0  0  0
 16 17  2  0  0  0
 17 18  1  0  0  0
 18 19  2  0  0  0
 19 15  1  0  0  0
 15  1  1  0  0  0
  1  2  1  0  0  0
  2  3  1  0  0  0
  3  4  1  0  0  0
  4  5  1  0  0  0
  5  6  1  0  0  0
  6  7  1  0  0  0
  7  8  1  0  0  0
  8  9  1  0  0  0
  9 10  1  0  0  0
 10 11  1  0  0  0
 11 12  1  0  0  0
 11 13  1  0  0  0
 19 20  1  0  0  0
 20 21  2  0  0  0
 21 16  1  0  0  0
 11  1  1  0  0  0
  9  2  1  0  0  0
 13  3  1  0  0  0
  8  4  1  0  0  0
 13  6  1  0  0  0
 10  7  1  0  0  0
 12 14  1  0  0  0
M  END
> <minimizedAffinity>
-6.22055

> <CNNscore>
0.3937345743

> <CNNaffinity>
4.6662325859

> <CNN_VS>
1.8372571468

> <CNNaffinity_variance>
0.2457535714

$$$$
[H]c1nc(N2C([H])([H])C([H])([H])N(C([H])([H])C([H])([H])C([H])([H])Sc3c([H])c([H])c(F)c([H])c3[H])C([H])([H])C2([H])[H])c([H])c([H])c1[H]


 23 25  0  0  0  0  0  0  0  0999 V2000
  157.2470  141.5512  182.4552 N   0  0  0  0  0  0  0  0  0  0  0  0
  158.3767  142.3565  182.0616 C   0  0  0  0  0  0  0  0  0  0  0  0
  159.0974  143.0399  183.1910 C   0  0  0  0  0  0  0  0  0  0  0  0
  159.3216  142.1928  184.3206 N   0  0  0  0  0  0  0  0  0  0  0  0
  158.3824  141.1357  184.5925 C   0  0  0  0  0  0  0  0  0  0  0  0
  157.1005  141.4603  183.8856 C   0  0  0  0  0  0  0  0  0  0  0  0
  160.4557  142.4123  185.1458 C   0  0  0  0  0  0  0  0  0  0  0  0
  161.7422  142.1684  184.7234 C   0  0  0  0  0  0  0  0  0  0  0  0
  162.8418  142.3822  185.5578 C   0  0  0  0  0  0  0  0  0  0  0  0
  162.6528  142.8457  186.8299 C   0  0  0  0  0  0  0  0  0  0  0  0
  161.3590  143.0826  187.2302 C   0  0  0  0  0  0  0  0  0  0  0  0
  160.3148  142.8724  186.4178 N   0  0  0  0  0  0  0  0  0  0  0  0
  156.0285  141.9862  181.8077 C   0  0  0  0  0  0  0  0  0  0  0  0
  155.0996  142.5727  182.8379 C   0  0  0  0  0  0  0  0  0  0  0  0
  153.6807  142.1244  182.4905 C   0  0  0  0  0  0  0  0  0  0  0  0
  153.5858  140.3174  182.5561 S   0  0  0  0  0  0  0  0  0  0  0  0
  149.2492  138.2172  179.0584 F   0  0  0  0  0  0  0  0  0  0  0  0
  150.2335  138.6824  179.8739 C   0  0  0  0  0  0  0  0  0  0  0  0
  151.1057  139.6577  179.4091 C   0  0  0  0  0  0  0  0  0  0  0  0
  152.1076  140.1457  180.2090 C   0  0  0  0  0  0  0  0  0  0  0  0
  152.2922  139.6940  181.4984 C   0  0  0  0  0  0  0  0  0  0  0  0
  151.4192  138.7250  181.9485 C   0  0  0  0  0  0  0  0  0  0  0  0
  150.4024  138.2197  181.1584 C   0  0  0  0  0  0  0  0  0  0  0  0
 17 18  1  0  0  0
 18 19  2  0  0  0
 19 20  1  0  0  0
 20 21  2  0  0  0
 21 16  1  0  0  0
 16 15  1  0  0  0
 15 14  1  0  0  0
 14 13  1  0  0  0
 13  1  1  0  0  0
  1  2  1  0  0  0
  2  3  1  0  0  0
  3  4  1  0  0  0
  4  7  1  0  0  0
  7  8  2  0  0  0
  8  9  1  0  0  0
  9 10  2  0  0  0
 10 11  1  0  0  0
 11 12  2  0  0  0
  4  5  1  0  0  0
  5  6  1  0  0  0
 21 22  1  0  0  0
 22 23  2  0  0  0
 23 18  1  0  0  0
  6  1  1  0  0  0
 12  7  1  0  0  0
M  END
> <minimizedAffinity>
-7.91895

> <CNNscore>
0.6859352589

> <CNNaffinity>
6.3707132339

> <CNN_VS>
4.3698968887

> <CNNaffinity_variance>
0.1900098622

$$$$
[H]c1nc(N2C([H])([H])C([H])([H])N(C([H])([H])C([H])([H])C([H])([H])Sc3c([H])c([H])c(F)c([H])c3[H])C([H])([H])C2([H])[H])c([H])c([H])c1[H]


 23 25  0  0  0  0  0  0  0  0999 V2000
  155.2162  140.8822  183.9630 N   0  0  0  0  0  0  0  0  0  0  0  0
  154.5324  141.8312  183.1195 C   0  0  0  0  0  0  0  0  0  0  0  0
  153.8660  141.2425  181.9066 C   0  0  0  0  0  0  0  0  0  0  0  0
  153.1394  140.0421  182.1808 N   0  0  0  0  0  0  0  0  0  0  0  0
  153.5887  139.1877  183.2492 C   0  0  0  0  0  0  0  0  0  0  0  0
  155.0223  139.5195  183.5374 C   0  0  0  0  0  0  0  0  0  0  0  0
  152.0003  139.7193  181.3975 C   0  0  0  0  0  0  0  0  0  0  0  0
  151.9114  140.0129  180.0563 C   0  0  0  0  0  0  0  0  0  0  0  0
  150.7752  139.6946  179.3088 C   0  0  0  0  0  0  0  0  0  0  0  0
  149.7150  139.0750  179.9095 C   0  0  0  0  0  0  0  0  0  0  0  0
  149.8262  138.7910  181.2502 C   0  0  0  0  0  0  0  0  0  0  0  0
  150.9229  139.1030  181.9534 N   0  0  0  0  0  0  0  0  0  0  0  0
  156.6165  141.2132  184.1147 C   0  0  0  0  0  0  0  0  0  0  0  0
  157.4033  139.9512  184.3520 C   0  0  0  0  0  0  0  0  0  0  0  0
  158.6029  139.9686  183.4056 C   0  0  0  0  0  0  0  0  0  0  0  0
  159.2133  141.6648  183.2364 S   0  0  0  0  0  0  0  0  0  0  0  0
  163.0499  143.0534  187.5727 F   0  0  0  0  0  0  0  0  0  0  0  0
  162.1910  142.7308  186.5685 C   0  0  0  0  0  0  0  0  0  0  0  0
  160.8217  142.8011  186.7877 C   0  0  0  0  0  0  0  0  0  0  0  0
  159.9319  142.4820  185.7936 C   0  0  0  0  0  0  0  0  0  0  0  0
  160.3531  142.0807  184.5437 C   0  0  0  0  0  0  0  0  0  0  0  0
  161.7158  142.0149  184.3384 C   0  0  0  0  0  0  0  0  0  0  0  0
  162.6298  142.3323  185.3270 C   0  0  0  0  0  0  0  0  0  0  0  0
 17 18  1  0  0  0
 18 19  2  0  0  0
 19 20  1  0  0  0
 20 21  2  0  0  0
 21 16  1  0  0  0
 16 15  1  0  0  0
 15 14  1  0  0  0
 14 13  1  0  0  0
 13  1  1  0  0  0
  1  2  1  0  0  0
  2  3  1  0  0  0
  3  4  1  0  0  0
  4  7  1  0  0  0
  7  8  2  0  0  0
  8  9  1  0  0  0
  9 10  2  0  0  0
 10 11  1  0  0  0
 11 12  2  0  0  0
  4  5  1  0  0  0
  5  6  1  0  0  0
 21 22  1  0  0  0
 22 23  2  0  0  0
 23 18  1  0  0  0
  6  1  1  0  0  0
 12  7  1  0  0  0
M  END
> <minimizedAffinity>
-8.17447

> <CNNscore>
0.5376182795

> <CNNaffinity>
6.0835018158

> <CNN_VS>
3.2706017494

> <CNNaffinity_variance>
0.1122208089

$$$$
[H]c1nc(N2C([H])([H])C([H])([H])N(C([H])([H])C([H])([H])C([H])([H])Sc3c([H])c([H])c(F)c([H])c3[H])C([H])([H])C2([H])[H])c([H])c([H])c1[H]


 23 25  0  0  0  0  0  0  0  0999 V2000
  153.2247  139.6472  181.7824 N   0  0  0  0  0  0  0  0  0  0  0  0
  152.4782  138.5867  182.4132 C   0  0  0  0  0  0  0  0  0  0  0  0
  151.0322  138.4970  182.0099 C   0  0  0  0  0  0  0  0  0  0  0  0
  150.8230  138.6304  180.6019 N   0  0  0  0  0  0  0  0  0  0  0  0
  151.7420  139.4326  179.8368 C   0  0  0  0  0  0  0  0  0  0  0  0
  152.4586  140.3481  180.7836 C   0  0  0  0  0  0  0  0  0  0  0  0
  149.7200  137.9760  179.9933 C   0  0  0  0  0  0  0  0  0  0  0  0
  148.9477  138.5676  179.0203 C   0  0  0  0  0  0  0  0  0  0  0  0
  147.8604  137.9072  178.4437 C   0  0  0  0  0  0  0  0  0  0  0  0
  147.5414  136.6397  178.8445 C   0  0  0  0  0  0  0  0  0  0  0  0
  148.3271  136.0685  179.8175 C   0  0  0  0  0  0  0  0  0  0  0  0
  149.3667  136.7153  180.3610 N   0  0  0  0  0  0  0  0  0  0  0  0
  153.8045  140.5460  182.7567 C   0  0  0  0  0  0  0  0  0  0  0  0
  154.7001  139.7657  183.6826 C   0  0  0  0  0  0  0  0  0  0  0  0
  155.9293  140.6262  183.9719 C   0  0  0  0  0  0  0  0  0  0  0  0
  157.3287  140.0282  182.9908 S   0  0  0  0  0  0  0  0  0  0  0  0
  159.6490  144.3871  179.6640 F   0  0  0  0  0  0  0  0  0  0  0  0
  159.1189  143.4053  180.4421 C   0  0  0  0  0  0  0  0  0  0  0  0
  158.8076  142.1755  179.8776 C   0  0  0  0  0  0  0  0  0  0  0  0
  158.2721  141.1669  180.6377 C   0  0  0  0  0  0  0  0  0  0  0  0
  158.0210  141.3274  181.9838 C   0  0  0  0  0  0  0  0  0  0  0  0
  158.3346  142.5537  182.5328 C   0  0  0  0  0  0  0  0  0  0  0  0
  158.8752  143.5836  181.7843 C   0  0  0  0  0  0  0  0  0  0  0  0
 17 18  1  0  0  0
 18 19  2  0  0  0
 19 20  1  0  0  0
 20 21  2  0  0  0
 21 16  1  0  0  0
 16 15  1  0  0  0
 15 14  1  0  0  0
 14 13  1  0  0  0
 13  1  1  0  0  0
  1  2  1  0  0  0
  2  3  1  0  0  0
  3  4  1  0  0  0
  4  7  1  0  0  0
  7  8  2  0  0  0
  8  9  1  0  0  0
  9 10  2  0  0  0
 10 11  1  0  0  0
 11 12  2  0  0  0
  4  5  1  0  0  0
  5  6  1  0  0  0
 21 22  1  0  0  0
 22 23  2  0  0  0
 23 18  1  0  0  0
  6  1  1  0  0  0
 12  7  1  0  0  0
M  END
> <minimizedAffinity>
-6.99362

> <CNNscore>
0.4337428212

> <CNNaffinity>
5.6346178055

> <CNN_VS>
2.4439749718

> <CNNaffinity_variance>
0.0537823439

$$$$
[H]c1nc(N2C([H])([H])C([H])([H])N(C([H])([H])C([H])([H])C([H])([H])Sc3c([H])c([H])c(F)c([H])c3[H])C([H])([H])C2([H])[H])c([H])c([H])c1[H]


 23 25  0  0  0  0  0  0  0  0999 V2000
  154.0520  137.4852  189.2653 N   0  0  0  0  0  0  0  0  0  0  0  0
  152.7893  136.8041  189.1181 C   0  0  0  0  0  0  0  0  0  0  0  0
  152.4411  135.8577  190.2338 C   0  0  0  0  0  0  0  0  0  0  0  0
  152.6927  136.3926  191.5355 N   0  0  0  0  0  0  0  0  0  0  0  0
  153.7577  137.3478  191.6992 C   0  0  0  0  0  0  0  0  0  0  0  0
  154.6864  137.2128  190.5298 C   0  0  0  0  0  0  0  0  0  0  0  0
  151.8947  135.9714  192.6314 C   0  0  0  0  0  0  0  0  0  0  0  0
  150.5201  135.9386  192.5823 C   0  0  0  0  0  0  0  0  0  0  0  0
  149.7558  135.5302  193.6779 C   0  0  0  0  0  0  0  0  0  0  0  0
  150.3735  135.1498  194.8366 C   0  0  0  0  0  0  0  0  0  0  0  0
  151.7476  135.1902  194.8626 C   0  0  0  0  0  0  0  0  0  0  0  0
  152.4664  135.5845  193.8032 N   0  0  0  0  0  0  0  0  0  0  0  0
  154.9319  137.2282  188.1459 C   0  0  0  0  0  0  0  0  0  0  0  0
  154.1425  137.3007  186.8654 C   0  0  0  0  0  0  0  0  0  0  0  0
  154.4424  138.6491  186.2122 C   0  0  0  0  0  0  0  0  0  0  0  0
  154.3347  138.4849  184.4122 S   0  0  0  0  0  0  0  0  0  0  0  0
  156.2253  143.4159  181.6625 F   0  0  0  0  0  0  0  0  0  0  0  0
  155.8151  142.2842  182.2959 C   0  0  0  0  0  0  0  0  0  0  0  0
  154.4586  142.0024  182.3870 C   0  0  0  0  0  0  0  0  0  0  0  0
  154.0156  140.8686  183.0196 C   0  0  0  0  0  0  0  0  0  0  0  0
  154.8892  139.9664  183.5884 C   0  0  0  0  0  0  0  0  0  0  0  0
  156.2343  140.2577  183.4913 C   0  0  0  0  0  0  0  0  0  0  0  0
  156.7018  141.3950  182.8577 C   0  0  0  0  0  0  0  0  0  0  0  0
 17 18  1  0  0  0
 18 19  2  0  0  0
 19 20  1  0  0  0
 20 21  2  0  0  0
 21 16  1  0  0  0
 16 15  1  0  0  0
 15 14  1  0  0  0
 14 13  1  0  0  0
 13  1  1  0  0  0
  1  2  1  0  0  0
  2  3  1  0  0  0
  3  4  1  0  0  0
  4  7  1  0  0  0
  7  8  2  0  0  0
  8  9  1  0  0  0
  9 10  2  0  0  0
 10 11  1  0  0  0
 11 12  2  0  0  0
  4  5  1  0  0  0
  5  6  1  0  0  0
 21 22  1  0  0  0
 22 23  2  0  0  0
 23 18  1  0  0  0
  6  1  1  0  0  0
 12  7  1  0  0  0
M  END
> <minimizedAffinity>
-5.51428

> <CNNscore>
0.4277633131

> <CNNaffinity>
5.0246763229

> <CNN_VS>
2.1493721008

> <CNNaffinity_variance>
0.0434312001

$$$$
[H]c1nc(N2C([H])([H])C([H])([H])N(C([H])([H])C([H])([H])C([H])([H])Sc3c([H])c([H])c(F)c([H])c3[H])C([H])([H])C2([H])[H])c([H])c([H])c1[H]


 23 25  0  0  0  0  0  0  0  0999 V2000
  153.9716  138.2166  187.3763 N   0  0  0  0  0  0  0  0  0  0  0  0
  152.6915  137.5941  187.6075 C   0  0  0  0  0  0  0  0  0  0  0  0
  152.6501  136.6290  188.7601 C   0  0  0  0  0  0  0  0  0  0  0  0
  153.3093  137.1122  189.9330 N   0  0  0  0  0  0  0  0  0  0  0  0
  154.4199  138.0163  189.7822 C   0  0  0  0  0  0  0  0  0  0  0  0
  154.9441  137.8786  188.3842 C   0  0  0  0  0  0  0  0  0  0  0  0
  152.8598  136.6911  191.2121 C   0  0  0  0  0  0  0  0  0  0  0  0
  153.6583  135.9947  192.0898 C   0  0  0  0  0  0  0  0  0  0  0  0
  153.1897  135.5817  193.3392 C   0  0  0  0  0  0  0  0  0  0  0  0
  151.9072  135.8687  193.7157 C   0  0  0  0  0  0  0  0  0  0  0  0
  151.1278  136.5657  192.8228 C   0  0  0  0  0  0  0  0  0  0  0  0
  151.5921  136.9547  191.6280 N   0  0  0  0  0  0  0  0  0  0  0  0
  154.4585  137.9577  186.0387 C   0  0  0  0  0  0  0  0  0  0  0  0
  154.3801  139.2238  185.2268 C   0  0  0  0  0  0  0  0  0  0  0  0
  155.4351  139.1335  184.1251 C   0  0  0  0  0  0  0  0  0  0  0  0
  156.9523  139.9554  184.6737 S   0  0  0  0  0  0  0  0  0  0  0  0
  159.6118  142.7827  180.1588 F   0  0  0  0  0  0  0  0  0  0  0  0
  159.0031  142.1178  181.1775 C   0  0  0  0  0  0  0  0  0  0  0  0
  158.7915  142.7633  182.3885 C   0  0  0  0  0  0  0  0  0  0  0  0
  158.1802  142.1181  183.4333 C   0  0  0  0  0  0  0  0  0  0  0  0
  157.7523  140.8116  183.3291 C   0  0  0  0  0  0  0  0  0  0  0  0
  157.9683  140.1812  182.1210 C   0  0  0  0  0  0  0  0  0  0  0  0
  158.5826  140.8137  181.0552 C   0  0  0  0  0  0  0  0  0  0  0  0
 17 18  1  0  0  0
 18 19  2  0  0  0
 19 20  1  0  0  0
 20 21  2  0  0  0
 21 16  1  0  0  0
 16 15  1  0  0  0
 15 14  1  0  0  0
 14 13  1  0  0  0
 13  1  1  0  0  0
  1  2  1  0  0  0
  2  3  1  0  0  0
  3  4  1  0  0  0
  4  7  1  0  0  0
  7  8  2  0  0  0
  8  9  1  0  0  0
  9 10  2  0  0  0
 10 11  1  0  0  0
 11 12  2  0  0  0
  4  5  1  0  0  0
  5  6  1  0  0  0
 21 22  1  0  0  0
 22 23  2  0  0  0
 23 18  1  0  0  0
  6  1  1  0  0  0
 12  7  1  0  0  0
M  END
> <minimizedAffinity>
-6.21256

> <CNNscore>
0.4124374986

> <CNNaffinity>
5.2159981728

> <CNN_VS>
2.1512732506

> <CNNaffinity_variance>
0.0758397803

$$$$
[H]c1nc(N2C([H])([H])C([H])([H])N(C([H])([H])C([H])([H])C([H])([H])Sc3c([H])c([H])c(F)c([H])c3[H])C([H])([H])C2([H])[H])c([H])c([H])c1[H]


 23 25  0  0  0  0  0  0  0  0999 V2000
  155.3987  139.7076  184.6095 N   0  0  0  0  0  0  0  0  0  0  0  0
  156.8376  139.6581  184.5253 C   0  0  0  0  0  0  0  0  0  0  0  0
  157.4074  139.9493  183.1644 C   0  0  0  0  0  0  0  0  0  0  0  0
  156.8013  141.0725  182.5202 N   0  0  0  0  0  0  0  0  0  0  0  0
  155.4256  141.3811  182.8127 C   0  0  0  0  0  0  0  0  0  0  0  0
  154.7852  140.1515  183.3838 C   0  0  0  0  0  0  0  0  0  0  0  0
  157.5626  141.8522  181.6103 C   0  0  0  0  0  0  0  0  0  0  0  0
  158.1390  143.0518  181.9590 C   0  0  0  0  0  0  0  0  0  0  0  0
  158.8750  143.8065  181.0425 C   0  0  0  0  0  0  0  0  0  0  0  0
  159.0368  143.3562  179.7619 C   0  0  0  0  0  0  0  0  0  0  0  0
  158.4523  142.1550  179.4363 C   0  0  0  0  0  0  0  0  0  0  0  0
  157.7492  141.4430  180.3269 N   0  0  0  0  0  0  0  0  0  0  0  0
  154.8466  138.4535  185.0740 C   0  0  0  0  0  0  0  0  0  0  0  0
  153.3837  138.3927  184.7211 C   0  0  0  0  0  0  0  0  0  0  0  0
  153.1284  137.0520  184.0341 C   0  0  0  0  0  0  0  0  0  0  0  0
  151.4499  137.0316  183.3556 S   0  0  0  0  0  0  0  0  0  0  0  0
  150.9205  140.6718  178.6738 F   0  0  0  0  0  0  0  0  0  0  0  0
  151.0192  139.8434  179.7480 C   0  0  0  0  0  0  0  0  0  0  0  0
  152.2267  139.2144  180.0207 C   0  0  0  0  0  0  0  0  0  0  0  0
  152.3559  138.3739  181.0970 C   0  0  0  0  0  0  0  0  0  0  0  0
  151.3024  138.1179  181.9487 C   0  0  0  0  0  0  0  0  0  0  0  0
  150.1081  138.7488  181.6673 C   0  0  0  0  0  0  0  0  0  0  0  0
  149.9568  139.5999  180.5874 C   0  0  0  0  0  0  0  0  0  0  0  0
 17 18  1  0  0  0
 18 19  2  0  0  0
 19 20  1  0  0  0
 20 21  2  0  0  0
 21 16  1  0  0  0
 16 15  1  0  0  0
 15 14  1  0  0  0
 14 13  1  0  0  0
 13  1  1  0  0  0
  1  2  1  0  0  0
  2  3  1  0  0  0
  3  4  1  0  0  0
  4  7  1  0  0  0
  7  8  2  0  0  0
  8  9  1  0  0  0
  9 10  2  0  0  0
 10 11  1  0  0  0
 11 12  2  0  0  0
  4  5  1  0  0  0
  5  6  1  0  0  0
 21 22  1  0  0  0
 22 23  2  0  0  0
 23 18  1  0  0  0
  6  1  1  0  0  0
 12  7  1  0  0  0
M  END
> <minimizedAffinity>
-7.18526

> <CNNscore>
0.4036585689

> <CNNaffinity>
5.7974243164

> <CNN_VS>
2.3401799202

> <CNNaffinity_variance>
0.0682076663

$$$$
[H]c1nc(N2C([H])([H])C([H])([H])N(C([H])([H])C([H])([H])C([H])([H])Sc3c([H])c([H])c(F)c([H])c3[H])C([H])([H])C2([H])[H])c([H])c([H])c1[H]


 23 25  0  0  0  0  0  0  0  0999 V2000
  155.2115  139.7040  184.5611 N   0  0  0  0  0  0  0  0  0  0  0  0
  156.6534  139.7163  184.5816 C   0  0  0  0  0  0  0  0  0  0  0  0
  157.3083  139.9635  183.2505 C   0  0  0  0  0  0  0  0  0  0  0  0
  156.7040  141.0234  182.5052 N   0  0  0  0  0  0  0  0  0  0  0  0
  155.2988  141.2831  182.6827 C   0  0  0  0  0  0  0  0  0  0  0  0
  154.6708  140.0561  183.2729 C   0  0  0  0  0  0  0  0  0  0  0  0
  157.4961  141.7898  181.6105 C   0  0  0  0  0  0  0  0  0  0  0  0
  158.1222  142.9568  181.9831 C   0  0  0  0  0  0  0  0  0  0  0  0
  158.8880  143.6994  181.0813 C   0  0  0  0  0  0  0  0  0  0  0  0
  159.0297  143.2697  179.7912 C   0  0  0  0  0  0  0  0  0  0  0  0
  158.3955  142.1010  179.4416 C   0  0  0  0  0  0  0  0  0  0  0  0
  157.6643  141.4002  180.3184 N   0  0  0  0  0  0  0  0  0  0  0  0
  154.6802  138.4512  185.0527 C   0  0  0  0  0  0  0  0  0  0  0  0
  153.4322  138.7194  185.8520 C   0  0  0  0  0  0  0  0  0  0  0  0
  153.6831  138.2342  187.2790 C   0  0  0  0  0  0  0  0  0  0  0  0
  155.1686  137.1994  187.3121 S   0  0  0  0  0  0  0  0  0  0  0  0
  156.9964  136.2565  192.8997 F   0  0  0  0  0  0  0  0  0  0  0  0
  156.5745  136.4938  191.6285 C   0  0  0  0  0  0  0  0  0  0  0  0
  156.6322  135.4764  190.6853 C   0  0  0  0  0  0  0  0  0  0  0  0
  156.2136  135.6865  189.3960 C   0  0  0  0  0  0  0  0  0  0  0  0
  155.7214  136.9061  188.9822 C   0  0  0  0  0  0  0  0  0  0  0  0
  155.6691  137.9087  189.9285 C   0  0  0  0  0  0  0  0  0  0  0  0
  156.0860  137.7177  191.2336 C   0  0  0  0  0  0  0  0  0  0  0  0
 17 18  1  0  0  0
 18 19  2  0  0  0
 19 20  1  0  0  0
 20 21  2  0  0  0
 21 16  1  0  0  0
 16 15  1  0  0  0
 15 14  1  0  0  0
 14 13  1  0  0  0
 13  1  1  0  0  0
  1  2  1  0  0  0
  2  3  1  0  0  0
  3  4  1  0  0  0
  4  7  1  0  0  0
  7  8  2  0  0  0
  8  9  1  0  0  0
  9 10  2  0  0  0
 10 11  1  0  0  0
 11 12  2  0  0  0
  4  5  1  0  0  0
  5  6  1  0  0  0
 21 22  1  0  0  0
 22 23  2  0  0  0
 23 18  1  0  0  0
  6  1  1  0  0  0
 12  7  1  0  0  0
M  END
> <minimizedAffinity>
-7.18152

> <CNNscore>
0.3957266212

> <CNNaffinity>
5.5399193764

> <CNN_VS>
2.1922936440

> <CNNaffinity_variance>
0.0165940188

$$$$
[H]c1nc(N2C([H])([H])C([H])([H])N(C([H])([H])C([H])([H])C([H])([H])Sc3c([H])c([H])c(F)c([H])c3[H])C([H])([H])C2([H])[H])c([H])c([H])c1[H]


 23 25  0  0  0  0  0  0  0  0999 V2000
  154.8442  137.2515  188.2567 N   0  0  0  0  0  0  0  0  0  0  0  0
  155.4363  137.5244  189.5430 C   0  0  0  0  0  0  0  0  0  0  0  0
  154.4573  137.7127  190.6690 C   0  0  0  0  0  0  0  0  0  0  0  0
  153.4061  136.7438  190.6794 N   0  0  0  0  0  0  0  0  0  0  0  0
  152.9742  136.1751  189.4290 C   0  0  0  0  0  0  0  0  0  0  0  0
  153.4141  137.0905  188.3259 C   0  0  0  0  0  0  0  0  0  0  0  0
  152.8128  136.3681  191.9132 C   0  0  0  0  0  0  0  0  0  0  0  0
  153.4086  135.4899  192.7888 C   0  0  0  0  0  0  0  0  0  0  0  0
  152.8000  135.1271  193.9926 C   0  0  0  0  0  0  0  0  0  0  0  0
  151.5809  135.6490  194.3250 C   0  0  0  0  0  0  0  0  0  0  0  0
  151.0048  136.5245  193.4351 C   0  0  0  0  0  0  0  0  0  0  0  0
  151.6014  136.8624  192.2843 N   0  0  0  0  0  0  0  0  0  0  0  0
  155.2363  138.2326  187.2683 C   0  0  0  0  0  0  0  0  0  0  0  0
  154.6750  137.8397  185.9271 C   0  0  0  0  0  0  0  0  0  0  0  0
  155.3857  138.6769  184.8646 C   0  0  0  0  0  0  0  0  0  0  0  0
  154.1686  139.6737  183.9682 S   0  0  0  0  0  0  0  0  0  0  0  0
  156.4857  144.8242  182.0830 F   0  0  0  0  0  0  0  0  0  0  0  0
  155.9355  143.6550  182.5078 C   0  0  0  0  0  0  0  0  0  0  0  0
  156.7572  142.6467  182.9937 C   0  0  0  0  0  0  0  0  0  0  0  0
  156.2306  141.4572  183.4290 C   0  0  0  0  0  0  0  0  0  0  0  0
  154.8742  141.2114  183.4038 C   0  0  0  0  0  0  0  0  0  0  0  0
  154.0684  142.2209  182.9189 C   0  0  0  0  0  0  0  0  0  0  0  0
  154.5791  143.4275  182.4753 C   0  0  0  0  0  0  0  0  0  0  0  0
 17 18  1  0  0  0
 18 19  2  0  0  0
 19 20  1  0  0  0
 20 21  2  0  0  0
 21 16  1  0  0  0
 16 15  1  0  0  0
 15 14  1  0  0  0
 14 13  1  0  0  0
 13  1  1  0  0  0
  1  2  1  0  0  0
  2  3  1  0  0  0
  3  4  1  0  0  0
  4  7  1  0  0  0
  7  8  2  0  0  0
  8  9  1  0  0  0
  9 10  2  0  0  0
 10 11  1  0  0  0
 11 12  2  0  0  0
  4  5  1  0  0  0
  5  6  1  0  0  0
 21 22  1  0  0  0
 22 23  2  0  0  0
 23 18  1  0  0  0
  6  1  1  0  0  0
 12  7  1  0  0  0
M  END
> <minimizedAffinity>
-6.01842

> <CNNscore>
0.3765841424

> <CNNaffinity>
5.1045131683

> <CNN_VS>
1.9222787619

> <CNNaffinity_variance>
0.0070858970

$$$$
[H]c1nc(N2C([H])([H])C([H])([H])N(C([H])([H])C([H])([H])C([H])([H])Sc3c([H])c([H])c(F)c([H])c3[H])C([H])([H])C2([H])[H])c([H])c([H])c1[H]


 23 25  0  0  0  0  0  0  0  0999 V2000
  153.4804  137.4055  183.1403 N   0  0  0  0  0  0  0  0  0  0  0  0
  152.3708  136.4848  183.1702 C   0  0  0  0  0  0  0  0  0  0  0  0
  151.0100  137.1243  183.1393 C   0  0  0  0  0  0  0  0  0  0  0  0
  150.8966  138.1787  182.1804 N   0  0  0  0  0  0  0  0  0  0  0  0
  152.0686  138.9489  181.8540 C   0  0  0  0  0  0  0  0  0  0  0  0
  153.0632  138.7730  182.9621 C   0  0  0  0  0  0  0  0  0  0  0  0
  149.6391  138.4436  181.5772 C   0  0  0  0  0  0  0  0  0  0  0  0
  148.6364  139.1339  182.2184 C   0  0  0  0  0  0  0  0  0  0  0  0
  147.4031  139.3730  181.6077 C   0  0  0  0  0  0  0  0  0  0  0  0
  147.1696  138.9166  180.3404 C   0  0  0  0  0  0  0  0  0  0  0  0
  148.1859  138.2298  179.7191 C   0  0  0  0  0  0  0  0  0  0  0  0
  149.3632  138.0085  180.3185 N   0  0  0  0  0  0  0  0  0  0  0  0
  154.3418  137.2425  184.2912 C   0  0  0  0  0  0  0  0  0  0  0  0
  153.9576  138.2459  185.3465 C   0  0  0  0  0  0  0  0  0  0  0  0
  153.4529  137.4693  186.5619 C   0  0  0  0  0  0  0  0  0  0  0  0
  153.4116  138.5646  188.0031 S   0  0  0  0  0  0  0  0  0  0  0  0
  156.8956  136.5283  192.3811 F   0  0  0  0  0  0  0  0  0  0  0  0
  156.0814  136.9855  191.3920 C   0  0  0  0  0  0  0  0  0  0  0  0
  156.6260  137.6852  190.3235 C   0  0  0  0  0  0  0  0  0  0  0  0
  155.8294  138.1579  189.3117 C   0  0  0  0  0  0  0  0  0  0  0  0
  154.4648  137.9616  189.3101 C   0  0  0  0  0  0  0  0  0  0  0  0
  153.9358  137.2650  190.3771 C   0  0  0  0  0  0  0  0  0  0  0  0
  154.7212  136.7799  191.4073 C   0  0  0  0  0  0  0  0  0  0  0  0
 17 18  1  0  0  0
 18 19  2  0  0  0
 19 20  1  0  0  0
 20 21  2  0  0  0
 21 16  1  0  0  0
 16 15  1  0  0  0
 15 14  1  0  0  0
 14 13  1  0  0  0
 13  1  1  0  0  0
  1  2  1  0  0  0
  2  3  1  0  0  0
  3  4  1  0  0  0
  4  7  1  0  0  0
  7  8  2  0  0  0
  8  9  1  0  0  0
  9 10  2  0  0  0
 10 11  1  0  0  0
 11 12  2  0  0  0
  4  5  1  0  0  0
  5  6  1  0  0  0
 21 22  1  0  0  0
 22 23  2  0  0  0
 23 18  1  0  0  0
  6  1  1  0  0  0
 12  7  1  0  0  0
M  END
> <minimizedAffinity>
-5.52758

> <CNNscore>
0.3634436429

> <CNNaffinity>
4.8326463699

> <CNN_VS>
1.7563946247

> <CNNaffinity_variance>
0.0239081271

$$$$
[H]c1c([H])c([H])c2c(c1[H])[C@]([H])(c1c([H])c([H])c(F)c([H])c1[H])C([H])([H])C([H])([H])[C@]2([H])N([H])C([H])([H])[H]


 20 22  0  0  0  0  0  0  0  0999 V2000
  157.4186  142.1474  181.7626 C   0  0  0  0  0  0  0  0  0  0  0  0
  158.5654  143.0873  181.5960 C   0  0  0  0  0  0  0  0  0  0  0  0
  159.1716  143.4438  182.9331 C   0  0  0  0  0  0  0  0  0  0  0  0
  159.7974  142.1433  183.4587 C   0  0  0  0  0  0  0  0  0  0  0  0
  158.6217  141.2838  183.7982 C   0  0  0  0  0  0  0  0  0  0  0  0
  158.6590  140.4894  184.9110 C   0  0  0  0  0  0  0  0  0  0  0  0
  157.5614  139.7047  185.2058 C   0  0  0  0  0  0  0  0  0  0  0  0
  156.4413  139.6951  184.4248 C   0  0  0  0  0  0  0  0  0  0  0  0
  156.4370  140.5141  183.3019 C   0  0  0  0  0  0  0  0  0  0  0  0
  157.5141  141.3092  182.9781 C   0  0  0  0  0  0  0  0  0  0  0  0
  160.7221  142.3550  184.5650 C   0  0  0  0  0  0  0  0  0  0  0  0
  162.0568  142.0557  184.4149 C   0  0  0  0  0  0  0  0  0  0  0  0
  162.9644  142.2416  185.4357 C   0  0  0  0  0  0  0  0  0  0  0  0
  162.5416  142.7388  186.6442 C   0  0  0  0  0  0  0  0  0  0  0  0
  163.4480  142.9180  187.6480 F   0  0  0  0  0  0  0  0  0  0  0  0
  161.2210  143.0452  186.8222 C   0  0  0  0  0  0  0  0  0  0  0  0
  160.3075  142.8531  185.7799 C   0  0  0  0  0  0  0  0  0  0  0  0
  156.0820  144.1100  182.1803 C   0  0  0  0  0  0  0  0  0  0  0  0
  156.1243  142.7874  181.6217 N   0  0  0  0  0  0  0  0  0  0  0  0
  155.9389  142.8626  180.5966 H   0  0  0  0  0  0  0  0  0  0  0  0
 18 19  1  0  0  0
 19  1  1  0  0  0
  1  2  1  0  0  0
  2  3  1  0  0  0
  3  4  1  0  0  0
  4 11  1  0  0  0
 11 12  2  0  0  0
 12 13  1  0  0  0
 13 14  2  0  0  0
 14 15  1  0  0  0
 14 16  1  0  0  0
 16 17  2  0  0  0
  4  5  1  0  0  0
  5  6  2  0  0  0
  6  7  1  0  0  0
  7  8  2  0  0  0
  8  9  1  0  0  0
  9 10  2  0  0  0
 10  1  1  0  0  0
 17 11  1  0  0  0
 10  5  1  0  0  0
 19 20  1  0  0  0
M  END
> <minimizedAffinity>
-8.86559

> <CNNscore>
0.6562814116

> <CNNaffinity>
6.2815580368

> <CNN_VS>
4.1224699020

> <CNNaffinity_variance>
0.0360412337

$$$$
[H]c1c([H])c([H])c2c(c1[H])[C@]([H])(c1c([H])c([H])c(F)c([H])c1[H])C([H])([H])C([H])([H])[C@]2([H])N([H])C([H])([H])[H]


 20 22  0  0  0  0  0  0  0  0999 V2000
  156.1967  141.5353  182.0454 C   0  0  0  0  0  0  0  0  0  0  0  0
  157.2563  142.5364  181.7271 C   0  0  0  0  0  0  0  0  0  0  0  0
  157.9746  142.9810  182.9795 C   0  0  0  0  0  0  0  0  0  0  0  0
  158.7350  141.7426  183.4768 C   0  0  0  0  0  0  0  0  0  0  0  0
  157.6597  140.8267  183.9675 C   0  0  0  0  0  0  0  0  0  0  0  0
  157.8646  140.0799  185.0949 C   0  0  0  0  0  0  0  0  0  0  0  0
  156.8571  139.2417  185.5305 C   0  0  0  0  0  0  0  0  0  0  0  0
  155.6645  139.1332  184.8743 C   0  0  0  0  0  0  0  0  0  0  0  0
  155.4896  139.9061  183.7325 C   0  0  0  0  0  0  0  0  0  0  0  0
  156.4730  140.7524  183.2701 C   0  0  0  0  0  0  0  0  0  0  0  0
  159.7547  142.0534  184.4705 C   0  0  0  0  0  0  0  0  0  0  0  0
  161.0879  141.9646  184.1415 C   0  0  0  0  0  0  0  0  0  0  0  0
  162.0834  142.2502  185.0512 C   0  0  0  0  0  0  0  0  0  0  0  0
  161.7532  142.6357  186.3275 C   0  0  0  0  0  0  0  0  0  0  0  0
  162.7463  142.9151  187.2202 F   0  0  0  0  0  0  0  0  0  0  0  0
  160.4364  142.7326  186.6829 C   0  0  0  0  0  0  0  0  0  0  0  0
  159.4332  142.4408  185.7522 C   0  0  0  0  0  0  0  0  0  0  0  0
  154.7336  143.3084  182.7722 C   0  0  0  0  0  0  0  0  0  0  0  0
  154.8559  142.0890  182.0231 N   0  0  0  0  0  0  0  0  0  0  0  0
  154.6368  142.2993  181.0238 H   0  0  0  0  0  0  0  0  0  0  0  0
 18 19  1  0  0  0
 19  1  1  0  0  0
  1  2  1  0  0  0
  2  3  1  0  0  0
  3  4  1  0  0  0
  4 11  1  0  0  0
 11 12  2  0  0  0
 12 13  1  0  0  0
 13 14  2  0  0  0
 14 15  1  0  0  0
 14 16  1  0  0  0
 16 17  2  0  0  0
  4  5  1  0  0  0
  5  6  2  0  0  0
  6  7  1  0  0  0
  7  8  2  0  0  0
  8  9  1  0  0  0
  9 10  2  0  0  0
 10  1  1  0  0  0
 17 11  1  0  0  0
 10  5  1  0  0  0
 19 20  1  0  0  0
M  END
> <minimizedAffinity>
-8.50988

> <CNNscore>
0.6517583728

> <CNNaffinity>
6.2126708031

> <CNN_VS>
4.0491600037

> <CNNaffinity_variance>
0.0713768452

$$$$
[H]c1c([H])c([H])c2c(c1[H])[C@]([H])(c1c([H])c([H])c(F)c([H])c1[H])C([H])([H])C([H])([H])[C@]2([H])N([H])C([H])([H])[H]


 20 22  0  0  0  0  0  0  0  0999 V2000
  153.5110  135.3526  191.7790 C   0  0  0  0  0  0  0  0  0  0  0  0
  153.9127  133.9594  191.4273 C   0  0  0  0  0  0  0  0  0  0  0  0
  154.8494  133.9492  190.2420 C   0  0  0  0  0  0  0  0  0  0  0  0
  156.1395  134.6221  190.7341 C   0  0  0  0  0  0  0  0  0  0  0  0
  155.7612  136.0593  190.8995 C   0  0  0  0  0  0  0  0  0  0  0  0
  156.6516  137.0403  190.5592 C   0  0  0  0  0  0  0  0  0  0  0  0
  156.2803  138.3609  190.7193 C   0  0  0  0  0  0  0  0  0  0  0  0
  155.0558  138.7201  191.2053 C   0  0  0  0  0  0  0  0  0  0  0  0
  154.1756  137.6983  191.5410 C   0  0  0  0  0  0  0  0  0  0  0  0
  154.5130  136.3709  191.3943 C   0  0  0  0  0  0  0  0  0  0  0  0
  157.2773  134.4016  189.8505 C   0  0  0  0  0  0  0  0  0  0  0  0
  158.3690  133.6923  190.2961 C   0  0  0  0  0  0  0  0  0  0  0  0
  159.4650  133.4610  189.4926 C   0  0  0  0  0  0  0  0  0  0  0  0
  159.4849  133.9453  188.2075 C   0  0  0  0  0  0  0  0  0  0  0  0
  160.5749  133.7114  187.4211 F   0  0  0  0  0  0  0  0  0  0  0  0
  158.4140  134.6536  187.7375 C   0  0  0  0  0  0  0  0  0  0  0  0
  157.3061  134.8831  188.5607 C   0  0  0  0  0  0  0  0  0  0  0  0
  151.2081  134.6586  191.6110 C   0  0  0  0  0  0  0  0  0  0  0  0
  152.1691  135.6922  191.3442 N   0  0  0  0  0  0  0  0  0  0  0  0
  151.8879  136.5426  191.8813 H   0  0  0  0  0  0  0  0  0  0  0  0
 18 19  1  0  0  0
 19  1  1  0  0  0
  1  2  1  0  0  0
  2  3  1  0  0  0
  3  4  1  0  0  0
  4 11  1  0  0  0
 11 12  2  0  0  0
 12 13  1  0  0  0
 13 14  2  0  0  0
 14 15  1  0  0  0
 14 16  1  0  0  0
 16 17  2  0  0  0
  4  5  1  0  0  0
  5  6  2  0  0  0
  6  7  1  0  0  0
  7  8  2  0  0  0
  8  9  1  0  0  0
  9 10  2  0  0  0
 10  1  1  0  0  0
 17 11  1  0  0  0
 10  5  1  0  0  0
 19 20  1  0  0  0
M  END
> <minimizedAffinity>
-6.19588

> <CNNscore>
0.6189006567

> <CNNaffinity>
4.6060228348

> <CNN_VS>
2.8506705761

> <CNNaffinity_variance>
0.0416597798

$$$$
[H]c1c([H])c([H])c2c(c1[H])[C@]([H])(c1c([H])c([H])c(F)c([H])c1[H])C([H])([H])C([H])([H])[C@]2([H])N([H])C([H])([H])[H]


 20 22  0  0  0  0  0  0  0  0999 V2000
  157.3312  141.5276  182.5306 C   0  0  0  0  0  0  0  0  0  0  0  0
  157.7579  140.5431  183.5675 C   0  0  0  0  0  0  0  0  0  0  0  0
  159.2119  140.7346  183.9297 C   0  0  0  0  0  0  0  0  0  0  0  0
  159.2835  142.1014  184.6268 C   0  0  0  0  0  0  0  0  0  0  0  0
  159.0393  143.0851  183.5273 C   0  0  0  0  0  0  0  0  0  0  0  0
  159.7346  144.2626  183.5015 C   0  0  0  0  0  0  0  0  0  0  0  0
  159.4936  145.1557  182.4760 C   0  0  0  0  0  0  0  0  0  0  0  0
  158.5856  144.9032  181.4879 C   0  0  0  0  0  0  0  0  0  0  0  0
  157.8968  143.6974  181.5445 C   0  0  0  0  0  0  0  0  0  0  0  0
  158.1122  142.7840  182.5527 C   0  0  0  0  0  0  0  0  0  0  0  0
  160.5295  142.3134  185.3524 C   0  0  0  0  0  0  0  0  0  0  0  0
  160.5015  142.7181  186.6672 C   0  0  0  0  0  0  0  0  0  0  0  0
  161.6565  142.9293  187.3893 C   0  0  0  0  0  0  0  0  0  0  0  0
  162.8795  142.7352  186.7949 C   0  0  0  0  0  0  0  0  0  0  0  0
  164.0164  142.9480  187.5184 F   0  0  0  0  0  0  0  0  0  0  0  0
  162.9381  142.3331  185.4894 C   0  0  0  0  0  0  0  0  0  0  0  0
  161.7600  142.1212  184.7649 C   0  0  0  0  0  0  0  0  0  0  0  0
  158.4964  140.6009  180.6342 C   0  0  0  0  0  0  0  0  0  0  0  0
  157.2254  140.9550  181.2018 N   0  0  0  0  0  0  0  0  0  0  0  0
  156.6589  140.0828  181.2972 H   0  0  0  0  0  0  0  0  0  0  0  0
 18 19  1  0  0  0
 19  1  1  0  0  0
  1  2  1  0  0  0
  2  3  1  0  0  0
  3  4  1  0  0  0
  4 11  1  0  0  0
 11 12  2  0  0  0
 12 13  1  0  0  0
 13 14  2  0  0  0
 14 15  1  0  0  0
 14 16  1  0  0  0
 16 17  2  0  0  0
  4  5  1  0  0  0
  5  6  2  0  0  0
  6  7  1  0  0  0
  7  8  2  0  0  0
  8  9  1  0  0  0
  9 10  2  0  0  0
 10  1  1  0  0  0
 17 11  1  0  0  0
 10  5  1  0  0  0
 19 20  1  0  0  0
M  END
> <minimizedAffinity>
-8.87808

> <CNNscore>
0.6173594594

> <CNNaffinity>
6.2237801552

> <CNN_VS>
3.8423094749

> <CNNaffinity_variance>
0.0673131496

$$$$
[H]c1c([H])c([H])c2c(c1[H])[C@]([H])(c1c([H])c([H])c(F)c([H])c1[H])C([H])([H])C([H])([H])[C@]2([H])N([H])C([H])([H])[H]


 20 22  0  0  0  0  0  0  0  0999 V2000
  149.9135  135.0405  189.7840 C   0  0  0  0  0  0  0  0  0  0  0  0
  150.7619  135.1203  188.5591 C   0  0  0  0  0  0  0  0  0  0  0  0
  151.8015  136.2085  188.6909 C   0  0  0  0  0  0  0  0  0  0  0  0
  152.7511  135.7351  189.8014 C   0  0  0  0  0  0  0  0  0  0  0  0
  151.9354  135.8439  191.0500 C   0  0  0  0  0  0  0  0  0  0  0  0
  152.5210  136.2719  192.2097 C   0  0  0  0  0  0  0  0  0  0  0  0
  151.7482  136.3658  193.3504 C   0  0  0  0  0  0  0  0  0  0  0  0
  150.4206  136.0462  193.3598 C   0  0  0  0  0  0  0  0  0  0  0  0
  149.8576  135.6150  192.1645 C   0  0  0  0  0  0  0  0  0  0  0  0
  150.5988  135.5095  191.0084 C   0  0  0  0  0  0  0  0  0  0  0  0
  154.0057  136.4755  189.8409 C   0  0  0  0  0  0  0  0  0  0  0  0
  155.1725  135.8367  190.1929 C   0  0  0  0  0  0  0  0  0  0  0  0
  156.3800  136.4999  190.2421 C   0  0  0  0  0  0  0  0  0  0  0  0
  156.4384  137.8372  189.9342 C   0  0  0  0  0  0  0  0  0  0  0  0
  157.6385  138.4841  189.9869 F   0  0  0  0  0  0  0  0  0  0  0  0
  155.2948  138.4981  189.5809 C   0  0  0  0  0  0  0  0  0  0  0  0
  154.0741  137.8161  189.5338 C   0  0  0  0  0  0  0  0  0  0  0  0
  147.5683  134.6616  189.3721 C   0  0  0  0  0  0  0  0  0  0  0  0
  148.5996  135.6318  189.6139 N   0  0  0  0  0  0  0  0  0  0  0  0
  148.3770  136.1255  190.5069 H   0  0  0  0  0  0  0  0  0  0  0  0
 18 19  1  0  0  0
 19  1  1  0  0  0
  1  2  1  0  0  0
  2  3  1  0  0  0
  3  4  1  0  0  0
  4 11  1  0  0  0
 11 12  2  0  0  0
 12 13  1  0  0  0
 13 14  2  0  0  0
 14 15  1  0  0  0
 14 16  1  0  0  0
 16 17  2  0  0  0
  4  5  1  0  0  0
  5  6  2  0  0  0
  6  7  1  0  0  0
  7  8  2  0  0  0
  8  9  1  0  0  0
  9 10  2  0  0  0
 10  1  1  0  0  0
 17 11  1  0  0  0
 10  5  1  0  0  0
 19 20  1  0  0  0
M  END
> <minimizedAffinity>
-5.35028

> <CNNscore>
0.5613229275

> <CNNaffinity>
4.4950499535

> <CNN_VS>
2.5231745243

> <CNNaffinity_variance>
0.0253482163

$$$$
[H]c1c([H])c([H])c2c(c1[H])[C@]([H])(c1c([H])c([H])c(F)c([H])c1[H])C([H])([H])C([H])([H])[C@]2([H])N([H])C([H])([H])[H]


 20 22  0  0  0  0  0  0  0  0999 V2000
  155.8379  133.4287  185.6396 C   0  0  0  0  0  0  0  0  0  0  0  0
  154.6469  134.3274  185.6556 C   0  0  0  0  0  0  0  0  0  0  0  0
  154.3694  134.8335  187.0517 C   0  0  0  0  0  0  0  0  0  0  0  0
  155.5572  135.7425  187.4012 C   0  0  0  0  0  0  0  0  0  0  0  0
  156.7038  134.7969  187.5670 C   0  0  0  0  0  0  0  0  0  0  0  0
  157.6288  135.0158  188.5506 C   0  0  0  0  0  0  0  0  0  0  0  0
  158.6788  134.1289  188.6862 C   0  0  0  0  0  0  0  0  0  0  0  0
  158.8247  133.0421  187.8723 C   0  0  0  0  0  0  0  0  0  0  0  0
  157.8671  132.8497  186.8837 C   0  0  0  0  0  0  0  0  0  0  0  0
  156.8073  133.7142  186.7203 C   0  0  0  0  0  0  0  0  0  0  0  0
  155.3111  136.5922  188.5593 C   0  0  0  0  0  0  0  0  0  0  0  0
  156.1499  137.6489  188.8298 C   0  0  0  0  0  0  0  0  0  0  0  0
  155.9523  138.4768  189.9142 C   0  0  0  0  0  0  0  0  0  0  0  0
  154.8927  138.2550  190.7595 C   0  0  0  0  0  0  0  0  0  0  0  0
  154.7069  139.0799  191.8302 F   0  0  0  0  0  0  0  0  0  0  0  0
  154.0425  137.2123  190.5155 C   0  0  0  0  0  0  0  0  0  0  0  0
  154.2515  136.3776  189.4121 C   0  0  0  0  0  0  0  0  0  0  0  0
  154.3479  131.7694  184.7234 C   0  0  0  0  0  0  0  0  0  0  0  0
  155.4964  132.0216  185.5483 N   0  0  0  0  0  0  0  0  0  0  0  0
  156.3176  131.5430  185.1155 H   0  0  0  0  0  0  0  0  0  0  0  0
 18 19  1  0  0  0
 19  1  1  0  0  0
  1  2  1  0  0  0
  2  3  1  0  0  0
  3  4  1  0  0  0
  4 11  1  0  0  0
 11 12  2  0  0  0
 12 13  1  0  0  0
 13 14  2  0  0  0
 14 15  1  0  0  0
 14 16  1  0  0  0
 16 17  2  0  0  0
  4  5  1  0  0  0
  5  6  2  0  0  0
  6  7  1  0  0  0
  7  8  2  0  0  0
  8  9  1  0  0  0
  9 10  2  0  0  0
 10  1  1  0  0  0
 17 11  1  0  0  0
 10  5  1  0  0  0
 19 20  1  0  0  0
M  END
> <minimizedAffinity>
-4.70205

> <CNNscore>
0.5556001067

> <CNNaffinity>
4.5526442528

> <CNN_VS>
2.5294497013

> <CNNaffinity_variance>
0.0497202314

$$$$
[H]c1c([H])c([H])c2c(c1[H])[C@]([H])(c1c([H])c([H])c(F)c([H])c1[H])C([H])([H])C([H])([H])[C@]2([H])N([H])C([H])([H])[H]


 20 22  0  0  0  0  0  0  0  0999 V2000
  155.4594  139.2001  185.0049 C   0  0  0  0  0  0  0  0  0  0  0  0
  156.9034  139.5215  185.1996 C   0  0  0  0  0  0  0  0  0  0  0  0
  157.5537  139.9049  183.8910 C   0  0  0  0  0  0  0  0  0  0  0  0
  156.9023  141.2352  183.4844 C   0  0  0  0  0  0  0  0  0  0  0  0
  155.5043  140.8578  183.1110 C   0  0  0  0  0  0  0  0  0  0  0  0
  154.8954  141.4691  182.0497 C   0  0  0  0  0  0  0  0  0  0  0  0
  153.6044  141.1040  181.7222 C   0  0  0  0  0  0  0  0  0  0  0  0
  152.9158  140.1544  182.4213 C   0  0  0  0  0  0  0  0  0  0  0  0
  153.5643  139.5533  183.4936 C   0  0  0  0  0  0  0  0  0  0  0  0
  154.8512  139.8933  183.8479 C   0  0  0  0  0  0  0  0  0  0  0  0
  157.6319  141.9373  182.4363 C   0  0  0  0  0  0  0  0  0  0  0  0
  158.1380  141.2404  181.3632 C   0  0  0  0  0  0  0  0  0  0  0  0
  158.8333  141.8660  180.3506 C   0  0  0  0  0  0  0  0  0  0  0  0
  159.0362  143.2237  180.3981 C   0  0  0  0  0  0  0  0  0  0  0  0
  159.7265  143.8327  179.3912 F   0  0  0  0  0  0  0  0  0  0  0  0
  158.5447  143.9421  181.4525 C   0  0  0  0  0  0  0  0  0  0  0  0
  157.8401  143.2979  182.4754 C   0  0  0  0  0  0  0  0  0  0  0  0
  154.6712  137.3104  186.2779 C   0  0  0  0  0  0  0  0  0  0  0  0
  155.1794  137.7767  185.0180 N   0  0  0  0  0  0  0  0  0  0  0  0
  154.4475  137.6101  184.2917 H   0  0  0  0  0  0  0  0  0  0  0  0
 18 19  1  0  0  0
 19  1  1  0  0  0
  1  2  1  0  0  0
  2  3  1  0  0  0
  3  4  1  0  0  0
  4 11  1  0  0  0
 11 12  2  0  0  0
 12 13  1  0  0  0
 13 14  2  0  0  0
 14 15  1  0  0  0
 14 16  1  0  0  0
 16 17  2  0  0  0
  4  5  1  0  0  0
  5  6  2  0  0  0
  6  7  1  0  0  0
  7  8  2  0  0  0
  8  9  1  0  0  0
  9 10  2  0  0  0
 10  1  1  0  0  0
 17 11  1  0  0  0
 10  5  1  0  0  0
 19 20  1  0  0  0
M  END
> <minimizedAffinity>
-7.82163

> <CNNscore>
0.4998942912

> <CNNaffinity>
5.6525635719

> <CNN_VS>
2.8256843090

> <CNNaffinity_variance>
0.2114124745

$$$$
[H]c1c([H])c([H])c2c(c1[H])[C@]([H])(c1c([H])c([H])c(F)c([H])c1[H])C([H])([H])C([H])([H])[C@]2([H])N([H])C([H])([H])[H]


 20 22  0  0  0  0  0  0  0  0999 V2000
  154.2735  138.5442  184.7633 C   0  0  0  0  0  0  0  0  0  0  0  0
  155.6212  138.9976  185.2157 C   0  0  0  0  0  0  0  0  0  0  0  0
  156.4226  139.5495  184.0602 C   0  0  0  0  0  0  0  0  0  0  0  0
  155.6947  140.8329  183.6332 C   0  0  0  0  0  0  0  0  0  0  0  0
  154.4271  140.3432  183.0092 C   0  0  0  0  0  0  0  0  0  0  0  0
  153.9283  140.9704  181.9008 C   0  0  0  0  0  0  0  0  0  0  0  0
  152.7568  140.5002  181.3405 C   0  0  0  0  0  0  0  0  0  0  0  0
  152.0803  139.4315  181.8550 C   0  0  0  0  0  0  0  0  0  0  0  0
  152.6150  138.8176  182.9815 C   0  0  0  0  0  0  0  0  0  0  0  0
  153.7811  139.2603  183.5659 C   0  0  0  0  0  0  0  0  0  0  0  0
  156.4957  141.6884  182.7668 C   0  0  0  0  0  0  0  0  0  0  0  0
  156.3512  143.0556  182.8235 C   0  0  0  0  0  0  0  0  0  0  0  0
  157.0894  143.9000  182.0220 C   0  0  0  0  0  0  0  0  0  0  0  0
  157.9998  143.3787  181.1355 C   0  0  0  0  0  0  0  0  0  0  0  0
  158.7244  144.2234  180.3463 F   0  0  0  0  0  0  0  0  0  0  0  0
  158.1647  142.0237  181.0573 C   0  0  0  0  0  0  0  0  0  0  0  0
  157.4108  141.1749  181.8752 C   0  0  0  0  0  0  0  0  0  0  0  0
  154.1478  136.4265  185.9088 C   0  0  0  0  0  0  0  0  0  0  0  0
  154.1616  137.1029  184.6418 N   0  0  0  0  0  0  0  0  0  0  0  0
  153.2525  136.9137  184.1637 H   0  0  0  0  0  0  0  0  0  0  0  0
 18 19  1  0  0  0
 19  1  1  0  0  0
  1  2  1  0  0  0
  2  3  1  0  0  0
  3  4  1  0  0  0
  4 11  1  0  0  0
 11 12  2  0  0  0
 12 13  1  0  0  0
 13 14  2  0  0  0
 14 15  1  0  0  0
 14 16  1  0  0  0
 16 17  2  0  0  0
  4  5  1  0  0  0
  5  6  2  0  0  0
  6  7  1  0  0  0
  7  8  2  0  0  0
  8  9  1  0  0  0
  9 10  2  0  0  0
 10  1  1  0  0  0
 17 11  1  0  0  0
 10  5  1  0  0  0
 19 20  1  0  0  0
M  END
> <minimizedAffinity>
-7.52560

> <CNNscore>
0.4657439291

> <CNNaffinity>
5.4001579285

> <CNN_VS>
2.5150907040

> <CNNaffinity_variance>
0.2935414910

$$$$
[H]c1c([H])c([H])c2c(c1[H])[C@]([H])(c1c([H])c([H])c(F)c([H])c1[H])C([H])([H])C([H])([H])[C@]2([H])N([H])C([H])([H])[H]


 20 22  0  0  0  0  0  0  0  0999 V2000
  153.6520  138.3159  184.5515 C   0  0  0  0  0  0  0  0  0  0  0  0
  154.9050  138.8243  185.1823 C   0  0  0  0  0  0  0  0  0  0  0  0
  155.8022  139.4749  184.1556 C   0  0  0  0  0  0  0  0  0  0  0  0
  155.0513  140.7330  183.6944 C   0  0  0  0  0  0  0  0  0  0  0  0
  153.9003  140.2008  182.9017 C   0  0  0  0  0  0  0  0  0  0  0  0
  153.4987  140.8496  181.7665 C   0  0  0  0  0  0  0  0  0  0  0  0
  152.4342  140.3396  181.0495 C   0  0  0  0  0  0  0  0  0  0  0  0
  151.7697  139.2107  181.4352 C   0  0  0  0  0  0  0  0  0  0  0  0
  152.2038  138.5766  182.5932 C   0  0  0  0  0  0  0  0  0  0  0  0
  153.2618  139.0577  183.3323 C   0  0  0  0  0  0  0  0  0  0  0  0
  155.8945  141.6727  182.9665 C   0  0  0  0  0  0  0  0  0  0  0  0
  156.9619  141.2133  182.2296 C   0  0  0  0  0  0  0  0  0  0  0  0
  157.7835  142.0682  181.5264 C   0  0  0  0  0  0  0  0  0  0  0  0
  157.5445  143.4205  181.5511 C   0  0  0  0  0  0  0  0  0  0  0  0
  158.3644  144.2578  180.8524 F   0  0  0  0  0  0  0  0  0  0  0  0
  156.4908  143.9057  182.2749 C   0  0  0  0  0  0  0  0  0  0  0  0
  155.6625  143.0299  182.9852 C   0  0  0  0  0  0  0  0  0  0  0  0
  154.1955  136.1555  185.4737 C   0  0  0  0  0  0  0  0  0  0  0  0
  153.6460  136.8777  184.3604 N   0  0  0  0  0  0  0  0  0  0  0  0
  152.6462  136.5954  184.2527 H   0  0  0  0  0  0  0  0  0  0  0  0
 18 19  1  0  0  0
 19  1  1  0  0  0
  1  2  1  0  0  0
  2  3  1  0  0  0
  3  4  1  0  0  0
  4 11  1  0  0  0
 11 12  2  0  0  0
 12 13  1  0  0  0
 13 14  2  0  0  0
 14 15  1  0  0  0
 14 16  1  0  0  0
 16 17  2  0  0  0
  4  5  1  0  0  0
  5  6  2  0  0  0
  6  7  1  0  0  0
  7  8  2  0  0  0
  8  9  1  0  0  0
  9 10  2  0  0  0
 10  1  1  0  0  0
 17 11  1  0  0  0
 10  5  1  0  0  0
 19 20  1  0  0  0
M  END
> <minimizedAffinity>
-7.53357

> <CNNscore>
0.4627875090

> <CNNaffinity>
5.2903738022

> <CNN_VS>
2.4483189583

> <CNNaffinity_variance>
0.2877093256

$$$$
[H]OC(=O)C([H])(Oc1c([H])c([H])c(-c2noc([H])c3c(C(=O)C4([H])C([H])([H])C([H])([H])C([H])([H])C4([H])[H])c([H])c([H])c2-3)c([H])c1[H])C(=O)O[H]


 32 35  0  0  0  0  0  0  0  0999 V2000
  157.9225  141.7838  183.3083 C   0  0  0  0  0  0  0  0  0  0  0  0
  157.8539  140.4070  183.2875 C   0  0  0  0  0  0  0  0  0  0  0  0
  156.5609  139.9726  183.0159 C   0  0  0  0  0  0  0  0  0  0  0  0
  155.7691  141.0882  182.8564 C   0  0  0  0  0  0  0  0  0  0  0  0
  154.4392  141.3222  182.5784 C   0  0  0  0  0  0  0  0  0  0  0  0
  153.9890  142.5925  182.4880 N   0  0  0  0  0  0  0  0  0  0  0  0
  154.7741  143.5947  182.6561 O   0  0  0  0  0  0  0  0  0  0  0  0
  156.0514  143.4857  182.9239 C   0  0  0  0  0  0  0  0  0  0  0  0
  156.6475  142.2372  183.0448 C   0  0  0  0  0  0  0  0  0  0  0  0
  153.5200  140.2057  182.3782 C   0  0  0  0  0  0  0  0  0  0  0  0
  153.5614  139.1303  183.2386 C   0  0  0  0  0  0  0  0  0  0  0  0
  152.7139  138.0382  183.0914 C   0  0  0  0  0  0  0  0  0  0  0  0
  151.7992  137.9978  182.0715 C   0  0  0  0  0  0  0  0  0  0  0  0
  151.7492  139.0822  181.1943 C   0  0  0  0  0  0  0  0  0  0  0  0
  152.5929  140.1456  181.3589 C   0  0  0  0  0  0  0  0  0  0  0  0
  150.9399  136.9577  181.8706 O   0  0  0  0  0  0  0  0  0  0  0  0
  150.0279  136.3781  182.7356 C   0  0  0  0  0  0  0  0  0  0  0  0
  149.3701  137.4079  183.5573 C   0  0  0  0  0  0  0  0  0  0  0  0
  148.5883  138.2573  183.0371 O   0  0  0  0  0  0  0  0  0  0  0  0
  149.5659  137.5046  184.9118 O   0  0  0  0  0  0  0  0  0  0  0  0
  150.1010  138.2591  185.3178 H   0  0  0  0  0  0  0  0  0  0  0  0
  150.5635  135.2323  183.5063 C   0  0  0  0  0  0  0  0  0  0  0  0
  149.9584  134.8406  184.5320 O   0  0  0  0  0  0  0  0  0  0  0  0
  151.7262  134.6092  183.0824 O   0  0  0  0  0  0  0  0  0  0  0  0
  152.0098  133.7468  183.5256 H   0  0  0  0  0  0  0  0  0  0  0  0
  159.2925  143.6332  182.8247 O   0  0  0  0  0  0  0  0  0  0  0  0
  159.0775  142.6339  183.5594 C   0  0  0  0  0  0  0  0  0  0  0  0
  160.0540  142.4142  184.6419 C   0  0  0  0  0  0  0  0  0  0  0  0
  161.0551  143.4850  184.8279 C   0  0  0  0  0  0  0  0  0  0  0  0
  161.5342  143.2532  186.2662 C   0  0  0  0  0  0  0  0  0  0  0  0
  160.4271  142.5586  186.9881 C   0  0  0  0  0  0  0  0  0  0  0  0
  159.3729  142.2612  185.9645 C   0  0  0  0  0  0  0  0  0  0  0  0
 26 27  2  0  0  0
 27  1  1  0  0  0
  1  2  2  0  0  0
  2  3  1  0  0  0
  3  4  2  0  0  0
  4  5  1  0  0  0
  5 10  1  0  0  0
 10 11  2  0  0  0
 11 12  1  0  0  0
 12 13  2  0  0  0
 13 16  1  0  0  0
 16 17  1  0  0  0
 17 18  1  0  0  0
 18 19  2  0  0  0
 18 20  1  0  0  0
 17 22  1  0  0  0
 22 23  2  0  0  0
 22 24  1  0  0  0
 13 14  1  0  0  0
 14 15  2  0  0  0
  5  6  2  0  0  0
  6  7  1  0  0  0
  7  8  1  0  0  0
  8  9  2  0  0  0
 27 28  1  0  0  0
 28 29  1  0  0  0
 29 30  1  0  0  0
 30 31  1  0  0  0
 31 32  1  0  0  0
  9  1  1  0  0  0
 32 28  1  0  0  0
  9  4  1  0  0  0
 15 10  1  0  0  0
 20 21  1  0  0  0
 24 25  1  0  0  0
M  END
> <minimizedAffinity>
-8.03662

> <CNNscore>
0.3387982249

> <CNNaffinity>
5.6293816566

> <CNN_VS>
1.9072245359

> <CNNaffinity_variance>
0.1792565286

$$$$
[H]OC(=O)C([H])(Oc1c([H])c([H])c(-c2noc([H])c3c(C(=O)C4([H])C([H])([H])C([H])([H])C([H])([H])C4([H])[H])c([H])c([H])c2-3)c([H])c1[H])C(=O)O[H]


 32 35  0  0  0  0  0  0  0  0999 V2000
  157.9917  141.1246  183.9434 C   0  0  0  0  0  0  0  0  0  0  0  0
  158.1918  140.0197  184.7435 C   0  0  0  0  0  0  0  0  0  0  0  0
  156.9922  139.3675  185.0082 C   0  0  0  0  0  0  0  0  0  0  0  0
  155.9886  140.0607  184.3684 C   0  0  0  0  0  0  0  0  0  0  0  0
  154.6221  139.9269  184.2439 C   0  0  0  0  0  0  0  0  0  0  0  0
  153.9274  140.8222  183.5087 N   0  0  0  0  0  0  0  0  0  0  0  0
  154.5119  141.8018  182.9191 O   0  0  0  0  0  0  0  0  0  0  0  0
  155.8018  142.0219  182.9716 C   0  0  0  0  0  0  0  0  0  0  0  0
  156.6372  141.1786  183.6927 C   0  0  0  0  0  0  0  0  0  0  0  0
  153.9264  138.8227  184.8983 C   0  0  0  0  0  0  0  0  0  0  0  0
  153.6143  138.9159  186.2371 C   0  0  0  0  0  0  0  0  0  0  0  0
  152.9583  137.8928  186.9119 C   0  0  0  0  0  0  0  0  0  0  0  0
  152.5974  136.7444  186.2564 C   0  0  0  0  0  0  0  0  0  0  0  0
  152.9091  136.6399  184.9001 C   0  0  0  0  0  0  0  0  0  0  0  0
  153.5549  137.6595  184.2573 C   0  0  0  0  0  0  0  0  0  0  0  0
  151.9531  135.7037  186.8585 O   0  0  0  0  0  0  0  0  0  0  0  0
  150.7128  135.6610  187.4715 C   0  0  0  0  0  0  0  0  0  0  0  0
  150.5128  134.3650  188.1413 C   0  0  0  0  0  0  0  0  0  0  0  0
  151.4945  133.7054  188.5934 O   0  0  0  0  0  0  0  0  0  0  0  0
  149.2707  133.8070  188.3088 O   0  0  0  0  0  0  0  0  0  0  0  0
  148.9786  132.9952  187.7833 H   0  0  0  0  0  0  0  0  0  0  0  0
  149.5892  136.0782  186.6012 C   0  0  0  0  0  0  0  0  0  0  0  0
  149.1267  137.2389  186.7031 O   0  0  0  0  0  0  0  0  0  0  0  0
  149.0651  135.1792  185.6864 O   0  0  0  0  0  0  0  0  0  0  0  0
  148.3982  135.5083  185.0025 H   0  0  0  0  0  0  0  0  0  0  0  0
  159.6058  142.8073  184.2506 O   0  0  0  0  0  0  0  0  0  0  0  0
  158.9737  142.0763  183.4438 C   0  0  0  0  0  0  0  0  0  0  0  0
  159.3020  142.2641  182.0188 C   0  0  0  0  0  0  0  0  0  0  0  0
  158.7144  141.2758  181.0908 C   0  0  0  0  0  0  0  0  0  0  0  0
  158.7681  142.0048  179.7427 C   0  0  0  0  0  0  0  0  0  0  0  0
  158.7634  143.4684  180.0379 C   0  0  0  0  0  0  0  0  0  0  0  0
  158.8466  143.6018  181.5288 C   0  0  0  0  0  0  0  0  0  0  0  0
 26 27  2  0  0  0
 27  1  1  0  0  0
  1  2  2  0  0  0
  2  3  1  0  0  0
  3  4  2  0  0  0
  4  5  1  0  0  0
  5 10  1  0  0  0
 10 11  2  0  0  0
 11 12  1  0  0  0
 12 13  2  0  0  0
 13 16  1  0  0  0
 16 17  1  0  0  0
 17 18  1  0  0  0
 18 19  2  0  0  0
 18 20  1  0  0  0
 17 22  1  0  0  0
 22 23  2  0  0  0
 22 24  1  0  0  0
 13 14  1  0  0  0
 14 15  2  0  0  0
  5  6  2  0  0  0
  6  7  1  0  0  0
  7  8  1  0  0  0
  8  9  2  0  0  0
 27 28  1  0  0  0
 28 29  1  0  0  0
 29 30  1  0  0  0
 30 31  1  0  0  0
 31 32  1  0  0  0
  9  1  1  0  0  0
 32 28  1  0  0  0
  9  4  1  0  0  0
 15 10  1  0  0  0
 20 21  1  0  0  0
 24 25  1  0  0  0
M  END
> <minimizedAffinity>
-7.05101

> <CNNscore>
0.3159635961

> <CNNaffinity>
5.5902428627

> <CNN_VS>
1.7663131952

> <CNNaffinity_variance>
0.2080159932

$$$$
[H]OC(=O)C([H])(Oc1c([H])c([H])c(-c2noc([H])c3c(C(=O)C4([H])C([H])([H])C([H])([H])C([H])([H])C4([H])[H])c([H])c([H])c2-3)c([H])c1[H])C(=O)O[H]


 32 35  0  0  0  0  0  0  0  0999 V2000
  158.3038  141.2737  184.0963 C   0  0  0  0  0  0  0  0  0  0  0  0
  158.3992  139.9955  184.6043 C   0  0  0  0  0  0  0  0  0  0  0  0
  157.1466  139.3990  184.7018 C   0  0  0  0  0  0  0  0  0  0  0  0
  156.2145  140.3060  184.2485 C   0  0  0  0  0  0  0  0  0  0  0  0
  154.8445  140.3185  184.0941 C   0  0  0  0  0  0  0  0  0  0  0  0
  154.2382  141.4187  183.5977 N   0  0  0  0  0  0  0  0  0  0  0  0
  154.9104  142.4606  183.2640 O   0  0  0  0  0  0  0  0  0  0  0  0
  156.2123  142.5553  183.3695 C   0  0  0  0  0  0  0  0  0  0  0  0
  156.9633  141.4973  183.8650 C   0  0  0  0  0  0  0  0  0  0  0  0
  154.0503  139.1494  184.4603 C   0  0  0  0  0  0  0  0  0  0  0  0
  153.8338  138.8663  185.7913 C   0  0  0  0  0  0  0  0  0  0  0  0
  153.0906  137.7637  186.1968 C   0  0  0  0  0  0  0  0  0  0  0  0
  152.5436  136.9130  185.2717 C   0  0  0  0  0  0  0  0  0  0  0  0
  152.7571  137.1909  183.9208 C   0  0  0  0  0  0  0  0  0  0  0  0
  153.4915  138.2815  183.5457 C   0  0  0  0  0  0  0  0  0  0  0  0
  151.8054  135.8145  185.6017 O   0  0  0  0  0  0  0  0  0  0  0  0
  150.5485  135.7274  186.1750 C   0  0  0  0  0  0  0  0  0  0  0  0
  149.6689  136.7866  185.6527 C   0  0  0  0  0  0  0  0  0  0  0  0
  149.2903  137.7436  186.3903 O   0  0  0  0  0  0  0  0  0  0  0  0
  149.2156  136.7948  184.3578 O   0  0  0  0  0  0  0  0  0  0  0  0
  148.2506  136.5985  184.1324 H   0  0  0  0  0  0  0  0  0  0  0  0
  150.5596  135.6162  187.6519 C   0  0  0  0  0  0  0  0  0  0  0  0
  151.6238  135.3124  188.2407 O   0  0  0  0  0  0  0  0  0  0  0  0
  149.3931  135.8499  188.3621 O   0  0  0  0  0  0  0  0  0  0  0  0
  149.4363  135.9110  189.3696 H   0  0  0  0  0  0  0  0  0  0  0  0
  159.6273  142.5873  182.6632 O   0  0  0  0  0  0  0  0  0  0  0  0
  159.3681  142.2344  183.8435 C   0  0  0  0  0  0  0  0  0  0  0  0
  160.2003  142.8513  184.8926 C   0  0  0  0  0  0  0  0  0  0  0  0
  159.7895  142.5696  186.2837 C   0  0  0  0  0  0  0  0  0  0  0  0
  161.0693  142.8564  187.0784 C   0  0  0  0  0  0  0  0  0  0  0  0
  162.2165  142.6613  186.1428 C   0  0  0  0  0  0  0  0  0  0  0  0
  161.6231  142.4021  184.7907 C   0  0  0  0  0  0  0  0  0  0  0  0
 26 27  2  0  0  0
 27  1  1  0  0  0
  1  2  2  0  0  0
  2  3  1  0  0  0
  3  4  2  0  0  0
  4  5  1  0  0  0
  5 10  1  0  0  0
 10 11  2  0  0  0
 11 12  1  0  0  0
 12 13  2  0  0  0
 13 16  1  0  0  0
 16 17  1  0  0  0
 17 18  1  0  0  0
 18 19  2  0  0  0
 18 20  1  0  0  0
 17 22  1  0  0  0
 22 23  2  0  0  0
 22 24  1  0  0  0
 13 14  1  0  0  0
 14 15  2  0  0  0
  5  6  2  0  0  0
  6  7  1  0  0  0
  7  8  1  0  0  0
  8  9  2  0  0  0
 27 28  1  0  0  0
 28 29  1  0  0  0
 29 30  1  0  0  0
 30 31  1  0  0  0
 31 32  1  0  0  0
  9  1  1  0  0  0
 32 28  1  0  0  0
  9  4  1  0  0  0
 15 10  1  0  0  0
 20 21  1  0  0  0
 24 25  1  0  0  0
M  END
> <minimizedAffinity>
-7.71450

> <CNNscore>
0.2826476395

> <CNNaffinity>
5.5336008072

> <CNN_VS>
1.5640592575

> <CNNaffinity_variance>
0.2604413033

$$$$
[H]OC(=O)C([H])(Oc1c([H])c([H])c(-c2noc([H])c3c(C(=O)C4([H])C([H])([H])C([H])([H])C([H])([H])C4([H])[H])c([H])c([H])c2-3)c([H])c1[H])C(=O)O[H]


 32 35  0  0  0  0  0  0  0  0999 V2000
  157.6289  141.2445  183.8757 C   0  0  0  0  0  0  0  0  0  0  0  0
  157.9758  140.3577  184.8727 C   0  0  0  0  0  0  0  0  0  0  0  0
  156.9079  139.5298  185.2024 C   0  0  0  0  0  0  0  0  0  0  0  0
  155.8422  139.8835  184.4049 C   0  0  0  0  0  0  0  0  0  0  0  0
  154.5411  139.4545  184.2501 C   0  0  0  0  0  0  0  0  0  0  0  0
  153.7458  140.0496  183.3347 N   0  0  0  0  0  0  0  0  0  0  0  0
  154.1742  141.0118  182.6002 O   0  0  0  0  0  0  0  0  0  0  0  0
  155.3892  141.4960  182.6651 C   0  0  0  0  0  0  0  0  0  0  0  0
  156.3131  140.9774  183.5630 C   0  0  0  0  0  0  0  0  0  0  0  0
  154.0231  138.3607  185.0667 C   0  0  0  0  0  0  0  0  0  0  0  0
  154.0347  137.0767  184.5669 C   0  0  0  0  0  0  0  0  0  0  0  0
  153.5489  135.9989  185.2982 C   0  0  0  0  0  0  0  0  0  0  0  0
  153.0362  136.1839  186.5559 C   0  0  0  0  0  0  0  0  0  0  0  0
  153.0198  137.4807  187.0713 C   0  0  0  0  0  0  0  0  0  0  0  0
  153.5033  138.5254  186.3335 C   0  0  0  0  0  0  0  0  0  0  0  0
  152.5436  135.1711  187.3255 O   0  0  0  0  0  0  0  0  0  0  0  0
  152.2328  133.8660  186.9847 C   0  0  0  0  0  0  0  0  0  0  0  0
  150.8005  133.6031  187.2031 C   0  0  0  0  0  0  0  0  0  0  0  0
  150.3351  132.4273  187.1381 O   0  0  0  0  0  0  0  0  0  0  0  0
  149.9031  134.6024  187.4831 O   0  0  0  0  0  0  0  0  0  0  0  0
  149.2153  134.9025  186.8068 H   0  0  0  0  0  0  0  0  0  0  0  0
  153.1366  132.8513  187.5742 C   0  0  0  0  0  0  0  0  0  0  0  0
  154.2813  132.6877  187.0901 O   0  0  0  0  0  0  0  0  0  0  0  0
  152.7037  132.0972  188.6529 O   0  0  0  0  0  0  0  0  0  0  0  0
  153.3671  131.5096  189.1380 H   0  0  0  0  0  0  0  0  0  0  0  0
  159.3425  142.8548  183.9173 O   0  0  0  0  0  0  0  0  0  0  0  0
  158.4444  142.2763  183.2512 C   0  0  0  0  0  0  0  0  0  0  0  0
  158.3012  142.7184  181.8521 C   0  0  0  0  0  0  0  0  0  0  0  0
  159.1287  143.8778  181.4591 C   0  0  0  0  0  0  0  0  0  0  0  0
  159.1794  143.7542  179.9314 C   0  0  0  0  0  0  0  0  0  0  0  0
  158.9664  142.3133  179.6031 C   0  0  0  0  0  0  0  0  0  0  0  0
  158.6575  141.6234  180.8978 C   0  0  0  0  0  0  0  0  0  0  0  0
 26 27  2  0  0  0
 27  1  1  0  0  0
  1  2  2  0  0  0
  2  3  1  0  0  0
  3  4  2  0  0  0
  4  5  1  0  0  0
  5 10  1  0  0  0
 10 11  2  0  0  0
 11 12  1  0  0  0
 12 13  2  0  0  0
 13 16  1  0  0  0
 16 17  1  0  0  0
 17 18  1  0  0  0
 18 19  2  0  0  0
 18 20  1  0  0  0
 17 22  1  0  0  0
 22 23  2  0  0  0
 22 24  1  0  0  0
 13 14  1  0  0  0
 14 15  2  0  0  0
  5  6  2  0  0  0
  6  7  1  0  0  0
  7  8  1  0  0  0
  8  9  2  0  0  0
 27 28  1  0  0  0
 28 29  1  0  0  0
 29 30  1  0  0  0
 30 31  1  0  0  0
 31 32  1  0  0  0
  9  1  1  0  0  0
 32 28  1  0  0  0
  9  4  1  0  0  0
 15 10  1  0  0  0
 20 21  1  0  0  0
 24 25  1  0  0  0
M  END
> <minimizedAffinity>
-6.74351

> <CNNscore>
0.2759434879

> <CNNaffinity>
5.4714479446

> <CNN_VS>
1.5098104477

> <CNNaffinity_variance>
0.2193284482

$$$$
[H]OC(=O)C([H])(Oc1c([H])c([H])c(-c2noc([H])c3c(C(=O)C4([H])C([H])([H])C([H])([H])C([H])([H])C4([H])[H])c([H])c([H])c2-3)c([H])c1[H])C(=O)O[H]


 32 35  0  0  0  0  0  0  0  0999 V2000
  157.6154  141.4123  183.4266 C   0  0  0  0  0  0  0  0  0  0  0  0
  157.5802  140.0435  183.5875 C   0  0  0  0  0  0  0  0  0  0  0  0
  156.3036  139.5431  183.3547 C   0  0  0  0  0  0  0  0  0  0  0  0
  155.4887  140.6067  183.0356 C   0  0  0  0  0  0  0  0  0  0  0  0
  154.1593  140.7668  182.7071 C   0  0  0  0  0  0  0  0  0  0  0  0
  153.6808  142.0017  182.4416 N   0  0  0  0  0  0  0  0  0  0  0  0
  154.4382  143.0376  182.4883 O   0  0  0  0  0  0  0  0  0  0  0  0
  155.7122  142.9986  182.7891 C   0  0  0  0  0  0  0  0  0  0  0  0
  156.3354  141.7931  183.0843 C   0  0  0  0  0  0  0  0  0  0  0  0
  153.2712  139.6098  182.6416 C   0  0  0  0  0  0  0  0  0  0  0  0
  152.4906  139.4163  181.5229 C   0  0  0  0  0  0  0  0  0  0  0  0
  151.6233  138.3357  181.4097 C   0  0  0  0  0  0  0  0  0  0  0  0
  151.5172  137.4177  182.4220 C   0  0  0  0  0  0  0  0  0  0  0  0
  152.3036  137.6047  183.5597 C   0  0  0  0  0  0  0  0  0  0  0  0
  153.1496  138.6752  183.6485 C   0  0  0  0  0  0  0  0  0  0  0  0
  150.6866  136.3367  182.3750 O   0  0  0  0  0  0  0  0  0  0  0  0
  150.8793  135.0917  181.8017 C   0  0  0  0  0  0  0  0  0  0  0  0
  149.7551  134.1965  182.1224 C   0  0  0  0  0  0  0  0  0  0  0  0
  149.0578  133.6698  181.2061 O   0  0  0  0  0  0  0  0  0  0  0  0
  149.4040  133.8890  183.4126 O   0  0  0  0  0  0  0  0  0  0  0  0
  148.5604  134.2519  183.8336 H   0  0  0  0  0  0  0  0  0  0  0  0
  152.2166  134.5065  182.0529 C   0  0  0  0  0  0  0  0  0  0  0  0
  153.1133  134.6187  181.1841 O   0  0  0  0  0  0  0  0  0  0  0  0
  152.4575  133.8431  183.2452 O   0  0  0  0  0  0  0  0  0  0  0  0
  153.4034  133.5698  183.4718 H   0  0  0  0  0  0  0  0  0  0  0  0
  159.2542  142.4964  184.7190 O   0  0  0  0  0  0  0  0  0  0  0  0
  158.7446  142.3182  183.5817 C   0  0  0  0  0  0  0  0  0  0  0  0
  159.3643  143.0739  182.4779 C   0  0  0  0  0  0  0  0  0  0  0  0
  159.0286  142.6091  181.1161 C   0  0  0  0  0  0  0  0  0  0  0  0
  159.3430  143.8371  180.2530 C   0  0  0  0  0  0  0  0  0  0  0  0
  159.2187  145.0344  181.1363 C   0  0  0  0  0  0  0  0  0  0  0  0
  158.9739  144.5170  182.5219 C   0  0  0  0  0  0  0  0  0  0  0  0
 26 27  2  0  0  0
 27  1  1  0  0  0
  1  2  2  0  0  0
  2  3  1  0  0  0
  3  4  2  0  0  0
  4  5  1  0  0  0
  5 10  1  0  0  0
 10 11  2  0  0  0
 11 12  1  0  0  0
 12 13  2  0  0  0
 13 16  1  0  0  0
 16 17  1  0  0  0
 17 18  1  0  0  0
 18 19  2  0  0  0
 18 20  1  0  0  0
 17 22  1  0  0  0
 22 23  2  0  0  0
 22 24  1  0  0  0
 13 14  1  0  0  0
 14 15  2  0  0  0
  5  6  2  0  0  0
  6  7  1  0  0  0
  7  8  1  0  0  0
  8  9  2  0  0  0
 27 28  1  0  0  0
 28 29  1  0  0  0
 29 30  1  0  0  0
 30 31  1  0  0  0
 31 32  1  0  0  0
  9  1  1  0  0  0
 32 28  1  0  0  0
  9  4  1  0  0  0
 15 10  1  0  0  0
 20 21  1  0  0  0
 24 25  1  0  0  0
M  END
> <minimizedAffinity>
-7.00534

> <CNNscore>
0.2708486617

> <CNNaffinity>
5.7307429314

> <CNN_VS>
1.5521640778

> <CNNaffinity_variance>
0.2475347072

$$$$
[H]OC(=O)C([H])(Oc1c([H])c([H])c(-c2noc([H])c3c(C(=O)C4([H])C([H])([H])C([H])([H])C([H])([H])C4([H])[H])c([H])c([H])c2-3)c([H])c1[H])C(=O)O[H]


 32 35  0  0  0  0  0  0  0  0999 V2000
  156.8422  140.7726  183.5499 C   0  0  0  0  0  0  0  0  0  0  0  0
  157.9105  140.5387  184.3894 C   0  0  0  0  0  0  0  0  0  0  0  0
  157.5672  139.6509  185.4036 C   0  0  0  0  0  0  0  0  0  0  0  0
  156.2482  139.2983  185.2227 C   0  0  0  0  0  0  0  0  0  0  0  0
  155.3491  138.4775  185.8698 C   0  0  0  0  0  0  0  0  0  0  0  0
  154.0892  138.3624  185.3966 N   0  0  0  0  0  0  0  0  0  0  0  0
  153.7050  139.0031  184.3522 O   0  0  0  0  0  0  0  0  0  0  0  0
  154.4756  139.8076  183.6636 C   0  0  0  0  0  0  0  0  0  0  0  0
  155.7961  140.0191  184.0381 C   0  0  0  0  0  0  0  0  0  0  0  0
  155.7538  137.7320  187.0581 C   0  0  0  0  0  0  0  0  0  0  0  0
  156.0764  136.3973  186.9443 C   0  0  0  0  0  0  0  0  0  0  0  0
  156.4624  135.6381  188.0430 C   0  0  0  0  0  0  0  0  0  0  0  0
  156.5344  136.2026  189.2900 C   0  0  0  0  0  0  0  0  0  0  0  0
  156.2096  137.5540  189.4160 C   0  0  0  0  0  0  0  0  0  0  0  0
  155.8326  138.2808  188.3209 C   0  0  0  0  0  0  0  0  0  0  0  0
  156.9049  135.5149  190.4083 O   0  0  0  0  0  0  0  0  0  0  0  0
  156.1965  134.5948  191.1616 C   0  0  0  0  0  0  0  0  0  0  0  0
  156.6633  133.2273  190.8780 C   0  0  0  0  0  0  0  0  0  0  0  0
  157.3153  132.5681  191.7402 O   0  0  0  0  0  0  0  0  0  0  0  0
  156.4232  132.6011  189.6812 O   0  0  0  0  0  0  0  0  0  0  0  0
  157.1610  132.4372  189.0109 H   0  0  0  0  0  0  0  0  0  0  0  0
  154.7260  134.7626  191.1020 C   0  0  0  0  0  0  0  0  0  0  0  0
  154.1708  135.6128  191.8372 O   0  0  0  0  0  0  0  0  0  0  0  0
  153.9848  133.9771  190.2340 O   0  0  0  0  0  0  0  0  0  0  0  0
  153.0070  134.1895  190.0943 H   0  0  0  0  0  0  0  0  0  0  0  0
  155.6794  142.1495  182.0389 O   0  0  0  0  0  0  0  0  0  0  0  0
  156.7769  141.6350  182.3786 C   0  0  0  0  0  0  0  0  0  0  0  0
  157.9311  141.9682  181.5239 C   0  0  0  0  0  0  0  0  0  0  0  0
  157.7819  141.6412  180.0907 C   0  0  0  0  0  0  0  0  0  0  0  0
  158.8280  142.5453  179.4273 C   0  0  0  0  0  0  0  0  0  0  0  0
  159.0390  143.7093  180.3383 C   0  0  0  0  0  0  0  0  0  0  0  0
  158.2410  143.4304  181.5764 C   0  0  0  0  0  0  0  0  0  0  0  0
 26 27  2  0  0  0
 27  1  1  0  0  0
  1  2  2  0  0  0
  2  3  1  0  0  0
  3  4  2  0  0  0
  4  5  1  0  0  0
  5 10  1  0  0  0
 10 11  2  0  0  0
 11 12  1  0  0  0
 12 13  2  0  0  0
 13 16  1  0  0  0
 16 17  1  0  0  0
 17 18  1  0  0  0
 18 19  2  0  0  0
 18 20  1  0  0  0
 17 22  1  0  0  0
 22 23  2  0  0  0
 22 24  1  0  0  0
 13 14  1  0  0  0
 14 15  2  0  0  0
  5  6  2  0  0  0
  6  7  1  0  0  0
  7  8  1  0  0  0
  8  9  2  0  0  0
 27 28  1  0  0  0
 28 29  1  0  0  0
 29 30  1  0  0  0
 30 31  1  0  0  0
 31 32  1  0  0  0
  9  1  1  0  0  0
 32 28  1  0  0  0
  9  4  1  0  0  0
 15 10  1  0  0  0
 20 21  1  0  0  0
 24 25  1  0  0  0
M  END
> <minimizedAffinity>
-7.28611

> <CNNscore>
0.2681765556

> <CNNaffinity>
5.3921232224

> <CNN_VS>
1.4460409880

> <CNNaffinity_variance>
0.1866072565

$$$$
[H]OC(=O)C([H])(Oc1c([H])c([H])c(-c2noc([H])c3c(C(=O)C4([H])C([H])([H])C([H])([H])C([H])([H])C4([H])[H])c([H])c([H])c2-3)c([H])c1[H])C(=O)O[H]


 32 35  0  0  0  0  0  0  0  0999 V2000
  157.6032  141.1727  183.8913 C   0  0  0  0  0  0  0  0  0  0  0  0
  157.9657  140.3052  184.8996 C   0  0  0  0  0  0  0  0  0  0  0  0
  156.8997  139.4923  185.2701 C   0  0  0  0  0  0  0  0  0  0  0  0
  155.8193  139.8362  184.4881 C   0  0  0  0  0  0  0  0  0  0  0  0
  154.5124  139.4133  184.3707 C   0  0  0  0  0  0  0  0  0  0  0  0
  153.7015  139.9941  183.4599 N   0  0  0  0  0  0  0  0  0  0  0  0
  154.1202  140.9371  182.6956 O   0  0  0  0  0  0  0  0  0  0  0  0
  155.3396  141.4140  182.7239 C   0  0  0  0  0  0  0  0  0  0  0  0
  156.2792  140.9083  183.6128 C   0  0  0  0  0  0  0  0  0  0  0  0
  154.0049  138.3410  185.2218 C   0  0  0  0  0  0  0  0  0  0  0  0
  153.4258  138.6525  186.4326 C   0  0  0  0  0  0  0  0  0  0  0  0
  152.9314  137.6718  187.2849 C   0  0  0  0  0  0  0  0  0  0  0  0
  153.0066  136.3470  186.9415 C   0  0  0  0  0  0  0  0  0  0  0  0
  153.5914  136.0208  185.7170 C   0  0  0  0  0  0  0  0  0  0  0  0
  154.0708  137.0027  184.8951 C   0  0  0  0  0  0  0  0  0  0  0  0
  152.5418  135.3363  187.7309 O   0  0  0  0  0  0  0  0  0  0  0  0
  151.2463  135.0250  188.1058 C   0  0  0  0  0  0  0  0  0  0  0  0
  150.3097  135.3022  187.0039 C   0  0  0  0  0  0  0  0  0  0  0  0
  150.1733  134.4892  186.0428 O   0  0  0  0  0  0  0  0  0  0  0  0
  149.5454  136.4405  186.9564 O   0  0  0  0  0  0  0  0  0  0  0  0
  149.7342  137.1789  186.2932 H   0  0  0  0  0  0  0  0  0  0  0  0
  150.8377  135.5922  189.4116 C   0  0  0  0  0  0  0  0  0  0  0  0
  151.7112  136.0394  190.1916 O   0  0  0  0  0  0  0  0  0  0  0  0
  149.4950  135.6206  189.7525 O   0  0  0  0  0  0  0  0  0  0  0  0
  149.2088  136.1317  190.5757 H   0  0  0  0  0  0  0  0  0  0  0  0
  159.3313  142.7676  183.8595 O   0  0  0  0  0  0  0  0  0  0  0  0
  158.4119  142.1850  183.2271 C   0  0  0  0  0  0  0  0  0  0  0  0
  158.2375  142.6020  181.8238 C   0  0  0  0  0  0  0  0  0  0  0  0
  159.0750  143.7373  181.3845 C   0  0  0  0  0  0  0  0  0  0  0  0
  159.0804  143.5825  179.8588 C   0  0  0  0  0  0  0  0  0  0  0  0
  158.8317  142.1397  179.5659 C   0  0  0  0  0  0  0  0  0  0  0  0
  158.5466  141.4816  180.8824 C   0  0  0  0  0  0  0  0  0  0  0  0
 26 27  2  0  0  0
 27  1  1  0  0  0
  1  2  2  0  0  0
  2  3  1  0  0  0
  3  4  2  0  0  0
  4  5  1  0  0  0
  5 10  1  0  0  0
 10 11  2  0  0  0
 11 12  1  0  0  0
 12 13  2  0  0  0
 13 16  1  0  0  0
 16 17  1  0  0  0
 17 18  1  0  0  0
 18 19  2  0  0  0
 18 20  1  0  0  0
 17 22  1  0  0  0
 22 23  2  0  0  0
 22 24  1  0  0  0
 13 14  1  0  0  0
 14 15  2  0  0  0
  5  6  2  0  0  0
  6  7  1  0  0  0
  7  8  1  0  0  0
  8  9  2  0  0  0
 27 28  1  0  0  0
 28 29  1  0  0  0
 29 30  1  0  0  0
 30 31  1  0  0  0
 31 32  1  0  0  0
  9  1  1  0  0  0
 32 28  1  0  0  0
  9  4  1  0  0  0
 15 10  1  0  0  0
 20 21  1  0  0  0
 24 25  1  0  0  0
M  END
> <minimizedAffinity>
-7.23365

> <CNNscore>
0.2625307739

> <CNNaffinity>
5.3722519875

> <CNN_VS>
1.4103814363

> <CNNaffinity_variance>
0.1443329602

$$$$
[H]OC(=O)C([H])(Oc1c([H])c([H])c(-c2noc([H])c3c(C(=O)C4([H])C([H])([H])C([H])([H])C([H])([H])C4([H])[H])c([H])c([H])c2-3)c([H])c1[H])C(=O)O[H]


 32 35  0  0  0  0  0  0  0  0999 V2000
  155.8116  142.2378  182.8188 C   0  0  0  0  0  0  0  0  0  0  0  0
  154.4603  142.1320  182.5667 C   0  0  0  0  0  0  0  0  0  0  0  0
  153.9017  141.0649  183.2621 C   0  0  0  0  0  0  0  0  0  0  0  0
  154.9086  140.4616  183.9827 C   0  0  0  0  0  0  0  0  0  0  0  0
  154.9983  139.3897  184.8450 C   0  0  0  0  0  0  0  0  0  0  0  0
  156.1910  139.0709  185.3929 N   0  0  0  0  0  0  0  0  0  0  0  0
  157.2510  139.7457  185.1285 O   0  0  0  0  0  0  0  0  0  0  0  0
  157.2780  140.7794  184.3248 C   0  0  0  0  0  0  0  0  0  0  0  0
  156.1216  141.2176  183.6927 C   0  0  0  0  0  0  0  0  0  0  0  0
  153.8119  138.6031  185.1699 C   0  0  0  0  0  0  0  0  0  0  0  0
  153.3590  138.5643  186.4706 C   0  0  0  0  0  0  0  0  0  0  0  0
  152.2386  137.8274  186.8372 C   0  0  0  0  0  0  0  0  0  0  0  0
  151.5414  137.1070  185.9025 C   0  0  0  0  0  0  0  0  0  0  0  0
  151.9920  137.1396  184.5820 C   0  0  0  0  0  0  0  0  0  0  0  0
  153.0966  137.8717  184.2450 C   0  0  0  0  0  0  0  0  0  0  0  0
  150.4358  136.3636  186.1950 O   0  0  0  0  0  0  0  0  0  0  0  0
  149.3104  136.6951  186.9295 C   0  0  0  0  0  0  0  0  0  0  0  0
  148.7482  135.4996  187.5798 C   0  0  0  0  0  0  0  0  0  0  0  0
  148.8857  135.3074  188.8237 O   0  0  0  0  0  0  0  0  0  0  0  0
  148.0560  134.5405  186.8847 O   0  0  0  0  0  0  0  0  0  0  0  0
  148.4480  133.6261  186.7091 H   0  0  0  0  0  0  0  0  0  0  0  0
  148.3195  137.5107  186.1899 C   0  0  0  0  0  0  0  0  0  0  0  0
  148.0406  138.6631  186.5968 O   0  0  0  0  0  0  0  0  0  0  0  0
  147.7148  136.9879  185.0581 O   0  0  0  0  0  0  0  0  0  0  0  0
  147.1493  137.5937  184.4802 H   0  0  0  0  0  0  0  0  0  0  0  0
  156.5924  144.4338  182.5044 O   0  0  0  0  0  0  0  0  0  0  0  0
  156.7630  143.2050  182.2906 C   0  0  0  0  0  0  0  0  0  0  0  0
  157.9538  142.8537  181.4955 C   0  0  0  0  0  0  0  0  0  0  0  0
  157.6939  142.0955  180.2542 C   0  0  0  0  0  0  0  0  0  0  0  0
  158.9624  142.3503  179.4309 C   0  0  0  0  0  0  0  0  0  0  0  0
  159.5364  143.6451  179.9037 C   0  0  0  0  0  0  0  0  0  0  0  0
  158.7052  144.0764  181.0744 C   0  0  0  0  0  0  0  0  0  0  0  0
 26 27  2  0  0  0
 27  1  1  0  0  0
  1  2  2  0  0  0
  2  3  1  0  0  0
  3  4  2  0  0  0
  4  5  1  0  0  0
  5 10  1  0  0  0
 10 11  2  0  0  0
 11 12  1  0  0  0
 12 13  2  0  0  0
 13 16  1  0  0  0
 16 17  1  0  0  0
 17 18  1  0  0  0
 18 19  2  0  0  0
 18 20  1  0  0  0
 17 22  1  0  0  0
 22 23  2  0  0  0
 22 24  1  0  0  0
 13 14  1  0  0  0
 14 15  2  0  0  0
  5  6  2  0  0  0
  6  7  1  0  0  0
  7  8  1  0  0  0
  8  9  2  0  0  0
 27 28  1  0  0  0
 28 29  1  0  0  0
 29 30  1  0  0  0
 30 31  1  0  0  0
 31 32  1  0  0  0
  9  1  1  0  0  0
 32 28  1  0  0  0
  9  4  1  0  0  0
 15 10  1  0  0  0
 20 21  1  0  0  0
 24 25  1  0  0  0
M  END
> <minimizedAffinity>
-7.62301

> <CNNscore>
0.2597666979

> <CNNaffinity>
5.3849778175

> <CNN_VS>
1.3988379240

> <CNNaffinity_variance>
0.1530380994

$$$$
[H]OC(=O)C([H])(Oc1c([H])c([H])c(-c2noc([H])c3c(C(=O)C4([H])C([H])([H])C([H])([H])C([H])([H])C4([H])[H])c([H])c([H])c2-3)c([H])c1[H])C(=O)O[H]


 32 35  0  0  0  0  0  0  0  0999 V2000
  158.4015  141.4732  183.9745 C   0  0  0  0  0  0  0  0  0  0  0  0
  158.4335  140.1762  184.4411 C   0  0  0  0  0  0  0  0  0  0  0  0
  157.1575  139.6240  184.4776 C   0  0  0  0  0  0  0  0  0  0  0  0
  156.2745  140.5797  184.0261 C   0  0  0  0  0  0  0  0  0  0  0  0
  154.9119  140.6485  183.8282 C   0  0  0  0  0  0  0  0  0  0  0  0
  154.3627  141.7865  183.3507 N   0  0  0  0  0  0  0  0  0  0  0  0
  155.0831  142.8131  183.0748 O   0  0  0  0  0  0  0  0  0  0  0  0
  156.3833  142.8555  183.2253 C   0  0  0  0  0  0  0  0  0  0  0  0
  157.0784  141.7543  183.7080 C   0  0  0  0  0  0  0  0  0  0  0  0
  154.0639  139.4985  184.1283 C   0  0  0  0  0  0  0  0  0  0  0  0
  153.2923  138.9456  183.1296 C   0  0  0  0  0  0  0  0  0  0  0  0
  152.4627  137.8543  183.3606 C   0  0  0  0  0  0  0  0  0  0  0  0
  152.3863  137.2879  184.6064 C   0  0  0  0  0  0  0  0  0  0  0  0
  153.1638  137.8405  185.6251 C   0  0  0  0  0  0  0  0  0  0  0  0
  153.9726  138.9141  185.3741 C   0  0  0  0  0  0  0  0  0  0  0  0
  151.5932  136.2177  184.9003 O   0  0  0  0  0  0  0  0  0  0  0  0
  150.2174  136.0842  184.8278 C   0  0  0  0  0  0  0  0  0  0  0  0
  149.6350  136.0051  186.1780 C   0  0  0  0  0  0  0  0  0  0  0  0
  148.3990  135.7863  186.3441 O   0  0  0  0  0  0  0  0  0  0  0  0
  150.3872  136.1636  187.3144 O   0  0  0  0  0  0  0  0  0  0  0  0
  150.3094  136.9894  187.8911 H   0  0  0  0  0  0  0  0  0  0  0  0
  149.7567  135.0245  183.9012 C   0  0  0  0  0  0  0  0  0  0  0  0
  150.5948  134.2495  183.3831 O   0  0  0  0  0  0  0  0  0  0  0  0
  148.4052  134.9048  183.6202 O   0  0  0  0  0  0  0  0  0  0  0  0
  148.0815  134.0996  183.1028 H   0  0  0  0  0  0  0  0  0  0  0  0
  159.8296  142.7703  182.6295 O   0  0  0  0  0  0  0  0  0  0  0  0
  159.5078  142.4013  183.7893 C   0  0  0  0  0  0  0  0  0  0  0  0
  160.3143  142.9661  184.8866 C   0  0  0  0  0  0  0  0  0  0  0  0
  159.8242  142.6844  186.2518 C   0  0  0  0  0  0  0  0  0  0  0  0
  161.0753  142.9027  187.1115 C   0  0  0  0  0  0  0  0  0  0  0  0
  162.2569  142.6690  186.2292 C   0  0  0  0  0  0  0  0  0  0  0  0
  161.7192  142.4549  184.8463 C   0  0  0  0  0  0  0  0  0  0  0  0
 26 27  2  0  0  0
 27  1  1  0  0  0
  1  2  2  0  0  0
  2  3  1  0  0  0
  3  4  2  0  0  0
  4  5  1  0  0  0
  5 10  1  0  0  0
 10 11  2  0  0  0
 11 12  1  0  0  0
 12 13  2  0  0  0
 13 16  1  0  0  0
 16 17  1  0  0  0
 17 18  1  0  0  0
 18 19  2  0  0  0
 18 20  1  0  0  0
 17 22  1  0  0  0
 22 23  2  0  0  0
 22 24  1  0  0  0
 13 14  1  0  0  0
 14 15  2  0  0  0
  5  6  2  0  0  0
  6  7  1  0  0  0
  7  8  1  0  0  0
  8  9  2  0  0  0
 27 28  1  0  0  0
 28 29  1  0  0  0
 29 30  1  0  0  0
 30 31  1  0  0  0
 31 32  1  0  0  0
  9  1  1  0  0  0
 32 28  1  0  0  0
  9  4  1  0  0  0
 15 10  1  0  0  0
 20 21  1  0  0  0
 24 25  1  0  0  0
M  END
> <minimizedAffinity>
-7.59261

> <CNNscore>
0.2575258911

> <CNNaffinity>
5.6111612320

> <CNN_VS>
1.4450192451

> <CNNaffinity_variance>
0.2179390490

$$$$
[H]c1c(OC([H])([H])[H])c([H])c2c3nnc(SC([H])([H])[H])nc3n(C([H])([H])[H])c2c1[H]


 18 20  0  0  0  0  0  0  0  0999 V2000
  152.2033  135.4848  192.9548 C   0  0  0  0  0  0  0  0  0  0  0  0
  152.3413  136.8476  192.7989 C   0  0  0  0  0  0  0  0  0  0  0  0
  153.4680  137.3406  192.1382 C   0  0  0  0  0  0  0  0  0  0  0  0
  154.4496  136.4970  191.6359 C   0  0  0  0  0  0  0  0  0  0  0  0
  154.2953  135.1397  191.8006 C   0  0  0  0  0  0  0  0  0  0  0  0
  153.1716  134.6397  192.4600 C   0  0  0  0  0  0  0  0  0  0  0  0
  155.3823  134.5206  191.2257 C   0  0  0  0  0  0  0  0  0  0  0  0
  155.7082  133.2231  191.1170 N   0  0  0  0  0  0  0  0  0  0  0  0
  156.8308  132.8865  190.5051 N   0  0  0  0  0  0  0  0  0  0  0  0
  157.6051  133.8570  190.0142 C   0  0  0  0  0  0  0  0  0  0  0  0
  157.3117  135.1637  190.1044 N   0  0  0  0  0  0  0  0  0  0  0  0
  156.1690  135.5464  190.7247 C   0  0  0  0  0  0  0  0  0  0  0  0
  155.6061  136.7417  190.9721 N   0  0  0  0  0  0  0  0  0  0  0  0
  156.1444  138.0536  190.5949 C   0  0  0  0  0  0  0  0  0  0  0  0
  149.8118  135.4420  193.5615 C   0  0  0  0  0  0  0  0  0  0  0  0
  151.1113  134.9355  193.5991 O   0  0  0  0  0  0  0  0  0  0  0  0
  159.1183  133.3663  189.1927 S   0  0  0  0  0  0  0  0  0  0  0  0
  159.6281  134.6919  188.0499 C   0  0  0  0  0  0  0  0  0  0  0  0
 15 16  1  0  0  0
 16  1  1  0  0  0
  1  2  2  0  0  0
  2  3  1  0  0  0
  3  4  2  0  0  0
  4  5  1  0  0  0
  5  6  2  0  0  0
  5  7  1  0  0  0
  7  8  2  0  0  0
  8  9  1  0  0  0
  9 10  2  0  0  0
 10 17  1  0  0  0
 17 18  1  0  0  0
 10 11  1  0  0  0
 11 12  2  0  0  0
 12 13  1  0  0  0
 13 14  1  0  0  0
  6  1  1  0  0  0
 12  7  1  0  0  0
 13  4  1  0  0  0
M  END
> <minimizedAffinity>
-4.36419

> <CNNscore>
0.6040866375

> <CNNaffinity>
4.4488282204

> <CNN_VS>
2.6874775887

> <CNNaffinity_variance>
0.2093721926

$$$$
[H]c1c(OC([H])([H])[H])c([H])c2c3nnc(SC([H])([H])[H])nc3n(C([H])([H])[H])c2c1[H]


 18 20  0  0  0  0  0  0  0  0999 V2000
  154.8341  141.5652  182.8418 C   0  0  0  0  0  0  0  0  0  0  0  0
  155.0580  140.5571  183.7552 C   0  0  0  0  0  0  0  0  0  0  0  0
  154.2226  139.4386  183.7441 C   0  0  0  0  0  0  0  0  0  0  0  0
  153.1761  139.3157  182.8402 C   0  0  0  0  0  0  0  0  0  0  0  0
  152.9674  140.3314  181.9358 C   0  0  0  0  0  0  0  0  0  0  0  0
  153.7985  141.4524  181.9411 C   0  0  0  0  0  0  0  0  0  0  0  0
  151.8874  139.9841  181.1558 C   0  0  0  0  0  0  0  0  0  0  0  0
  151.2852  140.6234  180.1408 N   0  0  0  0  0  0  0  0  0  0  0  0
  150.2458  140.0616  179.5475 N   0  0  0  0  0  0  0  0  0  0  0  0
  149.8300  138.8701  179.9832 C   0  0  0  0  0  0  0  0  0  0  0  0
  150.4069  138.2022  180.9945 N   0  0  0  0  0  0  0  0  0  0  0  0
  151.4749  138.7469  181.6265 C   0  0  0  0  0  0  0  0  0  0  0  0
  152.2533  138.3418  182.6448 N   0  0  0  0  0  0  0  0  0  0  0  0
  152.1236  137.0878  183.3957 C   0  0  0  0  0  0  0  0  0  0  0  0
  157.0020  142.7288  183.0302 C   0  0  0  0  0  0  0  0  0  0  0  0
  155.6259  142.6969  182.8024 O   0  0  0  0  0  0  0  0  0  0  0  0
  148.4195  138.1386  179.1582 S   0  0  0  0  0  0  0  0  0  0  0  0
  146.8976  138.6513  180.0209 C   0  0  0  0  0  0  0  0  0  0  0  0
 15 16  1  0  0  0
 16  1  1  0  0  0
  1  2  2  0  0  0
  2  3  1  0  0  0
  3  4  2  0  0  0
  4  5  1  0  0  0
  5  6  2  0  0  0
  5  7  1  0  0  0
  7  8  2  0  0  0
  8  9  1  0  0  0
  9 10  2  0  0  0
 10 17  1  0  0  0
 17 18  1  0  0  0
 10 11  1  0  0  0
 11 12  2  0  0  0
 12 13  1  0  0  0
 13 14  1  0  0  0
  6  1  1  0  0  0
 12  7  1  0  0  0
 13  4  1  0  0  0
M  END
> <minimizedAffinity>
-5.35358

> <CNNscore>
0.5955882668

> <CNNaffinity>
4.8347005844

> <CNN_VS>
2.8794908524

> <CNNaffinity_variance>
0.0826864839

$$$$
[H]c1c(OC([H])([H])[H])c([H])c2c3nnc(SC([H])([H])[H])nc3n(C([H])([H])[H])c2c1[H]


 18 20  0  0  0  0  0  0  0  0999 V2000
  150.8567  138.5201  180.7471 C   0  0  0  0  0  0  0  0  0  0  0  0
  151.3793  139.7090  180.2846 C   0  0  0  0  0  0  0  0  0  0  0  0
  152.4287  140.3038  180.9877 C   0  0  0  0  0  0  0  0  0  0  0  0
  152.9575  139.7308  182.1364 C   0  0  0  0  0  0  0  0  0  0  0  0
  152.4236  138.5441  182.5834 C   0  0  0  0  0  0  0  0  0  0  0  0
  151.3746  137.9438  181.8856 C   0  0  0  0  0  0  0  0  0  0  0  0
  153.1051  138.1795  183.7227 C   0  0  0  0  0  0  0  0  0  0  0  0
  152.9733  137.1172  184.5325 N   0  0  0  0  0  0  0  0  0  0  0  0
  153.7695  137.0000  185.5814 N   0  0  0  0  0  0  0  0  0  0  0  0
  154.6822  137.9498  185.7985 C   0  0  0  0  0  0  0  0  0  0  0  0
  154.8425  139.0250  185.0111 N   0  0  0  0  0  0  0  0  0  0  0  0
  154.0444  139.1787  183.9265 C   0  0  0  0  0  0  0  0  0  0  0  0
  153.9561  140.1171  182.9681 N   0  0  0  0  0  0  0  0  0  0  0  0
  154.7828  141.3238  182.8508 C   0  0  0  0  0  0  0  0  0  0  0  0
  149.0750  138.4171  179.0429 C   0  0  0  0  0  0  0  0  0  0  0  0
  149.8183  137.8824  180.0957 O   0  0  0  0  0  0  0  0  0  0  0  0
  155.7430  137.7605  187.2282 S   0  0  0  0  0  0  0  0  0  0  0  0
  154.7739  138.1026  188.7339 C   0  0  0  0  0  0  0  0  0  0  0  0
 15 16  1  0  0  0
 16  1  1  0  0  0
  1  2  2  0  0  0
  2  3  1  0  0  0
  3  4  2  0  0  0
  4  5  1  0  0  0
  5  6  2  0  0  0
  5  7  1  0  0  0
  7  8  2  0  0  0
  8  9  1  0  0  0
  9 10  2  0  0  0
 10 17  1  0  0  0
 17 18  1  0  0  0
 10 11  1  0  0  0
 11 12  2  0  0  0
 12 13  1  0  0  0
 13 14  1  0  0  0
  6  1  1  0  0  0
 12  7  1  0  0  0
 13  4  1  0  0  0
M  END
> <minimizedAffinity>
-5.09150

> <CNNscore>
0.5845049620

> <CNNaffinity>
4.6638631821

> <CNN_VS>
2.7260510921

> <CNNaffinity_variance>
0.1244091243

$$$$
[H]c1c(OC([H])([H])[H])c([H])c2c3nnc(SC([H])([H])[H])nc3n(C([H])([H])[H])c2c1[H]


 18 20  0  0  0  0  0  0  0  0999 V2000
  148.5395  134.1595  190.6272 C   0  0  0  0  0  0  0  0  0  0  0  0
  148.4221  134.1607  189.2536 C   0  0  0  0  0  0  0  0  0  0  0  0
  149.4055  134.7957  188.4927 C   0  0  0  0  0  0  0  0  0  0  0  0
  150.4946  135.4237  189.0816 C   0  0  0  0  0  0  0  0  0  0  0  0
  150.5956  135.4127  190.4537 C   0  0  0  0  0  0  0  0  0  0  0  0
  149.6163  134.7798  191.2207 C   0  0  0  0  0  0  0  0  0  0  0  0
  151.7446  136.0894  190.7959 C   0  0  0  0  0  0  0  0  0  0  0  0
  152.2924  136.3575  191.9916 N   0  0  0  0  0  0  0  0  0  0  0  0
  153.4245  137.0382  192.0470 N   0  0  0  0  0  0  0  0  0  0  0  0
  153.9853  137.4373  190.9031 C   0  0  0  0  0  0  0  0  0  0  0  0
  153.4665  137.1878  189.6905 N   0  0  0  0  0  0  0  0  0  0  0  0
  152.3071  136.4924  189.5945 C   0  0  0  0  0  0  0  0  0  0  0  0
  151.5522  136.0906  188.5574 N   0  0  0  0  0  0  0  0  0  0  0  0
  151.8252  136.3309  187.1358 C   0  0  0  0  0  0  0  0  0  0  0  0
  147.7934  133.1848  192.7679 C   0  0  0  0  0  0  0  0  0  0  0  0
  147.5996  133.5482  191.4348 O   0  0  0  0  0  0  0  0  0  0  0  0
  155.5169  138.3577  191.0146 S   0  0  0  0  0  0  0  0  0  0  0  0
  156.5465  137.9717  189.5605 C   0  0  0  0  0  0  0  0  0  0  0  0
 15 16  1  0  0  0
 16  1  1  0  0  0
  1  2  2  0  0  0
  2  3  1  0  0  0
  3  4  2  0  0  0
  4  5  1  0  0  0
  5  6  2  0  0  0
  5  7  1  0  0  0
  7  8  2  0  0  0
  8  9  1  0  0  0
  9 10  2  0  0  0
 10 17  1  0  0  0
 17 18  1  0  0  0
 10 11  1  0  0  0
 11 12  2  0  0  0
 12 13  1  0  0  0
 13 14  1  0  0  0
  6  1  1  0  0  0
 12  7  1  0  0  0
 13  4  1  0  0  0
M  END
> <minimizedAffinity>
-3.67885

> <CNNscore>
0.5666265488

> <CNNaffinity>
4.3904447556

> <CNN_VS>
2.4877426624

> <CNNaffinity_variance>
0.0544848740

$$$$
[H]c1c(OC([H])([H])[H])c([H])c2c3nnc(SC([H])([H])[H])nc3n(C([H])([H])[H])c2c1[H]


 18 20  0  0  0  0  0  0  0  0999 V2000
  154.2250  136.8526  191.2386 C   0  0  0  0  0  0  0  0  0  0  0  0
  153.3277  136.4758  192.2150 C   0  0  0  0  0  0  0  0  0  0  0  0
  152.0476  136.0688  191.8344 C   0  0  0  0  0  0  0  0  0  0  0  0
  151.6564  136.0339  190.5028 C   0  0  0  0  0  0  0  0  0  0  0  0
  152.5650  136.4133  189.5418 C   0  0  0  0  0  0  0  0  0  0  0  0
  153.8464  136.8212  189.9149 C   0  0  0  0  0  0  0  0  0  0  0  0
  151.9525  136.2950  188.3145 C   0  0  0  0  0  0  0  0  0  0  0  0
  152.4011  136.5384  187.0731 N   0  0  0  0  0  0  0  0  0  0  0  0
  151.5962  136.3394  186.0432 N   0  0  0  0  0  0  0  0  0  0  0  0
  150.3573  135.9008  186.2777 C   0  0  0  0  0  0  0  0  0  0  0  0
  149.8747  135.6472  187.5043 N   0  0  0  0  0  0  0  0  0  0  0  0
  150.6711  135.8394  188.5840 C   0  0  0  0  0  0  0  0  0  0  0  0
  150.4910  135.6812  189.9066 N   0  0  0  0  0  0  0  0  0  0  0  0
  149.2673  135.2169  190.5703 C   0  0  0  0  0  0  0  0  0  0  0  0
  156.2677  138.1692  190.8104 C   0  0  0  0  0  0  0  0  0  0  0  0
  155.5062  137.2648  191.5513 O   0  0  0  0  0  0  0  0  0  0  0  0
  149.2935  135.6431  184.8608 S   0  0  0  0  0  0  0  0  0  0  0  0
  149.0457  137.2359  184.0093 C   0  0  0  0  0  0  0  0  0  0  0  0
 15 16  1  0  0  0
 16  1  1  0  0  0
  1  2  2  0  0  0
  2  3  1  0  0  0
  3  4  2  0  0  0
  4  5  1  0  0  0
  5  6  2  0  0  0
  5  7  1  0  0  0
  7  8  2  0  0  0
  8  9  1  0  0  0
  9 10  2  0  0  0
 10 17  1  0  0  0
 17 18  1  0  0  0
 10 11  1  0  0  0
 11 12  2  0  0  0
 12 13  1  0  0  0
 13 14  1  0  0  0
  6  1  1  0  0  0
 12  7  1  0  0  0
 13  4  1  0  0  0
M  END
> <minimizedAffinity>
-3.56945

> <CNNscore>
0.5613598228

> <CNNaffinity>
4.7183427811

> <CNN_VS>
2.6486880779

> <CNNaffinity_variance>
0.2837654948

$$$$
[H]c1c(OC([H])([H])[H])c([H])c2c3nnc(SC([H])([H])[H])nc3n(C([H])([H])[H])c2c1[H]


 18 20  0  0  0  0  0  0  0  0999 V2000
  153.9004  138.0071  186.5118 C   0  0  0  0  0  0  0  0  0  0  0  0
  155.2304  138.2589  186.7731 C   0  0  0  0  0  0  0  0  0  0  0  0
  155.7140  138.0563  188.0670 C   0  0  0  0  0  0  0  0  0  0  0  0
  154.8932  137.6095  189.0936 C   0  0  0  0  0  0  0  0  0  0  0  0
  153.5685  137.3633  188.8147 C   0  0  0  0  0  0  0  0  0  0  0  0
  153.0781  137.5635  187.5235 C   0  0  0  0  0  0  0  0  0  0  0  0
  152.9671  136.9349  189.9765 C   0  0  0  0  0  0  0  0  0  0  0  0
  151.7020  136.5700  190.2372 N   0  0  0  0  0  0  0  0  0  0  0  0
  151.3765  136.1911  191.4613 N   0  0  0  0  0  0  0  0  0  0  0  0
  152.3253  136.1857  192.4005 C   0  0  0  0  0  0  0  0  0  0  0  0
  153.5993  136.5439  192.1767 N   0  0  0  0  0  0  0  0  0  0  0  0
  153.9699  136.9378  190.9339 C   0  0  0  0  0  0  0  0  0  0  0  0
  155.1348  137.3454  190.4013 N   0  0  0  0  0  0  0  0  0  0  0  0
  156.4159  137.4776  191.1044 C   0  0  0  0  0  0  0  0  0  0  0  0
  154.0053  138.8065  184.1795 C   0  0  0  0  0  0  0  0  0  0  0  0
  153.3620  138.1881  185.2522 O   0  0  0  0  0  0  0  0  0  0  0  0
  151.8501  135.6684  194.0474 S   0  0  0  0  0  0  0  0  0  0  0  0
  150.0417  135.4438  194.0986 C   0  0  0  0  0  0  0  0  0  0  0  0
 15 16  1  0  0  0
 16  1  1  0  0  0
  1  2  2  0  0  0
  2  3  1  0  0  0
  3  4  2  0  0  0
  4  5  1  0  0  0
  5  6  2  0  0  0
  5  7  1  0  0  0
  7  8  2  0  0  0
  8  9  1  0  0  0
  9 10  2  0  0  0
 10 17  1  0  0  0
 17 18  1  0  0  0
 10 11  1  0  0  0
 11 12  2  0  0  0
 12 13  1  0  0  0
 13 14  1  0  0  0
  6  1  1  0  0  0
 12  7  1  0  0  0
 13  4  1  0  0  0
M  END
> <minimizedAffinity>
-4.65362

> <CNNscore>
0.5403457284

> <CNNaffinity>
4.5959615707

> <CNN_VS>
2.4834082127

> <CNNaffinity_variance>
0.1660252661

$$$$
[H]c1c(OC([H])([H])[H])c([H])c2c3nnc(SC([H])([H])[H])nc3n(C([H])([H])[H])c2c1[H]


 18 20  0  0  0  0  0  0  0  0999 V2000
  153.4164  140.1804  181.9528 C   0  0  0  0  0  0  0  0  0  0  0  0
  153.4829  139.3091  183.0191 C   0  0  0  0  0  0  0  0  0  0  0  0
  152.5443  138.2794  183.1087 C   0  0  0  0  0  0  0  0  0  0  0  0
  151.5495  138.1108  182.1552 C   0  0  0  0  0  0  0  0  0  0  0  0
  151.4983  138.9897  181.0978 C   0  0  0  0  0  0  0  0  0  0  0  0
  152.4332  140.0214  181.0017 C   0  0  0  0  0  0  0  0  0  0  0  0
  150.4405  138.6223  180.2969 C   0  0  0  0  0  0  0  0  0  0  0  0
  149.9685  139.1481  179.1557 N   0  0  0  0  0  0  0  0  0  0  0  0
  148.9184  138.5946  178.5736 N   0  0  0  0  0  0  0  0  0  0  0  0
  148.3614  137.5253  179.1467 C   0  0  0  0  0  0  0  0  0  0  0  0
  148.8056  136.9729  180.2866 N   0  0  0  0  0  0  0  0  0  0  0  0
  149.8802  137.5130  180.9115 C   0  0  0  0  0  0  0  0  0  0  0  0
  150.5499  137.2029  182.0350 N   0  0  0  0  0  0  0  0  0  0  0  0
  150.2513  136.0954  182.9502 C   0  0  0  0  0  0  0  0  0  0  0  0
  154.2589  142.4380  182.4846 C   0  0  0  0  0  0  0  0  0  0  0  0
  154.3160  141.2191  181.8079 O   0  0  0  0  0  0  0  0  0  0  0  0
  146.9405  136.8015  178.3327 S   0  0  0  0  0  0  0  0  0  0  0  0
  146.8288  137.4630  176.6376 C   0  0  0  0  0  0  0  0  0  0  0  0
 15 16  1  0  0  0
 16  1  1  0  0  0
  1  2  2  0  0  0
  2  3  1  0  0  0
  3  4  2  0  0  0
  4  5  1  0  0  0
  5  6  2  0  0  0
  5  7  1  0  0  0
  7  8  2  0  0  0
  8  9  1  0  0  0
  9 10  2  0  0  0
 10 17  1  0  0  0
 17 18  1  0  0  0
 10 11  1  0  0  0
 11 12  2  0  0  0
 12 13  1  0  0  0
 13 14  1  0  0  0
  6  1  1  0  0  0
 12  7  1  0  0  0
 13  4  1  0  0  0
M  END
> <minimizedAffinity>
-4.89950

> <CNNscore>
0.5370828509

> <CNNaffinity>
4.4936332703

> <CNN_VS>
2.4134533405

> <CNNaffinity_variance>
0.1045988798

$$$$
[H]c1c(OC([H])([H])[H])c([H])c2c3nnc(SC([H])([H])[H])nc3n(C([H])([H])[H])c2c1[H]


 18 20  0  0  0  0  0  0  0  0999 V2000
  155.7436  137.4146  190.2599 C   0  0  0  0  0  0  0  0  0  0  0  0
  156.2209  138.0110  189.1123 C   0  0  0  0  0  0  0  0  0  0  0  0
  155.3923  138.0753  187.9904 C   0  0  0  0  0  0  0  0  0  0  0  0
  154.1048  137.5560  188.0007 C   0  0  0  0  0  0  0  0  0  0  0  0
  153.6451  136.9644  189.1547 C   0  0  0  0  0  0  0  0  0  0  0  0
  154.4677  136.8966  190.2800 C   0  0  0  0  0  0  0  0  0  0  0  0
  152.3589  136.5322  188.9217 C   0  0  0  0  0  0  0  0  0  0  0  0
  151.4790  135.9004  189.7142 N   0  0  0  0  0  0  0  0  0  0  0  0
  150.2848  135.5914  189.2385 N   0  0  0  0  0  0  0  0  0  0  0  0
  149.9958  135.9213  187.9776 C   0  0  0  0  0  0  0  0  0  0  0  0
  150.8498  136.5525  187.1566 N   0  0  0  0  0  0  0  0  0  0  0  0
  152.0830  136.8854  187.6096 C   0  0  0  0  0  0  0  0  0  0  0  0
  153.1378  137.5044  187.0519 N   0  0  0  0  0  0  0  0  0  0  0  0
  153.2205  138.0212  185.6810 C   0  0  0  0  0  0  0  0  0  0  0  0
  156.6311  136.1864  192.2076 C   0  0  0  0  0  0  0  0  0  0  0  0
  156.5147  137.3201  191.4026 O   0  0  0  0  0  0  0  0  0  0  0  0
  148.3704  135.4871  187.3652 S   0  0  0  0  0  0  0  0  0  0  0  0
  147.1372  136.5966  188.1211 C   0  0  0  0  0  0  0  0  0  0  0  0
 15 16  1  0  0  0
 16  1  1  0  0  0
  1  2  2  0  0  0
  2  3  1  0  0  0
  3  4  2  0  0  0
  4  5  1  0  0  0
  5  6  2  0  0  0
  5  7  1  0  0  0
  7  8  2  0  0  0
  8  9  1  0  0  0
  9 10  2  0  0  0
 10 17  1  0  0  0
 17 18  1  0  0  0
 10 11  1  0  0  0
 11 12  2  0  0  0
 12 13  1  0  0  0
 13 14  1  0  0  0
  6  1  1  0  0  0
 12  7  1  0  0  0
 13  4  1  0  0  0
M  END
> <minimizedAffinity>
-4.02505

> <CNNscore>
0.5110856891

> <CNNaffinity>
4.4518685341

> <CNN_VS>
2.2752861977

> <CNNaffinity_variance>
0.1242251396

$$$$
[H]c1c(OC([H])([H])[H])c([H])c2c3nnc(SC([H])([H])[H])nc3n(C([H])([H])[H])c2c1[H]


 18 20  0  0  0  0  0  0  0  0999 V2000
  154.2082  137.9930  189.5953 C   0  0  0  0  0  0  0  0  0  0  0  0
  153.2360  137.0756  189.9327 C   0  0  0  0  0  0  0  0  0  0  0  0
  152.3946  136.5853  188.9323 C   0  0  0  0  0  0  0  0  0  0  0  0
  152.5111  136.9963  187.6114 C   0  0  0  0  0  0  0  0  0  0  0  0
  153.4869  137.9125  187.2929 C   0  0  0  0  0  0  0  0  0  0  0  0
  154.3317  138.4069  188.2876 C   0  0  0  0  0  0  0  0  0  0  0  0
  153.4058  138.1598  185.9410 C   0  0  0  0  0  0  0  0  0  0  0  0
  154.1236  138.9657  185.1429 N   0  0  0  0  0  0  0  0  0  0  0  0
  153.8380  139.0211  183.8532 N   0  0  0  0  0  0  0  0  0  0  0  0
  152.8384  138.2681  183.3885 C   0  0  0  0  0  0  0  0  0  0  0  0
  152.0997  137.4516  184.1562 N   0  0  0  0  0  0  0  0  0  0  0  0
  152.3636  137.3685  185.4830 C   0  0  0  0  0  0  0  0  0  0  0  0
  151.8220  136.6646  186.4920 N   0  0  0  0  0  0  0  0  0  0  0  0
  150.7016  135.7221  186.3943 C   0  0  0  0  0  0  0  0  0  0  0  0
  156.3423  138.0202  190.8340 C   0  0  0  0  0  0  0  0  0  0  0  0
  155.0714  138.5151  190.5395 O   0  0  0  0  0  0  0  0  0  0  0  0
  152.4777  138.3682  181.6377 S   0  0  0  0  0  0  0  0  0  0  0  0
  152.3304  140.1221  181.1630 C   0  0  0  0  0  0  0  0  0  0  0  0
 15 16  1  0  0  0
 16  1  1  0  0  0
  1  2  2  0  0  0
  2  3  1  0  0  0
  3  4  2  0  0  0
  4  5  1  0  0  0
  5  6  2  0  0  0
  5  7  1  0  0  0
  7  8  2  0  0  0
  8  9  1  0  0  0
  9 10  2  0  0  0
 10 17  1  0  0  0
 17 18  1  0  0  0
 10 11  1  0  0  0
 11 12  2  0  0  0
 12 13  1  0  0  0
 13 14  1  0  0  0
  6  1  1  0  0  0
 12  7  1  0  0  0
 13  4  1  0  0  0
M  END
> <minimizedAffinity>
-4.59624

> <CNNscore>
0.5067073107

> <CNNaffinity>
4.4616155624

> <CNN_VS>
2.2607331276

> <CNNaffinity_variance>
0.0400704369

$$$$
[H]OC1(c2c([H])c([H])c(C([H])([H])C([H])([H])C([H])([H])[H])c([H])c2[H])C([H])([H])C([H])([H])N(C([H])(c2c([H])c([H])c([H])c([H])c2[H])c2c([H])c([H])c([H])c([H])c2[H])C([H])([H])C1([H])[H]


 30 33  0  0  0  0  0  0  0  0999 V2000
  155.2692  140.4424  183.2074 C   0  0  0  0  0  0  0  0  0  0  0  0
  156.1765  140.3822  182.1264 O   0  0  0  0  0  0  0  0  0  0  0  0
  155.2446  141.8391  183.6978 C   0  0  0  0  0  0  0  0  0  0  0  0
  156.6600  142.2621  183.9825 C   0  0  0  0  0  0  0  0  0  0  0  0
  157.5313  141.1973  184.3148 N   0  0  0  0  0  0  0  0  0  0  0  0
  157.0706  140.0196  184.8779 C   0  0  0  0  0  0  0  0  0  0  0  0
  155.7725  139.5275  184.2821 C   0  0  0  0  0  0  0  0  0  0  0  0
  155.6853  140.4953  181.2732 H   0  0  0  0  0  0  0  0  0  0  0  0
  151.5060  139.2324  181.5477 C   0  0  0  0  0  0  0  0  0  0  0  0
  152.1091  138.4790  182.5366 C   0  0  0  0  0  0  0  0  0  0  0  0
  153.3224  138.8612  183.1056 C   0  0  0  0  0  0  0  0  0  0  0  0
  153.9620  140.0155  182.6908 C   0  0  0  0  0  0  0  0  0  0  0  0
  153.3371  140.7489  181.7073 C   0  0  0  0  0  0  0  0  0  0  0  0
  152.1407  140.3862  181.1358 C   0  0  0  0  0  0  0  0  0  0  0  0
  150.2809  138.7198  180.8999 C   0  0  0  0  0  0  0  0  0  0  0  0
  149.0056  138.5318  178.7925 C   0  0  0  0  0  0  0  0  0  0  0  0
  150.1508  139.2301  179.4745 C   0  0  0  0  0  0  0  0  0  0  0  0
  158.8490  141.3317  183.8347 C   0  0  0  0  0  0  0  0  0  0  0  0
  158.9680  142.2659  182.6418 C   0  0  0  0  0  0  0  0  0  0  0  0
  158.9315  143.6490  182.8341 C   0  0  0  0  0  0  0  0  0  0  0  0
  158.9889  144.5167  181.7788 C   0  0  0  0  0  0  0  0  0  0  0  0
  159.0852  143.9835  180.5063 C   0  0  0  0  0  0  0  0  0  0  0  0
  159.1250  142.6333  180.3181 C   0  0  0  0  0  0  0  0  0  0  0  0
  159.0654  141.7508  181.4096 C   0  0  0  0  0  0  0  0  0  0  0  0
  159.8687  141.8165  184.7631 C   0  0  0  0  0  0  0  0  0  0  0  0
  161.2007  141.9102  184.3692 C   0  0  0  0  0  0  0  0  0  0  0  0
  162.1695  142.4234  185.1840 C   0  0  0  0  0  0  0  0  0  0  0  0
  161.8474  142.8810  186.4586 C   0  0  0  0  0  0  0  0  0  0  0  0
  160.5465  142.7921  186.8661 C   0  0  0  0  0  0  0  0  0  0  0  0
  159.5836  142.2638  186.0194 C   0  0  0  0  0  0  0  0  0  0  0  0
 16 17  1  0  0  0
 17 15  1  0  0  0
 15  9  1  0  0  0
  9 10  2  0  0  0
 10 11  1  0  0  0
 11 12  2  0  0  0
 12  1  1  0  0  0
  1  2  1  0  0  0
  1  3  1  0  0  0
  3  4  1  0  0  0
  4  5  1  0  0  0
  5 18  1  0  0  0
 18 19  1  0  0  0
 19 20  2  0  0  0
 20 21  1  0  0  0
 21 22  2  0  0  0
 22 23  1  0  0  0
 23 24  2  0  0  0
 18 25  1  0  0  0
 25 26  2  0  0  0
 26 27  1  0  0  0
 27 28  2  0  0  0
 28 29  1  0  0  0
 29 30  2  0  0  0
  5  6  1  0  0  0
  6  7  1  0  0  0
 12 13  1  0  0  0
 13 14  2  0  0  0
 14  9  1  0  0  0
  7  1  1  0  0  0
 24 19  1  0  0  0
 30 25  1  0  0  0
  2  8  1  0  0  0
M  END
> <minimizedAffinity>
-11.76200

> <CNNscore>
0.7927951813

> <CNNaffinity>
7.0059952736

> <CNN_VS>
5.5543193817

> <CNNaffinity_variance>
0.1309499890

$$$$
[H]OC1(c2c([H])c([H])c(C([H])([H])C([H])([H])C([H])([H])[H])c([H])c2[H])C([H])([H])C([H])([H])N(C([H])(c2c([H])c([H])c([H])c([H])c2[H])c2c([H])c([H])c([H])c([H])c2[H])C([H])([H])C1([H])[H]


 30 33  0  0  0  0  0  0  0  0999 V2000
  153.1991  136.9184  186.8199 C   0  0  0  0  0  0  0  0  0  0  0  0
  154.1344  137.4590  187.7300 O   0  0  0  0  0  0  0  0  0  0  0  0
  151.8537  137.0535  187.4230 C   0  0  0  0  0  0  0  0  0  0  0  0
  151.8903  136.4386  188.7956 C   0  0  0  0  0  0  0  0  0  0  0  0
  152.8581  135.4175  188.9516 N   0  0  0  0  0  0  0  0  0  0  0  0
  153.3118  134.6657  187.8816 C   0  0  0  0  0  0  0  0  0  0  0  0
  153.5326  135.4709  186.6225 C   0  0  0  0  0  0  0  0  0  0  0  0
  154.3117  138.4067  187.5012 H   0  0  0  0  0  0  0  0  0  0  0  0
  153.4035  139.1471  183.1632 C   0  0  0  0  0  0  0  0  0  0  0  0
  154.1462  139.5356  184.2617 C   0  0  0  0  0  0  0  0  0  0  0  0
  154.1119  138.8170  185.4552 C   0  0  0  0  0  0  0  0  0  0  0  0
  153.3250  137.6856  185.5735 C   0  0  0  0  0  0  0  0  0  0  0  0
  152.5987  137.3191  184.4627 C   0  0  0  0  0  0  0  0  0  0  0  0
  152.6213  138.0163  183.2783 C   0  0  0  0  0  0  0  0  0  0  0  0
  153.3885  140.0102  181.9640 C   0  0  0  0  0  0  0  0  0  0  0  0
  152.0886  139.5762  179.9085 C   0  0  0  0  0  0  0  0  0  0  0  0
  152.0077  140.0588  181.3315 C   0  0  0  0  0  0  0  0  0  0  0  0
  153.4795  135.3717  190.2153 C   0  0  0  0  0  0  0  0  0  0  0  0
  154.5650  136.4200  190.3962 C   0  0  0  0  0  0  0  0  0  0  0  0
  154.2297  137.6991  190.8464 C   0  0  0  0  0  0  0  0  0  0  0  0
  155.1745  138.6791  190.9754 C   0  0  0  0  0  0  0  0  0  0  0  0
  156.4809  138.3671  190.6458 C   0  0  0  0  0  0  0  0  0  0  0  0
  156.8096  137.1172  190.2100 C   0  0  0  0  0  0  0  0  0  0  0  0
  155.8309  136.1176  190.0812 C   0  0  0  0  0  0  0  0  0  0  0  0
  152.6358  135.5325  191.3981 C   0  0  0  0  0  0  0  0  0  0  0  0
  153.1486  135.3049  192.6723 C   0  0  0  0  0  0  0  0  0  0  0  0
  152.4125  135.5119  193.8041 C   0  0  0  0  0  0  0  0  0  0  0  0
  151.1007  135.9694  193.7166 C   0  0  0  0  0  0  0  0  0  0  0  0
  150.5771  136.1931  192.4748 C   0  0  0  0  0  0  0  0  0  0  0  0
  151.3460  135.9716  191.3421 C   0  0  0  0  0  0  0  0  0  0  0  0
 16 17  1  0  0  0
 17 15  1  0  0  0
 15  9  1  0  0  0
  9 10  2  0  0  0
 10 11  1  0  0  0
 11 12  2  0  0  0
 12  1  1  0  0  0
  1  2  1  0  0  0
  1  3  1  0  0  0
  3  4  1  0  0  0
  4  5  1  0  0  0
  5 18  1  0  0  0
 18 19  1  0  0  0
 19 20  2  0  0  0
 20 21  1  0  0  0
 21 22  2  0  0  0
 22 23  1  0  0  0
 23 24  2  0  0  0
 18 25  1  0  0  0
 25 26  2  0  0  0
 26 27  1  0  0  0
 27 28  2  0  0  0
 28 29  1  0  0  0
 29 30  2  0  0  0
  5  6  1  0  0  0
  6  7  1  0  0  0
 12 13  1  0  0  0
 13 14  2  0  0  0
 14  9  1  0  0  0
  7  1  1  0  0  0
 24 19  1  0  0  0
 30 25  1  0  0  0
  2  8  1  0  0  0
M  END
> <minimizedAffinity>
-7.47024

> <CNNscore>
0.5209688544

> <CNNaffinity>
5.4344139099

> <CNN_VS>
2.8311603069

> <CNNaffinity_variance>
0.0221863054

$$$$
[H]OC1(c2c([H])c([H])c(C([H])([H])C([H])([H])C([H])([H])[H])c([H])c2[H])C([H])([H])C([H])([H])N(C([H])(c2c([H])c([H])c([H])c([H])c2[H])c2c([H])c([H])c([H])c([H])c2[H])C([H])([H])C1([H])[H]


 30 33  0  0  0  0  0  0  0  0999 V2000
  154.7481  138.3803  185.7400 C   0  0  0  0  0  0  0  0  0  0  0  0
  155.5632  138.0869  186.8558 O   0  0  0  0  0  0  0  0  0  0  0  0
  153.5658  139.1250  186.2291 C   0  0  0  0  0  0  0  0  0  0  0  0
  152.9314  138.3258  187.3346 C   0  0  0  0  0  0  0  0  0  0  0  0
  153.1552  136.9308  187.2483 N   0  0  0  0  0  0  0  0  0  0  0  0
  153.4072  136.3006  186.0419 C   0  0  0  0  0  0  0  0  0  0  0  0
  154.3218  137.0810  185.1271 C   0  0  0  0  0  0  0  0  0  0  0  0
  156.2561  138.7883  186.9551 H   0  0  0  0  0  0  0  0  0  0  0  0
  157.0011  140.8278  183.0355 C   0  0  0  0  0  0  0  0  0  0  0  0
  157.6081  140.2677  184.1433 C   0  0  0  0  0  0  0  0  0  0  0  0
  156.9024  139.4530  185.0266 C   0  0  0  0  0  0  0  0  0  0  0  0
  155.5623  139.1817  184.8166 C   0  0  0  0  0  0  0  0  0  0  0  0
  154.9840  139.7493  183.7034 C   0  0  0  0  0  0  0  0  0  0  0  0
  155.6655  140.5547  182.8224 C   0  0  0  0  0  0  0  0  0  0  0  0
  157.7661  141.7753  182.1988 C   0  0  0  0  0  0  0  0  0  0  0  0
  158.5845  142.2204  179.9108 C   0  0  0  0  0  0  0  0  0  0  0  0
  158.1813  141.1431  180.8809 C   0  0  0  0  0  0  0  0  0  0  0  0
  153.3210  136.2748  188.4841 C   0  0  0  0  0  0  0  0  0  0  0  0
  154.3672  136.9200  189.3781 C   0  0  0  0  0  0  0  0  0  0  0  0
  155.5188  136.2103  189.7266 C   0  0  0  0  0  0  0  0  0  0  0  0
  156.4571  136.7433  190.5663 C   0  0  0  0  0  0  0  0  0  0  0  0
  156.2334  138.0138  191.0648 C   0  0  0  0  0  0  0  0  0  0  0  0
  155.1112  138.7089  190.7217 C   0  0  0  0  0  0  0  0  0  0  0  0
  154.1535  138.1518  189.8580 C   0  0  0  0  0  0  0  0  0  0  0  0
  152.1513  136.1441  189.3509 C   0  0  0  0  0  0  0  0  0  0  0  0
  150.9197  135.7592  188.8282 C   0  0  0  0  0  0  0  0  0  0  0  0
  149.8219  135.5587  189.6158 C   0  0  0  0  0  0  0  0  0  0  0  0
  149.9033  135.7336  190.9944 C   0  0  0  0  0  0  0  0  0  0  0  0
  151.1018  136.1171  191.5262 C   0  0  0  0  0  0  0  0  0  0  0  0
  152.1997  136.3167  190.7027 C   0  0  0  0  0  0  0  0  0  0  0  0
 16 17  1  0  0  0
 17 15  1  0  0  0
 15  9  1  0  0  0
  9 10  2  0  0  0
 10 11  1  0  0  0
 11 12  2  0  0  0
 12  1  1  0  0  0
  1  2  1  0  0  0
  1  3  1  0  0  0
  3  4  1  0  0  0
  4  5  1  0  0  0
  5 18  1  0  0  0
 18 19  1  0  0  0
 19 20  2  0  0  0
 20 21  1  0  0  0
 21 22  2  0  0  0
 22 23  1  0  0  0
 23 24  2  0  0  0
 18 25  1  0  0  0
 25 26  2  0  0  0
 26 27  1  0  0  0
 27 28  2  0  0  0
 28 29  1  0  0  0
 29 30  2  0  0  0
  5  6  1  0  0  0
  6  7  1  0  0  0
 12 13  1  0  0  0
 13 14  2  0  0  0
 14  9  1  0  0  0
  7  1  1  0  0  0
 24 19  1  0  0  0
 30 25  1  0  0  0
  2  8  1  0  0  0
M  END
> <minimizedAffinity>
-8.02248

> <CNNscore>
0.4993634224

> <CNNaffinity>
5.6799812317

> <CNN_VS>
2.8363747597

> <CNNaffinity_variance>
0.0449867770

$$$$
[H]OC1(c2c([H])c([H])c(C([H])([H])C([H])([H])C([H])([H])[H])c([H])c2[H])C([H])([H])C([H])([H])N(C([H])(c2c([H])c([H])c([H])c([H])c2[H])c2c([H])c([H])c([H])c([H])c2[H])C([H])([H])C1([H])[H]


 30 33  0  0  0  0  0  0  0  0999 V2000
  154.9543  140.8624  182.8797 C   0  0  0  0  0  0  0  0  0  0  0  0
  155.4898  141.5481  181.7670 O   0  0  0  0  0  0  0  0  0  0  0  0
  154.6549  141.8660  183.9262 C   0  0  0  0  0  0  0  0  0  0  0  0
  155.8989  142.6762  184.1697 C   0  0  0  0  0  0  0  0  0  0  0  0
  157.1052  141.9930  183.8840 N   0  0  0  0  0  0  0  0  0  0  0  0
  157.1980  140.6129  183.9370 C   0  0  0  0  0  0  0  0  0  0  0  0
  155.9926  139.8998  183.3705 C   0  0  0  0  0  0  0  0  0  0  0  0
  154.7651  141.7553  181.1236 H   0  0  0  0  0  0  0  0  0  0  0  0
  151.4693  138.8785  181.3634 C   0  0  0  0  0  0  0  0  0  0  0  0
  152.1701  138.3453  182.4282 C   0  0  0  0  0  0  0  0  0  0  0  0
  153.2944  138.9808  182.9516 C   0  0  0  0  0  0  0  0  0  0  0  0
  153.7437  140.1731  182.4133 C   0  0  0  0  0  0  0  0  0  0  0  0
  153.0246  140.6837  181.3560 C   0  0  0  0  0  0  0  0  0  0  0  0
  151.9138  140.0699  180.8279 C   0  0  0  0  0  0  0  0  0  0  0  0
  150.3561  138.1047  180.7758 C   0  0  0  0  0  0  0  0  0  0  0  0
  148.5691  138.0590  179.0706 C   0  0  0  0  0  0  0  0  0  0  0  0
  149.8106  138.7766  179.5268 C   0  0  0  0  0  0  0  0  0  0  0  0
  158.1280  142.7911  183.3345 C   0  0  0  0  0  0  0  0  0  0  0  0
  159.4950  142.5317  183.9460 C   0  0  0  0  0  0  0  0  0  0  0  0
  159.9264  143.2924  185.0353 C   0  0  0  0  0  0  0  0  0  0  0  0
  161.1684  143.1167  185.5795 C   0  0  0  0  0  0  0  0  0  0  0  0
  161.9921  142.1580  185.0181 C   0  0  0  0  0  0  0  0  0  0  0  0
  161.5700  141.4121  183.9571 C   0  0  0  0  0  0  0  0  0  0  0  0
  160.2917  141.6007  183.4057 C   0  0  0  0  0  0  0  0  0  0  0  0
  158.3652  142.7026  181.8948 C   0  0  0  0  0  0  0  0  0  0  0  0
  158.8849  143.7868  181.1929 C   0  0  0  0  0  0  0  0  0  0  0  0
  159.1853  143.7197  179.8621 C   0  0  0  0  0  0  0  0  0  0  0  0
  158.9796  142.5397  179.1528 C   0  0  0  0  0  0  0  0  0  0  0  0
  158.4647  141.4660  179.8224 C   0  0  0  0  0  0  0  0  0  0  0  0
  158.1657  141.5628  181.1731 C   0  0  0  0  0  0  0  0  0  0  0  0
 16 17  1  0  0  0
 17 15  1  0  0  0
 15  9  1  0  0  0
  9 10  2  0  0  0
 10 11  1  0  0  0
 11 12  2  0  0  0
 12  1  1  0  0  0
  1  2  1  0  0  0
  1  3  1  0  0  0
  3  4  1  0  0  0
  4  5  1  0  0  0
  5 18  1  0  0  0
 18 19  1  0  0  0
 19 20  2  0  0  0
 20 21  1  0  0  0
 21 22  2  0  0  0
 22 23  1  0  0  0
 23 24  2  0  0  0
 18 25  1  0  0  0
 25 26  2  0  0  0
 26 27  1  0  0  0
 27 28  2  0  0  0
 28 29  1  0  0  0
 29 30  2  0  0  0
  5  6  1  0  0  0
  6  7  1  0  0  0
 12 13  1  0  0  0
 13 14  2  0  0  0
 14  9  1  0  0  0
  7  1  1  0  0  0
 24 19  1  0  0  0
 30 25  1  0  0  0
  2  8  1  0  0  0
M  END
> <minimizedAffinity>
-9.99095

> <CNNscore>
0.4832242131

> <CNNaffinity>
6.6455230713

> <CNN_VS>
3.2112777233

> <CNNaffinity_variance>
0.0956527442

$$$$
[H]OC1(c2c([H])c([H])c(C([H])([H])C([H])([H])C([H])([H])[H])c([H])c2[H])C([H])([H])C([H])([H])N(C([H])(c2c([H])c([H])c([H])c([H])c2[H])c2c([H])c([H])c([H])c([H])c2[H])C([H])([H])C1([H])[H]


 30 33  0  0  0  0  0  0  0  0999 V2000
  153.9644  136.8535  186.0202 C   0  0  0  0  0  0  0  0  0  0  0  0
  154.8307  137.5444  186.8962 O   0  0  0  0  0  0  0  0  0  0  0  0
  152.7537  136.4796  186.7860 C   0  0  0  0  0  0  0  0  0  0  0  0
  153.1891  135.7418  188.0226 C   0  0  0  0  0  0  0  0  0  0  0  0
  154.4276  135.0685  187.8943 N   0  0  0  0  0  0  0  0  0  0  0  0
  154.9064  134.6385  186.6688 C   0  0  0  0  0  0  0  0  0  0  0  0
  154.6751  135.6226  185.5460 C   0  0  0  0  0  0  0  0  0  0  0  0
  154.6808  138.5203  186.8113 H   0  0  0  0  0  0  0  0  0  0  0  0
  153.2257  139.5728  182.7891 C   0  0  0  0  0  0  0  0  0  0  0  0
  152.6520  138.3158  182.7905 C   0  0  0  0  0  0  0  0  0  0  0  0
  152.8610  137.4210  183.8382 C   0  0  0  0  0  0  0  0  0  0  0  0
  153.6570  137.7702  184.9143 C   0  0  0  0  0  0  0  0  0  0  0  0
  154.2126  139.0297  184.8888 C   0  0  0  0  0  0  0  0  0  0  0  0
  154.0166  139.9242  183.8637 C   0  0  0  0  0  0  0  0  0  0  0  0
  153.0647  140.4351  181.6001 C   0  0  0  0  0  0  0  0  0  0  0  0
  151.0575  140.2632  180.1702 C   0  0  0  0  0  0  0  0  0  0  0  0
  152.4166  139.6815  180.4507 C   0  0  0  0  0  0  0  0  0  0  0  0
  155.2282  135.0645  189.0536 C   0  0  0  0  0  0  0  0  0  0  0  0
  156.6819  134.7109  188.7861 C   0  0  0  0  0  0  0  0  0  0  0  0
  157.3382  133.7928  189.6093 C   0  0  0  0  0  0  0  0  0  0  0  0
  158.6582  133.4875  189.4252 C   0  0  0  0  0  0  0  0  0  0  0  0
  159.3310  134.1171  188.3937 C   0  0  0  0  0  0  0  0  0  0  0  0
  158.6898  135.0105  187.5871 C   0  0  0  0  0  0  0  0  0  0  0  0
  157.3331  135.3168  187.7850 C   0  0  0  0  0  0  0  0  0  0  0  0
  155.3053  136.2973  189.8353 C   0  0  0  0  0  0  0  0  0  0  0  0
  156.3616  137.1864  189.6568 C   0  0  0  0  0  0  0  0  0  0  0  0
  156.4318  138.3800  190.3172 C   0  0  0  0  0  0  0  0  0  0  0  0
  155.4267  138.7534  191.2050 C   0  0  0  0  0  0  0  0  0  0  0  0
  154.3843  137.8918  191.3984 C   0  0  0  0  0  0  0  0  0  0  0  0
  154.3398  136.6847  190.7171 C   0  0  0  0  0  0  0  0  0  0  0  0
 16 17  1  0  0  0
 17 15  1  0  0  0
 15  9  1  0  0  0
  9 10  2  0  0  0
 10 11  1  0  0  0
 11 12  2  0  0  0
 12  1  1  0  0  0
  1  2  1  0  0  0
  1  3  1  0  0  0
  3  4  1  0  0  0
  4  5  1  0  0  0
  5 18  1  0  0  0
 18 19  1  0  0  0
 19 20  2  0  0  0
 20 21  1  0  0  0
 21 22  2  0  0  0
 22 23  1  0  0  0
 23 24  2  0  0  0
 18 25  1  0  0  0
 25 26  2  0  0  0
 26 27  1  0  0  0
 27 28  2  0  0  0
 28 29  1  0  0  0
 29 30  2  0  0  0
  5  6  1  0  0  0
  6  7  1  0  0  0
 12 13  1  0  0  0
 13 14  2  0  0  0
 14  9  1  0  0  0
  7  1  1  0  0  0
 24 19  1  0  0  0
 30 25  1  0  0  0
  2  8  1  0  0  0
M  END
> <minimizedAffinity>
-7.51542

> <CNNscore>
0.4422050714

> <CNNaffinity>
5.3100967407

> <CNN_VS>
2.3481516838

> <CNNaffinity_variance>
0.0710308775

$$$$
[H]OC1(c2c([H])c([H])c(C([H])([H])C([H])([H])C([H])([H])[H])c([H])c2[H])C([H])([H])C([H])([H])N(C([H])(c2c([H])c([H])c([H])c([H])c2[H])c2c([H])c([H])c([H])c([H])c2[H])C([H])([H])C1([H])[H]


 30 33  0  0  0  0  0  0  0  0999 V2000
  154.8223  138.7108  185.1319 C   0  0  0  0  0  0  0  0  0  0  0  0
  155.7802  138.4785  186.1437 O   0  0  0  0  0  0  0  0  0  0  0  0
  153.5839  139.1915  185.7856 C   0  0  0  0  0  0  0  0  0  0  0  0
  153.2054  138.2059  186.8573 C   0  0  0  0  0  0  0  0  0  0  0  0
  153.6536  136.8845  186.6192 N   0  0  0  0  0  0  0  0  0  0  0  0
  153.8902  136.4082  185.3412 C   0  0  0  0  0  0  0  0  0  0  0  0
  154.5654  137.4100  184.4339 C   0  0  0  0  0  0  0  0  0  0  0  0
  156.3501  139.2817  186.2529 H   0  0  0  0  0  0  0  0  0  0  0  0
  156.3658  141.7434  182.5239 C   0  0  0  0  0  0  0  0  0  0  0  0
  157.2117  141.0499  183.3682 C   0  0  0  0  0  0  0  0  0  0  0  0
  156.7376  140.0467  184.2112 C   0  0  0  0  0  0  0  0  0  0  0  0
  155.3945  139.7160  184.2262 C   0  0  0  0  0  0  0  0  0  0  0  0
  154.5752  140.4198  183.3724 C   0  0  0  0  0  0  0  0  0  0  0  0
  155.0264  141.4118  182.5348 C   0  0  0  0  0  0  0  0  0  0  0  0
  156.9025  142.8737  181.7381 C   0  0  0  0  0  0  0  0  0  0  0  0
  158.0619  141.8171  179.8297 C   0  0  0  0  0  0  0  0  0  0  0  0
  158.2567  142.5385  181.1357 C   0  0  0  0  0  0  0  0  0  0  0  0
  154.0481  136.1714  187.7684 C   0  0  0  0  0  0  0  0  0  0  0  0
  155.3884  135.4708  187.6176 C   0  0  0  0  0  0  0  0  0  0  0  0
  155.4412  134.1698  187.1117 C   0  0  0  0  0  0  0  0  0  0  0  0
  156.6251  133.4939  187.0069 C   0  0  0  0  0  0  0  0  0  0  0  0
  157.7777  134.1382  187.4182 C   0  0  0  0  0  0  0  0  0  0  0  0
  157.7274  135.4099  187.9085 C   0  0  0  0  0  0  0  0  0  0  0  0
  156.5054  136.0954  188.0119 C   0  0  0  0  0  0  0  0  0  0  0  0
  154.1787  136.9126  189.0215 C   0  0  0  0  0  0  0  0  0  0  0  0
  153.6370  136.4121  190.2023 C   0  0  0  0  0  0  0  0  0  0  0  0
  153.7984  137.0405  191.4043 C   0  0  0  0  0  0  0  0  0  0  0  0
  154.5272  138.2235  191.4879 C   0  0  0  0  0  0  0  0  0  0  0  0
  155.0619  138.7341  190.3391 C   0  0  0  0  0  0  0  0  0  0  0  0
  154.8799  138.0771  189.1315 C   0  0  0  0  0  0  0  0  0  0  0  0
 16 17  1  0  0  0
 17 15  1  0  0  0
 15  9  1  0  0  0
  9 10  2  0  0  0
 10 11  1  0  0  0
 11 12  2  0  0  0
 12  1  1  0  0  0
  1  2  1  0  0  0
  1  3  1  0  0  0
  3  4  1  0  0  0
  4  5  1  0  0  0
  5 18  1  0  0  0
 18 19  1  0  0  0
 19 20  2  0  0  0
 20 21  1  0  0  0
 21 22  2  0  0  0
 22 23  1  0  0  0
 23 24  2  0  0  0
 18 25  1  0  0  0
 25 26  2  0  0  0
 26 27  1  0  0  0
 27 28  2  0  0  0
 28 29  1  0  0  0
 29 30  2  0  0  0
  5  6  1  0  0  0
  6  7  1  0  0  0
 12 13  1  0  0  0
 13 14  2  0  0  0
 14  9  1  0  0  0
  7  1  1  0  0  0
 24 19  1  0  0  0
 30 25  1  0  0  0
  2  8  1  0  0  0
M  END
> <minimizedAffinity>
-7.70852

> <CNNscore>
0.4340818822

> <CNNaffinity>
5.7857832909

> <CNN_VS>
2.5115036964

> <CNNaffinity_variance>
0.1106738448

$$$$
[H]OC1(c2c([H])c([H])c(C([H])([H])C([H])([H])C([H])([H])[H])c([H])c2[H])C([H])([H])C([H])([H])N(C([H])(c2c([H])c([H])c([H])c([H])c2[H])c2c([H])c([H])c([H])c([H])c2[H])C([H])([H])C1([H])[H]


 30 33  0  0  0  0  0  0  0  0999 V2000
  152.2110  136.9792  186.1651 C   0  0  0  0  0  0  0  0  0  0  0  0
  152.5277  138.1839  186.8313 O   0  0  0  0  0  0  0  0  0  0  0  0
  150.9505  136.4619  186.7443 C   0  0  0  0  0  0  0  0  0  0  0  0
  151.1176  136.3817  188.2373 C   0  0  0  0  0  0  0  0  0  0  0  0
  152.4550  136.2043  188.6658 N   0  0  0  0  0  0  0  0  0  0  0  0
  153.4098  135.6035  187.8636 C   0  0  0  0  0  0  0  0  0  0  0  0
  153.3273  136.0102  186.4109 C   0  0  0  0  0  0  0  0  0  0  0  0
  152.1727  138.9522  186.3160 H   0  0  0  0  0  0  0  0  0  0  0  0
  151.6468  137.9757  182.0336 C   0  0  0  0  0  0  0  0  0  0  0  0
  152.8138  138.3269  182.6849 C   0  0  0  0  0  0  0  0  0  0  0  0
  153.0292  137.9977  184.0217 C   0  0  0  0  0  0  0  0  0  0  0  0
  152.0709  137.3049  184.7395 C   0  0  0  0  0  0  0  0  0  0  0  0
  150.9200  136.9643  184.0650 C   0  0  0  0  0  0  0  0  0  0  0  0
  150.6917  137.2811  182.7471 C   0  0  0  0  0  0  0  0  0  0  0  0
  151.4234  138.4510  180.6525 C   0  0  0  0  0  0  0  0  0  0  0  0
  149.6766  139.0277  179.0036 C   0  0  0  0  0  0  0  0  0  0  0  0
  150.0073  138.1578  180.1861 C   0  0  0  0  0  0  0  0  0  0  0  0
  152.7932  136.8717  189.8596 C   0  0  0  0  0  0  0  0  0  0  0  0
  152.3941  136.1118  191.1138 C   0  0  0  0  0  0  0  0  0  0  0  0
  151.4472  136.6548  191.9855 C   0  0  0  0  0  0  0  0  0  0  0  0
  151.1001  136.0197  193.1456 C   0  0  0  0  0  0  0  0  0  0  0  0
  151.7166  134.8159  193.4346 C   0  0  0  0  0  0  0  0  0  0  0  0
  152.6383  134.2831  192.5820 C   0  0  0  0  0  0  0  0  0  0  0  0
  152.9874  134.9440  191.3925 C   0  0  0  0  0  0  0  0  0  0  0  0
  154.1993  137.2031  190.0827 C   0  0  0  0  0  0  0  0  0  0  0  0
  155.2071  136.4967  189.4319 C   0  0  0  0  0  0  0  0  0  0  0  0
  156.5276  136.8217  189.5605 C   0  0  0  0  0  0  0  0  0  0  0  0
  156.9139  137.8935  190.3604 C   0  0  0  0  0  0  0  0  0  0  0  0
  155.9401  138.5957  191.0122 C   0  0  0  0  0  0  0  0  0  0  0  0
  154.6071  138.2420  190.8662 C   0  0  0  0  0  0  0  0  0  0  0  0
 16 17  1  0  0  0
 17 15  1  0  0  0
 15  9  1  0  0  0
  9 10  2  0  0  0
 10 11  1  0  0  0
 11 12  2  0  0  0
 12  1  1  0  0  0
  1  2  1  0  0  0
  1  3  1  0  0  0
  3  4  1  0  0  0
  4  5  1  0  0  0
  5 18  1  0  0  0
 18 19  1  0  0  0
 19 20  2  0  0  0
 20 21  1  0  0  0
 21 22  2  0  0  0
 22 23  1  0  0  0
 23 24  2  0  0  0
 18 25  1  0  0  0
 25 26  2  0  0  0
 26 27  1  0  0  0
 27 28  2  0  0  0
 28 29  1  0  0  0
 29 30  2  0  0  0
  5  6  1  0  0  0
  6  7  1  0  0  0
 12 13  1  0  0  0
 13 14  2  0  0  0
 14  9  1  0  0  0
  7  1  1  0  0  0
 24 19  1  0  0  0
 30 25  1  0  0  0
  2  8  1  0  0  0
M  END
> <minimizedAffinity>
-6.49358

> <CNNscore>
0.4291449785

> <CNNaffinity>
5.2389259338

> <CNN_VS>
2.2482588291

> <CNNaffinity_variance>
0.0468424782

$$$$
[H]OC1(c2c([H])c([H])c(C([H])([H])C([H])([H])C([H])([H])[H])c([H])c2[H])C([H])([H])C([H])([H])N(C([H])(c2c([H])c([H])c([H])c([H])c2[H])c2c([H])c([H])c([H])c([H])c2[H])C([H])([H])C1([H])[H]


 30 33  0  0  0  0  0  0  0  0999 V2000
  151.7610  135.8323  186.7105 C   0  0  0  0  0  0  0  0  0  0  0  0
  152.8965  135.0536  187.0262 O   0  0  0  0  0  0  0  0  0  0  0  0
  152.0962  137.2486  186.9819 C   0  0  0  0  0  0  0  0  0  0  0  0
  152.6096  137.3480  188.3925 C   0  0  0  0  0  0  0  0  0  0  0  0
  152.1173  136.3472  189.2641 N   0  0  0  0  0  0  0  0  0  0  0  0
  150.9037  135.7174  189.0485 C   0  0  0  0  0  0  0  0  0  0  0  0
  150.6379  135.3891  187.5980 C   0  0  0  0  0  0  0  0  0  0  0  0
  153.4370  134.9070  186.2086 H   0  0  0  0  0  0  0  0  0  0  0  0
  151.0550  135.1682  182.5343 C   0  0  0  0  0  0  0  0  0  0  0  0
  150.4492  134.3661  183.4824 C   0  0  0  0  0  0  0  0  0  0  0  0
  150.6473  134.5736  184.8461 C   0  0  0  0  0  0  0  0  0  0  0  0
  151.4644  135.5972  185.2910 C   0  0  0  0  0  0  0  0  0  0  0  0
  152.0520  136.3832  184.3253 C   0  0  0  0  0  0  0  0  0  0  0  0
  151.8671  136.1922  182.9767 C   0  0  0  0  0  0  0  0  0  0  0  0
  150.9024  134.8309  181.1038 C   0  0  0  0  0  0  0  0  0  0  0  0
  149.5471  133.6027  179.4432 C   0  0  0  0  0  0  0  0  0  0  0  0
  149.5464  134.2059  180.8217 C   0  0  0  0  0  0  0  0  0  0  0  0
  153.0378  135.8883  190.2271 C   0  0  0  0  0  0  0  0  0  0  0  0
  154.3406  136.6707  190.2425 C   0  0  0  0  0  0  0  0  0  0  0  0
  155.4696  136.1562  189.6007 C   0  0  0  0  0  0  0  0  0  0  0  0
  156.6692  136.8116  189.6350 C   0  0  0  0  0  0  0  0  0  0  0  0
  156.7347  138.0070  190.3276 C   0  0  0  0  0  0  0  0  0  0  0  0
  155.6318  138.5119  190.9511 C   0  0  0  0  0  0  0  0  0  0  0  0
  154.4041  137.8303  190.9093 C   0  0  0  0  0  0  0  0  0  0  0  0
  152.6162  135.8811  191.6267 C   0  0  0  0  0  0  0  0  0  0  0  0
  153.1737  134.9818  192.5315 C   0  0  0  0  0  0  0  0  0  0  0  0
  152.8571  134.9910  193.8602 C   0  0  0  0  0  0  0  0  0  0  0  0
  151.9507  135.9211  194.3614 C   0  0  0  0  0  0  0  0  0  0  0  0
  151.3880  136.8085  193.4883 C   0  0  0  0  0  0  0  0  0  0  0  0
  151.7252  136.7749  192.1435 C   0  0  0  0  0  0  0  0  0  0  0  0
 16 17  1  0  0  0
 17 15  1  0  0  0
 15  9  1  0  0  0
  9 10  2  0  0  0
 10 11  1  0  0  0
 11 12  2  0  0  0
 12  1  1  0  0  0
  1  2  1  0  0  0
  1  3  1  0  0  0
  3  4  1  0  0  0
  4  5  1  0  0  0
  5 18  1  0  0  0
 18 19  1  0  0  0
 19 20  2  0  0  0
 20 21  1  0  0  0
 21 22  2  0  0  0
 22 23  1  0  0  0
 23 24  2  0  0  0
 18 25  1  0  0  0
 25 26  2  0  0  0
 26 27  1  0  0  0
 27 28  2  0  0  0
 28 29  1  0  0  0
 29 30  2  0  0  0
  5  6  1  0  0  0
  6  7  1  0  0  0
 12 13  1  0  0  0
 13 14  2  0  0  0
 14  9  1  0  0  0
  7  1  1  0  0  0
 24 19  1  0  0  0
 30 25  1  0  0  0
  2  8  1  0  0  0
M  END
> <minimizedAffinity>
-5.65164

> <CNNscore>
0.4244525433

> <CNNaffinity>
5.0534944534

> <CNN_VS>
2.1449685097

> <CNNaffinity_variance>
0.1045800596

$$$$
[H]OC1(c2c([H])c([H])c(C([H])([H])C([H])([H])C([H])([H])[H])c([H])c2[H])C([H])([H])C([H])([H])N(C([H])(c2c([H])c([H])c([H])c([H])c2[H])c2c([H])c([H])c([H])c([H])c2[H])C([H])([H])C1([H])[H]


 30 33  0  0  0  0  0  0  0  0999 V2000
  154.5454  138.3345  185.7301 C   0  0  0  0  0  0  0  0  0  0  0  0
  155.5819  138.0968  186.6599 O   0  0  0  0  0  0  0  0  0  0  0  0
  153.3918  138.8897  186.4735 C   0  0  0  0  0  0  0  0  0  0  0  0
  153.0744  137.9587  187.6119 C   0  0  0  0  0  0  0  0  0  0  0  0
  153.4467  136.6121  187.3851 N   0  0  0  0  0  0  0  0  0  0  0  0
  153.5468  136.0823  186.1102 C   0  0  0  0  0  0  0  0  0  0  0  0
  154.1750  137.0225  185.1083 C   0  0  0  0  0  0  0  0  0  0  0  0
  156.1905  138.8783  186.6866 H   0  0  0  0  0  0  0  0  0  0  0  0
  156.2069  140.9991  182.8112 C   0  0  0  0  0  0  0  0  0  0  0  0
  154.8487  140.7461  182.8346 C   0  0  0  0  0  0  0  0  0  0  0  0
  154.2819  139.8993  183.7851 C   0  0  0  0  0  0  0  0  0  0  0  0
  155.0715  139.2826  184.7389 C   0  0  0  0  0  0  0  0  0  0  0  0
  156.4203  139.5554  184.6948 C   0  0  0  0  0  0  0  0  0  0  0  0
  156.9953  140.3880  183.7645 C   0  0  0  0  0  0  0  0  0  0  0  0
  156.7679  141.8115  181.7119 C   0  0  0  0  0  0  0  0  0  0  0  0
  158.4138  141.8472  179.8699 C   0  0  0  0  0  0  0  0  0  0  0  0
  158.0715  141.2249  181.1965 C   0  0  0  0  0  0  0  0  0  0  0  0
  153.9164  135.9229  188.5208 C   0  0  0  0  0  0  0  0  0  0  0  0
  154.7357  136.7908  189.4616 C   0  0  0  0  0  0  0  0  0  0  0  0
  154.0962  137.7159  190.2903 C   0  0  0  0  0  0  0  0  0  0  0  0
  154.8063  138.5444  191.1142 C   0  0  0  0  0  0  0  0  0  0  0  0
  156.1855  138.4407  191.1049 C   0  0  0  0  0  0  0  0  0  0  0  0
  156.8103  137.5350  190.2991 C   0  0  0  0  0  0  0  0  0  0  0  0
  156.0709  136.6883  189.4564 C   0  0  0  0  0  0  0  0  0  0  0  0
  152.9286  135.2933  189.3951 C   0  0  0  0  0  0  0  0  0  0  0  0
  153.3294  134.4487  190.4267 C   0  0  0  0  0  0  0  0  0  0  0  0
  152.4420  133.8978  191.3069 C   0  0  0  0  0  0  0  0  0  0  0  0
  151.0815  134.1722  191.1991 C   0  0  0  0  0  0  0  0  0  0  0  0
  150.6673  134.9941  190.1896 C   0  0  0  0  0  0  0  0  0  0  0  0
  151.5897  135.5374  189.3079 C   0  0  0  0  0  0  0  0  0  0  0  0
 16 17  1  0  0  0
 17 15  1  0  0  0
 15  9  1  0  0  0
  9 10  2  0  0  0
 10 11  1  0  0  0
 11 12  2  0  0  0
 12  1  1  0  0  0
  1  2  1  0  0  0
  1  3  1  0  0  0
  3  4  1  0  0  0
  4  5  1  0  0  0
  5 18  1  0  0  0
 18 19  1  0  0  0
 19 20  2  0  0  0
 20 21  1  0  0  0
 21 22  2  0  0  0
 22 23  1  0  0  0
 23 24  2  0  0  0
 18 25  1  0  0  0
 25 26  2  0  0  0
 26 27  1  0  0  0
 27 28  2  0  0  0
 28 29  1  0  0  0
 29 30  2  0  0  0
  5  6  1  0  0  0
  6  7  1  0  0  0
 12 13  1  0  0  0
 13 14  2  0  0  0
 14  9  1  0  0  0
  7  1  1  0  0  0
 24 19  1  0  0  0
 30 25  1  0  0  0
  2  8  1  0  0  0
M  END
> <minimizedAffinity>
-7.46844

> <CNNscore>
0.4100957215

> <CNNaffinity>
5.5080184937

> <CNN_VS>
2.2588148117

> <CNNaffinity_variance>
0.0488100052

$$$$
[H]N=C(c1c([H])c([H])c([H])c(Oc2nc(Oc3c([H])c([H])c([H])c(N([H])C(=O)C([H])([H])[H])c3[H])c(F)c(C([H])([H])[H])c2F)c1[H])N([H])[H]


 34 36  0  0  0  0  0  0  0  0999 V2000
  153.5983  138.0458  184.6402 C   0  0  0  0  0  0  0  0  0  0  0  0
  154.4396  139.1019  184.5260 N   0  0  0  0  0  0  0  0  0  0  0  0
  154.3930  140.0059  183.5444 C   0  0  0  0  0  0  0  0  0  0  0  0
  153.4257  139.8693  182.5702 C   0  0  0  0  0  0  0  0  0  0  0  0
  153.3610  140.7827  181.5585 F   0  0  0  0  0  0  0  0  0  0  0  0
  152.5330  138.8232  182.6149 C   0  0  0  0  0  0  0  0  0  0  0  0
  151.4840  138.6554  181.5785 C   0  0  0  0  0  0  0  0  0  0  0  0
  152.6407  137.9291  183.6565 C   0  0  0  0  0  0  0  0  0  0  0  0
  151.7318  136.9081  183.6557 F   0  0  0  0  0  0  0  0  0  0  0  0
  153.7066  137.1628  185.6712 O   0  0  0  0  0  0  0  0  0  0  0  0
  153.8388  137.5080  189.3225 C   0  0  0  0  0  0  0  0  0  0  0  0
  155.1696  137.8235  189.4448 C   0  0  0  0  0  0  0  0  0  0  0  0
  156.0327  137.9289  188.3723 C   0  0  0  0  0  0  0  0  0  0  0  0
  155.5723  137.7141  187.1082 C   0  0  0  0  0  0  0  0  0  0  0  0
  154.2494  137.3944  186.9198 C   0  0  0  0  0  0  0  0  0  0  0  0
  153.4161  137.2970  188.0032 C   0  0  0  0  0  0  0  0  0  0  0  0
  151.9031  136.7584  192.5807 C   0  0  0  0  0  0  0  0  0  0  0  0
  153.0323  136.7393  191.5937 C   0  0  0  0  0  0  0  0  0  0  0  0
  154.0391  136.1086  191.9359 O   0  0  0  0  0  0  0  0  0  0  0  0
  152.9111  137.4026  190.3826 N   0  0  0  0  0  0  0  0  0  0  0  0
  151.9805  137.9198  190.1925 H   0  0  0  0  0  0  0  0  0  0  0  0
  155.3074  141.0584  183.5181 O   0  0  0  0  0  0  0  0  0  0  0  0
  156.5704  140.9269  182.9744 C   0  0  0  0  0  0  0  0  0  0  0  0
  157.5182  140.0375  183.4621 C   0  0  0  0  0  0  0  0  0  0  0  0
  158.7611  139.9434  182.8865 C   0  0  0  0  0  0  0  0  0  0  0  0
  159.1051  140.7429  181.7920 C   0  0  0  0  0  0  0  0  0  0  0  0
  158.1922  141.6244  181.2942 C   0  0  0  0  0  0  0  0  0  0  0  0
  156.9242  141.7008  181.9036 C   0  0  0  0  0  0  0  0  0  0  0  0
  158.4900  142.4826  180.1577 C   0  0  0  0  0  0  0  0  0  0  0  0
  158.2566  142.1193  178.9686 N   0  0  0  0  0  0  0  0  0  0  0  0
  159.0567  143.7613  180.3831 N   0  0  0  0  0  0  0  0  0  0  0  0
  157.8511  141.2168  178.7252 H   0  0  0  0  0  0  0  0  0  0  0  0
  159.9598  143.9896  179.9365 H   0  0  0  0  0  0  0  0  0  0  0  0
  158.5661  144.4434  180.9846 H   0  0  0  0  0  0  0  0  0  0  0  0
 17 18  1  0  0  0
 18 19  2  0  0  0
 18 20  1  0  0  0
 20 11  1  0  0  0
 11 12  2  0  0  0
 12 13  1  0  0  0
 13 14  2  0  0  0
 14 15  1  0  0  0
 15 10  1  0  0  0
 10  1  1  0  0  0
  1  2  2  0  0  0
  2  3  1  0  0  0
  3 22  1  0  0  0
 22 23  1  0  0  0
 23 24  2  0  0  0
 24 25  1  0  0  0
 25 26  2  0  0  0
 26 27  1  0  0  0
 27 29  1  0  0  0
 29 30  2  0  0  0
 29 31  1  0  0  0
 27 28  2  0  0  0
  3  4  2  0  0  0
  4  5  1  0  0  0
  4  6  1  0  0  0
  6  7  1  0  0  0
  6  8  2  0  0  0
  8  9  1  0  0  0
 15 16  2  0  0  0
 16 11  1  0  0  0
  8  1  1  0  0  0
 28 23  1  0  0  0
 20 21  1  0  0  0
 30 32  1  0  0  0
 31 33  1  0  0  0
 31 34  1  0  0  0
M  END
> <minimizedAffinity>
-8.33589

> <CNNscore>
0.2914496958

> <CNNaffinity>
6.0381193161

> <CNN_VS>
1.7598080635

> <CNNaffinity_variance>
0.0777463466

$$$$
[H]N=C(c1c([H])c([H])c([H])c(Oc2nc(Oc3c([H])c([H])c([H])c(N([H])C(=O)C([H])([H])[H])c3[H])c(F)c(C([H])([H])[H])c2F)c1[H])N([H])[H]


 34 36  0  0  0  0  0  0  0  0999 V2000
  154.0400  138.7736  184.2985 C   0  0  0  0  0  0  0  0  0  0  0  0
  154.8900  139.8199  184.4362 N   0  0  0  0  0  0  0  0  0  0  0  0
  154.9209  140.8832  183.6292 C   0  0  0  0  0  0  0  0  0  0  0  0
  154.0308  140.9355  182.5764 C   0  0  0  0  0  0  0  0  0  0  0  0
  154.0459  142.0138  181.7401 F   0  0  0  0  0  0  0  0  0  0  0  0
  153.1349  139.9122  182.3683 C   0  0  0  0  0  0  0  0  0  0  0  0
  152.1680  139.9461  181.2429 C   0  0  0  0  0  0  0  0  0  0  0  0
  153.1604  138.8471  183.2406 C   0  0  0  0  0  0  0  0  0  0  0  0
  152.2519  137.8567  182.9911 F   0  0  0  0  0  0  0  0  0  0  0  0
  154.0670  137.7212  185.1623 O   0  0  0  0  0  0  0  0  0  0  0  0
  155.8063  136.9635  188.3039 C   0  0  0  0  0  0  0  0  0  0  0  0
  155.0266  137.7138  189.1493 C   0  0  0  0  0  0  0  0  0  0  0  0
  153.9459  138.4637  188.7299 C   0  0  0  0  0  0  0  0  0  0  0  0
  153.6059  138.4837  187.4108 C   0  0  0  0  0  0  0  0  0  0  0  0
  154.3477  137.7534  186.5141 C   0  0  0  0  0  0  0  0  0  0  0  0
  155.4149  137.0182  186.9594 C   0  0  0  0  0  0  0  0  0  0  0  0
  158.2482  134.1886  189.4271 C   0  0  0  0  0  0  0  0  0  0  0  0
  156.9458  134.8345  189.0581 C   0  0  0  0  0  0  0  0  0  0  0  0
  155.9467  134.1085  189.1149 O   0  0  0  0  0  0  0  0  0  0  0  0
  156.9109  136.1682  188.6821 N   0  0  0  0  0  0  0  0  0  0  0  0
  157.8501  136.7043  188.6716 H   0  0  0  0  0  0  0  0  0  0  0  0
  155.8370  141.9093  183.8581 O   0  0  0  0  0  0  0  0  0  0  0  0
  157.1292  141.8687  183.3714 C   0  0  0  0  0  0  0  0  0  0  0  0
  158.2185  141.4825  184.1406 C   0  0  0  0  0  0  0  0  0  0  0  0
  159.4847  141.4583  183.6106 C   0  0  0  0  0  0  0  0  0  0  0  0
  159.7103  141.8230  182.2796 C   0  0  0  0  0  0  0  0  0  0  0  0
  158.6574  142.2062  181.5033 C   0  0  0  0  0  0  0  0  0  0  0  0
  157.3686  142.2221  182.0721 C   0  0  0  0  0  0  0  0  0  0  0  0
  158.8278  142.5963  180.1120 C   0  0  0  0  0  0  0  0  0  0  0  0
  158.3497  141.9093  179.1634 N   0  0  0  0  0  0  0  0  0  0  0  0
  159.5477  143.7774  179.8053 N   0  0  0  0  0  0  0  0  0  0  0  0
  157.8209  141.0494  179.3022 H   0  0  0  0  0  0  0  0  0  0  0  0
  160.3734  143.7091  179.1883 H   0  0  0  0  0  0  0  0  0  0  0  0
  159.2424  144.6832  180.1976 H   0  0  0  0  0  0  0  0  0  0  0  0
 17 18  1  0  0  0
 18 19  2  0  0  0
 18 20  1  0  0  0
 20 11  1  0  0  0
 11 12  2  0  0  0
 12 13  1  0  0  0
 13 14  2  0  0  0
 14 15  1  0  0  0
 15 10  1  0  0  0
 10  1  1  0  0  0
  1  2  2  0  0  0
  2  3  1  0  0  0
  3 22  1  0  0  0
 22 23  1  0  0  0
 23 24  2  0  0  0
 24 25  1  0  0  0
 25 26  2  0  0  0
 26 27  1  0  0  0
 27 29  1  0  0  0
 29 30  2  0  0  0
 29 31  1  0  0  0
 27 28  2  0  0  0
  3  4  2  0  0  0
  4  5  1  0  0  0
  4  6  1  0  0  0
  6  7  1  0  0  0
  6  8  2  0  0  0
  8  9  1  0  0  0
 15 16  2  0  0  0
 16 11  1  0  0  0
  8  1  1  0  0  0
 28 23  1  0  0  0
 20 21  1  0  0  0
 30 32  1  0  0  0
 31 33  1  0  0  0
 31 34  1  0  0  0
M  END
> <minimizedAffinity>
-8.77688

> <CNNscore>
0.2907514870

> <CNNaffinity>
6.3096685410

> <CNN_VS>
1.8345454931

> <CNNaffinity_variance>
0.1225964874

$$$$
[H]N=C(c1c([H])c([H])c([H])c(Oc2nc(Oc3c([H])c([H])c([H])c(N([H])C(=O)C([H])([H])[H])c3[H])c(F)c(C([H])([H])[H])c2F)c1[H])N([H])[H]


 34 36  0  0  0  0  0  0  0  0999 V2000
  154.9756  140.4897  183.4656 C   0  0  0  0  0  0  0  0  0  0  0  0
  155.1386  139.4221  184.2840 N   0  0  0  0  0  0  0  0  0  0  0  0
  154.3157  138.3718  184.3334 C   0  0  0  0  0  0  0  0  0  0  0  0
  153.2176  138.3572  183.4983 C   0  0  0  0  0  0  0  0  0  0  0  0
  152.3643  137.2928  183.5331 F   0  0  0  0  0  0  0  0  0  0  0  0
  152.9816  139.4040  182.6372 C   0  0  0  0  0  0  0  0  0  0  0  0
  151.8073  139.4107  181.7296 C   0  0  0  0  0  0  0  0  0  0  0  0
  153.8726  140.4538  182.6407 C   0  0  0  0  0  0  0  0  0  0  0  0
  153.5940  141.4687  181.7684 F   0  0  0  0  0  0  0  0  0  0  0  0
  155.8580  141.5269  183.4707 O   0  0  0  0  0  0  0  0  0  0  0  0
  159.4644  141.7196  184.1233 C   0  0  0  0  0  0  0  0  0  0  0  0
  159.9118  141.4139  182.8616 C   0  0  0  0  0  0  0  0  0  0  0  0
  159.0747  141.1451  181.7971 C   0  0  0  0  0  0  0  0  0  0  0  0
  157.7240  141.1758  181.9726 C   0  0  0  0  0  0  0  0  0  0  0  0
  157.2137  141.4753  183.2125 C   0  0  0  0  0  0  0  0  0  0  0  0
  158.0690  141.7379  184.2505 C   0  0  0  0  0  0  0  0  0  0  0  0
  161.8113  143.2579  186.7785 C   0  0  0  0  0  0  0  0  0  0  0  0
  161.0086  143.1610  185.5152 C   0  0  0  0  0  0  0  0  0  0  0  0
  161.0532  144.1459  184.7691 O   0  0  0  0  0  0  0  0  0  0  0  0
  160.2755  142.0170  185.2410 N   0  0  0  0  0  0  0  0  0  0  0  0
  160.3148  141.2177  185.9684 H   0  0  0  0  0  0  0  0  0  0  0  0
  154.5735  137.3214  185.2136 O   0  0  0  0  0  0  0  0  0  0  0  0
  154.3126  137.4103  186.5672 C   0  0  0  0  0  0  0  0  0  0  0  0
  155.1201  138.1126  187.4515 C   0  0  0  0  0  0  0  0  0  0  0  0
  154.8181  138.1718  188.7895 C   0  0  0  0  0  0  0  0  0  0  0  0
  153.6871  137.5247  189.2970 C   0  0  0  0  0  0  0  0  0  0  0  0
  152.8780  136.8282  188.4493 C   0  0  0  0  0  0  0  0  0  0  0  0
  153.2109  136.7837  187.0811 C   0  0  0  0  0  0  0  0  0  0  0  0
  151.6873  136.1347  188.9165 C   0  0  0  0  0  0  0  0  0  0  0  0
  150.8413  135.6465  188.1126 N   0  0  0  0  0  0  0  0  0  0  0  0
  151.4645  135.9991  190.3091 N   0  0  0  0  0  0  0  0  0  0  0  0
  150.9305  135.7026  187.0991 H   0  0  0  0  0  0  0  0  0  0  0  0
  150.5882  136.3714  190.7099 H   0  0  0  0  0  0  0  0  0  0  0  0
  152.1726  135.5349  190.9013 H   0  0  0  0  0  0  0  0  0  0  0  0
 17 18  1  0  0  0
 18 19  2  0  0  0
 18 20  1  0  0  0
 20 11  1  0  0  0
 11 12  2  0  0  0
 12 13  1  0  0  0
 13 14  2  0  0  0
 14 15  1  0  0  0
 15 10  1  0  0  0
 10  1  1  0  0  0
  1  2  2  0  0  0
  2  3  1  0  0  0
  3 22  1  0  0  0
 22 23  1  0  0  0
 23 24  2  0  0  0
 24 25  1  0  0  0
 25 26  2  0  0  0
 26 27  1  0  0  0
 27 29  1  0  0  0
 29 30  2  0  0  0
 29 31  1  0  0  0
 27 28  2  0  0  0
  3  4  2  0  0  0
  4  5  1  0  0  0
  4  6  1  0  0  0
  6  7  1  0  0  0
  6  8  2  0  0  0
  8  9  1  0  0  0
 15 16  2  0  0  0
 16 11  1  0  0  0
  8  1  1  0  0  0
 28 23  1  0  0  0
 20 21  1  0  0  0
 30 32  1  0  0  0
 31 33  1  0  0  0
 31 34  1  0  0  0
M  END
> <minimizedAffinity>
-8.44881

> <CNNscore>
0.2802876532

> <CNNaffinity>
6.0567293167

> <CNN_VS>
1.6976264715

> <CNNaffinity_variance>
0.1169205308

$$$$
[H]N=C(c1c([H])c([H])c([H])c(Oc2nc(Oc3c([H])c([H])c([H])c(N([H])C(=O)C([H])([H])[H])c3[H])c(F)c(C([H])([H])[H])c2F)c1[H])N([H])[H]


 34 36  0  0  0  0  0  0  0  0999 V2000
  152.3646  138.7685  182.3900 C   0  0  0  0  0  0  0  0  0  0  0  0
  153.0190  138.0473  183.3322 N   0  0  0  0  0  0  0  0  0  0  0  0
  154.0768  138.4823  184.0212 C   0  0  0  0  0  0  0  0  0  0  0  0
  154.5489  139.7536  183.7677 C   0  0  0  0  0  0  0  0  0  0  0  0
  155.6288  140.2172  184.4613 F   0  0  0  0  0  0  0  0  0  0  0  0
  153.9393  140.5495  182.8254 C   0  0  0  0  0  0  0  0  0  0  0  0
  154.4290  141.9202  182.5354 C   0  0  0  0  0  0  0  0  0  0  0  0
  152.8533  140.0348  182.1533 C   0  0  0  0  0  0  0  0  0  0  0  0
  152.2837  140.8636  181.2275 F   0  0  0  0  0  0  0  0  0  0  0  0
  151.2908  138.2575  181.7266 O   0  0  0  0  0  0  0  0  0  0  0  0
  148.0314  138.0333  183.3984 C   0  0  0  0  0  0  0  0  0  0  0  0
  147.3333  138.8969  182.5908 C   0  0  0  0  0  0  0  0  0  0  0  0
  147.8902  139.5551  181.5124 C   0  0  0  0  0  0  0  0  0  0  0  0
  149.2028  139.3605  181.2038 C   0  0  0  0  0  0  0  0  0  0  0  0
  149.9555  138.5079  181.9745 C   0  0  0  0  0  0  0  0  0  0  0  0
  149.3757  137.8682  183.0387 C   0  0  0  0  0  0  0  0  0  0  0  0
  146.8125  136.7830  186.8445 C   0  0  0  0  0  0  0  0  0  0  0  0
  147.4084  137.7123  185.8291 C   0  0  0  0  0  0  0  0  0  0  0  0
  147.7886  138.8084  186.2565 O   0  0  0  0  0  0  0  0  0  0  0  0
  147.5075  137.3242  184.5022 N   0  0  0  0  0  0  0  0  0  0  0  0
  147.1426  136.3388  184.2461 H   0  0  0  0  0  0  0  0  0  0  0  0
  154.6796  137.6593  184.9719 O   0  0  0  0  0  0  0  0  0  0  0  0
  154.2796  137.6409  186.2939 C   0  0  0  0  0  0  0  0  0  0  0  0
  154.9866  138.2696  187.3099 C   0  0  0  0  0  0  0  0  0  0  0  0
  154.5475  138.2229  188.6098 C   0  0  0  0  0  0  0  0  0  0  0  0
  153.3745  137.5393  188.9447 C   0  0  0  0  0  0  0  0  0  0  0  0
  152.6621  136.9135  187.9654 C   0  0  0  0  0  0  0  0  0  0  0  0
  153.1350  136.9771  186.6398 C   0  0  0  0  0  0  0  0  0  0  0  0
  151.4342  136.1869  188.2505 C   0  0  0  0  0  0  0  0  0  0  0  0
  151.2569  135.5813  189.3469 N   0  0  0  0  0  0  0  0  0  0  0  0
  150.4053  136.1537  187.2771 N   0  0  0  0  0  0  0  0  0  0  0  0
  151.9479  135.5588  190.0955 H   0  0  0  0  0  0  0  0  0  0  0  0
  150.0763  135.2366  186.9339 H   0  0  0  0  0  0  0  0  0  0  0  0
  150.0002  137.0368  186.9255 H   0  0  0  0  0  0  0  0  0  0  0  0
 17 18  1  0  0  0
 18 19  2  0  0  0
 18 20  1  0  0  0
 20 11  1  0  0  0
 11 12  2  0  0  0
 12 13  1  0  0  0
 13 14  2  0  0  0
 14 15  1  0  0  0
 15 10  1  0  0  0
 10  1  1  0  0  0
  1  2  2  0  0  0
  2  3  1  0  0  0
  3 22  1  0  0  0
 22 23  1  0  0  0
 23 24  2  0  0  0
 24 25  1  0  0  0
 25 26  2  0  0  0
 26 27  1  0  0  0
 27 29  1  0  0  0
 29 30  2  0  0  0
 29 31  1  0  0  0
 27 28  2  0  0  0
  3  4  2  0  0  0
  4  5  1  0  0  0
  4  6  1  0  0  0
  6  7  1  0  0  0
  6  8  2  0  0  0
  8  9  1  0  0  0
 15 16  2  0  0  0
 16 11  1  0  0  0
  8  1  1  0  0  0
 28 23  1  0  0  0
 20 21  1  0  0  0
 30 32  1  0  0  0
 31 33  1  0  0  0
 31 34  1  0  0  0
M  END
> <minimizedAffinity>
-7.15571

> <CNNscore>
0.2777002156

> <CNNaffinity>
5.5709524155

> <CNN_VS>
1.5470546484

> <CNNaffinity_variance>
0.1898158491

$$$$
[H]N=C(c1c([H])c([H])c([H])c(Oc2nc(Oc3c([H])c([H])c([H])c(N([H])C(=O)C([H])([H])[H])c3[H])c(F)c(C([H])([H])[H])c2F)c1[H])N([H])[H]


 34 36  0  0  0  0  0  0  0  0999 V2000
  154.2007  138.7670  184.2439 C   0  0  0  0  0  0  0  0  0  0  0  0
  155.0112  139.8434  184.3872 N   0  0  0  0  0  0  0  0  0  0  0  0
  154.9633  140.9361  183.6214 C   0  0  0  0  0  0  0  0  0  0  0  0
  154.0280  140.9886  182.6086 C   0  0  0  0  0  0  0  0  0  0  0  0
  153.9624  142.0966  181.8147 F   0  0  0  0  0  0  0  0  0  0  0  0
  153.1678  139.9357  182.3977 C   0  0  0  0  0  0  0  0  0  0  0  0
  152.1534  139.9691  181.3148 C   0  0  0  0  0  0  0  0  0  0  0  0
  153.2747  138.8412  183.2263 C   0  0  0  0  0  0  0  0  0  0  0  0
  152.3988  137.8221  182.9759 F   0  0  0  0  0  0  0  0  0  0  0  0
  154.3083  137.6855  185.0644 O   0  0  0  0  0  0  0  0  0  0  0  0
  152.1932  136.5928  187.8574 C   0  0  0  0  0  0  0  0  0  0  0  0
  152.8463  137.2497  188.8710 C   0  0  0  0  0  0  0  0  0  0  0  0
  153.9599  138.0423  188.6762 C   0  0  0  0  0  0  0  0  0  0  0  0
  154.4660  138.2036  187.4216 C   0  0  0  0  0  0  0  0  0  0  0  0
  153.8569  137.5717  186.3646 C   0  0  0  0  0  0  0  0  0  0  0  0
  152.7529  136.7913  186.5881 C   0  0  0  0  0  0  0  0  0  0  0  0
  148.6747  134.9979  187.8195 C   0  0  0  0  0  0  0  0  0  0  0  0
  149.7524  136.0049  187.5468 C   0  0  0  0  0  0  0  0  0  0  0  0
  149.4074  137.0074  186.9107 O   0  0  0  0  0  0  0  0  0  0  0  0
  151.0437  135.7840  187.9995 N   0  0  0  0  0  0  0  0  0  0  0  0
  151.2264  134.8699  188.5479 H   0  0  0  0  0  0  0  0  0  0  0  0
  155.8445  141.9919  183.8523 O   0  0  0  0  0  0  0  0  0  0  0  0
  157.1452  141.9845  183.3870 C   0  0  0  0  0  0  0  0  0  0  0  0
  158.2322  141.6359  184.1771 C   0  0  0  0  0  0  0  0  0  0  0  0
  159.5072  141.6436  183.6679 C   0  0  0  0  0  0  0  0  0  0  0  0
  159.7442  142.0037  182.3376 C   0  0  0  0  0  0  0  0  0  0  0  0
  158.6937  142.3503  181.5410 C   0  0  0  0  0  0  0  0  0  0  0  0
  157.3957  142.3339  182.0887 C   0  0  0  0  0  0  0  0  0  0  0  0
  158.8757  142.7337  180.1493 C   0  0  0  0  0  0  0  0  0  0  0  0
  159.5387  143.7601  179.8216 N   0  0  0  0  0  0  0  0  0  0  0  0
  158.2971  141.9391  179.1290 N   0  0  0  0  0  0  0  0  0  0  0  0
  159.9845  144.3809  180.4955 H   0  0  0  0  0  0  0  0  0  0  0  0
  157.6404  142.3831  178.4666 H   0  0  0  0  0  0  0  0  0  0  0  0
  158.5356  140.9362  179.0596 H   0  0  0  0  0  0  0  0  0  0  0  0
 17 18  1  0  0  0
 18 19  2  0  0  0
 18 20  1  0  0  0
 20 11  1  0  0  0
 11 12  2  0  0  0
 12 13  1  0  0  0
 13 14  2  0  0  0
 14 15  1  0  0  0
 15 10  1  0  0  0
 10  1  1  0  0  0
  1  2  2  0  0  0
  2  3  1  0  0  0
  3 22  1  0  0  0
 22 23  1  0  0  0
 23 24  2  0  0  0
 24 25  1  0  0  0
 25 26  2  0  0  0
 26 27  1  0  0  0
 27 29  1  0  0  0
 29 30  2  0  0  0
 29 31  1  0  0  0
 27 28  2  0  0  0
  3  4  2  0  0  0
  4  5  1  0  0  0
  4  6  1  0  0  0
  6  7  1  0  0  0
  6  8  2  0  0  0
  8  9  1  0  0  0
 15 16  2  0  0  0
 16 11  1  0  0  0
  8  1  1  0  0  0
 28 23  1  0  0  0
 20 21  1  0  0  0
 30 32  1  0  0  0
 31 33  1  0  0  0
 31 34  1  0  0  0
M  END
> <minimizedAffinity>
-8.13622

> <CNNscore>
0.2459438443

> <CNNaffinity>
6.1883249283

> <CNN_VS>
1.5219804049

> <CNNaffinity_variance>
0.2026026994

$$$$
[H]N=C(c1c([H])c([H])c([H])c(Oc2nc(Oc3c([H])c([H])c([H])c(N([H])C(=O)C([H])([H])[H])c3[H])c(F)c(C([H])([H])[H])c2F)c1[H])N([H])[H]


 34 36  0  0  0  0  0  0  0  0999 V2000
  153.1992  137.9961  183.7787 C   0  0  0  0  0  0  0  0  0  0  0  0
  154.1608  138.9250  183.9991 N   0  0  0  0  0  0  0  0  0  0  0  0
  154.2909  140.0605  183.3089 C   0  0  0  0  0  0  0  0  0  0  0  0
  153.3904  140.3214  182.2967 C   0  0  0  0  0  0  0  0  0  0  0  0
  153.5058  141.4765  181.5794 F   0  0  0  0  0  0  0  0  0  0  0  0
  152.3842  139.4277  182.0102 C   0  0  0  0  0  0  0  0  0  0  0  0
  151.4039  139.6864  180.9264 C   0  0  0  0  0  0  0  0  0  0  0  0
  152.3113  138.2773  182.7634 C   0  0  0  0  0  0  0  0  0  0  0  0
  151.2953  137.4220  182.4396 F   0  0  0  0  0  0  0  0  0  0  0  0
  153.1290  136.8591  184.5247 O   0  0  0  0  0  0  0  0  0  0  0  0
  153.8047  136.7976  188.1314 C   0  0  0  0  0  0  0  0  0  0  0  0
  152.5216  136.5833  188.5710 C   0  0  0  0  0  0  0  0  0  0  0  0
  151.4352  136.4569  187.7283 C   0  0  0  0  0  0  0  0  0  0  0  0
  151.6095  136.5448  186.3800 C   0  0  0  0  0  0  0  0  0  0  0  0
  152.8702  136.7588  185.8776 C   0  0  0  0  0  0  0  0  0  0  0  0
  153.9297  136.8801  186.7381 C   0  0  0  0  0  0  0  0  0  0  0  0
  156.5937  137.8600  190.5845 C   0  0  0  0  0  0  0  0  0  0  0  0
  155.3115  137.9420  189.8106 C   0  0  0  0  0  0  0  0  0  0  0  0
  154.6305  138.9566  189.9983 O   0  0  0  0  0  0  0  0  0  0  0  0
  154.9512  136.9186  188.9479 N   0  0  0  0  0  0  0  0  0  0  0  0
  155.6291  136.0802  188.8640 H   0  0  0  0  0  0  0  0  0  0  0  0
  155.3179  140.9525  183.6157 O   0  0  0  0  0  0  0  0  0  0  0  0
  156.5843  140.8355  183.0764 C   0  0  0  0  0  0  0  0  0  0  0  0
  157.5513  139.9807  183.5880 C   0  0  0  0  0  0  0  0  0  0  0  0
  158.7968  139.8998  183.0159 C   0  0  0  0  0  0  0  0  0  0  0  0
  159.1240  140.6780  181.9011 C   0  0  0  0  0  0  0  0  0  0  0  0
  158.1921  141.5254  181.3798 C   0  0  0  0  0  0  0  0  0  0  0  0
  156.9219  141.5889  181.9861 C   0  0  0  0  0  0  0  0  0  0  0  0
  158.4720  142.3601  180.2215 C   0  0  0  0  0  0  0  0  0  0  0  0
  158.1939  141.9843  179.0459 N   0  0  0  0  0  0  0  0  0  0  0  0
  159.0720  143.6296  180.4094 N   0  0  0  0  0  0  0  0  0  0  0  0
  157.7622  141.0871  178.8293 H   0  0  0  0  0  0  0  0  0  0  0  0
  159.9652  143.8320  179.9315 H   0  0  0  0  0  0  0  0  0  0  0  0
  158.6149  144.3308  181.0152 H   0  0  0  0  0  0  0  0  0  0  0  0
 17 18  1  0  0  0
 18 19  2  0  0  0
 18 20  1  0  0  0
 20 11  1  0  0  0
 11 12  2  0  0  0
 12 13  1  0  0  0
 13 14  2  0  0  0
 14 15  1  0  0  0
 15 10  1  0  0  0
 10  1  1  0  0  0
  1  2  2  0  0  0
  2  3  1  0  0  0
  3 22  1  0  0  0
 22 23  1  0  0  0
 23 24  2  0  0  0
 24 25  1  0  0  0
 25 26  2  0  0  0
 26 27  1  0  0  0
 27 29  1  0  0  0
 29 30  2  0  0  0
 29 31  1  0  0  0
 27 28  2  0  0  0
  3  4  2  0  0  0
  4  5  1  0  0  0
  4  6  1  0  0  0
  6  7  1  0  0  0
  6  8  2  0  0  0
  8  9  1  0  0  0
 15 16  2  0  0  0
 16 11  1  0  0  0
  8  1  1  0  0  0
 28 23  1  0  0  0
 20 21  1  0  0  0
 30 32  1  0  0  0
 31 33  1  0  0  0
 31 34  1  0  0  0
M  END
> <minimizedAffinity>
-8.26031

> <CNNscore>
0.2393989861

> <CNNaffinity>
6.0940628052

> <CNN_VS>
1.4589124918

> <CNNaffinity_variance>
0.1172484010

$$$$
[H]N=C(c1c([H])c([H])c([H])c(Oc2nc(Oc3c([H])c([H])c([H])c(N([H])C(=O)C([H])([H])[H])c3[H])c(F)c(C([H])([H])[H])c2F)c1[H])N([H])[H]


 34 36  0  0  0  0  0  0  0  0999 V2000
  154.8096  140.3973  183.4749 C   0  0  0  0  0  0  0  0  0  0  0  0
  154.6543  139.1780  184.0453 N   0  0  0  0  0  0  0  0  0  0  0  0
  153.7207  138.2902  183.6947 C   0  0  0  0  0  0  0  0  0  0  0  0
  152.8449  138.6224  182.6818 C   0  0  0  0  0  0  0  0  0  0  0  0
  151.8836  137.7288  182.3082 F   0  0  0  0  0  0  0  0  0  0  0  0
  152.9368  139.8421  182.0518 C   0  0  0  0  0  0  0  0  0  0  0  0
  152.0062  140.2219  180.9598 C   0  0  0  0  0  0  0  0  0  0  0  0
  153.9243  140.7079  182.4659 C   0  0  0  0  0  0  0  0  0  0  0  0
  153.9736  141.9060  181.8099 F   0  0  0  0  0  0  0  0  0  0  0  0
  155.7869  141.2519  183.8862 O   0  0  0  0  0  0  0  0  0  0  0  0
  159.4002  141.5336  184.4635 C   0  0  0  0  0  0  0  0  0  0  0  0
  159.8335  141.0651  183.2476 C   0  0  0  0  0  0  0  0  0  0  0  0
  158.9844  140.6575  182.2380 C   0  0  0  0  0  0  0  0  0  0  0  0
  157.6359  140.7092  182.4245 C   0  0  0  0  0  0  0  0  0  0  0  0
  157.1396  141.1686  183.6204 C   0  0  0  0  0  0  0  0  0  0  0  0
  158.0064  141.5666  184.6042 C   0  0  0  0  0  0  0  0  0  0  0  0
  161.7910  143.4010  186.8554 C   0  0  0  0  0  0  0  0  0  0  0  0
  160.9783  143.1349  185.6232 C   0  0  0  0  0  0  0  0  0  0  0  0
  161.0350  143.9991  184.7409 O   0  0  0  0  0  0  0  0  0  0  0  0
  160.2238  141.9765  185.5223 N   0  0  0  0  0  0  0  0  0  0  0  0
  160.2542  141.2917  186.3587 H   0  0  0  0  0  0  0  0  0  0  0  0
  153.6452  137.0596  184.3463 O   0  0  0  0  0  0  0  0  0  0  0  0
  153.1377  136.9298  185.6245 C   0  0  0  0  0  0  0  0  0  0  0  0
  153.9292  136.9774  186.7641 C   0  0  0  0  0  0  0  0  0  0  0  0
  153.3771  136.8435  188.0139 C   0  0  0  0  0  0  0  0  0  0  0  0
  152.0005  136.6552  188.1715 C   0  0  0  0  0  0  0  0  0  0  0  0
  151.2015  136.6047  187.0682 C   0  0  0  0  0  0  0  0  0  0  0  0
  151.7938  136.7450  185.7976 C   0  0  0  0  0  0  0  0  0  0  0  0
  149.7628  136.4117  187.1670 C   0  0  0  0  0  0  0  0  0  0  0  0
  148.9473  137.1335  186.5233 N   0  0  0  0  0  0  0  0  0  0  0  0
  149.2556  135.3885  188.0054 N   0  0  0  0  0  0  0  0  0  0  0  0
  149.2334  137.8880  185.9010 H   0  0  0  0  0  0  0  0  0  0  0  0
  148.5970  135.6451  188.7588 H   0  0  0  0  0  0  0  0  0  0  0  0
  149.5468  134.4084  187.8559 H   0  0  0  0  0  0  0  0  0  0  0  0
 17 18  1  0  0  0
 18 19  2  0  0  0
 18 20  1  0  0  0
 20 11  1  0  0  0
 11 12  2  0  0  0
 12 13  1  0  0  0
 13 14  2  0  0  0
 14 15  1  0  0  0
 15 10  1  0  0  0
 10  1  1  0  0  0
  1  2  2  0  0  0
  2  3  1  0  0  0
  3 22  1  0  0  0
 22 23  1  0  0  0
 23 24  2  0  0  0
 24 25  1  0  0  0
 25 26  2  0  0  0
 26 27  1  0  0  0
 27 29  1  0  0  0
 29 30  2  0  0  0
 29 31  1  0  0  0
 27 28  2  0  0  0
  3  4  2  0  0  0
  4  5  1  0  0  0
  4  6  1  0  0  0
  6  7  1  0  0  0
  6  8  2  0  0  0
  8  9  1  0  0  0
 15 16  2  0  0  0
 16 11  1  0  0  0
  8  1  1  0  0  0
 28 23  1  0  0  0
 20 21  1  0  0  0
 30 32  1  0  0  0
 31 33  1  0  0  0
 31 34  1  0  0  0
M  END
> <minimizedAffinity>
-7.95742

> <CNNscore>
0.2351293415

> <CNNaffinity>
5.8842821121

> <CNN_VS>
1.3835673332

> <CNNaffinity_variance>
0.1131431684

$$$$
[H]N=C(c1c([H])c([H])c([H])c(Oc2nc(Oc3c([H])c([H])c([H])c(N([H])C(=O)C([H])([H])[H])c3[H])c(F)c(C([H])([H])[H])c2F)c1[H])N([H])[H]


 34 36  0  0  0  0  0  0  0  0999 V2000
  157.0016  140.6287  182.9943 C   0  0  0  0  0  0  0  0  0  0  0  0
  156.6923  139.5593  183.7668 N   0  0  0  0  0  0  0  0  0  0  0  0
  155.4494  139.1569  184.0424 C   0  0  0  0  0  0  0  0  0  0  0  0
  154.3945  139.8695  183.5105 C   0  0  0  0  0  0  0  0  0  0  0  0
  153.1164  139.4745  183.7800 F   0  0  0  0  0  0  0  0  0  0  0  0
  154.6250  140.9685  182.7155 C   0  0  0  0  0  0  0  0  0  0  0  0
  153.5068  141.7507  182.1322 C   0  0  0  0  0  0  0  0  0  0  0  0
  155.9328  141.3254  182.4739 C   0  0  0  0  0  0  0  0  0  0  0  0
  156.1090  142.4237  181.6795 F   0  0  0  0  0  0  0  0  0  0  0  0
  158.2957  140.9799  182.7568 O   0  0  0  0  0  0  0  0  0  0  0  0
  160.3886  143.2769  184.7092 C   0  0  0  0  0  0  0  0  0  0  0  0
  160.2222  144.4015  183.9392 C   0  0  0  0  0  0  0  0  0  0  0  0
  159.4466  144.4393  182.7976 C   0  0  0  0  0  0  0  0  0  0  0  0
  158.7961  143.3164  182.3827 C   0  0  0  0  0  0  0  0  0  0  0  0
  158.9229  142.1582  183.1108 C   0  0  0  0  0  0  0  0  0  0  0  0
  159.6995  142.1506  184.2398 C   0  0  0  0  0  0  0  0  0  0  0  0
  163.0375  142.6381  187.4478 C   0  0  0  0  0  0  0  0  0  0  0  0
  162.4059  142.6208  186.0875 C   0  0  0  0  0  0  0  0  0  0  0  0
  163.0652  142.0805  185.1920 O   0  0  0  0  0  0  0  0  0  0  0  0
  161.1565  143.1881  185.8917 N   0  0  0  0  0  0  0  0  0  0  0  0
  160.6735  143.6309  186.7521 H   0  0  0  0  0  0  0  0  0  0  0  0
  155.2381  138.0402  184.8505 O   0  0  0  0  0  0  0  0  0  0  0  0
  154.8824  138.1472  186.1810 C   0  0  0  0  0  0  0  0  0  0  0  0
  153.6365  138.5936  186.6003 C   0  0  0  0  0  0  0  0  0  0  0  0
  153.3304  138.6821  187.9357 C   0  0  0  0  0  0  0  0  0  0  0  0
  154.2676  138.3244  188.9099 C   0  0  0  0  0  0  0  0  0  0  0  0
  155.4983  137.8831  188.5241 C   0  0  0  0  0  0  0  0  0  0  0  0
  155.7864  137.8018  187.1474 C   0  0  0  0  0  0  0  0  0  0  0  0
  156.5155  137.4958  189.4897 C   0  0  0  0  0  0  0  0  0  0  0  0
  156.8807  138.2707  190.4206 N   0  0  0  0  0  0  0  0  0  0  0  0
  157.1165  136.2168  189.3896 N   0  0  0  0  0  0  0  0  0  0  0  0
  156.4966  139.2042  190.5590 H   0  0  0  0  0  0  0  0  0  0  0  0
  158.1431  136.1572  189.2913 H   0  0  0  0  0  0  0  0  0  0  0  0
  156.5282  135.3677  189.4156 H   0  0  0  0  0  0  0  0  0  0  0  0
 17 18  1  0  0  0
 18 19  2  0  0  0
 18 20  1  0  0  0
 20 11  1  0  0  0
 11 12  2  0  0  0
 12 13  1  0  0  0
 13 14  2  0  0  0
 14 15  1  0  0  0
 15 10  1  0  0  0
 10  1  1  0  0  0
  1  2  2  0  0  0
  2  3  1  0  0  0
  3 22  1  0  0  0
 22 23  1  0  0  0
 23 24  2  0  0  0
 24 25  1  0  0  0
 25 26  2  0  0  0
 26 27  1  0  0  0
 27 29  1  0  0  0
 29 30  2  0  0  0
 29 31  1  0  0  0
 27 28  2  0  0  0
  3  4  2  0  0  0
  4  5  1  0  0  0
  4  6  1  0  0  0
  6  7  1  0  0  0
  6  8  2  0  0  0
  8  9  1  0  0  0
 15 16  2  0  0  0
 16 11  1  0  0  0
  8  1  1  0  0  0
 28 23  1  0  0  0
 20 21  1  0  0  0
 30 32  1  0  0  0
 31 33  1  0  0  0
 31 34  1  0  0  0
M  END
> <minimizedAffinity>
-10.01339

> <CNNscore>
0.2135633528

> <CNNaffinity>
6.4479231834

> <CNN_VS>
1.3770401478

> <CNNaffinity_variance>
0.1156352013

$$$$
[H]N=C(c1c([H])c([H])c([H])c(Oc2nc(Oc3c([H])c([H])c([H])c(N([H])C(=O)C([H])([H])[H])c3[H])c(F)c(C([H])([H])[H])c2F)c1[H])N([H])[H]


 34 36  0  0  0  0  0  0  0  0999 V2000
  156.1619  139.5581  184.6118 C   0  0  0  0  0  0  0  0  0  0  0  0
  155.1686  139.8359  183.7330 N   0  0  0  0  0  0  0  0  0  0  0  0
  155.1847  140.8517  182.8665 C   0  0  0  0  0  0  0  0  0  0  0  0
  156.2832  141.6863  182.8523 C   0  0  0  0  0  0  0  0  0  0  0  0
  156.3194  142.7302  181.9741 F   0  0  0  0  0  0  0  0  0  0  0  0
  157.3342  141.4714  183.7139 C   0  0  0  0  0  0  0  0  0  0  0  0
  158.5263  142.3555  183.7172 C   0  0  0  0  0  0  0  0  0  0  0  0
  157.2487  140.4044  184.5801 C   0  0  0  0  0  0  0  0  0  0  0  0
  158.3170  140.2339  185.4155 F   0  0  0  0  0  0  0  0  0  0  0  0
  156.0752  138.5024  185.4676 O   0  0  0  0  0  0  0  0  0  0  0  0
  154.7423  137.4150  188.7095 C   0  0  0  0  0  0  0  0  0  0  0  0
  153.4574  137.8762  188.5615 C   0  0  0  0  0  0  0  0  0  0  0  0
  153.0055  138.5339  187.4348 C   0  0  0  0  0  0  0  0  0  0  0  0
  153.8548  138.7550  186.3927 C   0  0  0  0  0  0  0  0  0  0  0  0
  155.1543  138.3176  186.4801 C   0  0  0  0  0  0  0  0  0  0  0  0
  155.5747  137.6675  187.6108 C   0  0  0  0  0  0  0  0  0  0  0  0
  156.4605  136.2729  191.9757 C   0  0  0  0  0  0  0  0  0  0  0  0
  156.0259  137.1989  190.8786 C   0  0  0  0  0  0  0  0  0  0  0  0
  156.4009  138.3725  190.9812 O   0  0  0  0  0  0  0  0  0  0  0  0
  155.2509  136.7244  189.8319 N   0  0  0  0  0  0  0  0  0  0  0  0
  154.9853  135.6761  189.8483 H   0  0  0  0  0  0  0  0  0  0  0  0
  154.1089  141.0515  182.0020 O   0  0  0  0  0  0  0  0  0  0  0  0
  153.1319  140.0951  181.8044 C   0  0  0  0  0  0  0  0  0  0  0  0
  152.9372  139.0203  182.6612 C   0  0  0  0  0  0  0  0  0  0  0  0
  151.9513  138.0953  182.4217 C   0  0  0  0  0  0  0  0  0  0  0  0
  151.1163  138.2122  181.3061 C   0  0  0  0  0  0  0  0  0  0  0  0
  151.2871  139.2587  180.4493 C   0  0  0  0  0  0  0  0  0  0  0  0
  152.3062  140.1935  180.7186 C   0  0  0  0  0  0  0  0  0  0  0  0
  150.4503  139.4351  179.2722 C   0  0  0  0  0  0  0  0  0  0  0  0
  150.6805  140.3415  178.4202 N   0  0  0  0  0  0  0  0  0  0  0  0
  149.3463  138.5707  179.0694 N   0  0  0  0  0  0  0  0  0  0  0  0
  151.4536  141.0010  178.4951 H   0  0  0  0  0  0  0  0  0  0  0  0
  148.4039  138.9832  178.9750 H   0  0  0  0  0  0  0  0  0  0  0  0
  149.4943  137.5494  179.0188 H   0  0  0  0  0  0  0  0  0  0  0  0
 17 18  1  0  0  0
 18 19  2  0  0  0
 18 20  1  0  0  0
 20 11  1  0  0  0
 11 12  2  0  0  0
 12 13  1  0  0  0
 13 14  2  0  0  0
 14 15  1  0  0  0
 15 10  1  0  0  0
 10  1  1  0  0  0
  1  2  2  0  0  0
  2  3  1  0  0  0
  3 22  1  0  0  0
 22 23  1  0  0  0
 23 24  2  0  0  0
 24 25  1  0  0  0
 25 26  2  0  0  0
 26 27  1  0  0  0
 27 29  1  0  0  0
 29 30  2  0  0  0
 29 31  1  0  0  0
 27 28  2  0  0  0
  3  4  2  0  0  0
  4  5  1  0  0  0
  4  6  1  0  0  0
  6  7  1  0  0  0
  6  8  2  0  0  0
  8  9  1  0  0  0
 15 16  2  0  0  0
 16 11  1  0  0  0
  8  1  1  0  0  0
 28 23  1  0  0  0
 20 21  1  0  0  0
 30 32  1  0  0  0
 31 33  1  0  0  0
 31 34  1  0  0  0
M  END
> <minimizedAffinity>
-8.72002

> <CNNscore>
0.2127265036

> <CNNaffinity>
5.7105588913

> <CNN_VS>
1.2147872448

> <CNNaffinity_variance>
0.1163219362

$$$$
[H]c1c([H])c(C(N=[N+]=[N-])(C([H])([H])[H])C([H])([H])[H])c(Cl)c([H])c1C(F)(F)F


 17 17  0  0  0  0  0  0  0  0999 V2000
  158.7698  142.2377  182.6105 C   0  0  0  0  0  0  0  0  0  0  0  0
  159.1615  143.5538  182.9357 C   0  0  0  0  0  0  0  0  0  0  0  0
  160.0676  143.6429  183.9547 C   0  0  0  0  0  0  0  0  0  0  0  0
  160.6001  142.6390  184.6787 C   0  0  0  0  0  0  0  0  0  0  0  0
  160.1934  141.3228  184.3453 C   0  0  0  0  0  0  0  0  0  0  0  0
  159.2750  141.1547  183.3010 C   0  0  0  0  0  0  0  0  0  0  0  0
  158.7455  139.5081  182.9032 Cl  0  0  0  0  0  0  0  0  0  0  0  0
  161.6045  142.8016  185.7623 C   0  0  0  0  0  0  0  0  0  0  0  0
  161.7370  144.1274  186.1697 F   0  0  0  0  0  0  0  0  0  0  0  0
  162.7994  142.2550  185.4308 F   0  0  0  0  0  0  0  0  0  0  0  0
  161.1718  142.1616  186.9324 F   0  0  0  0  0  0  0  0  0  0  0  0
  157.1756  143.3569  181.0912 C   0  0  0  0  0  0  0  0  0  0  0  0
  157.8753  142.0019  181.4445 C   0  0  0  0  0  0  0  0  0  0  0  0
  158.5846  141.5776  180.2073 C   0  0  0  0  0  0  0  0  0  0  0  0
  156.8235  141.0662  181.7661 N   0  0  0  0  0  0  0  0  0  0  0  0
  155.6693  141.4248  181.7418 N   0  0  0  0  0  0  0  0  0  0  0  0
  154.4418  141.1174  181.8872 N   0  0  0  0  0  0  0  0  0  0  0  0
 12 13  1  0  0  0
 13 14  1  0  0  0
 13 15  1  0  0  0
 15 16  2  0  0  0
 16 17  2  0  0  0
 13  1  1  0  0  0
  1  2  2  0  0  0
  2  3  1  0  0  0
  3  4  2  0  0  0
  4  8  1  0  0  0
  8  9  1  0  0  0
  8 10  1  0  0  0
  8 11  1  0  0  0
  4  5  1  0  0  0
  5  6  2  0  0  0
  6  7  1  0  0  0
  6  1  1  0  0  0
M  CHG 1  16   1
M  CHG 1  17  -1
M  END
> <minimizedAffinity>
-7.90719

> <CNNscore>
0.8354218602

> <CNNaffinity>
6.1800980568

> <CNN_VS>
5.1629891396

> <CNNaffinity_variance>
0.1051917225

$$$$
[H]c1c([H])c(C(N=[N+]=[N-])(C([H])([H])[H])C([H])([H])[H])c(Cl)c([H])c1C(F)(F)F


 17 17  0  0  0  0  0  0  0  0999 V2000
  159.3728  142.2326  182.5176 C   0  0  0  0  0  0  0  0  0  0  0  0
  160.0775  141.1460  183.0777 C   0  0  0  0  0  0  0  0  0  0  0  0
  160.7889  141.4487  184.2045 C   0  0  0  0  0  0  0  0  0  0  0  0
  160.9048  142.6452  184.8134 C   0  0  0  0  0  0  0  0  0  0  0  0
  160.1964  143.7290  184.2367 C   0  0  0  0  0  0  0  0  0  0  0  0
  159.4349  143.4888  183.0858 C   0  0  0  0  0  0  0  0  0  0  0  0
  158.5710  144.8528  182.3489 Cl  0  0  0  0  0  0  0  0  0  0  0  0
  161.6776  142.9039  186.0565 C   0  0  0  0  0  0  0  0  0  0  0  0
  161.6839  144.2522  186.4076 F   0  0  0  0  0  0  0  0  0  0  0  0
  162.9321  142.3958  185.9874 F   0  0  0  0  0  0  0  0  0  0  0  0
  161.0519  142.3018  187.1573 F   0  0  0  0  0  0  0  0  0  0  0  0
  158.9330  142.9484  180.1944 C   0  0  0  0  0  0  0  0  0  0  0  0
  158.4710  142.0054  181.3554 C   0  0  0  0  0  0  0  0  0  0  0  0
  158.5248  140.6253  180.8020 C   0  0  0  0  0  0  0  0  0  0  0  0
  157.1084  142.3693  181.6649 N   0  0  0  0  0  0  0  0  0  0  0  0
  156.2367  141.5327  181.6235 N   0  0  0  0  0  0  0  0  0  0  0  0
  155.0048  141.2508  181.7828 N   0  0  0  0  0  0  0  0  0  0  0  0
 12 13  1  0  0  0
 13 14  1  0  0  0
 13 15  1  0  0  0
 15 16  2  0  0  0
 16 17  2  0  0  0
 13  1  1  0  0  0
  1  2  2  0  0  0
  2  3  1  0  0  0
  3  4  2  0  0  0
  4  8  1  0  0  0
  8  9  1  0  0  0
  8 10  1  0  0  0
  8 11  1  0  0  0
  4  5  1  0  0  0
  5  6  2  0  0  0
  6  7  1  0  0  0
  6  1  1  0  0  0
M  CHG 1  16   1
M  CHG 1  17  -1
M  END
> <minimizedAffinity>
-8.14718

> <CNNscore>
0.8250126839

> <CNNaffinity>
6.2215871811

> <CNN_VS>
5.1328883171

> <CNNaffinity_variance>
0.1139488369

$$$$
[H]c1c([H])c(C(N=[N+]=[N-])(C([H])([H])[H])C([H])([H])[H])c(Cl)c([H])c1C(F)(F)F


 17 17  0  0  0  0  0  0  0  0999 V2000
  155.8795  136.7379  189.5087 C   0  0  0  0  0  0  0  0  0  0  0  0
  156.0945  136.6906  188.1149 C   0  0  0  0  0  0  0  0  0  0  0  0
  157.0753  135.8254  187.7190 C   0  0  0  0  0  0  0  0  0  0  0  0
  157.8542  135.0464  188.4950 C   0  0  0  0  0  0  0  0  0  0  0  0
  157.6314  135.1082  189.8934 C   0  0  0  0  0  0  0  0  0  0  0  0
  156.6316  135.9655  190.3705 C   0  0  0  0  0  0  0  0  0  0  0  0
  156.3728  136.0628  192.1236 Cl  0  0  0  0  0  0  0  0  0  0  0  0
  158.8908  134.1041  187.9983 C   0  0  0  0  0  0  0  0  0  0  0  0
  159.2505  133.1569  188.9547 F   0  0  0  0  0  0  0  0  0  0  0  0
  159.9714  134.7555  187.5036 F   0  0  0  0  0  0  0  0  0  0  0  0
  158.3782  133.3138  186.9597 F   0  0  0  0  0  0  0  0  0  0  0  0
  155.3730  138.6137  191.0343 C   0  0  0  0  0  0  0  0  0  0  0  0
  154.7626  137.5564  190.0546 C   0  0  0  0  0  0  0  0  0  0  0  0
  154.0197  138.3366  189.0283 C   0  0  0  0  0  0  0  0  0  0  0  0
  153.8494  136.7524  190.8322 N   0  0  0  0  0  0  0  0  0  0  0  0
  153.1909  137.2640  191.7074 N   0  0  0  0  0  0  0  0  0  0  0  0
  152.3099  137.1222  192.6163 N   0  0  0  0  0  0  0  0  0  0  0  0
 12 13  1  0  0  0
 13 14  1  0  0  0
 13 15  1  0  0  0
 15 16  2  0  0  0
 16 17  2  0  0  0
 13  1  1  0  0  0
  1  2  2  0  0  0
  2  3  1  0  0  0
  3  4  2  0  0  0
  4  8  1  0  0  0
  8  9  1  0  0  0
  8 10  1  0  0  0
  8 11  1  0  0  0
  4  5  1  0  0  0
  5  6  2  0  0  0
  6  7  1  0  0  0
  6  1  1  0  0  0
M  CHG 1  16   1
M  CHG 1  17  -1
M  END
> <minimizedAffinity>
-5.19102

> <CNNscore>
0.7775158882

> <CNNaffinity>
4.8639287949

> <CNN_VS>
3.7817819118

> <CNNaffinity_variance>
0.0477068983

$$$$
[H]c1c([H])c(C(N=[N+]=[N-])(C([H])([H])[H])C([H])([H])[H])c(Cl)c([H])c1C(F)(F)F


 17 17  0  0  0  0  0  0  0  0999 V2000
  158.6227  142.2829  183.6243 C   0  0  0  0  0  0  0  0  0  0  0  0
  159.5336  143.3358  183.3941 C   0  0  0  0  0  0  0  0  0  0  0  0
  160.4788  143.4943  184.3683 C   0  0  0  0  0  0  0  0  0  0  0  0
  160.6213  142.7864  185.5059 C   0  0  0  0  0  0  0  0  0  0  0  0
  159.6960  141.7357  185.7270 C   0  0  0  0  0  0  0  0  0  0  0  0
  158.7060  141.5071  184.7627 C   0  0  0  0  0  0  0  0  0  0  0  0
  157.5311  140.2093  185.0544 Cl  0  0  0  0  0  0  0  0  0  0  0  0
  161.6908  142.9937  186.5171 C   0  0  0  0  0  0  0  0  0  0  0  0
  161.7832  144.3217  186.9286 F   0  0  0  0  0  0  0  0  0  0  0  0
  162.8857  142.5129  186.0955 F   0  0  0  0  0  0  0  0  0  0  0  0
  161.3767  142.3234  187.7079 F   0  0  0  0  0  0  0  0  0  0  0  0
  157.8452  140.4450  182.1681 C   0  0  0  0  0  0  0  0  0  0  0  0
  157.6175  141.9373  182.5824 C   0  0  0  0  0  0  0  0  0  0  0  0
  156.2059  142.0183  183.0459 C   0  0  0  0  0  0  0  0  0  0  0  0
  157.8001  142.7292  181.3888 N   0  0  0  0  0  0  0  0  0  0  0  0
  158.0403  142.1861  180.3358 N   0  0  0  0  0  0  0  0  0  0  0  0
  158.2606  142.3055  179.0869 N   0  0  0  0  0  0  0  0  0  0  0  0
 12 13  1  0  0  0
 13 14  1  0  0  0
 13 15  1  0  0  0
 15 16  2  0  0  0
 16 17  2  0  0  0
 13  1  1  0  0  0
  1  2  2  0  0  0
  2  3  1  0  0  0
  3  4  2  0  0  0
  4  8  1  0  0  0
  8  9  1  0  0  0
  8 10  1  0  0  0
  8 11  1  0  0  0
  4  5  1  0  0  0
  5  6  2  0  0  0
  6  7  1  0  0  0
  6  1  1  0  0  0
M  CHG 1  16   1
M  CHG 1  17  -1
M  END
> <minimizedAffinity>
-7.62939

> <CNNscore>
0.7470290661

> <CNNaffinity>
6.1351914406

> <CNN_VS>
4.5831661224

> <CNNaffinity_variance>
0.0630796105

$$$$
[H]c1c([H])c(C(N=[N+]=[N-])(C([H])([H])[H])C([H])([H])[H])c(Cl)c([H])c1C(F)(F)F


 17 17  0  0  0  0  0  0  0  0999 V2000
  155.7314  136.2199  190.1817 C   0  0  0  0  0  0  0  0  0  0  0  0
  156.1031  135.1306  190.9981 C   0  0  0  0  0  0  0  0  0  0  0  0
  157.1792  134.4206  190.5451 C   0  0  0  0  0  0  0  0  0  0  0  0
  157.8946  134.6286  189.4223 C   0  0  0  0  0  0  0  0  0  0  0  0
  157.5066  135.7225  188.6088 C   0  0  0  0  0  0  0  0  0  0  0  0
  156.4181  136.5032  189.0185 C   0  0  0  0  0  0  0  0  0  0  0  0
  155.9161  137.8554  187.9845 Cl  0  0  0  0  0  0  0  0  0  0  0  0
  159.0752  133.8318  188.9973 C   0  0  0  0  0  0  0  0  0  0  0  0
  158.8126  133.0500  187.8743 F   0  0  0  0  0  0  0  0  0  0  0  0
  159.5820  133.0956  190.0160 F   0  0  0  0  0  0  0  0  0  0  0  0
  160.1022  134.6760  188.5517 F   0  0  0  0  0  0  0  0  0  0  0  0
  155.2990  138.5110  190.9981 C   0  0  0  0  0  0  0  0  0  0  0  0
  154.6469  137.1374  190.6261 C   0  0  0  0  0  0  0  0  0  0  0  0
  153.6357  137.4399  189.5774 C   0  0  0  0  0  0  0  0  0  0  0  0
  153.9999  136.6507  191.8218 N   0  0  0  0  0  0  0  0  0  0  0  0
  153.0278  137.2227  192.2566 N   0  0  0  0  0  0  0  0  0  0  0  0
  152.1148  137.2749  193.1433 N   0  0  0  0  0  0  0  0  0  0  0  0
 12 13  1  0  0  0
 13 14  1  0  0  0
 13 15  1  0  0  0
 15 16  2  0  0  0
 16 17  2  0  0  0
 13  1  1  0  0  0
  1  2  2  0  0  0
  2  3  1  0  0  0
  3  4  2  0  0  0
  4  8  1  0  0  0
  8  9  1  0  0  0
  8 10  1  0  0  0
  8 11  1  0  0  0
  4  5  1  0  0  0
  5  6  2  0  0  0
  6  7  1  0  0  0
  6  1  1  0  0  0
M  CHG 1  16   1
M  CHG 1  17  -1
M  END
> <minimizedAffinity>
-5.25928

> <CNNscore>
0.7072215080

> <CNNaffinity>
4.7677659988

> <CNN_VS>
3.3718667030

> <CNNaffinity_variance>
0.0605548434

$$$$
[H]c1c([H])c(C(N=[N+]=[N-])(C([H])([H])[H])C([H])([H])[H])c(Cl)c([H])c1C(F)(F)F


 17 17  0  0  0  0  0  0  0  0999 V2000
  158.3353  142.4285  182.9908 C   0  0  0  0  0  0  0  0  0  0  0  0
  158.3712  141.4297  183.9869 C   0  0  0  0  0  0  0  0  0  0  0  0
  159.3008  141.6360  184.9670 C   0  0  0  0  0  0  0  0  0  0  0  0
  160.1787  142.6527  185.0740 C   0  0  0  0  0  0  0  0  0  0  0  0
  160.1355  143.6457  184.0635 C   0  0  0  0  0  0  0  0  0  0  0  0
  159.1975  143.5054  183.0326 C   0  0  0  0  0  0  0  0  0  0  0  0
  159.1635  144.7348  181.7531 Cl  0  0  0  0  0  0  0  0  0  0  0  0
  161.1515  142.8331  186.1833 C   0  0  0  0  0  0  0  0  0  0  0  0
  162.3488  142.1578  185.9556 F   0  0  0  0  0  0  0  0  0  0  0  0
  160.6134  142.5126  187.3852 F   0  0  0  0  0  0  0  0  0  0  0  0
  161.5627  144.1712  186.2624 F   0  0  0  0  0  0  0  0  0  0  0  0
  156.3662  143.6280  182.1037 C   0  0  0  0  0  0  0  0  0  0  0  0
  157.2902  142.3762  181.9322 C   0  0  0  0  0  0  0  0  0  0  0  0
  157.8227  142.4527  180.5449 C   0  0  0  0  0  0  0  0  0  0  0  0
  156.4443  141.2155  182.0818 N   0  0  0  0  0  0  0  0  0  0  0  0
  155.2723  141.2825  181.7935 N   0  0  0  0  0  0  0  0  0  0  0  0
  154.1505  140.6871  181.6958 N   0  0  0  0  0  0  0  0  0  0  0  0
 12 13  1  0  0  0
 13 14  1  0  0  0
 13 15  1  0  0  0
 15 16  2  0  0  0
 16 17  2  0  0  0
 13  1  1  0  0  0
  1  2  2  0  0  0
  2  3  1  0  0  0
  3  4  2  0  0  0
  4  8  1  0  0  0
  8  9  1  0  0  0
  8 10  1  0  0  0
  8 11  1  0  0  0
  4  5  1  0  0  0
  5  6  2  0  0  0
  6  7  1  0  0  0
  6  1  1  0  0  0
M  CHG 1  16   1
M  CHG 1  17  -1
M  END
> <minimizedAffinity>
-7.94334

> <CNNscore>
0.7050370574

> <CNNaffinity>
6.0041074753

> <CNN_VS>
4.2331180573

> <CNNaffinity_variance>
0.0967020690

$$$$
[H]c1c([H])c(C(N=[N+]=[N-])(C([H])([H])[H])C([H])([H])[H])c(Cl)c([H])c1C(F)(F)F


 17 17  0  0  0  0  0  0  0  0999 V2000
  157.5534  142.0532  183.0427 C   0  0  0  0  0  0  0  0  0  0  0  0
  156.1532  142.2269  183.0661 C   0  0  0  0  0  0  0  0  0  0  0  0
  155.4649  141.2219  183.6853 C   0  0  0  0  0  0  0  0  0  0  0  0
  155.9618  140.1012  184.2447 C   0  0  0  0  0  0  0  0  0  0  0  0
  157.3691  139.9368  184.2089 C   0  0  0  0  0  0  0  0  0  0  0  0
  158.1403  140.9353  183.6003 C   0  0  0  0  0  0  0  0  0  0  0  0
  159.8999  140.7145  183.5315 Cl  0  0  0  0  0  0  0  0  0  0  0  0
  155.1577  139.0541  184.9277 C   0  0  0  0  0  0  0  0  0  0  0  0
  153.8529  139.4694  185.1853 F   0  0  0  0  0  0  0  0  0  0  0  0
  155.7701  138.5953  186.0463 F   0  0  0  0  0  0  0  0  0  0  0  0
  154.9689  137.9514  184.0826 F   0  0  0  0  0  0  0  0  0  0  0  0
  157.5124  144.3671  182.1786 C   0  0  0  0  0  0  0  0  0  0  0  0
  158.4209  143.1329  182.4979 C   0  0  0  0  0  0  0  0  0  0  0  0
  159.4530  143.6252  183.4499 C   0  0  0  0  0  0  0  0  0  0  0  0
  159.0348  142.7392  181.2516 N   0  0  0  0  0  0  0  0  0  0  0  0
  158.3511  142.5744  180.2684 N   0  0  0  0  0  0  0  0  0  0  0  0
  158.2969  142.2824  179.0297 N   0  0  0  0  0  0  0  0  0  0  0  0
 12 13  1  0  0  0
 13 14  1  0  0  0
 13 15  1  0  0  0
 15 16  2  0  0  0
 16 17  2  0  0  0
 13  1  1  0  0  0
  1  2  2  0  0  0
  2  3  1  0  0  0
  3  4  2  0  0  0
  4  8  1  0  0  0
  8  9  1  0  0  0
  8 10  1  0  0  0
  8 11  1  0  0  0
  4  5  1  0  0  0
  5  6  2  0  0  0
  6  7  1  0  0  0
  6  1  1  0  0  0
M  CHG 1  16   1
M  CHG 1  17  -1
M  END
> <minimizedAffinity>
-6.40443

> <CNNscore>
0.6656761765

> <CNNaffinity>
5.7526469231

> <CNN_VS>
3.8294000626

> <CNNaffinity_variance>
0.0949311405

$$$$
[H]c1c([H])c(C(N=[N+]=[N-])(C([H])([H])[H])C([H])([H])[H])c(Cl)c([H])c1C(F)(F)F


 17 17  0  0  0  0  0  0  0  0999 V2000
  154.4382  136.7848  189.5182 C   0  0  0  0  0  0  0  0  0  0  0  0
  153.1471  136.2152  189.5263 C   0  0  0  0  0  0  0  0  0  0  0  0
  152.4545  136.3909  190.6911 C   0  0  0  0  0  0  0  0  0  0  0  0
  152.8657  137.0153  191.8121 C   0  0  0  0  0  0  0  0  0  0  0  0
  154.1666  137.5775  191.7921 C   0  0  0  0  0  0  0  0  0  0  0  0
  154.9300  137.4466  190.6249 C   0  0  0  0  0  0  0  0  0  0  0  0
  156.5692  138.1268  190.6111 Cl  0  0  0  0  0  0  0  0  0  0  0  0
  152.0507  137.1948  193.0422 C   0  0  0  0  0  0  0  0  0  0  0  0
  152.1689  138.4765  193.5758 F   0  0  0  0  0  0  0  0  0  0  0  0
  152.3121  136.2386  193.9663 F   0  0  0  0  0  0  0  0  0  0  0  0
  150.6838  137.1111  192.7416 F   0  0  0  0  0  0  0  0  0  0  0  0
  154.5730  135.7522  187.2780 C   0  0  0  0  0  0  0  0  0  0  0  0
  155.2469  136.7594  188.2689 C   0  0  0  0  0  0  0  0  0  0  0  0
  155.2997  138.0610  187.5498 C   0  0  0  0  0  0  0  0  0  0  0  0
  156.5819  136.2666  188.5136 N   0  0  0  0  0  0  0  0  0  0  0  0
  157.0328  135.3803  187.8262 N   0  0  0  0  0  0  0  0  0  0  0  0
  158.0187  134.6197  187.5579 N   0  0  0  0  0  0  0  0  0  0  0  0
 12 13  1  0  0  0
 13 14  1  0  0  0
 13 15  1  0  0  0
 15 16  2  0  0  0
 16 17  2  0  0  0
 13  1  1  0  0  0
  1  2  2  0  0  0
  2  3  1  0  0  0
  3  4  2  0  0  0
  4  8  1  0  0  0
  8  9  1  0  0  0
  8 10  1  0  0  0
  8 11  1  0  0  0
  4  5  1  0  0  0
  5  6  2  0  0  0
  6  7  1  0  0  0
  6  1  1  0  0  0
M  CHG 1  16   1
M  CHG 1  17  -1
M  END
> <minimizedAffinity>
-5.32839

> <CNNscore>
0.6330263019

> <CNNaffinity>
4.6801948547

> <CNN_VS>
2.9626865387

> <CNNaffinity_variance>
0.0788733810

$$$$
[H]c1c([H])c(C(N=[N+]=[N-])(C([H])([H])[H])C([H])([H])[H])c(Cl)c([H])c1C(F)(F)F


 17 17  0  0  0  0  0  0  0  0999 V2000
  158.3991  142.1010  183.9050 C   0  0  0  0  0  0  0  0  0  0  0  0
  158.4721  141.4183  185.1378 C   0  0  0  0  0  0  0  0  0  0  0  0
  159.5422  141.7603  185.9158 C   0  0  0  0  0  0  0  0  0  0  0  0
  160.5221  142.6412  185.6340 C   0  0  0  0  0  0  0  0  0  0  0  0
  160.4395  143.3154  184.3900 C   0  0  0  0  0  0  0  0  0  0  0  0
  159.3606  143.0236  183.5455 C   0  0  0  0  0  0  0  0  0  0  0  0
  159.2737  143.8479  181.9762 Cl  0  0  0  0  0  0  0  0  0  0  0  0
  161.6498  142.9881  186.5380 C   0  0  0  0  0  0  0  0  0  0  0  0
  161.5793  142.3178  187.7574 F   0  0  0  0  0  0  0  0  0  0  0  0
  161.7699  144.3276  186.7061 F   0  0  0  0  0  0  0  0  0  0  0  0
  162.8639  142.5318  186.0053 F   0  0  0  0  0  0  0  0  0  0  0  0
  156.1586  141.0646  183.8119 C   0  0  0  0  0  0  0  0  0  0  0  0
  157.2197  141.8996  183.0198 C   0  0  0  0  0  0  0  0  0  0  0  0
  156.5315  143.1582  182.6243 C   0  0  0  0  0  0  0  0  0  0  0  0
  157.5632  141.1263  181.8497 N   0  0  0  0  0  0  0  0  0  0  0  0
  157.3131  141.5565  180.7480 N   0  0  0  0  0  0  0  0  0  0  0  0
  157.3712  141.3890  179.4866 N   0  0  0  0  0  0  0  0  0  0  0  0
 12 13  1  0  0  0
 13 14  1  0  0  0
 13 15  1  0  0  0
 15 16  2  0  0  0
 16 17  2  0  0  0
 13  1  1  0  0  0
  1  2  2  0  0  0
  2  3  1  0  0  0
  3  4  2  0  0  0
  4  8  1  0  0  0
  8  9  1  0  0  0
  8 10  1  0  0  0
  8 11  1  0  0  0
  4  5  1  0  0  0
  5  6  2  0  0  0
  6  7  1  0  0  0
  6  1  1  0  0  0
M  CHG 1  16   1
M  CHG 1  17  -1
M  END
> <minimizedAffinity>
-7.77817

> <CNNscore>
0.6061977744

> <CNNaffinity>
5.9086017609

> <CNN_VS>
3.5817811489

> <CNNaffinity_variance>
0.0584461018

$$$$
[H]c1c([H])c(C([H])([H])OC([H])([H])C2([H])C([H])([H])C([H])([H])N(C([H])([H])C([H])([H])C([H])([H])C([H])([H])C([H])([H])[H])C([H])([H])C2([H])[H])c([H])c([H])c1F


 21 22  0  0  0  0  0  0  0  0999 V2000
  158.5435  142.2370  183.4116 N   0  0  0  0  0  0  0  0  0  0  0  0
  158.0274  142.9519  182.3112 C   0  0  0  0  0  0  0  0  0  0  0  0
  156.5616  143.1497  182.2532 C   0  0  0  0  0  0  0  0  0  0  0  0
  155.9087  141.7794  182.3905 C   0  0  0  0  0  0  0  0  0  0  0  0
  156.2805  141.3118  183.7806 C   0  0  0  0  0  0  0  0  0  0  0  0
  157.7339  141.2887  184.0547 C   0  0  0  0  0  0  0  0  0  0  0  0
  159.8649  141.7715  183.0776 C   0  0  0  0  0  0  0  0  0  0  0  0
  160.8157  141.7295  184.2201 C   0  0  0  0  0  0  0  0  0  0  0  0
  160.8457  143.0323  184.9781 C   0  0  0  0  0  0  0  0  0  0  0  0
  162.2239  142.9850  187.0052 C   0  0  0  0  0  0  0  0  0  0  0  0
  160.8232  142.8182  186.4697 C   0  0  0  0  0  0  0  0  0  0  0  0
  154.4038  141.8826  182.3152 C   0  0  0  0  0  0  0  0  0  0  0  0
  153.9002  140.8606  181.5082 O   0  0  0  0  0  0  0  0  0  0  0  0
  153.0025  140.0877  182.2399 C   0  0  0  0  0  0  0  0  0  0  0  0
  151.8918  139.6731  181.3290 C   0  0  0  0  0  0  0  0  0  0  0  0
  151.8534  140.0922  180.0114 C   0  0  0  0  0  0  0  0  0  0  0  0
  150.8398  139.7239  179.1507 C   0  0  0  0  0  0  0  0  0  0  0  0
  149.8130  138.9108  179.5846 C   0  0  0  0  0  0  0  0  0  0  0  0
  148.7983  138.5319  178.7532 F   0  0  0  0  0  0  0  0  0  0  0  0
  149.8453  138.4895  180.8972 C   0  0  0  0  0  0  0  0  0  0  0  0
  150.8671  138.8602  181.7666 C   0  0  0  0  0  0  0  0  0  0  0  0
 10 11  1  0  0  0
 11  9  1  0  0  0
  9  8  1  0  0  0
  8  7  1  0  0  0
  7  1  1  0  0  0
  1  2  1  0  0  0
  2  3  1  0  0  0
  3  4  1  0  0  0
  4 12  1  0  0  0
 12 13  1  0  0  0
 13 14  1  0  0  0
 14 15  1  0  0  0
 15 16  2  0  0  0
 16 17  1  0  0  0
 17 18  2  0  0  0
 18 19  1  0  0  0
 18 20  1  0  0  0
 20 21  2  0  0  0
  4  5  1  0  0  0
  5  6  1  0  0  0
  6  1  1  0  0  0
 21 15  1  0  0  0
M  END
> <minimizedAffinity>
-7.48495

> <CNNscore>
0.6794710755

> <CNNaffinity>
5.8429937363

> <CNN_VS>
3.9701452255

> <CNNaffinity_variance>
0.0771102756

$$$$
[H]c1c([H])c(C([H])([H])OC([H])([H])C2([H])C([H])([H])C([H])([H])N(C([H])([H])C([H])([H])C([H])([H])C([H])([H])C([H])([H])[H])C([H])([H])C2([H])[H])c([H])c([H])c1F


 21 22  0  0  0  0  0  0  0  0999 V2000
  154.1826  139.7802  183.4991 N   0  0  0  0  0  0  0  0  0  0  0  0
  154.8085  138.9691  184.4680 C   0  0  0  0  0  0  0  0  0  0  0  0
  156.1271  139.4088  184.9770 C   0  0  0  0  0  0  0  0  0  0  0  0
  157.0289  139.6426  183.7709 C   0  0  0  0  0  0  0  0  0  0  0  0
  156.3879  140.7933  183.0263 C   0  0  0  0  0  0  0  0  0  0  0  0
  154.9728  140.5749  182.6551 C   0  0  0  0  0  0  0  0  0  0  0  0
  153.1808  138.9971  182.8228 C   0  0  0  0  0  0  0  0  0  0  0  0
  152.3464  139.7580  181.8554 C   0  0  0  0  0  0  0  0  0  0  0  0
  151.0301  139.0745  181.5850 C   0  0  0  0  0  0  0  0  0  0  0  0
  151.1233  140.1429  179.3802 C   0  0  0  0  0  0  0  0  0  0  0  0
  150.7956  138.8642  180.1112 C   0  0  0  0  0  0  0  0  0  0  0  0
  158.4123  140.0713  184.1994 C   0  0  0  0  0  0  0  0  0  0  0  0
  158.8799  141.0756  183.3496 O   0  0  0  0  0  0  0  0  0  0  0  0
  158.8308  142.3025  184.0060 C   0  0  0  0  0  0  0  0  0  0  0  0
  160.0481  142.4218  184.8658 C   0  0  0  0  0  0  0  0  0  0  0  0
  161.3154  142.2512  184.3386 C   0  0  0  0  0  0  0  0  0  0  0  0
  162.4544  142.3560  185.1105 C   0  0  0  0  0  0  0  0  0  0  0  0
  162.3641  142.6396  186.4577 C   0  0  0  0  0  0  0  0  0  0  0  0
  163.4754  142.7486  187.2435 F   0  0  0  0  0  0  0  0  0  0  0  0
  161.1035  142.8108  186.9895 C   0  0  0  0  0  0  0  0  0  0  0  0
  159.9536  142.7053  186.2122 C   0  0  0  0  0  0  0  0  0  0  0  0
 10 11  1  0  0  0
 11  9  1  0  0  0
  9  8  1  0  0  0
  8  7  1  0  0  0
  7  1  1  0  0  0
  1  2  1  0  0  0
  2  3  1  0  0  0
  3  4  1  0  0  0
  4 12  1  0  0  0
 12 13  1  0  0  0
 13 14  1  0  0  0
 14 15  1  0  0  0
 15 16  2  0  0  0
 16 17  1  0  0  0
 17 18  2  0  0  0
 18 19  1  0  0  0
 18 20  1  0  0  0
 20 21  2  0  0  0
  4  5  1  0  0  0
  5  6  1  0  0  0
  6  1  1  0  0  0
 21 15  1  0  0  0
M  END
> <minimizedAffinity>
-7.37039

> <CNNscore>
0.6450591087

> <CNNaffinity>
5.8181352615

> <CNN_VS>
3.7530410290

> <CNNaffinity_variance>
0.0747952089

$$$$
[H]c1c([H])c(C([H])([H])OC([H])([H])C2([H])C([H])([H])C([H])([H])N(C([H])([H])C([H])([H])C([H])([H])C([H])([H])C([H])([H])[H])C([H])([H])C2([H])[H])c([H])c([H])c1F


 21 22  0  0  0  0  0  0  0  0999 V2000
  157.0193  141.4941  182.7655 N   0  0  0  0  0  0  0  0  0  0  0  0
  157.0939  140.6801  183.9145 C   0  0  0  0  0  0  0  0  0  0  0  0
  156.1069  139.5841  184.0394 C   0  0  0  0  0  0  0  0  0  0  0  0
  154.7207  140.1947  183.8711 C   0  0  0  0  0  0  0  0  0  0  0  0
  154.6957  140.7106  182.4490 C   0  0  0  0  0  0  0  0  0  0  0  0
  155.7858  141.6534  182.1163 C   0  0  0  0  0  0  0  0  0  0  0  0
  157.7241  142.7226  183.0268 C   0  0  0  0  0  0  0  0  0  0  0  0
  157.5701  143.7625  181.9752 C   0  0  0  0  0  0  0  0  0  0  0  0
  158.8446  143.9726  181.1977 C   0  0  0  0  0  0  0  0  0  0  0  0
  158.2809  142.3930  179.4094 C   0  0  0  0  0  0  0  0  0  0  0  0
  159.2854  142.7189  180.4871 C   0  0  0  0  0  0  0  0  0  0  0  0
  153.6425  139.1463  184.0108 C   0  0  0  0  0  0  0  0  0  0  0  0
  153.2408  138.7107  182.7466 O   0  0  0  0  0  0  0  0  0  0  0  0
  152.0040  138.0785  182.8421 C   0  0  0  0  0  0  0  0  0  0  0  0
  151.2503  138.3320  181.5760 C   0  0  0  0  0  0  0  0  0  0  0  0
  151.6214  139.3483  180.7143 C   0  0  0  0  0  0  0  0  0  0  0  0
  150.9426  139.6029  179.5401 C   0  0  0  0  0  0  0  0  0  0  0  0
  149.8520  138.8378  179.1813 C   0  0  0  0  0  0  0  0  0  0  0  0
  149.1632  139.0689  178.0253 F   0  0  0  0  0  0  0  0  0  0  0  0
  149.4768  137.8230  180.0362 C   0  0  0  0  0  0  0  0  0  0  0  0
  150.1604  137.5650  181.2209 C   0  0  0  0  0  0  0  0  0  0  0  0
 10 11  1  0  0  0
 11  9  1  0  0  0
  9  8  1  0  0  0
  8  7  1  0  0  0
  7  1  1  0  0  0
  1  2  1  0  0  0
  2  3  1  0  0  0
  3  4  1  0  0  0
  4 12  1  0  0  0
 12 13  1  0  0  0
 13 14  1  0  0  0
 14 15  1  0  0  0
 15 16  2  0  0  0
 16 17  1  0  0  0
 17 18  2  0  0  0
 18 19  1  0  0  0
 18 20  1  0  0  0
 20 21  2  0  0  0
  4  5  1  0  0  0
  5  6  1  0  0  0
  6  1  1  0  0  0
 21 15  1  0  0  0
M  END
> <minimizedAffinity>
-6.45183

> <CNNscore>
0.6350577474

> <CNNaffinity>
5.6062583923

> <CNN_VS>
3.5602977276

> <CNNaffinity_variance>
0.0349334404

$$$$
[H]c1c([H])c(C([H])([H])OC([H])([H])C2([H])C([H])([H])C([H])([H])N(C([H])([H])C([H])([H])C([H])([H])C([H])([H])C([H])([H])[H])C([H])([H])C2([H])[H])c([H])c([H])c1F


 21 22  0  0  0  0  0  0  0  0999 V2000
  158.8429  141.6440  183.2583 N   0  0  0  0  0  0  0  0  0  0  0  0
  158.7184  140.5940  184.1912 C   0  0  0  0  0  0  0  0  0  0  0  0
  157.5136  139.7390  184.0991 C   0  0  0  0  0  0  0  0  0  0  0  0
  156.2976  140.6573  184.1196 C   0  0  0  0  0  0  0  0  0  0  0  0
  156.4099  141.4756  182.8518 C   0  0  0  0  0  0  0  0  0  0  0  0
  157.6852  142.2101  182.7036 C   0  0  0  0  0  0  0  0  0  0  0  0
  159.7948  142.5984  183.7656 C   0  0  0  0  0  0  0  0  0  0  0  0
  160.3208  142.2898  185.1218 C   0  0  0  0  0  0  0  0  0  0  0  0
  161.5885  143.0485  185.4219 C   0  0  0  0  0  0  0  0  0  0  0  0
  163.1679  142.6194  187.2474 C   0  0  0  0  0  0  0  0  0  0  0  0
  161.8183  143.2000  186.9036 C   0  0  0  0  0  0  0  0  0  0  0  0
  155.0141  139.8638  184.0556 C   0  0  0  0  0  0  0  0  0  0  0  0
  155.2112  138.6006  184.6167 O   0  0  0  0  0  0  0  0  0  0  0  0
  154.1095  138.2593  185.3966 C   0  0  0  0  0  0  0  0  0  0  0  0
  154.5383  138.2400  186.8287 C   0  0  0  0  0  0  0  0  0  0  0  0
  153.6470  138.5298  187.8459 C   0  0  0  0  0  0  0  0  0  0  0  0
  154.0175  138.5189  189.1751 C   0  0  0  0  0  0  0  0  0  0  0  0
  155.3128  138.2131  189.5389 C   0  0  0  0  0  0  0  0  0  0  0  0
  155.7051  138.1955  190.8466 F   0  0  0  0  0  0  0  0  0  0  0  0
  156.2064  137.9234  188.5295 C   0  0  0  0  0  0  0  0  0  0  0  0
  155.8342  137.9339  187.1883 C   0  0  0  0  0  0  0  0  0  0  0  0
 10 11  1  0  0  0
 11  9  1  0  0  0
  9  8  1  0  0  0
  8  7  1  0  0  0
  7  1  1  0  0  0
  1  2  1  0  0  0
  2  3  1  0  0  0
  3  4  1  0  0  0
  4 12  1  0  0  0
 12 13  1  0  0  0
 13 14  1  0  0  0
 14 15  1  0  0  0
 15 16  2  0  0  0
 16 17  1  0  0  0
 17 18  2  0  0  0
 18 19  1  0  0  0
 18 20  1  0  0  0
 20 21  2  0  0  0
  4  5  1  0  0  0
  5  6  1  0  0  0
  6  1  1  0  0  0
 21 15  1  0  0  0
M  END
> <minimizedAffinity>
-7.19539

> <CNNscore>
0.6237324476

> <CNNaffinity>
5.8628220558

> <CNN_VS>
3.6568324566

> <CNNaffinity_variance>
0.0506737418

$$$$
[H]c1c([H])c(C([H])([H])OC([H])([H])C2([H])C([H])([H])C([H])([H])N(C([H])([H])C([H])([H])C([H])([H])C([H])([H])C([H])([H])[H])C([H])([H])C2([H])[H])c([H])c([H])c1F


 21 22  0  0  0  0  0  0  0  0999 V2000
  158.8713  140.5665  183.3488 N   0  0  0  0  0  0  0  0  0  0  0  0
  158.1699  140.3595  184.5545 C   0  0  0  0  0  0  0  0  0  0  0  0
  156.7150  140.1031  184.4619 C   0  0  0  0  0  0  0  0  0  0  0  0
  156.1024  141.2314  183.6408 C   0  0  0  0  0  0  0  0  0  0  0  0
  156.7102  141.0810  182.2634 C   0  0  0  0  0  0  0  0  0  0  0  0
  158.1892  141.0866  182.2387 C   0  0  0  0  0  0  0  0  0  0  0  0
  160.1178  141.2222  183.6497 C   0  0  0  0  0  0  0  0  0  0  0  0
  160.1409  141.9462  184.9483 C   0  0  0  0  0  0  0  0  0  0  0  0
  161.4644  142.6254  185.1927 C   0  0  0  0  0  0  0  0  0  0  0  0
  162.9406  142.7065  187.1486 C   0  0  0  0  0  0  0  0  0  0  0  0
  161.5923  143.1186  186.6111 C   0  0  0  0  0  0  0  0  0  0  0  0
  154.6064  141.0648  183.5161 C   0  0  0  0  0  0  0  0  0  0  0  0
  154.3100  140.2814  182.3991 O   0  0  0  0  0  0  0  0  0  0  0  0
  153.3964  139.2919  182.7523 C   0  0  0  0  0  0  0  0  0  0  0  0
  152.3568  139.2114  181.6809 C   0  0  0  0  0  0  0  0  0  0  0  0
  152.4302  140.0072  180.5520 C   0  0  0  0  0  0  0  0  0  0  0  0
  151.4839  139.9521  179.5492 C   0  0  0  0  0  0  0  0  0  0  0  0
  150.4144  139.0855  179.6420 C   0  0  0  0  0  0  0  0  0  0  0  0
  149.4645  139.0116  178.6639 F   0  0  0  0  0  0  0  0  0  0  0  0
  150.3352  138.2894  180.7651 C   0  0  0  0  0  0  0  0  0  0  0  0
  151.2889  138.3438  181.7775 C   0  0  0  0  0  0  0  0  0  0  0  0
 10 11  1  0  0  0
 11  9  1  0  0  0
  9  8  1  0  0  0
  8  7  1  0  0  0
  7  1  1  0  0  0
  1  2  1  0  0  0
  2  3  1  0  0  0
  3  4  1  0  0  0
  4 12  1  0  0  0
 12 13  1  0  0  0
 13 14  1  0  0  0
 14 15  1  0  0  0
 15 16  2  0  0  0
 16 17  1  0  0  0
 17 18  2  0  0  0
 18 19  1  0  0  0
 18 20  1  0  0  0
 20 21  2  0  0  0
  4  5  1  0  0  0
  5  6  1  0  0  0
  6  1  1  0  0  0
 21 15  1  0  0  0
M  END
> <minimizedAffinity>
-7.37524

> <CNNscore>
0.6198982596

> <CNNaffinity>
5.7467970848

> <CNN_VS>
3.5624294281

> <CNNaffinity_variance>
0.1500897259

$$$$
[H]c1c([H])c(C([H])([H])OC([H])([H])C2([H])C([H])([H])C([H])([H])N(C([H])([H])C([H])([H])C([H])([H])C([H])([H])C([H])([H])[H])C([H])([H])C2([H])[H])c([H])c([H])c1F


 21 22  0  0  0  0  0  0  0  0999 V2000
  154.9808  140.4643  183.5068 N   0  0  0  0  0  0  0  0  0  0  0  0
  155.1133  141.8680  183.4864 C   0  0  0  0  0  0  0  0  0  0  0  0
  156.2117  142.4377  182.6739 C   0  0  0  0  0  0  0  0  0  0  0  0
  157.5038  141.7565  183.1085 C   0  0  0  0  0  0  0  0  0  0  0  0
  157.3217  140.3035  182.7276 C   0  0  0  0  0  0  0  0  0  0  0  0
  156.1139  139.6648  183.2941 C   0  0  0  0  0  0  0  0  0  0  0  0
  154.1908  140.0945  184.6528 C   0  0  0  0  0  0  0  0  0  0  0  0
  154.2228  138.6461  184.9879 C   0  0  0  0  0  0  0  0  0  0  0  0
  155.0035  138.3754  186.2488 C   0  0  0  0  0  0  0  0  0  0  0  0
  152.6778  137.9965  186.9261 C   0  0  0  0  0  0  0  0  0  0  0  0
  154.1164  137.9010  187.3710 C   0  0  0  0  0  0  0  0  0  0  0  0
  158.6892  142.2984  182.3454 C   0  0  0  0  0  0  0  0  0  0  0  0
  159.8354  142.2251  183.1392 O   0  0  0  0  0  0  0  0  0  0  0  0
  159.8926  143.3335  183.9798 C   0  0  0  0  0  0  0  0  0  0  0  0
  160.9094  143.0629  185.0419 C   0  0  0  0  0  0  0  0  0  0  0  0
  162.1534  142.5472  184.7261 C   0  0  0  0  0  0  0  0  0  0  0  0
  163.1090  142.2886  185.6874 C   0  0  0  0  0  0  0  0  0  0  0  0
  162.8496  142.5407  187.0189 C   0  0  0  0  0  0  0  0  0  0  0  0
  163.7778  142.2937  187.9894 F   0  0  0  0  0  0  0  0  0  0  0  0
  161.6112  143.0548  187.3403 C   0  0  0  0  0  0  0  0  0  0  0  0
  160.6462  143.3162  186.3719 C   0  0  0  0  0  0  0  0  0  0  0  0
 10 11  1  0  0  0
 11  9  1  0  0  0
  9  8  1  0  0  0
  8  7  1  0  0  0
  7  1  1  0  0  0
  1  2  1  0  0  0
  2  3  1  0  0  0
  3  4  1  0  0  0
  4 12  1  0  0  0
 12 13  1  0  0  0
 13 14  1  0  0  0
 14 15  1  0  0  0
 15 16  2  0  0  0
 16 17  1  0  0  0
 17 18  2  0  0  0
 18 19  1  0  0  0
 18 20  1  0  0  0
 20 21  2  0  0  0
  4  5  1  0  0  0
  5  6  1  0  0  0
  6  1  1  0  0  0
 21 15  1  0  0  0
M  END
> <minimizedAffinity>
-6.45319

> <CNNscore>
0.5755866170

> <CNNaffinity>
6.0867853165

> <CNN_VS>
3.5034720898

> <CNNaffinity_variance>
0.0949884430

$$$$
[H]c1c([H])c(C([H])([H])OC([H])([H])C2([H])C([H])([H])C([H])([H])N(C([H])([H])C([H])([H])C([H])([H])C([H])([H])C([H])([H])[H])C([H])([H])C2([H])[H])c([H])c([H])c1F


 21 22  0  0  0  0  0  0  0  0999 V2000
  152.6702  139.7967  182.2567 N   0  0  0  0  0  0  0  0  0  0  0  0
  153.5312  139.0708  183.1053 C   0  0  0  0  0  0  0  0  0  0  0  0
  154.4174  139.8458  184.0026 C   0  0  0  0  0  0  0  0  0  0  0  0
  155.1845  140.8414  183.1406 C   0  0  0  0  0  0  0  0  0  0  0  0
  154.1253  141.7684  182.5855 C   0  0  0  0  0  0  0  0  0  0  0  0
  153.0354  141.0892  181.8515 C   0  0  0  0  0  0  0  0  0  0  0  0
  152.2410  138.9308  181.1888 C   0  0  0  0  0  0  0  0  0  0  0  0
  152.1476  139.5863  179.8574 C   0  0  0  0  0  0  0  0  0  0  0  0
  150.7175  139.7641  179.4146 C   0  0  0  0  0  0  0  0  0  0  0  0
  148.7957  138.4201  178.6995 C   0  0  0  0  0  0  0  0  0  0  0  0
  149.8695  138.5641  179.7496 C   0  0  0  0  0  0  0  0  0  0  0  0
  156.1389  141.6627  183.9746 C   0  0  0  0  0  0  0  0  0  0  0  0
  157.3522  140.9852  184.1087 O   0  0  0  0  0  0  0  0  0  0  0  0
  158.3992  141.9027  184.1297 C   0  0  0  0  0  0  0  0  0  0  0  0
  158.6608  142.3459  182.7260 C   0  0  0  0  0  0  0  0  0  0  0  0
  158.7487  143.6884  182.4047 C   0  0  0  0  0  0  0  0  0  0  0  0
  158.9892  144.1233  181.1174 C   0  0  0  0  0  0  0  0  0  0  0  0
  159.1526  143.2164  180.0905 C   0  0  0  0  0  0  0  0  0  0  0  0
  159.3915  143.6206  178.8083 F   0  0  0  0  0  0  0  0  0  0  0  0
  159.0660  141.8765  180.4042 C   0  0  0  0  0  0  0  0  0  0  0  0
  158.8235  141.4362  181.7022 C   0  0  0  0  0  0  0  0  0  0  0  0
 10 11  1  0  0  0
 11  9  1  0  0  0
  9  8  1  0  0  0
  8  7  1  0  0  0
  7  1  1  0  0  0
  1  2  1  0  0  0
  2  3  1  0  0  0
  3  4  1  0  0  0
  4 12  1  0  0  0
 12 13  1  0  0  0
 13 14  1  0  0  0
 14 15  1  0  0  0
 15 16  2  0  0  0
 16 17  1  0  0  0
 17 18  2  0  0  0
 18 19  1  0  0  0
 18 20  1  0  0  0
 20 21  2  0  0  0
  4  5  1  0  0  0
  5  6  1  0  0  0
  6  1  1  0  0  0
 21 15  1  0  0  0
M  END
> <minimizedAffinity>
-7.10717

> <CNNscore>
0.5752709508

> <CNNaffinity>
5.7531967163

> <CNN_VS>
3.3096468449

> <CNNaffinity_variance>
0.0450634137

$$$$
[H]c1c([H])c(C([H])([H])OC([H])([H])C2([H])C([H])([H])C([H])([H])N(C([H])([H])C([H])([H])C([H])([H])C([H])([H])C([H])([H])[H])C([H])([H])C2([H])[H])c([H])c([H])c1F


 21 22  0  0  0  0  0  0  0  0999 V2000
  152.8147  139.8924  182.3049 N   0  0  0  0  0  0  0  0  0  0  0  0
  153.5998  139.1788  183.2337 C   0  0  0  0  0  0  0  0  0  0  0  0
  154.5260  139.9584  184.0854 C   0  0  0  0  0  0  0  0  0  0  0  0
  155.3849  140.8152  183.1631 C   0  0  0  0  0  0  0  0  0  0  0  0
  154.4122  141.7689  182.5047 C   0  0  0  0  0  0  0  0  0  0  0  0
  153.2873  141.1140  181.8021 C   0  0  0  0  0  0  0  0  0  0  0  0
  152.3403  138.9732  181.3028 C   0  0  0  0  0  0  0  0  0  0  0  0
  152.1960  139.5573  179.9429 C   0  0  0  0  0  0  0  0  0  0  0  0
  150.7557  139.8418  179.6004 C   0  0  0  0  0  0  0  0  0  0  0  0
  148.9418  138.4147  178.7731 C   0  0  0  0  0  0  0  0  0  0  0  0
  149.8544  138.6839  179.9442 C   0  0  0  0  0  0  0  0  0  0  0  0
  156.3840  141.6302  183.9497 C   0  0  0  0  0  0  0  0  0  0  0  0
  157.2060  140.7807  184.6927 O   0  0  0  0  0  0  0  0  0  0  0  0
  158.4398  140.6544  184.0601 C   0  0  0  0  0  0  0  0  0  0  0  0
  159.4499  141.4260  184.8472 C   0  0  0  0  0  0  0  0  0  0  0  0
  159.1827  141.8444  186.1382 C   0  0  0  0  0  0  0  0  0  0  0  0
  160.0977  142.5576  186.8855 C   0  0  0  0  0  0  0  0  0  0  0  0
  161.3311  142.8823  186.3593 C   0  0  0  0  0  0  0  0  0  0  0  0
  162.2540  143.5870  187.0775 F   0  0  0  0  0  0  0  0  0  0  0  0
  161.6037  142.4682  185.0726 C   0  0  0  0  0  0  0  0  0  0  0  0
  160.6819  141.7487  184.3175 C   0  0  0  0  0  0  0  0  0  0  0  0
 10 11  1  0  0  0
 11  9  1  0  0  0
  9  8  1  0  0  0
  8  7  1  0  0  0
  7  1  1  0  0  0
  1  2  1  0  0  0
  2  3  1  0  0  0
  3  4  1  0  0  0
  4 12  1  0  0  0
 12 13  1  0  0  0
 13 14  1  0  0  0
 14 15  1  0  0  0
 15 16  2  0  0  0
 16 17  1  0  0  0
 17 18  2  0  0  0
 18 19  1  0  0  0
 18 20  1  0  0  0
 20 21  2  0  0  0
  4  5  1  0  0  0
  5  6  1  0  0  0
  6  1  1  0  0  0
 21 15  1  0  0  0
M  END
> <minimizedAffinity>
-7.87997

> <CNNscore>
0.5718500614

> <CNNaffinity>
5.6600952148

> <CNN_VS>
3.2367258072

> <CNNaffinity_variance>
0.1223699078

$$$$
[H]c1c([H])c(C([H])([H])OC([H])([H])C2([H])C([H])([H])C([H])([H])N(C([H])([H])C([H])([H])C([H])([H])C([H])([H])C([H])([H])[H])C([H])([H])C2([H])[H])c([H])c([H])c1F


 21 22  0  0  0  0  0  0  0  0999 V2000
  154.3417  137.4516  188.9157 N   0  0  0  0  0  0  0  0  0  0  0  0
  155.6396  137.2295  188.4111 C   0  0  0  0  0  0  0  0  0  0  0  0
  156.1071  138.1123  187.3187 C   0  0  0  0  0  0  0  0  0  0  0  0
  155.0584  138.0683  186.2138 C   0  0  0  0  0  0  0  0  0  0  0  0
  153.8192  138.6769  186.8328 C   0  0  0  0  0  0  0  0  0  0  0  0
  153.3696  138.0235  188.0813 C   0  0  0  0  0  0  0  0  0  0  0  0
  153.9125  136.2681  189.6152 C   0  0  0  0  0  0  0  0  0  0  0  0
  154.3396  136.1984  191.0378 C   0  0  0  0  0  0  0  0  0  0  0  0
  153.3392  136.8474  191.9603 C   0  0  0  0  0  0  0  0  0  0  0  0
  151.0156  136.8847  192.7417 C   0  0  0  0  0  0  0  0  0  0  0  0
  152.0749  136.0363  192.0823 C   0  0  0  0  0  0  0  0  0  0  0  0
  155.4676  138.9253  185.0394 C   0  0  0  0  0  0  0  0  0  0  0  0
  156.7825  139.3628  185.2094 O   0  0  0  0  0  0  0  0  0  0  0  0
  157.0896  140.3080  184.2343 C   0  0  0  0  0  0  0  0  0  0  0  0
  158.3940  140.9439  184.5939 C   0  0  0  0  0  0  0  0  0  0  0  0
  158.5810  141.5448  185.8256 C   0  0  0  0  0  0  0  0  0  0  0  0
  159.7747  142.1385  186.1817 C   0  0  0  0  0  0  0  0  0  0  0  0
  160.8396  142.1521  185.3045 C   0  0  0  0  0  0  0  0  0  0  0  0
  162.0311  142.7328  185.6323 F   0  0  0  0  0  0  0  0  0  0  0  0
  160.6596  141.5548  184.0748 C   0  0  0  0  0  0  0  0  0  0  0  0
  159.4562  140.9555  183.7141 C   0  0  0  0  0  0  0  0  0  0  0  0
 10 11  1  0  0  0
 11  9  1  0  0  0
  9  8  1  0  0  0
  8  7  1  0  0  0
  7  1  1  0  0  0
  1  2  1  0  0  0
  2  3  1  0  0  0
  3  4  1  0  0  0
  4 12  1  0  0  0
 12 13  1  0  0  0
 13 14  1  0  0  0
 14 15  1  0  0  0
 15 16  2  0  0  0
 16 17  1  0  0  0
 17 18  2  0  0  0
 18 19  1  0  0  0
 18 20  1  0  0  0
 20 21  2  0  0  0
  4  5  1  0  0  0
  5  6  1  0  0  0
  6  1  1  0  0  0
 21 15  1  0  0  0
M  END
> <minimizedAffinity>
-6.01686

> <CNNscore>
0.5596080422

> <CNNaffinity>
5.1671128273

> <CNN_VS>
2.8915579319

> <CNNaffinity_variance>
0.0084587913

$$$$
[H]c1c([H])c([H])c([C@@]2([H])C([H])([H])[C@]2([H])N([H])C([H])([H])C2([H])C([H])([H])C([H])([H])N([H])C([H])([H])C2([H])[H])c([H])c1[H]


 19 21  0  0  0  0  0  0  0  0999 V2000
  153.8024  140.2652  182.2371 N   0  0  0  0  0  0  0  0  0  0  0  0
  153.4901  140.1063  183.2083 H   0  0  0  0  0  0  0  0  0  0  0  0
  156.1862  141.1501  182.4557 C   0  0  0  0  0  0  0  0  0  0  0  0
  155.2581  141.8425  183.4585 C   0  0  0  0  0  0  0  0  0  0  0  0
  154.7609  141.3440  182.0975 C   0  0  0  0  0  0  0  0  0  0  0  0
  159.0106  143.5215  180.2334 C   0  0  0  0  0  0  0  0  0  0  0  0
  158.6511  142.2543  179.8259 C   0  0  0  0  0  0  0  0  0  0  0  0
  157.7331  141.5039  180.5627 C   0  0  0  0  0  0  0  0  0  0  0  0
  157.1556  141.9883  181.7101 C   0  0  0  0  0  0  0  0  0  0  0  0
  157.5198  143.2565  182.1118 C   0  0  0  0  0  0  0  0  0  0  0  0
  158.4344  144.0101  181.3821 C   0  0  0  0  0  0  0  0  0  0  0  0
  152.7140  140.5554  181.3267 C   0  0  0  0  0  0  0  0  0  0  0  0
  152.4202  139.4387  180.3690 C   0  0  0  0  0  0  0  0  0  0  0  0
  151.1198  139.7205  179.6718 C   0  0  0  0  0  0  0  0  0  0  0  0
  149.9179  139.6785  180.5582 C   0  0  0  0  0  0  0  0  0  0  0  0
  150.1289  138.8910  181.7605 N   0  0  0  0  0  0  0  0  0  0  0  0
  150.8865  137.7069  181.3271 C   0  0  0  0  0  0  0  0  0  0  0  0
  152.3336  138.1603  181.1956 C   0  0  0  0  0  0  0  0  0  0  0  0
  149.2233  138.6347  182.1665 H   0  0  0  0  0  0  0  0  0  0  0  0
  6  7  2  0  0  0
  7  8  1  0  0  0
  8  9  2  0  0  0
  9  3  1  0  0  0
  3  4  1  0  0  0
  4  5  1  0  0  0
  5  1  1  0  0  0
  1 12  1  0  0  0
 12 13  1  0  0  0
 13 14  1  0  0  0
 14 15  1  0  0  0
 15 16  1  0  0  0
 16 17  1  0  0  0
 17 18  1  0  0  0
  9 10  1  0  0  0
 10 11  2  0  0  0
 11  6  1  0  0  0
  5  3  1  0  0  0
 18 13  1  0  0  0
  1  2  1  0  0  0
 16 19  1  0  0  0
M  END
> <minimizedAffinity>
-6.63215

> <CNNscore>
0.6085388660

> <CNNaffinity>
5.1897239685

> <CNN_VS>
3.1581487656

> <CNNaffinity_variance>
0.0335031562

$$$$
[H]c1c([H])c([H])c([C@@]2([H])C([H])([H])[C@]2([H])N([H])C([H])([H])C2([H])C([H])([H])C([H])([H])N([H])C([H])([H])C2([H])[H])c([H])c1[H]


 19 21  0  0  0  0  0  0  0  0999 V2000
  154.1716  140.1876  184.1994 N   0  0  0  0  0  0  0  0  0  0  0  0
  153.1437  140.2853  184.2036 H   0  0  0  0  0  0  0  0  0  0  0  0
  155.8714  141.8737  183.3154 C   0  0  0  0  0  0  0  0  0  0  0  0
  154.4428  142.3370  183.0139 C   0  0  0  0  0  0  0  0  0  0  0  0
  154.8203  140.8536  183.0869 C   0  0  0  0  0  0  0  0  0  0  0  0
  158.8325  142.1610  180.2028 C   0  0  0  0  0  0  0  0  0  0  0  0
  158.5104  140.9536  180.7855 C   0  0  0  0  0  0  0  0  0  0  0  0
  157.5468  140.8849  181.7932 C   0  0  0  0  0  0  0  0  0  0  0  0
  156.8863  142.0016  182.2422 C   0  0  0  0  0  0  0  0  0  0  0  0
  157.2136  143.2059  181.6549 C   0  0  0  0  0  0  0  0  0  0  0  0
  158.1734  143.2816  180.6499 C   0  0  0  0  0  0  0  0  0  0  0  0
  154.6149  138.8090  184.1746 C   0  0  0  0  0  0  0  0  0  0  0  0
  153.5210  137.8228  184.4604 C   0  0  0  0  0  0  0  0  0  0  0  0
  153.0213  138.0374  185.8606 C   0  0  0  0  0  0  0  0  0  0  0  0
  154.0100  137.7061  186.9305 C   0  0  0  0  0  0  0  0  0  0  0  0
  155.0355  136.7785  186.4857 N   0  0  0  0  0  0  0  0  0  0  0  0
  154.3339  135.7820  185.6618 C   0  0  0  0  0  0  0  0  0  0  0  0
  154.1279  136.4330  184.3015 C   0  0  0  0  0  0  0  0  0  0  0  0
  155.4864  136.3486  187.2997 H   0  0  0  0  0  0  0  0  0  0  0  0
  6  7  2  0  0  0
  7  8  1  0  0  0
  8  9  2  0  0  0
  9  3  1  0  0  0
  3  4  1  0  0  0
  4  5  1  0  0  0
  5  1  1  0  0  0
  1 12  1  0  0  0
 12 13  1  0  0  0
 13 14  1  0  0  0
 14 15  1  0  0  0
 15 16  1  0  0  0
 16 17  1  0  0  0
 17 18  1  0  0  0
  9 10  1  0  0  0
 10 11  2  0  0  0
 11  6  1  0  0  0
  5  3  1  0  0  0
 18 13  1  0  0  0
  1  2  1  0  0  0
 16 19  1  0  0  0
M  END
> <minimizedAffinity>
-5.41718

> <CNNscore>
0.4538652301

> <CNNaffinity>
4.8576478958

> <CNN_VS>
2.2047173977

> <CNNaffinity_variance>
0.1359951347

$$$$
[H]c1c([H])c([H])c([C@@]2([H])C([H])([H])[C@]2([H])N([H])C([H])([H])C2([H])C([H])([H])C([H])([H])N([H])C([H])([H])C2([H])[H])c([H])c1[H]


 19 21  0  0  0  0  0  0  0  0999 V2000
  156.2022  139.3806  185.0966 N   0  0  0  0  0  0  0  0  0  0  0  0
  155.8436  138.8879  184.2631 H   0  0  0  0  0  0  0  0  0  0  0  0
  157.9157  141.2055  184.5995 C   0  0  0  0  0  0  0  0  0  0  0  0
  157.9564  140.1174  183.5222 C   0  0  0  0  0  0  0  0  0  0  0  0
  157.5814  139.8112  184.9761 C   0  0  0  0  0  0  0  0  0  0  0  0
  161.6241  142.7134  186.1851 C   0  0  0  0  0  0  0  0  0  0  0  0
  160.4781  142.6618  186.9500 C   0  0  0  0  0  0  0  0  0  0  0  0
  159.2871  142.1687  186.4144 C   0  0  0  0  0  0  0  0  0  0  0  0
  159.2056  141.7194  185.1196 C   0  0  0  0  0  0  0  0  0  0  0  0
  160.3557  141.7740  184.3603 C   0  0  0  0  0  0  0  0  0  0  0  0
  161.5465  142.2645  184.8879 C   0  0  0  0  0  0  0  0  0  0  0  0
  156.1172  138.5915  186.3081 C   0  0  0  0  0  0  0  0  0  0  0  0
  154.9802  137.6127  186.3069 C   0  0  0  0  0  0  0  0  0  0  0  0
  153.7827  138.2520  186.9500 C   0  0  0  0  0  0  0  0  0  0  0  0
  153.9363  138.5305  188.4098 C   0  0  0  0  0  0  0  0  0  0  0  0
  154.9456  137.6985  189.0414 N   0  0  0  0  0  0  0  0  0  0  0  0
  154.7683  136.3577  188.4631 C   0  0  0  0  0  0  0  0  0  0  0  0
  155.4449  136.3962  187.1002 C   0  0  0  0  0  0  0  0  0  0  0  0
  154.8029  137.6961  190.0565 H   0  0  0  0  0  0  0  0  0  0  0  0
  6  7  2  0  0  0
  7  8  1  0  0  0
  8  9  2  0  0  0
  9  3  1  0  0  0
  3  4  1  0  0  0
  4  5  1  0  0  0
  5  1  1  0  0  0
  1 12  1  0  0  0
 12 13  1  0  0  0
 13 14  1  0  0  0
 14 15  1  0  0  0
 15 16  1  0  0  0
 16 17  1  0  0  0
 17 18  1  0  0  0
  9 10  1  0  0  0
 10 11  2  0  0  0
 11  6  1  0  0  0
  5  3  1  0  0  0
 18 13  1  0  0  0
  1  2  1  0  0  0
 16 19  1  0  0  0
M  END
> <minimizedAffinity>
-6.37179

> <CNNscore>
0.4424387217

> <CNNaffinity>
4.9754767418

> <CNN_VS>
2.2013435364

> <CNNaffinity_variance>
0.0996386483

$$$$
[H]c1c([H])c([H])c([C@@]2([H])C([H])([H])[C@]2([H])N([H])C([H])([H])C2([H])C([H])([H])C([H])([H])N([H])C([H])([H])C2([H])[H])c([H])c1[H]


 19 21  0  0  0  0  0  0  0  0999 V2000
  154.8086  136.4307  191.8163 N   0  0  0  0  0  0  0  0  0  0  0  0
  155.2748  136.8491  192.6370 H   0  0  0  0  0  0  0  0  0  0  0  0
  155.5068  137.5453  189.6290 C   0  0  0  0  0  0  0  0  0  0  0  0
  155.5201  138.5563  190.7796 C   0  0  0  0  0  0  0  0  0  0  0  0
  154.5472  137.3729  190.7457 C   0  0  0  0  0  0  0  0  0  0  0  0
  153.8723  138.7624  185.8361 C   0  0  0  0  0  0  0  0  0  0  0  0
  155.1845  138.3580  185.9620 C   0  0  0  0  0  0  0  0  0  0  0  0
  155.6924  137.9676  187.2023 C   0  0  0  0  0  0  0  0  0  0  0  0
  154.9181  137.9691  188.3360 C   0  0  0  0  0  0  0  0  0  0  0  0
  153.6066  138.3749  188.2026 C   0  0  0  0  0  0  0  0  0  0  0  0
  153.0937  138.7655  186.9692 C   0  0  0  0  0  0  0  0  0  0  0  0
  153.5433  135.8026  192.1357 C   0  0  0  0  0  0  0  0  0  0  0  0
  152.3831  136.7537  192.1268 C   0  0  0  0  0  0  0  0  0  0  0  0
  151.9360  136.9943  193.5405 C   0  0  0  0  0  0  0  0  0  0  0  0
  151.3401  135.8017  194.2149 C   0  0  0  0  0  0  0  0  0  0  0  0
  150.8286  134.8179  193.2766 N   0  0  0  0  0  0  0  0  0  0  0  0
  150.1665  135.5929  192.2160 C   0  0  0  0  0  0  0  0  0  0  0  0
  151.2792  136.0949  191.3069 C   0  0  0  0  0  0  0  0  0  0  0  0
  150.1724  134.1938  193.7568 H   0  0  0  0  0  0  0  0  0  0  0  0
  6  7  2  0  0  0
  7  8  1  0  0  0
  8  9  2  0  0  0
  9  3  1  0  0  0
  3  4  1  0  0  0
  4  5  1  0  0  0
  5  1  1  0  0  0
  1 12  1  0  0  0
 12 13  1  0  0  0
 13 14  1  0  0  0
 14 15  1  0  0  0
 15 16  1  0  0  0
 16 17  1  0  0  0
 17 18  1  0  0  0
  9 10  1  0  0  0
 10 11  2  0  0  0
 11  6  1  0  0  0
  5  3  1  0  0  0
 18 13  1  0  0  0
  1  2  1  0  0  0
 16 19  1  0  0  0
M  END
> <minimizedAffinity>
-5.83093

> <CNNscore>
0.4281722903

> <CNNaffinity>
4.3104581833

> <CNN_VS>
1.8456187248

> <CNNaffinity_variance>
0.1335249841

$$$$
[H]c1c([H])c([H])c([C@@]2([H])C([H])([H])[C@]2([H])N([H])C([H])([H])C2([H])C([H])([H])C([H])([H])N([H])C([H])([H])C2([H])[H])c([H])c1[H]


 19 21  0  0  0  0  0  0  0  0999 V2000
  154.6995  137.3836  190.4983 N   0  0  0  0  0  0  0  0  0  0  0  0
  154.7039  138.3714  190.7985 H   0  0  0  0  0  0  0  0  0  0  0  0
  156.1881  135.3108  190.5355 C   0  0  0  0  0  0  0  0  0  0  0  0
  156.4155  136.1627  191.7880 C   0  0  0  0  0  0  0  0  0  0  0  0
  156.0168  136.7804  190.4435 C   0  0  0  0  0  0  0  0  0  0  0  0
  159.6283  133.7609  188.4612 C   0  0  0  0  0  0  0  0  0  0  0  0
  158.8636  134.7798  187.9335 C   0  0  0  0  0  0  0  0  0  0  0  0
  157.7525  135.2662  188.6243 C   0  0  0  0  0  0  0  0  0  0  0  0
  157.3772  134.7583  189.8434 C   0  0  0  0  0  0  0  0  0  0  0  0
  158.1465  133.7394  190.3652 C   0  0  0  0  0  0  0  0  0  0  0  0
  159.2555  133.2496  189.6818 C   0  0  0  0  0  0  0  0  0  0  0  0
  154.0963  137.1841  189.1968 C   0  0  0  0  0  0  0  0  0  0  0  0
  154.3452  138.3139  188.2416 C   0  0  0  0  0  0  0  0  0  0  0  0
  153.0491  138.6948  187.5848 C   0  0  0  0  0  0  0  0  0  0  0  0
  152.4841  137.6529  186.6752 C   0  0  0  0  0  0  0  0  0  0  0  0
  153.4878  136.7234  186.1870 N   0  0  0  0  0  0  0  0  0  0  0  0
  154.6689  137.5451  185.8809 C   0  0  0  0  0  0  0  0  0  0  0  0
  155.3530  137.8091  187.2147 C   0  0  0  0  0  0  0  0  0  0  0  0
  153.1341  136.2419  185.3541 H   0  0  0  0  0  0  0  0  0  0  0  0
  6  7  2  0  0  0
  7  8  1  0  0  0
  8  9  2  0  0  0
  9  3  1  0  0  0
  3  4  1  0  0  0
  4  5  1  0  0  0
  5  1  1  0  0  0
  1 12  1  0  0  0
 12 13  1  0  0  0
 13 14  1  0  0  0
 14 15  1  0  0  0
 15 16  1  0  0  0
 16 17  1  0  0  0
 17 18  1  0  0  0
  9 10  1  0  0  0
 10 11  2  0  0  0
 11  6  1  0  0  0
  5  3  1  0  0  0
 18 13  1  0  0  0
  1  2  1  0  0  0
 16 19  1  0  0  0
M  END
> <minimizedAffinity>
-5.13461

> <CNNscore>
0.4193519950

> <CNNaffinity>
4.0674352646

> <CNN_VS>
1.7056870461

> <CNNaffinity_variance>
0.2215120345

$$$$
[H]c1c([H])c([H])c([C@@]2([H])C([H])([H])[C@]2([H])N([H])C([H])([H])C2([H])C([H])([H])C([H])([H])N([H])C([H])([H])C2([H])[H])c([H])c1[H]


 19 21  0  0  0  0  0  0  0  0999 V2000
  155.8008  138.7725  184.0497 N   0  0  0  0  0  0  0  0  0  0  0  0
  156.3787  138.0133  184.4444 H   0  0  0  0  0  0  0  0  0  0  0  0
  157.7857  139.8972  182.9057 C   0  0  0  0  0  0  0  0  0  0  0  0
  157.9076  140.0040  184.4289 C   0  0  0  0  0  0  0  0  0  0  0  0
  156.5493  139.9697  183.7203 C   0  0  0  0  0  0  0  0  0  0  0  0
  158.6848  143.3432  180.4856 C   0  0  0  0  0  0  0  0  0  0  0  0
  158.6218  142.0762  179.9452 C   0  0  0  0  0  0  0  0  0  0  0  0
  158.3285  140.9737  180.7496 C   0  0  0  0  0  0  0  0  0  0  0  0
  158.0929  141.1008  182.0962 C   0  0  0  0  0  0  0  0  0  0  0  0
  158.1575  142.3710  182.6299 C   0  0  0  0  0  0  0  0  0  0  0  0
  158.4495  143.4745  181.8338 C   0  0  0  0  0  0  0  0  0  0  0  0
  154.7221  139.1837  184.9243 C   0  0  0  0  0  0  0  0  0  0  0  0
  154.6165  138.3598  186.1736 C   0  0  0  0  0  0  0  0  0  0  0  0
  154.6069  136.9046  185.8014 C   0  0  0  0  0  0  0  0  0  0  0  0
  153.3938  136.4639  185.0489 C   0  0  0  0  0  0  0  0  0  0  0  0
  152.2503  137.3347  185.2591 N   0  0  0  0  0  0  0  0  0  0  0  0
  152.2671  137.6668  186.6920 C   0  0  0  0  0  0  0  0  0  0  0  0
  153.3133  138.7600  186.8567 C   0  0  0  0  0  0  0  0  0  0  0  0
  151.3909  136.8434  184.9932 H   0  0  0  0  0  0  0  0  0  0  0  0
  6  7  2  0  0  0
  7  8  1  0  0  0
  8  9  2  0  0  0
  9  3  1  0  0  0
  3  4  1  0  0  0
  4  5  1  0  0  0
  5  1  1  0  0  0
  1 12  1  0  0  0
 12 13  1  0  0  0
 13 14  1  0  0  0
 14 15  1  0  0  0
 15 16  1  0  0  0
 16 17  1  0  0  0
 17 18  1  0  0  0
  9 10  1  0  0  0
 10 11  2  0  0  0
 11  6  1  0  0  0
  5  3  1  0  0  0
 18 13  1  0  0  0
  1  2  1  0  0  0
 16 19  1  0  0  0
M  END
> <minimizedAffinity>
-5.56955

> <CNNscore>
0.4061904550

> <CNNaffinity>
4.8928117752

> <CNN_VS>
1.9874134064

> <CNNaffinity_variance>
0.2967451215

$$$$
[H]c1c([H])c([H])c([C@@]2([H])C([H])([H])[C@]2([H])N([H])C([H])([H])C2([H])C([H])([H])C([H])([H])N([H])C([H])([H])C2([H])[H])c([H])c1[H]


 19 21  0  0  0  0  0  0  0  0999 V2000
  156.6414  140.2247  183.5904 N   0  0  0  0  0  0  0  0  0  0  0  0
  156.7953  140.0008  182.5943 H   0  0  0  0  0  0  0  0  0  0  0  0
  159.0285  141.1013  183.8067 C   0  0  0  0  0  0  0  0  0  0  0  0
  159.0184  139.5712  183.7369 C   0  0  0  0  0  0  0  0  0  0  0  0
  157.8642  140.3665  184.3563 C   0  0  0  0  0  0  0  0  0  0  0  0
  161.5261  142.9795  186.7689 C   0  0  0  0  0  0  0  0  0  0  0  0
  160.2015  142.6889  187.0184 C   0  0  0  0  0  0  0  0  0  0  0  0
  159.4110  142.0795  186.0425 C   0  0  0  0  0  0  0  0  0  0  0  0
  159.9111  141.7472  184.8078 C   0  0  0  0  0  0  0  0  0  0  0  0
  161.2367  142.0407  184.5652 C   0  0  0  0  0  0  0  0  0  0  0  0
  162.0305  142.6483  185.5335 C   0  0  0  0  0  0  0  0  0  0  0  0
  155.8309  139.2416  184.2790 C   0  0  0  0  0  0  0  0  0  0  0  0
  154.4060  139.6693  184.4725 C   0  0  0  0  0  0  0  0  0  0  0  0
  153.7691  138.7950  185.5147 C   0  0  0  0  0  0  0  0  0  0  0  0
  153.6005  137.3670  185.1089 C   0  0  0  0  0  0  0  0  0  0  0  0
  153.5850  137.1865  183.6677 N   0  0  0  0  0  0  0  0  0  0  0  0
  152.7854  138.3028  183.1400 C   0  0  0  0  0  0  0  0  0  0  0  0
  153.7112  139.5109  183.1244 C   0  0  0  0  0  0  0  0  0  0  0  0
  153.1669  136.2789  183.4396 H   0  0  0  0  0  0  0  0  0  0  0  0
  6  7  2  0  0  0
  7  8  1  0  0  0
  8  9  2  0  0  0
  9  3  1  0  0  0
  3  4  1  0  0  0
  4  5  1  0  0  0
  5  1  1  0  0  0
  1 12  1  0  0  0
 12 13  1  0  0  0
 13 14  1  0  0  0
 14 15  1  0  0  0
 15 16  1  0  0  0
 16 17  1  0  0  0
 17 18  1  0  0  0
  9 10  1  0  0  0
 10 11  2  0  0  0
 11  6  1  0  0  0
  5  3  1  0  0  0
 18 13  1  0  0  0
  1  2  1  0  0  0
 16 19  1  0  0  0
M  END
> <minimizedAffinity>
-6.97551

> <CNNscore>
0.3934748471

> <CNNaffinity>
5.0192236900

> <CNN_VS>
1.9749382734

> <CNNaffinity_variance>
0.0214610901

$$$$
[H]c1c([H])c([H])c([C@@]2([H])C([H])([H])[C@]2([H])N([H])C([H])([H])C2([H])C([H])([H])C([H])([H])N([H])C([H])([H])C2([H])[H])c([H])c1[H]


 19 21  0  0  0  0  0  0  0  0999 V2000
  156.7992  139.7794  184.9126 N   0  0  0  0  0  0  0  0  0  0  0  0
  156.3934  140.1438  185.7893 H   0  0  0  0  0  0  0  0  0  0  0  0
  158.3763  140.3652  182.9934 C   0  0  0  0  0  0  0  0  0  0  0  0
  159.0663  140.5771  184.3445 C   0  0  0  0  0  0  0  0  0  0  0  0
  157.5561  140.7626  184.1626 C   0  0  0  0  0  0  0  0  0  0  0  0
  158.9052  143.4394  180.0254 C   0  0  0  0  0  0  0  0  0  0  0  0
  159.0252  143.7064  181.3728 C   0  0  0  0  0  0  0  0  0  0  0  0
  158.8495  142.6934  182.3170 C   0  0  0  0  0  0  0  0  0  0  0  0
  158.5533  141.4039  181.9504 C   0  0  0  0  0  0  0  0  0  0  0  0
  158.4347  141.1441  180.6010 C   0  0  0  0  0  0  0  0  0  0  0  0
  158.6086  142.1493  179.6543 C   0  0  0  0  0  0  0  0  0  0  0  0
  155.8085  139.2371  184.0060 C   0  0  0  0  0  0  0  0  0  0  0  0
  154.4003  139.6098  184.3648 C   0  0  0  0  0  0  0  0  0  0  0  0
  153.9413  138.7484  185.5066 C   0  0  0  0  0  0  0  0  0  0  0  0
  153.7913  137.3003  185.1708 C   0  0  0  0  0  0  0  0  0  0  0  0
  153.6042  137.0654  183.7497 N   0  0  0  0  0  0  0  0  0  0  0  0
  152.6926  138.1255  183.2925 C   0  0  0  0  0  0  0  0  0  0  0  0
  153.5506  139.3710  183.1214 C   0  0  0  0  0  0  0  0  0  0  0  0
  153.2045  136.1326  183.6053 H   0  0  0  0  0  0  0  0  0  0  0  0
  6  7  2  0  0  0
  7  8  1  0  0  0
  8  9  2  0  0  0
  9  3  1  0  0  0
  3  4  1  0  0  0
  4  5  1  0  0  0
  5  1  1  0  0  0
  1 12  1  0  0  0
 12 13  1  0  0  0
 13 14  1  0  0  0
 14 15  1  0  0  0
 15 16  1  0  0  0
 16 17  1  0  0  0
 17 18  1  0  0  0
  9 10  1  0  0  0
 10 11  2  0  0  0
 11  6  1  0  0  0
  5  3  1  0  0  0
 18 13  1  0  0  0
  1  2  1  0  0  0
 16 19  1  0  0  0
M  END
> <minimizedAffinity>
-6.32166

> <CNNscore>
0.3901411891

> <CNNaffinity>
5.0584621429

> <CNN_VS>
1.9735144377

> <CNNaffinity_variance>
0.2054204494

$$$$
[H]c1c([H])c([H])c([C@@]2([H])C([H])([H])[C@]2([H])N([H])C([H])([H])C2([H])C([H])([H])C([H])([H])N([H])C([H])([H])C2([H])[H])c([H])c1[H]


 19 21  0  0  0  0  0  0  0  0999 V2000
  156.7809  140.1580  183.9353 N   0  0  0  0  0  0  0  0  0  0  0  0
  156.1888  139.3996  184.3098 H   0  0  0  0  0  0  0  0  0  0  0  0
  159.1676  141.0569  184.0312 C   0  0  0  0  0  0  0  0  0  0  0  0
  159.1666  139.5252  184.0176 C   0  0  0  0  0  0  0  0  0  0  0  0
  158.0299  140.3354  184.6498 C   0  0  0  0  0  0  0  0  0  0  0  0
  161.8844  143.0459  186.7150 C   0  0  0  0  0  0  0  0  0  0  0  0
  162.2883  142.6042  185.4728 C   0  0  0  0  0  0  0  0  0  0  0  0
  161.3895  141.9618  184.6196 C   0  0  0  0  0  0  0  0  0  0  0  0
  160.0813  141.7445  184.9749 C   0  0  0  0  0  0  0  0  0  0  0  0
  159.6843  142.1889  186.2188 C   0  0  0  0  0  0  0  0  0  0  0  0
  160.5751  142.8300  187.0746 C   0  0  0  0  0  0  0  0  0  0  0  0
  156.1206  141.4471  183.9254 C   0  0  0  0  0  0  0  0  0  0  0  0
  155.4414  141.7623  182.6254 C   0  0  0  0  0  0  0  0  0  0  0  0
  156.4626  141.7518  181.5238 C   0  0  0  0  0  0  0  0  0  0  0  0
  157.4755  142.8470  181.6055 C   0  0  0  0  0  0  0  0  0  0  0  0
  157.0152  143.9869  182.3794 N   0  0  0  0  0  0  0  0  0  0  0  0
  155.6082  144.1800  181.9961 C   0  0  0  0  0  0  0  0  0  0  0  0
  154.8145  143.1438  182.7791 C   0  0  0  0  0  0  0  0  0  0  0  0
  157.5861  144.8079  182.1544 H   0  0  0  0  0  0  0  0  0  0  0  0
  6  7  2  0  0  0
  7  8  1  0  0  0
  8  9  2  0  0  0
  9  3  1  0  0  0
  3  4  1  0  0  0
  4  5  1  0  0  0
  5  1  1  0  0  0
  1 12  1  0  0  0
 12 13  1  0  0  0
 13 14  1  0  0  0
 14 15  1  0  0  0
 15 16  1  0  0  0
 16 17  1  0  0  0
 17 18  1  0  0  0
  9 10  1  0  0  0
 10 11  2  0  0  0
 11  6  1  0  0  0
  5  3  1  0  0  0
 18 13  1  0  0  0
  1  2  1  0  0  0
 16 19  1  0  0  0
M  END
> <minimizedAffinity>
-7.33083

> <CNNscore>
0.3819846809

> <CNNaffinity>
5.5276565552

> <CNN_VS>
2.1114802361

> <CNNaffinity_variance>
0.0801165923

$$$$
[H]OC([H])([H])C(F)(F)C([H])([H])N1[C@]([H])(c2c(F)c([H])nc(OC([H])([H])C([H])([H])N([H])C([H])([H])C([H])([H])C([H])([H])F)c2F)c2c(c3c([H])c([H])c([H])c([H])c3n2[H])C([H])([H])[C@@]1([H])C([H])([H])[H]


 39 42  0  0  0  0  0  0  0  0999 V2000
  153.6136  136.1179  183.3456 C   0  0  0  0  0  0  0  0  0  0  0  0
  152.7767  136.5897  184.5042 C   0  0  0  0  0  0  0  0  0  0  0  0
  152.5306  138.0843  184.1440 C   0  0  0  0  0  0  0  0  0  0  0  0
  153.8431  138.7340  184.3138 C   0  0  0  0  0  0  0  0  0  0  0  0
  154.7324  138.2630  185.2451 C   0  0  0  0  0  0  0  0  0  0  0  0
  155.8200  139.0594  185.1505 N   0  0  0  0  0  0  0  0  0  0  0  0
  155.6630  140.0016  184.2142 C   0  0  0  0  0  0  0  0  0  0  0  0
  156.4479  141.0340  183.7352 C   0  0  0  0  0  0  0  0  0  0  0  0
  155.9879  141.8576  182.7328 C   0  0  0  0  0  0  0  0  0  0  0  0
  154.7192  141.6747  182.1726 C   0  0  0  0  0  0  0  0  0  0  0  0
  153.9610  140.6390  182.6696 C   0  0  0  0  0  0  0  0  0  0  0  0
  154.4091  139.8102  183.6701 C   0  0  0  0  0  0  0  0  0  0  0  0
  154.4664  137.0997  186.1404 C   0  0  0  0  0  0  0  0  0  0  0  0
  153.2576  136.4213  185.7915 N   0  0  0  0  0  0  0  0  0  0  0  0
  156.6805  138.9627  185.7283 H   0  0  0  0  0  0  0  0  0  0  0  0
  154.7259  137.3912  187.5408 C   0  0  0  0  0  0  0  0  0  0  0  0
  154.0575  138.3757  188.2361 C   0  0  0  0  0  0  0  0  0  0  0  0
  153.1393  139.0922  187.6003 F   0  0  0  0  0  0  0  0  0  0  0  0
  154.3096  138.6424  189.5703 C   0  0  0  0  0  0  0  0  0  0  0  0
  155.2393  137.9189  190.2184 N   0  0  0  0  0  0  0  0  0  0  0  0
  155.9368  136.9414  189.6171 C   0  0  0  0  0  0  0  0  0  0  0  0
  155.6715  136.6880  188.2813 C   0  0  0  0  0  0  0  0  0  0  0  0
  156.3982  135.6927  187.7084 F   0  0  0  0  0  0  0  0  0  0  0  0
  156.8706  136.2369  190.3261 O   0  0  0  0  0  0  0  0  0  0  0  0
  156.6516  135.2503  191.2850 C   0  0  0  0  0  0  0  0  0  0  0  0
  157.5608  134.0732  191.2123 C   0  0  0  0  0  0  0  0  0  0  0  0
  157.7975  133.6340  189.8479 N   0  0  0  0  0  0  0  0  0  0  0  0
  157.0233  133.0990  189.4376 H   0  0  0  0  0  0  0  0  0  0  0  0
  159.0760  133.0099  189.6692 C   0  0  0  0  0  0  0  0  0  0  0  0
  159.6478  133.2370  188.2920 C   0  0  0  0  0  0  0  0  0  0  0  0
  159.6221  134.6743  187.8623 C   0  0  0  0  0  0  0  0  0  0  0  0
  160.7898  135.3516  188.1331 F   0  0  0  0  0  0  0  0  0  0  0  0
  152.6879  135.6402  186.7674 C   0  0  0  0  0  0  0  0  0  0  0  0
  151.4055  135.8150  187.4265 C   0  0  0  0  0  0  0  0  0  0  0  0
  151.4670  135.8793  188.8183 F   0  0  0  0  0  0  0  0  0  0  0  0
  150.9491  137.1849  187.1708 F   0  0  0  0  0  0  0  0  0  0  0  0
  150.2055  135.0300  187.0510 C   0  0  0  0  0  0  0  0  0  0  0  0
  149.6657  135.1696  185.8177 O   0  0  0  0  0  0  0  0  0  0  0  0
  150.0358  134.5325  185.1633 H   0  0  0  0  0  0  0  0  0  0  0  0
  1  2  1  0  0  0
  2  3  1  0  0  0
  3  4  1  0  0  0
  4  5  2  0  0  0
  5  6  1  0  0  0
  6  7  1  0  0  0
  7  8  2  0  0  0
  8  9  1  0  0  0
  9 10  2  0  0  0
 10 11  1  0  0  0
 11 12  2  0  0  0
  5 13  1  0  0  0
 13 16  1  0  0  0
 16 17  2  0  0  0
 17 18  1  0  0  0
 17 19  1  0  0  0
 19 20  2  0  0  0
 20 21  1  0  0  0
 21 24  1  0  0  0
 24 25  1  0  0  0
 25 26  1  0  0  0
 26 27  1  0  0  0
 27 29  1  0  0  0
 29 30  1  0  0  0
 30 31  1  0  0  0
 31 32  1  0  0  0
 21 22  2  0  0  0
 22 23  1  0  0  0
 13 14  1  0  0  0
 14 33  1  0  0  0
 33 34  1  0  0  0
 34 35  1  0  0  0
 34 36  1  0  0  0
 34 37  1  0  0  0
 37 38  1  0  0  0
 14  2  1  0  0  0
 12  4  1  0  0  0
 22 16  1  0  0  0
 12  7  1  0  0  0
  6 15  1  0  0  0
 27 28  1  0  0  0
 38 39  1  0  0  0
M  END
> <minimizedAffinity>
-6.50545

> <CNNscore>
0.3626048565

> <CNNaffinity>
6.2816271782

> <CNN_VS>
2.2777485847

> <CNNaffinity_variance>
0.1099074110

$$$$
[H]OC([H])([H])C(F)(F)C([H])([H])N1[C@]([H])(c2c(F)c([H])nc(OC([H])([H])C([H])([H])N([H])C([H])([H])C([H])([H])C([H])([H])F)c2F)c2c(c3c([H])c([H])c([H])c([H])c3n2[H])C([H])([H])[C@@]1([H])C([H])([H])[H]


 39 42  0  0  0  0  0  0  0  0999 V2000
  156.5042  137.3169  189.9810 C   0  0  0  0  0  0  0  0  0  0  0  0
  155.5653  137.9208  188.9714 C   0  0  0  0  0  0  0  0  0  0  0  0
  154.3730  138.3760  189.8633 C   0  0  0  0  0  0  0  0  0  0  0  0
  153.7303  137.1234  190.3015 C   0  0  0  0  0  0  0  0  0  0  0  0
  153.7605  136.0130  189.4977 C   0  0  0  0  0  0  0  0  0  0  0  0
  153.0981  135.0502  190.1760 N   0  0  0  0  0  0  0  0  0  0  0  0
  152.6547  135.4935  191.3575 C   0  0  0  0  0  0  0  0  0  0  0  0
  151.9430  134.9304  192.4005 C   0  0  0  0  0  0  0  0  0  0  0  0
  151.6315  135.6717  193.5176 C   0  0  0  0  0  0  0  0  0  0  0  0
  152.0241  137.0097  193.6294 C   0  0  0  0  0  0  0  0  0  0  0  0
  152.7313  137.5428  192.5757 C   0  0  0  0  0  0  0  0  0  0  0  0
  153.0481  136.8129  191.4552 C   0  0  0  0  0  0  0  0  0  0  0  0
  154.4155  135.9692  188.1581 C   0  0  0  0  0  0  0  0  0  0  0  0
  155.1632  137.1573  187.8888 N   0  0  0  0  0  0  0  0  0  0  0  0
  152.9445  134.0792  189.8335 H   0  0  0  0  0  0  0  0  0  0  0  0
  153.5475  135.4384  187.1198 C   0  0  0  0  0  0  0  0  0  0  0  0
  152.3307  136.0022  186.8017 C   0  0  0  0  0  0  0  0  0  0  0  0
  151.9309  137.0742  187.4738 F   0  0  0  0  0  0  0  0  0  0  0  0
  151.5138  135.4912  185.8087 C   0  0  0  0  0  0  0  0  0  0  0  0
  151.9149  134.4050  185.1251 N   0  0  0  0  0  0  0  0  0  0  0  0
  153.0851  133.7934  185.3705 C   0  0  0  0  0  0  0  0  0  0  0  0
  153.8903  134.3185  186.3679 C   0  0  0  0  0  0  0  0  0  0  0  0
  155.0652  133.6713  186.5870 F   0  0  0  0  0  0  0  0  0  0  0  0
  153.4425  132.6916  184.6431 O   0  0  0  0  0  0  0  0  0  0  0  0
  153.0229  132.3388  183.3624 C   0  0  0  0  0  0  0  0  0  0  0  0
  153.8511  132.8743  182.2466 C   0  0  0  0  0  0  0  0  0  0  0  0
  153.7589  132.0639  181.0443 N   0  0  0  0  0  0  0  0  0  0  0  0
  154.5411  131.4116  180.9154 H   0  0  0  0  0  0  0  0  0  0  0  0
  153.4584  132.8288  179.8693 C   0  0  0  0  0  0  0  0  0  0  0  0
  152.6985  132.0352  178.8360 C   0  0  0  0  0  0  0  0  0  0  0  0
  152.9412  132.4963  177.4290 C   0  0  0  0  0  0  0  0  0  0  0  0
  151.7954  132.8813  176.7697 F   0  0  0  0  0  0  0  0  0  0  0  0
  155.4352  137.4261  186.5694 C   0  0  0  0  0  0  0  0  0  0  0  0
  154.7876  138.3872  185.6939 C   0  0  0  0  0  0  0  0  0  0  0  0
  153.8018  139.1625  186.3037 F   0  0  0  0  0  0  0  0  0  0  0  0
  155.7498  139.4556  185.4057 F   0  0  0  0  0  0  0  0  0  0  0  0
  154.3232  138.0340  184.3313 C   0  0  0  0  0  0  0  0  0  0  0  0
  154.3212  136.7406  183.9323 O   0  0  0  0  0  0  0  0  0  0  0  0
  153.4688  136.2832  184.1200 H   0  0  0  0  0  0  0  0  0  0  0  0
  1  2  1  0  0  0
  2  3  1  0  0  0
  3  4  1  0  0  0
  4  5  2  0  0  0
  5  6  1  0  0  0
  6  7  1  0  0  0
  7  8  2  0  0  0
  8  9  1  0  0  0
  9 10  2  0  0  0
 10 11  1  0  0  0
 11 12  2  0  0  0
  5 13  1  0  0  0
 13 16  1  0  0  0
 16 17  2  0  0  0
 17 18  1  0  0  0
 17 19  1  0  0  0
 19 20  2  0  0  0
 20 21  1  0  0  0
 21 24  1  0  0  0
 24 25  1  0  0  0
 25 26  1  0  0  0
 26 27  1  0  0  0
 27 29  1  0  0  0
 29 30  1  0  0  0
 30 31  1  0  0  0
 31 32  1  0  0  0
 21 22  2  0  0  0
 22 23  1  0  0  0
 13 14  1  0  0  0
 14 33  1  0  0  0
 33 34  1  0  0  0
 34 35  1  0  0  0
 34 36  1  0  0  0
 34 37  1  0  0  0
 37 38  1  0  0  0
 14  2  1  0  0  0
 12  4  1  0  0  0
 22 16  1  0  0  0
 12  7  1  0  0  0
  6 15  1  0  0  0
 27 28  1  0  0  0
 38 39  1  0  0  0
M  END
> <minimizedAffinity>
-4.79798

> <CNNscore>
0.3619234562

> <CNNaffinity>
5.8702559471

> <CNN_VS>
2.1245832443

> <CNNaffinity_variance>
0.1266555041

$$$$
[H]OC([H])([H])C(F)(F)C([H])([H])N1[C@]([H])(c2c(F)c([H])nc(OC([H])([H])C([H])([H])N([H])C([H])([H])C([H])([H])C([H])([H])F)c2F)c2c(c3c([H])c([H])c([H])c([H])c3n2[H])C([H])([H])[C@@]1([H])C([H])([H])[H]


 39 42  0  0  0  0  0  0  0  0999 V2000
  153.7295  136.1700  183.2422 C   0  0  0  0  0  0  0  0  0  0  0  0
  152.8541  136.6359  184.3744 C   0  0  0  0  0  0  0  0  0  0  0  0
  152.6137  138.1304  184.0097 C   0  0  0  0  0  0  0  0  0  0  0  0
  153.9176  138.7849  184.2228 C   0  0  0  0  0  0  0  0  0  0  0  0
  154.7785  138.3152  185.1810 C   0  0  0  0  0  0  0  0  0  0  0  0
  155.8654  139.1159  185.1229 N   0  0  0  0  0  0  0  0  0  0  0  0
  155.7347  140.0597  184.1842 C   0  0  0  0  0  0  0  0  0  0  0  0
  156.5304  141.0963  183.7327 C   0  0  0  0  0  0  0  0  0  0  0  0
  156.0994  141.9203  182.7180 C   0  0  0  0  0  0  0  0  0  0  0  0
  154.8500  141.7337  182.1171 C   0  0  0  0  0  0  0  0  0  0  0  0
  154.0804  140.6940  182.5873 C   0  0  0  0  0  0  0  0  0  0  0  0
  154.4996  139.8647  183.5998 C   0  0  0  0  0  0  0  0  0  0  0  0
  154.4886  137.1488  186.0649 C   0  0  0  0  0  0  0  0  0  0  0  0
  153.2943  136.4665  185.6760 N   0  0  0  0  0  0  0  0  0  0  0  0
  156.7074  139.0213  185.7277 H   0  0  0  0  0  0  0  0  0  0  0  0
  154.7021  137.4380  187.4734 C   0  0  0  0  0  0  0  0  0  0  0  0
  153.9948  138.4058  188.1538 C   0  0  0  0  0  0  0  0  0  0  0  0
  153.0813  139.1075  187.4951 F   0  0  0  0  0  0  0  0  0  0  0  0
  154.2033  138.6705  189.4958 C   0  0  0  0  0  0  0  0  0  0  0  0
  155.1281  137.9619  190.1671 N   0  0  0  0  0  0  0  0  0  0  0  0
  155.8616  137.0012  189.5816 C   0  0  0  0  0  0  0  0  0  0  0  0
  155.6397  136.7496  188.2377 C   0  0  0  0  0  0  0  0  0  0  0  0
  156.4019  135.7716  187.6813 F   0  0  0  0  0  0  0  0  0  0  0  0
  156.7882  136.3114  190.3140 O   0  0  0  0  0  0  0  0  0  0  0  0
  156.5733  135.2301  191.1656 C   0  0  0  0  0  0  0  0  0  0  0  0
  155.1496  134.8370  191.3554 C   0  0  0  0  0  0  0  0  0  0  0  0
  154.4446  135.7177  192.2709 N   0  0  0  0  0  0  0  0  0  0  0  0
  155.0565  136.2330  192.9143 H   0  0  0  0  0  0  0  0  0  0  0  0
  153.3384  135.0828  192.9260 C   0  0  0  0  0  0  0  0  0  0  0  0
  152.2720  136.0620  193.3494 C   0  0  0  0  0  0  0  0  0  0  0  0
  152.4488  137.4312  192.7618 C   0  0  0  0  0  0  0  0  0  0  0  0
  152.1075  138.4492  193.6236 F   0  0  0  0  0  0  0  0  0  0  0  0
  152.6968  135.6810  186.6316 C   0  0  0  0  0  0  0  0  0  0  0  0
  151.4447  135.9093  187.3312 C   0  0  0  0  0  0  0  0  0  0  0  0
  150.8500  137.1450  187.0781 F   0  0  0  0  0  0  0  0  0  0  0  0
  150.4230  135.0530  186.7201 F   0  0  0  0  0  0  0  0  0  0  0  0
  151.2694  135.5960  188.7694 C   0  0  0  0  0  0  0  0  0  0  0  0
  152.3284  135.6635  189.6095 O   0  0  0  0  0  0  0  0  0  0  0  0
  152.4316  136.5510  190.0252 H   0  0  0  0  0  0  0  0  0  0  0  0
  1  2  1  0  0  0
  2  3  1  0  0  0
  3  4  1  0  0  0
  4  5  2  0  0  0
  5  6  1  0  0  0
  6  7  1  0  0  0
  7  8  2  0  0  0
  8  9  1  0  0  0
  9 10  2  0  0  0
 10 11  1  0  0  0
 11 12  2  0  0  0
  5 13  1  0  0  0
 13 16  1  0  0  0
 16 17  2  0  0  0
 17 18  1  0  0  0
 17 19  1  0  0  0
 19 20  2  0  0  0
 20 21  1  0  0  0
 21 24  1  0  0  0
 24 25  1  0  0  0
 25 26  1  0  0  0
 26 27  1  0  0  0
 27 29  1  0  0  0
 29 30  1  0  0  0
 30 31  1  0  0  0
 31 32  1  0  0  0
 21 22  2  0  0  0
 22 23  1  0  0  0
 13 14  1  0  0  0
 14 33  1  0  0  0
 33 34  1  0  0  0
 34 35  1  0  0  0
 34 36  1  0  0  0
 34 37  1  0  0  0
 37 38  1  0  0  0
 14  2  1  0  0  0
 12  4  1  0  0  0
 22 16  1  0  0  0
 12  7  1  0  0  0
  6 15  1  0  0  0
 27 28  1  0  0  0
 38 39  1  0  0  0
M  END
> <minimizedAffinity>
-6.40634

> <CNNscore>
0.3511915803

> <CNNaffinity>
6.2393646240

> <CNN_VS>
2.1912124157

> <CNNaffinity_variance>
0.3544866145

$$$$
[H]OC([H])([H])C(F)(F)C([H])([H])N1[C@]([H])(c2c(F)c([H])nc(OC([H])([H])C([H])([H])N([H])C([H])([H])C([H])([H])C([H])([H])F)c2F)c2c(c3c([H])c([H])c([H])c([H])c3n2[H])C([H])([H])[C@@]1([H])C([H])([H])[H]


 39 42  0  0  0  0  0  0  0  0999 V2000
  153.4066  136.2738  183.3629 C   0  0  0  0  0  0  0  0  0  0  0  0
  153.3196  137.4240  184.3298 C   0  0  0  0  0  0  0  0  0  0  0  0
  151.9388  138.0487  183.9730 C   0  0  0  0  0  0  0  0  0  0  0  0
  152.1336  138.6614  182.6462 C   0  0  0  0  0  0  0  0  0  0  0  0
  153.3612  139.1548  182.2861 C   0  0  0  0  0  0  0  0  0  0  0  0
  153.2103  139.6369  181.0328 N   0  0  0  0  0  0  0  0  0  0  0  0
  151.9595  139.4742  180.5876 C   0  0  0  0  0  0  0  0  0  0  0  0
  151.3000  139.7822  179.4122 C   0  0  0  0  0  0  0  0  0  0  0  0
  149.9672  139.4762  179.2552 C   0  0  0  0  0  0  0  0  0  0  0  0
  149.2451  138.8478  180.2753 C   0  0  0  0  0  0  0  0  0  0  0  0
  149.9283  138.5535  181.4334 C   0  0  0  0  0  0  0  0  0  0  0  0
  151.2587  138.8541  181.6021 C   0  0  0  0  0  0  0  0  0  0  0  0
  154.5650  139.1237  183.1668 C   0  0  0  0  0  0  0  0  0  0  0  0
  154.3403  138.3590  184.3534 N   0  0  0  0  0  0  0  0  0  0  0  0
  153.9655  140.0822  180.4714 H   0  0  0  0  0  0  0  0  0  0  0  0
  155.2170  140.4179  183.2815 C   0  0  0  0  0  0  0  0  0  0  0  0
  154.5287  141.5807  183.5535 C   0  0  0  0  0  0  0  0  0  0  0  0
  153.2131  141.5185  183.7144 F   0  0  0  0  0  0  0  0  0  0  0  0
  155.1598  142.8071  183.6644 C   0  0  0  0  0  0  0  0  0  0  0  0
  156.4928  142.8747  183.5019 N   0  0  0  0  0  0  0  0  0  0  0  0
  157.2399  141.7911  183.2346 C   0  0  0  0  0  0  0  0  0  0  0  0
  156.5916  140.5717  183.1271 C   0  0  0  0  0  0  0  0  0  0  0  0
  157.3813  139.4996  182.8549 F   0  0  0  0  0  0  0  0  0  0  0  0
  158.5928  141.9190  183.0798 O   0  0  0  0  0  0  0  0  0  0  0  0
  159.3251  143.0879  182.8843 C   0  0  0  0  0  0  0  0  0  0  0  0
  160.0076  143.6262  184.0934 C   0  0  0  0  0  0  0  0  0  0  0  0
  160.3856  142.5835  185.0318 N   0  0  0  0  0  0  0  0  0  0  0  0
  159.7634  142.5028  185.8444 H   0  0  0  0  0  0  0  0  0  0  0  0
  161.7756  142.6159  185.3824 C   0  0  0  0  0  0  0  0  0  0  0  0
  162.0001  142.8752  186.8512 C   0  0  0  0  0  0  0  0  0  0  0  0
  163.3774  142.5091  187.3204 C   0  0  0  0  0  0  0  0  0  0  0  0
  163.4238  142.1136  188.6384 F   0  0  0  0  0  0  0  0  0  0  0  0
  155.1781  138.6089  185.4130 C   0  0  0  0  0  0  0  0  0  0  0  0
  155.1630  138.0069  186.7347 C   0  0  0  0  0  0  0  0  0  0  0  0
  155.3768  136.6290  186.7524 F   0  0  0  0  0  0  0  0  0  0  0  0
  156.3842  138.4201  187.4333 F   0  0  0  0  0  0  0  0  0  0  0  0
  154.1244  138.3282  187.7423 C   0  0  0  0  0  0  0  0  0  0  0  0
  154.2656  137.8995  189.0183 O   0  0  0  0  0  0  0  0  0  0  0  0
  154.7328  138.5508  189.5917 H   0  0  0  0  0  0  0  0  0  0  0  0
  1  2  1  0  0  0
  2  3  1  0  0  0
  3  4  1  0  0  0
  4  5  2  0  0  0
  5  6  1  0  0  0
  6  7  1  0  0  0
  7  8  2  0  0  0
  8  9  1  0  0  0
  9 10  2  0  0  0
 10 11  1  0  0  0
 11 12  2  0  0  0
  5 13  1  0  0  0
 13 16  1  0  0  0
 16 17  2  0  0  0
 17 18  1  0  0  0
 17 19  1  0  0  0
 19 20  2  0  0  0
 20 21  1  0  0  0
 21 24  1  0  0  0
 24 25  1  0  0  0
 25 26  1  0  0  0
 26 27  1  0  0  0
 27 29  1  0  0  0
 29 30  1  0  0  0
 30 31  1  0  0  0
 31 32  1  0  0  0
 21 22  2  0  0  0
 22 23  1  0  0  0
 13 14  1  0  0  0
 14 33  1  0  0  0
 33 34  1  0  0  0
 34 35  1  0  0  0
 34 36  1  0  0  0
 34 37  1  0  0  0
 37 38  1  0  0  0
 14  2  1  0  0  0
 12  4  1  0  0  0
 22 16  1  0  0  0
 12  7  1  0  0  0
  6 15  1  0  0  0
 27 28  1  0  0  0
 38 39  1  0  0  0
M  END
> <minimizedAffinity>
-7.68935

> <CNNscore>
0.3178733587

> <CNNaffinity>
6.9744949341

> <CNN_VS>
2.2170062065

> <CNNaffinity_variance>
0.0517779998

$$$$
[H]OC([H])([H])C(F)(F)C([H])([H])N1[C@]([H])(c2c(F)c([H])nc(OC([H])([H])C([H])([H])N([H])C([H])([H])C([H])([H])C([H])([H])F)c2F)c2c(c3c([H])c([H])c([H])c([H])c3n2[H])C([H])([H])[C@@]1([H])C([H])([H])[H]


 39 42  0  0  0  0  0  0  0  0999 V2000
  156.2352  136.7907  188.6396 C   0  0  0  0  0  0  0  0  0  0  0  0
  155.3273  137.7090  187.8666 C   0  0  0  0  0  0  0  0  0  0  0  0
  154.4344  138.3108  188.9913 C   0  0  0  0  0  0  0  0  0  0  0  0
  153.5818  137.1926  189.4345 C   0  0  0  0  0  0  0  0  0  0  0  0
  153.2159  136.2098  188.5511 C   0  0  0  0  0  0  0  0  0  0  0  0
  152.4520  135.3471  189.2567 N   0  0  0  0  0  0  0  0  0  0  0  0
  152.3181  135.7328  190.5305 C   0  0  0  0  0  0  0  0  0  0  0  0
  151.6608  135.2234  191.6348 C   0  0  0  0  0  0  0  0  0  0  0  0
  151.7158  135.8750  192.8460 C   0  0  0  0  0  0  0  0  0  0  0  0
  152.4349  137.0658  192.9937 C   0  0  0  0  0  0  0  0  0  0  0  0
  153.0789  137.5486  191.8771 C   0  0  0  0  0  0  0  0  0  0  0  0
  153.0313  136.9072  190.6626 C   0  0  0  0  0  0  0  0  0  0  0  0
  153.6253  136.1815  187.1167 C   0  0  0  0  0  0  0  0  0  0  0  0
  154.5889  137.1933  186.8152 N   0  0  0  0  0  0  0  0  0  0  0  0
  152.0155  134.4848  188.8698 H   0  0  0  0  0  0  0  0  0  0  0  0
  152.5044  135.9907  186.2110 C   0  0  0  0  0  0  0  0  0  0  0  0
  152.4144  134.9203  185.3474 C   0  0  0  0  0  0  0  0  0  0  0  0
  153.3944  134.0258  185.3385 F   0  0  0  0  0  0  0  0  0  0  0  0
  151.3409  134.7462  184.4919 C   0  0  0  0  0  0  0  0  0  0  0  0
  150.3456  135.6502  184.4976 N   0  0  0  0  0  0  0  0  0  0  0  0
  150.3534  136.7222  185.3065 C   0  0  0  0  0  0  0  0  0  0  0  0
  151.4357  136.8807  186.1564 C   0  0  0  0  0  0  0  0  0  0  0  0
  151.4075  137.9777  186.9582 F   0  0  0  0  0  0  0  0  0  0  0  0
  149.3130  137.6094  185.2701 O   0  0  0  0  0  0  0  0  0  0  0  0
  148.0883  137.5195  185.9277 C   0  0  0  0  0  0  0  0  0  0  0  0
  147.0690  136.6566  185.2689 C   0  0  0  0  0  0  0  0  0  0  0  0
  147.3685  136.4081  183.8692 N   0  0  0  0  0  0  0  0  0  0  0  0
  148.3571  136.2063  183.6797 H   0  0  0  0  0  0  0  0  0  0  0  0
  146.8115  137.3933  182.9888 C   0  0  0  0  0  0  0  0  0  0  0  0
  147.8333  137.9744  182.0437 C   0  0  0  0  0  0  0  0  0  0  0  0
  148.0164  139.4557  182.1965 C   0  0  0  0  0  0  0  0  0  0  0  0
  147.9038  139.8939  183.4969 F   0  0  0  0  0  0  0  0  0  0  0  0
  154.7108  137.5512  185.4945 C   0  0  0  0  0  0  0  0  0  0  0  0
  154.2999  138.7889  184.8552 C   0  0  0  0  0  0  0  0  0  0  0  0
  153.5339  139.6350  185.6565 F   0  0  0  0  0  0  0  0  0  0  0  0
  155.4849  139.6418  184.7182 F   0  0  0  0  0  0  0  0  0  0  0  0
  153.7487  138.8279  183.4798 C   0  0  0  0  0  0  0  0  0  0  0  0
  152.8819  137.8717  183.0719 O   0  0  0  0  0  0  0  0  0  0  0  0
  151.9406  138.1127  183.2366 H   0  0  0  0  0  0  0  0  0  0  0  0
  1  2  1  0  0  0
  2  3  1  0  0  0
  3  4  1  0  0  0
  4  5  2  0  0  0
  5  6  1  0  0  0
  6  7  1  0  0  0
  7  8  2  0  0  0
  8  9  1  0  0  0
  9 10  2  0  0  0
 10 11  1  0  0  0
 11 12  2  0  0  0
  5 13  1  0  0  0
 13 16  1  0  0  0
 16 17  2  0  0  0
 17 18  1  0  0  0
 17 19  1  0  0  0
 19 20  2  0  0  0
 20 21  1  0  0  0
 21 24  1  0  0  0
 24 25  1  0  0  0
 25 26  1  0  0  0
 26 27  1  0  0  0
 27 29  1  0  0  0
 29 30  1  0  0  0
 30 31  1  0  0  0
 31 32  1  0  0  0
 21 22  2  0  0  0
 22 23  1  0  0  0
 13 14  1  0  0  0
 14 33  1  0  0  0
 33 34  1  0  0  0
 34 35  1  0  0  0
 34 36  1  0  0  0
 34 37  1  0  0  0
 37 38  1  0  0  0
 14  2  1  0  0  0
 12  4  1  0  0  0
 22 16  1  0  0  0
 12  7  1  0  0  0
  6 15  1  0  0  0
 27 28  1  0  0  0
 38 39  1  0  0  0
M  END
> <minimizedAffinity>
-5.04150

> <CNNscore>
0.2854935229

> <CNNaffinity>
6.0008153915

> <CNN_VS>
1.7131938934

> <CNNaffinity_variance>
0.0815265328

$$$$
[H]OC([H])([H])C(F)(F)C([H])([H])N1[C@]([H])(c2c(F)c([H])nc(OC([H])([H])C([H])([H])N([H])C([H])([H])C([H])([H])C([H])([H])F)c2F)c2c(c3c([H])c([H])c([H])c([H])c3n2[H])C([H])([H])[C@@]1([H])C([H])([H])[H]


 39 42  0  0  0  0  0  0  0  0999 V2000
  154.8967  138.3210  185.4535 C   0  0  0  0  0  0  0  0  0  0  0  0
  153.4216  138.3865  185.7449 C   0  0  0  0  0  0  0  0  0  0  0  0
  153.4010  138.8441  187.2329 C   0  0  0  0  0  0  0  0  0  0  0  0
  153.9027  137.6835  187.9912 C   0  0  0  0  0  0  0  0  0  0  0  0
  153.6796  136.4102  187.5342 C   0  0  0  0  0  0  0  0  0  0  0  0
  154.2583  135.5887  188.4377 N   0  0  0  0  0  0  0  0  0  0  0  0
  154.8303  136.2738  189.4339 C   0  0  0  0  0  0  0  0  0  0  0  0
  155.5313  135.9260  190.5736 C   0  0  0  0  0  0  0  0  0  0  0  0
  156.0059  136.8952  191.4280 C   0  0  0  0  0  0  0  0  0  0  0  0
  155.7938  138.2534  191.1691 C   0  0  0  0  0  0  0  0  0  0  0  0
  155.0930  138.5691  190.0272 C   0  0  0  0  0  0  0  0  0  0  0  0
  154.6141  137.6106  189.1666 C   0  0  0  0  0  0  0  0  0  0  0  0
  152.9359  136.0910  186.2809 C   0  0  0  0  0  0  0  0  0  0  0  0
  152.6428  137.2644  185.5190 N   0  0  0  0  0  0  0  0  0  0  0  0
  154.2657  134.5494  188.3781 H   0  0  0  0  0  0  0  0  0  0  0  0
  151.8858  135.1058  186.4802 C   0  0  0  0  0  0  0  0  0  0  0  0
  151.9335  133.8410  185.9346 C   0  0  0  0  0  0  0  0  0  0  0  0
  152.9812  133.5075  185.1919 F   0  0  0  0  0  0  0  0  0  0  0  0
  150.9300  132.9094  186.1338 C   0  0  0  0  0  0  0  0  0  0  0  0
  149.8664  133.2431  186.8857 N   0  0  0  0  0  0  0  0  0  0  0  0
  149.7398  134.4532  187.4543 C   0  0  0  0  0  0  0  0  0  0  0  0
  150.7537  135.3734  187.2444 C   0  0  0  0  0  0  0  0  0  0  0  0
  150.5886  136.5862  187.8351 F   0  0  0  0  0  0  0  0  0  0  0  0
  148.6358  134.7375  188.2101 O   0  0  0  0  0  0  0  0  0  0  0  0
  147.3076  134.8011  187.7948 C   0  0  0  0  0  0  0  0  0  0  0  0
  147.0078  135.8316  186.7623 C   0  0  0  0  0  0  0  0  0  0  0  0
  147.1196  137.1858  187.2763 N   0  0  0  0  0  0  0  0  0  0  0  0
  146.2205  137.6677  187.3918 H   0  0  0  0  0  0  0  0  0  0  0  0
  148.1005  137.9723  186.5870 C   0  0  0  0  0  0  0  0  0  0  0  0
  147.7847  138.1447  185.1222 C   0  0  0  0  0  0  0  0  0  0  0  0
  146.8114  139.2526  184.8457 C   0  0  0  0  0  0  0  0  0  0  0  0
  147.4132  140.4642  184.5899 F   0  0  0  0  0  0  0  0  0  0  0  0
  151.6188  137.1656  184.6086 C   0  0  0  0  0  0  0  0  0  0  0  0
  151.6998  137.1640  183.1585 C   0  0  0  0  0  0  0  0  0  0  0  0
  152.9638  137.4492  182.6429 F   0  0  0  0  0  0  0  0  0  0  0  0
  151.5929  135.7746  182.7017 F   0  0  0  0  0  0  0  0  0  0  0  0
  150.6890  137.8329  182.3053 C   0  0  0  0  0  0  0  0  0  0  0  0
  150.7587  137.7176  180.9586 O   0  0  0  0  0  0  0  0  0  0  0  0
  150.2448  136.9511  180.6127 H   0  0  0  0  0  0  0  0  0  0  0  0
  1  2  1  0  0  0
  2  3  1  0  0  0
  3  4  1  0  0  0
  4  5  2  0  0  0
  5  6  1  0  0  0
  6  7  1  0  0  0
  7  8  2  0  0  0
  8  9  1  0  0  0
  9 10  2  0  0  0
 10 11  1  0  0  0
 11 12  2  0  0  0
  5 13  1  0  0  0
 13 16  1  0  0  0
 16 17  2  0  0  0
 17 18  1  0  0  0
 17 19  1  0  0  0
 19 20  2  0  0  0
 20 21  1  0  0  0
 21 24  1  0  0  0
 24 25  1  0  0  0
 25 26  1  0  0  0
 26 27  1  0  0  0
 27 29  1  0  0  0
 29 30  1  0  0  0
 30 31  1  0  0  0
 31 32  1  0  0  0
 21 22  2  0  0  0
 22 23  1  0  0  0
 13 14  1  0  0  0
 14 33  1  0  0  0
 33 34  1  0  0  0
 34 35  1  0  0  0
 34 36  1  0  0  0
 34 37  1  0  0  0
 37 38  1  0  0  0
 14  2  1  0  0  0
 12  4  1  0  0  0
 22 16  1  0  0  0
 12  7  1  0  0  0
  6 15  1  0  0  0
 27 28  1  0  0  0
 38 39  1  0  0  0
M  END
> <minimizedAffinity>
-5.18666

> <CNNscore>
0.2495127767

> <CNNaffinity>
6.0130610466

> <CNN_VS>
1.5003355742

> <CNNaffinity_variance>
0.0182955619

$$$$
[H]OC([H])([H])C(F)(F)C([H])([H])N1[C@]([H])(c2c(F)c([H])nc(OC([H])([H])C([H])([H])N([H])C([H])([H])C([H])([H])C([H])([H])F)c2F)c2c(c3c([H])c([H])c([H])c([H])c3n2[H])C([H])([H])[C@@]1([H])C([H])([H])[H]


 39 42  0  0  0  0  0  0  0  0999 V2000
  154.6693  138.2975  185.5259 C   0  0  0  0  0  0  0  0  0  0  0  0
  153.2023  138.2892  185.8622 C   0  0  0  0  0  0  0  0  0  0  0  0
  153.2016  138.7804  187.3396 C   0  0  0  0  0  0  0  0  0  0  0  0
  153.7896  137.6673  188.1072 C   0  0  0  0  0  0  0  0  0  0  0  0
  153.6235  136.3731  187.6856 C   0  0  0  0  0  0  0  0  0  0  0  0
  154.2738  135.6062  188.5883 N   0  0  0  0  0  0  0  0  0  0  0  0
  154.8371  136.3451  189.5506 C   0  0  0  0  0  0  0  0  0  0  0  0
  155.5904  136.0633  190.6750 C   0  0  0  0  0  0  0  0  0  0  0  0
  156.0364  137.0770  191.4923 C   0  0  0  0  0  0  0  0  0  0  0  0
  155.7417  138.4151  191.2103 C   0  0  0  0  0  0  0  0  0  0  0  0
  154.9902  138.6647  190.0844 C   0  0  0  0  0  0  0  0  0  0  0  0
  154.5392  137.6613  189.2608 C   0  0  0  0  0  0  0  0  0  0  0  0
  152.8609  135.9841  186.4639 C   0  0  0  0  0  0  0  0  0  0  0  0
  152.4803  137.1212  185.6859 N   0  0  0  0  0  0  0  0  0  0  0  0
  154.3369  134.5678  188.5516 H   0  0  0  0  0  0  0  0  0  0  0  0
  151.8734  134.9480  186.7180 C   0  0  0  0  0  0  0  0  0  0  0  0
  151.9298  133.7013  186.1330 C   0  0  0  0  0  0  0  0  0  0  0  0
  152.9263  133.4346  185.2984 F   0  0  0  0  0  0  0  0  0  0  0  0
  150.9865  132.7208  186.3848 C   0  0  0  0  0  0  0  0  0  0  0  0
  149.9749  132.9868  187.2297 N   0  0  0  0  0  0  0  0  0  0  0  0
  149.8442  134.1748  187.8425 C   0  0  0  0  0  0  0  0  0  0  0  0
  150.7975  135.1446  187.5788 C   0  0  0  0  0  0  0  0  0  0  0  0
  150.6301  136.3329  188.2166 F   0  0  0  0  0  0  0  0  0  0  0  0
  148.7948  134.3895  188.6931 O   0  0  0  0  0  0  0  0  0  0  0  0
  148.6433  133.9277  189.9986 C   0  0  0  0  0  0  0  0  0  0  0  0
  149.4096  134.6733  191.0352 C   0  0  0  0  0  0  0  0  0  0  0  0
  150.7174  134.0932  191.2876 N   0  0  0  0  0  0  0  0  0  0  0  0
  150.7478  133.4587  192.0941 H   0  0  0  0  0  0  0  0  0  0  0  0
  151.7746  135.0619  191.2874 C   0  0  0  0  0  0  0  0  0  0  0  0
  151.2695  136.4755  191.4343 C   0  0  0  0  0  0  0  0  0  0  0  0
  151.6718  137.1242  192.7260 C   0  0  0  0  0  0  0  0  0  0  0  0
  152.9414  137.6564  192.7037 F   0  0  0  0  0  0  0  0  0  0  0  0
  151.4361  136.9450  184.8107 C   0  0  0  0  0  0  0  0  0  0  0  0
  151.4579  137.0014  183.3596 C   0  0  0  0  0  0  0  0  0  0  0  0
  150.2614  136.6384  182.7420 F   0  0  0  0  0  0  0  0  0  0  0  0
  151.4817  138.4129  182.9626 F   0  0  0  0  0  0  0  0  0  0  0  0
  152.5783  136.4518  182.5597 C   0  0  0  0  0  0  0  0  0  0  0  0
  153.5334  135.7037  183.1596 O   0  0  0  0  0  0  0  0  0  0  0  0
  153.3256  134.7404  183.1532 H   0  0  0  0  0  0  0  0  0  0  0  0
  1  2  1  0  0  0
  2  3  1  0  0  0
  3  4  1  0  0  0
  4  5  2  0  0  0
  5  6  1  0  0  0
  6  7  1  0  0  0
  7  8  2  0  0  0
  8  9  1  0  0  0
  9 10  2  0  0  0
 10 11  1  0  0  0
 11 12  2  0  0  0
  5 13  1  0  0  0
 13 16  1  0  0  0
 16 17  2  0  0  0
 17 18  1  0  0  0
 17 19  1  0  0  0
 19 20  2  0  0  0
 20 21  1  0  0  0
 21 24  1  0  0  0
 24 25  1  0  0  0
 25 26  1  0  0  0
 26 27  1  0  0  0
 27 29  1  0  0  0
 29 30  1  0  0  0
 30 31  1  0  0  0
 31 32  1  0  0  0
 21 22  2  0  0  0
 22 23  1  0  0  0
 13 14  1  0  0  0
 14 33  1  0  0  0
 33 34  1  0  0  0
 34 35  1  0  0  0
 34 36  1  0  0  0
 34 37  1  0  0  0
 37 38  1  0  0  0
 14  2  1  0  0  0
 12  4  1  0  0  0
 22 16  1  0  0  0
 12  7  1  0  0  0
  6 15  1  0  0  0
 27 28  1  0  0  0
 38 39  1  0  0  0
M  END
> <minimizedAffinity>
-5.05824

> <CNNscore>
0.2468668669

> <CNNaffinity>
5.8348464966

> <CNN_VS>
1.4404302835

> <CNNaffinity_variance>
0.1439745873

$$$$
[H]OC([H])([H])C(F)(F)C([H])([H])N1[C@]([H])(c2c(F)c([H])nc(OC([H])([H])C([H])([H])N([H])C([H])([H])C([H])([H])C([H])([H])F)c2F)c2c(c3c([H])c([H])c([H])c([H])c3n2[H])C([H])([H])[C@@]1([H])C([H])([H])[H]


 39 42  0  0  0  0  0  0  0  0999 V2000
  156.4740  138.0626  190.7190 C   0  0  0  0  0  0  0  0  0  0  0  0
  155.5225  138.1472  189.5559 C   0  0  0  0  0  0  0  0  0  0  0  0
  154.1389  138.2065  190.2675 C   0  0  0  0  0  0  0  0  0  0  0  0
  153.9495  136.8595  190.8362 C   0  0  0  0  0  0  0  0  0  0  0  0
  154.4927  135.7642  190.2154 C   0  0  0  0  0  0  0  0  0  0  0  0
  154.1465  134.7017  190.9751 N   0  0  0  0  0  0  0  0  0  0  0  0
  153.4179  135.0682  192.0353 C   0  0  0  0  0  0  0  0  0  0  0  0
  152.8308  134.3935  193.0895 C   0  0  0  0  0  0  0  0  0  0  0  0
  152.1227  135.0767  194.0519 C   0  0  0  0  0  0  0  0  0  0  0  0
  151.9772  136.4667  193.9914 C   0  0  0  0  0  0  0  0  0  0  0  0
  152.5726  137.1109  192.9307 C   0  0  0  0  0  0  0  0  0  0  0  0
  153.2819  136.4399  191.9636 C   0  0  0  0  0  0  0  0  0  0  0  0
  155.2903  135.8280  188.9562 C   0  0  0  0  0  0  0  0  0  0  0  0
  155.5775  137.1745  188.5723 N   0  0  0  0  0  0  0  0  0  0  0  0
  154.4079  133.7146  190.7724 H   0  0  0  0  0  0  0  0  0  0  0  0
  154.8250  134.8955  187.9427 C   0  0  0  0  0  0  0  0  0  0  0  0
  153.5146  134.8444  187.5186 C   0  0  0  0  0  0  0  0  0  0  0  0
  152.6373  135.6795  188.0605 F   0  0  0  0  0  0  0  0  0  0  0  0
  153.0830  133.9553  186.5502 C   0  0  0  0  0  0  0  0  0  0  0  0
  153.9685  133.1072  185.9984 N   0  0  0  0  0  0  0  0  0  0  0  0
  155.2637  133.0897  186.3532 C   0  0  0  0  0  0  0  0  0  0  0  0
  155.6783  133.9865  187.3241 C   0  0  0  0  0  0  0  0  0  0  0  0
  156.9952  133.9373  187.6565 F   0  0  0  0  0  0  0  0  0  0  0  0
  156.1202  132.2052  185.7576 O   0  0  0  0  0  0  0  0  0  0  0  0
  156.0661  131.7041  184.4589 C   0  0  0  0  0  0  0  0  0  0  0  0
  156.2129  132.7150  183.3754 C   0  0  0  0  0  0  0  0  0  0  0  0
  154.9428  133.0663  182.7638 N   0  0  0  0  0  0  0  0  0  0  0  0
  154.8027  132.6700  181.8272 H   0  0  0  0  0  0  0  0  0  0  0  0
  154.6493  134.4680  182.8366 C   0  0  0  0  0  0  0  0  0  0  0  0
  153.1687  134.7513  182.8875 C   0  0  0  0  0  0  0  0  0  0  0  0
  152.8246  136.1883  182.6271 C   0  0  0  0  0  0  0  0  0  0  0  0
  152.8306  136.5234  181.2917 F   0  0  0  0  0  0  0  0  0  0  0  0
  155.9050  137.3808  187.2542 C   0  0  0  0  0  0  0  0  0  0  0  0
  155.0906  137.9690  186.2052 C   0  0  0  0  0  0  0  0  0  0  0  0
  155.7518  138.8988  185.4032 F   0  0  0  0  0  0  0  0  0  0  0  0
  154.8540  136.9408  185.1868 F   0  0  0  0  0  0  0  0  0  0  0  0
  153.7146  138.4629  186.4500 C   0  0  0  0  0  0  0  0  0  0  0  0
  152.6640  137.8652  185.8411 O   0  0  0  0  0  0  0  0  0  0  0  0
  152.2771  137.1333  186.3757 H   0  0  0  0  0  0  0  0  0  0  0  0
  1  2  1  0  0  0
  2  3  1  0  0  0
  3  4  1  0  0  0
  4  5  2  0  0  0
  5  6  1  0  0  0
  6  7  1  0  0  0
  7  8  2  0  0  0
  8  9  1  0  0  0
  9 10  2  0  0  0
 10 11  1  0  0  0
 11 12  2  0  0  0
  5 13  1  0  0  0
 13 16  1  0  0  0
 16 17  2  0  0  0
 17 18  1  0  0  0
 17 19  1  0  0  0
 19 20  2  0  0  0
 20 21  1  0  0  0
 21 24  1  0  0  0
 24 25  1  0  0  0
 25 26  1  0  0  0
 26 27  1  0  0  0
 27 29  1  0  0  0
 29 30  1  0  0  0
 30 31  1  0  0  0
 31 32  1  0  0  0
 21 22  2  0  0  0
 22 23  1  0  0  0
 13 14  1  0  0  0
 14 33  1  0  0  0
 33 34  1  0  0  0
 34 35  1  0  0  0
 34 36  1  0  0  0
 34 37  1  0  0  0
 37 38  1  0  0  0
 14  2  1  0  0  0
 12  4  1  0  0  0
 22 16  1  0  0  0
 12  7  1  0  0  0
  6 15  1  0  0  0
 27 28  1  0  0  0
 38 39  1  0  0  0
M  END
> <minimizedAffinity>
-4.97573

> <CNNscore>
0.2331253886

> <CNNaffinity>
5.8030710220

> <CNN_VS>
1.3528431654

> <CNNaffinity_variance>
0.1070527881

$$$$
[H]OC([H])([H])C(F)(F)C([H])([H])N1[C@]([H])(c2c(F)c([H])nc(OC([H])([H])C([H])([H])N([H])C([H])([H])C([H])([H])C([H])([H])F)c2F)c2c(c3c([H])c([H])c([H])c([H])c3n2[H])C([H])([H])[C@@]1([H])C([H])([H])[H]


 39 42  0  0  0  0  0  0  0  0999 V2000
  156.1650  136.9517  189.0694 C   0  0  0  0  0  0  0  0  0  0  0  0
  155.2025  137.7339  188.2167 C   0  0  0  0  0  0  0  0  0  0  0  0
  154.2143  138.3042  189.2761 C   0  0  0  0  0  0  0  0  0  0  0  0
  153.4571  137.1330  189.7543 C   0  0  0  0  0  0  0  0  0  0  0  0
  153.2211  136.0733  188.9167 C   0  0  0  0  0  0  0  0  0  0  0  0
  152.5177  135.1786  189.6452 N   0  0  0  0  0  0  0  0  0  0  0  0
  152.2995  135.6168  190.8900 C   0  0  0  0  0  0  0  0  0  0  0  0
  151.6532  135.1048  191.9998 C   0  0  0  0  0  0  0  0  0  0  0  0
  151.5997  135.8224  193.1731 C   0  0  0  0  0  0  0  0  0  0  0  0
  152.1948  137.0842  193.2762 C   0  0  0  0  0  0  0  0  0  0  0  0
  152.8309  137.5676  192.1553 C   0  0  0  0  0  0  0  0  0  0  0  0
  152.8909  136.8608  190.9783 C   0  0  0  0  0  0  0  0  0  0  0  0
  153.6849  136.0089  187.5003 C   0  0  0  0  0  0  0  0  0  0  0  0
  154.5573  137.0929  187.1730 N   0  0  0  0  0  0  0  0  0  0  0  0
  152.1811  134.2583  189.2939 H   0  0  0  0  0  0  0  0  0  0  0  0
  152.6224  135.6610  186.5711 C   0  0  0  0  0  0  0  0  0  0  0  0
  152.5910  134.4665  185.8842 C   0  0  0  0  0  0  0  0  0  0  0  0
  153.5744  133.5965  186.0753 F   0  0  0  0  0  0  0  0  0  0  0  0
  151.5726  134.1437  185.0047 C   0  0  0  0  0  0  0  0  0  0  0  0
  150.5741  135.0224  184.8080 N   0  0  0  0  0  0  0  0  0  0  0  0
  150.5268  136.2086  185.4360 C   0  0  0  0  0  0  0  0  0  0  0  0
  151.5544  136.5152  186.3128 C   0  0  0  0  0  0  0  0  0  0  0  0
  151.4714  137.7244  186.9277 F   0  0  0  0  0  0  0  0  0  0  0  0
  149.4859  137.0633  185.1977 O   0  0  0  0  0  0  0  0  0  0  0  0
  148.1246  136.7683  185.1739 C   0  0  0  0  0  0  0  0  0  0  0  0
  147.2579  137.6772  185.9741 C   0  0  0  0  0  0  0  0  0  0  0  0
  147.6653  137.7545  187.3665 N   0  0  0  0  0  0  0  0  0  0  0  0
  148.6181  138.1099  187.5071 H   0  0  0  0  0  0  0  0  0  0  0  0
  147.3930  136.5542  188.1021 C   0  0  0  0  0  0  0  0  0  0  0  0
  148.6431  135.9058  188.6425 C   0  0  0  0  0  0  0  0  0  0  0  0
  148.7769  134.4589  188.2687 C   0  0  0  0  0  0  0  0  0  0  0  0
  150.0806  134.0542  188.0891 F   0  0  0  0  0  0  0  0  0  0  0  0
  154.6938  137.3901  185.8388 C   0  0  0  0  0  0  0  0  0  0  0  0
  154.3971  138.6391  185.1593 C   0  0  0  0  0  0  0  0  0  0  0  0
  153.5710  139.5096  185.8697 F   0  0  0  0  0  0  0  0  0  0  0  0
  155.6157  139.4547  185.1607 F   0  0  0  0  0  0  0  0  0  0  0  0
  154.0082  138.6932  183.7300 C   0  0  0  0  0  0  0  0  0  0  0  0
  153.5047  139.8368  183.2097 O   0  0  0  0  0  0  0  0  0  0  0  0
  154.1999  140.4241  182.8317 H   0  0  0  0  0  0  0  0  0  0  0  0
  1  2  1  0  0  0
  2  3  1  0  0  0
  3  4  1  0  0  0
  4  5  2  0  0  0
  5  6  1  0  0  0
  6  7  1  0  0  0
  7  8  2  0  0  0
  8  9  1  0  0  0
  9 10  2  0  0  0
 10 11  1  0  0  0
 11 12  2  0  0  0
  5 13  1  0  0  0
 13 16  1  0  0  0
 16 17  2  0  0  0
 17 18  1  0  0  0
 17 19  1  0  0  0
 19 20  2  0  0  0
 20 21  1  0  0  0
 21 24  1  0  0  0
 24 25  1  0  0  0
 25 26  1  0  0  0
 26 27  1  0  0  0
 27 29  1  0  0  0
 29 30  1  0  0  0
 30 31  1  0  0  0
 31 32  1  0  0  0
 21 22  2  0  0  0
 22 23  1  0  0  0
 13 14  1  0  0  0
 14 33  1  0  0  0
 33 34  1  0  0  0
 34 35  1  0  0  0
 34 36  1  0  0  0
 34 37  1  0  0  0
 37 38  1  0  0  0
 14  2  1  0  0  0
 12  4  1  0  0  0
 22 16  1  0  0  0
 12  7  1  0  0  0
  6 15  1  0  0  0
 27 28  1  0  0  0
 38 39  1  0  0  0
M  END
> <minimizedAffinity>
-4.98874

> <CNNscore>
0.2234966755

> <CNNaffinity>
5.9175925255

> <CNN_VS>
1.3225622177

> <CNNaffinity_variance>
0.1977348775

$$$$
[H]c1c([H])c(C([H])(C(=O)N([H])C([H])([H])c2c([H])c([H])c(C(F)(F)F)c([H])c2C2([H])C([H])([H])C([H])([H])C([H])([H])C([H])([H])C2([H])[H])C([H])([H])[H])c([H])c(F)c1N([H])S(=O)(=O)C([H])([H])[H]


 36 38  0  0  0  0  0  0  0  0999 V2000
  154.1647  140.1891  183.9336 C   0  0  0  0  0  0  0  0  0  0  0  0
  153.4857  139.4801  184.4181 O   0  0  0  0  0  0  0  0  0  0  0  0
  155.2410  141.0835  183.9751 N   0  0  0  0  0  0  0  0  0  0  0  0
  155.4592  140.7569  185.3222 H   0  0  0  0  0  0  0  0  0  0  0  0
  153.5018  141.8994  182.5195 C   0  0  0  0  0  0  0  0  0  0  0  0
  154.0335  140.4641  182.2954 C   0  0  0  0  0  0  0  0  0  0  0  0
  153.0054  139.6433  181.7636 C   0  0  0  0  0  0  0  0  0  0  0  0
  152.6378  138.4698  182.2861 C   0  0  0  0  0  0  0  0  0  0  0  0
  151.5956  137.7536  181.8786 C   0  0  0  0  0  0  0  0  0  0  0  0
  150.8073  138.2583  180.7653 C   0  0  0  0  0  0  0  0  0  0  0  0
  151.1791  139.3990  180.2439 C   0  0  0  0  0  0  0  0  0  0  0  0
  150.4915  139.8177  179.0952 F   0  0  0  0  0  0  0  0  0  0  0  0
  152.2365  140.1804  180.6587 C   0  0  0  0  0  0  0  0  0  0  0  0
  149.6171  137.5108  180.6780 N   0  0  0  0  0  0  0  0  0  0  0  0
  149.8728  136.4566  180.3339 H   0  0  0  0  0  0  0  0  0  0  0  0
  148.0348  137.7720  181.0512 S   0  0  0  0  0  0  0  0  0  0  0  0
  147.7277  139.5143  181.3584 C   0  0  0  0  0  0  0  0  0  0  0  0
  147.5530  136.8562  182.1058 O   0  0  0  0  0  0  0  0  0  0  0  0
  147.2204  137.4852  179.7472 O   0  0  0  0  0  0  0  0  0  0  0  0
  156.2026  141.8808  184.0199 C   0  0  0  0  0  0  0  0  0  0  0  0
  157.6604  141.6699  184.2116 C   0  0  0  0  0  0  0  0  0  0  0  0
  158.3044  141.0530  185.2522 C   0  0  0  0  0  0  0  0  0  0  0  0
  159.6718  141.3343  185.5637 C   0  0  0  0  0  0  0  0  0  0  0  0
  160.2851  142.2166  184.7998 C   0  0  0  0  0  0  0  0  0  0  0  0
  159.6542  142.8653  183.7467 C   0  0  0  0  0  0  0  0  0  0  0  0
  158.3970  142.6112  183.4470 C   0  0  0  0  0  0  0  0  0  0  0  0
  157.6089  143.0272  182.2408 C   0  0  0  0  0  0  0  0  0  0  0  0
  157.3884  141.8035  181.3245 C   0  0  0  0  0  0  0  0  0  0  0  0
  158.5732  141.2206  180.7029 C   0  0  0  0  0  0  0  0  0  0  0  0
  159.3741  142.2553  179.9492 C   0  0  0  0  0  0  0  0  0  0  0  0
  158.7274  143.6147  180.0354 C   0  0  0  0  0  0  0  0  0  0  0  0
  158.3452  144.0595  181.4089 C   0  0  0  0  0  0  0  0  0  0  0  0
  161.6325  142.8295  185.2491 C   0  0  0  0  0  0  0  0  0  0  0  0
  162.7013  142.1812  184.9428 F   0  0  0  0  0  0  0  0  0  0  0  0
  161.4943  143.1207  186.5879 F   0  0  0  0  0  0  0  0  0  0  0  0
  161.6573  144.1172  184.6278 F   0  0  0  0  0  0  0  0  0  0  0  0
  5  6  1  0  0  0
  6  1  1  0  0  0
  1  2  2  0  0  0
  1  3  1  0  0  0
  3 20  1  0  0  0
 20 21  1  0  0  0
 21 22  2  0  0  0
 22 23  1  0  0  0
 23 24  2  0  0  0
 24 33  1  0  0  0
 33 34  1  0  0  0
 33 35  1  0  0  0
 33 36  1  0  0  0
 24 25  1  0  0  0
 25 26  2  0  0  0
 26 27  1  0  0  0
 27 28  1  0  0  0
 28 29  1  0  0  0
 29 30  1  0  0  0
 30 31  1  0  0  0
 31 32  1  0  0  0
  6  7  1  0  0  0
  7  8  2  0  0  0
  8  9  1  0  0  0
  9 10  2  0  0  0
 10 14  1  0  0  0
 14 16  1  0  0  0
 16 17  1  0  0  0
 16 18  2  0  0  0
 16 19  2  0  0  0
 10 11  1  0  0  0
 11 12  1  0  0  0
 11 13  2  0  0  0
 26 21  1  0  0  0
 32 27  1  0  0  0
 13  7  1  0  0  0
  3  4  1  0  0  0
 14 15  1  0  0  0
M  END
> <minimizedAffinity>
-9.68696

> <CNNscore>
0.5952886343

> <CNNaffinity>
7.1559386253

> <CNN_VS>
4.2598490715

> <CNNaffinity_variance>
0.0704915896

$$$$
[H]c1c([H])c(C([H])(C(=O)N([H])C([H])([H])c2c([H])c([H])c(C(F)(F)F)c([H])c2C2([H])C([H])([H])C([H])([H])C([H])([H])C([H])([H])C2([H])[H])C([H])([H])[H])c([H])c(F)c1N([H])S(=O)(=O)C([H])([H])[H]


 36 38  0  0  0  0  0  0  0  0999 V2000
  154.1140  140.1638  183.8632 C   0  0  0  0  0  0  0  0  0  0  0  0
  153.4310  139.4428  184.3235 O   0  0  0  0  0  0  0  0  0  0  0  0
  155.1952  141.0505  183.9349 N   0  0  0  0  0  0  0  0  0  0  0  0
  155.4109  140.6779  185.2704 H   0  0  0  0  0  0  0  0  0  0  0  0
  153.7183  141.9946  182.5009 C   0  0  0  0  0  0  0  0  0  0  0  0
  153.9851  140.4943  182.2350 C   0  0  0  0  0  0  0  0  0  0  0  0
  152.8148  139.8765  181.7231 C   0  0  0  0  0  0  0  0  0  0  0  0
  151.8785  140.5155  181.0157 C   0  0  0  0  0  0  0  0  0  0  0  0
  150.8461  139.9267  180.4218 C   0  0  0  0  0  0  0  0  0  0  0  0
  150.6971  138.4873  180.5690 C   0  0  0  0  0  0  0  0  0  0  0  0
  151.6054  137.8660  181.2762 C   0  0  0  0  0  0  0  0  0  0  0  0
  151.3885  136.5011  181.5163 F   0  0  0  0  0  0  0  0  0  0  0  0
  152.7024  138.4404  181.8822 C   0  0  0  0  0  0  0  0  0  0  0  0
  149.7251  138.0372  179.6548 N   0  0  0  0  0  0  0  0  0  0  0  0
  150.2511  137.5212  178.7876 H   0  0  0  0  0  0  0  0  0  0  0  0
  148.0796  137.9919  179.6159 S   0  0  0  0  0  0  0  0  0  0  0  0
  147.4804  137.9029  177.9256 C   0  0  0  0  0  0  0  0  0  0  0  0
  147.4737  139.0586  180.4395 O   0  0  0  0  0  0  0  0  0  0  0  0
  147.6615  136.6118  180.2214 O   0  0  0  0  0  0  0  0  0  0  0  0
  156.1611  141.8407  184.0067 C   0  0  0  0  0  0  0  0  0  0  0  0
  157.6187  141.6151  184.1823 C   0  0  0  0  0  0  0  0  0  0  0  0
  158.2688  141.0026  185.2217 C   0  0  0  0  0  0  0  0  0  0  0  0
  159.6432  141.2715  185.5126 C   0  0  0  0  0  0  0  0  0  0  0  0
  160.2568  142.1379  184.7309 C   0  0  0  0  0  0  0  0  0  0  0  0
  159.6199  142.7820  183.6785 C   0  0  0  0  0  0  0  0  0  0  0  0
  158.3562  142.5391  183.3978 C   0  0  0  0  0  0  0  0  0  0  0  0
  157.5575  142.9506  182.1970 C   0  0  0  0  0  0  0  0  0  0  0  0
  157.3445  141.7274  181.2782 C   0  0  0  0  0  0  0  0  0  0  0  0
  158.5319  141.1584  180.6486 C   0  0  0  0  0  0  0  0  0  0  0  0
  159.3183  142.2034  179.8938 C   0  0  0  0  0  0  0  0  0  0  0  0
  158.6583  143.5558  179.9874 C   0  0  0  0  0  0  0  0  0  0  0  0
  158.2788  143.9928  181.3643 C   0  0  0  0  0  0  0  0  0  0  0  0
  161.6168  142.7403  185.1561 C   0  0  0  0  0  0  0  0  0  0  0  0
  161.9414  142.6340  186.3970 F   0  0  0  0  0  0  0  0  0  0  0  0
  161.6404  144.0239  184.6582 F   0  0  0  0  0  0  0  0  0  0  0  0
  162.5743  142.0507  184.3485 F   0  0  0  0  0  0  0  0  0  0  0  0
  5  6  1  0  0  0
  6  1  1  0  0  0
  1  2  2  0  0  0
  1  3  1  0  0  0
  3 20  1  0  0  0
 20 21  1  0  0  0
 21 22  2  0  0  0
 22 23  1  0  0  0
 23 24  2  0  0  0
 24 33  1  0  0  0
 33 34  1  0  0  0
 33 35  1  0  0  0
 33 36  1  0  0  0
 24 25  1  0  0  0
 25 26  2  0  0  0
 26 27  1  0  0  0
 27 28  1  0  0  0
 28 29  1  0  0  0
 29 30  1  0  0  0
 30 31  1  0  0  0
 31 32  1  0  0  0
  6  7  1  0  0  0
  7  8  2  0  0  0
  8  9  1  0  0  0
  9 10  2  0  0  0
 10 14  1  0  0  0
 14 16  1  0  0  0
 16 17  1  0  0  0
 16 18  2  0  0  0
 16 19  2  0  0  0
 10 11  1  0  0  0
 11 12  1  0  0  0
 11 13  2  0  0  0
 26 21  1  0  0  0
 32 27  1  0  0  0
 13  7  1  0  0  0
  3  4  1  0  0  0
 14 15  1  0  0  0
M  END
> <minimizedAffinity>
-9.76099

> <CNNscore>
0.3775750399

> <CNNaffinity>
6.8933715820

> <CNN_VS>
2.6027650833

> <CNNaffinity_variance>
0.0602316186

$$$$
[H]c1c([H])c(C([H])(C(=O)N([H])C([H])([H])c2c([H])c([H])c(C(F)(F)F)c([H])c2C2([H])C([H])([H])C([H])([H])C([H])([H])C([H])([H])C2([H])[H])C([H])([H])[H])c([H])c(F)c1N([H])S(=O)(=O)C([H])([H])[H]


 36 38  0  0  0  0  0  0  0  0999 V2000
  154.0019  139.7486  183.6794 C   0  0  0  0  0  0  0  0  0  0  0  0
  152.9975  139.4696  183.3455 O   0  0  0  0  0  0  0  0  0  0  0  0
  155.0094  140.6997  183.8815 N   0  0  0  0  0  0  0  0  0  0  0  0
  154.1392  141.7119  183.4488 H   0  0  0  0  0  0  0  0  0  0  0  0
  154.2715  137.4494  183.6057 C   0  0  0  0  0  0  0  0  0  0  0  0
  154.9935  138.5932  184.3565 C   0  0  0  0  0  0  0  0  0  0  0  0
  154.7274  138.5045  185.7474 C   0  0  0  0  0  0  0  0  0  0  0  0
  153.5019  138.5322  186.2791 C   0  0  0  0  0  0  0  0  0  0  0  0
  153.2292  138.3213  187.5623 C   0  0  0  0  0  0  0  0  0  0  0  0
  154.3384  138.0701  188.4689 C   0  0  0  0  0  0  0  0  0  0  0  0
  155.5389  138.0605  187.9494 C   0  0  0  0  0  0  0  0  0  0  0  0
  156.6102  137.9407  188.8470 F   0  0  0  0  0  0  0  0  0  0  0  0
  155.8552  138.2477  186.6206 C   0  0  0  0  0  0  0  0  0  0  0  0
  153.8244  137.6064  189.6952 N   0  0  0  0  0  0  0  0  0  0  0  0
  152.8707  137.0196  189.4924 H   0  0  0  0  0  0  0  0  0  0  0  0
  154.3274  137.6248  191.2629 S   0  0  0  0  0  0  0  0  0  0  0  0
  155.6816  136.4729  191.5154 C   0  0  0  0  0  0  0  0  0  0  0  0
  153.2022  137.4853  192.2104 O   0  0  0  0  0  0  0  0  0  0  0  0
  154.9915  139.0212  191.4972 O   0  0  0  0  0  0  0  0  0  0  0  0
  155.9042  141.5543  184.0587 C   0  0  0  0  0  0  0  0  0  0  0  0
  157.3697  141.4303  184.2665 C   0  0  0  0  0  0  0  0  0  0  0  0
  158.0387  140.9252  185.3507 C   0  0  0  0  0  0  0  0  0  0  0  0
  159.3893  141.2959  185.6412 C   0  0  0  0  0  0  0  0  0  0  0  0
  159.9619  142.1480  184.8139 C   0  0  0  0  0  0  0  0  0  0  0  0
  159.3044  142.6846  183.7150 C   0  0  0  0  0  0  0  0  0  0  0  0
  158.0625  142.3472  183.4343 C   0  0  0  0  0  0  0  0  0  0  0  0
  157.2601  142.6329  182.2000 C   0  0  0  0  0  0  0  0  0  0  0  0
  157.2845  141.3967  181.2742 C   0  0  0  0  0  0  0  0  0  0  0  0
  158.5732  141.0282  180.6967 C   0  0  0  0  0  0  0  0  0  0  0  0
  159.2139  142.1898  179.9752 C   0  0  0  0  0  0  0  0  0  0  0  0
  158.3430  143.4189  180.0390 C   0  0  0  0  0  0  0  0  0  0  0  0
  157.8404  143.7817  181.3978 C   0  0  0  0  0  0  0  0  0  0  0  0
  161.2756  142.8584  185.2171 C   0  0  0  0  0  0  0  0  0  0  0  0
  162.3726  142.3611  184.7635 F   0  0  0  0  0  0  0  0  0  0  0  0
  161.2278  143.0061  186.5853 F   0  0  0  0  0  0  0  0  0  0  0  0
  161.1165  144.1936  184.7309 F   0  0  0  0  0  0  0  0  0  0  0  0
  5  6  1  0  0  0
  6  1  1  0  0  0
  1  2  2  0  0  0
  1  3  1  0  0  0
  3 20  1  0  0  0
 20 21  1  0  0  0
 21 22  2  0  0  0
 22 23  1  0  0  0
 23 24  2  0  0  0
 24 33  1  0  0  0
 33 34  1  0  0  0
 33 35  1  0  0  0
 33 36  1  0  0  0
 24 25  1  0  0  0
 25 26  2  0  0  0
 26 27  1  0  0  0
 27 28  1  0  0  0
 28 29  1  0  0  0
 29 30  1  0  0  0
 30 31  1  0  0  0
 31 32  1  0  0  0
  6  7  1  0  0  0
  7  8  2  0  0  0
  8  9  1  0  0  0
  9 10  2  0  0  0
 10 14  1  0  0  0
 14 16  1  0  0  0
 16 17  1  0  0  0
 16 18  2  0  0  0
 16 19  2  0  0  0
 10 11  1  0  0  0
 11 12  1  0  0  0
 11 13  2  0  0  0
 26 21  1  0  0  0
 32 27  1  0  0  0
 13  7  1  0  0  0
  3  4  1  0  0  0
 14 15  1  0  0  0
M  END
> <minimizedAffinity>
-9.76011

> <CNNscore>
0.3180174232

> <CNNaffinity>
6.9506239891

> <CNN_VS>
2.2104194164

> <CNNaffinity_variance>
0.1074503884

$$$$
[H]c1c([H])c(C([H])(C(=O)N([H])C([H])([H])c2c([H])c([H])c(C(F)(F)F)c([H])c2C2([H])C([H])([H])C([H])([H])C([H])([H])C([H])([H])C2([H])[H])C([H])([H])[H])c([H])c(F)c1N([H])S(=O)(=O)C([H])([H])[H]


 36 38  0  0  0  0  0  0  0  0999 V2000
  153.5404  136.6853  184.7413 C   0  0  0  0  0  0  0  0  0  0  0  0
  153.9760  135.9868  184.0197 O   0  0  0  0  0  0  0  0  0  0  0  0
  153.2255  137.0586  186.0534 N   0  0  0  0  0  0  0  0  0  0  0  0
  153.8954  135.9240  186.5360 H   0  0  0  0  0  0  0  0  0  0  0  0
  152.4123  137.4799  182.8811 C   0  0  0  0  0  0  0  0  0  0  0  0
  152.8904  138.1226  184.2044 C   0  0  0  0  0  0  0  0  0  0  0  0
  153.9388  139.0431  183.9458 C   0  0  0  0  0  0  0  0  0  0  0  0
  155.1203  139.0277  184.5696 C   0  0  0  0  0  0  0  0  0  0  0  0
  156.1546  139.7978  184.2495 C   0  0  0  0  0  0  0  0  0  0  0  0
  155.9924  140.7508  183.1627 C   0  0  0  0  0  0  0  0  0  0  0  0
  154.8293  140.7762  182.5646 C   0  0  0  0  0  0  0  0  0  0  0  0
  154.6403  141.7795  181.6025 F   0  0  0  0  0  0  0  0  0  0  0  0
  153.7455  139.9742  182.8521 C   0  0  0  0  0  0  0  0  0  0  0  0
  157.2591  141.2555  182.8106 N   0  0  0  0  0  0  0  0  0  0  0  0
  157.4652  142.1878  183.4297 H   0  0  0  0  0  0  0  0  0  0  0  0
  158.4922  140.7617  181.8377 S   0  0  0  0  0  0  0  0  0  0  0  0
  158.2920  141.4038  180.1729 C   0  0  0  0  0  0  0  0  0  0  0  0
  158.7195  139.3042  181.9233 O   0  0  0  0  0  0  0  0  0  0  0  0
  159.7787  141.4866  182.3531 O   0  0  0  0  0  0  0  0  0  0  0  0
  152.9473  137.3852  187.2275 C   0  0  0  0  0  0  0  0  0  0  0  0
  152.4989  136.5913  188.4001 C   0  0  0  0  0  0  0  0  0  0  0  0
  151.3499  135.8588  188.5464 C   0  0  0  0  0  0  0  0  0  0  0  0
  150.8086  135.5574  189.8357 C   0  0  0  0  0  0  0  0  0  0  0  0
  151.4696  136.0181  190.8793 C   0  0  0  0  0  0  0  0  0  0  0  0
  152.6292  136.7726  190.7604 C   0  0  0  0  0  0  0  0  0  0  0  0
  153.1399  137.0524  189.5790 C   0  0  0  0  0  0  0  0  0  0  0  0
  154.4734  137.6503  189.2419 C   0  0  0  0  0  0  0  0  0  0  0  0
  155.5318  136.5288  189.1551 C   0  0  0  0  0  0  0  0  0  0  0  0
  155.8435  135.8164  190.3901 C   0  0  0  0  0  0  0  0  0  0  0  0
  156.2295  136.7655  191.4994 C   0  0  0  0  0  0  0  0  0  0  0  0
  156.1968  138.1974  191.0282 C   0  0  0  0  0  0  0  0  0  0  0  0
  154.9527  138.6111  190.3129 C   0  0  0  0  0  0  0  0  0  0  0  0
  150.8025  136.0365  192.2749 C   0  0  0  0  0  0  0  0  0  0  0  0
  150.7315  137.1732  192.8744 F   0  0  0  0  0  0  0  0  0  0  0  0
  151.4051  135.0341  193.0016 F   0  0  0  0  0  0  0  0  0  0  0  0
  149.4845  135.5338  192.0409 F   0  0  0  0  0  0  0  0  0  0  0  0
  5  6  1  0  0  0
  6  1  1  0  0  0
  1  2  2  0  0  0
  1  3  1  0  0  0
  3 20  1  0  0  0
 20 21  1  0  0  0
 21 22  2  0  0  0
 22 23  1  0  0  0
 23 24  2  0  0  0
 24 33  1  0  0  0
 33 34  1  0  0  0
 33 35  1  0  0  0
 33 36  1  0  0  0
 24 25  1  0  0  0
 25 26  2  0  0  0
 26 27  1  0  0  0
 27 28  1  0  0  0
 28 29  1  0  0  0
 29 30  1  0  0  0
 30 31  1  0  0  0
 31 32  1  0  0  0
  6  7  1  0  0  0
  7  8  2  0  0  0
  8  9  1  0  0  0
  9 10  2  0  0  0
 10 14  1  0  0  0
 14 16  1  0  0  0
 16 17  1  0  0  0
 16 18  2  0  0  0
 16 19  2  0  0  0
 10 11  1  0  0  0
 11 12  1  0  0  0
 11 13  2  0  0  0
 26 21  1  0  0  0
 32 27  1  0  0  0
 13  7  1  0  0  0
  3  4  1  0  0  0
 14 15  1  0  0  0
M  END
> <minimizedAffinity>
-8.72030

> <CNNscore>
0.3073989153

> <CNNaffinity>
6.2434020042

> <CNN_VS>
1.9192149639

> <CNNaffinity_variance>
0.0602190606

$$$$
[H]c1c([H])c(C([H])(C(=O)N([H])C([H])([H])c2c([H])c([H])c(C(F)(F)F)c([H])c2C2([H])C([H])([H])C([H])([H])C([H])([H])C([H])([H])C2([H])[H])C([H])([H])[H])c([H])c(F)c1N([H])S(=O)(=O)C([H])([H])[H]


 36 38  0  0  0  0  0  0  0  0999 V2000
  154.1807  140.7501  182.3464 C   0  0  0  0  0  0  0  0  0  0  0  0
  154.2683  141.2624  181.3830 O   0  0  0  0  0  0  0  0  0  0  0  0
  153.7485  139.6737  183.1305 N   0  0  0  0  0  0  0  0  0  0  0  0
  153.2752  139.0262  181.9791 H   0  0  0  0  0  0  0  0  0  0  0  0
  154.3464  142.8277  183.3567 C   0  0  0  0  0  0  0  0  0  0  0  0
  154.8855  141.4190  183.7001 C   0  0  0  0  0  0  0  0  0  0  0  0
  156.2968  141.3910  183.5555 C   0  0  0  0  0  0  0  0  0  0  0  0
  157.0198  142.4011  183.0634 C   0  0  0  0  0  0  0  0  0  0  0  0
  158.3477  142.4405  183.0417 C   0  0  0  0  0  0  0  0  0  0  0  0
  159.0784  141.2953  183.5614 C   0  0  0  0  0  0  0  0  0  0  0  0
  158.3685  140.3000  184.0270 C   0  0  0  0  0  0  0  0  0  0  0  0
  159.0753  139.1511  184.4118 F   0  0  0  0  0  0  0  0  0  0  0  0
  156.9928  140.2376  184.0900 C   0  0  0  0  0  0  0  0  0  0  0  0
  160.4344  141.6490  183.7006 N   0  0  0  0  0  0  0  0  0  0  0  0
  160.9878  141.3534  182.7511 H   0  0  0  0  0  0  0  0  0  0  0  0
  161.3298  142.4545  184.8233 S   0  0  0  0  0  0  0  0  0  0  0  0
  161.0966  144.2288  184.6767 C   0  0  0  0  0  0  0  0  0  0  0  0
  162.7381  142.0073  184.8374 O   0  0  0  0  0  0  0  0  0  0  0  0
  160.6983  142.1200  186.2144 O   0  0  0  0  0  0  0  0  0  0  0  0
  153.3593  138.7094  183.8242 C   0  0  0  0  0  0  0  0  0  0  0  0
  153.2665  137.2544  183.5404 C   0  0  0  0  0  0  0  0  0  0  0  0
  154.1041  136.2496  183.9489 C   0  0  0  0  0  0  0  0  0  0  0  0
  154.1977  135.0121  183.2377 C   0  0  0  0  0  0  0  0  0  0  0  0
  153.4373  134.8832  182.1683 C   0  0  0  0  0  0  0  0  0  0  0  0
  152.5887  135.8888  181.7249 C   0  0  0  0  0  0  0  0  0  0  0  0
  152.4902  137.0306  182.3740 C   0  0  0  0  0  0  0  0  0  0  0  0
  151.4944  138.1377  182.1957 C   0  0  0  0  0  0  0  0  0  0  0  0
  150.1132  137.6734  182.7081 C   0  0  0  0  0  0  0  0  0  0  0  0
  149.4666  136.5888  181.9764 C   0  0  0  0  0  0  0  0  0  0  0  0
  149.3609  136.8960  180.5017 C   0  0  0  0  0  0  0  0  0  0  0  0
  149.9462  138.2485  180.1830 C   0  0  0  0  0  0  0  0  0  0  0  0
  151.3092  138.5064  180.7364 C   0  0  0  0  0  0  0  0  0  0  0  0
  153.7051  133.7430  181.1577 C   0  0  0  0  0  0  0  0  0  0  0  0
  154.8464  133.7445  180.5629 F   0  0  0  0  0  0  0  0  0  0  0  0
  152.6137  133.7096  180.3187 F   0  0  0  0  0  0  0  0  0  0  0  0
  153.5686  132.5484  181.9316 F   0  0  0  0  0  0  0  0  0  0  0  0
  5  6  1  0  0  0
  6  1  1  0  0  0
  1  2  2  0  0  0
  1  3  1  0  0  0
  3 20  1  0  0  0
 20 21  1  0  0  0
 21 22  2  0  0  0
 22 23  1  0  0  0
 23 24  2  0  0  0
 24 33  1  0  0  0
 33 34  1  0  0  0
 33 35  1  0  0  0
 33 36  1  0  0  0
 24 25  1  0  0  0
 25 26  2  0  0  0
 26 27  1  0  0  0
 27 28  1  0  0  0
 28 29  1  0  0  0
 29 30  1  0  0  0
 30 31  1  0  0  0
 31 32  1  0  0  0
  6  7  1  0  0  0
  7  8  2  0  0  0
  8  9  1  0  0  0
  9 10  2  0  0  0
 10 14  1  0  0  0
 14 16  1  0  0  0
 16 17  1  0  0  0
 16 18  2  0  0  0
 16 19  2  0  0  0
 10 11  1  0  0  0
 11 12  1  0  0  0
 11 13  2  0  0  0
 26 21  1  0  0  0
 32 27  1  0  0  0
 13  7  1  0  0  0
  3  4  1  0  0  0
 14 15  1  0  0  0
M  END
> <minimizedAffinity>
-8.34901

> <CNNscore>
0.2901592255

> <CNNaffinity>
6.4118537903

> <CNN_VS>
1.8604584932

> <CNNaffinity_variance>
0.2082308829

$$$$
[H]c1c([H])c(C([H])(C(=O)N([H])C([H])([H])c2c([H])c([H])c(C(F)(F)F)c([H])c2C2([H])C([H])([H])C([H])([H])C([H])([H])C([H])([H])C2([H])[H])C([H])([H])[H])c([H])c(F)c1N([H])S(=O)(=O)C([H])([H])[H]


 36 38  0  0  0  0  0  0  0  0999 V2000
  155.3530  138.2447  186.0186 C   0  0  0  0  0  0  0  0  0  0  0  0
  154.3198  137.8833  186.0284 O   0  0  0  0  0  0  0  0  0  0  0  0
  156.3705  139.0420  185.4807 N   0  0  0  0  0  0  0  0  0  0  0  0
  155.4517  139.6075  184.5834 H   0  0  0  0  0  0  0  0  0  0  0  0
  156.2715  136.2424  186.7338 C   0  0  0  0  0  0  0  0  0  0  0  0
  156.4202  137.7150  187.1836 C   0  0  0  0  0  0  0  0  0  0  0  0
  155.8391  137.8917  188.4659 C   0  0  0  0  0  0  0  0  0  0  0  0
  154.6399  138.4425  188.6758 C   0  0  0  0  0  0  0  0  0  0  0  0
  154.0286  138.4974  189.8542 C   0  0  0  0  0  0  0  0  0  0  0  0
  154.7164  137.9480  191.0121 C   0  0  0  0  0  0  0  0  0  0  0  0
  155.8977  137.4246  190.8075 C   0  0  0  0  0  0  0  0  0  0  0  0
  156.6056  137.0093  191.9451 F   0  0  0  0  0  0  0  0  0  0  0  0
  156.5486  137.3264  189.5962 C   0  0  0  0  0  0  0  0  0  0  0  0
  153.8025  137.8559  192.0796 N   0  0  0  0  0  0  0  0  0  0  0  0
  153.7925  138.8474  192.6378 H   0  0  0  0  0  0  0  0  0  0  0  0
  152.7185  136.7336  192.6054 S   0  0  0  0  0  0  0  0  0  0  0  0
  151.7511  136.0866  191.2381 C   0  0  0  0  0  0  0  0  0  0  0  0
  151.9290  137.2186  193.7564 O   0  0  0  0  0  0  0  0  0  0  0  0
  153.5546  135.4978  193.0741 O   0  0  0  0  0  0  0  0  0  0  0  0
  157.2739  139.7564  184.9950 C   0  0  0  0  0  0  0  0  0  0  0  0
  157.2605  140.7811  183.9196 C   0  0  0  0  0  0  0  0  0  0  0  0
  156.2418  141.1061  183.0625 C   0  0  0  0  0  0  0  0  0  0  0  0
  156.4911  141.7299  181.7997 C   0  0  0  0  0  0  0  0  0  0  0  0
  157.7504  141.9789  181.4991 C   0  0  0  0  0  0  0  0  0  0  0  0
  158.8029  141.6497  182.3427 C   0  0  0  0  0  0  0  0  0  0  0  0
  158.5858  141.0797  183.5100 C   0  0  0  0  0  0  0  0  0  0  0  0
  159.5413  140.8479  184.6425 C   0  0  0  0  0  0  0  0  0  0  0  0
  159.3689  141.9641  185.6962 C   0  0  0  0  0  0  0  0  0  0  0  0
  159.7316  143.3183  185.2906 C   0  0  0  0  0  0  0  0  0  0  0  0
  161.1373  143.3789  184.7424 C   0  0  0  0  0  0  0  0  0  0  0  0
  161.7924  142.0212  184.7696 C   0  0  0  0  0  0  0  0  0  0  0  0
  160.9868  140.9063  184.1876 C   0  0  0  0  0  0  0  0  0  0  0  0
  158.1464  142.3345  180.0465 C   0  0  0  0  0  0  0  0  0  0  0  0
  157.6152  141.6335  179.1070 F   0  0  0  0  0  0  0  0  0  0  0  0
  159.5223  142.3852  180.0253 F   0  0  0  0  0  0  0  0  0  0  0  0
  157.7592  143.7034  179.9020 F   0  0  0  0  0  0  0  0  0  0  0  0
  5  6  1  0  0  0
  6  1  1  0  0  0
  1  2  2  0  0  0
  1  3  1  0  0  0
  3 20  1  0  0  0
 20 21  1  0  0  0
 21 22  2  0  0  0
 22 23  1  0  0  0
 23 24  2  0  0  0
 24 33  1  0  0  0
 33 34  1  0  0  0
 33 35  1  0  0  0
 33 36  1  0  0  0
 24 25  1  0  0  0
 25 26  2  0  0  0
 26 27  1  0  0  0
 27 28  1  0  0  0
 28 29  1  0  0  0
 29 30  1  0  0  0
 30 31  1  0  0  0
 31 32  1  0  0  0
  6  7  1  0  0  0
  7  8  2  0  0  0
  8  9  1  0  0  0
  9 10  2  0  0  0
 10 14  1  0  0  0
 14 16  1  0  0  0
 16 17  1  0  0  0
 16 18  2  0  0  0
 16 19  2  0  0  0
 10 11  1  0  0  0
 11 12  1  0  0  0
 11 13  2  0  0  0
 26 21  1  0  0  0
 32 27  1  0  0  0
 13  7  1  0  0  0
  3  4  1  0  0  0
 14 15  1  0  0  0
M  END
> <minimizedAffinity>
-8.43446

> <CNNscore>
0.2704134881

> <CNNaffinity>
6.4817323685

> <CNN_VS>
1.7527478933

> <CNNaffinity_variance>
0.1384279579

$$$$
[H]c1c([H])c(C([H])(C(=O)N([H])C([H])([H])c2c([H])c([H])c(C(F)(F)F)c([H])c2C2([H])C([H])([H])C([H])([H])C([H])([H])C([H])([H])C2([H])[H])C([H])([H])[H])c([H])c(F)c1N([H])S(=O)(=O)C([H])([H])[H]


 36 38  0  0  0  0  0  0  0  0999 V2000
  154.1215  141.6057  182.3968 C   0  0  0  0  0  0  0  0  0  0  0  0
  154.4700  142.6360  182.5203 O   0  0  0  0  0  0  0  0  0  0  0  0
  153.1939  140.6715  181.9202 N   0  0  0  0  0  0  0  0  0  0  0  0
  152.4767  141.7034  181.2959 H   0  0  0  0  0  0  0  0  0  0  0  0
  154.2809  140.3349  184.3266 C   0  0  0  0  0  0  0  0  0  0  0  0
  155.0463  140.3494  182.9823 C   0  0  0  0  0  0  0  0  0  0  0  0
  156.3757  140.8017  183.1857 C   0  0  0  0  0  0  0  0  0  0  0  0
  156.9394  140.9554  184.3874 C   0  0  0  0  0  0  0  0  0  0  0  0
  158.2183  141.2528  184.5905 C   0  0  0  0  0  0  0  0  0  0  0  0
  159.0698  141.4569  183.4291 C   0  0  0  0  0  0  0  0  0  0  0  0
  158.5120  141.3229  182.2534 C   0  0  0  0  0  0  0  0  0  0  0  0
  159.3064  141.6412  181.1420 F   0  0  0  0  0  0  0  0  0  0  0  0
  157.1974  140.9888  182.0067 C   0  0  0  0  0  0  0  0  0  0  0  0
  160.4128  141.4839  183.8519 N   0  0  0  0  0  0  0  0  0  0  0  0
  160.9893  140.6817  183.2870 H   0  0  0  0  0  0  0  0  0  0  0  0
  161.3137  142.4402  184.8445 S   0  0  0  0  0  0  0  0  0  0  0  0
  160.9636  144.1770  184.5526 C   0  0  0  0  0  0  0  0  0  0  0  0
  162.7457  142.0773  184.8179 O   0  0  0  0  0  0  0  0  0  0  0  0
  160.7772  142.2013  186.2940 O   0  0  0  0  0  0  0  0  0  0  0  0
  152.3614  139.8433  181.4919 C   0  0  0  0  0  0  0  0  0  0  0  0
  151.9350  138.5121  181.9945 C   0  0  0  0  0  0  0  0  0  0  0  0
  152.6143  137.6525  182.8177 C   0  0  0  0  0  0  0  0  0  0  0  0
  152.3378  136.2492  182.8333 C   0  0  0  0  0  0  0  0  0  0  0  0
  151.3953  135.8210  182.0168 C   0  0  0  0  0  0  0  0  0  0  0  0
  150.6995  136.6671  181.1637 C   0  0  0  0  0  0  0  0  0  0  0  0
  150.9417  137.9617  181.1438 C   0  0  0  0  0  0  0  0  0  0  0  0
  150.1694  139.0588  180.4737 C   0  0  0  0  0  0  0  0  0  0  0  0
  148.9886  139.4803  181.3757 C   0  0  0  0  0  0  0  0  0  0  0  0
  147.9402  138.4898  181.5987 C   0  0  0  0  0  0  0  0  0  0  0  0
  147.3922  137.9548  180.2973 C   0  0  0  0  0  0  0  0  0  0  0  0
  148.0722  138.5962  179.1143 C   0  0  0  0  0  0  0  0  0  0  0  0
  149.5651  138.6071  179.1582 C   0  0  0  0  0  0  0  0  0  0  0  0
  151.2549  134.3097  181.7173 C   0  0  0  0  0  0  0  0  0  0  0  0
  150.4117  133.9697  180.8064 F   0  0  0  0  0  0  0  0  0  0  0  0
  151.0739  133.6925  182.9348 F   0  0  0  0  0  0  0  0  0  0  0  0
  152.5703  133.9047  181.3295 F   0  0  0  0  0  0  0  0  0  0  0  0
  5  6  1  0  0  0
  6  1  1  0  0  0
  1  2  2  0  0  0
  1  3  1  0  0  0
  3 20  1  0  0  0
 20 21  1  0  0  0
 21 22  2  0  0  0
 22 23  1  0  0  0
 23 24  2  0  0  0
 24 33  1  0  0  0
 33 34  1  0  0  0
 33 35  1  0  0  0
 33 36  1  0  0  0
 24 25  1  0  0  0
 25 26  2  0  0  0
 26 27  1  0  0  0
 27 28  1  0  0  0
 28 29  1  0  0  0
 29 30  1  0  0  0
 30 31  1  0  0  0
 31 32  1  0  0  0
  6  7  1  0  0  0
  7  8  2  0  0  0
  8  9  1  0  0  0
  9 10  2  0  0  0
 10 14  1  0  0  0
 14 16  1  0  0  0
 16 17  1  0  0  0
 16 18  2  0  0  0
 16 19  2  0  0  0
 10 11  1  0  0  0
 11 12  1  0  0  0
 11 13  2  0  0  0
 26 21  1  0  0  0
 32 27  1  0  0  0
 13  7  1  0  0  0
  3  4  1  0  0  0
 14 15  1  0  0  0
M  END
> <minimizedAffinity>
-8.33002

> <CNNscore>
0.2686668634

> <CNNaffinity>
6.3908734322

> <CNN_VS>
1.7170158625

> <CNNaffinity_variance>
0.1477933377

$$$$
[H]c1c([H])c(C([H])(C(=O)N([H])C([H])([H])c2c([H])c([H])c(C(F)(F)F)c([H])c2C2([H])C([H])([H])C([H])([H])C([H])([H])C([H])([H])C2([H])[H])C([H])([H])[H])c([H])c(F)c1N([H])S(=O)(=O)C([H])([H])[H]


 36 38  0  0  0  0  0  0  0  0999 V2000
  153.8999  136.1400  184.3308 C   0  0  0  0  0  0  0  0  0  0  0  0
  153.8645  135.9779  183.2488 O   0  0  0  0  0  0  0  0  0  0  0  0
  154.2057  135.7108  185.6279 N   0  0  0  0  0  0  0  0  0  0  0  0
  154.7585  134.5313  185.1062 H   0  0  0  0  0  0  0  0  0  0  0  0
  152.1535  137.6358  184.0533 C   0  0  0  0  0  0  0  0  0  0  0  0
  153.4069  137.6024  184.9593 C   0  0  0  0  0  0  0  0  0  0  0  0
  154.3193  138.6141  184.5628 C   0  0  0  0  0  0  0  0  0  0  0  0
  155.5208  138.7989  185.1176 C   0  0  0  0  0  0  0  0  0  0  0  0
  156.4352  139.6546  184.6738 C   0  0  0  0  0  0  0  0  0  0  0  0
  156.1059  140.4758  183.5193 C   0  0  0  0  0  0  0  0  0  0  0  0
  154.9227  140.3055  182.9881 C   0  0  0  0  0  0  0  0  0  0  0  0
  154.5663  141.1848  181.9549 F   0  0  0  0  0  0  0  0  0  0  0  0
  153.9617  139.4093  183.4051 C   0  0  0  0  0  0  0  0  0  0  0  0
  157.2823  141.0941  183.0535 N   0  0  0  0  0  0  0  0  0  0  0  0
  157.4924  142.0094  183.6962 H   0  0  0  0  0  0  0  0  0  0  0  0
  158.4242  140.7447  181.9198 S   0  0  0  0  0  0  0  0  0  0  0  0
  158.0272  141.5202  180.3498 C   0  0  0  0  0  0  0  0  0  0  0  0
  158.7126  139.2974  181.8478 O   0  0  0  0  0  0  0  0  0  0  0  0
  159.7299  141.4802  182.3671 O   0  0  0  0  0  0  0  0  0  0  0  0
  154.4812  135.3207  186.7831 C   0  0  0  0  0  0  0  0  0  0  0  0
  155.7747  135.0212  187.4489 C   0  0  0  0  0  0  0  0  0  0  0  0
  156.7219  134.0954  187.0972 C   0  0  0  0  0  0  0  0  0  0  0  0
  157.6517  133.5711  188.0493 C   0  0  0  0  0  0  0  0  0  0  0  0
  157.5548  134.0226  189.2842 C   0  0  0  0  0  0  0  0  0  0  0  0
  156.5977  134.9512  189.6711 C   0  0  0  0  0  0  0  0  0  0  0  0
  155.7394  135.4449  188.8026 C   0  0  0  0  0  0  0  0  0  0  0  0
  154.7903  136.5955  188.9594 C   0  0  0  0  0  0  0  0  0  0  0  0
  155.5542  137.9225  188.7561 C   0  0  0  0  0  0  0  0  0  0  0  0
  156.5731  138.2574  189.7459 C   0  0  0  0  0  0  0  0  0  0  0  0
  156.0190  138.2246  191.1502 C   0  0  0  0  0  0  0  0  0  0  0  0
  154.5556  137.8616  191.1508 C   0  0  0  0  0  0  0  0  0  0  0  0
  154.1920  136.6533  190.3517 C   0  0  0  0  0  0  0  0  0  0  0  0
  158.2753  133.2872  190.4388 C   0  0  0  0  0  0  0  0  0  0  0  0
  157.9638  132.0533  190.6311 F   0  0  0  0  0  0  0  0  0  0  0  0
  158.1506  134.0963  191.5461 F   0  0  0  0  0  0  0  0  0  0  0  0
  159.6626  133.3862  190.1069 F   0  0  0  0  0  0  0  0  0  0  0  0
  5  6  1  0  0  0
  6  1  1  0  0  0
  1  2  2  0  0  0
  1  3  1  0  0  0
  3 20  1  0  0  0
 20 21  1  0  0  0
 21 22  2  0  0  0
 22 23  1  0  0  0
 23 24  2  0  0  0
 24 33  1  0  0  0
 33 34  1  0  0  0
 33 35  1  0  0  0
 33 36  1  0  0  0
 24 25  1  0  0  0
 25 26  2  0  0  0
 26 27  1  0  0  0
 27 28  1  0  0  0
 28 29  1  0  0  0
 29 30  1  0  0  0
 30 31  1  0  0  0
 31 32  1  0  0  0
  6  7  1  0  0  0
  7  8  2  0  0  0
  8  9  1  0  0  0
  9 10  2  0  0  0
 10 14  1  0  0  0
 14 16  1  0  0  0
 16 17  1  0  0  0
 16 18  2  0  0  0
 16 19  2  0  0  0
 10 11  1  0  0  0
 11 12  1  0  0  0
 11 13  2  0  0  0
 26 21  1  0  0  0
 32 27  1  0  0  0
 13  7  1  0  0  0
  3  4  1  0  0  0
 14 15  1  0  0  0
M  END
> <minimizedAffinity>
-8.10961

> <CNNscore>
0.2627536356

> <CNNaffinity>
6.2438383102

> <CNN_VS>
1.6405912638

> <CNNaffinity_variance>
0.0900995880

$$$$
[H]c1c([H])c(C([H])(C(=O)N([H])C([H])([H])c2c([H])c([H])c(C(F)(F)F)c([H])c2C2([H])C([H])([H])C([H])([H])C([H])([H])C([H])([H])C2([H])[H])C([H])([H])[H])c([H])c(F)c1N([H])S(=O)(=O)C([H])([H])[H]


 36 38  0  0  0  0  0  0  0  0999 V2000
  154.1124  140.3470  182.5726 C   0  0  0  0  0  0  0  0  0  0  0  0
  154.0003  140.8266  181.5950 O   0  0  0  0  0  0  0  0  0  0  0  0
  153.9735  139.2431  183.4225 N   0  0  0  0  0  0  0  0  0  0  0  0
  153.5088  138.4734  182.3453 H   0  0  0  0  0  0  0  0  0  0  0  0
  154.1836  142.5216  183.3667 C   0  0  0  0  0  0  0  0  0  0  0  0
  154.8209  141.1884  183.8243 C   0  0  0  0  0  0  0  0  0  0  0  0
  156.2252  141.2285  183.6258 C   0  0  0  0  0  0  0  0  0  0  0  0
  156.8778  142.2672  183.0959 C   0  0  0  0  0  0  0  0  0  0  0  0
  158.2003  142.3719  183.0227 C   0  0  0  0  0  0  0  0  0  0  0  0
  159.0064  141.2707  183.5255 C   0  0  0  0  0  0  0  0  0  0  0  0
  158.3653  140.2472  184.0282 C   0  0  0  0  0  0  0  0  0  0  0  0
  159.1427  139.1394  184.3971 F   0  0  0  0  0  0  0  0  0  0  0  0
  156.9977  140.1175  184.1448 C   0  0  0  0  0  0  0  0  0  0  0  0
  160.3474  141.6927  183.6087 N   0  0  0  0  0  0  0  0  0  0  0  0
  160.8473  141.5202  182.6011 H   0  0  0  0  0  0  0  0  0  0  0  0
  161.2747  142.4450  184.7424 S   0  0  0  0  0  0  0  0  0  0  0  0
  161.0838  144.2279  184.6466 C   0  0  0  0  0  0  0  0  0  0  0  0
  162.6715  141.9635  184.7280 O   0  0  0  0  0  0  0  0  0  0  0  0
  160.6504  142.0882  186.1312 O   0  0  0  0  0  0  0  0  0  0  0  0
  153.8463  138.2536  184.1755 C   0  0  0  0  0  0  0  0  0  0  0  0
  152.6485  137.5191  184.6575 C   0  0  0  0  0  0  0  0  0  0  0  0
  151.5559  137.1042  183.9418 C   0  0  0  0  0  0  0  0  0  0  0  0
  150.2941  136.8591  184.5693 C   0  0  0  0  0  0  0  0  0  0  0  0
  150.2321  137.0507  185.8723 C   0  0  0  0  0  0  0  0  0  0  0  0
  151.3195  137.4818  186.6204 C   0  0  0  0  0  0  0  0  0  0  0  0
  152.4877  137.7061  186.0548 C   0  0  0  0  0  0  0  0  0  0  0  0
  153.8184  137.9575  186.6991 C   0  0  0  0  0  0  0  0  0  0  0  0
  154.4952  136.6074  187.0232 C   0  0  0  0  0  0  0  0  0  0  0  0
  153.8481  135.7669  188.0256 C   0  0  0  0  0  0  0  0  0  0  0  0
  153.6143  136.5165  189.3154 C   0  0  0  0  0  0  0  0  0  0  0  0
  154.1215  137.9334  189.2226 C   0  0  0  0  0  0  0  0  0  0  0  0
  153.6818  138.6965  188.0163 C   0  0  0  0  0  0  0  0  0  0  0  0
  148.8593  137.1382  186.5800 C   0  0  0  0  0  0  0  0  0  0  0  0
  148.3046  138.2981  186.6394 F   0  0  0  0  0  0  0  0  0  0  0  0
  149.0120  136.5054  187.7934 F   0  0  0  0  0  0  0  0  0  0  0  0
  148.0246  136.2442  185.8393 F   0  0  0  0  0  0  0  0  0  0  0  0
  5  6  1  0  0  0
  6  1  1  0  0  0
  1  2  2  0  0  0
  1  3  1  0  0  0
  3 20  1  0  0  0
 20 21  1  0  0  0
 21 22  2  0  0  0
 22 23  1  0  0  0
 23 24  2  0  0  0
 24 33  1  0  0  0
 33 34  1  0  0  0
 33 35  1  0  0  0
 33 36  1  0  0  0
 24 25  1  0  0  0
 25 26  2  0  0  0
 26 27  1  0  0  0
 27 28  1  0  0  0
 28 29  1  0  0  0
 29 30  1  0  0  0
 30 31  1  0  0  0
 31 32  1  0  0  0
  6  7  1  0  0  0
  7  8  2  0  0  0
  8  9  1  0  0  0
  9 10  2  0  0  0
 10 14  1  0  0  0
 14 16  1  0  0  0
 16 17  1  0  0  0
 16 18  2  0  0  0
 16 19  2  0  0  0
 10 11  1  0  0  0
 11 12  1  0  0  0
 11 13  2  0  0  0
 26 21  1  0  0  0
 32 27  1  0  0  0
 13  7  1  0  0  0
  3  4  1  0  0  0
 14 15  1  0  0  0
M  END
> <minimizedAffinity>
-8.47227

> <CNNscore>
0.2360088974

> <CNNaffinity>
6.4370470047

> <CNN_VS>
1.5192003250

> <CNNaffinity_variance>
0.1724323928

$$$$
[H]OC(=O)C([H])([H])N(C([H])([H])c1c([H])c([H])c([H])c(OC([H])([H])C([H])([H])c2nc(-c3c([H])c([H])c([H])c([H])c3[H])oc2C([H])([H])[H])c1[H])C([H])([H])c1c([H])c([H])c2c([H])c([H])c([H])c([H])c2c1[H]


 39 43  0  0  0  0  0  0  0  0999 V2000
  153.8297  140.6161  183.0459 C   0  0  0  0  0  0  0  0  0  0  0  0
  153.0765  141.0009  181.9729 C   0  0  0  0  0  0  0  0  0  0  0  0
  152.2897  140.0781  181.3259 C   0  0  0  0  0  0  0  0  0  0  0  0
  152.2193  138.7586  181.7119 C   0  0  0  0  0  0  0  0  0  0  0  0
  152.9648  138.3383  182.7886 C   0  0  0  0  0  0  0  0  0  0  0  0
  153.7454  139.2669  183.4250 C   0  0  0  0  0  0  0  0  0  0  0  0
  154.6337  141.4595  183.7389 O   0  0  0  0  0  0  0  0  0  0  0  0
  155.4307  142.5090  183.3956 C   0  0  0  0  0  0  0  0  0  0  0  0
  156.2821  142.3817  182.1761 C   0  0  0  0  0  0  0  0  0  0  0  0
  158.5603  141.2561  180.3346 C   0  0  0  0  0  0  0  0  0  0  0  0
  158.7442  141.7076  181.7258 C   0  0  0  0  0  0  0  0  0  0  0  0
  159.8618  141.7177  182.4168 O   0  0  0  0  0  0  0  0  0  0  0  0
  159.6458  142.1870  183.6203 C   0  0  0  0  0  0  0  0  0  0  0  0
  158.3353  142.4853  183.6889 N   0  0  0  0  0  0  0  0  0  0  0  0
  157.7303  142.2043  182.5335 C   0  0  0  0  0  0  0  0  0  0  0  0
  160.6188  142.3613  184.6900 C   0  0  0  0  0  0  0  0  0  0  0  0
  160.2162  142.7342  185.9554 C   0  0  0  0  0  0  0  0  0  0  0  0
  161.1272  142.9087  186.9938 C   0  0  0  0  0  0  0  0  0  0  0  0
  162.4687  142.7069  186.7639 C   0  0  0  0  0  0  0  0  0  0  0  0
  162.8920  142.3373  185.5198 C   0  0  0  0  0  0  0  0  0  0  0  0
  161.9655  142.1658  184.4870 C   0  0  0  0  0  0  0  0  0  0  0  0
  152.8993  136.9325  183.2031 C   0  0  0  0  0  0  0  0  0  0  0  0
  152.6645  136.6944  184.5867 N   0  0  0  0  0  0  0  0  0  0  0  0
  151.4985  135.9220  184.8272 C   0  0  0  0  0  0  0  0  0  0  0  0
  150.3023  136.6776  185.2218 C   0  0  0  0  0  0  0  0  0  0  0  0
  149.4605  137.1841  184.4610 O   0  0  0  0  0  0  0  0  0  0  0  0
  150.0708  136.8559  186.5999 O   0  0  0  0  0  0  0  0  0  0  0  0
  150.1914  137.7720  187.0080 H   0  0  0  0  0  0  0  0  0  0  0  0
  153.8378  136.3096  185.3132 C   0  0  0  0  0  0  0  0  0  0  0  0
  154.0534  136.9899  186.5866 C   0  0  0  0  0  0  0  0  0  0  0  0
  153.3382  138.0672  187.0561 C   0  0  0  0  0  0  0  0  0  0  0  0
  153.6263  138.6483  188.2815 C   0  0  0  0  0  0  0  0  0  0  0  0
  154.6386  138.1791  189.0891 C   0  0  0  0  0  0  0  0  0  0  0  0
  154.8968  138.7828  190.3015 C   0  0  0  0  0  0  0  0  0  0  0  0
  155.9101  138.3203  191.1170 C   0  0  0  0  0  0  0  0  0  0  0  0
  156.6457  137.2423  190.6751 C   0  0  0  0  0  0  0  0  0  0  0  0
  156.3823  136.6325  189.4473 C   0  0  0  0  0  0  0  0  0  0  0  0
  155.3663  137.0985  188.6332 C   0  0  0  0  0  0  0  0  0  0  0  0
  155.0757  136.5238  187.4129 C   0  0  0  0  0  0  0  0  0  0  0  0
 10 11  1  0  0  0
 11 12  1  0  0  0
 12 13  1  0  0  0
 13 16  1  0  0  0
 16 17  2  0  0  0
 17 18  1  0  0  0
 18 19  2  0  0  0
 19 20  1  0  0  0
 20 21  2  0  0  0
 13 14  2  0  0  0
 14 15  1  0  0  0
 15  9  1  0  0  0
  9  8  1  0  0  0
  8  7  1  0  0  0
  7  1  1  0  0  0
  1  2  2  0  0  0
  2  3  1  0  0  0
  3  4  2  0  0  0
  4  5  1  0  0  0
  5 22  1  0  0  0
 22 23  1  0  0  0
 23 24  1  0  0  0
 24 25  1  0  0  0
 25 26  2  0  0  0
 25 27  1  0  0  0
 23 29  1  0  0  0
 29 30  1  0  0  0
 30 31  2  0  0  0
 31 32  1  0  0  0
 32 33  2  0  0  0
 33 34  1  0  0  0
 34 35  2  0  0  0
 35 36  1  0  0  0
 36 37  2  0  0  0
 37 38  1  0  0  0
 38 39  2  0  0  0
  5  6  2  0  0  0
 15 11  2  0  0  0
  6  1  1  0  0  0
 21 16  1  0  0  0
 39 30  1  0  0  0
 38 33  1  0  0  0
 27 28  1  0  0  0
M  END
> <minimizedAffinity>
-10.09630

> <CNNscore>
0.5663843751

> <CNNaffinity>
6.9174141884

> <CNN_VS>
3.9179153442

> <CNNaffinity_variance>
0.1586268842

$$$$
[H]OC(=O)C([H])([H])N(C([H])([H])c1c([H])c([H])c([H])c(OC([H])([H])C([H])([H])c2nc(-c3c([H])c([H])c([H])c([H])c3[H])oc2C([H])([H])[H])c1[H])C([H])([H])c1c([H])c([H])c2c([H])c([H])c([H])c([H])c2c1[H]


 39 43  0  0  0  0  0  0  0  0999 V2000
  155.8458  139.7415  184.1994 C   0  0  0  0  0  0  0  0  0  0  0  0
  156.8053  139.3678  185.0974 C   0  0  0  0  0  0  0  0  0  0  0  0
  156.4532  138.6365  186.2068 C   0  0  0  0  0  0  0  0  0  0  0  0
  155.1567  138.2525  186.4646 C   0  0  0  0  0  0  0  0  0  0  0  0
  154.1666  138.6121  185.5803 C   0  0  0  0  0  0  0  0  0  0  0  0
  154.5295  139.3410  184.4787 C   0  0  0  0  0  0  0  0  0  0  0  0
  156.1053  140.4641  183.0820 O   0  0  0  0  0  0  0  0  0  0  0  0
  155.5240  141.5462  182.4941 C   0  0  0  0  0  0  0  0  0  0  0  0
  156.3872  142.7158  182.1544 C   0  0  0  0  0  0  0  0  0  0  0  0
  158.6420  141.4922  180.3468 C   0  0  0  0  0  0  0  0  0  0  0  0
  158.8228  141.9301  181.7428 C   0  0  0  0  0  0  0  0  0  0  0  0
  159.9278  141.8861  182.4526 O   0  0  0  0  0  0  0  0  0  0  0  0
  159.7133  142.3609  183.6542 C   0  0  0  0  0  0  0  0  0  0  0  0
  158.4170  142.7191  183.7020 N   0  0  0  0  0  0  0  0  0  0  0  0
  157.8193  142.4704  182.5354 C   0  0  0  0  0  0  0  0  0  0  0  0
  160.6749  142.4863  184.7409 C   0  0  0  0  0  0  0  0  0  0  0  0
  162.0050  142.1790  184.5442 C   0  0  0  0  0  0  0  0  0  0  0  0
  162.9428  142.2893  185.5674 C   0  0  0  0  0  0  0  0  0  0  0  0
  162.5442  142.7153  186.8136 C   0  0  0  0  0  0  0  0  0  0  0  0
  161.2330  143.0256  187.0330 C   0  0  0  0  0  0  0  0  0  0  0  0
  160.3028  142.9100  185.9958 C   0  0  0  0  0  0  0  0  0  0  0  0
  152.7814  138.2110  185.8505 C   0  0  0  0  0  0  0  0  0  0  0  0
  152.5426  136.8128  185.9696 N   0  0  0  0  0  0  0  0  0  0  0  0
  151.6942  136.4852  187.0591 C   0  0  0  0  0  0  0  0  0  0  0  0
  152.2074  135.4660  187.9839 C   0  0  0  0  0  0  0  0  0  0  0  0
  153.3112  135.4705  188.5544 O   0  0  0  0  0  0  0  0  0  0  0  0
  151.3760  134.3637  188.2635 O   0  0  0  0  0  0  0  0  0  0  0  0
  151.6175  133.4548  187.8945 H   0  0  0  0  0  0  0  0  0  0  0  0
  152.2476  136.1697  184.7239 C   0  0  0  0  0  0  0  0  0  0  0  0
  151.5129  136.9702  183.7490 C   0  0  0  0  0  0  0  0  0  0  0  0
  150.1623  137.2308  183.7739 C   0  0  0  0  0  0  0  0  0  0  0  0
  149.5560  138.0009  182.7933 C   0  0  0  0  0  0  0  0  0  0  0  0
  150.2710  138.5431  181.7484 C   0  0  0  0  0  0  0  0  0  0  0  0
  149.6338  139.3036  180.7909 C   0  0  0  0  0  0  0  0  0  0  0  0
  150.3420  139.8500  179.7394 C   0  0  0  0  0  0  0  0  0  0  0  0
  151.6971  139.6071  179.6855 C   0  0  0  0  0  0  0  0  0  0  0  0
  152.3401  138.8369  180.6562 C   0  0  0  0  0  0  0  0  0  0  0  0
  151.6275  138.2915  181.7082 C   0  0  0  0  0  0  0  0  0  0  0  0
  152.2262  137.5243  182.6864 C   0  0  0  0  0  0  0  0  0  0  0  0
 10 11  1  0  0  0
 11 12  1  0  0  0
 12 13  1  0  0  0
 13 16  1  0  0  0
 16 17  2  0  0  0
 17 18  1  0  0  0
 18 19  2  0  0  0
 19 20  1  0  0  0
 20 21  2  0  0  0
 13 14  2  0  0  0
 14 15  1  0  0  0
 15  9  1  0  0  0
  9  8  1  0  0  0
  8  7  1  0  0  0
  7  1  1  0  0  0
  1  2  2  0  0  0
  2  3  1  0  0  0
  3  4  2  0  0  0
  4  5  1  0  0  0
  5 22  1  0  0  0
 22 23  1  0  0  0
 23 24  1  0  0  0
 24 25  1  0  0  0
 25 26  2  0  0  0
 25 27  1  0  0  0
 23 29  1  0  0  0
 29 30  1  0  0  0
 30 31  2  0  0  0
 31 32  1  0  0  0
 32 33  2  0  0  0
 33 34  1  0  0  0
 34 35  2  0  0  0
 35 36  1  0  0  0
 36 37  2  0  0  0
 37 38  1  0  0  0
 38 39  2  0  0  0
  5  6  2  0  0  0
 15 11  2  0  0  0
  6  1  1  0  0  0
 21 16  1  0  0  0
 39 30  1  0  0  0
 38 33  1  0  0  0
 27 28  1  0  0  0
M  END
> <minimizedAffinity>
-9.04250

> <CNNscore>
0.5394005179

> <CNNaffinity>
6.7753267288

> <CNN_VS>
3.6546146870

> <CNNaffinity_variance>
0.1011741757

$$$$
[H]OC(=O)C([H])([H])N(C([H])([H])c1c([H])c([H])c([H])c(OC([H])([H])C([H])([H])c2nc(-c3c([H])c([H])c([H])c([H])c3[H])oc2C([H])([H])[H])c1[H])C([H])([H])c1c([H])c([H])c2c([H])c([H])c([H])c([H])c2c1[H]


 39 43  0  0  0  0  0  0  0  0999 V2000
  153.2670  140.2248  181.7857 C   0  0  0  0  0  0  0  0  0  0  0  0
  152.3881  140.1403  180.7431 C   0  0  0  0  0  0  0  0  0  0  0  0
  151.4018  139.1829  180.7584 C   0  0  0  0  0  0  0  0  0  0  0  0
  151.2504  138.2867  181.7923 C   0  0  0  0  0  0  0  0  0  0  0  0
  152.1183  138.3448  182.8575 C   0  0  0  0  0  0  0  0  0  0  0  0
  153.0973  139.3028  182.8307 C   0  0  0  0  0  0  0  0  0  0  0  0
  154.2690  141.1358  181.8499 O   0  0  0  0  0  0  0  0  0  0  0  0
  155.2902  141.3651  182.7211 C   0  0  0  0  0  0  0  0  0  0  0  0
  156.4923  140.4829  182.6501 C   0  0  0  0  0  0  0  0  0  0  0  0
  158.0067  142.4418  180.7220 C   0  0  0  0  0  0  0  0  0  0  0  0
  158.4283  142.1150  182.0963 C   0  0  0  0  0  0  0  0  0  0  0  0
  159.4810  142.5742  182.7349 O   0  0  0  0  0  0  0  0  0  0  0  0
  159.5373  142.0645  183.9400 C   0  0  0  0  0  0  0  0  0  0  0  0
  158.4737  141.2495  184.0647 N   0  0  0  0  0  0  0  0  0  0  0  0
  157.7521  141.2468  182.9425 C   0  0  0  0  0  0  0  0  0  0  0  0
  160.5444  142.3172  184.9615 C   0  0  0  0  0  0  0  0  0  0  0  0
  160.1761  142.6832  186.2393 C   0  0  0  0  0  0  0  0  0  0  0  0
  161.1199  142.9316  187.2324 C   0  0  0  0  0  0  0  0  0  0  0  0
  162.4599  142.8123  186.9435 C   0  0  0  0  0  0  0  0  0  0  0  0
  162.8495  142.4512  185.6859 C   0  0  0  0  0  0  0  0  0  0  0  0
  161.8903  142.2049  184.6991 C   0  0  0  0  0  0  0  0  0  0  0  0
  151.9668  137.3898  183.9610 C   0  0  0  0  0  0  0  0  0  0  0  0
  153.1008  136.5808  184.2536 N   0  0  0  0  0  0  0  0  0  0  0  0
  153.3346  135.5783  183.2767 C   0  0  0  0  0  0  0  0  0  0  0  0
  154.2951  134.5323  183.6524 C   0  0  0  0  0  0  0  0  0  0  0  0
  154.3274  133.9056  184.7249 O   0  0  0  0  0  0  0  0  0  0  0  0
  155.2881  134.1931  182.7125 O   0  0  0  0  0  0  0  0  0  0  0  0
  156.2469  134.4586  182.8873 H   0  0  0  0  0  0  0  0  0  0  0  0
  154.2472  137.3267  184.6799 C   0  0  0  0  0  0  0  0  0  0  0  0
  154.2704  137.7154  186.0868 C   0  0  0  0  0  0  0  0  0  0  0  0
  153.2763  138.3955  186.7516 C   0  0  0  0  0  0  0  0  0  0  0  0
  153.3974  138.7245  188.0930 C   0  0  0  0  0  0  0  0  0  0  0  0
  154.5138  138.3889  188.8265 C   0  0  0  0  0  0  0  0  0  0  0  0
  154.5993  138.7335  190.1589 C   0  0  0  0  0  0  0  0  0  0  0  0
  155.7149  138.4024  190.9017 C   0  0  0  0  0  0  0  0  0  0  0  0
  156.7289  137.7211  190.2647 C   0  0  0  0  0  0  0  0  0  0  0  0
  156.6400  137.3731  188.9157 C   0  0  0  0  0  0  0  0  0  0  0  0
  155.5209  137.7062  188.1749 C   0  0  0  0  0  0  0  0  0  0  0  0
  155.3956  137.3810  186.8398 C   0  0  0  0  0  0  0  0  0  0  0  0
 10 11  1  0  0  0
 11 12  1  0  0  0
 12 13  1  0  0  0
 13 16  1  0  0  0
 16 17  2  0  0  0
 17 18  1  0  0  0
 18 19  2  0  0  0
 19 20  1  0  0  0
 20 21  2  0  0  0
 13 14  2  0  0  0
 14 15  1  0  0  0
 15  9  1  0  0  0
  9  8  1  0  0  0
  8  7  1  0  0  0
  7  1  1  0  0  0
  1  2  2  0  0  0
  2  3  1  0  0  0
  3  4  2  0  0  0
  4  5  1  0  0  0
  5 22  1  0  0  0
 22 23  1  0  0  0
 23 24  1  0  0  0
 24 25  1  0  0  0
 25 26  2  0  0  0
 25 27  1  0  0  0
 23 29  1  0  0  0
 29 30  1  0  0  0
 30 31  2  0  0  0
 31 32  1  0  0  0
 32 33  2  0  0  0
 33 34  1  0  0  0
 34 35  2  0  0  0
 35 36  1  0  0  0
 36 37  2  0  0  0
 37 38  1  0  0  0
 38 39  2  0  0  0
  5  6  2  0  0  0
 15 11  2  0  0  0
  6  1  1  0  0  0
 21 16  1  0  0  0
 39 30  1  0  0  0
 38 33  1  0  0  0
 27 28  1  0  0  0
M  END
> <minimizedAffinity>
-10.12883

> <CNNscore>
0.5123230815

> <CNNaffinity>
6.8664903641

> <CNN_VS>
3.5178616047

> <CNNaffinity_variance>
0.1609714329

$$$$
[H]OC(=O)C([H])([H])N(C([H])([H])c1c([H])c([H])c([H])c(OC([H])([H])C([H])([H])c2nc(-c3c([H])c([H])c([H])c([H])c3[H])oc2C([H])([H])[H])c1[H])C([H])([H])c1c([H])c([H])c2c([H])c([H])c([H])c([H])c2c1[H]


 39 43  0  0  0  0  0  0  0  0999 V2000
  154.3887  138.9165  184.6360 C   0  0  0  0  0  0  0  0  0  0  0  0
  153.8791  138.9516  185.9032 C   0  0  0  0  0  0  0  0  0  0  0  0
  152.9982  137.9784  186.3111 C   0  0  0  0  0  0  0  0  0  0  0  0
  152.5952  136.9482  185.4918 C   0  0  0  0  0  0  0  0  0  0  0  0
  153.0897  136.8833  184.2101 C   0  0  0  0  0  0  0  0  0  0  0  0
  153.9665  137.8589  183.8148 C   0  0  0  0  0  0  0  0  0  0  0  0
  155.2596  139.8361  184.1522 O   0  0  0  0  0  0  0  0  0  0  0  0
  155.6086  140.2486  182.9022 C   0  0  0  0  0  0  0  0  0  0  0  0
  156.1184  141.6414  182.7334 C   0  0  0  0  0  0  0  0  0  0  0  0
  158.4011  141.0606  180.6596 C   0  0  0  0  0  0  0  0  0  0  0  0
  158.6155  141.4620  182.0618 C   0  0  0  0  0  0  0  0  0  0  0  0
  159.7665  141.6419  182.6697 O   0  0  0  0  0  0  0  0  0  0  0  0
  159.5703  141.9967  183.9150 C   0  0  0  0  0  0  0  0  0  0  0  0
  158.2378  142.0421  184.0981 N   0  0  0  0  0  0  0  0  0  0  0  0
  157.5994  141.7169  182.9726 C   0  0  0  0  0  0  0  0  0  0  0  0
  160.5814  142.2902  184.9215 C   0  0  0  0  0  0  0  0  0  0  0  0
  161.9213  142.1118  184.6476 C   0  0  0  0  0  0  0  0  0  0  0  0
  162.9063  142.3837  185.5934 C   0  0  0  0  0  0  0  0  0  0  0  0
  162.5458  142.8433  186.8392 C   0  0  0  0  0  0  0  0  0  0  0  0
  161.2258  143.0281  187.1343 C   0  0  0  0  0  0  0  0  0  0  0  0
  160.2480  142.7508  186.1743 C   0  0  0  0  0  0  0  0  0  0  0  0
  152.6612  135.7913  183.3289 C   0  0  0  0  0  0  0  0  0  0  0  0
  152.8620  134.4704  183.8199 N   0  0  0  0  0  0  0  0  0  0  0  0
  152.2343  133.4796  183.0209 C   0  0  0  0  0  0  0  0  0  0  0  0
  151.6699  132.3355  183.7489 C   0  0  0  0  0  0  0  0  0  0  0  0
  151.1358  132.3605  184.8706 O   0  0  0  0  0  0  0  0  0  0  0  0
  151.7326  131.0734  183.1264 O   0  0  0  0  0  0  0  0  0  0  0  0
  152.3638  130.3730  183.4890 H   0  0  0  0  0  0  0  0  0  0  0  0
  154.2124  134.2008  184.2150 C   0  0  0  0  0  0  0  0  0  0  0  0
  155.1105  133.7492  183.1565 C   0  0  0  0  0  0  0  0  0  0  0  0
  155.0804  134.1604  181.8440 C   0  0  0  0  0  0  0  0  0  0  0  0
  155.9772  133.6648  180.9099 C   0  0  0  0  0  0  0  0  0  0  0  0
  156.9406  132.7396  181.2459 C   0  0  0  0  0  0  0  0  0  0  0  0
  157.8153  132.2686  180.2897 C   0  0  0  0  0  0  0  0  0  0  0  0
  158.7833  131.3403  180.6169 C   0  0  0  0  0  0  0  0  0  0  0  0
  158.8395  130.9077  181.9238 C   0  0  0  0  0  0  0  0  0  0  0  0
  157.9530  131.3861  182.8902 C   0  0  0  0  0  0  0  0  0  0  0  0
  156.9848  132.3161  182.5588 C   0  0  0  0  0  0  0  0  0  0  0  0
  156.0901  132.8123  183.4846 C   0  0  0  0  0  0  0  0  0  0  0  0
 10 11  1  0  0  0
 11 12  1  0  0  0
 12 13  1  0  0  0
 13 16  1  0  0  0
 16 17  2  0  0  0
 17 18  1  0  0  0
 18 19  2  0  0  0
 19 20  1  0  0  0
 20 21  2  0  0  0
 13 14  2  0  0  0
 14 15  1  0  0  0
 15  9  1  0  0  0
  9  8  1  0  0  0
  8  7  1  0  0  0
  7  1  1  0  0  0
  1  2  2  0  0  0
  2  3  1  0  0  0
  3  4  2  0  0  0
  4  5  1  0  0  0
  5 22  1  0  0  0
 22 23  1  0  0  0
 23 24  1  0  0  0
 24 25  1  0  0  0
 25 26  2  0  0  0
 25 27  1  0  0  0
 23 29  1  0  0  0
 29 30  1  0  0  0
 30 31  2  0  0  0
 31 32  1  0  0  0
 32 33  2  0  0  0
 33 34  1  0  0  0
 34 35  2  0  0  0
 35 36  1  0  0  0
 36 37  2  0  0  0
 37 38  1  0  0  0
 38 39  2  0  0  0
  5  6  2  0  0  0
 15 11  2  0  0  0
  6  1  1  0  0  0
 21 16  1  0  0  0
 39 30  1  0  0  0
 38 33  1  0  0  0
 27 28  1  0  0  0
M  END
> <minimizedAffinity>
-8.31271

> <CNNscore>
0.5122839212

> <CNNaffinity>
6.6997466087

> <CNN_VS>
3.4321725368

> <CNNaffinity_variance>
0.3543851376

$$$$
[H]OC(=O)C([H])([H])N(C([H])([H])c1c([H])c([H])c([H])c(OC([H])([H])C([H])([H])c2nc(-c3c([H])c([H])c([H])c([H])c3[H])oc2C([H])([H])[H])c1[H])C([H])([H])c1c([H])c([H])c2c([H])c([H])c([H])c([H])c2c1[H]


 39 43  0  0  0  0  0  0  0  0999 V2000
  153.4842  138.1440  186.6940 C   0  0  0  0  0  0  0  0  0  0  0  0
  152.3105  137.6337  186.2157 C   0  0  0  0  0  0  0  0  0  0  0  0
  151.5892  136.7490  186.9814 C   0  0  0  0  0  0  0  0  0  0  0  0
  151.9966  136.3428  188.2320 C   0  0  0  0  0  0  0  0  0  0  0  0
  153.1734  136.8378  188.7433 C   0  0  0  0  0  0  0  0  0  0  0  0
  153.8837  137.7184  187.9708 C   0  0  0  0  0  0  0  0  0  0  0  0
  154.2577  139.0186  186.0049 O   0  0  0  0  0  0  0  0  0  0  0  0
  155.4042  138.9052  185.2789 C   0  0  0  0  0  0  0  0  0  0  0  0
  155.4862  139.6181  183.9699 C   0  0  0  0  0  0  0  0  0  0  0  0
  156.0229  141.8666  181.8474 C   0  0  0  0  0  0  0  0  0  0  0  0
  156.8903  141.5701  183.0020 C   0  0  0  0  0  0  0  0  0  0  0  0
  158.0067  142.1786  183.3341 O   0  0  0  0  0  0  0  0  0  0  0  0
  158.5063  141.6461  184.4213 C   0  0  0  0  0  0  0  0  0  0  0  0
  157.6675  140.6601  184.7890 N   0  0  0  0  0  0  0  0  0  0  0  0
  156.6451  140.5730  183.9362 C   0  0  0  0  0  0  0  0  0  0  0  0
  159.7284  142.0308  185.1140 C   0  0  0  0  0  0  0  0  0  0  0  0
  160.9366  142.0587  184.4493 C   0  0  0  0  0  0  0  0  0  0  0  0
  162.1185  142.4213  185.0898 C   0  0  0  0  0  0  0  0  0  0  0  0
  162.0937  142.7631  186.4225 C   0  0  0  0  0  0  0  0  0  0  0  0
  160.9099  142.7432  187.1022 C   0  0  0  0  0  0  0  0  0  0  0  0
  159.7312  142.3771  186.4455 C   0  0  0  0  0  0  0  0  0  0  0  0
  153.6171  136.4057  190.0734 C   0  0  0  0  0  0  0  0  0  0  0  0
  153.9695  137.4396  190.9861 N   0  0  0  0  0  0  0  0  0  0  0  0
  153.2116  137.4034  192.1855 C   0  0  0  0  0  0  0  0  0  0  0  0
  152.7565  136.0740  192.6134 C   0  0  0  0  0  0  0  0  0  0  0  0
  153.4558  135.1750  193.1101 O   0  0  0  0  0  0  0  0  0  0  0  0
  151.3905  135.7707  192.4507 O   0  0  0  0  0  0  0  0  0  0  0  0
  151.1116  135.1053  191.7437 H   0  0  0  0  0  0  0  0  0  0  0  0
  155.3827  137.6190  191.1374 C   0  0  0  0  0  0  0  0  0  0  0  0
  156.2090  136.4468  190.8650 C   0  0  0  0  0  0  0  0  0  0  0  0
  156.5088  135.4463  191.7604 C   0  0  0  0  0  0  0  0  0  0  0  0
  157.3114  134.3733  191.4042 C   0  0  0  0  0  0  0  0  0  0  0  0
  157.8475  134.2535  190.1412 C   0  0  0  0  0  0  0  0  0  0  0  0
  158.6420  133.1724  189.8231 C   0  0  0  0  0  0  0  0  0  0  0  0
  159.1846  133.0445  188.5602 C   0  0  0  0  0  0  0  0  0  0  0  0
  158.9034  134.0306  187.6399 C   0  0  0  0  0  0  0  0  0  0  0  0
  158.0985  135.1241  187.9641 C   0  0  0  0  0  0  0  0  0  0  0  0
  157.5565  135.2487  189.2302 C   0  0  0  0  0  0  0  0  0  0  0  0
  156.7573  136.3145  189.5895 C   0  0  0  0  0  0  0  0  0  0  0  0
 10 11  1  0  0  0
 11 12  1  0  0  0
 12 13  1  0  0  0
 13 16  1  0  0  0
 16 17  2  0  0  0
 17 18  1  0  0  0
 18 19  2  0  0  0
 19 20  1  0  0  0
 20 21  2  0  0  0
 13 14  2  0  0  0
 14 15  1  0  0  0
 15  9  1  0  0  0
  9  8  1  0  0  0
  8  7  1  0  0  0
  7  1  1  0  0  0
  1  2  2  0  0  0
  2  3  1  0  0  0
  3  4  2  0  0  0
  4  5  1  0  0  0
  5 22  1  0  0  0
 22 23  1  0  0  0
 23 24  1  0  0  0
 24 25  1  0  0  0
 25 26  2  0  0  0
 25 27  1  0  0  0
 23 29  1  0  0  0
 29 30  1  0  0  0
 30 31  2  0  0  0
 31 32  1  0  0  0
 32 33  2  0  0  0
 33 34  1  0  0  0
 34 35  2  0  0  0
 35 36  1  0  0  0
 36 37  2  0  0  0
 37 38  1  0  0  0
 38 39  2  0  0  0
  5  6  2  0  0  0
 15 11  2  0  0  0
  6  1  1  0  0  0
 21 16  1  0  0  0
 39 30  1  0  0  0
 38 33  1  0  0  0
 27 28  1  0  0  0
M  END
> <minimizedAffinity>
-8.94289

> <CNNscore>
0.4813327193

> <CNNaffinity>
6.6480226517

> <CNN_VS>
3.1999108791

> <CNNaffinity_variance>
0.1282627285

$$$$
[H]OC(=O)C([H])([H])N(C([H])([H])c1c([H])c([H])c([H])c(OC([H])([H])C([H])([H])c2nc(-c3c([H])c([H])c([H])c([H])c3[H])oc2C([H])([H])[H])c1[H])C([H])([H])c1c([H])c([H])c2c([H])c([H])c([H])c([H])c2c1[H]


 39 43  0  0  0  0  0  0  0  0999 V2000
  155.1611  142.0085  182.9420 C   0  0  0  0  0  0  0  0  0  0  0  0
  154.0448  141.9772  182.1549 C   0  0  0  0  0  0  0  0  0  0  0  0
  153.2486  140.8567  182.1448 C   0  0  0  0  0  0  0  0  0  0  0  0
  153.5235  139.7414  182.9034 C   0  0  0  0  0  0  0  0  0  0  0  0
  154.6395  139.7402  183.7071 C   0  0  0  0  0  0  0  0  0  0  0  0
  155.4254  140.8623  183.7084 C   0  0  0  0  0  0  0  0  0  0  0  0
  156.0012  143.0704  183.0100 O   0  0  0  0  0  0  0  0  0  0  0  0
  156.5055  143.9431  182.0943 C   0  0  0  0  0  0  0  0  0  0  0  0
  157.7751  143.5820  181.3972 C   0  0  0  0  0  0  0  0  0  0  0  0
  158.4430  140.5165  181.3261 C   0  0  0  0  0  0  0  0  0  0  0  0
  159.0105  141.4828  182.2838 C   0  0  0  0  0  0  0  0  0  0  0  0
  159.8704  141.2361  183.2464 O   0  0  0  0  0  0  0  0  0  0  0  0
  160.1505  142.3378  183.8968 C   0  0  0  0  0  0  0  0  0  0  0  0
  159.4356  143.3202  183.3179 N   0  0  0  0  0  0  0  0  0  0  0  0
  158.7092  142.8377  182.3082 C   0  0  0  0  0  0  0  0  0  0  0  0
  161.0557  142.4923  185.0273 C   0  0  0  0  0  0  0  0  0  0  0  0
  162.4024  142.2261  184.8936 C   0  0  0  0  0  0  0  0  0  0  0  0
  163.2872  142.3647  185.9596 C   0  0  0  0  0  0  0  0  0  0  0  0
  162.8176  142.7777  187.1853 C   0  0  0  0  0  0  0  0  0  0  0  0
  161.4886  143.0474  187.3426 C   0  0  0  0  0  0  0  0  0  0  0  0
  160.6121  142.9038  186.2629 C   0  0  0  0  0  0  0  0  0  0  0  0
  154.9422  138.5533  184.5148 C   0  0  0  0  0  0  0  0  0  0  0  0
  153.8335  137.9212  185.1450 N   0  0  0  0  0  0  0  0  0  0  0  0
  153.9158  136.5046  185.1230 C   0  0  0  0  0  0  0  0  0  0  0  0
  153.2546  135.8441  183.9897 C   0  0  0  0  0  0  0  0  0  0  0  0
  152.6577  136.4003  183.0525 O   0  0  0  0  0  0  0  0  0  0  0  0
  153.2910  134.4366  183.9457 O   0  0  0  0  0  0  0  0  0  0  0  0
  152.4444  133.9135  184.1189 H   0  0  0  0  0  0  0  0  0  0  0  0
  153.4670  138.5130  186.3971 C   0  0  0  0  0  0  0  0  0  0  0  0
  154.2669  138.1145  187.5514 C   0  0  0  0  0  0  0  0  0  0  0  0
  155.6349  138.2148  187.6573 C   0  0  0  0  0  0  0  0  0  0  0  0
  156.3043  137.8010  188.7988 C   0  0  0  0  0  0  0  0  0  0  0  0
  155.6377  137.2708  189.8812 C   0  0  0  0  0  0  0  0  0  0  0  0
  156.3371  136.8693  190.9996 C   0  0  0  0  0  0  0  0  0  0  0  0
  155.6777  136.3357  192.0887 C   0  0  0  0  0  0  0  0  0  0  0  0
  154.3067  136.2214  192.0138 C   0  0  0  0  0  0  0  0  0  0  0  0
  153.6006  136.6288  190.8806 C   0  0  0  0  0  0  0  0  0  0  0  0
  154.2646  137.1631  189.7916 C   0  0  0  0  0  0  0  0  0  0  0  0
  153.6030  137.5763  188.6535 C   0  0  0  0  0  0  0  0  0  0  0  0
 10 11  1  0  0  0
 11 12  1  0  0  0
 12 13  1  0  0  0
 13 16  1  0  0  0
 16 17  2  0  0  0
 17 18  1  0  0  0
 18 19  2  0  0  0
 19 20  1  0  0  0
 20 21  2  0  0  0
 13 14  2  0  0  0
 14 15  1  0  0  0
 15  9  1  0  0  0
  9  8  1  0  0  0
  8  7  1  0  0  0
  7  1  1  0  0  0
  1  2  2  0  0  0
  2  3  1  0  0  0
  3  4  2  0  0  0
  4  5  1  0  0  0
  5 22  1  0  0  0
 22 23  1  0  0  0
 23 24  1  0  0  0
 24 25  1  0  0  0
 25 26  2  0  0  0
 25 27  1  0  0  0
 23 29  1  0  0  0
 29 30  1  0  0  0
 30 31  2  0  0  0
 31 32  1  0  0  0
 32 33  2  0  0  0
 33 34  1  0  0  0
 34 35  2  0  0  0
 35 36  1  0  0  0
 36 37  2  0  0  0
 37 38  1  0  0  0
 38 39  2  0  0  0
  5  6  2  0  0  0
 15 11  2  0  0  0
  6  1  1  0  0  0
 21 16  1  0  0  0
 39 30  1  0  0  0
 38 33  1  0  0  0
 27 28  1  0  0  0
M  END
> <minimizedAffinity>
-10.19965

> <CNNscore>
0.4723633528

> <CNNaffinity>
6.8394823074

> <CNN_VS>
3.2307207584

> <CNNaffinity_variance>
0.2462679148

$$$$
[H]OC(=O)C([H])([H])N(C([H])([H])c1c([H])c([H])c([H])c(OC([H])([H])C([H])([H])c2nc(-c3c([H])c([H])c([H])c([H])c3[H])oc2C([H])([H])[H])c1[H])C([H])([H])c1c([H])c([H])c2c([H])c([H])c([H])c([H])c2c1[H]


 39 43  0  0  0  0  0  0  0  0999 V2000
  154.4100  138.9624  185.0225 C   0  0  0  0  0  0  0  0  0  0  0  0
  153.5787  139.1858  186.0835 C   0  0  0  0  0  0  0  0  0  0  0  0
  152.9173  138.1308  186.6657 C   0  0  0  0  0  0  0  0  0  0  0  0
  153.0529  136.8334  186.2261 C   0  0  0  0  0  0  0  0  0  0  0  0
  153.8823  136.5738  185.1602 C   0  0  0  0  0  0  0  0  0  0  0  0
  154.5357  137.6333  184.5880 C   0  0  0  0  0  0  0  0  0  0  0  0
  155.0977  139.9440  184.3889 O   0  0  0  0  0  0  0  0  0  0  0  0
  155.5939  140.0958  183.1298 C   0  0  0  0  0  0  0  0  0  0  0  0
  155.9563  141.4700  182.6730 C   0  0  0  0  0  0  0  0  0  0  0  0
  158.1447  141.8153  180.4504 C   0  0  0  0  0  0  0  0  0  0  0  0
  158.3925  141.9033  181.9009 C   0  0  0  0  0  0  0  0  0  0  0  0
  159.5396  142.1355  182.4984 O   0  0  0  0  0  0  0  0  0  0  0  0
  159.3796  142.1430  183.7982 C   0  0  0  0  0  0  0  0  0  0  0  0
  158.0751  141.9055  184.0281 N   0  0  0  0  0  0  0  0  0  0  0  0
  157.4181  141.7490  182.8775 C   0  0  0  0  0  0  0  0  0  0  0  0
  160.3997  142.3640  184.8141 C   0  0  0  0  0  0  0  0  0  0  0  0
  160.0516  142.7637  186.0875 C   0  0  0  0  0  0  0  0  0  0  0  0
  161.0082  142.9828  187.0751 C   0  0  0  0  0  0  0  0  0  0  0  0
  162.3407  142.7994  186.7853 C   0  0  0  0  0  0  0  0  0  0  0  0
  162.7104  142.4039  185.5320 C   0  0  0  0  0  0  0  0  0  0  0  0
  161.7385  142.1876  184.5507 C   0  0  0  0  0  0  0  0  0  0  0  0
  154.0282  135.1943  184.6823 C   0  0  0  0  0  0  0  0  0  0  0  0
  153.5761  134.1718  185.5633 N   0  0  0  0  0  0  0  0  0  0  0  0
  152.5984  133.3263  184.9773 C   0  0  0  0  0  0  0  0  0  0  0  0
  151.7959  132.5316  185.9165 C   0  0  0  0  0  0  0  0  0  0  0  0
  151.1053  132.9658  186.8538 O   0  0  0  0  0  0  0  0  0  0  0  0
  151.7985  131.1326  185.7521 O   0  0  0  0  0  0  0  0  0  0  0  0
  152.2780  130.5552  186.4283 H   0  0  0  0  0  0  0  0  0  0  0  0
  154.6315  133.5167  186.2769 C   0  0  0  0  0  0  0  0  0  0  0  0
  155.2105  134.2630  187.3898 C   0  0  0  0  0  0  0  0  0  0  0  0
  156.4397  134.8809  187.3932 C   0  0  0  0  0  0  0  0  0  0  0  0
  156.9036  135.5627  188.5077 C   0  0  0  0  0  0  0  0  0  0  0  0
  156.1613  135.6568  189.6641 C   0  0  0  0  0  0  0  0  0  0  0  0
  156.6556  136.3428  190.7533 C   0  0  0  0  0  0  0  0  0  0  0  0
  155.9193  136.4415  191.9169 C   0  0  0  0  0  0  0  0  0  0  0  0
  154.6836  135.8329  191.9458 C   0  0  0  0  0  0  0  0  0  0  0  0
  154.1851  135.1391  190.8418 C   0  0  0  0  0  0  0  0  0  0  0  0
  154.9254  135.0426  189.6779 C   0  0  0  0  0  0  0  0  0  0  0  0
  154.4682  134.3653  188.5661 C   0  0  0  0  0  0  0  0  0  0  0  0
 10 11  1  0  0  0
 11 12  1  0  0  0
 12 13  1  0  0  0
 13 16  1  0  0  0
 16 17  2  0  0  0
 17 18  1  0  0  0
 18 19  2  0  0  0
 19 20  1  0  0  0
 20 21  2  0  0  0
 13 14  2  0  0  0
 14 15  1  0  0  0
 15  9  1  0  0  0
  9  8  1  0  0  0
  8  7  1  0  0  0
  7  1  1  0  0  0
  1  2  2  0  0  0
  2  3  1  0  0  0
  3  4  2  0  0  0
  4  5  1  0  0  0
  5 22  1  0  0  0
 22 23  1  0  0  0
 23 24  1  0  0  0
 24 25  1  0  0  0
 25 26  2  0  0  0
 25 27  1  0  0  0
 23 29  1  0  0  0
 29 30  1  0  0  0
 30 31  2  0  0  0
 31 32  1  0  0  0
 32 33  2  0  0  0
 33 34  1  0  0  0
 34 35  2  0  0  0
 35 36  1  0  0  0
 36 37  2  0  0  0
 37 38  1  0  0  0
 38 39  2  0  0  0
  5  6  2  0  0  0
 15 11  2  0  0  0
  6  1  1  0  0  0
 21 16  1  0  0  0
 39 30  1  0  0  0
 38 33  1  0  0  0
 27 28  1  0  0  0
M  END
> <minimizedAffinity>
-7.40607

> <CNNscore>
0.4662868679

> <CNNaffinity>
6.6608681679

> <CNN_VS>
3.1058752537

> <CNNaffinity_variance>
0.2516721487

$$$$
[H]OC(=O)C([H])([H])N(C([H])([H])c1c([H])c([H])c([H])c(OC([H])([H])C([H])([H])c2nc(-c3c([H])c([H])c([H])c([H])c3[H])oc2C([H])([H])[H])c1[H])C([H])([H])c1c([H])c([H])c2c([H])c([H])c([H])c([H])c2c1[H]


 39 43  0  0  0  0  0  0  0  0999 V2000
  154.7546  138.7484  185.7487 C   0  0  0  0  0  0  0  0  0  0  0  0
  153.4385  138.7510  186.1153 C   0  0  0  0  0  0  0  0  0  0  0  0
  153.0848  138.3777  187.3901 C   0  0  0  0  0  0  0  0  0  0  0  0
  154.0079  137.9941  188.3365 C   0  0  0  0  0  0  0  0  0  0  0  0
  155.3414  137.9807  188.0002 C   0  0  0  0  0  0  0  0  0  0  0  0
  155.6816  138.3543  186.7268 C   0  0  0  0  0  0  0  0  0  0  0  0
  155.1898  139.0992  184.5136 O   0  0  0  0  0  0  0  0  0  0  0  0
  156.4077  139.4056  183.9869 C   0  0  0  0  0  0  0  0  0  0  0  0
  156.4967  140.5438  183.0253 C   0  0  0  0  0  0  0  0  0  0  0  0
  157.2829  143.2083  181.5655 C   0  0  0  0  0  0  0  0  0  0  0  0
  158.0167  142.6181  182.6996 C   0  0  0  0  0  0  0  0  0  0  0  0
  159.0963  143.0915  183.2803 O   0  0  0  0  0  0  0  0  0  0  0  0
  159.4696  142.3008  184.2554 C   0  0  0  0  0  0  0  0  0  0  0  0
  158.5862  141.2861  184.2894 N   0  0  0  0  0  0  0  0  0  0  0  0
  157.6618  141.4384  183.3395 C   0  0  0  0  0  0  0  0  0  0  0  0
  160.6129  142.4683  185.1420 C   0  0  0  0  0  0  0  0  0  0  0  0
  161.8903  142.1837  184.7067 C   0  0  0  0  0  0  0  0  0  0  0  0
  162.9988  142.3342  185.5357 C   0  0  0  0  0  0  0  0  0  0  0  0
  162.8283  142.7779  186.8269 C   0  0  0  0  0  0  0  0  0  0  0  0
  161.5736  143.0663  187.2811 C   0  0  0  0  0  0  0  0  0  0  0  0
  160.4701  142.9104  186.4370 C   0  0  0  0  0  0  0  0  0  0  0  0
  156.3310  137.5682  189.0017 C   0  0  0  0  0  0  0  0  0  0  0  0
  156.5691  136.1692  189.1125 N   0  0  0  0  0  0  0  0  0  0  0  0
  155.8528  135.5669  190.1794 C   0  0  0  0  0  0  0  0  0  0  0  0
  155.7951  136.3404  191.4268 C   0  0  0  0  0  0  0  0  0  0  0  0
  156.7459  136.5987  192.1839 O   0  0  0  0  0  0  0  0  0  0  0  0
  154.5413  136.8482  191.8199 O   0  0  0  0  0  0  0  0  0  0  0  0
  154.0710  136.4440  192.6172 H   0  0  0  0  0  0  0  0  0  0  0  0
  156.5348  135.4770  187.8588 C   0  0  0  0  0  0  0  0  0  0  0  0
  157.5532  134.4487  187.6679 C   0  0  0  0  0  0  0  0  0  0  0  0
  158.7847  134.4105  188.2800 C   0  0  0  0  0  0  0  0  0  0  0  0
  159.6875  133.3894  188.0257 C   0  0  0  0  0  0  0  0  0  0  0  0
  159.3997  132.3647  187.1516 C   0  0  0  0  0  0  0  0  0  0  0  0
  160.3228  131.3662  186.9230 C   0  0  0  0  0  0  0  0  0  0  0  0
  160.0436  130.3359  186.0477 C   0  0  0  0  0  0  0  0  0  0  0  0
  158.8182  130.3454  185.4179 C   0  0  0  0  0  0  0  0  0  0  0  0
  157.8851  131.3573  185.6510 C   0  0  0  0  0  0  0  0  0  0  0  0
  158.1682  132.3876  186.5287 C   0  0  0  0  0  0  0  0  0  0  0  0
  157.2732  133.4060  186.7850 C   0  0  0  0  0  0  0  0  0  0  0  0
 10 11  1  0  0  0
 11 12  1  0  0  0
 12 13  1  0  0  0
 13 16  1  0  0  0
 16 17  2  0  0  0
 17 18  1  0  0  0
 18 19  2  0  0  0
 19 20  1  0  0  0
 20 21  2  0  0  0
 13 14  2  0  0  0
 14 15  1  0  0  0
 15  9  1  0  0  0
  9  8  1  0  0  0
  8  7  1  0  0  0
  7  1  1  0  0  0
  1  2  2  0  0  0
  2  3  1  0  0  0
  3  4  2  0  0  0
  4  5  1  0  0  0
  5 22  1  0  0  0
 22 23  1  0  0  0
 23 24  1  0  0  0
 24 25  1  0  0  0
 25 26  2  0  0  0
 25 27  1  0  0  0
 23 29  1  0  0  0
 29 30  1  0  0  0
 30 31  2  0  0  0
 31 32  1  0  0  0
 32 33  2  0  0  0
 33 34  1  0  0  0
 34 35  2  0  0  0
 35 36  1  0  0  0
 36 37  2  0  0  0
 37 38  1  0  0  0
 38 39  2  0  0  0
  5  6  2  0  0  0
 15 11  2  0  0  0
  6  1  1  0  0  0
 21 16  1  0  0  0
 39 30  1  0  0  0
 38 33  1  0  0  0
 27 28  1  0  0  0
M  END
> <minimizedAffinity>
-9.26129

> <CNNscore>
0.4463483989

> <CNNaffinity>
6.7001585960

> <CNN_VS>
2.9906051159

> <CNNaffinity_variance>
0.0465602055

$$$$
[H]OC(=O)C([H])([H])N(C([H])([H])c1c([H])c([H])c([H])c(OC([H])([H])C([H])([H])c2nc(-c3c([H])c([H])c([H])c([H])c3[H])oc2C([H])([H])[H])c1[H])C([H])([H])c1c([H])c([H])c2c([H])c([H])c([H])c([H])c2c1[H]


 39 43  0  0  0  0  0  0  0  0999 V2000
  154.8084  138.5068  185.8631 C   0  0  0  0  0  0  0  0  0  0  0  0
  153.5055  138.7085  186.2215 C   0  0  0  0  0  0  0  0  0  0  0  0
  153.1322  138.5779  187.5379 C   0  0  0  0  0  0  0  0  0  0  0  0
  154.0224  138.2483  188.5349 C   0  0  0  0  0  0  0  0  0  0  0  0
  155.3418  138.0388  188.2081 C   0  0  0  0  0  0  0  0  0  0  0  0
  155.7017  138.1714  186.8930 C   0  0  0  0  0  0  0  0  0  0  0  0
  155.2609  138.6128  184.5895 O   0  0  0  0  0  0  0  0  0  0  0  0
  156.2496  139.3316  183.9893 C   0  0  0  0  0  0  0  0  0  0  0  0
  156.0341  140.7938  183.7801 C   0  0  0  0  0  0  0  0  0  0  0  0
  157.0291  143.0291  181.8150 C   0  0  0  0  0  0  0  0  0  0  0  0
  157.7743  142.5455  182.9913 C   0  0  0  0  0  0  0  0  0  0  0  0
  158.9507  142.9547  183.4102 O   0  0  0  0  0  0  0  0  0  0  0  0
  159.3006  142.2992  184.4886 C   0  0  0  0  0  0  0  0  0  0  0  0
  158.3006  141.4404  184.7599 N   0  0  0  0  0  0  0  0  0  0  0  0
  157.3264  141.5557  183.8556 C   0  0  0  0  0  0  0  0  0  0  0  0
  160.5266  142.4538  185.2596 C   0  0  0  0  0  0  0  0  0  0  0  0
  160.4859  142.8809  186.5704 C   0  0  0  0  0  0  0  0  0  0  0  0
  161.6440  143.0380  187.3273 C   0  0  0  0  0  0  0  0  0  0  0  0
  162.8686  142.7631  186.7635 C   0  0  0  0  0  0  0  0  0  0  0  0
  162.9348  142.3387  185.4677 C   0  0  0  0  0  0  0  0  0  0  0  0
  161.7635  142.1856  184.7201 C   0  0  0  0  0  0  0  0  0  0  0  0
  156.2958  137.6821  189.2642 C   0  0  0  0  0  0  0  0  0  0  0  0
  156.1007  136.4176  189.8880 N   0  0  0  0  0  0  0  0  0  0  0  0
  156.9507  135.4060  189.3702 C   0  0  0  0  0  0  0  0  0  0  0  0
  156.2764  134.2880  188.6973 C   0  0  0  0  0  0  0  0  0  0  0  0
  155.0783  134.2315  188.3728 O   0  0  0  0  0  0  0  0  0  0  0  0
  157.0526  133.1560  188.3804 O   0  0  0  0  0  0  0  0  0  0  0  0
  156.9105  132.2982  188.8944 H   0  0  0  0  0  0  0  0  0  0  0  0
  155.9993  136.4878  191.3153 C   0  0  0  0  0  0  0  0  0  0  0  0
  154.6465  136.4570  191.8627 C   0  0  0  0  0  0  0  0  0  0  0  0
  153.7522  137.5024  191.8609 C   0  0  0  0  0  0  0  0  0  0  0  0
  152.4874  137.3734  192.4140 C   0  0  0  0  0  0  0  0  0  0  0  0
  152.0622  136.1973  192.9911 C   0  0  0  0  0  0  0  0  0  0  0  0
  150.7971  136.1061  193.5320 C   0  0  0  0  0  0  0  0  0  0  0  0
  150.3628  134.9319  194.1135 C   0  0  0  0  0  0  0  0  0  0  0  0
  151.2353  133.8657  194.1317 C   0  0  0  0  0  0  0  0  0  0  0  0
  152.5155  133.9603  193.5833 C   0  0  0  0  0  0  0  0  0  0  0  0
  152.9470  135.1381  193.0014 C   0  0  0  0  0  0  0  0  0  0  0  0
  154.2047  135.2715  192.4496 C   0  0  0  0  0  0  0  0  0  0  0  0
 10 11  1  0  0  0
 11 12  1  0  0  0
 12 13  1  0  0  0
 13 16  1  0  0  0
 16 17  2  0  0  0
 17 18  1  0  0  0
 18 19  2  0  0  0
 19 20  1  0  0  0
 20 21  2  0  0  0
 13 14  2  0  0  0
 14 15  1  0  0  0
 15  9  1  0  0  0
  9  8  1  0  0  0
  8  7  1  0  0  0
  7  1  1  0  0  0
  1  2  2  0  0  0
  2  3  1  0  0  0
  3  4  2  0  0  0
  4  5  1  0  0  0
  5 22  1  0  0  0
 22 23  1  0  0  0
 23 24  1  0  0  0
 24 25  1  0  0  0
 25 26  2  0  0  0
 25 27  1  0  0  0
 23 29  1  0  0  0
 29 30  1  0  0  0
 30 31  2  0  0  0
 31 32  1  0  0  0
 32 33  2  0  0  0
 33 34  1  0  0  0
 34 35  2  0  0  0
 35 36  1  0  0  0
 36 37  2  0  0  0
 37 38  1  0  0  0
 38 39  2  0  0  0
  5  6  2  0  0  0
 15 11  2  0  0  0
  6  1  1  0  0  0
 21 16  1  0  0  0
 39 30  1  0  0  0
 38 33  1  0  0  0
 27 28  1  0  0  0
M  END
> <minimizedAffinity>
-9.44308

> <CNNscore>
0.3988242447

> <CNNaffinity>
6.4201126099

> <CNN_VS>
2.5604965687

> <CNNaffinity_variance>
0.1217593551

$$$$
[H]c1nc([H])c(N([H])C2([H])C([H])([H])N(C(=O)c3c(C([H])([H])[H])noc3C([H])([H])[H])C2([H])[H])c([H])c1N1C(=O)c2c([H])c([H])c(Cl)c([H])c2C([H])([H])C1([H])[H]


 33 37  0  0  0  0  0  0  0  0999 V2000
  155.4635  137.6335  186.7042 C   0  0  0  0  0  0  0  0  0  0  0  0
  154.3811  136.8414  186.2934 C   0  0  0  0  0  0  0  0  0  0  0  0
  153.7413  137.1195  185.1475 N   0  0  0  0  0  0  0  0  0  0  0  0
  154.1127  138.1587  184.3600 C   0  0  0  0  0  0  0  0  0  0  0  0
  155.1686  138.9818  184.6994 C   0  0  0  0  0  0  0  0  0  0  0  0
  155.8283  138.6846  185.8940 C   0  0  0  0  0  0  0  0  0  0  0  0
  155.5723  140.0633  183.8759 N   0  0  0  0  0  0  0  0  0  0  0  0
  154.6198  141.1282  183.6508 C   0  0  0  0  0  0  0  0  0  0  0  0
  155.2542  142.4726  183.5368 C   0  0  0  0  0  0  0  0  0  0  0  0
  156.6278  142.4404  182.9973 C   0  0  0  0  0  0  0  0  0  0  0  0
  157.1469  143.6637  182.5785 C   0  0  0  0  0  0  0  0  0  0  0  0
  158.4372  143.7453  182.0446 C   0  0  0  0  0  0  0  0  0  0  0  0
  159.1051  145.2788  181.5154 Cl  0  0  0  0  0  0  0  0  0  0  0  0
  159.2356  142.6183  181.9154 C   0  0  0  0  0  0  0  0  0  0  0  0
  158.6841  141.4168  182.3437 C   0  0  0  0  0  0  0  0  0  0  0  0
  157.4137  141.3429  182.8690 C   0  0  0  0  0  0  0  0  0  0  0  0
  156.8880  140.0548  183.3247 C   0  0  0  0  0  0  0  0  0  0  0  0
  157.5808  139.0181  183.2230 O   0  0  0  0  0  0  0  0  0  0  0  0
  156.1168  137.3047  187.9118 N   0  0  0  0  0  0  0  0  0  0  0  0
  156.6244  136.3889  187.9689 H   0  0  0  0  0  0  0  0  0  0  0  0
  153.7718  136.5591  190.9836 C   0  0  0  0  0  0  0  0  0  0  0  0
  154.5148  135.7103  191.7008 O   0  0  0  0  0  0  0  0  0  0  0  0
  154.5876  137.4837  190.3203 N   0  0  0  0  0  0  0  0  0  0  0  0
  156.0882  137.5900  190.3770 C   0  0  0  0  0  0  0  0  0  0  0  0
  156.0718  138.2298  189.0289 C   0  0  0  0  0  0  0  0  0  0  0  0
  154.6392  138.5835  189.4386 C   0  0  0  0  0  0  0  0  0  0  0  0
  152.0150  137.5468  193.3338 C   0  0  0  0  0  0  0  0  0  0  0  0
  151.5722  136.8075  192.1176 C   0  0  0  0  0  0  0  0  0  0  0  0
  150.3020  136.4637  191.8615 N   0  0  0  0  0  0  0  0  0  0  0  0
  150.2495  135.8507  190.7547 O   0  0  0  0  0  0  0  0  0  0  0  0
  151.4778  135.7547  190.2166 C   0  0  0  0  0  0  0  0  0  0  0  0
  151.7112  135.0926  188.9315 C   0  0  0  0  0  0  0  0  0  0  0  0
  152.3668  136.3501  191.0463 C   0  0  0  0  0  0  0  0  0  0  0  0
 27 28  1  0  0  0
 28 29  2  0  0  0
 29 30  1  0  0  0
 30 31  1  0  0  0
 31 32  1  0  0  0
 31 33  2  0  0  0
 33 21  1  0  0  0
 21 22  2  0  0  0
 21 23  1  0  0  0
 23 24  1  0  0  0
 24 25  1  0  0  0
 25 19  1  0  0  0
 19  1  1  0  0  0
  1  2  2  0  0  0
  2  3  1  0  0  0
  3  4  2  0  0  0
  4  5  1  0  0  0
  5  7  1  0  0  0
  7  8  1  0  0  0
  8  9  1  0  0  0
  9 10  1  0  0  0
 10 11  2  0  0  0
 11 12  1  0  0  0
 12 13  1  0  0  0
 12 14  2  0  0  0
 14 15  1  0  0  0
 15 16  2  0  0  0
 16 17  1  0  0  0
 17 18  2  0  0  0
  5  6  2  0  0  0
 25 26  1  0  0  0
 33 28  1  0  0  0
 26 23  1  0  0  0
  6  1  1  0  0  0
 17  7  1  0  0  0
 16 10  1  0  0  0
 19 20  1  0  0  0
M  END
> <minimizedAffinity>
-8.31413

> <CNNscore>
0.4763371348

> <CNNaffinity>
6.5107727051

> <CNN_VS>
3.1013228893

> <CNNaffinity_variance>
0.0021911939

$$$$
[H]c1nc([H])c(N([H])C2([H])C([H])([H])N(C(=O)c3c(C([H])([H])[H])noc3C([H])([H])[H])C2([H])[H])c([H])c1N1C(=O)c2c([H])c([H])c(Cl)c([H])c2C([H])([H])C1([H])[H]


 33 37  0  0  0  0  0  0  0  0999 V2000
  154.0545  139.7768  182.8504 C   0  0  0  0  0  0  0  0  0  0  0  0
  152.9119  139.3333  182.1680 C   0  0  0  0  0  0  0  0  0  0  0  0
  152.1522  138.3592  182.6912 N   0  0  0  0  0  0  0  0  0  0  0  0
  152.4575  137.7794  183.8781 C   0  0  0  0  0  0  0  0  0  0  0  0
  153.5662  138.1639  184.6066 C   0  0  0  0  0  0  0  0  0  0  0  0
  154.3509  139.1784  184.0538 C   0  0  0  0  0  0  0  0  0  0  0  0
  153.8865  137.5722  185.8548 N   0  0  0  0  0  0  0  0  0  0  0  0
  154.4509  136.2405  185.8417 C   0  0  0  0  0  0  0  0  0  0  0  0
  155.4527  136.0140  186.9225 C   0  0  0  0  0  0  0  0  0  0  0  0
  155.2117  136.8171  188.1373 C   0  0  0  0  0  0  0  0  0  0  0  0
  155.9130  136.4254  189.2758 C   0  0  0  0  0  0  0  0  0  0  0  0
  155.7533  137.1134  190.4833 C   0  0  0  0  0  0  0  0  0  0  0  0
  156.6314  136.6334  191.9242 Cl  0  0  0  0  0  0  0  0  0  0  0  0
  154.8970  138.1999  190.5851 C   0  0  0  0  0  0  0  0  0  0  0  0
  154.2151  138.5610  189.4293 C   0  0  0  0  0  0  0  0  0  0  0  0
  154.3770  137.8804  188.2436 C   0  0  0  0  0  0  0  0  0  0  0  0
  153.6501  138.3150  187.0495 C   0  0  0  0  0  0  0  0  0  0  0  0
  152.8694  139.2910  187.1054 O   0  0  0  0  0  0  0  0  0  0  0  0
  154.8242  140.8094  182.2721 N   0  0  0  0  0  0  0  0  0  0  0  0
  155.4328  140.5753  181.4509 H   0  0  0  0  0  0  0  0  0  0  0  0
  158.1227  142.8969  182.7760 C   0  0  0  0  0  0  0  0  0  0  0  0
  158.3266  143.3939  181.5520 O   0  0  0  0  0  0  0  0  0  0  0  0
  156.7516  142.7782  183.0340 N   0  0  0  0  0  0  0  0  0  0  0  0
  155.6111  143.1588  182.1280 C   0  0  0  0  0  0  0  0  0  0  0  0
  154.7544  142.1514  182.8197 C   0  0  0  0  0  0  0  0  0  0  0  0
  155.7605  142.3742  183.9527 C   0  0  0  0  0  0  0  0  0  0  0  0
  160.1381  145.0684  183.6747 C   0  0  0  0  0  0  0  0  0  0  0  0
  160.2068  143.6024  183.9355 C   0  0  0  0  0  0  0  0  0  0  0  0
  161.1843  143.0022  184.6293 N   0  0  0  0  0  0  0  0  0  0  0  0
  160.9583  141.7572  184.6789 O   0  0  0  0  0  0  0  0  0  0  0  0
  159.8218  141.4635  184.0234 C   0  0  0  0  0  0  0  0  0  0  0  0
  159.3174  140.0924  183.9230 C   0  0  0  0  0  0  0  0  0  0  0  0
  159.2959  142.6073  183.5251 C   0  0  0  0  0  0  0  0  0  0  0  0
 27 28  1  0  0  0
 28 29  2  0  0  0
 29 30  1  0  0  0
 30 31  1  0  0  0
 31 32  1  0  0  0
 31 33  2  0  0  0
 33 21  1  0  0  0
 21 22  2  0  0  0
 21 23  1  0  0  0
 23 24  1  0  0  0
 24 25  1  0  0  0
 25 19  1  0  0  0
 19  1  1  0  0  0
  1  2  2  0  0  0
  2  3  1  0  0  0
  3  4  2  0  0  0
  4  5  1  0  0  0
  5  7  1  0  0  0
  7  8  1  0  0  0
  8  9  1  0  0  0
  9 10  1  0  0  0
 10 11  2  0  0  0
 11 12  1  0  0  0
 12 13  1  0  0  0
 12 14  2  0  0  0
 14 15  1  0  0  0
 15 16  2  0  0  0
 16 17  1  0  0  0
 17 18  2  0  0  0
  5  6  2  0  0  0
 25 26  1  0  0  0
 33 28  1  0  0  0
 26 23  1  0  0  0
  6  1  1  0  0  0
 17  7  1  0  0  0
 16 10  1  0  0  0
 19 20  1  0  0  0
M  END
> <minimizedAffinity>
-9.31088

> <CNNscore>
0.4523810744

> <CNNaffinity>
6.9156637192

> <CNN_VS>
3.1285154819

> <CNNaffinity_variance>
0.0853785351

$$$$
[H]c1nc([H])c(N([H])C2([H])C([H])([H])N(C(=O)c3c(C([H])([H])[H])noc3C([H])([H])[H])C2([H])[H])c([H])c1N1C(=O)c2c([H])c([H])c(Cl)c([H])c2C([H])([H])C1([H])[H]


 33 37  0  0  0  0  0  0  0  0999 V2000
  154.3669  139.5264  183.1717 C   0  0  0  0  0  0  0  0  0  0  0  0
  153.1909  139.1519  182.5049 C   0  0  0  0  0  0  0  0  0  0  0  0
  152.3768  138.2316  183.0433 N   0  0  0  0  0  0  0  0  0  0  0  0
  152.6579  137.6416  184.2312 C   0  0  0  0  0  0  0  0  0  0  0  0
  153.7967  137.9597  184.9449 C   0  0  0  0  0  0  0  0  0  0  0  0
  154.6381  138.9185  184.3763 C   0  0  0  0  0  0  0  0  0  0  0  0
  154.0927  137.3572  186.1940 N   0  0  0  0  0  0  0  0  0  0  0  0
  154.6221  136.0112  186.1818 C   0  0  0  0  0  0  0  0  0  0  0  0
  155.6100  135.7562  187.2690 C   0  0  0  0  0  0  0  0  0  0  0  0
  155.3817  136.5628  188.4839 C   0  0  0  0  0  0  0  0  0  0  0  0
  156.0645  136.1505  189.6263 C   0  0  0  0  0  0  0  0  0  0  0  0
  155.9145  136.8400  190.8342 C   0  0  0  0  0  0  0  0  0  0  0  0
  156.7697  136.3341  192.2801 Cl  0  0  0  0  0  0  0  0  0  0  0  0
  155.0864  137.9484  190.9325 C   0  0  0  0  0  0  0  0  0  0  0  0
  154.4223  138.3296  189.7729 C   0  0  0  0  0  0  0  0  0  0  0  0
  154.5744  137.6474  188.5867 C   0  0  0  0  0  0  0  0  0  0  0  0
  153.8676  138.1035  187.3887 C   0  0  0  0  0  0  0  0  0  0  0  0
  153.1124  139.0995  187.4414 O   0  0  0  0  0  0  0  0  0  0  0  0
  155.1942  140.5041  182.5775 N   0  0  0  0  0  0  0  0  0  0  0  0
  155.9369  140.1869  181.9088 H   0  0  0  0  0  0  0  0  0  0  0  0
  158.2928  142.9223  182.7819 C   0  0  0  0  0  0  0  0  0  0  0  0
  158.4873  143.2339  181.4967 O   0  0  0  0  0  0  0  0  0  0  0  0
  156.9300  142.7281  183.0378 N   0  0  0  0  0  0  0  0  0  0  0  0
  155.7863  142.8597  182.0677 C   0  0  0  0  0  0  0  0  0  0  0  0
  154.9984  141.9050  182.9013 C   0  0  0  0  0  0  0  0  0  0  0  0
  155.9518  142.3914  183.9966 C   0  0  0  0  0  0  0  0  0  0  0  0
  159.3802  140.2854  183.9859 C   0  0  0  0  0  0  0  0  0  0  0  0
  159.9580  141.6525  184.1238 C   0  0  0  0  0  0  0  0  0  0  0  0
  161.0757  141.9362  184.8074 N   0  0  0  0  0  0  0  0  0  0  0  0
  161.3060  143.1793  184.7352 O   0  0  0  0  0  0  0  0  0  0  0  0
  160.3573  143.7871  184.0015 C   0  0  0  0  0  0  0  0  0  0  0  0
  160.3765  145.2299  183.7520 C   0  0  0  0  0  0  0  0  0  0  0  0
  159.4657  142.8581  183.5831 C   0  0  0  0  0  0  0  0  0  0  0  0
 27 28  1  0  0  0
 28 29  2  0  0  0
 29 30  1  0  0  0
 30 31  1  0  0  0
 31 32  1  0  0  0
 31 33  2  0  0  0
 33 21  1  0  0  0
 21 22  2  0  0  0
 21 23  1  0  0  0
 23 24  1  0  0  0
 24 25  1  0  0  0
 25 19  1  0  0  0
 19  1  1  0  0  0
  1  2  2  0  0  0
  2  3  1  0  0  0
  3  4  2  0  0  0
  4  5  1  0  0  0
  5  7  1  0  0  0
  7  8  1  0  0  0
  8  9  1  0  0  0
  9 10  1  0  0  0
 10 11  2  0  0  0
 11 12  1  0  0  0
 12 13  1  0  0  0
 12 14  2  0  0  0
 14 15  1  0  0  0
 15 16  2  0  0  0
 16 17  1  0  0  0
 17 18  2  0  0  0
  5  6  2  0  0  0
 25 26  1  0  0  0
 33 28  1  0  0  0
 26 23  1  0  0  0
  6  1  1  0  0  0
 17  7  1  0  0  0
 16 10  1  0  0  0
 19 20  1  0  0  0
M  END
> <minimizedAffinity>
-9.30881

> <CNNscore>
0.4328125417

> <CNNaffinity>
6.8536858559

> <CNN_VS>
2.9663612843

> <CNNaffinity_variance>
0.0500782132

$$$$
[H]c1nc([H])c(N([H])C2([H])C([H])([H])N(C(=O)c3c(C([H])([H])[H])noc3C([H])([H])[H])C2([H])[H])c([H])c1N1C(=O)c2c([H])c([H])c(Cl)c([H])c2C([H])([H])C1([H])[H]


 33 37  0  0  0  0  0  0  0  0999 V2000
  154.2753  138.1470  184.5229 C   0  0  0  0  0  0  0  0  0  0  0  0
  155.3113  139.0843  184.3965 C   0  0  0  0  0  0  0  0  0  0  0  0
  155.2369  140.0470  183.4651 N   0  0  0  0  0  0  0  0  0  0  0  0
  154.1753  140.1455  182.6277 C   0  0  0  0  0  0  0  0  0  0  0  0
  153.1181  139.2591  182.6930 C   0  0  0  0  0  0  0  0  0  0  0  0
  153.2046  138.2605  183.6655 C   0  0  0  0  0  0  0  0  0  0  0  0
  151.9977  139.3618  181.8299 N   0  0  0  0  0  0  0  0  0  0  0  0
  152.0430  140.3627  180.7867 C   0  0  0  0  0  0  0  0  0  0  0  0
  151.3613  139.9369  179.5310 C   0  0  0  0  0  0  0  0  0  0  0  0
  150.2476  138.9925  179.7474 C   0  0  0  0  0  0  0  0  0  0  0  0
  149.3869  138.8076  178.6673 C   0  0  0  0  0  0  0  0  0  0  0  0
  148.2944  137.9398  178.7670 C   0  0  0  0  0  0  0  0  0  0  0  0
  147.2037  137.6949  177.4149 Cl  0  0  0  0  0  0  0  0  0  0  0  0
  148.0345  137.2407  179.9366 C   0  0  0  0  0  0  0  0  0  0  0  0
  148.9143  137.4507  180.9916 C   0  0  0  0  0  0  0  0  0  0  0  0
  149.9883  138.3056  180.8873 C   0  0  0  0  0  0  0  0  0  0  0  0
  150.8970  138.4751  182.0225 C   0  0  0  0  0  0  0  0  0  0  0  0
  150.6925  137.8603  183.0927 O   0  0  0  0  0  0  0  0  0  0  0  0
  154.3856  137.1538  185.5201 N   0  0  0  0  0  0  0  0  0  0  0  0
  155.0734  136.3761  185.3731 H   0  0  0  0  0  0  0  0  0  0  0  0
  156.0183  136.7645  189.0802 C   0  0  0  0  0  0  0  0  0  0  0  0
  156.4842  137.9964  189.3083 O   0  0  0  0  0  0  0  0  0  0  0  0
  154.8424  136.8185  188.3220 N   0  0  0  0  0  0  0  0  0  0  0  0
  154.1287  138.0460  187.8217 C   0  0  0  0  0  0  0  0  0  0  0  0
  153.5568  137.2329  186.7086 C   0  0  0  0  0  0  0  0  0  0  0  0
  153.8217  136.0828  187.6845 C   0  0  0  0  0  0  0  0  0  0  0  0
  155.7806  135.8670  192.0337 C   0  0  0  0  0  0  0  0  0  0  0  0
  156.6686  135.2976  190.9805 C   0  0  0  0  0  0  0  0  0  0  0  0
  157.5119  134.2737  191.1740 N   0  0  0  0  0  0  0  0  0  0  0  0
  158.1211  134.0233  190.0925 O   0  0  0  0  0  0  0  0  0  0  0  0
  157.7166  134.8641  189.1245 C   0  0  0  0  0  0  0  0  0  0  0  0
  158.2573  134.7984  187.7652 C   0  0  0  0  0  0  0  0  0  0  0  0
  156.7860  135.7044  189.6355 C   0  0  0  0  0  0  0  0  0  0  0  0
 27 28  1  0  0  0
 28 29  2  0  0  0
 29 30  1  0  0  0
 30 31  1  0  0  0
 31 32  1  0  0  0
 31 33  2  0  0  0
 33 21  1  0  0  0
 21 22  2  0  0  0
 21 23  1  0  0  0
 23 24  1  0  0  0
 24 25  1  0  0  0
 25 19  1  0  0  0
 19  1  1  0  0  0
  1  2  2  0  0  0
  2  3  1  0  0  0
  3  4  2  0  0  0
  4  5  1  0  0  0
  5  7  1  0  0  0
  7  8  1  0  0  0
  8  9  1  0  0  0
  9 10  1  0  0  0
 10 11  2  0  0  0
 11 12  1  0  0  0
 12 13  1  0  0  0
 12 14  2  0  0  0
 14 15  1  0  0  0
 15 16  2  0  0  0
 16 17  1  0  0  0
 17 18  2  0  0  0
  5  6  2  0  0  0
 25 26  1  0  0  0
 33 28  1  0  0  0
 26 23  1  0  0  0
  6  1  1  0  0  0
 17  7  1  0  0  0
 16 10  1  0  0  0
 19 20  1  0  0  0
M  END
> <minimizedAffinity>
-7.99148

> <CNNscore>
0.3519104123

> <CNNaffinity>
5.6564798355

> <CNN_VS>
1.9905741215

> <CNNaffinity_variance>
0.0556993894

$$$$
[H]c1nc([H])c(N([H])C2([H])C([H])([H])N(C(=O)c3c(C([H])([H])[H])noc3C([H])([H])[H])C2([H])[H])c([H])c1N1C(=O)c2c([H])c([H])c(Cl)c([H])c2C([H])([H])C1([H])[H]


 33 37  0  0  0  0  0  0  0  0999 V2000
  153.5008  136.7700  185.2108 C   0  0  0  0  0  0  0  0  0  0  0  0
  153.5372  136.6021  186.6030 C   0  0  0  0  0  0  0  0  0  0  0  0
  154.3766  137.3380  187.3471 N   0  0  0  0  0  0  0  0  0  0  0  0
  155.2049  138.2543  186.7883 C   0  0  0  0  0  0  0  0  0  0  0  0
  155.2246  138.4749  185.4250 C   0  0  0  0  0  0  0  0  0  0  0  0
  154.3476  137.7041  184.6587 C   0  0  0  0  0  0  0  0  0  0  0  0
  156.0784  139.4399  184.8329 N   0  0  0  0  0  0  0  0  0  0  0  0
  157.4925  139.3549  185.1246 C   0  0  0  0  0  0  0  0  0  0  0  0
  158.3564  139.7562  183.9777 C   0  0  0  0  0  0  0  0  0  0  0  0
  157.7370  140.7553  183.0850 C   0  0  0  0  0  0  0  0  0  0  0  0
  158.5975  141.3925  182.1934 C   0  0  0  0  0  0  0  0  0  0  0  0
  158.1158  142.3618  181.3073 C   0  0  0  0  0  0  0  0  0  0  0  0
  159.1868  143.1706  180.1774 Cl  0  0  0  0  0  0  0  0  0  0  0  0
  156.7752  142.7175  181.2884 C   0  0  0  0  0  0  0  0  0  0  0  0
  155.9479  142.0608  182.1915 C   0  0  0  0  0  0  0  0  0  0  0  0
  156.4277  141.1071  183.0608 C   0  0  0  0  0  0  0  0  0  0  0  0
  155.5094  140.4302  183.9781 C   0  0  0  0  0  0  0  0  0  0  0  0
  154.2939  140.7263  183.9881 O   0  0  0  0  0  0  0  0  0  0  0  0
  152.5986  135.9833  184.4623 N   0  0  0  0  0  0  0  0  0  0  0  0
  152.9901  135.2452  183.8287 H   0  0  0  0  0  0  0  0  0  0  0  0
  150.5171  137.1535  181.3335 C   0  0  0  0  0  0  0  0  0  0  0  0
  150.2896  135.9971  180.7029 O   0  0  0  0  0  0  0  0  0  0  0  0
  150.5526  136.9567  182.7193 N   0  0  0  0  0  0  0  0  0  0  0  0
  150.3465  135.6672  183.4685 C   0  0  0  0  0  0  0  0  0  0  0  0
  151.1709  136.2112  184.5873 C   0  0  0  0  0  0  0  0  0  0  0  0
  150.7371  137.5508  183.9852 C   0  0  0  0  0  0  0  0  0  0  0  0
  148.4965  137.8980  179.1091 C   0  0  0  0  0  0  0  0  0  0  0  0
  149.7401  138.6276  179.4870 C   0  0  0  0  0  0  0  0  0  0  0  0
  150.1653  139.7542  178.8980 N   0  0  0  0  0  0  0  0  0  0  0  0
  151.2451  140.1293  179.4426 O   0  0  0  0  0  0  0  0  0  0  0  0
  151.5949  139.2754  180.4204 C   0  0  0  0  0  0  0  0  0  0  0  0
  152.8057  139.4682  181.2212 C   0  0  0  0  0  0  0  0  0  0  0  0
  150.6675  138.2918  180.4948 C   0  0  0  0  0  0  0  0  0  0  0  0
 27 28  1  0  0  0
 28 29  2  0  0  0
 29 30  1  0  0  0
 30 31  1  0  0  0
 31 32  1  0  0  0
 31 33  2  0  0  0
 33 21  1  0  0  0
 21 22  2  0  0  0
 21 23  1  0  0  0
 23 24  1  0  0  0
 24 25  1  0  0  0
 25 19  1  0  0  0
 19  1  1  0  0  0
  1  2  2  0  0  0
  2  3  1  0  0  0
  3  4  2  0  0  0
  4  5  1  0  0  0
  5  7  1  0  0  0
  7  8  1  0  0  0
  8  9  1  0  0  0
  9 10  1  0  0  0
 10 11  2  0  0  0
 11 12  1  0  0  0
 12 13  1  0  0  0
 12 14  2  0  0  0
 14 15  1  0  0  0
 15 16  2  0  0  0
 16 17  1  0  0  0
 17 18  2  0  0  0
  5  6  2  0  0  0
 25 26  1  0  0  0
 33 28  1  0  0  0
 26 23  1  0  0  0
  6  1  1  0  0  0
 17  7  1  0  0  0
 16 10  1  0  0  0
 19 20  1  0  0  0
M  END
> <minimizedAffinity>
-7.24029

> <CNNscore>
0.3365570903

> <CNNaffinity>
6.3619637489

> <CNN_VS>
2.1411640644

> <CNNaffinity_variance>
0.0624371059

$$$$
[H]c1nc([H])c(N([H])C2([H])C([H])([H])N(C(=O)c3c(C([H])([H])[H])noc3C([H])([H])[H])C2([H])[H])c([H])c1N1C(=O)c2c([H])c([H])c(Cl)c([H])c2C([H])([H])C1([H])[H]


 33 37  0  0  0  0  0  0  0  0999 V2000
  154.8745  138.3008  185.5364 C   0  0  0  0  0  0  0  0  0  0  0  0
  156.0644  138.9913  185.2625 C   0  0  0  0  0  0  0  0  0  0  0  0
  156.1507  139.7786  184.1797 N   0  0  0  0  0  0  0  0  0  0  0  0
  155.1079  139.9315  183.3269 C   0  0  0  0  0  0  0  0  0  0  0  0
  153.9053  139.2839  183.5318 C   0  0  0  0  0  0  0  0  0  0  0  0
  153.8251  138.4664  184.6614 C   0  0  0  0  0  0  0  0  0  0  0  0
  152.8051  139.4475  182.6524 N   0  0  0  0  0  0  0  0  0  0  0  0
  152.7794  140.6313  181.8218 C   0  0  0  0  0  0  0  0  0  0  0  0
  152.1792  140.3956  180.4774 C   0  0  0  0  0  0  0  0  0  0  0  0
  151.1600  139.3281  180.4579 C   0  0  0  0  0  0  0  0  0  0  0  0
  150.3529  139.2769  179.3233 C   0  0  0  0  0  0  0  0  0  0  0  0
  149.3502  138.3087  179.2049 C   0  0  0  0  0  0  0  0  0  0  0  0
  148.3280  138.2303  177.7813 Cl  0  0  0  0  0  0  0  0  0  0  0  0
  149.1287  137.3753  180.2068 C   0  0  0  0  0  0  0  0  0  0  0  0
  149.9530  137.4575  181.3225 C   0  0  0  0  0  0  0  0  0  0  0  0
  150.9387  138.4123  181.4331 C   0  0  0  0  0  0  0  0  0  0  0  0
  151.7935  138.4422  182.6211 C   0  0  0  0  0  0  0  0  0  0  0  0
  151.6215  137.6154  183.5441 O   0  0  0  0  0  0  0  0  0  0  0  0
  154.8191  137.4883  186.6897 N   0  0  0  0  0  0  0  0  0  0  0  0
  154.3702  136.5439  186.6113 H   0  0  0  0  0  0  0  0  0  0  0  0
  153.4024  136.1694  190.1167 C   0  0  0  0  0  0  0  0  0  0  0  0
  154.0546  135.0114  190.2597 O   0  0  0  0  0  0  0  0  0  0  0  0
  154.2065  137.1057  189.4555 N   0  0  0  0  0  0  0  0  0  0  0  0
  155.6194  136.9213  188.9695 C   0  0  0  0  0  0  0  0  0  0  0  0
  155.3784  137.9726  187.9381 C   0  0  0  0  0  0  0  0  0  0  0  0
  154.2989  138.4120  188.9315 C   0  0  0  0  0  0  0  0  0  0  0  0
  150.9442  135.0357  188.6142 C   0  0  0  0  0  0  0  0  0  0  0  0
  150.9693  135.6784  189.9589 C   0  0  0  0  0  0  0  0  0  0  0  0
  149.8901  135.8521  190.7349 N   0  0  0  0  0  0  0  0  0  0  0  0
  150.2362  136.4218  191.8115 O   0  0  0  0  0  0  0  0  0  0  0  0
  151.5601  136.6564  191.8098 C   0  0  0  0  0  0  0  0  0  0  0  0
  152.2335  137.3057  192.9363 C   0  0  0  0  0  0  0  0  0  0  0  0
  152.0835  136.2015  190.6469 C   0  0  0  0  0  0  0  0  0  0  0  0
 27 28  1  0  0  0
 28 29  2  0  0  0
 29 30  1  0  0  0
 30 31  1  0  0  0
 31 32  1  0  0  0
 31 33  2  0  0  0
 33 21  1  0  0  0
 21 22  2  0  0  0
 21 23  1  0  0  0
 23 24  1  0  0  0
 24 25  1  0  0  0
 25 19  1  0  0  0
 19  1  1  0  0  0
  1  2  2  0  0  0
  2  3  1  0  0  0
  3  4  2  0  0  0
  4  5  1  0  0  0
  5  7  1  0  0  0
  7  8  1  0  0  0
  8  9  1  0  0  0
  9 10  1  0  0  0
 10 11  2  0  0  0
 11 12  1  0  0  0
 12 13  1  0  0  0
 12 14  2  0  0  0
 14 15  1  0  0  0
 15 16  2  0  0  0
 16 17  1  0  0  0
 17 18  2  0  0  0
  5  6  2  0  0  0
 25 26  1  0  0  0
 33 28  1  0  0  0
 26 23  1  0  0  0
  6  1  1  0  0  0
 17  7  1  0  0  0
 16 10  1  0  0  0
 19 20  1  0  0  0
M  END
> <minimizedAffinity>
-7.92385

> <CNNscore>
0.3090620935

> <CNNaffinity>
5.8051309586

> <CNN_VS>
1.7941459417

> <CNNaffinity_variance>
0.0906787142

$$$$
[H]c1nc([H])c(N([H])C2([H])C([H])([H])N(C(=O)c3c(C([H])([H])[H])noc3C([H])([H])[H])C2([H])[H])c([H])c1N1C(=O)c2c([H])c([H])c(Cl)c([H])c2C([H])([H])C1([H])[H]


 33 37  0  0  0  0  0  0  0  0999 V2000
  154.0546  138.0300  185.8272 C   0  0  0  0  0  0  0  0  0  0  0  0
  152.9855  137.3649  185.2088 C   0  0  0  0  0  0  0  0  0  0  0  0
  152.6079  137.7076  183.9680 N   0  0  0  0  0  0  0  0  0  0  0  0
  153.2365  138.6924  183.2801 C   0  0  0  0  0  0  0  0  0  0  0  0
  154.2967  139.3909  183.8239 C   0  0  0  0  0  0  0  0  0  0  0  0
  154.6823  139.0271  185.1160 C   0  0  0  0  0  0  0  0  0  0  0  0
  154.9684  140.4138  183.1074 N   0  0  0  0  0  0  0  0  0  0  0  0
  154.1638  141.4650  182.5247 C   0  0  0  0  0  0  0  0  0  0  0  0
  154.8347  142.7965  182.5366 C   0  0  0  0  0  0  0  0  0  0  0  0
  156.3073  142.7232  182.4671 C   0  0  0  0  0  0  0  0  0  0  0  0
  156.9629  143.9141  182.1614 C   0  0  0  0  0  0  0  0  0  0  0  0
  158.3577  143.9551  182.0635 C   0  0  0  0  0  0  0  0  0  0  0  0
  159.1972  145.4475  181.6819 Cl  0  0  0  0  0  0  0  0  0  0  0  0
  159.1274  142.8190  182.2659 C   0  0  0  0  0  0  0  0  0  0  0  0
  158.4386  141.6506  182.5688 C   0  0  0  0  0  0  0  0  0  0  0  0
  157.0657  141.6166  182.6644 C   0  0  0  0  0  0  0  0  0  0  0  0
  156.3904  140.3637  183.0068 C   0  0  0  0  0  0  0  0  0  0  0  0
  157.0536  139.3198  183.1958 O   0  0  0  0  0  0  0  0  0  0  0  0
  154.4279  137.6356  187.1304 N   0  0  0  0  0  0  0  0  0  0  0  0
  155.0932  136.8319  187.2350 H   0  0  0  0  0  0  0  0  0  0  0  0
  154.8834  136.1456  190.7448 C   0  0  0  0  0  0  0  0  0  0  0  0
  156.1182  136.5501  191.0584 O   0  0  0  0  0  0  0  0  0  0  0  0
  154.2498  137.0928  189.9313 N   0  0  0  0  0  0  0  0  0  0  0  0
  154.8008  138.4115  189.4582 C   0  0  0  0  0  0  0  0  0  0  0  0
  153.8904  138.3433  188.2776 C   0  0  0  0  0  0  0  0  0  0  0  0
  153.0872  137.4279  189.2062 C   0  0  0  0  0  0  0  0  0  0  0  0
  152.7276  135.8436  192.9462 C   0  0  0  0  0  0  0  0  0  0  0  0
  153.5060  134.7591  192.2831 C   0  0  0  0  0  0  0  0  0  0  0  0
  153.3671  133.4536  192.5540 N   0  0  0  0  0  0  0  0  0  0  0  0
  154.1623  132.7885  191.8268 O   0  0  0  0  0  0  0  0  0  0  0  0
  154.8703  133.6132  191.0354 C   0  0  0  0  0  0  0  0  0  0  0  0
  155.8670  133.1111  190.0874 C   0  0  0  0  0  0  0  0  0  0  0  0
  154.4926  134.8894  191.2840 C   0  0  0  0  0  0  0  0  0  0  0  0
 27 28  1  0  0  0
 28 29  2  0  0  0
 29 30  1  0  0  0
 30 31  1  0  0  0
 31 32  1  0  0  0
 31 33  2  0  0  0
 33 21  1  0  0  0
 21 22  2  0  0  0
 21 23  1  0  0  0
 23 24  1  0  0  0
 24 25  1  0  0  0
 25 19  1  0  0  0
 19  1  1  0  0  0
  1  2  2  0  0  0
  2  3  1  0  0  0
  3  4  2  0  0  0
  4  5  1  0  0  0
  5  7  1  0  0  0
  7  8  1  0  0  0
  8  9  1  0  0  0
  9 10  1  0  0  0
 10 11  2  0  0  0
 11 12  1  0  0  0
 12 13  1  0  0  0
 12 14  2  0  0  0
 14 15  1  0  0  0
 15 16  2  0  0  0
 16 17  1  0  0  0
 17 18  2  0  0  0
  5  6  2  0  0  0
 25 26  1  0  0  0
 33 28  1  0  0  0
 26 23  1  0  0  0
  6  1  1  0  0  0
 17  7  1  0  0  0
 16 10  1  0  0  0
 19 20  1  0  0  0
M  END
> <minimizedAffinity>
-7.83816

> <CNNscore>
0.2714924812

> <CNNaffinity>
6.2128229141

> <CNN_VS>
1.6867346764

> <CNNaffinity_variance>
0.0404693969

$$$$
[H]c1nc([H])c(N([H])C2([H])C([H])([H])N(C(=O)c3c(C([H])([H])[H])noc3C([H])([H])[H])C2([H])[H])c([H])c1N1C(=O)c2c([H])c([H])c(Cl)c([H])c2C([H])([H])C1([H])[H]


 33 37  0  0  0  0  0  0  0  0999 V2000
  155.2705  138.1726  186.2300 C   0  0  0  0  0  0  0  0  0  0  0  0
  153.9651  138.1846  185.7167 C   0  0  0  0  0  0  0  0  0  0  0  0
  153.6955  138.8452  184.5806 N   0  0  0  0  0  0  0  0  0  0  0  0
  154.6598  139.5130  183.9006 C   0  0  0  0  0  0  0  0  0  0  0  0
  155.9672  139.5454  184.3447 C   0  0  0  0  0  0  0  0  0  0  0  0
  156.2380  138.8550  185.5282 C   0  0  0  0  0  0  0  0  0  0  0  0
  156.9849  140.2305  183.6336 N   0  0  0  0  0  0  0  0  0  0  0  0
  158.0599  139.4418  183.0729 C   0  0  0  0  0  0  0  0  0  0  0  0
  158.5680  139.9745  181.7764 C   0  0  0  0  0  0  0  0  0  0  0  0
  158.4340  141.4381  181.6391 C   0  0  0  0  0  0  0  0  0  0  0  0
  159.1633  142.0225  180.6057 C   0  0  0  0  0  0  0  0  0  0  0  0
  159.1140  143.4039  180.3911 C   0  0  0  0  0  0  0  0  0  0  0  0
  160.0247  144.1535  179.0924 Cl  0  0  0  0  0  0  0  0  0  0  0  0
  158.3431  144.2305  181.1951 C   0  0  0  0  0  0  0  0  0  0  0  0
  157.6299  143.6119  182.2149 C   0  0  0  0  0  0  0  0  0  0  0  0
  157.6819  142.2516  182.4208 C   0  0  0  0  0  0  0  0  0  0  0  0
  156.8945  141.6475  183.4970 C   0  0  0  0  0  0  0  0  0  0  0  0
  156.1883  142.3632  184.2414 O   0  0  0  0  0  0  0  0  0  0  0  0
  155.5169  137.4597  187.4234 N   0  0  0  0  0  0  0  0  0  0  0  0
  155.4869  136.4120  187.3917 H   0  0  0  0  0  0  0  0  0  0  0  0
  153.6906  136.4638  190.7647 C   0  0  0  0  0  0  0  0  0  0  0  0
  154.4285  135.4327  191.1879 O   0  0  0  0  0  0  0  0  0  0  0  0
  154.4907  137.3944  190.0907 N   0  0  0  0  0  0  0  0  0  0  0  0
  155.9768  137.3293  189.8587 C   0  0  0  0  0  0  0  0  0  0  0  0
  155.8030  138.1840  188.6478 C   0  0  0  0  0  0  0  0  0  0  0  0
  154.5311  138.6145  189.3841 C   0  0  0  0  0  0  0  0  0  0  0  0
  151.6012  135.1010  188.9310 C   0  0  0  0  0  0  0  0  0  0  0  0
  151.3601  135.7709  190.2405 C   0  0  0  0  0  0  0  0  0  0  0  0
  150.1602  135.8710  190.8298 N   0  0  0  0  0  0  0  0  0  0  0  0
  150.2837  136.4892  191.9281 O   0  0  0  0  0  0  0  0  0  0  0  0
  151.5684  136.8320  192.1278 C   0  0  0  0  0  0  0  0  0  0  0  0
  151.9997  137.5574  193.3245 C   0  0  0  0  0  0  0  0  0  0  0  0
  152.3053  136.3980  191.0782 C   0  0  0  0  0  0  0  0  0  0  0  0
 27 28  1  0  0  0
 28 29  2  0  0  0
 29 30  1  0  0  0
 30 31  1  0  0  0
 31 32  1  0  0  0
 31 33  2  0  0  0
 33 21  1  0  0  0
 21 22  2  0  0  0
 21 23  1  0  0  0
 23 24  1  0  0  0
 24 25  1  0  0  0
 25 19  1  0  0  0
 19  1  1  0  0  0
  1  2  2  0  0  0
  2  3  1  0  0  0
  3  4  2  0  0  0
  4  5  1  0  0  0
  5  7  1  0  0  0
  7  8  1  0  0  0
  8  9  1  0  0  0
  9 10  1  0  0  0
 10 11  2  0  0  0
 11 12  1  0  0  0
 12 13  1  0  0  0
 12 14  2  0  0  0
 14 15  1  0  0  0
 15 16  2  0  0  0
 16 17  1  0  0  0
 17 18  2  0  0  0
  5  6  2  0  0  0
 25 26  1  0  0  0
 33 28  1  0  0  0
 26 23  1  0  0  0
  6  1  1  0  0  0
 17  7  1  0  0  0
 16 10  1  0  0  0
 19 20  1  0  0  0
M  END
> <minimizedAffinity>
-9.10640

> <CNNscore>
0.2684006393

> <CNNaffinity>
6.1560525894

> <CNN_VS>
1.6522884369

> <CNNaffinity_variance>
0.0230998732

$$$$
[H]c1nc([H])c(N([H])C2([H])C([H])([H])N(C(=O)c3c(C([H])([H])[H])noc3C([H])([H])[H])C2([H])[H])c([H])c1N1C(=O)c2c([H])c([H])c(Cl)c([H])c2C([H])([H])C1([H])[H]


 33 37  0  0  0  0  0  0  0  0999 V2000
  154.5583  137.9137  185.7209 C   0  0  0  0  0  0  0  0  0  0  0  0
  153.3650  137.3625  185.2310 C   0  0  0  0  0  0  0  0  0  0  0  0
  152.8199  137.8367  184.1006 N   0  0  0  0  0  0  0  0  0  0  0  0
  153.3941  138.8483  183.4043 C   0  0  0  0  0  0  0  0  0  0  0  0
  154.5691  139.4400  183.8251 C   0  0  0  0  0  0  0  0  0  0  0  0
  155.1289  138.9397  185.0028 C   0  0  0  0  0  0  0  0  0  0  0  0
  155.1838  140.4899  183.0968 N   0  0  0  0  0  0  0  0  0  0  0  0
  154.3405  141.5704  182.6349 C   0  0  0  0  0  0  0  0  0  0  0  0
  155.0223  142.8963  182.6449 C   0  0  0  0  0  0  0  0  0  0  0  0
  156.4821  142.8181  182.4407 C   0  0  0  0  0  0  0  0  0  0  0  0
  157.1190  144.0177  182.1299 C   0  0  0  0  0  0  0  0  0  0  0  0
  158.4999  144.0553  181.9094 C   0  0  0  0  0  0  0  0  0  0  0  0
  159.3160  145.5587  181.5197 Cl  0  0  0  0  0  0  0  0  0  0  0  0
  159.2738  142.9072  181.9922 C   0  0  0  0  0  0  0  0  0  0  0  0
  158.6038  141.7303  182.3042 C   0  0  0  0  0  0  0  0  0  0  0  0
  157.2445  141.6997  182.5208 C   0  0  0  0  0  0  0  0  0  0  0  0
  156.5907  140.4365  182.8672 C   0  0  0  0  0  0  0  0  0  0  0  0
  157.2582  139.3817  182.9502 O   0  0  0  0  0  0  0  0  0  0  0  0
  155.1058  137.3826  186.9090 N   0  0  0  0  0  0  0  0  0  0  0  0
  156.0161  137.7720  187.2542 H   0  0  0  0  0  0  0  0  0  0  0  0
  157.1444  134.5679  188.7563 C   0  0  0  0  0  0  0  0  0  0  0  0
  157.4460  135.1593  189.9165 O   0  0  0  0  0  0  0  0  0  0  0  0
  155.9000  135.0095  188.2907 N   0  0  0  0  0  0  0  0  0  0  0  0
  154.9651  135.9848  188.9549 C   0  0  0  0  0  0  0  0  0  0  0  0
  154.4044  136.3263  187.6146 C   0  0  0  0  0  0  0  0  0  0  0  0
  154.9368  134.9340  187.2631 C   0  0  0  0  0  0  0  0  0  0  0  0
  156.5837  131.5463  188.3816 C   0  0  0  0  0  0  0  0  0  0  0  0
  157.8493  132.2777  188.0901 C   0  0  0  0  0  0  0  0  0  0  0  0
  158.9578  131.7060  187.5987 N   0  0  0  0  0  0  0  0  0  0  0  0
  159.8563  132.5872  187.4589 O   0  0  0  0  0  0  0  0  0  0  0  0
  159.3951  133.7887  187.8480 C   0  0  0  0  0  0  0  0  0  0  0  0
  160.2259  134.9932  187.7913 C   0  0  0  0  0  0  0  0  0  0  0  0
  158.1137  133.6519  188.2632 C   0  0  0  0  0  0  0  0  0  0  0  0
 27 28  1  0  0  0
 28 29  2  0  0  0
 29 30  1  0  0  0
 30 31  1  0  0  0
 31 32  1  0  0  0
 31 33  2  0  0  0
 33 21  1  0  0  0
 21 22  2  0  0  0
 21 23  1  0  0  0
 23 24  1  0  0  0
 24 25  1  0  0  0
 25 19  1  0  0  0
 19  1  1  0  0  0
  1  2  2  0  0  0
  2  3  1  0  0  0
  3  4  2  0  0  0
  4  5  1  0  0  0
  5  7  1  0  0  0
  7  8  1  0  0  0
  8  9  1  0  0  0
  9 10  1  0  0  0
 10 11  2  0  0  0
 11 12  1  0  0  0
 12 13  1  0  0  0
 12 14  2  0  0  0
 14 15  1  0  0  0
 15 16  2  0  0  0
 16 17  1  0  0  0
 17 18  2  0  0  0
  5  6  2  0  0  0
 25 26  1  0  0  0
 33 28  1  0  0  0
 26 23  1  0  0  0
  6  1  1  0  0  0
 17  7  1  0  0  0
 16 10  1  0  0  0
 19 20  1  0  0  0
M  END
> <minimizedAffinity>
-7.65617

> <CNNscore>
0.2579344213

> <CNNaffinity>
6.0436468124

> <CNN_VS>
1.5588645935

> <CNNaffinity_variance>
0.0582679808

$$$$
[H]c1c([H])c([H])c2c(nc(SC([H])([H])C(=O)N3C(=O)C([H])([H])C([H])([H])C3([H])[H])n2C([H])([H])[H])c1[H]


 20 22  0  0  0  0  0  0  0  0999 V2000
  157.5420  141.0017  185.0148 C   0  0  0  0  0  0  0  0  0  0  0  0
  158.9185  141.2048  184.5550 N   0  0  0  0  0  0  0  0  0  0  0  0
  159.4923  140.9033  183.3986 C   0  0  0  0  0  0  0  0  0  0  0  0
  160.7827  141.3454  183.4553 N   0  0  0  0  0  0  0  0  0  0  0  0
  161.0252  141.9240  184.6456 C   0  0  0  0  0  0  0  0  0  0  0  0
  162.1530  142.5148  185.1859 C   0  0  0  0  0  0  0  0  0  0  0  0
  162.1025  143.0305  186.4557 C   0  0  0  0  0  0  0  0  0  0  0  0
  160.9112  142.9435  187.1671 C   0  0  0  0  0  0  0  0  0  0  0  0
  159.7969  142.3583  186.6295 C   0  0  0  0  0  0  0  0  0  0  0  0
  159.8397  141.8320  185.3400 C   0  0  0  0  0  0  0  0  0  0  0  0
  158.8379  140.0574  182.0181 S   0  0  0  0  0  0  0  0  0  0  0  0
  157.8641  140.9696  180.8670 C   0  0  0  0  0  0  0  0  0  0  0  0
  157.3694  142.2845  181.2177 C   0  0  0  0  0  0  0  0  0  0  0  0
  157.9459  143.3483  180.9948 O   0  0  0  0  0  0  0  0  0  0  0  0
  156.0888  142.3374  181.8863 N   0  0  0  0  0  0  0  0  0  0  0  0
  155.2766  141.2018  182.2217 C   0  0  0  0  0  0  0  0  0  0  0  0
  153.8860  141.7855  182.4972 C   0  0  0  0  0  0  0  0  0  0  0  0
  154.2208  143.1216  183.1037 C   0  0  0  0  0  0  0  0  0  0  0  0
  155.4158  143.5236  182.3228 C   0  0  0  0  0  0  0  0  0  0  0  0
  155.8170  144.6853  182.0574 O   0  0  0  0  0  0  0  0  0  0  0  0
  1  2  1  0  0  0
  2  3  1  0  0  0
  3 11  1  0  0  0
 11 12  1  0  0  0
 12 13  1  0  0  0
 13 14  2  0  0  0
 13 15  1  0  0  0
 15 16  1  0  0  0
 16 17  1  0  0  0
 17 18  1  0  0  0
 18 19  1  0  0  0
 19 20  2  0  0  0
  3  4  2  0  0  0
  4  5  1  0  0  0
  5  6  2  0  0  0
  6  7  1  0  0  0
  7  8  2  0  0  0
  8  9  1  0  0  0
  9 10  2  0  0  0
 10  2  1  0  0  0
 19 15  1  0  0  0
 10  5  1  0  0  0
M  END
> <minimizedAffinity>
-8.15523

> <CNNscore>
0.4493078887

> <CNNaffinity>
5.9594221115

> <CNN_VS>
2.6776154041

> <CNNaffinity_variance>
0.0420165993

$$$$
[H]c1c([H])c([H])c2c(nc(SC([H])([H])C(=O)N3C(=O)C([H])([H])C([H])([H])C3([H])[H])n2C([H])([H])[H])c1[H]


 20 22  0  0  0  0  0  0  0  0999 V2000
  154.9126  141.2362  183.5657 C   0  0  0  0  0  0  0  0  0  0  0  0
  154.1678  139.9781  183.4662 N   0  0  0  0  0  0  0  0  0  0  0  0
  154.1951  138.8993  184.2362 C   0  0  0  0  0  0  0  0  0  0  0  0
  153.2745  138.0210  183.7415 N   0  0  0  0  0  0  0  0  0  0  0  0
  152.6674  138.5422  182.6598 C   0  0  0  0  0  0  0  0  0  0  0  0
  151.6839  138.0594  181.8157 C   0  0  0  0  0  0  0  0  0  0  0  0
  151.2529  138.8333  180.7687 C   0  0  0  0  0  0  0  0  0  0  0  0
  151.8214  140.0887  180.5854 C   0  0  0  0  0  0  0  0  0  0  0  0
  152.7945  140.5636  181.4225 C   0  0  0  0  0  0  0  0  0  0  0  0
  153.2378  139.7837  182.4887 C   0  0  0  0  0  0  0  0  0  0  0  0
  155.2087  138.5385  185.6117 S   0  0  0  0  0  0  0  0  0  0  0  0
  154.5375  137.5452  186.9034 C   0  0  0  0  0  0  0  0  0  0  0  0
  155.4077  136.7029  187.6970 C   0  0  0  0  0  0  0  0  0  0  0  0
  155.9817  135.6905  187.2979 O   0  0  0  0  0  0  0  0  0  0  0  0
  155.6102  137.0959  189.0733 N   0  0  0  0  0  0  0  0  0  0  0  0
  155.0265  138.2452  189.7061 C   0  0  0  0  0  0  0  0  0  0  0  0
  155.8651  138.4610  190.9712 C   0  0  0  0  0  0  0  0  0  0  0  0
  156.2217  137.0503  191.3560 C   0  0  0  0  0  0  0  0  0  0  0  0
  156.4238  136.4118  190.0328 C   0  0  0  0  0  0  0  0  0  0  0  0
  157.1664  135.4392  189.7437 O   0  0  0  0  0  0  0  0  0  0  0  0
  1  2  1  0  0  0
  2  3  1  0  0  0
  3 11  1  0  0  0
 11 12  1  0  0  0
 12 13  1  0  0  0
 13 14  2  0  0  0
 13 15  1  0  0  0
 15 16  1  0  0  0
 16 17  1  0  0  0
 17 18  1  0  0  0
 18 19  1  0  0  0
 19 20  2  0  0  0
  3  4  2  0  0  0
  4  5  1  0  0  0
  5  6  2  0  0  0
  6  7  1  0  0  0
  7  8  2  0  0  0
  8  9  1  0  0  0
  9 10  2  0  0  0
 10  2  1  0  0  0
 19 15  1  0  0  0
 10  5  1  0  0  0
M  END
> <minimizedAffinity>
-6.01905

> <CNNscore>
0.4474732280

> <CNNaffinity>
4.7074928284

> <CNN_VS>
2.1064770222

> <CNNaffinity_variance>
0.0457407087

$$$$
[H]c1c([H])c([H])c2c(nc(SC([H])([H])C(=O)N3C(=O)C([H])([H])C([H])([H])C3([H])[H])n2C([H])([H])[H])c1[H]


 20 22  0  0  0  0  0  0  0  0999 V2000
  154.7348  143.2225  183.3301 C   0  0  0  0  0  0  0  0  0  0  0  0
  155.6221  142.1629  182.8427 N   0  0  0  0  0  0  0  0  0  0  0  0
  155.5227  140.8447  182.9418 C   0  0  0  0  0  0  0  0  0  0  0  0
  156.5853  140.3039  182.2769 N   0  0  0  0  0  0  0  0  0  0  0  0
  157.3562  141.2778  181.7597 C   0  0  0  0  0  0  0  0  0  0  0  0
  158.5228  141.2524  181.0172 C   0  0  0  0  0  0  0  0  0  0  0  0
  159.0973  142.4332  180.6215 C   0  0  0  0  0  0  0  0  0  0  0  0
  158.4860  143.6289  180.9811 C   0  0  0  0  0  0  0  0  0  0  0  0
  157.3315  143.6507  181.7159 C   0  0  0  0  0  0  0  0  0  0  0  0
  156.7414  142.4555  182.1217 C   0  0  0  0  0  0  0  0  0  0  0  0
  154.3354  139.8776  183.7812 S   0  0  0  0  0  0  0  0  0  0  0  0
  153.1409  139.0070  182.8216 C   0  0  0  0  0  0  0  0  0  0  0  0
  152.6817  139.5566  181.5631 C   0  0  0  0  0  0  0  0  0  0  0  0
  153.2394  140.4497  180.9269 O   0  0  0  0  0  0  0  0  0  0  0  0
  151.4631  139.0000  181.0199 N   0  0  0  0  0  0  0  0  0  0  0  0
  150.6844  137.9540  181.6210 C   0  0  0  0  0  0  0  0  0  0  0  0
  149.7857  137.4391  180.4908 C   0  0  0  0  0  0  0  0  0  0  0  0
  149.5272  138.6927  179.6992 C   0  0  0  0  0  0  0  0  0  0  0  0
  150.8309  139.3929  179.7966 C   0  0  0  0  0  0  0  0  0  0  0  0
  151.3434  140.1997  178.9797 O   0  0  0  0  0  0  0  0  0  0  0  0
  1  2  1  0  0  0
  2  3  1  0  0  0
  3 11  1  0  0  0
 11 12  1  0  0  0
 12 13  1  0  0  0
 13 14  2  0  0  0
 13 15  1  0  0  0
 15 16  1  0  0  0
 16 17  1  0  0  0
 17 18  1  0  0  0
 18 19  1  0  0  0
 19 20  2  0  0  0
  3  4  2  0  0  0
  4  5  1  0  0  0
  5  6  2  0  0  0
  6  7  1  0  0  0
  7  8  2  0  0  0
  8  9  1  0  0  0
  9 10  2  0  0  0
 10  2  1  0  0  0
 19 15  1  0  0  0
 10  5  1  0  0  0
M  END
> <minimizedAffinity>
-7.16096

> <CNNscore>
0.4445245266

> <CNNaffinity>
5.2149448395

> <CNN_VS>
2.3181707859

> <CNNaffinity_variance>
0.0904162824

$$$$
[H]c1c([H])c([H])c2c(nc(SC([H])([H])C(=O)N3C(=O)C([H])([H])C([H])([H])C3([H])[H])n2C([H])([H])[H])c1[H]


 20 22  0  0  0  0  0  0  0  0999 V2000
  151.3489  137.1951  183.8026 C   0  0  0  0  0  0  0  0  0  0  0  0
  151.9928  138.1634  182.9109 N   0  0  0  0  0  0  0  0  0  0  0  0
  153.1614  138.7809  183.0120 C   0  0  0  0  0  0  0  0  0  0  0  0
  153.3171  139.5465  181.8925 N   0  0  0  0  0  0  0  0  0  0  0  0
  152.2485  139.4149  181.0856 C   0  0  0  0  0  0  0  0  0  0  0  0
  151.9275  139.9706  179.8604 C   0  0  0  0  0  0  0  0  0  0  0  0
  150.7374  139.6444  179.2620 C   0  0  0  0  0  0  0  0  0  0  0  0
  149.8830  138.7590  179.9091 C   0  0  0  0  0  0  0  0  0  0  0  0
  150.2036  138.2108  181.1215 C   0  0  0  0  0  0  0  0  0  0  0  0
  151.4108  138.5369  181.7361 C   0  0  0  0  0  0  0  0  0  0  0  0
  154.3337  138.7407  184.3057 S   0  0  0  0  0  0  0  0  0  0  0  0
  154.0317  137.6676  185.6705 C   0  0  0  0  0  0  0  0  0  0  0  0
  154.0305  138.1932  187.0197 C   0  0  0  0  0  0  0  0  0  0  0  0
  153.1972  138.9704  187.4836 O   0  0  0  0  0  0  0  0  0  0  0  0
  155.1053  137.7604  187.8841 N   0  0  0  0  0  0  0  0  0  0  0  0
  156.1588  136.8571  187.5152 C   0  0  0  0  0  0  0  0  0  0  0  0
  156.7561  136.3906  188.8478 C   0  0  0  0  0  0  0  0  0  0  0  0
  156.6030  137.6168  189.7070 C   0  0  0  0  0  0  0  0  0  0  0  0
  155.2996  138.1544  189.2470 C   0  0  0  0  0  0  0  0  0  0  0  0
  154.4689  138.8408  189.8950 O   0  0  0  0  0  0  0  0  0  0  0  0
  1  2  1  0  0  0
  2  3  1  0  0  0
  3 11  1  0  0  0
 11 12  1  0  0  0
 12 13  1  0  0  0
 13 14  2  0  0  0
 13 15  1  0  0  0
 15 16  1  0  0  0
 16 17  1  0  0  0
 17 18  1  0  0  0
 18 19  1  0  0  0
 19 20  2  0  0  0
  3  4  2  0  0  0
  4  5  1  0  0  0
  5  6  2  0  0  0
  6  7  1  0  0  0
  7  8  2  0  0  0
  8  9  1  0  0  0
  9 10  2  0  0  0
 10  2  1  0  0  0
 19 15  1  0  0  0
 10  5  1  0  0  0
M  END
> <minimizedAffinity>
-5.91167

> <CNNscore>
0.4393604994

> <CNNaffinity>
4.3282303810

> <CNN_VS>
1.9016534090

> <CNNaffinity_variance>
0.0725787878

$$$$
[H]c1c([H])c([H])c2c(nc(SC([H])([H])C(=O)N3C(=O)C([H])([H])C([H])([H])C3([H])[H])n2C([H])([H])[H])c1[H]


 20 22  0  0  0  0  0  0  0  0999 V2000
  153.1885  136.3215  183.8307 C   0  0  0  0  0  0  0  0  0  0  0  0
  153.3874  137.7487  183.5647 N   0  0  0  0  0  0  0  0  0  0  0  0
  154.1304  138.6461  184.1971 C   0  0  0  0  0  0  0  0  0  0  0  0
  154.0086  139.8263  183.5219 N   0  0  0  0  0  0  0  0  0  0  0  0
  153.1890  139.6763  182.4655 C   0  0  0  0  0  0  0  0  0  0  0  0
  152.7502  140.5534  181.4901 C   0  0  0  0  0  0  0  0  0  0  0  0
  151.8952  140.1065  180.5154 C   0  0  0  0  0  0  0  0  0  0  0  0
  151.4920  138.7762  180.5367 C   0  0  0  0  0  0  0  0  0  0  0  0
  151.9281  137.9108  181.5032 C   0  0  0  0  0  0  0  0  0  0  0  0
  152.7969  138.3568  182.4970 C   0  0  0  0  0  0  0  0  0  0  0  0
  155.0809  138.4782  185.6525 S   0  0  0  0  0  0  0  0  0  0  0  0
  154.4295  137.4984  186.9644 C   0  0  0  0  0  0  0  0  0  0  0  0
  155.3098  136.6547  187.7453 C   0  0  0  0  0  0  0  0  0  0  0  0
  155.8518  135.6245  187.3471 O   0  0  0  0  0  0  0  0  0  0  0  0
  155.5644  137.0691  189.1066 N   0  0  0  0  0  0  0  0  0  0  0  0
  155.0229  138.2407  189.7359 C   0  0  0  0  0  0  0  0  0  0  0  0
  155.9063  138.4639  190.9688 C   0  0  0  0  0  0  0  0  0  0  0  0
  156.2496  137.0542  191.3686 C   0  0  0  0  0  0  0  0  0  0  0  0
  156.3966  136.3877  190.0519 C   0  0  0  0  0  0  0  0  0  0  0  0
  157.1114  135.3961  189.7575 O   0  0  0  0  0  0  0  0  0  0  0  0
  1  2  1  0  0  0
  2  3  1  0  0  0
  3 11  1  0  0  0
 11 12  1  0  0  0
 12 13  1  0  0  0
 13 14  2  0  0  0
 13 15  1  0  0  0
 15 16  1  0  0  0
 16 17  1  0  0  0
 17 18  1  0  0  0
 18 19  1  0  0  0
 19 20  2  0  0  0
  3  4  2  0  0  0
  4  5  1  0  0  0
  5  6  2  0  0  0
  6  7  1  0  0  0
  7  8  2  0  0  0
  8  9  1  0  0  0
  9 10  2  0  0  0
 10  2  1  0  0  0
 19 15  1  0  0  0
 10  5  1  0  0  0
M  END
> <minimizedAffinity>
-5.85781

> <CNNscore>
0.4263982475

> <CNNaffinity>
4.5069532394

> <CNN_VS>
1.9217569828

> <CNNaffinity_variance>
0.0439458862

$$$$
[H]c1c([H])c([H])c2c(nc(SC([H])([H])C(=O)N3C(=O)C([H])([H])C([H])([H])C3([H])[H])n2C([H])([H])[H])c1[H]


 20 22  0  0  0  0  0  0  0  0999 V2000
  152.8986  137.7767  183.6012 C   0  0  0  0  0  0  0  0  0  0  0  0
  152.8159  138.8531  182.6103 N   0  0  0  0  0  0  0  0  0  0  0  0
  153.5473  139.9497  182.4687 C   0  0  0  0  0  0  0  0  0  0  0  0
  153.0960  140.6009  181.3570 N   0  0  0  0  0  0  0  0  0  0  0  0
  152.0803  139.9187  180.7973 C   0  0  0  0  0  0  0  0  0  0  0  0
  151.2981  140.1541  179.6812 C   0  0  0  0  0  0  0  0  0  0  0  0
  150.3116  139.2617  179.3476 C   0  0  0  0  0  0  0  0  0  0  0  0
  150.1256  138.1394  180.1467 C   0  0  0  0  0  0  0  0  0  0  0  0
  150.9014  137.9093  181.2505 C   0  0  0  0  0  0  0  0  0  0  0  0
  151.9059  138.8109  181.5963 C   0  0  0  0  0  0  0  0  0  0  0  0
  154.8302  140.5704  183.4779 S   0  0  0  0  0  0  0  0  0  0  0  0
  156.4852  140.4621  182.8821 C   0  0  0  0  0  0  0  0  0  0  0  0
  157.4103  141.5526  183.1095 C   0  0  0  0  0  0  0  0  0  0  0  0
  157.7695  141.9679  184.2104 O   0  0  0  0  0  0  0  0  0  0  0  0
  157.9497  142.1995  181.9346 N   0  0  0  0  0  0  0  0  0  0  0  0
  157.6470  141.8465  180.5761 C   0  0  0  0  0  0  0  0  0  0  0  0
  158.7598  142.4985  179.7473 C   0  0  0  0  0  0  0  0  0  0  0  0
  159.0357  143.7564  180.5263 C   0  0  0  0  0  0  0  0  0  0  0  0
  158.8735  143.2937  181.9259 C   0  0  0  0  0  0  0  0  0  0  0  0
  159.4245  143.7436  182.9627 O   0  0  0  0  0  0  0  0  0  0  0  0
  1  2  1  0  0  0
  2  3  1  0  0  0
  3 11  1  0  0  0
 11 12  1  0  0  0
 12 13  1  0  0  0
 13 14  2  0  0  0
 13 15  1  0  0  0
 15 16  1  0  0  0
 16 17  1  0  0  0
 17 18  1  0  0  0
 18 19  1  0  0  0
 19 20  2  0  0  0
  3  4  2  0  0  0
  4  5  1  0  0  0
  5  6  2  0  0  0
  6  7  1  0  0  0
  7  8  2  0  0  0
  8  9  1  0  0  0
  9 10  2  0  0  0
 10  2  1  0  0  0
 19 15  1  0  0  0
 10  5  1  0  0  0
M  END
> <minimizedAffinity>
-7.39083

> <CNNscore>
0.3952337205

> <CNNaffinity>
5.3094840050

> <CNN_VS>
2.0984871387

> <CNNaffinity_variance>
0.0526198857

$$$$
[H]c1c([H])c([H])c2c(nc(SC([H])([H])C(=O)N3C(=O)C([H])([H])C([H])([H])C3([H])[H])n2C([H])([H])[H])c1[H]


 20 22  0  0  0  0  0  0  0  0999 V2000
  154.4876  143.4556  183.4150 C   0  0  0  0  0  0  0  0  0  0  0  0
  155.4073  142.5416  182.7322 N   0  0  0  0  0  0  0  0  0  0  0  0
  155.2899  141.2501  182.4572 C   0  0  0  0  0  0  0  0  0  0  0  0
  156.4039  140.8778  181.7613 N   0  0  0  0  0  0  0  0  0  0  0  0
  157.2249  141.9311  181.5978 C   0  0  0  0  0  0  0  0  0  0  0  0
  158.4531  142.0722  180.9776 C   0  0  0  0  0  0  0  0  0  0  0  0
  159.0693  143.2975  180.9707 C   0  0  0  0  0  0  0  0  0  0  0  0
  158.4369  144.3685  181.5917 C   0  0  0  0  0  0  0  0  0  0  0  0
  157.2215  144.2256  182.2045 C   0  0  0  0  0  0  0  0  0  0  0  0
  156.5887  142.9842  182.2159 C   0  0  0  0  0  0  0  0  0  0  0  0
  154.0253  140.1287  182.8962 S   0  0  0  0  0  0  0  0  0  0  0  0
  152.7733  139.7778  181.7068 C   0  0  0  0  0  0  0  0  0  0  0  0
  151.7900  138.7483  181.9714 C   0  0  0  0  0  0  0  0  0  0  0  0
  151.7136  138.0803  183.0016 O   0  0  0  0  0  0  0  0  0  0  0  0
  150.8224  138.4938  180.9279 N   0  0  0  0  0  0  0  0  0  0  0  0
  150.7580  139.1770  179.6667 C   0  0  0  0  0  0  0  0  0  0  0  0
  149.3550  138.8714  179.1296 C   0  0  0  0  0  0  0  0  0  0  0  0
  149.1190  137.4767  179.6433 C   0  0  0  0  0  0  0  0  0  0  0  0
  149.7690  137.5250  180.9754 C   0  0  0  0  0  0  0  0  0  0  0  0
  149.4874  136.8574  182.0031 O   0  0  0  0  0  0  0  0  0  0  0  0
  1  2  1  0  0  0
  2  3  1  0  0  0
  3 11  1  0  0  0
 11 12  1  0  0  0
 12 13  1  0  0  0
 13 14  2  0  0  0
 13 15  1  0  0  0
 15 16  1  0  0  0
 16 17  1  0  0  0
 17 18  1  0  0  0
 18 19  1  0  0  0
 19 20  2  0  0  0
  3  4  2  0  0  0
  4  5  1  0  0  0
  5  6  2  0  0  0
  6  7  1  0  0  0
  7  8  2  0  0  0
  8  9  1  0  0  0
  9 10  2  0  0  0
 10  2  1  0  0  0
 19 15  1  0  0  0
 10  5  1  0  0  0
M  END
> <minimizedAffinity>
-6.46622

> <CNNscore>
0.3778347671

> <CNNaffinity>
5.1640558243

> <CNN_VS>
1.9511598349

> <CNNaffinity_variance>
0.0142585039

$$$$
[H]c1c([H])c([H])c2c(nc(SC([H])([H])C(=O)N3C(=O)C([H])([H])C([H])([H])C3([H])[H])n2C([H])([H])[H])c1[H]


 20 22  0  0  0  0  0  0  0  0999 V2000
  156.4935  135.0830  187.4576 C   0  0  0  0  0  0  0  0  0  0  0  0
  155.6370  136.2430  187.7188 N   0  0  0  0  0  0  0  0  0  0  0  0
  154.6924  136.7998  186.9737 C   0  0  0  0  0  0  0  0  0  0  0  0
  154.1578  137.8290  187.6938 N   0  0  0  0  0  0  0  0  0  0  0  0
  154.7640  137.9243  188.8912 C   0  0  0  0  0  0  0  0  0  0  0  0
  154.5916  138.7837  189.9611 C   0  0  0  0  0  0  0  0  0  0  0  0
  155.3752  138.6380  191.0772 C   0  0  0  0  0  0  0  0  0  0  0  0
  156.3260  137.6241  191.1003 C   0  0  0  0  0  0  0  0  0  0  0  0
  156.4941  136.7753  190.0399 C   0  0  0  0  0  0  0  0  0  0  0  0
  155.7020  136.9164  188.9023 C   0  0  0  0  0  0  0  0  0  0  0  0
  154.1814  136.4106  185.3498 S   0  0  0  0  0  0  0  0  0  0  0  0
  153.0311  137.4858  184.5583 C   0  0  0  0  0  0  0  0  0  0  0  0
  153.5067  138.6176  183.7906 C   0  0  0  0  0  0  0  0  0  0  0  0
  154.4945  139.2999  184.0596 O   0  0  0  0  0  0  0  0  0  0  0  0
  152.7467  138.9649  182.6109 N   0  0  0  0  0  0  0  0  0  0  0  0
  151.5740  138.2805  182.1439 C   0  0  0  0  0  0  0  0  0  0  0  0
  151.4151  138.7303  180.6870 C   0  0  0  0  0  0  0  0  0  0  0  0
  151.9197  140.1473  180.7389 C   0  0  0  0  0  0  0  0  0  0  0  0
  153.0338  140.0420  181.7120 C   0  0  0  0  0  0  0  0  0  0  0  0
  154.0733  140.7459  181.7835 O   0  0  0  0  0  0  0  0  0  0  0  0
  1  2  1  0  0  0
  2  3  1  0  0  0
  3 11  1  0  0  0
 11 12  1  0  0  0
 12 13  1  0  0  0
 13 14  2  0  0  0
 13 15  1  0  0  0
 15 16  1  0  0  0
 16 17  1  0  0  0
 17 18  1  0  0  0
 18 19  1  0  0  0
 19 20  2  0  0  0
  3  4  2  0  0  0
  4  5  1  0  0  0
  5  6  2  0  0  0
  6  7  1  0  0  0
  7  8  2  0  0  0
  8  9  1  0  0  0
  9 10  2  0  0  0
 10  2  1  0  0  0
 19 15  1  0  0  0
 10  5  1  0  0  0
M  END
> <minimizedAffinity>
-5.87574

> <CNNscore>
0.3535256684

> <CNNaffinity>
4.5463423729

> <CNN_VS>
1.6072487831

> <CNNaffinity_variance>
0.0194712952

$$$$
[H]c1c([H])c([H])c2c(nc(SC([H])([H])C(=O)N3C(=O)C([H])([H])C([H])([H])C3([H])[H])n2C([H])([H])[H])c1[H]


 20 22  0  0  0  0  0  0  0  0999 V2000
  155.0635  141.8699  183.5577 C   0  0  0  0  0  0  0  0  0  0  0  0
  156.2164  141.0497  183.9388 N   0  0  0  0  0  0  0  0  0  0  0  0
  156.2704  139.8528  184.5064 C   0  0  0  0  0  0  0  0  0  0  0  0
  157.5873  139.5067  184.6053 N   0  0  0  0  0  0  0  0  0  0  0  0
  158.3648  140.4832  184.1030 C   0  0  0  0  0  0  0  0  0  0  0  0
  159.7356  140.6143  183.9743 C   0  0  0  0  0  0  0  0  0  0  0  0
  160.2552  141.7511  183.4099 C   0  0  0  0  0  0  0  0  0  0  0  0
  159.3828  142.7448  182.9810 C   0  0  0  0  0  0  0  0  0  0  0  0
  158.0267  142.6120  183.1096 C   0  0  0  0  0  0  0  0  0  0  0  0
  157.4907  141.4601  183.6818 C   0  0  0  0  0  0  0  0  0  0  0  0
  154.9758  138.8439  185.1026 S   0  0  0  0  0  0  0  0  0  0  0  0
  155.3283  137.7286  186.4206 C   0  0  0  0  0  0  0  0  0  0  0  0
  154.3574  137.5220  187.4748 C   0  0  0  0  0  0  0  0  0  0  0  0
  153.1913  137.1646  187.3131 O   0  0  0  0  0  0  0  0  0  0  0  0
  154.8096  137.7599  188.8271 N   0  0  0  0  0  0  0  0  0  0  0  0
  156.1318  138.1755  189.2025 C   0  0  0  0  0  0  0  0  0  0  0  0
  156.2262  137.8665  190.7011 C   0  0  0  0  0  0  0  0  0  0  0  0
  154.8163  138.1188  191.1633 C   0  0  0  0  0  0  0  0  0  0  0  0
  154.0218  137.6200  190.0146 C   0  0  0  0  0  0  0  0  0  0  0  0
  152.8572  137.1460  190.0217 O   0  0  0  0  0  0  0  0  0  0  0  0
  1  2  1  0  0  0
  2  3  1  0  0  0
  3 11  1  0  0  0
 11 12  1  0  0  0
 12 13  1  0  0  0
 13 14  2  0  0  0
 13 15  1  0  0  0
 15 16  1  0  0  0
 16 17  1  0  0  0
 17 18  1  0  0  0
 18 19  1  0  0  0
 19 20  2  0  0  0
  3  4  2  0  0  0
  4  5  1  0  0  0
  5  6  2  0  0  0
  6  7  1  0  0  0
  7  8  2  0  0  0
  8  9  1  0  0  0
  9 10  2  0  0  0
 10  2  1  0  0  0
 19 15  1  0  0  0
 10  5  1  0  0  0
M  END
> <minimizedAffinity>
-6.07998

> <CNNscore>
0.3531295061

> <CNNaffinity>
5.0721902847

> <CNN_VS>
1.7911400795

> <CNNaffinity_variance>
0.0669632629

$$$$
[H]c1c(C([H])([H])[H])c([H])c2c(c1C(F)(F)F)C(=O)N1C([H])([H])C([H])([H])N([H])C([H])([H])[C@@]21[H]


 20 22  0  0  0  0  0  0  0  0999 V2000
  155.8013  138.4349  190.9452 C   0  0  0  0  0  0  0  0  0  0  0  0
  154.5085  137.7260  190.7514 C   0  0  0  0  0  0  0  0  0  0  0  0
  154.1158  137.4748  189.4553 C   0  0  0  0  0  0  0  0  0  0  0  0
  152.9352  136.8256  189.2121 C   0  0  0  0  0  0  0  0  0  0  0  0
  152.1406  136.4259  190.2929 C   0  0  0  0  0  0  0  0  0  0  0  0
  152.5069  136.6619  191.5917 C   0  0  0  0  0  0  0  0  0  0  0  0
  153.7096  137.3219  191.8079 C   0  0  0  0  0  0  0  0  0  0  0  0
  150.9637  135.8056  189.6834 C   0  0  0  0  0  0  0  0  0  0  0  0
  150.0157  135.3182  190.3241 O   0  0  0  0  0  0  0  0  0  0  0  0
  151.0539  135.8379  188.2863 N   0  0  0  0  0  0  0  0  0  0  0  0
  150.1933  135.4461  187.1987 C   0  0  0  0  0  0  0  0  0  0  0  0
  150.0791  136.5742  186.1754 C   0  0  0  0  0  0  0  0  0  0  0  0
  151.3940  136.9959  185.8129 N   0  0  0  0  0  0  0  0  0  0  0  0
  152.1802  137.5129  186.9209 C   0  0  0  0  0  0  0  0  0  0  0  0
  152.3264  136.4272  187.9389 C   0  0  0  0  0  0  0  0  0  0  0  0
  151.4155  137.6890  185.0417 H   0  0  0  0  0  0  0  0  0  0  0  0
  151.6536  136.2209  192.7163 C   0  0  0  0  0  0  0  0  0  0  0  0
  151.4898  134.8746  192.8185 F   0  0  0  0  0  0  0  0  0  0  0  0
  150.4225  136.8913  192.6762 F   0  0  0  0  0  0  0  0  0  0  0  0
  152.2291  136.6391  193.9258 F   0  0  0  0  0  0  0  0  0  0  0  0
  1  2  1  0  0  0
  2  3  2  0  0  0
  3  4  1  0  0  0
  4  5  2  0  0  0
  5  6  1  0  0  0
  6 17  1  0  0  0
 17 18  1  0  0  0
 17 19  1  0  0  0
 17 20  1  0  0  0
  6  7  2  0  0  0
  5  8  1  0  0  0
  8  9  2  0  0  0
  8 10  1  0  0  0
 10 11  1  0  0  0
 11 12  1  0  0  0
 12 13  1  0  0  0
 13 14  1  0  0  0
 14 15  1  0  0  0
  7  2  1  0  0  0
 15 10  1  0  0  0
 15  4  1  0  0  0
 13 16  1  0  0  0
M  END
> <minimizedAffinity>
-5.47820

> <CNNscore>
0.6169461608

> <CNNaffinity>
4.3354072571

> <CNN_VS>
2.6747128963

> <CNNaffinity_variance>
0.0562750921

$$$$
[H]c1c(C([H])([H])[H])c([H])c2c(c1C(F)(F)F)C(=O)N1C([H])([H])C([H])([H])N([H])C([H])([H])[C@@]21[H]


 20 22  0  0  0  0  0  0  0  0999 V2000
  153.5578  138.8118  186.3639 C   0  0  0  0  0  0  0  0  0  0  0  0
  154.3389  138.0496  187.3741 C   0  0  0  0  0  0  0  0  0  0  0  0
  154.9818  136.9097  186.9445 C   0  0  0  0  0  0  0  0  0  0  0  0
  155.7166  136.1650  187.8276 C   0  0  0  0  0  0  0  0  0  0  0  0
  155.8021  136.5773  189.1625 C   0  0  0  0  0  0  0  0  0  0  0  0
  155.1739  137.7067  189.6169 C   0  0  0  0  0  0  0  0  0  0  0  0
  154.4360  138.4423  188.6985 C   0  0  0  0  0  0  0  0  0  0  0  0
  156.6193  135.5558  189.8183 C   0  0  0  0  0  0  0  0  0  0  0  0
  156.9262  135.5692  191.0236 O   0  0  0  0  0  0  0  0  0  0  0  0
  157.0047  134.5672  188.9045 N   0  0  0  0  0  0  0  0  0  0  0  0
  157.7360  133.3282  188.9892 C   0  0  0  0  0  0  0  0  0  0  0  0
  156.9720  132.2083  188.2857 C   0  0  0  0  0  0  0  0  0  0  0  0
  156.6310  132.6455  186.9701 N   0  0  0  0  0  0  0  0  0  0  0  0
  155.7768  133.8213  186.9361 C   0  0  0  0  0  0  0  0  0  0  0  0
  156.5008  134.9462  187.6045 C   0  0  0  0  0  0  0  0  0  0  0  0
  156.2011  131.9084  186.3806 H   0  0  0  0  0  0  0  0  0  0  0  0
  155.2878  138.1257  191.0307 C   0  0  0  0  0  0  0  0  0  0  0  0
  156.5615  138.2605  191.4883 F   0  0  0  0  0  0  0  0  0  0  0  0
  154.5314  137.2720  191.8466 F   0  0  0  0  0  0  0  0  0  0  0  0
  154.6780  139.3790  191.1926 F   0  0  0  0  0  0  0  0  0  0  0  0
  1  2  1  0  0  0
  2  3  2  0  0  0
  3  4  1  0  0  0
  4  5  2  0  0  0
  5  6  1  0  0  0
  6 17  1  0  0  0
 17 18  1  0  0  0
 17 19  1  0  0  0
 17 20  1  0  0  0
  6  7  2  0  0  0
  5  8  1  0  0  0
  8  9  2  0  0  0
  8 10  1  0  0  0
 10 11  1  0  0  0
 11 12  1  0  0  0
 12 13  1  0  0  0
 13 14  1  0  0  0
 14 15  1  0  0  0
  7  2  1  0  0  0
 15 10  1  0  0  0
 15  4  1  0  0  0
 13 16  1  0  0  0
M  END
> <minimizedAffinity>
-5.50258

> <CNNscore>
0.6040370464

> <CNNaffinity>
4.4523706436

> <CNN_VS>
2.6893968582

> <CNNaffinity_variance>
0.0290716644

$$$$
[H]c1c(C([H])([H])[H])c([H])c2c(c1C(F)(F)F)C(=O)N1C([H])([H])C([H])([H])N([H])C([H])([H])[C@@]21[H]


 20 22  0  0  0  0  0  0  0  0999 V2000
  157.3172  133.4911  189.7887 C   0  0  0  0  0  0  0  0  0  0  0  0
  156.3653  134.4839  190.3542 C   0  0  0  0  0  0  0  0  0  0  0  0
  155.3587  134.0025  191.1618 C   0  0  0  0  0  0  0  0  0  0  0  0
  154.4509  134.8671  191.7121 C   0  0  0  0  0  0  0  0  0  0  0  0
  154.5614  136.2361  191.4418 C   0  0  0  0  0  0  0  0  0  0  0  0
  155.5526  136.7424  190.6431 C   0  0  0  0  0  0  0  0  0  0  0  0
  156.4591  135.8418  190.0991 C   0  0  0  0  0  0  0  0  0  0  0  0
  153.4349  136.8490  192.1466 C   0  0  0  0  0  0  0  0  0  0  0  0
  153.1885  138.0681  192.1505 O   0  0  0  0  0  0  0  0  0  0  0  0
  152.6778  135.8766  192.8116 N   0  0  0  0  0  0  0  0  0  0  0  0
  151.4632  135.8829  193.5873 C   0  0  0  0  0  0  0  0  0  0  0  0
  150.5123  134.7922  193.0987 C   0  0  0  0  0  0  0  0  0  0  0  0
  151.2218  133.5540  193.0562 N   0  0  0  0  0  0  0  0  0  0  0  0
  152.3615  133.5515  192.1539 C   0  0  0  0  0  0  0  0  0  0  0  0
  153.3244  134.6001  192.6120 C   0  0  0  0  0  0  0  0  0  0  0  0
  150.6249  132.7350  192.8358 H   0  0  0  0  0  0  0  0  0  0  0  0
  155.6528  138.1945  190.3808 C   0  0  0  0  0  0  0  0  0  0  0  0
  155.8104  138.9680  191.4883 F   0  0  0  0  0  0  0  0  0  0  0  0
  154.5651  138.6178  189.6033 F   0  0  0  0  0  0  0  0  0  0  0  0
  156.7688  138.4420  189.5671 F   0  0  0  0  0  0  0  0  0  0  0  0
  1  2  1  0  0  0
  2  3  2  0  0  0
  3  4  1  0  0  0
  4  5  2  0  0  0
  5  6  1  0  0  0
  6 17  1  0  0  0
 17 18  1  0  0  0
 17 19  1  0  0  0
 17 20  1  0  0  0
  6  7  2  0  0  0
  5  8  1  0  0  0
  8  9  2  0  0  0
  8 10  1  0  0  0
 10 11  1  0  0  0
 11 12  1  0  0  0
 12 13  1  0  0  0
 13 14  1  0  0  0
 14 15  1  0  0  0
  7  2  1  0  0  0
 15 10  1  0  0  0
 15  4  1  0  0  0
 13 16  1  0  0  0
M  END
> <minimizedAffinity>
-5.11869

> <CNNscore>
0.5755734444

> <CNNaffinity>
4.2658057213

> <CNN_VS>
2.4552845955

> <CNNaffinity_variance>
0.0224305950

$$$$
[H]c1c(C([H])([H])[H])c([H])c2c(c1C(F)(F)F)C(=O)N1C([H])([H])C([H])([H])N([H])C([H])([H])[C@@]21[H]


 20 22  0  0  0  0  0  0  0  0999 V2000
  154.8097  136.4830  186.0966 C   0  0  0  0  0  0  0  0  0  0  0  0
  154.5558  136.5286  187.5612 C   0  0  0  0  0  0  0  0  0  0  0  0
  153.4418  135.8671  188.0285 C   0  0  0  0  0  0  0  0  0  0  0  0
  153.1544  135.8728  189.3671 C   0  0  0  0  0  0  0  0  0  0  0  0
  154.0036  136.5567  190.2448 C   0  0  0  0  0  0  0  0  0  0  0  0
  155.1185  137.2222  189.8078 C   0  0  0  0  0  0  0  0  0  0  0  0
  155.3849  137.1990  188.4450 C   0  0  0  0  0  0  0  0  0  0  0  0
  153.3934  136.3879  191.5640 C   0  0  0  0  0  0  0  0  0  0  0  0
  153.8593  136.8555  192.6182 O   0  0  0  0  0  0  0  0  0  0  0  0
  152.2187  135.6311  191.4738 N   0  0  0  0  0  0  0  0  0  0  0  0
  151.1999  135.2129  192.4035 C   0  0  0  0  0  0  0  0  0  0  0  0
  149.8109  135.5125  191.8435 C   0  0  0  0  0  0  0  0  0  0  0  0
  149.7215  134.9645  190.5283 N   0  0  0  0  0  0  0  0  0  0  0  0
  150.6812  135.5168  189.5865 C   0  0  0  0  0  0  0  0  0  0  0  0
  152.0573  135.2280  190.0957 C   0  0  0  0  0  0  0  0  0  0  0  0
  148.7746  135.0283  190.1098 H   0  0  0  0  0  0  0  0  0  0  0  0
  156.0049  137.9296  190.7573 C   0  0  0  0  0  0  0  0  0  0  0  0
  156.5007  137.1589  191.7623 F   0  0  0  0  0  0  0  0  0  0  0  0
  155.3631  139.0748  191.2505 F   0  0  0  0  0  0  0  0  0  0  0  0
  157.1161  138.4343  190.0649 F   0  0  0  0  0  0  0  0  0  0  0  0
  1  2  1  0  0  0
  2  3  2  0  0  0
  3  4  1  0  0  0
  4  5  2  0  0  0
  5  6  1  0  0  0
  6 17  1  0  0  0
 17 18  1  0  0  0
 17 19  1  0  0  0
 17 20  1  0  0  0
  6  7  2  0  0  0
  5  8  1  0  0  0
  8  9  2  0  0  0
  8 10  1  0  0  0
 10 11  1  0  0  0
 11 12  1  0  0  0
 12 13  1  0  0  0
 13 14  1  0  0  0
 14 15  1  0  0  0
  7  2  1  0  0  0
 15 10  1  0  0  0
 15  4  1  0  0  0
 13 16  1  0  0  0
M  END
> <minimizedAffinity>
-4.86811

> <CNNscore>
0.5670840740

> <CNNaffinity>
4.3149657249

> <CNN_VS>
2.4469482899

> <CNNaffinity_variance>
0.0377461128

$$$$
[H]c1c(C([H])([H])[H])c([H])c2c(c1C(F)(F)F)C(=O)N1C([H])([H])C([H])([H])N([H])C([H])([H])[C@@]21[H]


 20 22  0  0  0  0  0  0  0  0999 V2000
  152.0275  136.2325  192.4601 C   0  0  0  0  0  0  0  0  0  0  0  0
  152.9207  136.6396  191.3430 C   0  0  0  0  0  0  0  0  0  0  0  0
  152.3257  136.9380  190.1372 C   0  0  0  0  0  0  0  0  0  0  0  0
  153.0949  137.3190  189.0706 C   0  0  0  0  0  0  0  0  0  0  0  0
  154.4839  137.3984  189.2246 C   0  0  0  0  0  0  0  0  0  0  0  0
  155.1022  137.1081  190.4121 C   0  0  0  0  0  0  0  0  0  0  0  0
  154.2964  136.7249  191.4765 C   0  0  0  0  0  0  0  0  0  0  0  0
  154.9846  137.7938  187.9077 C   0  0  0  0  0  0  0  0  0  0  0  0
  156.1855  137.9723  187.6376 O   0  0  0  0  0  0  0  0  0  0  0  0
  153.9288  137.9419  186.9998 N   0  0  0  0  0  0  0  0  0  0  0  0
  153.8260  138.2440  185.5943 C   0  0  0  0  0  0  0  0  0  0  0  0
  152.9046  137.2436  184.8994 C   0  0  0  0  0  0  0  0  0  0  0  0
  151.6728  137.1822  185.6185 N   0  0  0  0  0  0  0  0  0  0  0  0
  151.8092  136.7395  186.9964 C   0  0  0  0  0  0  0  0  0  0  0  0
  152.6952  137.7070  187.7142 C   0  0  0  0  0  0  0  0  0  0  0  0
  150.9451  136.6050  185.1571 H   0  0  0  0  0  0  0  0  0  0  0  0
  156.5712  137.2089  190.5512 C   0  0  0  0  0  0  0  0  0  0  0  0
  157.0871  138.4437  190.3082 F   0  0  0  0  0  0  0  0  0  0  0  0
  157.1955  136.2238  189.7725 F   0  0  0  0  0  0  0  0  0  0  0  0
  156.9350  136.8835  191.8667 F   0  0  0  0  0  0  0  0  0  0  0  0
  1  2  1  0  0  0
  2  3  2  0  0  0
  3  4  1  0  0  0
  4  5  2  0  0  0
  5  6  1  0  0  0
  6 17  1  0  0  0
 17 18  1  0  0  0
 17 19  1  0  0  0
 17 20  1  0  0  0
  6  7  2  0  0  0
  5  8  1  0  0  0
  8  9  2  0  0  0
  8 10  1  0  0  0
 10 11  1  0  0  0
 11 12  1  0  0  0
 12 13  1  0  0  0
 13 14  1  0  0  0
 14 15  1  0  0  0
  7  2  1  0  0  0
 15 10  1  0  0  0
 15  4  1  0  0  0
 13 16  1  0  0  0
M  END
> <minimizedAffinity>
-5.44821

> <CNNscore>
0.5525168180

> <CNNaffinity>
4.5598568916

> <CNN_VS>
2.5193977356

> <CNNaffinity_variance>
0.0986798555

$$$$
[H]c1c(C([H])([H])[H])c([H])c2c(c1C(F)(F)F)C(=O)N1C([H])([H])C([H])([H])N([H])C([H])([H])[C@@]21[H]


 20 22  0  0  0  0  0  0  0  0999 V2000
  156.1023  138.4103  190.6995 C   0  0  0  0  0  0  0  0  0  0  0  0
  155.0386  137.4575  191.1147 C   0  0  0  0  0  0  0  0  0  0  0  0
  155.1384  136.1627  190.6557 C   0  0  0  0  0  0  0  0  0  0  0  0
  154.1896  135.2389  191.0033 C   0  0  0  0  0  0  0  0  0  0  0  0
  153.1256  135.6291  191.8250 C   0  0  0  0  0  0  0  0  0  0  0  0
  153.0019  136.9094  192.2964 C   0  0  0  0  0  0  0  0  0  0  0  0
  153.9793  137.8246  191.9276 C   0  0  0  0  0  0  0  0  0  0  0  0
  152.3012  134.4283  191.9655 C   0  0  0  0  0  0  0  0  0  0  0  0
  151.2525  134.3706  192.6318 O   0  0  0  0  0  0  0  0  0  0  0  0
  152.8548  133.3601  191.2490 N   0  0  0  0  0  0  0  0  0  0  0  0
  152.4624  131.9999  190.9788 C   0  0  0  0  0  0  0  0  0  0  0  0
  152.5770  131.6979  189.4861 C   0  0  0  0  0  0  0  0  0  0  0  0
  153.8815  132.0730  189.0437 N   0  0  0  0  0  0  0  0  0  0  0  0
  154.1836  133.4851  189.2101 C   0  0  0  0  0  0  0  0  0  0  0  0
  154.0961  133.8149  190.6661 C   0  0  0  0  0  0  0  0  0  0  0  0
  154.0857  131.8054  188.0627 H   0  0  0  0  0  0  0  0  0  0  0  0
  151.8728  137.2938  193.1709 C   0  0  0  0  0  0  0  0  0  0  0  0
  150.6389  137.1075  192.6300 F   0  0  0  0  0  0  0  0  0  0  0  0
  152.0456  138.6084  193.6275 F   0  0  0  0  0  0  0  0  0  0  0  0
  151.9093  136.5201  194.3409 F   0  0  0  0  0  0  0  0  0  0  0  0
  1  2  1  0  0  0
  2  3  2  0  0  0
  3  4  1  0  0  0
  4  5  2  0  0  0
  5  6  1  0  0  0
  6 17  1  0  0  0
 17 18  1  0  0  0
 17 19  1  0  0  0
 17 20  1  0  0  0
  6  7  2  0  0  0
  5  8  1  0  0  0
  8  9  2  0  0  0
  8 10  1  0  0  0
 10 11  1  0  0  0
 11 12  1  0  0  0
 12 13  1  0  0  0
 13 14  1  0  0  0
 14 15  1  0  0  0
  7  2  1  0  0  0
 15 10  1  0  0  0
 15  4  1  0  0  0
 13 16  1  0  0  0
M  END
> <minimizedAffinity>
-5.15244

> <CNNscore>
0.5499508977

> <CNNaffinity>
4.0830984116

> <CNN_VS>
2.2455036640

> <CNNaffinity_variance>
0.0456120968

$$$$
[H]c1c(C([H])([H])[H])c([H])c2c(c1C(F)(F)F)C(=O)N1C([H])([H])C([H])([H])N([H])C([H])([H])[C@@]21[H]


 20 22  0  0  0  0  0  0  0  0999 V2000
  155.8767  138.3409  191.1104 C   0  0  0  0  0  0  0  0  0  0  0  0
  154.9611  137.9801  189.9955 C   0  0  0  0  0  0  0  0  0  0  0  0
  153.8156  137.2875  190.3199 C   0  0  0  0  0  0  0  0  0  0  0  0
  152.9331  136.9267  189.3373 C   0  0  0  0  0  0  0  0  0  0  0  0
  153.2126  137.2696  188.0093 C   0  0  0  0  0  0  0  0  0  0  0  0
  154.3434  137.9585  187.6582 C   0  0  0  0  0  0  0  0  0  0  0  0
  155.2200  138.3115  188.6761 C   0  0  0  0  0  0  0  0  0  0  0  0
  152.1017  136.7122  187.2369 C   0  0  0  0  0  0  0  0  0  0  0  0
  151.9860  136.8100  186.0024 O   0  0  0  0  0  0  0  0  0  0  0  0
  151.1931  136.0570  188.0772 N   0  0  0  0  0  0  0  0  0  0  0  0
  149.9868  135.2937  187.8787 C   0  0  0  0  0  0  0  0  0  0  0  0
  150.0514  133.9814  188.6575 C   0  0  0  0  0  0  0  0  0  0  0  0
  150.3927  134.2719  190.0129 N   0  0  0  0  0  0  0  0  0  0  0  0
  151.6836  134.9201  190.1761 C   0  0  0  0  0  0  0  0  0  0  0  0
  151.6522  136.2199  189.4374 C   0  0  0  0  0  0  0  0  0  0  0  0
  150.3557  133.4477  190.6415 H   0  0  0  0  0  0  0  0  0  0  0  0
  154.6107  138.3168  186.2484 C   0  0  0  0  0  0  0  0  0  0  0  0
  155.8315  138.8709  186.0188 F   0  0  0  0  0  0  0  0  0  0  0  0
  153.5746  139.1218  185.7532 F   0  0  0  0  0  0  0  0  0  0  0  0
  154.5499  137.1597  185.4571 F   0  0  0  0  0  0  0  0  0  0  0  0
  1  2  1  0  0  0
  2  3  2  0  0  0
  3  4  1  0  0  0
  4  5  2  0  0  0
  5  6  1  0  0  0
  6 17  1  0  0  0
 17 18  1  0  0  0
 17 19  1  0  0  0
 17 20  1  0  0  0
  6  7  2  0  0  0
  5  8  1  0  0  0
  8  9  2  0  0  0
  8 10  1  0  0  0
 10 11  1  0  0  0
 11 12  1  0  0  0
 12 13  1  0  0  0
 13 14  1  0  0  0
 14 15  1  0  0  0
  7  2  1  0  0  0
 15 10  1  0  0  0
 15  4  1  0  0  0
 13 16  1  0  0  0
M  END
> <minimizedAffinity>
-5.14309

> <CNNscore>
0.5433366299

> <CNNaffinity>
4.1432914734

> <CNN_VS>
2.2512021065

> <CNNaffinity_variance>
0.0378787294

$$$$
[H]c1c(C([H])([H])[H])c([H])c2c(c1C(F)(F)F)C(=O)N1C([H])([H])C([H])([H])N([H])C([H])([H])[C@@]21[H]


 20 22  0  0  0  0  0  0  0  0999 V2000
  152.8133  138.4059  186.8040 C   0  0  0  0  0  0  0  0  0  0  0  0
  153.2541  137.8561  188.1136 C   0  0  0  0  0  0  0  0  0  0  0  0
  152.3437  137.0997  188.8179 C   0  0  0  0  0  0  0  0  0  0  0  0
  152.6903  136.5662  190.0303 C   0  0  0  0  0  0  0  0  0  0  0  0
  153.9735  136.8010  190.5377 C   0  0  0  0  0  0  0  0  0  0  0  0
  154.8990  137.5485  189.8585 C   0  0  0  0  0  0  0  0  0  0  0  0
  154.5195  138.0766  188.6313 C   0  0  0  0  0  0  0  0  0  0  0  0
  153.9916  136.1274  191.8366 C   0  0  0  0  0  0  0  0  0  0  0  0
  154.9711  136.1058  192.6028 O   0  0  0  0  0  0  0  0  0  0  0  0
  152.7591  135.5147  192.0946 N   0  0  0  0  0  0  0  0  0  0  0  0
  152.1929  134.7874  193.2025 C   0  0  0  0  0  0  0  0  0  0  0  0
  150.8116  135.3375  193.5518 C   0  0  0  0  0  0  0  0  0  0  0  0
  150.0234  135.3799  192.3623 N   0  0  0  0  0  0  0  0  0  0  0  0
  150.5643  136.2365  191.3198 C   0  0  0  0  0  0  0  0  0  0  0  0
  151.9144  135.7174  190.9402 C   0  0  0  0  0  0  0  0  0  0  0  0
  149.0329  135.6419  192.5235 H   0  0  0  0  0  0  0  0  0  0  0  0
  156.2516  137.7740  190.4125 C   0  0  0  0  0  0  0  0  0  0  0  0
  156.9325  136.6436  190.7417 F   0  0  0  0  0  0  0  0  0  0  0  0
  156.1861  138.6716  191.4880 F   0  0  0  0  0  0  0  0  0  0  0  0
  157.0366  138.4415  189.4601 F   0  0  0  0  0  0  0  0  0  0  0  0
  1  2  1  0  0  0
  2  3  2  0  0  0
  3  4  1  0  0  0
  4  5  2  0  0  0
  5  6  1  0  0  0
  6 17  1  0  0  0
 17 18  1  0  0  0
 17 19  1  0  0  0
 17 20  1  0  0  0
  6  7  2  0  0  0
  5  8  1  0  0  0
  8  9  2  0  0  0
  8 10  1  0  0  0
 10 11  1  0  0  0
 11 12  1  0  0  0
 12 13  1  0  0  0
 13 14  1  0  0  0
 14 15  1  0  0  0
  7  2  1  0  0  0
 15 10  1  0  0  0
 15  4  1  0  0  0
 13 16  1  0  0  0
M  END
> <minimizedAffinity>
-5.83005

> <CNNscore>
0.5343816876

> <CNNaffinity>
4.3409614563

> <CNN_VS>
2.3197302818

> <CNNaffinity_variance>
0.0535196848

$$$$
[H]c1c(C([H])([H])[H])c([H])c2c(c1C(F)(F)F)C(=O)N1C([H])([H])C([H])([H])N([H])C([H])([H])[C@@]21[H]


 20 22  0  0  0  0  0  0  0  0999 V2000
  153.4461  138.5053  186.3794 C   0  0  0  0  0  0  0  0  0  0  0  0
  153.4271  137.9505  187.7591 C   0  0  0  0  0  0  0  0  0  0  0  0
  152.4598  137.0135  188.0482 C   0  0  0  0  0  0  0  0  0  0  0  0
  152.3909  136.4659  189.3011 C   0  0  0  0  0  0  0  0  0  0  0  0
  153.3112  136.8713  190.2748 C   0  0  0  0  0  0  0  0  0  0  0  0
  154.2838  137.8003  190.0149 C   0  0  0  0  0  0  0  0  0  0  0  0
  154.3297  138.3383  188.7352 C   0  0  0  0  0  0  0  0  0  0  0  0
  152.9358  136.1272  191.4777 C   0  0  0  0  0  0  0  0  0  0  0  0
  153.5247  136.2144  192.5697 O   0  0  0  0  0  0  0  0  0  0  0  0
  151.8273  135.3086  191.2285 N   0  0  0  0  0  0  0  0  0  0  0  0
  151.0079  134.4298  192.0244 C   0  0  0  0  0  0  0  0  0  0  0  0
  149.5275  134.7265  191.7944 C   0  0  0  0  0  0  0  0  0  0  0  0
  149.2736  134.7178  190.3895 N   0  0  0  0  0  0  0  0  0  0  0  0
  150.0220  135.7157  189.6430 C   0  0  0  0  0  0  0  0  0  0  0  0
  151.4807  135.4465  189.8327 C   0  0  0  0  0  0  0  0  0  0  0  0
  148.2699  134.8059  190.1432 H   0  0  0  0  0  0  0  0  0  0  0  0
  155.2502  138.2046  191.0589 C   0  0  0  0  0  0  0  0  0  0  0  0
  155.8270  137.1758  191.7361 F   0  0  0  0  0  0  0  0  0  0  0  0
  154.6567  139.1302  191.9294 F   0  0  0  0  0  0  0  0  0  0  0  0
  156.3002  138.9214  190.4652 F   0  0  0  0  0  0  0  0  0  0  0  0
  1  2  1  0  0  0
  2  3  2  0  0  0
  3  4  1  0  0  0
  4  5  2  0  0  0
  5  6  1  0  0  0
  6 17  1  0  0  0
 17 18  1  0  0  0
 17 19  1  0  0  0
 17 20  1  0  0  0
  6  7  2  0  0  0
  5  8  1  0  0  0
  8  9  2  0  0  0
  8 10  1  0  0  0
 10 11  1  0  0  0
 11 12  1  0  0  0
 12 13  1  0  0  0
 13 14  1  0  0  0
 14 15  1  0  0  0
  7  2  1  0  0  0
 15 10  1  0  0  0
 15  4  1  0  0  0
 13 16  1  0  0  0
M  END
> <minimizedAffinity>
-5.98618

> <CNNscore>
0.5297087431

> <CNNaffinity>
4.2029824257

> <CNN_VS>
2.2263565063

> <CNNaffinity_variance>
0.0657458380

$$$$
[H]N=C1c2c([H])nc([H])nc2C([H])([H])[C@](c2c([H])c(-c3c([H])nc([H])c(Cl)c3[H])c([H])c([H])c2F)(C([H])([H])[H])N1[H]


 28 31  0  0  0  0  0  0  0  0999 V2000
  155.8717  142.1548  183.6094 C   0  0  0  0  0  0  0  0  0  0  0  0
  156.5553  140.8239  183.6931 C   0  0  0  0  0  0  0  0  0  0  0  0
  156.8172  140.3527  182.2835 C   0  0  0  0  0  0  0  0  0  0  0  0
  157.6962  141.2957  181.5658 C   0  0  0  0  0  0  0  0  0  0  0  0
  157.5819  141.4293  180.2290 N   0  0  0  0  0  0  0  0  0  0  0  0
  158.3651  142.2630  179.5227 C   0  0  0  0  0  0  0  0  0  0  0  0
  159.2820  142.9719  180.2027 N   0  0  0  0  0  0  0  0  0  0  0  0
  159.4337  142.8710  181.5485 C   0  0  0  0  0  0  0  0  0  0  0  0
  158.6331  142.0211  182.2591 C   0  0  0  0  0  0  0  0  0  0  0  0
  158.7588  141.8968  183.7270 C   0  0  0  0  0  0  0  0  0  0  0  0
  159.6183  142.5494  184.3887 N   0  0  0  0  0  0  0  0  0  0  0  0
  157.8516  140.9905  184.3385 N   0  0  0  0  0  0  0  0  0  0  0  0
  160.3208  143.2191  184.0791 H   0  0  0  0  0  0  0  0  0  0  0  0
  158.1445  140.4930  185.2056 H   0  0  0  0  0  0  0  0  0  0  0  0
  155.7314  139.8080  184.3975 C   0  0  0  0  0  0  0  0  0  0  0  0
  156.1673  139.1549  185.5291 C   0  0  0  0  0  0  0  0  0  0  0  0
  155.3789  138.2029  186.1704 C   0  0  0  0  0  0  0  0  0  0  0  0
  154.1346  137.9268  185.6374 C   0  0  0  0  0  0  0  0  0  0  0  0
  153.6592  138.5685  184.4927 C   0  0  0  0  0  0  0  0  0  0  0  0
  154.4840  139.5031  183.8988 C   0  0  0  0  0  0  0  0  0  0  0  0
  154.0600  140.1559  182.7770 F   0  0  0  0  0  0  0  0  0  0  0  0
  155.8178  137.4978  187.3671 C   0  0  0  0  0  0  0  0  0  0  0  0
  156.2628  136.1983  187.2710 C   0  0  0  0  0  0  0  0  0  0  0  0
  156.6758  135.5129  188.3678 N   0  0  0  0  0  0  0  0  0  0  0  0
  156.6747  136.0585  189.6016 C   0  0  0  0  0  0  0  0  0  0  0  0
  156.2377  137.3520  189.7343 C   0  0  0  0  0  0  0  0  0  0  0  0
  156.2288  138.0733  191.3228 Cl  0  0  0  0  0  0  0  0  0  0  0  0
  155.8081  138.0758  188.6192 C   0  0  0  0  0  0  0  0  0  0  0  0
  2  1  1  0  0  0
  2 15  1  0  0  0
 15 16  2  0  0  0
 16 17  1  0  0  0
 17 22  1  0  0  0
 22 23  2  0  0  0
 23 24  1  0  0  0
 24 25  2  0  0  0
 25 26  1  0  0  0
 26 27  1  0  0  0
 26 28  2  0  0  0
 17 18  2  0  0  0
 18 19  1  0  0  0
 19 20  2  0  0  0
 20 21  1  0  0  0
  2  3  1  0  0  0
  3  4  1  0  0  0
  4  5  2  0  0  0
  5  6  1  0  0  0
  6  7  2  0  0  0
  7  8  1  0  0  0
  8  9  2  0  0  0
  9 10  1  0  0  0
 10 11  2  0  0  0
 10 12  1  0  0  0
 12  2  1  0  0  0
 20 15  1  0  0  0
  9  4  1  0  0  0
 28 22  1  0  0  0
 11 13  1  0  0  0
 12 14  1  0  0  0
M  END
> <minimizedAffinity>
-8.89186

> <CNNscore>
0.4410007000

> <CNNaffinity>
6.6454262733

> <CNN_VS>
2.9306375980

> <CNNaffinity_variance>
0.2059003413

$$$$
[H]N=C1c2c([H])nc([H])nc2C([H])([H])[C@](c2c([H])c(-c3c([H])nc([H])c(Cl)c3[H])c([H])c([H])c2F)(C([H])([H])[H])N1[H]


 28 31  0  0  0  0  0  0  0  0999 V2000
  153.0947  138.6598  186.9862 C   0  0  0  0  0  0  0  0  0  0  0  0
  153.5144  137.2499  186.7006 C   0  0  0  0  0  0  0  0  0  0  0  0
  154.9673  137.1161  187.0861 C   0  0  0  0  0  0  0  0  0  0  0  0
  155.1600  137.3889  188.5232 C   0  0  0  0  0  0  0  0  0  0  0  0
  156.3269  137.9100  188.9531 N   0  0  0  0  0  0  0  0  0  0  0  0
  156.5619  138.1661  190.2519 C   0  0  0  0  0  0  0  0  0  0  0  0
  155.5801  137.8814  191.1240 N   0  0  0  0  0  0  0  0  0  0  0  0
  154.3885  137.3564  190.7379 C   0  0  0  0  0  0  0  0  0  0  0  0
  154.1577  137.0992  189.4154 C   0  0  0  0  0  0  0  0  0  0  0  0
  152.8671  136.5427  188.9564 C   0  0  0  0  0  0  0  0  0  0  0  0
  151.9296  136.2611  189.7590 N   0  0  0  0  0  0  0  0  0  0  0  0
  152.7579  136.3423  187.5542 N   0  0  0  0  0  0  0  0  0  0  0  0
  151.8787  136.3507  190.7726 H   0  0  0  0  0  0  0  0  0  0  0  0
  152.1533  135.5708  187.2013 H   0  0  0  0  0  0  0  0  0  0  0  0
  153.3595  136.8929  185.2668 C   0  0  0  0  0  0  0  0  0  0  0  0
  152.6590  137.6788  184.3787 C   0  0  0  0  0  0  0  0  0  0  0  0
  152.5235  137.3218  183.0395 C   0  0  0  0  0  0  0  0  0  0  0  0
  153.1158  136.1465  182.6192 C   0  0  0  0  0  0  0  0  0  0  0  0
  153.8333  135.3250  183.4901 C   0  0  0  0  0  0  0  0  0  0  0  0
  153.9347  135.7289  184.8066 C   0  0  0  0  0  0  0  0  0  0  0  0
  154.6276  134.9565  185.6940 F   0  0  0  0  0  0  0  0  0  0  0  0
  151.7868  138.1349  182.0813 C   0  0  0  0  0  0  0  0  0  0  0  0
  152.4364  138.6582  180.9860 C   0  0  0  0  0  0  0  0  0  0  0  0
  151.7788  139.4223  180.0763 N   0  0  0  0  0  0  0  0  0  0  0  0
  150.4658  139.7098  180.1909 C   0  0  0  0  0  0  0  0  0  0  0  0
  149.7868  139.2044  181.2705 C   0  0  0  0  0  0  0  0  0  0  0  0
  148.0882  139.5668  181.4350 Cl  0  0  0  0  0  0  0  0  0  0  0  0
  150.4436  138.4161  182.2186 C   0  0  0  0  0  0  0  0  0  0  0  0
  2  1  1  0  0  0
  2 15  1  0  0  0
 15 16  2  0  0  0
 16 17  1  0  0  0
 17 22  1  0  0  0
 22 23  2  0  0  0
 23 24  1  0  0  0
 24 25  2  0  0  0
 25 26  1  0  0  0
 26 27  1  0  0  0
 26 28  2  0  0  0
 17 18  2  0  0  0
 18 19  1  0  0  0
 19 20  2  0  0  0
 20 21  1  0  0  0
  2  3  1  0  0  0
  3  4  1  0  0  0
  4  5  2  0  0  0
  5  6  1  0  0  0
  6  7  2  0  0  0
  7  8  1  0  0  0
  8  9  2  0  0  0
  9 10  1  0  0  0
 10 11  2  0  0  0
 10 12  1  0  0  0
 12  2  1  0  0  0
 20 15  1  0  0  0
  9  4  1  0  0  0
 28 22  1  0  0  0
 11 13  1  0  0  0
 12 14  1  0  0  0
M  END
> <minimizedAffinity>
-6.53949

> <CNNscore>
0.3673121929

> <CNNaffinity>
5.5990891457

> <CNN_VS>
2.0566136837

> <CNNaffinity_variance>
0.0060727973

$$$$
[H]N=C1c2c([H])nc([H])nc2C([H])([H])[C@](c2c([H])c(-c3c([H])nc([H])c(Cl)c3[H])c([H])c([H])c2F)(C([H])([H])[H])N1[H]


 28 31  0  0  0  0  0  0  0  0999 V2000
  155.2809  142.5654  183.9731 C   0  0  0  0  0  0  0  0  0  0  0  0
  155.7755  141.2645  183.4174 C   0  0  0  0  0  0  0  0  0  0  0  0
  156.3355  141.5356  182.0425 C   0  0  0  0  0  0  0  0  0  0  0  0
  157.4630  142.4850  182.1088 C   0  0  0  0  0  0  0  0  0  0  0  0
  157.7070  143.3055  181.0671 N   0  0  0  0  0  0  0  0  0  0  0  0
  158.7279  144.1802  181.0678 C   0  0  0  0  0  0  0  0  0  0  0  0
  159.5118  144.2120  182.1587 N   0  0  0  0  0  0  0  0  0  0  0  0
  159.3049  143.4055  183.2317 C   0  0  0  0  0  0  0  0  0  0  0  0
  158.2645  142.5191  183.2229 C   0  0  0  0  0  0  0  0  0  0  0  0
  157.9991  141.6367  184.3791 C   0  0  0  0  0  0  0  0  0  0  0  0
  158.7264  141.6442  185.4151 N   0  0  0  0  0  0  0  0  0  0  0  0
  156.8754  140.7785  184.2413 N   0  0  0  0  0  0  0  0  0  0  0  0
  159.5515  142.1984  185.6388 H   0  0  0  0  0  0  0  0  0  0  0  0
  156.8837  139.8562  184.7256 H   0  0  0  0  0  0  0  0  0  0  0  0
  154.6966  140.2490  183.3087 C   0  0  0  0  0  0  0  0  0  0  0  0
  153.7241  140.3020  182.3349 C   0  0  0  0  0  0  0  0  0  0  0  0
  152.7197  139.3408  182.2550 C   0  0  0  0  0  0  0  0  0  0  0  0
  152.7231  138.3212  183.1873 C   0  0  0  0  0  0  0  0  0  0  0  0
  153.6922  138.2347  184.1880 C   0  0  0  0  0  0  0  0  0  0  0  0
  154.6636  139.2155  184.2189 C   0  0  0  0  0  0  0  0  0  0  0  0
  155.6320  139.1708  185.1804 F   0  0  0  0  0  0  0  0  0  0  0  0
  151.6795  139.3755  181.2358 C   0  0  0  0  0  0  0  0  0  0  0  0
  152.0075  139.6790  179.9335 C   0  0  0  0  0  0  0  0  0  0  0  0
  151.0610  139.7224  178.9610 N   0  0  0  0  0  0  0  0  0  0  0  0
  149.7589  139.4733  179.2107 C   0  0  0  0  0  0  0  0  0  0  0  0
  149.3961  139.1673  180.4978 C   0  0  0  0  0  0  0  0  0  0  0  0
  147.7163  138.8430  180.8390 Cl  0  0  0  0  0  0  0  0  0  0  0  0
  150.3535  139.1172  181.5141 C   0  0  0  0  0  0  0  0  0  0  0  0
  2  1  1  0  0  0
  2 15  1  0  0  0
 15 16  2  0  0  0
 16 17  1  0  0  0
 17 22  1  0  0  0
 22 23  2  0  0  0
 23 24  1  0  0  0
 24 25  2  0  0  0
 25 26  1  0  0  0
 26 27  1  0  0  0
 26 28  2  0  0  0
 17 18  2  0  0  0
 18 19  1  0  0  0
 19 20  2  0  0  0
 20 21  1  0  0  0
  2  3  1  0  0  0
  3  4  1  0  0  0
  4  5  2  0  0  0
  5  6  1  0  0  0
  6  7  2  0  0  0
  7  8  1  0  0  0
  8  9  2  0  0  0
  9 10  1  0  0  0
 10 11  2  0  0  0
 10 12  1  0  0  0
 12  2  1  0  0  0
 20 15  1  0  0  0
  9  4  1  0  0  0
 28 22  1  0  0  0
 11 13  1  0  0  0
 12 14  1  0  0  0
M  END
> <minimizedAffinity>
-8.96465

> <CNNscore>
0.3605175614

> <CNNaffinity>
6.6462759972

> <CNN_VS>
2.3960993290

> <CNNaffinity_variance>
0.0990877002

$$$$
[H]N=C1c2c([H])nc([H])nc2C([H])([H])[C@](c2c([H])c(-c3c([H])nc([H])c(Cl)c3[H])c([H])c([H])c2F)(C([H])([H])[H])N1[H]


 28 31  0  0  0  0  0  0  0  0999 V2000
  158.8173  140.4953  182.8384 C   0  0  0  0  0  0  0  0  0  0  0  0
  157.3812  140.9174  182.7665 C   0  0  0  0  0  0  0  0  0  0  0  0
  157.2981  142.3468  183.2434 C   0  0  0  0  0  0  0  0  0  0  0  0
  158.1005  143.2381  182.3838 C   0  0  0  0  0  0  0  0  0  0  0  0
  158.6567  144.3486  182.9086 N   0  0  0  0  0  0  0  0  0  0  0  0
  159.3857  145.2027  182.1694 C   0  0  0  0  0  0  0  0  0  0  0  0
  159.5458  144.9100  180.8677 N   0  0  0  0  0  0  0  0  0  0  0  0
  159.0051  143.8035  180.2951 C   0  0  0  0  0  0  0  0  0  0  0  0
  158.2654  142.9402  181.0539 C   0  0  0  0  0  0  0  0  0  0  0  0
  157.6748  141.7177  180.4685 C   0  0  0  0  0  0  0  0  0  0  0  0
  157.8067  141.4236  179.2444 N   0  0  0  0  0  0  0  0  0  0  0  0
  156.9462  140.9024  181.3754 N   0  0  0  0  0  0  0  0  0  0  0  0
  158.2929  141.9147  178.4958 H   0  0  0  0  0  0  0  0  0  0  0  0
  156.1474  140.3386  181.0157 H   0  0  0  0  0  0  0  0  0  0  0  0
  156.5003  140.0729  183.6138 C   0  0  0  0  0  0  0  0  0  0  0  0
  155.2611  139.6413  183.1952 C   0  0  0  0  0  0  0  0  0  0  0  0
  154.4507  138.8535  184.0086 C   0  0  0  0  0  0  0  0  0  0  0  0
  154.9259  138.5116  185.2600 C   0  0  0  0  0  0  0  0  0  0  0  0
  156.1761  138.9301  185.7182 C   0  0  0  0  0  0  0  0  0  0  0  0
  156.9363  139.7094  184.8689 C   0  0  0  0  0  0  0  0  0  0  0  0
  158.1663  140.1413  185.2752 F   0  0  0  0  0  0  0  0  0  0  0  0
  153.1362  138.3859  183.5895 C   0  0  0  0  0  0  0  0  0  0  0  0
  152.4839  137.4252  184.3293 C   0  0  0  0  0  0  0  0  0  0  0  0
  151.2593  136.9665  183.9638 N   0  0  0  0  0  0  0  0  0  0  0  0
  150.6174  137.4199  182.8673 C   0  0  0  0  0  0  0  0  0  0  0  0
  151.2383  138.3778  182.1065 C   0  0  0  0  0  0  0  0  0  0  0  0
  150.4229  138.9751  180.6846 Cl  0  0  0  0  0  0  0  0  0  0  0  0
  152.4983  138.8640  182.4641 C   0  0  0  0  0  0  0  0  0  0  0  0
  2  1  1  0  0  0
  2 15  1  0  0  0
 15 16  2  0  0  0
 16 17  1  0  0  0
 17 22  1  0  0  0
 22 23  2  0  0  0
 23 24  1  0  0  0
 24 25  2  0  0  0
 25 26  1  0  0  0
 26 27  1  0  0  0
 26 28  2  0  0  0
 17 18  2  0  0  0
 18 19  1  0  0  0
 19 20  2  0  0  0
 20 21  1  0  0  0
  2  3  1  0  0  0
  3  4  1  0  0  0
  4  5  2  0  0  0
  5  6  1  0  0  0
  6  7  2  0  0  0
  7  8  1  0  0  0
  8  9  2  0  0  0
  9 10  1  0  0  0
 10 11  2  0  0  0
 10 12  1  0  0  0
 12  2  1  0  0  0
 20 15  1  0  0  0
  9  4  1  0  0  0
 28 22  1  0  0  0
 11 13  1  0  0  0
 12 14  1  0  0  0
M  END
> <minimizedAffinity>
-8.78913

> <CNNscore>
0.3469924927

> <CNNaffinity>
6.5368537903

> <CNN_VS>
2.2682392597

> <CNNaffinity_variance>
0.0635083467

$$$$
[H]N=C1c2c([H])nc([H])nc2C([H])([H])[C@](c2c([H])c(-c3c([H])nc([H])c(Cl)c3[H])c([H])c([H])c2F)(C([H])([H])[H])N1[H]


 28 31  0  0  0  0  0  0  0  0999 V2000
  152.4600  136.6108  181.8831 C   0  0  0  0  0  0  0  0  0  0  0  0
  152.0039  137.7197  182.7819 C   0  0  0  0  0  0  0  0  0  0  0  0
  151.5488  138.8622  181.9072 C   0  0  0  0  0  0  0  0  0  0  0  0
  150.4226  138.4526  181.0464 C   0  0  0  0  0  0  0  0  0  0  0  0
  150.2596  139.0318  179.8398 N   0  0  0  0  0  0  0  0  0  0  0  0
  149.2444  138.7072  179.0205 C   0  0  0  0  0  0  0  0  0  0  0  0
  148.3814  137.7706  179.4492 N   0  0  0  0  0  0  0  0  0  0  0  0
  148.5052  137.1596  180.6558 C   0  0  0  0  0  0  0  0  0  0  0  0
  149.5405  137.4954  181.4827 C   0  0  0  0  0  0  0  0  0  0  0  0
  149.7161  136.8403  182.7964 C   0  0  0  0  0  0  0  0  0  0  0  0
  148.9136  135.9598  183.2245 N   0  0  0  0  0  0  0  0  0  0  0  0
  150.8441  137.2732  183.5436 N   0  0  0  0  0  0  0  0  0  0  0  0
  148.0760  135.5666  182.7982 H   0  0  0  0  0  0  0  0  0  0  0  0
  150.7967  137.2534  184.5842 H   0  0  0  0  0  0  0  0  0  0  0  0
  153.0846  138.1998  183.6813 C   0  0  0  0  0  0  0  0  0  0  0  0
  153.3011  137.6644  184.9316 C   0  0  0  0  0  0  0  0  0  0  0  0
  154.3181  138.1335  185.7592 C   0  0  0  0  0  0  0  0  0  0  0  0
  155.1135  139.1608  185.2895 C   0  0  0  0  0  0  0  0  0  0  0  0
  154.9241  139.7279  184.0283 C   0  0  0  0  0  0  0  0  0  0  0  0
  153.9005  139.2230  183.2512 C   0  0  0  0  0  0  0  0  0  0  0  0
  153.6789  139.7473  182.0101 F   0  0  0  0  0  0  0  0  0  0  0  0
  154.5662  137.5850  187.0856 C   0  0  0  0  0  0  0  0  0  0  0  0
  154.7617  136.2309  187.2405 C   0  0  0  0  0  0  0  0  0  0  0  0
  154.9923  135.6884  188.4636 N   0  0  0  0  0  0  0  0  0  0  0  0
  155.0431  136.4355  189.5857 C   0  0  0  0  0  0  0  0  0  0  0  0
  154.8527  137.7890  189.4685 C   0  0  0  0  0  0  0  0  0  0  0  0
  154.9143  138.7704  190.9095 Cl  0  0  0  0  0  0  0  0  0  0  0  0
  154.6139  138.3683  188.2198 C   0  0  0  0  0  0  0  0  0  0  0  0
  2  1  1  0  0  0
  2 15  1  0  0  0
 15 16  2  0  0  0
 16 17  1  0  0  0
 17 22  1  0  0  0
 22 23  2  0  0  0
 23 24  1  0  0  0
 24 25  2  0  0  0
 25 26  1  0  0  0
 26 27  1  0  0  0
 26 28  2  0  0  0
 17 18  2  0  0  0
 18 19  1  0  0  0
 19 20  2  0  0  0
 20 21  1  0  0  0
  2  3  1  0  0  0
  3  4  1  0  0  0
  4  5  2  0  0  0
  5  6  1  0  0  0
  6  7  2  0  0  0
  7  8  1  0  0  0
  8  9  2  0  0  0
  9 10  1  0  0  0
 10 11  2  0  0  0
 10 12  1  0  0  0
 12  2  1  0  0  0
 20 15  1  0  0  0
  9  4  1  0  0  0
 28 22  1  0  0  0
 11 13  1  0  0  0
 12 14  1  0  0  0
M  END
> <minimizedAffinity>
-6.67556

> <CNNscore>
0.3433342278

> <CNNaffinity>
5.5012826920

> <CNN_VS>
1.8887786865

> <CNNaffinity_variance>
0.0489656366

$$$$
[H]N=C1c2c([H])nc([H])nc2C([H])([H])[C@](c2c([H])c(-c3c([H])nc([H])c(Cl)c3[H])c([H])c([H])c2F)(C([H])([H])[H])N1[H]


 28 31  0  0  0  0  0  0  0  0999 V2000
  154.2570  142.2501  183.9627 C   0  0  0  0  0  0  0  0  0  0  0  0
  155.3494  141.5825  183.1838 C   0  0  0  0  0  0  0  0  0  0  0  0
  155.7434  140.3294  183.9267 C   0  0  0  0  0  0  0  0  0  0  0  0
  154.6022  139.4008  184.0390 C   0  0  0  0  0  0  0  0  0  0  0  0
  154.5167  138.5736  185.1003 N   0  0  0  0  0  0  0  0  0  0  0  0
  153.5067  137.6984  185.2469 C   0  0  0  0  0  0  0  0  0  0  0  0
  152.5681  137.6732  184.2856 N   0  0  0  0  0  0  0  0  0  0  0  0
  152.6120  138.4872  183.1993 C   0  0  0  0  0  0  0  0  0  0  0  0
  153.6422  139.3743  183.0580 C   0  0  0  0  0  0  0  0  0  0  0  0
  153.7146  140.2868  181.8970 C   0  0  0  0  0  0  0  0  0  0  0  0
  152.8461  140.2779  180.9761 N   0  0  0  0  0  0  0  0  0  0  0  0
  154.8290  141.1678  181.8870 N   0  0  0  0  0  0  0  0  0  0  0  0
  152.0125  139.7039  180.8600 H   0  0  0  0  0  0  0  0  0  0  0  0
  155.2199  141.4751  180.9715 H   0  0  0  0  0  0  0  0  0  0  0  0
  156.5457  142.4499  183.0300 C   0  0  0  0  0  0  0  0  0  0  0  0
  157.7629  142.1414  183.5959 C   0  0  0  0  0  0  0  0  0  0  0  0
  158.8698  142.9720  183.4416 C   0  0  0  0  0  0  0  0  0  0  0  0
  158.7151  144.1262  182.6982 C   0  0  0  0  0  0  0  0  0  0  0  0
  157.4975  144.4715  182.1097 C   0  0  0  0  0  0  0  0  0  0  0  0
  156.4343  143.6104  182.2962 C   0  0  0  0  0  0  0  0  0  0  0  0
  155.2240  143.9079  181.7384 F   0  0  0  0  0  0  0  0  0  0  0  0
  160.1669  142.6686  184.0312 C   0  0  0  0  0  0  0  0  0  0  0  0
  161.0406  141.8347  183.3702 C   0  0  0  0  0  0  0  0  0  0  0  0
  162.2556  141.5302  183.8944 N   0  0  0  0  0  0  0  0  0  0  0  0
  162.6730  142.0212  185.0795 C   0  0  0  0  0  0  0  0  0  0  0  0
  161.8277  142.8558  185.7656 C   0  0  0  0  0  0  0  0  0  0  0  0
  162.3510  143.4995  187.3003 Cl  0  0  0  0  0  0  0  0  0  0  0  0
  160.5731  143.1824  185.2450 C   0  0  0  0  0  0  0  0  0  0  0  0
  2  1  1  0  0  0
  2 15  1  0  0  0
 15 16  2  0  0  0
 16 17  1  0  0  0
 17 22  1  0  0  0
 22 23  2  0  0  0
 23 24  1  0  0  0
 24 25  2  0  0  0
 25 26  1  0  0  0
 26 27  1  0  0  0
 26 28  2  0  0  0
 17 18  2  0  0  0
 18 19  1  0  0  0
 19 20  2  0  0  0
 20 21  1  0  0  0
  2  3  1  0  0  0
  3  4  1  0  0  0
  4  5  2  0  0  0
  5  6  1  0  0  0
  6  7  2  0  0  0
  7  8  1  0  0  0
  8  9  2  0  0  0
  9 10  1  0  0  0
 10 11  2  0  0  0
 10 12  1  0  0  0
 12  2  1  0  0  0
 20 15  1  0  0  0
  9  4  1  0  0  0
 28 22  1  0  0  0
 11 13  1  0  0  0
 12 14  1  0  0  0
M  END
> <minimizedAffinity>
-9.15645

> <CNNscore>
0.3405630589

> <CNNaffinity>
6.7785234451

> <CNN_VS>
2.3085145950

> <CNNaffinity_variance>
0.0307991616

$$$$
[H]N=C1c2c([H])nc([H])nc2C([H])([H])[C@](c2c([H])c(-c3c([H])nc([H])c(Cl)c3[H])c([H])c([H])c2F)(C([H])([H])[H])N1[H]


 28 31  0  0  0  0  0  0  0  0999 V2000
  152.1505  136.9374  181.6850 C   0  0  0  0  0  0  0  0  0  0  0  0
  151.8890  138.2768  182.3040 C   0  0  0  0  0  0  0  0  0  0  0  0
  151.4899  139.2236  181.1986 C   0  0  0  0  0  0  0  0  0  0  0  0
  150.2610  138.7617  180.5252 C   0  0  0  0  0  0  0  0  0  0  0  0
  150.0645  139.0505  179.2229 N   0  0  0  0  0  0  0  0  0  0  0  0
  148.9579  138.6667  178.5630 C   0  0  0  0  0  0  0  0  0  0  0  0
  148.0370  137.9737  179.2540 N   0  0  0  0  0  0  0  0  0  0  0  0
  148.1913  137.6591  180.5661 C   0  0  0  0  0  0  0  0  0  0  0  0
  149.3195  138.0531  181.2296 C   0  0  0  0  0  0  0  0  0  0  0  0
  149.5289  137.7153  182.6537 C   0  0  0  0  0  0  0  0  0  0  0  0
  148.6739  137.0687  183.3270 N   0  0  0  0  0  0  0  0  0  0  0  0
  150.7531  138.1722  183.2113 N   0  0  0  0  0  0  0  0  0  0  0  0
  147.7676  136.6912  183.0552 H   0  0  0  0  0  0  0  0  0  0  0  0
  150.7874  138.4082  184.2254 H   0  0  0  0  0  0  0  0  0  0  0  0
  153.0835  138.8215  182.9995 C   0  0  0  0  0  0  0  0  0  0  0  0
  153.7898  139.9035  182.5228 C   0  0  0  0  0  0  0  0  0  0  0  0
  154.9093  140.3942  183.1899 C   0  0  0  0  0  0  0  0  0  0  0  0
  155.2982  139.7616  184.3549 C   0  0  0  0  0  0  0  0  0  0  0  0
  154.6073  138.6629  184.8683 C   0  0  0  0  0  0  0  0  0  0  0  0
  153.5049  138.2197  184.1648 C   0  0  0  0  0  0  0  0  0  0  0  0
  152.7983  137.1481  184.6302 F   0  0  0  0  0  0  0  0  0  0  0  0
  155.6737  141.5357  182.7055 C   0  0  0  0  0  0  0  0  0  0  0  0
  155.2103  142.8131  182.9271 C   0  0  0  0  0  0  0  0  0  0  0  0
  155.8978  143.8977  182.4859 N   0  0  0  0  0  0  0  0  0  0  0  0
  157.0617  143.7886  181.8127 C   0  0  0  0  0  0  0  0  0  0  0  0
  157.5532  142.5303  181.5742 C   0  0  0  0  0  0  0  0  0  0  0  0
  159.0570  142.3704  180.7043 Cl  0  0  0  0  0  0  0  0  0  0  0  0
  156.8623  141.4004  182.0190 C   0  0  0  0  0  0  0  0  0  0  0  0
  2  1  1  0  0  0
  2 15  1  0  0  0
 15 16  2  0  0  0
 16 17  1  0  0  0
 17 22  1  0  0  0
 22 23  2  0  0  0
 23 24  1  0  0  0
 24 25  2  0  0  0
 25 26  1  0  0  0
 26 27  1  0  0  0
 26 28  2  0  0  0
 17 18  2  0  0  0
 18 19  1  0  0  0
 19 20  2  0  0  0
 20 21  1  0  0  0
  2  3  1  0  0  0
  3  4  1  0  0  0
  4  5  2  0  0  0
  5  6  1  0  0  0
  6  7  2  0  0  0
  7  8  1  0  0  0
  8  9  2  0  0  0
  9 10  1  0  0  0
 10 11  2  0  0  0
 10 12  1  0  0  0
 12  2  1  0  0  0
 20 15  1  0  0  0
  9  4  1  0  0  0
 28 22  1  0  0  0
 11 13  1  0  0  0
 12 14  1  0  0  0
M  END
> <minimizedAffinity>
-7.51991

> <CNNscore>
0.3251931965

> <CNNaffinity>
6.0683608055

> <CNN_VS>
1.9733896255

> <CNNaffinity_variance>
0.0436552092

$$$$
[H]N=C1c2c([H])nc([H])nc2C([H])([H])[C@](c2c([H])c(-c3c([H])nc([H])c(Cl)c3[H])c([H])c([H])c2F)(C([H])([H])[H])N1[H]


 28 31  0  0  0  0  0  0  0  0999 V2000
  153.0439  136.5386  187.0827 C   0  0  0  0  0  0  0  0  0  0  0  0
  154.3394  137.2410  186.8106 C   0  0  0  0  0  0  0  0  0  0  0  0
  154.6049  138.1779  187.9635 C   0  0  0  0  0  0  0  0  0  0  0  0
  154.7233  137.4342  189.2324 C   0  0  0  0  0  0  0  0  0  0  0  0
  154.3617  138.0254  190.3889 N   0  0  0  0  0  0  0  0  0  0  0  0
  154.4609  137.4001  191.5749 C   0  0  0  0  0  0  0  0  0  0  0  0
  154.9404  136.1447  191.5718 N   0  0  0  0  0  0  0  0  0  0  0  0
  155.3167  135.5085  190.4325 C   0  0  0  0  0  0  0  0  0  0  0  0
  155.2123  136.1514  189.2309 C   0  0  0  0  0  0  0  0  0  0  0  0
  155.5975  135.4849  187.9686 C   0  0  0  0  0  0  0  0  0  0  0  0
  156.0568  134.3056  187.9406 N   0  0  0  0  0  0  0  0  0  0  0  0
  155.4204  136.2634  186.7935 N   0  0  0  0  0  0  0  0  0  0  0  0
  156.2350  133.6482  188.6982 H   0  0  0  0  0  0  0  0  0  0  0  0
  156.0575  136.1060  185.9844 H   0  0  0  0  0  0  0  0  0  0  0  0
  154.3040  138.0245  185.5489 C   0  0  0  0  0  0  0  0  0  0  0  0
  153.2577  137.9460  184.6566 C   0  0  0  0  0  0  0  0  0  0  0  0
  153.2482  138.6871  183.4777 C   0  0  0  0  0  0  0  0  0  0  0  0
  154.3264  139.5124  183.2226 C   0  0  0  0  0  0  0  0  0  0  0  0
  155.4041  139.6180  184.1032 C   0  0  0  0  0  0  0  0  0  0  0  0
  155.3596  138.8598  185.2563 C   0  0  0  0  0  0  0  0  0  0  0  0
  156.3920  138.9317  186.1470 F   0  0  0  0  0  0  0  0  0  0  0  0
  152.1547  138.6204  182.5176 C   0  0  0  0  0  0  0  0  0  0  0  0
  151.0929  137.7745  182.7478 C   0  0  0  0  0  0  0  0  0  0  0  0
  150.0598  137.6872  181.8711 N   0  0  0  0  0  0  0  0  0  0  0  0
  150.0134  138.4156  180.7366 C   0  0  0  0  0  0  0  0  0  0  0  0
  151.0549  139.2693  180.4754 C   0  0  0  0  0  0  0  0  0  0  0  0
  151.0117  140.2187  179.0124 Cl  0  0  0  0  0  0  0  0  0  0  0  0
  152.1282  139.3751  181.3635 C   0  0  0  0  0  0  0  0  0  0  0  0
  2  1  1  0  0  0
  2 15  1  0  0  0
 15 16  2  0  0  0
 16 17  1  0  0  0
 17 22  1  0  0  0
 22 23  2  0  0  0
 23 24  1  0  0  0
 24 25  2  0  0  0
 25 26  1  0  0  0
 26 27  1  0  0  0
 26 28  2  0  0  0
 17 18  2  0  0  0
 18 19  1  0  0  0
 19 20  2  0  0  0
 20 21  1  0  0  0
  2  3  1  0  0  0
  3  4  1  0  0  0
  4  5  2  0  0  0
  5  6  1  0  0  0
  6  7  2  0  0  0
  7  8  1  0  0  0
  8  9  2  0  0  0
  9 10  1  0  0  0
 10 11  2  0  0  0
 10 12  1  0  0  0
 12  2  1  0  0  0
 20 15  1  0  0  0
  9  4  1  0  0  0
 28 22  1  0  0  0
 11 13  1  0  0  0
 12 14  1  0  0  0
M  END
> <minimizedAffinity>
-6.82263

> <CNNscore>
0.3248630762

> <CNNaffinity>
5.4818191528

> <CNN_VS>
1.7808406353

> <CNNaffinity_variance>
0.0372973606

$$$$
[H]N=C1c2c([H])nc([H])nc2C([H])([H])[C@](c2c([H])c(-c3c([H])nc([H])c(Cl)c3[H])c([H])c([H])c2F)(C([H])([H])[H])N1[H]


 28 31  0  0  0  0  0  0  0  0999 V2000
  152.7644  137.7110  186.9927 C   0  0  0  0  0  0  0  0  0  0  0  0
  154.2199  137.4775  186.7231 C   0  0  0  0  0  0  0  0  0  0  0  0
  154.3338  136.2587  185.8403 C   0  0  0  0  0  0  0  0  0  0  0  0
  153.6389  136.4698  184.5559 C   0  0  0  0  0  0  0  0  0  0  0  0
  153.0977  135.4179  183.9090 N   0  0  0  0  0  0  0  0  0  0  0  0
  152.4653  135.5500  182.7300 C   0  0  0  0  0  0  0  0  0  0  0  0
  152.3880  136.7852  182.2067 N   0  0  0  0  0  0  0  0  0  0  0  0
  152.9175  137.8743  182.8216 C   0  0  0  0  0  0  0  0  0  0  0  0
  153.5586  137.7312  184.0203 C   0  0  0  0  0  0  0  0  0  0  0  0
  154.1334  138.8962  184.7262 C   0  0  0  0  0  0  0  0  0  0  0  0
  154.0784  140.0683  184.2511 N   0  0  0  0  0  0  0  0  0  0  0  0
  154.7549  138.6051  185.9701 N   0  0  0  0  0  0  0  0  0  0  0  0
  153.6718  140.4099  183.3816 H   0  0  0  0  0  0  0  0  0  0  0  0
  155.5509  139.1980  186.2864 H   0  0  0  0  0  0  0  0  0  0  0  0
  154.9960  137.2468  187.9686 C   0  0  0  0  0  0  0  0  0  0  0  0
  155.8339  136.1657  188.1306 C   0  0  0  0  0  0  0  0  0  0  0  0
  156.5486  135.9677  189.3092 C   0  0  0  0  0  0  0  0  0  0  0  0
  156.3947  136.8931  190.3234 C   0  0  0  0  0  0  0  0  0  0  0  0
  155.5551  138.0006  190.1954 C   0  0  0  0  0  0  0  0  0  0  0  0
  154.8712  138.1460  189.0047 C   0  0  0  0  0  0  0  0  0  0  0  0
  154.0389  139.2150  188.8351 F   0  0  0  0  0  0  0  0  0  0  0  0
  157.4395  134.8320  189.5053 C   0  0  0  0  0  0  0  0  0  0  0  0
  157.4693  134.1879  190.7218 C   0  0  0  0  0  0  0  0  0  0  0  0
  158.2905  133.1283  190.9372 N   0  0  0  0  0  0  0  0  0  0  0  0
  159.1156  132.6499  189.9832 C   0  0  0  0  0  0  0  0  0  0  0  0
  159.1119  133.2677  188.7583 C   0  0  0  0  0  0  0  0  0  0  0  0
  160.1731  132.6627  187.5128 Cl  0  0  0  0  0  0  0  0  0  0  0  0
  158.2750  134.3596  188.5148 C   0  0  0  0  0  0  0  0  0  0  0  0
  2  1  1  0  0  0
  2 15  1  0  0  0
 15 16  2  0  0  0
 16 17  1  0  0  0
 17 22  1  0  0  0
 22 23  2  0  0  0
 23 24  1  0  0  0
 24 25  2  0  0  0
 25 26  1  0  0  0
 26 27  1  0  0  0
 26 28  2  0  0  0
 17 18  2  0  0  0
 18 19  1  0  0  0
 19 20  2  0  0  0
 20 21  1  0  0  0
  2  3  1  0  0  0
  3  4  1  0  0  0
  4  5  2  0  0  0
  5  6  1  0  0  0
  6  7  2  0  0  0
  7  8  1  0  0  0
  8  9  2  0  0  0
  9 10  1  0  0  0
 10 11  2  0  0  0
 10 12  1  0  0  0
 12  2  1  0  0  0
 20 15  1  0  0  0
  9  4  1  0  0  0
 28 22  1  0  0  0
 11 13  1  0  0  0
 12 14  1  0  0  0
M  END
> <minimizedAffinity>
-6.69517

> <CNNscore>
0.3155305684

> <CNNaffinity>
5.5617742538

> <CNN_VS>
1.7549097538

> <CNNaffinity_variance>
0.0311075635

$$$$
[H]/C(C(=O)/C([H])=C(\[H])c1c([H])c([H])c(F)c([H])c1[H])=C(/[H])c1c([H])c([H])c(F)c([H])c1[H]


 20 21  0  0  0  0  0  0  0  0999 V2000
  154.2966  140.4744  183.9217 O   0  0  0  0  0  0  0  0  0  0  0  0
  154.1139  140.7534  182.6390 C   0  0  0  0  0  0  0  0  0  0  0  0
  152.8797  140.2766  182.1486 C   0  0  0  0  0  0  0  0  0  0  0  0
  152.3972  140.1199  180.9543 C   0  0  0  0  0  0  0  0  0  0  0  0
  151.0459  139.5902  180.6767 C   0  0  0  0  0  0  0  0  0  0  0  0
  150.6723  139.4431  179.3340 C   0  0  0  0  0  0  0  0  0  0  0  0
  149.4439  138.9616  178.9621 C   0  0  0  0  0  0  0  0  0  0  0  0
  148.5496  138.6116  179.9297 C   0  0  0  0  0  0  0  0  0  0  0  0
  147.3226  138.1306  179.5666 F   0  0  0  0  0  0  0  0  0  0  0  0
  148.9071  138.7522  181.2553 C   0  0  0  0  0  0  0  0  0  0  0  0
  150.1568  139.2422  181.6253 C   0  0  0  0  0  0  0  0  0  0  0  0
  155.1858  141.4562  182.0655 C   0  0  0  0  0  0  0  0  0  0  0  0
  156.4638  141.3023  182.2164 C   0  0  0  0  0  0  0  0  0  0  0  0
  157.4256  142.1617  181.5093 C   0  0  0  0  0  0  0  0  0  0  0  0
  157.9162  143.3357  181.9656 C   0  0  0  0  0  0  0  0  0  0  0  0
  158.8329  144.1188  181.2517 C   0  0  0  0  0  0  0  0  0  0  0  0
  159.2678  143.6902  180.0248 C   0  0  0  0  0  0  0  0  0  0  0  0
  160.1519  144.3940  179.2792 F   0  0  0  0  0  0  0  0  0  0  0  0
  158.7722  142.4840  179.5414 C   0  0  0  0  0  0  0  0  0  0  0  0
  157.8797  141.7338  180.2500 C   0  0  0  0  0  0  0  0  0  0  0  0
  1  2  2  0  0  0
  2  3  1  0  0  0
  3  4  2  0  0  0
  4  5  1  0  0  0
  5  6  2  0  0  0
  6  7  1  0  0  0
  7  8  2  0  0  0
  8  9  1  0  0  0
  8 10  1  0  0  0
 10 11  2  0  0  0
  2 12  1  0  0  0
 12 13  2  0  0  0
 13 14  1  0  0  0
 14 15  2  0  0  0
 15 16  1  0  0  0
 16 17  2  0  0  0
 17 18  1  0  0  0
 17 19  1  0  0  0
 19 20  2  0  0  0
 11  5  1  0  0  0
 20 14  1  0  0  0
M  END
> <minimizedAffinity>
-8.30680

> <CNNscore>
0.7407882214

> <CNNaffinity>
5.5722990036

> <CNN_VS>
4.1278934479

> <CNNaffinity_variance>
0.0838023201

$$$$
[H]/C(C(=O)/C([H])=C(\[H])c1c([H])c([H])c(F)c([H])c1[H])=C(/[H])c1c([H])c([H])c(F)c([H])c1[H]


 20 21  0  0  0  0  0  0  0  0999 V2000
  154.3004  140.4099  183.9852 O   0  0  0  0  0  0  0  0  0  0  0  0
  154.1632  140.5939  182.6800 C   0  0  0  0  0  0  0  0  0  0  0  0
  155.2669  141.2592  182.1051 C   0  0  0  0  0  0  0  0  0  0  0  0
  155.9773  142.2824  182.4684 C   0  0  0  0  0  0  0  0  0  0  0  0
  157.1136  142.8134  181.6868 C   0  0  0  0  0  0  0  0  0  0  0  0
  157.5091  142.0944  180.5509 C   0  0  0  0  0  0  0  0  0  0  0  0
  158.5496  142.4955  179.7535 C   0  0  0  0  0  0  0  0  0  0  0  0
  159.2274  143.6344  180.0729 C   0  0  0  0  0  0  0  0  0  0  0  0
  160.2661  144.0407  179.2825 F   0  0  0  0  0  0  0  0  0  0  0  0
  158.8461  144.3504  181.1895 C   0  0  0  0  0  0  0  0  0  0  0  0
  157.7881  143.9366  181.9947 C   0  0  0  0  0  0  0  0  0  0  0  0
  152.9565  140.0869  182.1715 C   0  0  0  0  0  0  0  0  0  0  0  0
  152.4165  140.2274  181.0018 C   0  0  0  0  0  0  0  0  0  0  0  0
  151.1264  139.6006  180.6754 C   0  0  0  0  0  0  0  0  0  0  0  0
  150.6398  139.4029  179.4299 C   0  0  0  0  0  0  0  0  0  0  0  0
  149.4018  138.7995  179.1717 C   0  0  0  0  0  0  0  0  0  0  0  0
  148.6284  138.3807  180.2225 C   0  0  0  0  0  0  0  0  0  0  0  0
  147.4224  137.7903  180.0489 F   0  0  0  0  0  0  0  0  0  0  0  0
  149.1152  138.5771  181.5104 C   0  0  0  0  0  0  0  0  0  0  0  0
  150.3233  139.1666  181.7440 C   0  0  0  0  0  0  0  0  0  0  0  0
  1  2  2  0  0  0
  2  3  1  0  0  0
  3  4  2  0  0  0
  4  5  1  0  0  0
  5  6  2  0  0  0
  6  7  1  0  0  0
  7  8  2  0  0  0
  8  9  1  0  0  0
  8 10  1  0  0  0
 10 11  2  0  0  0
  2 12  1  0  0  0
 12 13  2  0  0  0
 13 14  1  0  0  0
 14 15  2  0  0  0
 15 16  1  0  0  0
 16 17  2  0  0  0
 17 18  1  0  0  0
 17 19  1  0  0  0
 19 20  2  0  0  0
 11  5  1  0  0  0
 20 14  1  0  0  0
M  END
> <minimizedAffinity>
-8.04051

> <CNNscore>
0.7200900316

> <CNNaffinity>
5.5436615944

> <CNN_VS>
3.9919354916

> <CNNaffinity_variance>
0.0704325959

$$$$
[H]/C(C(=O)/C([H])=C(\[H])c1c([H])c([H])c(F)c([H])c1[H])=C(/[H])c1c([H])c([H])c(F)c([H])c1[H]


 20 21  0  0  0  0  0  0  0  0999 V2000
  154.1745  139.7851  184.3637 O   0  0  0  0  0  0  0  0  0  0  0  0
  154.2912  140.4518  183.2243 C   0  0  0  0  0  0  0  0  0  0  0  0
  155.3957  141.3300  183.2181 C   0  0  0  0  0  0  0  0  0  0  0  0
  156.3749  141.5226  182.3889 C   0  0  0  0  0  0  0  0  0  0  0  0
  157.4426  142.5231  182.5960 C   0  0  0  0  0  0  0  0  0  0  0  0
  157.2424  143.8025  182.0604 C   0  0  0  0  0  0  0  0  0  0  0  0
  158.1662  144.8068  182.1927 C   0  0  0  0  0  0  0  0  0  0  0  0
  159.3232  144.5568  182.8691 C   0  0  0  0  0  0  0  0  0  0  0  0
  160.2492  145.5532  183.0051 F   0  0  0  0  0  0  0  0  0  0  0  0
  159.5307  143.3002  183.4008 C   0  0  0  0  0  0  0  0  0  0  0  0
  158.5876  142.2851  183.2622 C   0  0  0  0  0  0  0  0  0  0  0  0
  153.2934  140.1323  182.2894 C   0  0  0  0  0  0  0  0  0  0  0  0
  152.4960  139.1122  182.2318 C   0  0  0  0  0  0  0  0  0  0  0  0
  151.5102  138.9730  181.1490 C   0  0  0  0  0  0  0  0  0  0  0  0
  150.5394  138.0347  181.0840 C   0  0  0  0  0  0  0  0  0  0  0  0
  149.6227  137.9444  180.0282 C   0  0  0  0  0  0  0  0  0  0  0  0
  149.6967  138.8447  178.9977 C   0  0  0  0  0  0  0  0  0  0  0  0
  148.8454  138.8182  177.9453 F   0  0  0  0  0  0  0  0  0  0  0  0
  150.6903  139.8164  179.0499 C   0  0  0  0  0  0  0  0  0  0  0  0
  151.5751  139.8899  180.0859 C   0  0  0  0  0  0  0  0  0  0  0  0
  1  2  2  0  0  0
  2  3  1  0  0  0
  3  4  2  0  0  0
  4  5  1  0  0  0
  5  6  2  0  0  0
  6  7  1  0  0  0
  7  8  2  0  0  0
  8  9  1  0  0  0
  8 10  1  0  0  0
 10 11  2  0  0  0
  2 12  1  0  0  0
 12 13  2  0  0  0
 13 14  1  0  0  0
 14 15  2  0  0  0
 15 16  1  0  0  0
 16 17  2  0  0  0
 17 18  1  0  0  0
 17 19  1  0  0  0
 19 20  2  0  0  0
 11  5  1  0  0  0
 20 14  1  0  0  0
M  END
> <minimizedAffinity>
-7.73502

> <CNNscore>
0.6847212911

> <CNNaffinity>
5.4538488388

> <CNN_VS>
3.7343664169

> <CNNaffinity_variance>
0.1001952514

$$$$
[H]/C(C(=O)/C([H])=C(\[H])c1c([H])c([H])c(F)c([H])c1[H])=C(/[H])c1c([H])c([H])c(F)c([H])c1[H]


 20 21  0  0  0  0  0  0  0  0999 V2000
  155.0459  140.0167  184.2386 O   0  0  0  0  0  0  0  0  0  0  0  0
  154.6755  140.2726  182.9921 C   0  0  0  0  0  0  0  0  0  0  0  0
  155.6725  140.9467  182.2555 C   0  0  0  0  0  0  0  0  0  0  0  0
  156.4888  141.9141  182.5407 C   0  0  0  0  0  0  0  0  0  0  0  0
  157.4700  142.4702  181.5858 C   0  0  0  0  0  0  0  0  0  0  0  0
  158.0973  143.6748  181.9313 C   0  0  0  0  0  0  0  0  0  0  0  0
  159.0229  144.2795  181.1208 C   0  0  0  0  0  0  0  0  0  0  0  0
  159.3486  143.6916  179.9347 C   0  0  0  0  0  0  0  0  0  0  0  0
  160.2708  144.2887  179.1211 F   0  0  0  0  0  0  0  0  0  0  0  0
  158.7369  142.5050  179.5845 C   0  0  0  0  0  0  0  0  0  0  0  0
  157.7975  141.8968  180.4131 C   0  0  0  0  0  0  0  0  0  0  0  0
  153.3818  139.8161  182.6925 C   0  0  0  0  0  0  0  0  0  0  0  0
  152.7310  139.8217  181.5718 C   0  0  0  0  0  0  0  0  0  0  0  0
  151.3645  139.2852  181.4790 C   0  0  0  0  0  0  0  0  0  0  0  0
  150.7910  138.4350  182.3595 C   0  0  0  0  0  0  0  0  0  0  0  0
  149.4825  137.9520  182.2257 C   0  0  0  0  0  0  0  0  0  0  0  0
  148.7277  138.3499  181.1534 C   0  0  0  0  0  0  0  0  0  0  0  0
  147.4572  137.9243  180.9595 F   0  0  0  0  0  0  0  0  0  0  0  0
  149.3037  139.2247  180.2383 C   0  0  0  0  0  0  0  0  0  0  0  0
  150.5797  139.6854  180.3840 C   0  0  0  0  0  0  0  0  0  0  0  0
  1  2  2  0  0  0
  2  3  1  0  0  0
  3  4  2  0  0  0
  4  5  1  0  0  0
  5  6  2  0  0  0
  6  7  1  0  0  0
  7  8  2  0  0  0
  8  9  1  0  0  0
  8 10  1  0  0  0
 10 11  2  0  0  0
  2 12  1  0  0  0
 12 13  2  0  0  0
 13 14  1  0  0  0
 14 15  2  0  0  0
 15 16  1  0  0  0
 16 17  2  0  0  0
 17 18  1  0  0  0
 17 19  1  0  0  0
 19 20  2  0  0  0
 11  5  1  0  0  0
 20 14  1  0  0  0
M  END
> <minimizedAffinity>
-7.38636

> <CNNscore>
0.6657875776

> <CNNaffinity>
5.5501632690

> <CNN_VS>
3.6952297688

> <CNNaffinity_variance>
0.1558123529

$$$$
[H]/C(C(=O)/C([H])=C(\[H])c1c([H])c([H])c(F)c([H])c1[H])=C(/[H])c1c([H])c([H])c(F)c([H])c1[H]


 20 21  0  0  0  0  0  0  0  0999 V2000
  157.2858  143.4509  181.4294 O   0  0  0  0  0  0  0  0  0  0  0  0
  157.2489  142.5205  182.3725 C   0  0  0  0  0  0  0  0  0  0  0  0
  158.3360  142.6094  183.2678 C   0  0  0  0  0  0  0  0  0  0  0  0
  158.7229  141.8853  184.2725 C   0  0  0  0  0  0  0  0  0  0  0  0
  159.9230  142.1788  185.0834 C   0  0  0  0  0  0  0  0  0  0  0  0
  161.1693  142.0929  184.4484 C   0  0  0  0  0  0  0  0  0  0  0  0
  162.3465  142.3440  185.1044 C   0  0  0  0  0  0  0  0  0  0  0  0
  162.3088  142.6904  186.4224 C   0  0  0  0  0  0  0  0  0  0  0  0
  163.4787  142.9423  187.0834 F   0  0  0  0  0  0  0  0  0  0  0  0
  161.0867  142.7780  187.0577 C   0  0  0  0  0  0  0  0  0  0  0  0
  159.8951  142.5214  186.3846 C   0  0  0  0  0  0  0  0  0  0  0  0
  156.1413  141.6641  182.2644 C   0  0  0  0  0  0  0  0  0  0  0  0
  155.1364  141.4904  183.0642 C   0  0  0  0  0  0  0  0  0  0  0  0
  154.0698  140.5265  182.7530 C   0  0  0  0  0  0  0  0  0  0  0  0
  153.8653  139.3481  183.3828 C   0  0  0  0  0  0  0  0  0  0  0  0
  152.8321  138.4629  183.0477 C   0  0  0  0  0  0  0  0  0  0  0  0
  151.9730  138.7898  182.0313 C   0  0  0  0  0  0  0  0  0  0  0  0
  150.9529  137.9841  181.6529 F   0  0  0  0  0  0  0  0  0  0  0  0
  152.1703  139.9991  181.3733 C   0  0  0  0  0  0  0  0  0  0  0  0
  153.1818  140.8495  181.7127 C   0  0  0  0  0  0  0  0  0  0  0  0
  1  2  2  0  0  0
  2  3  1  0  0  0
  3  4  2  0  0  0
  4  5  1  0  0  0
  5  6  2  0  0  0
  6  7  1  0  0  0
  7  8  2  0  0  0
  8  9  1  0  0  0
  8 10  1  0  0  0
 10 11  2  0  0  0
  2 12  1  0  0  0
 12 13  2  0  0  0
 13 14  1  0  0  0
 14 15  2  0  0  0
 15 16  1  0  0  0
 16 17  2  0  0  0
 17 18  1  0  0  0
 17 19  1  0  0  0
 19 20  2  0  0  0
 11  5  1  0  0  0
 20 14  1  0  0  0
M  END
> <minimizedAffinity>
-8.77319

> <CNNscore>
0.6612566710

> <CNNaffinity>
5.8367547989

> <CNN_VS>
3.8595931530

> <CNNaffinity_variance>
0.1277967989

$$$$
[H]/C(C(=O)/C([H])=C(\[H])c1c([H])c([H])c(F)c([H])c1[H])=C(/[H])c1c([H])c([H])c(F)c([H])c1[H]


 20 21  0  0  0  0  0  0  0  0999 V2000
  155.1785  133.9644  181.8742 O   0  0  0  0  0  0  0  0  0  0  0  0
  154.0512  134.3151  182.4764 C   0  0  0  0  0  0  0  0  0  0  0  0
  152.9039  133.8676  181.7874 C   0  0  0  0  0  0  0  0  0  0  0  0
  152.6870  133.5070  180.5601 C   0  0  0  0  0  0  0  0  0  0  0  0
  151.3709  133.0651  180.0536 C   0  0  0  0  0  0  0  0  0  0  0  0
  150.2326  133.6925  180.5775 C   0  0  0  0  0  0  0  0  0  0  0  0
  148.9631  133.3616  180.1797 C   0  0  0  0  0  0  0  0  0  0  0  0
  148.7967  132.3875  179.2405 C   0  0  0  0  0  0  0  0  0  0  0  0
  147.5338  132.0520  178.8388 F   0  0  0  0  0  0  0  0  0  0  0  0
  149.9109  131.7630  178.7178 C   0  0  0  0  0  0  0  0  0  0  0  0
  151.1973  132.1046  179.1269 C   0  0  0  0  0  0  0  0  0  0  0  0
  154.2568  135.0482  183.6563 C   0  0  0  0  0  0  0  0  0  0  0  0
  153.4006  135.5487  184.4905 C   0  0  0  0  0  0  0  0  0  0  0  0
  153.8391  136.2926  185.6814 C   0  0  0  0  0  0  0  0  0  0  0  0
  153.5095  135.9986  186.9588 C   0  0  0  0  0  0  0  0  0  0  0  0
  153.9545  136.7406  188.0611 C   0  0  0  0  0  0  0  0  0  0  0  0
  154.7671  137.8247  187.8550 C   0  0  0  0  0  0  0  0  0  0  0  0
  155.2349  138.5874  188.8712 F   0  0  0  0  0  0  0  0  0  0  0  0
  155.1152  138.1402  186.5461 C   0  0  0  0  0  0  0  0  0  0  0  0
  154.6728  137.4067  185.4841 C   0  0  0  0  0  0  0  0  0  0  0  0
  1  2  2  0  0  0
  2  3  1  0  0  0
  3  4  2  0  0  0
  4  5  1  0  0  0
  5  6  2  0  0  0
  6  7  1  0  0  0
  7  8  2  0  0  0
  8  9  1  0  0  0
  8 10  1  0  0  0
 10 11  2  0  0  0
  2 12  1  0  0  0
 12 13  2  0  0  0
 13 14  1  0  0  0
 14 15  2  0  0  0
 15 16  1  0  0  0
 16 17  2  0  0  0
 17 18  1  0  0  0
 17 19  1  0  0  0
 19 20  2  0  0  0
 11  5  1  0  0  0
 20 14  1  0  0  0
M  END
> <minimizedAffinity>
-2.95411

> <CNNscore>
0.6489271522

> <CNNaffinity>
4.4091081619

> <CNN_VS>
2.8611900806

> <CNNaffinity_variance>
0.4101205766

$$$$
[H]/C(C(=O)/C([H])=C(\[H])c1c([H])c([H])c(F)c([H])c1[H])=C(/[H])c1c([H])c([H])c(F)c([H])c1[H]


 20 21  0  0  0  0  0  0  0  0999 V2000
  154.4242  138.4700  183.8635 O   0  0  0  0  0  0  0  0  0  0  0  0
  155.4469  139.0907  184.4339 C   0  0  0  0  0  0  0  0  0  0  0  0
  156.1520  139.9182  183.5343 C   0  0  0  0  0  0  0  0  0  0  0  0
  157.4038  140.2370  183.4128 C   0  0  0  0  0  0  0  0  0  0  0  0
  157.9233  141.1443  182.3683 C   0  0  0  0  0  0  0  0  0  0  0  0
  158.1756  142.4735  182.7336 C   0  0  0  0  0  0  0  0  0  0  0  0
  158.6581  143.4000  181.8460 C   0  0  0  0  0  0  0  0  0  0  0  0
  158.9031  143.0196  180.5600 C   0  0  0  0  0  0  0  0  0  0  0  0
  159.3844  143.9379  179.6690 F   0  0  0  0  0  0  0  0  0  0  0  0
  158.6583  141.7129  180.1893 C   0  0  0  0  0  0  0  0  0  0  0  0
  158.1680  140.7774  181.0968 C   0  0  0  0  0  0  0  0  0  0  0  0
  155.5930  138.7834  185.7963 C   0  0  0  0  0  0  0  0  0  0  0  0
  154.7265  138.3397  186.6518 C   0  0  0  0  0  0  0  0  0  0  0  0
  155.0976  138.0819  188.0516 C   0  0  0  0  0  0  0  0  0  0  0  0
  154.4278  138.5262  189.1384 C   0  0  0  0  0  0  0  0  0  0  0  0
  154.8236  138.2523  190.4543 C   0  0  0  0  0  0  0  0  0  0  0  0
  155.9454  137.4962  190.6730 C   0  0  0  0  0  0  0  0  0  0  0  0
  156.3872  137.1918  191.9161 F   0  0  0  0  0  0  0  0  0  0  0  0
  156.6457  137.0315  189.5649 C   0  0  0  0  0  0  0  0  0  0  0  0
  156.2462  137.3078  188.2899 C   0  0  0  0  0  0  0  0  0  0  0  0
  1  2  2  0  0  0
  2  3  1  0  0  0
  3  4  2  0  0  0
  4  5  1  0  0  0
  5  6  2  0  0  0
  6  7  1  0  0  0
  7  8  2  0  0  0
  8  9  1  0  0  0
  8 10  1  0  0  0
 10 11  2  0  0  0
  2 12  1  0  0  0
 12 13  2  0  0  0
 13 14  1  0  0  0
 14 15  2  0  0  0
 15 16  1  0  0  0
 16 17  2  0  0  0
 17 18  1  0  0  0
 17 19  1  0  0  0
 19 20  2  0  0  0
 11  5  1  0  0  0
 20 14  1  0  0  0
M  END
> <minimizedAffinity>
-7.73248

> <CNNscore>
0.6471441984

> <CNNaffinity>
5.3904490471

> <CNN_VS>
3.4883978367

> <CNNaffinity_variance>
0.1411579847

$$$$
[H]/C(C(=O)/C([H])=C(\[H])c1c([H])c([H])c(F)c([H])c1[H])=C(/[H])c1c([H])c([H])c(F)c([H])c1[H]


 20 21  0  0  0  0  0  0  0  0999 V2000
  156.9651  143.6535  181.7421 O   0  0  0  0  0  0  0  0  0  0  0  0
  157.1142  142.6192  182.5572 C   0  0  0  0  0  0  0  0  0  0  0  0
  156.0466  141.7004  182.4717 C   0  0  0  0  0  0  0  0  0  0  0  0
  154.7576  141.8235  182.5549 C   0  0  0  0  0  0  0  0  0  0  0  0
  153.8142  140.6928  182.4312 C   0  0  0  0  0  0  0  0  0  0  0  0
  153.9744  139.6174  183.3152 C   0  0  0  0  0  0  0  0  0  0  0  0
  153.1565  138.5175  183.2895 C   0  0  0  0  0  0  0  0  0  0  0  0
  152.1492  138.4632  182.3724 C   0  0  0  0  0  0  0  0  0  0  0  0
  151.3294  137.3697  182.3406 F   0  0  0  0  0  0  0  0  0  0  0  0
  151.9823  139.5170  181.4969 C   0  0  0  0  0  0  0  0  0  0  0  0
  152.8172  140.6308  181.5291 C   0  0  0  0  0  0  0  0  0  0  0  0
  158.2950  142.6751  183.3151 C   0  0  0  0  0  0  0  0  0  0  0  0
  158.6786  141.9539  184.3213 C   0  0  0  0  0  0  0  0  0  0  0  0
  159.9743  142.1859  184.9777 C   0  0  0  0  0  0  0  0  0  0  0  0
  161.1858  142.0822  184.3872 C   0  0  0  0  0  0  0  0  0  0  0  0
  162.3939  142.3141  185.0581 C   0  0  0  0  0  0  0  0  0  0  0  0
  162.3681  142.6655  186.3825 C   0  0  0  0  0  0  0  0  0  0  0  0
  163.4947  142.9046  187.0942 F   0  0  0  0  0  0  0  0  0  0  0  0
  161.1292  142.7763  187.0045 C   0  0  0  0  0  0  0  0  0  0  0  0
  159.9621  142.5468  186.3359 C   0  0  0  0  0  0  0  0  0  0  0  0
  1  2  2  0  0  0
  2  3  1  0  0  0
  3  4  2  0  0  0
  4  5  1  0  0  0
  5  6  2  0  0  0
  6  7  1  0  0  0
  7  8  2  0  0  0
  8  9  1  0  0  0
  8 10  1  0  0  0
 10 11  2  0  0  0
  2 12  1  0  0  0
 12 13  2  0  0  0
 13 14  1  0  0  0
 14 15  2  0  0  0
 15 16  1  0  0  0
 16 17  2  0  0  0
 17 18  1  0  0  0
 17 19  1  0  0  0
 19 20  2  0  0  0
 11  5  1  0  0  0
 20 14  1  0  0  0
M  END
> <minimizedAffinity>
-8.78797

> <CNNscore>
0.6463170648

> <CNNaffinity>
5.8015794754

> <CNN_VS>
3.7496597767

> <CNNaffinity_variance>
0.1389273107

$$$$
[H]/C(C(=O)/C([H])=C(\[H])c1c([H])c([H])c(F)c([H])c1[H])=C(/[H])c1c([H])c([H])c(F)c([H])c1[H]


 20 21  0  0  0  0  0  0  0  0999 V2000
  154.3440  139.0915  183.5595 O   0  0  0  0  0  0  0  0  0  0  0  0
  155.4944  139.4575  184.1063 C   0  0  0  0  0  0  0  0  0  0  0  0
  156.3004  140.2105  183.2262 C   0  0  0  0  0  0  0  0  0  0  0  0
  156.2124  141.4134  182.7479 C   0  0  0  0  0  0  0  0  0  0  0  0
  157.1991  142.0028  181.8190 C   0  0  0  0  0  0  0  0  0  0  0  0
  157.6438  143.3041  182.0885 C   0  0  0  0  0  0  0  0  0  0  0  0
  158.5570  143.9474  181.2938 C   0  0  0  0  0  0  0  0  0  0  0  0
  159.0537  143.3020  180.2005 C   0  0  0  0  0  0  0  0  0  0  0  0
  159.9647  143.9370  179.4032 F   0  0  0  0  0  0  0  0  0  0  0  0
  158.6227  142.0200  179.9257 C   0  0  0  0  0  0  0  0  0  0  0  0
  157.6947  141.3731  180.7376 C   0  0  0  0  0  0  0  0  0  0  0  0
  155.6460  139.0137  185.4299 C   0  0  0  0  0  0  0  0  0  0  0  0
  154.7963  138.4404  186.2230 C   0  0  0  0  0  0  0  0  0  0  0  0
  155.1701  138.0524  187.5917 C   0  0  0  0  0  0  0  0  0  0  0  0
  156.2511  137.3168  187.9340 C   0  0  0  0  0  0  0  0  0  0  0  0
  156.5639  136.9732  189.2560 C   0  0  0  0  0  0  0  0  0  0  0  0
  155.7439  137.3950  190.2698 C   0  0  0  0  0  0  0  0  0  0  0  0
  155.9833  137.1012  191.5696 F   0  0  0  0  0  0  0  0  0  0  0  0
  154.6273  138.1530  189.9338 C   0  0  0  0  0  0  0  0  0  0  0  0
  154.3376  138.4785  188.6408 C   0  0  0  0  0  0  0  0  0  0  0  0
  1  2  2  0  0  0
  2  3  1  0  0  0
  3  4  2  0  0  0
  4  5  1  0  0  0
  5  6  2  0  0  0
  6  7  1  0  0  0
  7  8  2  0  0  0
  8  9  1  0  0  0
  8 10  1  0  0  0
 10 11  2  0  0  0
  2 12  1  0  0  0
 12 13  2  0  0  0
 13 14  1  0  0  0
 14 15  2  0  0  0
 15 16  1  0  0  0
 16 17  2  0  0  0
 17 18  1  0  0  0
 17 19  1  0  0  0
 19 20  2  0  0  0
 11  5  1  0  0  0
 20 14  1  0  0  0
M  END
> <minimizedAffinity>
-7.72829

> <CNNscore>
0.6288858652

> <CNNaffinity>
5.3574862480

> <CNN_VS>
3.3692474365

> <CNNaffinity_variance>
0.1344434023

$$$$
[H]Oc1c([H])c([H])c(N([H])c2nc([H])c(F)c(N([H])c3c([H])c([H])c(C(=O)N([H])[H])c([H])c3[H])n2)c([H])c1[H]


 30 32  0  0  0  0  0  0  0  0999 V2000
  156.2477  142.1385  182.1832 C   0  0  0  0  0  0  0  0  0  0  0  0
  155.5531  141.0180  182.0748 N   0  0  0  0  0  0  0  0  0  0  0  0
  154.1956  140.9926  182.2111 C   0  0  0  0  0  0  0  0  0  0  0  0
  153.5784  142.1568  182.4622 N   0  0  0  0  0  0  0  0  0  0  0  0
  154.2111  143.3177  182.5835 C   0  0  0  0  0  0  0  0  0  0  0  0
  155.5809  143.3501  182.4470 C   0  0  0  0  0  0  0  0  0  0  0  0
  156.2763  144.4956  182.5587 F   0  0  0  0  0  0  0  0  0  0  0  0
  157.6602  142.2015  182.0704 N   0  0  0  0  0  0  0  0  0  0  0  0
  158.0647  142.1864  181.0868 H   0  0  0  0  0  0  0  0  0  0  0  0
  160.4925  142.5903  185.1673 C   0  0  0  0  0  0  0  0  0  0  0  0
  159.6768  141.5102  185.0920 C   0  0  0  0  0  0  0  0  0  0  0  0
  158.7309  141.3420  184.0746 C   0  0  0  0  0  0  0  0  0  0  0  0
  158.6020  142.2792  183.1138 C   0  0  0  0  0  0  0  0  0  0  0  0
  159.4398  143.4132  183.1695 C   0  0  0  0  0  0  0  0  0  0  0  0
  160.3562  143.5549  184.1727 C   0  0  0  0  0  0  0  0  0  0  0  0
  161.0844  143.2471  187.4862 N   0  0  0  0  0  0  0  0  0  0  0  0
  161.4798  142.7709  186.2252 C   0  0  0  0  0  0  0  0  0  0  0  0
  162.6765  142.5005  186.0048 O   0  0  0  0  0  0  0  0  0  0  0  0
  161.1683  144.2584  187.7022 H   0  0  0  0  0  0  0  0  0  0  0  0
  160.7077  142.6159  188.2156 H   0  0  0  0  0  0  0  0  0  0  0  0
  153.5398  139.7534  182.1090 N   0  0  0  0  0  0  0  0  0  0  0  0
  153.9669  138.9303  182.6279 H   0  0  0  0  0  0  0  0  0  0  0  0
  152.3719  139.5235  181.3789 C   0  0  0  0  0  0  0  0  0  0  0  0
  152.1760  139.9122  180.0867 C   0  0  0  0  0  0  0  0  0  0  0  0
  150.9655  139.6827  179.3968 C   0  0  0  0  0  0  0  0  0  0  0  0
  149.9359  139.0419  180.0418 C   0  0  0  0  0  0  0  0  0  0  0  0
  148.7376  138.8112  179.3691 O   0  0  0  0  0  0  0  0  0  0  0  0
  150.0918  138.6297  181.3521 C   0  0  0  0  0  0  0  0  0  0  0  0
  151.2782  138.8689  181.9906 C   0  0  0  0  0  0  0  0  0  0  0  0
  148.0319  139.5346  179.4393 H   0  0  0  0  0  0  0  0  0  0  0  0
 16 17  1  0  0  0
 17 18  2  0  0  0
 17 10  1  0  0  0
 10 11  2  0  0  0
 11 12  1  0  0  0
 12 13  2  0  0  0
 13  8  1  0  0  0
  8  1  1  0  0  0
  1  2  2  0  0  0
  2  3  1  0  0  0
  3 21  1  0  0  0
 21 23  1  0  0  0
 23 24  2  0  0  0
 24 25  1  0  0  0
 25 26  2  0  0  0
 26 27  1  0  0  0
 26 28  1  0  0  0
 28 29  2  0  0  0
  3  4  2  0  0  0
  4  5  1  0  0  0
  5  6  2  0  0  0
  6  7  1  0  0  0
 13 14  1  0  0  0
 14 15  2  0  0  0
 15 10  1  0  0  0
  6  1  1  0  0  0
 29 23  1  0  0  0
 16 19  1  0  0  0
 16 20  1  0  0  0
  8  9  1  0  0  0
 21 22  1  0  0  0
 27 30  1  0  0  0
M  END
> <minimizedAffinity>
-9.12123

> <CNNscore>
0.5511345267

> <CNNaffinity>
6.3138470650

> <CNN_VS>
3.4797790051

> <CNNaffinity_variance>
0.0055478299

$$$$
[H]Oc1c([H])c([H])c(N([H])c2nc([H])c(F)c(N([H])c3c([H])c([H])c(C(=O)N([H])[H])c([H])c3[H])n2)c([H])c1[H]


 30 32  0  0  0  0  0  0  0  0999 V2000
  156.4693  142.7049  183.1602 C   0  0  0  0  0  0  0  0  0  0  0  0
  157.6098  142.1378  183.5172 N   0  0  0  0  0  0  0  0  0  0  0  0
  158.8093  142.5432  183.0087 C   0  0  0  0  0  0  0  0  0  0  0  0
  158.7956  143.5499  182.1221 N   0  0  0  0  0  0  0  0  0  0  0  0
  157.6900  144.1646  181.7188 C   0  0  0  0  0  0  0  0  0  0  0  0
  156.4764  143.7602  182.2283 C   0  0  0  0  0  0  0  0  0  0  0  0
  155.3234  144.3448  181.8582 F   0  0  0  0  0  0  0  0  0  0  0  0
  155.2018  142.2969  183.6492 N   0  0  0  0  0  0  0  0  0  0  0  0
  154.8230  142.8180  184.4954 H   0  0  0  0  0  0  0  0  0  0  0  0
  152.7458  139.1552  182.2847 C   0  0  0  0  0  0  0  0  0  0  0  0
  152.7574  140.3596  181.6626 C   0  0  0  0  0  0  0  0  0  0  0  0
  153.5651  141.4230  182.0809 C   0  0  0  0  0  0  0  0  0  0  0  0
  154.3772  141.2725  183.1468 C   0  0  0  0  0  0  0  0  0  0  0  0
  154.3838  140.0280  183.8116 C   0  0  0  0  0  0  0  0  0  0  0  0
  153.5863  139.0045  183.3842 C   0  0  0  0  0  0  0  0  0  0  0  0
  150.5372  138.2454  181.6116 N   0  0  0  0  0  0  0  0  0  0  0  0
  151.9062  138.0437  181.8533 C   0  0  0  0  0  0  0  0  0  0  0  0
  152.4094  136.9137  181.7001 O   0  0  0  0  0  0  0  0  0  0  0  0
  149.8477  138.0325  182.3572 H   0  0  0  0  0  0  0  0  0  0  0  0
  150.1890  138.6034  180.7045 H   0  0  0  0  0  0  0  0  0  0  0  0
  159.9700  141.8661  183.4214 N   0  0  0  0  0  0  0  0  0  0  0  0
  160.3385  141.0969  182.7876 H   0  0  0  0  0  0  0  0  0  0  0  0
  160.6734  142.1277  184.5990 C   0  0  0  0  0  0  0  0  0  0  0  0
  160.0957  142.4296  185.7966 C   0  0  0  0  0  0  0  0  0  0  0  0
  160.8493  142.7154  186.9561 C   0  0  0  0  0  0  0  0  0  0  0  0
  162.2211  142.6906  186.8885 C   0  0  0  0  0  0  0  0  0  0  0  0
  162.9731  142.9713  188.0274 O   0  0  0  0  0  0  0  0  0  0  0  0
  162.8484  142.3882  185.6943 C   0  0  0  0  0  0  0  0  0  0  0  0
  162.0872  142.1169  184.5902 C   0  0  0  0  0  0  0  0  0  0  0  0
  163.2228  143.9415  188.1779 H   0  0  0  0  0  0  0  0  0  0  0  0
 16 17  1  0  0  0
 17 18  2  0  0  0
 17 10  1  0  0  0
 10 11  2  0  0  0
 11 12  1  0  0  0
 12 13  2  0  0  0
 13  8  1  0  0  0
  8  1  1  0  0  0
  1  2  2  0  0  0
  2  3  1  0  0  0
  3 21  1  0  0  0
 21 23  1  0  0  0
 23 24  2  0  0  0
 24 25  1  0  0  0
 25 26  2  0  0  0
 26 27  1  0  0  0
 26 28  1  0  0  0
 28 29  2  0  0  0
  3  4  2  0  0  0
  4  5  1  0  0  0
  5  6  2  0  0  0
  6  7  1  0  0  0
 13 14  1  0  0  0
 14 15  2  0  0  0
 15 10  1  0  0  0
  6  1  1  0  0  0
 29 23  1  0  0  0
 16 19  1  0  0  0
 16 20  1  0  0  0
  8  9  1  0  0  0
 21 22  1  0  0  0
 27 30  1  0  0  0
M  END
> <minimizedAffinity>
-9.19905

> <CNNscore>
0.3377812207

> <CNNaffinity>
6.2759499550

> <CNN_VS>
2.1198980808

> <CNNaffinity_variance>
0.0113503663

$$$$
[H]Oc1c([H])c([H])c(N([H])c2nc([H])c(F)c(N([H])c3c([H])c([H])c(C(=O)N([H])[H])c([H])c3[H])n2)c([H])c1[H]


 30 32  0  0  0  0  0  0  0  0999 V2000
  156.4580  142.7340  183.1480 C   0  0  0  0  0  0  0  0  0  0  0  0
  157.5726  142.1270  183.5207 N   0  0  0  0  0  0  0  0  0  0  0  0
  158.7894  142.4703  183.0074 C   0  0  0  0  0  0  0  0  0  0  0  0
  158.8203  143.4572  182.0993 N   0  0  0  0  0  0  0  0  0  0  0  0
  157.7427  144.1093  181.6794 C   0  0  0  0  0  0  0  0  0  0  0  0
  156.5119  143.7676  182.1936 C   0  0  0  0  0  0  0  0  0  0  0  0
  155.3854  144.3923  181.8074 F   0  0  0  0  0  0  0  0  0  0  0  0
  155.1733  142.3906  183.6416 N   0  0  0  0  0  0  0  0  0  0  0  0
  154.7460  143.0436  184.3643 H   0  0  0  0  0  0  0  0  0  0  0  0
  152.8052  139.1168  182.4422 C   0  0  0  0  0  0  0  0  0  0  0  0
  153.6097  139.0414  183.5307 C   0  0  0  0  0  0  0  0  0  0  0  0
  154.4033  140.1092  183.9644 C   0  0  0  0  0  0  0  0  0  0  0  0
  154.3881  141.2764  183.2896 C   0  0  0  0  0  0  0  0  0  0  0  0
  153.5585  141.3807  182.1530 C   0  0  0  0  0  0  0  0  0  0  0  0
  152.7924  140.3242  181.7492 C   0  0  0  0  0  0  0  0  0  0  0  0
  150.5832  138.0475  182.1625 N   0  0  0  0  0  0  0  0  0  0  0  0
  151.9762  138.0074  181.9857 C   0  0  0  0  0  0  0  0  0  0  0  0
  152.5100  137.0232  181.4378 O   0  0  0  0  0  0  0  0  0  0  0  0
  150.1569  137.5819  182.9860 H   0  0  0  0  0  0  0  0  0  0  0  0
  149.9606  138.5313  181.4914 H   0  0  0  0  0  0  0  0  0  0  0  0
  159.9194  141.7537  183.4383 N   0  0  0  0  0  0  0  0  0  0  0  0
  160.2005  140.8986  182.8735 H   0  0  0  0  0  0  0  0  0  0  0  0
  160.6985  142.0806  184.5501 C   0  0  0  0  0  0  0  0  0  0  0  0
  162.0620  142.0953  184.5642 C   0  0  0  0  0  0  0  0  0  0  0  0
  162.8089  142.4050  185.7219 C   0  0  0  0  0  0  0  0  0  0  0  0
  162.1474  142.7064  186.8874 C   0  0  0  0  0  0  0  0  0  0  0  0
  162.8760  143.0132  188.0348 O   0  0  0  0  0  0  0  0  0  0  0  0
  160.7653  142.7043  186.9175 C   0  0  0  0  0  0  0  0  0  0  0  0
  160.0731  142.3990  185.7774 C   0  0  0  0  0  0  0  0  0  0  0  0
  163.1193  142.2367  188.6382 H   0  0  0  0  0  0  0  0  0  0  0  0
 16 17  1  0  0  0
 17 18  2  0  0  0
 17 10  1  0  0  0
 10 11  2  0  0  0
 11 12  1  0  0  0
 12 13  2  0  0  0
 13  8  1  0  0  0
  8  1  1  0  0  0
  1  2  2  0  0  0
  2  3  1  0  0  0
  3 21  1  0  0  0
 21 23  1  0  0  0
 23 24  2  0  0  0
 24 25  1  0  0  0
 25 26  2  0  0  0
 26 27  1  0  0  0
 26 28  1  0  0  0
 28 29  2  0  0  0
  3  4  2  0  0  0
  4  5  1  0  0  0
  5  6  2  0  0  0
  6  7  1  0  0  0
 13 14  1  0  0  0
 14 15  2  0  0  0
 15 10  1  0  0  0
  6  1  1  0  0  0
 29 23  1  0  0  0
 16 19  1  0  0  0
 16 20  1  0  0  0
  8  9  1  0  0  0
 21 22  1  0  0  0
 27 30  1  0  0  0
M  END
> <minimizedAffinity>
-9.24087

> <CNNscore>
0.3330219090

> <CNNaffinity>
6.2834033966

> <CNN_VS>
2.0925109386

> <CNNaffinity_variance>
0.0116007915

$$$$
[H]Oc1c([H])c([H])c(N([H])c2nc([H])c(F)c(N([H])c3c([H])c([H])c(C(=O)N([H])[H])c([H])c3[H])n2)c([H])c1[H]


 30 32  0  0  0  0  0  0  0  0999 V2000
  155.6659  142.3024  183.2788 C   0  0  0  0  0  0  0  0  0  0  0  0
  156.8092  141.7335  183.6239 N   0  0  0  0  0  0  0  0  0  0  0  0
  158.0148  142.2317  183.2234 C   0  0  0  0  0  0  0  0  0  0  0  0
  158.0041  143.3328  182.4573 N   0  0  0  0  0  0  0  0  0  0  0  0
  156.8961  143.9554  182.0733 C   0  0  0  0  0  0  0  0  0  0  0  0
  155.6764  143.4577  182.4742 C   0  0  0  0  0  0  0  0  0  0  0  0
  154.5205  144.0451  182.1174 F   0  0  0  0  0  0  0  0  0  0  0  0
  154.3936  141.8018  183.6562 N   0  0  0  0  0  0  0  0  0  0  0  0
  153.7677  142.4541  184.2165 H   0  0  0  0  0  0  0  0  0  0  0  0
  152.7529  138.0452  182.6763 C   0  0  0  0  0  0  0  0  0  0  0  0
  153.5303  138.2080  183.7748 C   0  0  0  0  0  0  0  0  0  0  0  0
  154.0852  139.4405  184.1370 C   0  0  0  0  0  0  0  0  0  0  0  0
  153.8542  140.5314  183.3789 C   0  0  0  0  0  0  0  0  0  0  0  0
  153.0476  140.3884  182.2301 C   0  0  0  0  0  0  0  0  0  0  0  0
  152.5167  139.1745  181.8971 C   0  0  0  0  0  0  0  0  0  0  0  0
  152.5522  135.5884  182.9635 N   0  0  0  0  0  0  0  0  0  0  0  0
  152.1722  136.7634  182.2940 C   0  0  0  0  0  0  0  0  0  0  0  0
  151.3370  136.7155  181.3700 O   0  0  0  0  0  0  0  0  0  0  0  0
  153.2955  134.9863  182.5616 H   0  0  0  0  0  0  0  0  0  0  0  0
  152.1108  135.2997  183.8546 H   0  0  0  0  0  0  0  0  0  0  0  0
  159.1797  141.5477  183.6124 N   0  0  0  0  0  0  0  0  0  0  0  0
  159.4379  140.6730  183.0670 H   0  0  0  0  0  0  0  0  0  0  0  0
  160.0210  141.9305  184.6591 C   0  0  0  0  0  0  0  0  0  0  0  0
  159.6043  142.2055  185.9280 C   0  0  0  0  0  0  0  0  0  0  0  0
  160.4892  142.6174  186.9484 C   0  0  0  0  0  0  0  0  0  0  0  0
  161.8267  142.7495  186.6647 C   0  0  0  0  0  0  0  0  0  0  0  0
  162.7074  143.1555  187.6653 O   0  0  0  0  0  0  0  0  0  0  0  0
  162.2926  142.4799  185.3914 C   0  0  0  0  0  0  0  0  0  0  0  0
  161.4071  142.0834  184.4265 C   0  0  0  0  0  0  0  0  0  0  0  0
  162.8591  144.1528  187.7581 H   0  0  0  0  0  0  0  0  0  0  0  0
 16 17  1  0  0  0
 17 18  2  0  0  0
 17 10  1  0  0  0
 10 11  2  0  0  0
 11 12  1  0  0  0
 12 13  2  0  0  0
 13  8  1  0  0  0
  8  1  1  0  0  0
  1  2  2  0  0  0
  2  3  1  0  0  0
  3 21  1  0  0  0
 21 23  1  0  0  0
 23 24  2  0  0  0
 24 25  1  0  0  0
 25 26  2  0  0  0
 26 27  1  0  0  0
 26 28  1  0  0  0
 28 29  2  0  0  0
  3  4  2  0  0  0
  4  5  1  0  0  0
  5  6  2  0  0  0
  6  7  1  0  0  0
 13 14  1  0  0  0
 14 15  2  0  0  0
 15 10  1  0  0  0
  6  1  1  0  0  0
 29 23  1  0  0  0
 16 19  1  0  0  0
 16 20  1  0  0  0
  8  9  1  0  0  0
 21 22  1  0  0  0
 27 30  1  0  0  0
M  END
> <minimizedAffinity>
-8.66650

> <CNNscore>
0.3036720753

> <CNNaffinity>
6.1708254814

> <CNN_VS>
1.8739073277

> <CNNaffinity_variance>
0.0036343962

$$$$
[H]Oc1c([H])c([H])c(N([H])c2nc([H])c(F)c(N([H])c3c([H])c([H])c(C(=O)N([H])[H])c([H])c3[H])n2)c([H])c1[H]


 30 32  0  0  0  0  0  0  0  0999 V2000
  156.2007  141.2579  182.7083 C   0  0  0  0  0  0  0  0  0  0  0  0
  157.4993  141.1494  182.9356 N   0  0  0  0  0  0  0  0  0  0  0  0
  158.3355  142.2263  182.8813 C   0  0  0  0  0  0  0  0  0  0  0  0
  157.7914  143.4162  182.5858 N   0  0  0  0  0  0  0  0  0  0  0  0
  156.4982  143.5987  182.3465 C   0  0  0  0  0  0  0  0  0  0  0  0
  155.6492  142.5160  182.3997 C   0  0  0  0  0  0  0  0  0  0  0  0
  154.3304  142.6388  182.1673 F   0  0  0  0  0  0  0  0  0  0  0  0
  155.3040  140.1592  182.7333 N   0  0  0  0  0  0  0  0  0  0  0  0
  154.8633  139.8778  181.8072 H   0  0  0  0  0  0  0  0  0  0  0  0
  154.0466  137.7825  185.9789 C   0  0  0  0  0  0  0  0  0  0  0  0
  155.2418  138.4218  185.9970 C   0  0  0  0  0  0  0  0  0  0  0  0
  155.6895  139.2258  184.9428 C   0  0  0  0  0  0  0  0  0  0  0  0
  154.9198  139.3899  183.8479 C   0  0  0  0  0  0  0  0  0  0  0  0
  153.6706  138.7353  183.8047 C   0  0  0  0  0  0  0  0  0  0  0  0
  153.2552  137.9556  184.8466 C   0  0  0  0  0  0  0  0  0  0  0  0
  152.3983  136.1900  186.9306 N   0  0  0  0  0  0  0  0  0  0  0  0
  153.5751  136.9434  187.0744 C   0  0  0  0  0  0  0  0  0  0  0  0
  154.2216  136.8980  188.1391 O   0  0  0  0  0  0  0  0  0  0  0  0
  151.4998  136.5689  187.2851 H   0  0  0  0  0  0  0  0  0  0  0  0
  152.3971  135.2588  186.4776 H   0  0  0  0  0  0  0  0  0  0  0  0
  159.7068  142.0160  183.1084 N   0  0  0  0  0  0  0  0  0  0  0  0
  160.2922  141.6802  182.2876 H   0  0  0  0  0  0  0  0  0  0  0  0
  160.3559  142.2149  184.3286 C   0  0  0  0  0  0  0  0  0  0  0  0
  159.7234  142.4237  185.5184 C   0  0  0  0  0  0  0  0  0  0  0  0
  160.4228  142.6490  186.7243 C   0  0  0  0  0  0  0  0  0  0  0  0
  161.7964  142.6596  186.7121 C   0  0  0  0  0  0  0  0  0  0  0  0
  162.4951  142.8812  187.8971 O   0  0  0  0  0  0  0  0  0  0  0  0
  162.4783  142.4512  185.5278 C   0  0  0  0  0  0  0  0  0  0  0  0
  161.7687  142.2365  184.3777 C   0  0  0  0  0  0  0  0  0  0  0  0
  162.7141  143.8447  188.1208 H   0  0  0  0  0  0  0  0  0  0  0  0
 16 17  1  0  0  0
 17 18  2  0  0  0
 17 10  1  0  0  0
 10 11  2  0  0  0
 11 12  1  0  0  0
 12 13  2  0  0  0
 13  8  1  0  0  0
  8  1  1  0  0  0
  1  2  2  0  0  0
  2  3  1  0  0  0
  3 21  1  0  0  0
 21 23  1  0  0  0
 23 24  2  0  0  0
 24 25  1  0  0  0
 25 26  2  0  0  0
 26 27  1  0  0  0
 26 28  1  0  0  0
 28 29  2  0  0  0
  3  4  2  0  0  0
  4  5  1  0  0  0
  5  6  2  0  0  0
  6  7  1  0  0  0
 13 14  1  0  0  0
 14 15  2  0  0  0
 15 10  1  0  0  0
  6  1  1  0  0  0
 29 23  1  0  0  0
 16 19  1  0  0  0
 16 20  1  0  0  0
  8  9  1  0  0  0
 21 22  1  0  0  0
 27 30  1  0  0  0
M  END
> <minimizedAffinity>
-8.26021

> <CNNscore>
0.3016686440

> <CNNaffinity>
6.1393938065

> <CNN_VS>
1.8520625830

> <CNNaffinity_variance>
0.0014096929

$$$$
[H]Oc1c([H])c([H])c(N([H])c2nc([H])c(F)c(N([H])c3c([H])c([H])c(C(=O)N([H])[H])c([H])c3[H])n2)c([H])c1[H]


 30 32  0  0  0  0  0  0  0  0999 V2000
  154.8138  140.9755  183.0510 C   0  0  0  0  0  0  0  0  0  0  0  0
  156.0859  140.6766  183.2562 N   0  0  0  0  0  0  0  0  0  0  0  0
  157.0782  141.6027  183.1164 C   0  0  0  0  0  0  0  0  0  0  0  0
  156.7178  142.8444  182.7589 N   0  0  0  0  0  0  0  0  0  0  0  0
  155.4623  143.2147  182.5370 C   0  0  0  0  0  0  0  0  0  0  0  0
  154.4564  142.2848  182.6765 C   0  0  0  0  0  0  0  0  0  0  0  0
  153.1664  142.6007  182.4657 F   0  0  0  0  0  0  0  0  0  0  0  0
  153.7574  140.0357  183.1644 N   0  0  0  0  0  0  0  0  0  0  0  0
  153.6485  139.5464  184.1024 H   0  0  0  0  0  0  0  0  0  0  0  0
  150.8682  138.8982  180.3144 C   0  0  0  0  0  0  0  0  0  0  0  0
  151.9502  139.6354  179.9631 C   0  0  0  0  0  0  0  0  0  0  0  0
  152.9342  140.0246  180.8787 C   0  0  0  0  0  0  0  0  0  0  0  0
  152.8278  139.6658  182.1741 C   0  0  0  0  0  0  0  0  0  0  0  0
  151.7107  138.8977  182.5654 C   0  0  0  0  0  0  0  0  0  0  0  0
  150.7631  138.5296  181.6528 C   0  0  0  0  0  0  0  0  0  0  0  0
  149.6062  139.2502  178.2068 N   0  0  0  0  0  0  0  0  0  0  0  0
  149.8397  138.4900  179.3647 C   0  0  0  0  0  0  0  0  0  0  0  0
  149.1687  137.4630  179.5855 O   0  0  0  0  0  0  0  0  0  0  0  0
  148.8486  139.9591  178.2024 H   0  0  0  0  0  0  0  0  0  0  0  0
  150.1710  139.1257  177.3478 H   0  0  0  0  0  0  0  0  0  0  0  0
  158.4061  141.1920  183.3261 N   0  0  0  0  0  0  0  0  0  0  0  0
  158.8158  140.4930  182.6385 H   0  0  0  0  0  0  0  0  0  0  0  0
  159.2254  141.6325  184.3675 C   0  0  0  0  0  0  0  0  0  0  0  0
  158.8307  141.7518  185.6672 C   0  0  0  0  0  0  0  0  0  0  0  0
  159.6872  142.2297  186.6831 C   0  0  0  0  0  0  0  0  0  0  0  0
  160.9729  142.5916  186.3625 C   0  0  0  0  0  0  0  0  0  0  0  0
  161.8253  143.0644  187.3583 O   0  0  0  0  0  0  0  0  0  0  0  0
  161.4151  142.4857  185.0570 C   0  0  0  0  0  0  0  0  0  0  0  0
  160.5583  142.0192  184.0976 C   0  0  0  0  0  0  0  0  0  0  0  0
  161.8236  144.0646  187.5190 H   0  0  0  0  0  0  0  0  0  0  0  0
 16 17  1  0  0  0
 17 18  2  0  0  0
 17 10  1  0  0  0
 10 11  2  0  0  0
 11 12  1  0  0  0
 12 13  2  0  0  0
 13  8  1  0  0  0
  8  1  1  0  0  0
  1  2  2  0  0  0
  2  3  1  0  0  0
  3 21  1  0  0  0
 21 23  1  0  0  0
 23 24  2  0  0  0
 24 25  1  0  0  0
 25 26  2  0  0  0
 26 27  1  0  0  0
 26 28  1  0  0  0
 28 29  2  0  0  0
  3  4  2  0  0  0
  4  5  1  0  0  0
  5  6  2  0  0  0
  6  7  1  0  0  0
 13 14  1  0  0  0
 14 15  2  0  0  0
 15 10  1  0  0  0
  6  1  1  0  0  0
 29 23  1  0  0  0
 16 19  1  0  0  0
 16 20  1  0  0  0
  8  9  1  0  0  0
 21 22  1  0  0  0
 27 30  1  0  0  0
M  END
> <minimizedAffinity>
-8.52547

> <CNNscore>
0.2950102985

> <CNNaffinity>
5.9107294083

> <CNN_VS>
1.7437260151

> <CNNaffinity_variance>
0.0149652753

$$$$
[H]Oc1c([H])c([H])c(N([H])c2nc([H])c(F)c(N([H])c3c([H])c([H])c(C(=O)N([H])[H])c([H])c3[H])n2)c([H])c1[H]


 30 32  0  0  0  0  0  0  0  0999 V2000
  158.2706  143.1977  181.6064 C   0  0  0  0  0  0  0  0  0  0  0  0
  157.2014  142.5499  182.0386 N   0  0  0  0  0  0  0  0  0  0  0  0
  156.5037  141.6916  181.2396 C   0  0  0  0  0  0  0  0  0  0  0  0
  156.9425  141.5230  179.9832 N   0  0  0  0  0  0  0  0  0  0  0  0
  158.0066  142.1395  179.4829 C   0  0  0  0  0  0  0  0  0  0  0  0
  158.7150  143.0067  180.2842 C   0  0  0  0  0  0  0  0  0  0  0  0
  159.8010  143.6594  179.8337 F   0  0  0  0  0  0  0  0  0  0  0  0
  159.0082  144.1141  182.3990 N   0  0  0  0  0  0  0  0  0  0  0  0
  158.8837  145.1473  182.1798 H   0  0  0  0  0  0  0  0  0  0  0  0
  161.6782  143.0793  185.4916 C   0  0  0  0  0  0  0  0  0  0  0  0
  161.4706  144.3735  185.1456 C   0  0  0  0  0  0  0  0  0  0  0  0
  160.5862  144.7561  184.1309 C   0  0  0  0  0  0  0  0  0  0  0  0
  159.8971  143.8184  183.4498 C   0  0  0  0  0  0  0  0  0  0  0  0
  160.0952  142.4637  183.7912 C   0  0  0  0  0  0  0  0  0  0  0  0
  160.9639  142.1149  184.7860 C   0  0  0  0  0  0  0  0  0  0  0  0
  162.2601  142.8800  187.8959 N   0  0  0  0  0  0  0  0  0  0  0  0
  162.5984  142.6748  186.5480 C   0  0  0  0  0  0  0  0  0  0  0  0
  163.6868  142.1459  186.2490 O   0  0  0  0  0  0  0  0  0  0  0  0
  162.6039  143.7263  188.3881 H   0  0  0  0  0  0  0  0  0  0  0  0
  161.6727  142.2078  188.4207 H   0  0  0  0  0  0  0  0  0  0  0  0
  155.3623  141.0667  181.7714 N   0  0  0  0  0  0  0  0  0  0  0  0
  154.4604  141.1405  181.2143 H   0  0  0  0  0  0  0  0  0  0  0  0
  155.3248  140.3576  182.9738 C   0  0  0  0  0  0  0  0  0  0  0  0
  156.4173  140.0631  183.7347 C   0  0  0  0  0  0  0  0  0  0  0  0
  156.3344  139.3175  184.9311 C   0  0  0  0  0  0  0  0  0  0  0  0
  155.1093  138.8655  185.3573 C   0  0  0  0  0  0  0  0  0  0  0  0
  155.0177  138.1290  186.5365 O   0  0  0  0  0  0  0  0  0  0  0  0
  153.9752  139.1423  184.6168 C   0  0  0  0  0  0  0  0  0  0  0  0
  154.0921  139.8670  183.4621 C   0  0  0  0  0  0  0  0  0  0  0  0
  155.1073  137.1235  186.4510 H   0  0  0  0  0  0  0  0  0  0  0  0
 16 17  1  0  0  0
 17 18  2  0  0  0
 17 10  1  0  0  0
 10 11  2  0  0  0
 11 12  1  0  0  0
 12 13  2  0  0  0
 13  8  1  0  0  0
  8  1  1  0  0  0
  1  2  2  0  0  0
  2  3  1  0  0  0
  3 21  1  0  0  0
 21 23  1  0  0  0
 23 24  2  0  0  0
 24 25  1  0  0  0
 25 26  2  0  0  0
 26 27  1  0  0  0
 26 28  1  0  0  0
 28 29  2  0  0  0
  3  4  2  0  0  0
  4  5  1  0  0  0
  5  6  2  0  0  0
  6  7  1  0  0  0
 13 14  1  0  0  0
 14 15  2  0  0  0
 15 10  1  0  0  0
  6  1  1  0  0  0
 29 23  1  0  0  0
 16 19  1  0  0  0
 16 20  1  0  0  0
  8  9  1  0  0  0
 21 22  1  0  0  0
 27 30  1  0  0  0
M  END
> <minimizedAffinity>
-8.35090

> <CNNscore>
0.2890633643

> <CNNaffinity>
6.5558457375

> <CNN_VS>
1.8950548172

> <CNNaffinity_variance>
0.0166813247

$$$$
[H]Oc1c([H])c([H])c(N([H])c2nc([H])c(F)c(N([H])c3c([H])c([H])c(C(=O)N([H])[H])c([H])c3[H])n2)c([H])c1[H]


 30 32  0  0  0  0  0  0  0  0999 V2000
  155.7518  141.8065  182.4063 C   0  0  0  0  0  0  0  0  0  0  0  0
  156.9293  141.3142  182.7540 N   0  0  0  0  0  0  0  0  0  0  0  0
  158.0106  142.1157  182.9786 C   0  0  0  0  0  0  0  0  0  0  0  0
  157.8395  143.4382  182.8335 N   0  0  0  0  0  0  0  0  0  0  0  0
  156.6879  144.0010  182.4873 C   0  0  0  0  0  0  0  0  0  0  0  0
  155.5930  143.1977  182.2594 C   0  0  0  0  0  0  0  0  0  0  0  0
  154.4006  143.7098  181.9068 F   0  0  0  0  0  0  0  0  0  0  0  0
  154.6117  141.0049  182.1427 N   0  0  0  0  0  0  0  0  0  0  0  0
  154.0805  141.2064  181.2435 H   0  0  0  0  0  0  0  0  0  0  0  0
  153.1015  137.9723  184.6500 C   0  0  0  0  0  0  0  0  0  0  0  0
  152.6755  138.1032  183.3697 C   0  0  0  0  0  0  0  0  0  0  0  0
  153.1595  139.0914  182.5052 C   0  0  0  0  0  0  0  0  0  0  0  0
  154.0904  139.9661  182.9370 C   0  0  0  0  0  0  0  0  0  0  0  0
  154.5508  139.8508  184.2657 C   0  0  0  0  0  0  0  0  0  0  0  0
  154.0632  138.8773  185.0909 C   0  0  0  0  0  0  0  0  0  0  0  0
  153.4950  136.0705  186.1949 N   0  0  0  0  0  0  0  0  0  0  0  0
  152.6006  136.9447  185.5553 C   0  0  0  0  0  0  0  0  0  0  0  0
  151.3748  136.8459  185.7586 O   0  0  0  0  0  0  0  0  0  0  0  0
  153.6820  135.1364  185.7837 H   0  0  0  0  0  0  0  0  0  0  0  0
  153.9793  136.3296  187.0727 H   0  0  0  0  0  0  0  0  0  0  0  0
  159.2316  141.5066  183.3166 N   0  0  0  0  0  0  0  0  0  0  0  0
  159.5477  140.6834  182.7236 H   0  0  0  0  0  0  0  0  0  0  0  0
  160.0583  141.9012  184.3704 C   0  0  0  0  0  0  0  0  0  0  0  0
  161.4065  142.0806  184.2730 C   0  0  0  0  0  0  0  0  0  0  0  0
  162.2074  142.4533  185.3747 C   0  0  0  0  0  0  0  0  0  0  0  0
  161.6167  142.6470  186.5996 C   0  0  0  0  0  0  0  0  0  0  0  0
  162.3989  143.0148  187.6924 O   0  0  0  0  0  0  0  0  0  0  0  0
  160.2523  142.4768  186.7430 C   0  0  0  0  0  0  0  0  0  0  0  0
  159.5065  142.1148  185.6545 C   0  0  0  0  0  0  0  0  0  0  0  0
  162.7834  142.2606  188.2488 H   0  0  0  0  0  0  0  0  0  0  0  0
 16 17  1  0  0  0
 17 18  2  0  0  0
 17 10  1  0  0  0
 10 11  2  0  0  0
 11 12  1  0  0  0
 12 13  2  0  0  0
 13  8  1  0  0  0
  8  1  1  0  0  0
  1  2  2  0  0  0
  2  3  1  0  0  0
  3 21  1  0  0  0
 21 23  1  0  0  0
 23 24  2  0  0  0
 24 25  1  0  0  0
 25 26  2  0  0  0
 26 27  1  0  0  0
 26 28  1  0  0  0
 28 29  2  0  0  0
  3  4  2  0  0  0
  4  5  1  0  0  0
  5  6  2  0  0  0
  6  7  1  0  0  0
 13 14  1  0  0  0
 14 15  2  0  0  0
 15 10  1  0  0  0
  6  1  1  0  0  0
 29 23  1  0  0  0
 16 19  1  0  0  0
 16 20  1  0  0  0
  8  9  1  0  0  0
 21 22  1  0  0  0
 27 30  1  0  0  0
M  END
> <minimizedAffinity>
-8.45468

> <CNNscore>
0.2849689722

> <CNNaffinity>
6.1532921791

> <CNN_VS>
1.7534973621

> <CNNaffinity_variance>
0.0136363134

$$$$
[H]Oc1c([H])c([H])c(N([H])c2nc([H])c(F)c(N([H])c3c([H])c([H])c(C(=O)N([H])[H])c([H])c3[H])n2)c([H])c1[H]


 30 32  0  0  0  0  0  0  0  0999 V2000
  156.7779  142.5521  182.0333 C   0  0  0  0  0  0  0  0  0  0  0  0
  156.0996  141.4182  181.9721 N   0  0  0  0  0  0  0  0  0  0  0  0
  154.7486  141.3726  182.1582 C   0  0  0  0  0  0  0  0  0  0  0  0
  154.1205  142.5310  182.4092 N   0  0  0  0  0  0  0  0  0  0  0  0
  154.7367  143.7047  182.4848 C   0  0  0  0  0  0  0  0  0  0  0  0
  156.0999  143.7573  182.2978 C   0  0  0  0  0  0  0  0  0  0  0  0
  156.7787  144.9164  182.3619 F   0  0  0  0  0  0  0  0  0  0  0  0
  158.1841  142.6367  181.8679 N   0  0  0  0  0  0  0  0  0  0  0  0
  158.5447  142.7516  180.8739 H   0  0  0  0  0  0  0  0  0  0  0  0
  161.0992  142.6240  184.9118 C   0  0  0  0  0  0  0  0  0  0  0  0
  160.6568  141.4689  184.3572 C   0  0  0  0  0  0  0  0  0  0  0  0
  159.6971  141.4336  183.3394 C   0  0  0  0  0  0  0  0  0  0  0  0
  159.1711  142.5831  182.8702 C   0  0  0  0  0  0  0  0  0  0  0  0
  159.6154  143.7993  183.4308 C   0  0  0  0  0  0  0  0  0  0  0  0
  160.5538  143.8082  184.4236 C   0  0  0  0  0  0  0  0  0  0  0  0
  161.7993  143.2793  187.2007 N   0  0  0  0  0  0  0  0  0  0  0  0
  162.0989  142.6668  185.9726 C   0  0  0  0  0  0  0  0  0  0  0  0
  163.2207  142.1570  185.7841 O   0  0  0  0  0  0  0  0  0  0  0  0
  162.0781  144.2653  187.3638 H   0  0  0  0  0  0  0  0  0  0  0  0
  161.3041  142.7745  187.9572 H   0  0  0  0  0  0  0  0  0  0  0  0
  154.1114  140.1207  182.1042 N   0  0  0  0  0  0  0  0  0  0  0  0
  153.8806  139.7310  181.1429 H   0  0  0  0  0  0  0  0  0  0  0  0
  153.7599  139.3527  183.2161 C   0  0  0  0  0  0  0  0  0  0  0  0
  154.2685  139.5247  184.4695 C   0  0  0  0  0  0  0  0  0  0  0  0
  153.9040  138.7040  185.5593 C   0  0  0  0  0  0  0  0  0  0  0  0
  153.0006  137.6882  185.3625 C   0  0  0  0  0  0  0  0  0  0  0  0
  152.6350  136.8732  186.4318 O   0  0  0  0  0  0  0  0  0  0  0  0
  152.4591  137.4789  184.1078 C   0  0  0  0  0  0  0  0  0  0  0  0
  152.8351  138.2928  183.0741 C   0  0  0  0  0  0  0  0  0  0  0  0
  153.1953  136.0425  186.5808 H   0  0  0  0  0  0  0  0  0  0  0  0
 16 17  1  0  0  0
 17 18  2  0  0  0
 17 10  1  0  0  0
 10 11  2  0  0  0
 11 12  1  0  0  0
 12 13  2  0  0  0
 13  8  1  0  0  0
  8  1  1  0  0  0
  1  2  2  0  0  0
  2  3  1  0  0  0
  3 21  1  0  0  0
 21 23  1  0  0  0
 23 24  2  0  0  0
 24 25  1  0  0  0
 25 26  2  0  0  0
 26 27  1  0  0  0
 26 28  1  0  0  0
 28 29  2  0  0  0
  3  4  2  0  0  0
  4  5  1  0  0  0
  5  6  2  0  0  0
  6  7  1  0  0  0
 13 14  1  0  0  0
 14 15  2  0  0  0
 15 10  1  0  0  0
  6  1  1  0  0  0
 29 23  1  0  0  0
 16 19  1  0  0  0
 16 20  1  0  0  0
  8  9  1  0  0  0
 21 22  1  0  0  0
 27 30  1  0  0  0
M  END
> <minimizedAffinity>
-8.57999

> <CNNscore>
0.2648288608

> <CNNaffinity>
6.1833286285

> <CNN_VS>
1.6375238895

> <CNNaffinity_variance>
0.0658514649

$$$$
[H]OC(=O)[C@@]1([H])N(C(=O)[C@@]([H])(N([H])[C@]([H])(C(=O)O[H])C([H])([H])C([H])([H])c2c([H])c([H])c([H])c([H])c2[H])C([H])([H])[H])C([H])([H])c2c([H])c([H])c([H])c([H])c2C1([H])[H]


 33 35  0  0  0  0  0  0  0  0999 V2000
  152.8272  138.2215  187.1559 C   0  0  0  0  0  0  0  0  0  0  0  0
  152.0760  136.8979  187.3705 C   0  0  0  0  0  0  0  0  0  0  0  0
  151.5034  136.5295  186.0727 C   0  0  0  0  0  0  0  0  0  0  0  0
  152.3331  136.1284  185.1839 O   0  0  0  0  0  0  0  0  0  0  0  0
  150.1428  136.5697  185.7011 N   0  0  0  0  0  0  0  0  0  0  0  0
  149.8029  136.1903  184.3099 C   0  0  0  0  0  0  0  0  0  0  0  0
  149.1348  137.3968  183.6950 C   0  0  0  0  0  0  0  0  0  0  0  0
  149.4780  137.9173  182.4763 C   0  0  0  0  0  0  0  0  0  0  0  0
  148.8189  139.0645  182.0053 C   0  0  0  0  0  0  0  0  0  0  0  0
  147.8413  139.6283  182.7971 C   0  0  0  0  0  0  0  0  0  0  0  0
  147.5127  139.0709  184.0398 C   0  0  0  0  0  0  0  0  0  0  0  0
  148.1528  137.9465  184.5093 C   0  0  0  0  0  0  0  0  0  0  0  0
  147.8303  137.2956  185.7778 C   0  0  0  0  0  0  0  0  0  0  0  0
  149.0540  136.9408  186.5600 C   0  0  0  0  0  0  0  0  0  0  0  0
  148.7593  135.8716  187.5580 C   0  0  0  0  0  0  0  0  0  0  0  0
  148.4603  136.1867  188.7208 O   0  0  0  0  0  0  0  0  0  0  0  0
  148.8230  134.5630  187.1749 O   0  0  0  0  0  0  0  0  0  0  0  0
  148.1510  134.2445  186.4787 H   0  0  0  0  0  0  0  0  0  0  0  0
  153.1078  135.9619  187.8034 N   0  0  0  0  0  0  0  0  0  0  0  0
  153.1862  135.2436  187.0390 H   0  0  0  0  0  0  0  0  0  0  0  0
  152.6416  135.2701  188.9827 C   0  0  0  0  0  0  0  0  0  0  0  0
  151.8772  134.0396  188.6233 C   0  0  0  0  0  0  0  0  0  0  0  0
  152.1918  133.3216  187.6416 O   0  0  0  0  0  0  0  0  0  0  0  0
  150.7762  133.6274  189.3611 O   0  0  0  0  0  0  0  0  0  0  0  0
  150.0600  134.2517  189.7025 H   0  0  0  0  0  0  0  0  0  0  0  0
  151.8396  136.1706  189.8874 C   0  0  0  0  0  0  0  0  0  0  0  0
  152.4630  136.2976  191.2574 C   0  0  0  0  0  0  0  0  0  0  0  0
  153.8546  136.8081  191.1845 C   0  0  0  0  0  0  0  0  0  0  0  0
  154.9277  136.0871  191.6932 C   0  0  0  0  0  0  0  0  0  0  0  0
  156.2298  136.5336  191.6440 C   0  0  0  0  0  0  0  0  0  0  0  0
  156.5067  137.7564  191.0647 C   0  0  0  0  0  0  0  0  0  0  0  0
  155.4528  138.5046  190.5448 C   0  0  0  0  0  0  0  0  0  0  0  0
  154.1643  138.0276  190.6112 C   0  0  0  0  0  0  0  0  0  0  0  0
  1  2  1  0  0  0
  2 19  1  0  0  0
 19 21  1  0  0  0
 21 26  1  0  0  0
 26 27  1  0  0  0
 27 28  1  0  0  0
 28 29  2  0  0  0
 29 30  1  0  0  0
 30 31  2  0  0  0
 31 32  1  0  0  0
 32 33  2  0  0  0
 21 22  1  0  0  0
 22 23  2  0  0  0
 22 24  1  0  0  0
  2  3  1  0  0  0
  3  4  2  0  0  0
  3  5  1  0  0  0
  5  6  1  0  0  0
  6  7  1  0  0  0
  7  8  2  0  0  0
  8  9  1  0  0  0
  9 10  2  0  0  0
 10 11  1  0  0  0
 11 12  2  0  0  0
 12 13  1  0  0  0
 13 14  1  0  0  0
 14 15  1  0  0  0
 15 16  2  0  0  0
 15 17  1  0  0  0
 33 28  1  0  0  0
 14  5  1  0  0  0
 12  7  1  0  0  0
 19 20  1  0  0  0
 24 25  1  0  0  0
 17 18  1  0  0  0
M  END
> <minimizedAffinity>
-5.44612

> <CNNscore>
0.3603091538

> <CNNaffinity>
4.7726464272

> <CNN_VS>
1.7196282148

> <CNNaffinity_variance>
0.0730227828

$$$$
[H]OC(=O)[C@@]1([H])N(C(=O)[C@@]([H])(N([H])[C@]([H])(C(=O)O[H])C([H])([H])C([H])([H])c2c([H])c([H])c([H])c([H])c2[H])C([H])([H])[H])C([H])([H])c2c([H])c([H])c([H])c([H])c2C1([H])[H]


 33 35  0  0  0  0  0  0  0  0999 V2000
  154.3100  139.5504  183.9531 C   0  0  0  0  0  0  0  0  0  0  0  0
  154.5569  138.1610  184.5620 C   0  0  0  0  0  0  0  0  0  0  0  0
  153.9405  138.1739  185.8915 C   0  0  0  0  0  0  0  0  0  0  0  0
  153.1763  139.1684  186.1489 O   0  0  0  0  0  0  0  0  0  0  0  0
  154.0990  137.2122  186.9119 N   0  0  0  0  0  0  0  0  0  0  0  0
  153.4077  137.4608  188.1985 C   0  0  0  0  0  0  0  0  0  0  0  0
  154.4874  137.5234  189.2521 C   0  0  0  0  0  0  0  0  0  0  0  0
  154.5832  138.5213  190.1844 C   0  0  0  0  0  0  0  0  0  0  0  0
  155.6456  138.5082  191.1028 C   0  0  0  0  0  0  0  0  0  0  0  0
  156.5609  137.4801  191.0291 C   0  0  0  0  0  0  0  0  0  0  0  0
  156.4347  136.4731  190.0633 C   0  0  0  0  0  0  0  0  0  0  0  0
  155.3965  136.4771  189.1595 C   0  0  0  0  0  0  0  0  0  0  0  0
  155.1880  135.4369  188.1540 C   0  0  0  0  0  0  0  0  0  0  0  0
  154.8690  136.0052  186.8083 C   0  0  0  0  0  0  0  0  0  0  0  0
  154.1846  134.9949  185.9499 C   0  0  0  0  0  0  0  0  0  0  0  0
  154.7538  134.5731  184.9305 O   0  0  0  0  0  0  0  0  0  0  0  0
  152.9427  134.5504  186.3006 O   0  0  0  0  0  0  0  0  0  0  0  0
  152.8605  134.0232  187.1683 H   0  0  0  0  0  0  0  0  0  0  0  0
  153.8838  137.2415  183.6512 N   0  0  0  0  0  0  0  0  0  0  0  0
  154.3866  137.3254  182.7312 H   0  0  0  0  0  0  0  0  0  0  0  0
  152.5336  137.7075  183.4352 C   0  0  0  0  0  0  0  0  0  0  0  0
  151.5385  136.8124  184.0955 C   0  0  0  0  0  0  0  0  0  0  0  0
  151.3749  135.6189  183.7391 O   0  0  0  0  0  0  0  0  0  0  0  0
  150.7421  137.2585  185.1411 O   0  0  0  0  0  0  0  0  0  0  0  0
  150.2885  138.1603  185.1598 H   0  0  0  0  0  0  0  0  0  0  0  0
  152.2243  137.8874  181.9707 C   0  0  0  0  0  0  0  0  0  0  0  0
  151.5377  139.2042  181.6945 C   0  0  0  0  0  0  0  0  0  0  0  0
  150.1918  139.0100  181.1002 C   0  0  0  0  0  0  0  0  0  0  0  0
  149.0311  139.1588  181.8490 C   0  0  0  0  0  0  0  0  0  0  0  0
  147.7680  138.9830  181.3287 C   0  0  0  0  0  0  0  0  0  0  0  0
  147.6233  138.6415  179.9982 C   0  0  0  0  0  0  0  0  0  0  0  0
  148.7677  138.4846  179.2194 C   0  0  0  0  0  0  0  0  0  0  0  0
  150.0137  138.6681  179.7723 C   0  0  0  0  0  0  0  0  0  0  0  0
  1  2  1  0  0  0
  2 19  1  0  0  0
 19 21  1  0  0  0
 21 26  1  0  0  0
 26 27  1  0  0  0
 27 28  1  0  0  0
 28 29  2  0  0  0
 29 30  1  0  0  0
 30 31  2  0  0  0
 31 32  1  0  0  0
 32 33  2  0  0  0
 21 22  1  0  0  0
 22 23  2  0  0  0
 22 24  1  0  0  0
  2  3  1  0  0  0
  3  4  2  0  0  0
  3  5  1  0  0  0
  5  6  1  0  0  0
  6  7  1  0  0  0
  7  8  2  0  0  0
  8  9  1  0  0  0
  9 10  2  0  0  0
 10 11  1  0  0  0
 11 12  2  0  0  0
 12 13  1  0  0  0
 13 14  1  0  0  0
 14 15  1  0  0  0
 15 16  2  0  0  0
 15 17  1  0  0  0
 33 28  1  0  0  0
 14  5  1  0  0  0
 12  7  1  0  0  0
 19 20  1  0  0  0
 24 25  1  0  0  0
 17 18  1  0  0  0
M  END
> <minimizedAffinity>
-6.19966

> <CNNscore>
0.3223030269

> <CNNaffinity>
4.7257256508

> <CNN_VS>
1.5231156349

> <CNNaffinity_variance>
0.1228131503

$$$$
[H]OC(=O)[C@@]1([H])N(C(=O)[C@@]([H])(N([H])[C@]([H])(C(=O)O[H])C([H])([H])C([H])([H])c2c([H])c([H])c([H])c([H])c2[H])C([H])([H])[H])C([H])([H])c2c([H])c([H])c([H])c([H])c2C1([H])[H]


 33 35  0  0  0  0  0  0  0  0999 V2000
  154.5906  138.3337  186.3208 C   0  0  0  0  0  0  0  0  0  0  0  0
  153.3014  137.5379  186.0621 C   0  0  0  0  0  0  0  0  0  0  0  0
  153.2929  137.2129  184.6330 C   0  0  0  0  0  0  0  0  0  0  0  0
  154.4391  137.0820  184.0778 O   0  0  0  0  0  0  0  0  0  0  0  0
  152.1620  137.0300  183.8091 N   0  0  0  0  0  0  0  0  0  0  0  0
  152.4004  136.7498  182.3740 C   0  0  0  0  0  0  0  0  0  0  0  0
  151.7284  137.8650  181.6093 C   0  0  0  0  0  0  0  0  0  0  0  0
  152.3362  138.5751  180.6091 C   0  0  0  0  0  0  0  0  0  0  0  0
  151.6372  139.6181  179.9800 C   0  0  0  0  0  0  0  0  0  0  0  0
  150.3522  139.8897  180.3987 C   0  0  0  0  0  0  0  0  0  0  0  0
  149.7578  139.1440  181.4250 C   0  0  0  0  0  0  0  0  0  0  0  0
  150.4348  138.1195  182.0469 C   0  0  0  0  0  0  0  0  0  0  0  0
  149.8579  137.2810  183.0960 C   0  0  0  0  0  0  0  0  0  0  0  0
  150.7952  137.0848  184.2443 C   0  0  0  0  0  0  0  0  0  0  0  0
  150.4267  135.8740  185.0344 C   0  0  0  0  0  0  0  0  0  0  0  0
  150.2477  134.7938  184.4495 O   0  0  0  0  0  0  0  0  0  0  0  0
  150.2928  135.9744  186.3890 O   0  0  0  0  0  0  0  0  0  0  0  0
  151.1272  136.2009  186.9276 H   0  0  0  0  0  0  0  0  0  0  0  0
  153.4358  136.3491  186.8969 N   0  0  0  0  0  0  0  0  0  0  0  0
  152.4556  136.0320  187.1089 H   0  0  0  0  0  0  0  0  0  0  0  0
  154.0345  136.7307  188.1550 C   0  0  0  0  0  0  0  0  0  0  0  0
  155.1316  135.7950  188.5397 C   0  0  0  0  0  0  0  0  0  0  0  0
  156.3433  136.1145  188.4498 O   0  0  0  0  0  0  0  0  0  0  0  0
  154.8640  134.5199  189.0184 O   0  0  0  0  0  0  0  0  0  0  0  0
  154.1643  133.9059  188.6275 H   0  0  0  0  0  0  0  0  0  0  0  0
  153.0102  136.8581  189.2538 C   0  0  0  0  0  0  0  0  0  0  0  0
  153.6097  137.4101  190.5256 C   0  0  0  0  0  0  0  0  0  0  0  0
  153.0360  136.7628  191.7316 C   0  0  0  0  0  0  0  0  0  0  0  0
  151.8368  137.1862  192.2907 C   0  0  0  0  0  0  0  0  0  0  0  0
  151.2792  136.6093  193.4102 C   0  0  0  0  0  0  0  0  0  0  0  0
  151.9268  135.5554  194.0248 C   0  0  0  0  0  0  0  0  0  0  0  0
  153.1318  135.1065  193.4890 C   0  0  0  0  0  0  0  0  0  0  0  0
  153.6597  135.7064  192.3695 C   0  0  0  0  0  0  0  0  0  0  0  0
  1  2  1  0  0  0
  2 19  1  0  0  0
 19 21  1  0  0  0
 21 26  1  0  0  0
 26 27  1  0  0  0
 27 28  1  0  0  0
 28 29  2  0  0  0
 29 30  1  0  0  0
 30 31  2  0  0  0
 31 32  1  0  0  0
 32 33  2  0  0  0
 21 22  1  0  0  0
 22 23  2  0  0  0
 22 24  1  0  0  0
  2  3  1  0  0  0
  3  4  2  0  0  0
  3  5  1  0  0  0
  5  6  1  0  0  0
  6  7  1  0  0  0
  7  8  2  0  0  0
  8  9  1  0  0  0
  9 10  2  0  0  0
 10 11  1  0  0  0
 11 12  2  0  0  0
 12 13  1  0  0  0
 13 14  1  0  0  0
 14 15  1  0  0  0
 15 16  2  0  0  0
 15 17  1  0  0  0
 33 28  1  0  0  0
 14  5  1  0  0  0
 12  7  1  0  0  0
 19 20  1  0  0  0
 24 25  1  0  0  0
 17 18  1  0  0  0
M  END
> <minimizedAffinity>
-5.83619

> <CNNscore>
0.3221079707

> <CNNaffinity>
4.7239804268

> <CNN_VS>
1.5216317177

> <CNNaffinity_variance>
0.0966807827

$$$$
[H]OC(=O)[C@@]1([H])N(C(=O)[C@@]([H])(N([H])[C@]([H])(C(=O)O[H])C([H])([H])C([H])([H])c2c([H])c([H])c([H])c([H])c2[H])C([H])([H])[H])C([H])([H])c2c([H])c([H])c([H])c([H])c2C1([H])[H]


 33 35  0  0  0  0  0  0  0  0999 V2000
  153.0519  138.8395  187.2781 C   0  0  0  0  0  0  0  0  0  0  0  0
  154.0482  137.7485  186.8546 C   0  0  0  0  0  0  0  0  0  0  0  0
  154.9991  138.3860  185.9395 C   0  0  0  0  0  0  0  0  0  0  0  0
  156.1644  138.6240  186.4134 O   0  0  0  0  0  0  0  0  0  0  0  0
  154.7677  138.7629  184.5996 N   0  0  0  0  0  0  0  0  0  0  0  0
  155.8724  139.4379  183.8792 C   0  0  0  0  0  0  0  0  0  0  0  0
  155.3423  140.7900  183.4660 C   0  0  0  0  0  0  0  0  0  0  0  0
  156.0114  141.9657  183.6760 C   0  0  0  0  0  0  0  0  0  0  0  0
  155.4180  143.1770  183.2849 C   0  0  0  0  0  0  0  0  0  0  0  0
  154.1712  143.1349  182.6983 C   0  0  0  0  0  0  0  0  0  0  0  0
  153.5126  141.9149  182.4965 C   0  0  0  0  0  0  0  0  0  0  0  0
  154.0865  140.7228  182.8759 C   0  0  0  0  0  0  0  0  0  0  0  0
  153.4687  139.4159  182.6588 C   0  0  0  0  0  0  0  0  0  0  0  0
  153.5522  138.5414  183.8686 C   0  0  0  0  0  0  0  0  0  0  0  0
  153.3922  137.1042  183.5015 C   0  0  0  0  0  0  0  0  0  0  0  0
  154.2467  136.2813  183.8671 O   0  0  0  0  0  0  0  0  0  0  0  0
  152.3070  136.7176  182.7693 O   0  0  0  0  0  0  0  0  0  0  0  0
  151.3897  136.8182  183.2006 H   0  0  0  0  0  0  0  0  0  0  0  0
  154.6792  137.3303  188.1017 N   0  0  0  0  0  0  0  0  0  0  0  0
  155.6816  137.6426  188.0378 H   0  0  0  0  0  0  0  0  0  0  0  0
  154.6922  135.8868  188.1540 C   0  0  0  0  0  0  0  0  0  0  0  0
  153.3093  135.3351  188.2566 C   0  0  0  0  0  0  0  0  0  0  0  0
  152.8401  134.5465  187.3985 O   0  0  0  0  0  0  0  0  0  0  0  0
  152.4709  135.6687  189.3113 O   0  0  0  0  0  0  0  0  0  0  0  0
  152.3739  136.6031  189.6812 H   0  0  0  0  0  0  0  0  0  0  0  0
  155.5742  135.3683  189.2612 C   0  0  0  0  0  0  0  0  0  0  0  0
  156.9905  135.8801  189.1436 C   0  0  0  0  0  0  0  0  0  0  0  0
  157.9695  134.7709  189.0261 C   0  0  0  0  0  0  0  0  0  0  0  0
  158.1098  133.8085  190.0182 C   0  0  0  0  0  0  0  0  0  0  0  0
  159.0101  132.7690  189.9411 C   0  0  0  0  0  0  0  0  0  0  0  0
  159.8246  132.6573  188.8312 C   0  0  0  0  0  0  0  0  0  0  0  0
  159.7089  133.6063  187.8180 C   0  0  0  0  0  0  0  0  0  0  0  0
  158.7986  134.6316  187.9284 C   0  0  0  0  0  0  0  0  0  0  0  0
  1  2  1  0  0  0
  2 19  1  0  0  0
 19 21  1  0  0  0
 21 26  1  0  0  0
 26 27  1  0  0  0
 27 28  1  0  0  0
 28 29  2  0  0  0
 29 30  1  0  0  0
 30 31  2  0  0  0
 31 32  1  0  0  0
 32 33  2  0  0  0
 21 22  1  0  0  0
 22 23  2  0  0  0
 22 24  1  0  0  0
  2  3  1  0  0  0
  3  4  2  0  0  0
  3  5  1  0  0  0
  5  6  1  0  0  0
  6  7  1  0  0  0
  7  8  2  0  0  0
  8  9  1  0  0  0
  9 10  2  0  0  0
 10 11  1  0  0  0
 11 12  2  0  0  0
 12 13  1  0  0  0
 13 14  1  0  0  0
 14 15  1  0  0  0
 15 16  2  0  0  0
 15 17  1  0  0  0
 33 28  1  0  0  0
 14  5  1  0  0  0
 12  7  1  0  0  0
 19 20  1  0  0  0
 24 25  1  0  0  0
 17 18  1  0  0  0
M  END
> <minimizedAffinity>
-6.95886

> <CNNscore>
0.3126550317

> <CNNaffinity>
5.1702680588

> <CNN_VS>
1.6165102720

> <CNNaffinity_variance>
0.0813631788

$$$$
[H]OC(=O)[C@@]1([H])N(C(=O)[C@@]([H])(N([H])[C@]([H])(C(=O)O[H])C([H])([H])C([H])([H])c2c([H])c([H])c([H])c([H])c2[H])C([H])([H])[H])C([H])([H])c2c([H])c([H])c([H])c([H])c2C1([H])[H]


 33 35  0  0  0  0  0  0  0  0999 V2000
  154.8795  138.2834  184.4343 C   0  0  0  0  0  0  0  0  0  0  0  0
  154.0884  136.9702  184.5429 C   0  0  0  0  0  0  0  0  0  0  0  0
  153.5709  136.9084  185.9127 C   0  0  0  0  0  0  0  0  0  0  0  0
  152.4501  137.4918  186.1188 O   0  0  0  0  0  0  0  0  0  0  0  0
  154.1736  136.2777  187.0219 N   0  0  0  0  0  0  0  0  0  0  0  0
  153.4824  136.3854  188.3279 C   0  0  0  0  0  0  0  0  0  0  0  0
  154.4501  137.0720  189.2618 C   0  0  0  0  0  0  0  0  0  0  0  0
  154.1160  138.1366  190.0549 C   0  0  0  0  0  0  0  0  0  0  0  0
  155.0981  138.7284  190.8657 C   0  0  0  0  0  0  0  0  0  0  0  0
  156.3745  138.2089  190.8312 C   0  0  0  0  0  0  0  0  0  0  0  0
  156.6845  137.1178  190.0089 C   0  0  0  0  0  0  0  0  0  0  0  0
  155.7286  136.5308  189.2114 C   0  0  0  0  0  0  0  0  0  0  0  0
  155.9788  135.3682  188.3615 C   0  0  0  0  0  0  0  0  0  0  0  0
  155.3996  135.5314  186.9928 C   0  0  0  0  0  0  0  0  0  0  0  0
  155.2155  134.2081  186.3288 C   0  0  0  0  0  0  0  0  0  0  0  0
  156.2124  133.5517  185.9878 O   0  0  0  0  0  0  0  0  0  0  0  0
  153.9523  133.7406  186.1077 O   0  0  0  0  0  0  0  0  0  0  0  0
  153.3807  133.5286  186.9237 H   0  0  0  0  0  0  0  0  0  0  0  0
  153.0222  137.1069  183.5567 N   0  0  0  0  0  0  0  0  0  0  0  0
  152.1356  137.2439  184.1059 H   0  0  0  0  0  0  0  0  0  0  0  0
  152.8856  135.8575  182.8446 C   0  0  0  0  0  0  0  0  0  0  0  0
  151.7015  135.0862  183.3244 C   0  0  0  0  0  0  0  0  0  0  0  0
  150.8548  134.6022  182.5324 O   0  0  0  0  0  0  0  0  0  0  0  0
  151.4781  134.8652  184.6764 O   0  0  0  0  0  0  0  0  0  0  0  0
  151.5995  135.5684  185.3906 H   0  0  0  0  0  0  0  0  0  0  0  0
  154.1436  135.0292  182.9082 C   0  0  0  0  0  0  0  0  0  0  0  0
  154.3213  134.1737  181.6761 C   0  0  0  0  0  0  0  0  0  0  0  0
  155.6129  133.4431  181.6938 C   0  0  0  0  0  0  0  0  0  0  0  0
  155.9963  132.6576  182.7736 C   0  0  0  0  0  0  0  0  0  0  0  0
  157.1886  131.9697  182.8225 C   0  0  0  0  0  0  0  0  0  0  0  0
  158.0628  132.0498  181.7562 C   0  0  0  0  0  0  0  0  0  0  0  0
  157.7083  132.8293  180.6575 C   0  0  0  0  0  0  0  0  0  0  0  0
  156.5092  133.5030  180.6426 C   0  0  0  0  0  0  0  0  0  0  0  0
  1  2  1  0  0  0
  2 19  1  0  0  0
 19 21  1  0  0  0
 21 26  1  0  0  0
 26 27  1  0  0  0
 27 28  1  0  0  0
 28 29  2  0  0  0
 29 30  1  0  0  0
 30 31  2  0  0  0
 31 32  1  0  0  0
 32 33  2  0  0  0
 21 22  1  0  0  0
 22 23  2  0  0  0
 22 24  1  0  0  0
  2  3  1  0  0  0
  3  4  2  0  0  0
  3  5  1  0  0  0
  5  6  1  0  0  0
  6  7  1  0  0  0
  7  8  2  0  0  0
  8  9  1  0  0  0
  9 10  2  0  0  0
 10 11  1  0  0  0
 11 12  2  0  0  0
 12 13  1  0  0  0
 13 14  1  0  0  0
 14 15  1  0  0  0
 15 16  2  0  0  0
 15 17  1  0  0  0
 33 28  1  0  0  0
 14  5  1  0  0  0
 12  7  1  0  0  0
 19 20  1  0  0  0
 24 25  1  0  0  0
 17 18  1  0  0  0
M  END
> <minimizedAffinity>
-5.57224

> <CNNscore>
0.2989382148

> <CNNaffinity>
4.6022930145

> <CNN_VS>
1.3758012056

> <CNNaffinity_variance>
0.0811284035

$$$$
[H]OC(=O)[C@@]1([H])N(C(=O)[C@@]([H])(N([H])[C@]([H])(C(=O)O[H])C([H])([H])C([H])([H])c2c([H])c([H])c([H])c([H])c2[H])C([H])([H])[H])C([H])([H])c2c([H])c([H])c([H])c([H])c2C1([H])[H]


 33 35  0  0  0  0  0  0  0  0999 V2000
  153.1630  138.8093  187.0395 C   0  0  0  0  0  0  0  0  0  0  0  0
  152.3266  137.5350  187.2363 C   0  0  0  0  0  0  0  0  0  0  0  0
  151.9247  137.0905  185.8988 C   0  0  0  0  0  0  0  0  0  0  0  0
  152.8742  136.8740  185.0677 O   0  0  0  0  0  0  0  0  0  0  0  0
  150.6100  136.8772  185.4328 N   0  0  0  0  0  0  0  0  0  0  0  0
  150.4444  136.4683  184.0184 C   0  0  0  0  0  0  0  0  0  0  0  0
  149.5998  137.5370  183.3667 C   0  0  0  0  0  0  0  0  0  0  0  0
  149.9180  138.1385  182.1789 C   0  0  0  0  0  0  0  0  0  0  0  0
  149.0839  139.1478  181.6710 C   0  0  0  0  0  0  0  0  0  0  0  0
  147.9649  139.4976  182.3961 C   0  0  0  0  0  0  0  0  0  0  0  0
  147.6664  138.8622  183.6086 C   0  0  0  0  0  0  0  0  0  0  0  0
  148.4776  137.8717  184.1138 C   0  0  0  0  0  0  0  0  0  0  0  0
  148.2013  137.1452  185.3518 C   0  0  0  0  0  0  0  0  0  0  0  0
  149.4147  137.0152  186.2157 C   0  0  0  0  0  0  0  0  0  0  0  0
  149.2644  135.8891  187.1827 C   0  0  0  0  0  0  0  0  0  0  0  0
  148.8129  136.1138  188.3170 O   0  0  0  0  0  0  0  0  0  0  0  0
  149.6258  134.6287  186.8032 O   0  0  0  0  0  0  0  0  0  0  0  0
  149.0926  134.1936  186.0522 H   0  0  0  0  0  0  0  0  0  0  0  0
  153.2413  136.5966  187.8772 N   0  0  0  0  0  0  0  0  0  0  0  0
  152.7105  135.6935  187.9714 H   0  0  0  0  0  0  0  0  0  0  0  0
  153.5196  137.0611  189.2165 C   0  0  0  0  0  0  0  0  0  0  0  0
  154.8882  136.6603  189.6564 C   0  0  0  0  0  0  0  0  0  0  0  0
  155.7669  137.5063  189.9571 O   0  0  0  0  0  0  0  0  0  0  0  0
  155.2575  135.3259  189.7552 O   0  0  0  0  0  0  0  0  0  0  0  0
  155.0208  134.6229  189.0704 H   0  0  0  0  0  0  0  0  0  0  0  0
  152.4715  136.6094  190.2015 C   0  0  0  0  0  0  0  0  0  0  0  0
  152.8464  136.9516  191.6242 C   0  0  0  0  0  0  0  0  0  0  0  0
  151.9259  136.3222  192.6034 C   0  0  0  0  0  0  0  0  0  0  0  0
  152.3326  136.0057  193.8936 C   0  0  0  0  0  0  0  0  0  0  0  0
  151.5045  135.4190  194.8248 C   0  0  0  0  0  0  0  0  0  0  0  0
  150.2002  135.1212  194.4813 C   0  0  0  0  0  0  0  0  0  0  0  0
  149.7607  135.4259  193.1950 C   0  0  0  0  0  0  0  0  0  0  0  0
  150.6153  136.0119  192.2904 C   0  0  0  0  0  0  0  0  0  0  0  0
  1  2  1  0  0  0
  2 19  1  0  0  0
 19 21  1  0  0  0
 21 26  1  0  0  0
 26 27  1  0  0  0
 27 28  1  0  0  0
 28 29  2  0  0  0
 29 30  1  0  0  0
 30 31  2  0  0  0
 31 32  1  0  0  0
 32 33  2  0  0  0
 21 22  1  0  0  0
 22 23  2  0  0  0
 22 24  1  0  0  0
  2  3  1  0  0  0
  3  4  2  0  0  0
  3  5  1  0  0  0
  5  6  1  0  0  0
  6  7  1  0  0  0
  7  8  2  0  0  0
  8  9  1  0  0  0
  9 10  2  0  0  0
 10 11  1  0  0  0
 11 12  2  0  0  0
 12 13  1  0  0  0
 13 14  1  0  0  0
 14 15  1  0  0  0
 15 16  2  0  0  0
 15 17  1  0  0  0
 33 28  1  0  0  0
 14  5  1  0  0  0
 12  7  1  0  0  0
 19 20  1  0  0  0
 24 25  1  0  0  0
 17 18  1  0  0  0
M  END
> <minimizedAffinity>
-5.74437

> <CNNscore>
0.2958004177

> <CNNaffinity>
4.8239598274

> <CNN_VS>
1.4269293547

> <CNNaffinity_variance>
0.0744812191

$$$$
[H]OC(=O)[C@@]1([H])N(C(=O)[C@@]([H])(N([H])[C@]([H])(C(=O)O[H])C([H])([H])C([H])([H])c2c([H])c([H])c([H])c([H])c2[H])C([H])([H])[H])C([H])([H])c2c([H])c([H])c([H])c([H])c2C1([H])[H]


 33 35  0  0  0  0  0  0  0  0999 V2000
  151.0926  137.1039  186.0184 C   0  0  0  0  0  0  0  0  0  0  0  0
  152.4937  137.2427  186.6347 C   0  0  0  0  0  0  0  0  0  0  0  0
  152.5702  136.2602  187.7195 C   0  0  0  0  0  0  0  0  0  0  0  0
  151.8870  135.1893  187.5593 O   0  0  0  0  0  0  0  0  0  0  0  0
  153.3125  136.3688  188.9146 N   0  0  0  0  0  0  0  0  0  0  0  0
  153.1998  135.2612  189.8920 C   0  0  0  0  0  0  0  0  0  0  0  0
  152.6617  135.8735  191.1630 C   0  0  0  0  0  0  0  0  0  0  0  0
  151.6090  135.3570  191.8695 C   0  0  0  0  0  0  0  0  0  0  0  0
  151.1605  136.0200  193.0234 C   0  0  0  0  0  0  0  0  0  0  0  0
  151.8044  137.1780  193.4040 C   0  0  0  0  0  0  0  0  0  0  0  0
  152.8795  137.6807  192.6595 C   0  0  0  0  0  0  0  0  0  0  0  0
  153.3265  137.0374  191.5278 C   0  0  0  0  0  0  0  0  0  0  0  0
  154.4652  137.4891  190.7303 C   0  0  0  0  0  0  0  0  0  0  0  0
  154.1769  137.4606  189.2635 C   0  0  0  0  0  0  0  0  0  0  0  0
  155.4404  137.4291  188.4707 C   0  0  0  0  0  0  0  0  0  0  0  0
  155.5724  138.1927  187.5009 O   0  0  0  0  0  0  0  0  0  0  0  0
  156.4316  136.5605  188.8260 O   0  0  0  0  0  0  0  0  0  0  0  0
  156.8788  136.7029  189.7300 H   0  0  0  0  0  0  0  0  0  0  0  0
  153.4042  136.9266  185.5396 N   0  0  0  0  0  0  0  0  0  0  0  0
  153.7218  137.8511  185.1513 H   0  0  0  0  0  0  0  0  0  0  0  0
  152.6595  136.2658  184.4929 C   0  0  0  0  0  0  0  0  0  0  0  0
  153.1171  134.8574  184.3077 C   0  0  0  0  0  0  0  0  0  0  0  0
  152.3750  133.8759  184.5610 O   0  0  0  0  0  0  0  0  0  0  0  0
  154.3917  134.5632  183.8436 O   0  0  0  0  0  0  0  0  0  0  0  0
  155.2278  135.0382  184.1513 H   0  0  0  0  0  0  0  0  0  0  0  0
  152.7035  137.0330  183.1959 C   0  0  0  0  0  0  0  0  0  0  0  0
  151.4817  136.7777  182.3452 C   0  0  0  0  0  0  0  0  0  0  0  0
  151.2901  137.8370  181.3236 C   0  0  0  0  0  0  0  0  0  0  0  0
  152.2771  138.7742  181.0452 C   0  0  0  0  0  0  0  0  0  0  0  0
  152.1298  139.7709  180.1060 C   0  0  0  0  0  0  0  0  0  0  0  0
  150.9504  139.8628  179.3929 C   0  0  0  0  0  0  0  0  0  0  0  0
  149.9404  138.9381  179.6482 C   0  0  0  0  0  0  0  0  0  0  0  0
  150.1219  137.9555  180.5935 C   0  0  0  0  0  0  0  0  0  0  0  0
  1  2  1  0  0  0
  2 19  1  0  0  0
 19 21  1  0  0  0
 21 26  1  0  0  0
 26 27  1  0  0  0
 27 28  1  0  0  0
 28 29  2  0  0  0
 29 30  1  0  0  0
 30 31  2  0  0  0
 31 32  1  0  0  0
 32 33  2  0  0  0
 21 22  1  0  0  0
 22 23  2  0  0  0
 22 24  1  0  0  0
  2  3  1  0  0  0
  3  4  2  0  0  0
  3  5  1  0  0  0
  5  6  1  0  0  0
  6  7  1  0  0  0
  7  8  2  0  0  0
  8  9  1  0  0  0
  9 10  2  0  0  0
 10 11  1  0  0  0
 11 12  2  0  0  0
 12 13  1  0  0  0
 13 14  1  0  0  0
 14 15  1  0  0  0
 15 16  2  0  0  0
 15 17  1  0  0  0
 33 28  1  0  0  0
 14  5  1  0  0  0
 12  7  1  0  0  0
 19 20  1  0  0  0
 24 25  1  0  0  0
 17 18  1  0  0  0
M  END
> <minimizedAffinity>
-5.87563

> <CNNscore>
0.2607370913

> <CNNaffinity>
4.7553815842

> <CNN_VS>
1.2399044037

> <CNNaffinity_variance>
0.1595214605

$$$$
[H]OC(=O)[C@@]1([H])N(C(=O)[C@@]([H])(N([H])[C@]([H])(C(=O)O[H])C([H])([H])C([H])([H])c2c([H])c([H])c([H])c([H])c2[H])C([H])([H])[H])C([H])([H])c2c([H])c([H])c([H])c([H])c2C1([H])[H]


 33 35  0  0  0  0  0  0  0  0999 V2000
  155.9068  139.1837  184.8408 C   0  0  0  0  0  0  0  0  0  0  0  0
  154.3960  138.9705  184.6563 C   0  0  0  0  0  0  0  0  0  0  0  0
  153.8441  138.7270  185.9920 C   0  0  0  0  0  0  0  0  0  0  0  0
  153.0458  139.6202  186.4435 O   0  0  0  0  0  0  0  0  0  0  0  0
  154.0980  137.6190  186.8282 N   0  0  0  0  0  0  0  0  0  0  0  0
  153.4579  137.6105  188.1643 C   0  0  0  0  0  0  0  0  0  0  0  0
  154.5827  137.5570  189.1703 C   0  0  0  0  0  0  0  0  0  0  0  0
  154.6745  138.3892  190.2534 C   0  0  0  0  0  0  0  0  0  0  0  0
  155.7791  138.2827  191.1140 C   0  0  0  0  0  0  0  0  0  0  0  0
  156.7387  137.3341  190.8319 C   0  0  0  0  0  0  0  0  0  0  0  0
  156.6154  136.4968  189.7154 C   0  0  0  0  0  0  0  0  0  0  0  0
  155.5361  136.5933  188.8667 C   0  0  0  0  0  0  0  0  0  0  0  0
  155.3304  135.7253  187.7087 C   0  0  0  0  0  0  0  0  0  0  0  0
  154.9200  136.4912  186.4920 C   0  0  0  0  0  0  0  0  0  0  0  0
  154.2451  135.6015  185.5026 C   0  0  0  0  0  0  0  0  0  0  0  0
  153.3689  134.8116  185.8891 O   0  0  0  0  0  0  0  0  0  0  0  0
  154.6025  135.6714  184.1871 O   0  0  0  0  0  0  0  0  0  0  0  0
  154.4096  136.5416  183.6940 H   0  0  0  0  0  0  0  0  0  0  0  0
  153.9203  140.2250  184.0837 N   0  0  0  0  0  0  0  0  0  0  0  0
  152.8783  140.2319  184.2272 H   0  0  0  0  0  0  0  0  0  0  0  0
  154.1470  140.1996  182.6573 C   0  0  0  0  0  0  0  0  0  0  0  0
  154.9772  141.3598  182.2191 C   0  0  0  0  0  0  0  0  0  0  0  0
  154.5604  142.5429  182.2893 O   0  0  0  0  0  0  0  0  0  0  0  0
  156.2570  141.1860  181.7107 O   0  0  0  0  0  0  0  0  0  0  0  0
  156.5099  140.4613  181.0548 H   0  0  0  0  0  0  0  0  0  0  0  0
  152.8574  140.1221  181.8803 C   0  0  0  0  0  0  0  0  0  0  0  0
  152.3815  138.6982  181.7135 C   0  0  0  0  0  0  0  0  0  0  0  0
  151.2392  138.6057  180.7707 C   0  0  0  0  0  0  0  0  0  0  0  0
  151.1008  139.4782  179.6985 C   0  0  0  0  0  0  0  0  0  0  0  0
  150.0518  139.4210  178.8077 C   0  0  0  0  0  0  0  0  0  0  0  0
  149.0766  138.4562  178.9685 C   0  0  0  0  0  0  0  0  0  0  0  0
  149.1857  137.5655  180.0340 C   0  0  0  0  0  0  0  0  0  0  0  0
  150.2472  137.6518  180.9045 C   0  0  0  0  0  0  0  0  0  0  0  0
  1  2  1  0  0  0
  2 19  1  0  0  0
 19 21  1  0  0  0
 21 26  1  0  0  0
 26 27  1  0  0  0
 27 28  1  0  0  0
 28 29  2  0  0  0
 29 30  1  0  0  0
 30 31  2  0  0  0
 31 32  1  0  0  0
 32 33  2  0  0  0
 21 22  1  0  0  0
 22 23  2  0  0  0
 22 24  1  0  0  0
  2  3  1  0  0  0
  3  4  2  0  0  0
  3  5  1  0  0  0
  5  6  1  0  0  0
  6  7  1  0  0  0
  7  8  2  0  0  0
  8  9  1  0  0  0
  9 10  2  0  0  0
 10 11  1  0  0  0
 11 12  2  0  0  0
 12 13  1  0  0  0
 13 14  1  0  0  0
 14 15  1  0  0  0
 15 16  2  0  0  0
 15 17  1  0  0  0
 33 28  1  0  0  0
 14  5  1  0  0  0
 12  7  1  0  0  0
 19 20  1  0  0  0
 24 25  1  0  0  0
 17 18  1  0  0  0
M  END
> <minimizedAffinity>
-6.87669

> <CNNscore>
0.2403787971

> <CNNaffinity>
5.0698227882

> <CNN_VS>
1.2186778784

> <CNNaffinity_variance>
0.0969357267

$$$$
[H]OC(=O)[C@@]1([H])N(C(=O)[C@@]([H])(N([H])[C@]([H])(C(=O)O[H])C([H])([H])C([H])([H])c2c([H])c([H])c([H])c([H])c2[H])C([H])([H])[H])C([H])([H])c2c([H])c([H])c([H])c([H])c2C1([H])[H]


 33 35  0  0  0  0  0  0  0  0999 V2000
  153.5579  138.7285  187.9848 C   0  0  0  0  0  0  0  0  0  0  0  0
  153.5485  137.2506  187.5633 C   0  0  0  0  0  0  0  0  0  0  0  0
  153.8302  137.2263  186.1253 C   0  0  0  0  0  0  0  0  0  0  0  0
  154.9468  137.7357  185.7609 O   0  0  0  0  0  0  0  0  0  0  0  0
  153.0061  136.7040  185.1059 N   0  0  0  0  0  0  0  0  0  0  0  0
  153.4828  136.8322  183.7090 C   0  0  0  0  0  0  0  0  0  0  0  0
  152.4361  137.6388  182.9785 C   0  0  0  0  0  0  0  0  0  0  0  0
  152.7233  138.7180  182.1867 C   0  0  0  0  0  0  0  0  0  0  0  0
  151.6746  139.4245  181.5758 C   0  0  0  0  0  0  0  0  0  0  0  0
  150.3824  138.9996  181.7996 C   0  0  0  0  0  0  0  0  0  0  0  0
  150.1215  137.8907  182.6151 C   0  0  0  0  0  0  0  0  0  0  0  0
  151.1427  137.1917  183.2174 C   0  0  0  0  0  0  0  0  0  0  0  0
  150.9392  136.0056  184.0472 C   0  0  0  0  0  0  0  0  0  0  0  0
  151.7441  136.0499  185.3064 C   0  0  0  0  0  0  0  0  0  0  0  0
  151.9243  134.6820  185.8742 C   0  0  0  0  0  0  0  0  0  0  0  0
  152.4721  133.8035  185.1893 O   0  0  0  0  0  0  0  0  0  0  0  0
  151.4837  134.4193  187.1390 O   0  0  0  0  0  0  0  0  0  0  0  0
  151.9382  134.9117  187.9062 H   0  0  0  0  0  0  0  0  0  0  0  0
  154.6204  136.6441  188.3452 N   0  0  0  0  0  0  0  0  0  0  0  0
  154.4038  135.6155  188.3843 H   0  0  0  0  0  0  0  0  0  0  0  0
  154.5448  137.1403  189.6998 C   0  0  0  0  0  0  0  0  0  0  0  0
  155.8820  137.1160  190.3619 C   0  0  0  0  0  0  0  0  0  0  0  0
  156.5072  138.1690  190.6421 O   0  0  0  0  0  0  0  0  0  0  0  0
  156.5021  135.9217  190.7022 O   0  0  0  0  0  0  0  0  0  0  0  0
  156.5264  135.1083  190.1045 H   0  0  0  0  0  0  0  0  0  0  0  0
  153.5138  136.4032  190.5160 C   0  0  0  0  0  0  0  0  0  0  0  0
  153.3636  136.9881  191.9006 C   0  0  0  0  0  0  0  0  0  0  0  0
  152.2194  136.3886  192.6311 C   0  0  0  0  0  0  0  0  0  0  0  0
  150.9757  136.2208  192.0352 C   0  0  0  0  0  0  0  0  0  0  0  0
  149.8935  135.6710  192.6860 C   0  0  0  0  0  0  0  0  0  0  0  0
  150.0277  135.2584  193.9973 C   0  0  0  0  0  0  0  0  0  0  0  0
  151.2621  135.4126  194.6243 C   0  0  0  0  0  0  0  0  0  0  0  0
  152.3217  135.9659  193.9437 C   0  0  0  0  0  0  0  0  0  0  0  0
  1  2  1  0  0  0
  2 19  1  0  0  0
 19 21  1  0  0  0
 21 26  1  0  0  0
 26 27  1  0  0  0
 27 28  1  0  0  0
 28 29  2  0  0  0
 29 30  1  0  0  0
 30 31  2  0  0  0
 31 32  1  0  0  0
 32 33  2  0  0  0
 21 22  1  0  0  0
 22 23  2  0  0  0
 22 24  1  0  0  0
  2  3  1  0  0  0
  3  4  2  0  0  0
  3  5  1  0  0  0
  5  6  1  0  0  0
  6  7  1  0  0  0
  7  8  2  0  0  0
  8  9  1  0  0  0
  9 10  2  0  0  0
 10 11  1  0  0  0
 11 12  2  0  0  0
 12 13  1  0  0  0
 13 14  1  0  0  0
 14 15  1  0  0  0
 15 16  2  0  0  0
 15 17  1  0  0  0
 33 28  1  0  0  0
 14  5  1  0  0  0
 12  7  1  0  0  0
 19 20  1  0  0  0
 24 25  1  0  0  0
 17 18  1  0  0  0
M  END
> <minimizedAffinity>
-5.72384

> <CNNscore>
0.2066837549

> <CNNaffinity>
4.8231935501

> <CNN_VS>
0.9968757629

> <CNNaffinity_variance>
0.0782997161

$$$$
[H]OC(=O)[C@@]1([H])N(c2nc(C#N)nc([H])c2[H])C([H])([H])[C@@]([H])(S(=O)(=O)c2c([H])c([H])c([H])c([H])c2C(F)(F)F)C1([H])[H]


 30 32  0  0  0  0  0  0  0  0999 V2000
  154.0163  138.1739  185.1748 N   0  0  0  0  0  0  0  0  0  0  0  0
  154.5092  138.4383  186.5096 C   0  0  0  0  0  0  0  0  0  0  0  0
  155.0776  137.0369  186.8661 C   0  0  0  0  0  0  0  0  0  0  0  0
  153.9457  136.1875  186.4616 C   0  0  0  0  0  0  0  0  0  0  0  0
  153.3875  136.8941  185.2112 C   0  0  0  0  0  0  0  0  0  0  0  0
  153.3277  140.0228  182.0904 C   0  0  0  0  0  0  0  0  0  0  0  0
  154.4399  140.7642  181.9426 N   0  0  0  0  0  0  0  0  0  0  0  0
  155.4602  140.6970  182.8353 C   0  0  0  0  0  0  0  0  0  0  0  0
  155.2877  139.8294  183.8939 C   0  0  0  0  0  0  0  0  0  0  0  0
  154.1591  139.0570  184.0717 C   0  0  0  0  0  0  0  0  0  0  0  0
  153.1931  139.1865  183.1357 N   0  0  0  0  0  0  0  0  0  0  0  0
  151.4383  140.2286  180.3058 N   0  0  0  0  0  0  0  0  0  0  0  0
  152.2838  140.1376  181.1137 C   0  0  0  0  0  0  0  0  0  0  0  0
  151.9193  136.9522  185.2615 C   0  0  0  0  0  0  0  0  0  0  0  0
  151.3281  136.7938  186.3483 O   0  0  0  0  0  0  0  0  0  0  0  0
  151.1859  137.1806  184.1182 O   0  0  0  0  0  0  0  0  0  0  0  0
  150.4312  136.5774  183.8012 H   0  0  0  0  0  0  0  0  0  0  0  0
  155.4111  137.0263  188.6443 S   0  0  0  0  0  0  0  0  0  0  0  0
  156.0611  138.3529  188.9072 O   0  0  0  0  0  0  0  0  0  0  0  0
  154.0561  136.9455  189.2562 O   0  0  0  0  0  0  0  0  0  0  0  0
  156.4846  135.7296  189.0507 C   0  0  0  0  0  0  0  0  0  0  0  0
  156.9818  134.9749  188.0252 C   0  0  0  0  0  0  0  0  0  0  0  0
  157.8567  133.9472  188.3023 C   0  0  0  0  0  0  0  0  0  0  0  0
  158.2431  133.6620  189.5869 C   0  0  0  0  0  0  0  0  0  0  0  0
  157.7223  134.4429  190.5874 C   0  0  0  0  0  0  0  0  0  0  0  0
  156.8285  135.5003  190.3616 C   0  0  0  0  0  0  0  0  0  0  0  0
  156.3327  136.2677  191.5040 C   0  0  0  0  0  0  0  0  0  0  0  0
  155.0135  136.0636  191.8375 F   0  0  0  0  0  0  0  0  0  0  0  0
  156.6636  137.6073  191.4707 F   0  0  0  0  0  0  0  0  0  0  0  0
  157.0178  135.8099  192.6430 F   0  0  0  0  0  0  0  0  0  0  0  0
 12 13  3  0  0  0
 13  6  1  0  0  0
  6  7  2  0  0  0
  7  8  1  0  0  0
  8  9  2  0  0  0
  9 10  1  0  0  0
 10  1  1  0  0  0
  1  2  1  0  0  0
  2  3  1  0  0  0
  3 18  1  0  0  0
 18 19  2  0  0  0
 18 20  2  0  0  0
 18 21  1  0  0  0
 21 22  2  0  0  0
 22 23  1  0  0  0
 23 24  2  0  0  0
 24 25  1  0  0  0
 25 26  2  0  0  0
 26 27  1  0  0  0
 27 28  1  0  0  0
 27 29  1  0  0  0
 27 30  1  0  0  0
  3  4  1  0  0  0
  4  5  1  0  0  0
  5 14  1  0  0  0
 14 15  2  0  0  0
 14 16  1  0  0  0
 10 11  2  0  0  0
 11  6  1  0  0  0
  5  1  1  0  0  0
 26 21  1  0  0  0
 16 17  1  0  0  0
M  END
> <minimizedAffinity>
-6.39408

> <CNNscore>
0.4385202825

> <CNNaffinity>
5.1643400192

> <CNN_VS>
2.2646677494

> <CNNaffinity_variance>
0.0887073725

$$$$
[H]OC(=O)[C@@]1([H])N(c2nc(C#N)nc([H])c2[H])C([H])([H])[C@@]([H])(S(=O)(=O)c2c([H])c([H])c([H])c([H])c2C(F)(F)F)C1([H])[H]


 30 32  0  0  0  0  0  0  0  0999 V2000
  154.2844  137.6742  187.8397 N   0  0  0  0  0  0  0  0  0  0  0  0
  154.8681  137.7727  186.5191 C   0  0  0  0  0  0  0  0  0  0  0  0
  154.0207  138.9389  185.9395 C   0  0  0  0  0  0  0  0  0  0  0  0
  152.6699  138.4868  186.3102 C   0  0  0  0  0  0  0  0  0  0  0  0
  152.8738  137.8126  187.6807 C   0  0  0  0  0  0  0  0  0  0  0  0
  156.3118  136.1069  190.4550 C   0  0  0  0  0  0  0  0  0  0  0  0
  156.4499  137.1014  191.3496 N   0  0  0  0  0  0  0  0  0  0  0  0
  155.8924  138.3219  191.1442 C   0  0  0  0  0  0  0  0  0  0  0  0
  155.1820  138.4780  189.9720 C   0  0  0  0  0  0  0  0  0  0  0  0
  155.0234  137.4771  189.0365 C   0  0  0  0  0  0  0  0  0  0  0  0
  155.6116  136.2944  189.3215 N   0  0  0  0  0  0  0  0  0  0  0  0
  157.4351  133.8085  190.9572 N   0  0  0  0  0  0  0  0  0  0  0  0
  156.9243  134.8392  190.7284 C   0  0  0  0  0  0  0  0  0  0  0  0
  152.1386  136.5411  187.7465 C   0  0  0  0  0  0  0  0  0  0  0  0
  151.8947  135.9094  186.6991 O   0  0  0  0  0  0  0  0  0  0  0  0
  151.7142  136.0370  188.9561 O   0  0  0  0  0  0  0  0  0  0  0  0
  150.7523  135.7720  189.1516 H   0  0  0  0  0  0  0  0  0  0  0  0
  154.3199  138.9888  184.1559 S   0  0  0  0  0  0  0  0  0  0  0  0
  155.4622  138.0390  183.9453 O   0  0  0  0  0  0  0  0  0  0  0  0
  153.0539  138.4664  183.5718 O   0  0  0  0  0  0  0  0  0  0  0  0
  154.7578  140.5894  183.6606 C   0  0  0  0  0  0  0  0  0  0  0  0
  153.7760  141.3780  183.1292 C   0  0  0  0  0  0  0  0  0  0  0  0
  154.0762  142.6660  182.7426 C   0  0  0  0  0  0  0  0  0  0  0  0
  155.3409  143.1785  182.8790 C   0  0  0  0  0  0  0  0  0  0  0  0
  156.2975  142.3554  183.4171 C   0  0  0  0  0  0  0  0  0  0  0  0
  156.0467  141.0374  183.8265 C   0  0  0  0  0  0  0  0  0  0  0  0
  157.1426  140.2464  184.3859 C   0  0  0  0  0  0  0  0  0  0  0  0
  157.6445  139.2562  183.5729 F   0  0  0  0  0  0  0  0  0  0  0  0
  156.9194  139.8038  185.6741 F   0  0  0  0  0  0  0  0  0  0  0  0
  158.2415  141.1089  184.5432 F   0  0  0  0  0  0  0  0  0  0  0  0
 12 13  3  0  0  0
 13  6  1  0  0  0
  6  7  2  0  0  0
  7  8  1  0  0  0
  8  9  2  0  0  0
  9 10  1  0  0  0
 10  1  1  0  0  0
  1  2  1  0  0  0
  2  3  1  0  0  0
  3 18  1  0  0  0
 18 19  2  0  0  0
 18 20  2  0  0  0
 18 21  1  0  0  0
 21 22  2  0  0  0
 22 23  1  0  0  0
 23 24  2  0  0  0
 24 25  1  0  0  0
 25 26  2  0  0  0
 26 27  1  0  0  0
 27 28  1  0  0  0
 27 29  1  0  0  0
 27 30  1  0  0  0
  3  4  1  0  0  0
  4  5  1  0  0  0
  5 14  1  0  0  0
 14 15  2  0  0  0
 14 16  1  0  0  0
 10 11  2  0  0  0
 11  6  1  0  0  0
  5  1  1  0  0  0
 26 21  1  0  0  0
 16 17  1  0  0  0
M  END
> <minimizedAffinity>
-6.40924

> <CNNscore>
0.4341669679

> <CNNaffinity>
5.5494422913

> <CNN_VS>
2.4093844891

> <CNNaffinity_variance>
0.0722067952

$$$$
[H]OC(=O)[C@@]1([H])N(c2nc(C#N)nc([H])c2[H])C([H])([H])[C@@]([H])(S(=O)(=O)c2c([H])c([H])c([H])c([H])c2C(F)(F)F)C1([H])[H]


 30 32  0  0  0  0  0  0  0  0999 V2000
  153.8092  137.0849  188.0373 N   0  0  0  0  0  0  0  0  0  0  0  0
  154.1726  137.0162  186.6381 C   0  0  0  0  0  0  0  0  0  0  0  0
  153.1196  137.9903  186.0412 C   0  0  0  0  0  0  0  0  0  0  0  0
  151.9007  137.4865  186.6946 C   0  0  0  0  0  0  0  0  0  0  0  0
  152.3842  137.0685  188.0966 C   0  0  0  0  0  0  0  0  0  0  0  0
  156.2601  136.1224  190.5815 C   0  0  0  0  0  0  0  0  0  0  0  0
  156.5295  137.2949  191.1825 N   0  0  0  0  0  0  0  0  0  0  0  0
  155.9291  138.4471  190.7896 C   0  0  0  0  0  0  0  0  0  0  0  0
  155.0337  138.3424  189.7453 C   0  0  0  0  0  0  0  0  0  0  0  0
  154.7374  137.1548  189.1100 C   0  0  0  0  0  0  0  0  0  0  0  0
  155.3807  136.0571  189.5654 N   0  0  0  0  0  0  0  0  0  0  0  0
  157.4824  133.9749  191.4127 N   0  0  0  0  0  0  0  0  0  0  0  0
  156.9266  134.9388  191.0417 C   0  0  0  0  0  0  0  0  0  0  0  0
  151.8180  135.7646  188.4720 C   0  0  0  0  0  0  0  0  0  0  0  0
  150.8634  135.2918  187.8234 O   0  0  0  0  0  0  0  0  0  0  0  0
  152.3314  135.0560  189.5358 O   0  0  0  0  0  0  0  0  0  0  0  0
  151.7689  134.7125  190.3100 H   0  0  0  0  0  0  0  0  0  0  0  0
  153.1395  137.7720  184.2453 S   0  0  0  0  0  0  0  0  0  0  0  0
  154.2520  136.7948  184.0033 O   0  0  0  0  0  0  0  0  0  0  0  0
  151.8079  137.1758  183.9483 O   0  0  0  0  0  0  0  0  0  0  0  0
  153.4680  139.2784  183.4565 C   0  0  0  0  0  0  0  0  0  0  0  0
  154.2133  140.1997  184.1375 C   0  0  0  0  0  0  0  0  0  0  0  0
  154.5167  141.4028  183.5381 C   0  0  0  0  0  0  0  0  0  0  0  0
  154.0881  141.6994  182.2696 C   0  0  0  0  0  0  0  0  0  0  0  0
  153.3433  140.7480  181.6198 C   0  0  0  0  0  0  0  0  0  0  0  0
  153.0054  139.5083  182.1827 C   0  0  0  0  0  0  0  0  0  0  0  0
  152.2036  138.5677  181.4004 C   0  0  0  0  0  0  0  0  0  0  0  0
  150.8784  138.4671  181.7568 F   0  0  0  0  0  0  0  0  0  0  0  0
  152.7941  137.3326  181.2243 F   0  0  0  0  0  0  0  0  0  0  0  0
  152.1375  139.0669  180.0879 F   0  0  0  0  0  0  0  0  0  0  0  0
 12 13  3  0  0  0
 13  6  1  0  0  0
  6  7  2  0  0  0
  7  8  1  0  0  0
  8  9  2  0  0  0
  9 10  1  0  0  0
 10  1  1  0  0  0
  1  2  1  0  0  0
  2  3  1  0  0  0
  3 18  1  0  0  0
 18 19  2  0  0  0
 18 20  2  0  0  0
 18 21  1  0  0  0
 21 22  2  0  0  0
 22 23  1  0  0  0
 23 24  2  0  0  0
 24 25  1  0  0  0
 25 26  2  0  0  0
 26 27  1  0  0  0
 27 28  1  0  0  0
 27 29  1  0  0  0
 27 30  1  0  0  0
  3  4  1  0  0  0
  4  5  1  0  0  0
  5 14  1  0  0  0
 14 15  2  0  0  0
 14 16  1  0  0  0
 10 11  2  0  0  0
 11  6  1  0  0  0
  5  1  1  0  0  0
 26 21  1  0  0  0
 16 17  1  0  0  0
M  END
> <minimizedAffinity>
-6.65785

> <CNNscore>
0.4005584419

> <CNNaffinity>
5.2474274635

> <CNN_VS>
2.1019012928

> <CNNaffinity_variance>
0.2340315878

$$$$
[H]OC(=O)[C@@]1([H])N(c2nc(C#N)nc([H])c2[H])C([H])([H])[C@@]([H])(S(=O)(=O)c2c([H])c([H])c([H])c([H])c2C(F)(F)F)C1([H])[H]


 30 32  0  0  0  0  0  0  0  0999 V2000
  153.4631  136.8315  187.8353 N   0  0  0  0  0  0  0  0  0  0  0  0
  153.8728  136.4956  186.4886 C   0  0  0  0  0  0  0  0  0  0  0  0
  152.8972  137.3954  185.6809 C   0  0  0  0  0  0  0  0  0  0  0  0
  151.6295  137.0754  186.3571 C   0  0  0  0  0  0  0  0  0  0  0  0
  152.0381  136.8934  187.8316 C   0  0  0  0  0  0  0  0  0  0  0  0
  155.9474  136.2540  190.4623 C   0  0  0  0  0  0  0  0  0  0  0  0
  156.0736  137.4735  191.0149 N   0  0  0  0  0  0  0  0  0  0  0  0
  155.3596  138.5348  190.5605 C   0  0  0  0  0  0  0  0  0  0  0  0
  154.5044  138.2878  189.5066 C   0  0  0  0  0  0  0  0  0  0  0  0
  154.3540  137.0488  188.9198 C   0  0  0  0  0  0  0  0  0  0  0  0
  155.1032  136.0490  189.4349 N   0  0  0  0  0  0  0  0  0  0  0  0
  157.3779  134.2946  191.4170 N   0  0  0  0  0  0  0  0  0  0  0  0
  156.7290  135.1718  190.9864 C   0  0  0  0  0  0  0  0  0  0  0  0
  151.3881  135.7063  188.4061 C   0  0  0  0  0  0  0  0  0  0  0  0
  150.9819  134.7963  187.6562 O   0  0  0  0  0  0  0  0  0  0  0  0
  151.2219  135.5867  189.7682 O   0  0  0  0  0  0  0  0  0  0  0  0
  150.3270  135.4021  190.2141 H   0  0  0  0  0  0  0  0  0  0  0  0
  152.9705  136.8576  183.9550 S   0  0  0  0  0  0  0  0  0  0  0  0
  154.3355  136.2510  183.8138 O   0  0  0  0  0  0  0  0  0  0  0  0
  151.8979  135.8292  183.8609 O   0  0  0  0  0  0  0  0  0  0  0  0
  152.7916  138.2124  182.8912 C   0  0  0  0  0  0  0  0  0  0  0  0
  151.8851  138.1027  181.8741 C   0  0  0  0  0  0  0  0  0  0  0  0
  151.6953  139.1654  181.0179 C   0  0  0  0  0  0  0  0  0  0  0  0
  152.3958  140.3355  181.1620 C   0  0  0  0  0  0  0  0  0  0  0  0
  153.2955  140.4057  182.1953 C   0  0  0  0  0  0  0  0  0  0  0  0
  153.5282  139.3548  183.0950 C   0  0  0  0  0  0  0  0  0  0  0  0
  154.5136  139.5370  184.1606 C   0  0  0  0  0  0  0  0  0  0  0  0
  155.5835  138.6719  184.1436 F   0  0  0  0  0  0  0  0  0  0  0  0
  153.9651  139.6674  185.4205 F   0  0  0  0  0  0  0  0  0  0  0  0
  155.1203  140.7888  183.9583 F   0  0  0  0  0  0  0  0  0  0  0  0
 12 13  3  0  0  0
 13  6  1  0  0  0
  6  7  2  0  0  0
  7  8  1  0  0  0
  8  9  2  0  0  0
  9 10  1  0  0  0
 10  1  1  0  0  0
  1  2  1  0  0  0
  2  3  1  0  0  0
  3 18  1  0  0  0
 18 19  2  0  0  0
 18 20  2  0  0  0
 18 21  1  0  0  0
 21 22  2  0  0  0
 22 23  1  0  0  0
 23 24  2  0  0  0
 24 25  1  0  0  0
 25 26  2  0  0  0
 26 27  1  0  0  0
 27 28  1  0  0  0
 27 29  1  0  0  0
 27 30  1  0  0  0
  3  4  1  0  0  0
  4  5  1  0  0  0
  5 14  1  0  0  0
 14 15  2  0  0  0
 14 16  1  0  0  0
 10 11  2  0  0  0
 11  6  1  0  0  0
  5  1  1  0  0  0
 26 21  1  0  0  0
 16 17  1  0  0  0
M  END
> <minimizedAffinity>
-6.24601

> <CNNscore>
0.3648057580

> <CNNaffinity>
5.1632323265

> <CNN_VS>
1.8835768700

> <CNNaffinity_variance>
0.3112206459

$$$$
[H]OC(=O)[C@@]1([H])N(c2nc(C#N)nc([H])c2[H])C([H])([H])[C@@]([H])(S(=O)(=O)c2c([H])c([H])c([H])c([H])c2C(F)(F)F)C1([H])[H]


 30 32  0  0  0  0  0  0  0  0999 V2000
  153.2780  139.4396  182.8472 N   0  0  0  0  0  0  0  0  0  0  0  0
  154.1429  140.5771  183.0762 C   0  0  0  0  0  0  0  0  0  0  0  0
  155.5238  139.8649  183.0823 C   0  0  0  0  0  0  0  0  0  0  0  0
  155.2321  138.7417  183.9877 C   0  0  0  0  0  0  0  0  0  0  0  0
  153.7736  138.3730  183.6541 C   0  0  0  0  0  0  0  0  0  0  0  0
  149.8946  138.9637  181.5308 C   0  0  0  0  0  0  0  0  0  0  0  0
  150.0015  139.4404  180.2779 N   0  0  0  0  0  0  0  0  0  0  0  0
  151.1736  139.9362  179.8059 C   0  0  0  0  0  0  0  0  0  0  0  0
  152.2388  139.9213  180.6824 C   0  0  0  0  0  0  0  0  0  0  0  0
  152.1593  139.4392  181.9720 C   0  0  0  0  0  0  0  0  0  0  0  0
  150.9548  138.9645  182.3592 N   0  0  0  0  0  0  0  0  0  0  0  0
  147.5925  138.0455  182.3395 N   0  0  0  0  0  0  0  0  0  0  0  0
  148.6292  138.4528  181.9720 C   0  0  0  0  0  0  0  0  0  0  0  0
  153.0019  138.1483  184.8852 C   0  0  0  0  0  0  0  0  0  0  0  0
  152.0543  137.3374  184.8851 O   0  0  0  0  0  0  0  0  0  0  0  0
  153.3143  138.8251  186.0434 O   0  0  0  0  0  0  0  0  0  0  0  0
  152.6420  139.3676  186.5796 H   0  0  0  0  0  0  0  0  0  0  0  0
  156.7351  141.0418  183.7310 S   0  0  0  0  0  0  0  0  0  0  0  0
  155.9032  142.1424  184.3207 O   0  0  0  0  0  0  0  0  0  0  0  0
  157.4502  140.2674  184.7826 O   0  0  0  0  0  0  0  0  0  0  0  0
  157.7331  141.6491  182.4525 C   0  0  0  0  0  0  0  0  0  0  0  0
  157.1918  141.7028  181.1986 C   0  0  0  0  0  0  0  0  0  0  0  0
  157.9437  142.2001  180.1565 C   0  0  0  0  0  0  0  0  0  0  0  0
  159.2268  142.6449  180.3474 C   0  0  0  0  0  0  0  0  0  0  0  0
  159.7330  142.5748  181.6206 C   0  0  0  0  0  0  0  0  0  0  0  0
  159.0121  142.0776  182.7164 C   0  0  0  0  0  0  0  0  0  0  0  0
  159.6510  142.0464  184.0319 C   0  0  0  0  0  0  0  0  0  0  0  0
  160.0998  140.8156  184.4526 F   0  0  0  0  0  0  0  0  0  0  0  0
  158.9496  142.7129  185.0163 F   0  0  0  0  0  0  0  0  0  0  0  0
  160.8365  142.7961  183.9379 F   0  0  0  0  0  0  0  0  0  0  0  0
 12 13  3  0  0  0
 13  6  1  0  0  0
  6  7  2  0  0  0
  7  8  1  0  0  0
  8  9  2  0  0  0
  9 10  1  0  0  0
 10  1  1  0  0  0
  1  2  1  0  0  0
  2  3  1  0  0  0
  3 18  1  0  0  0
 18 19  2  0  0  0
 18 20  2  0  0  0
 18 21  1  0  0  0
 21 22  2  0  0  0
 22 23  1  0  0  0
 23 24  2  0  0  0
 24 25  1  0  0  0
 25 26  2  0  0  0
 26 27  1  0  0  0
 27 28  1  0  0  0
 27 29  1  0  0  0
 27 30  1  0  0  0
  3  4  1  0  0  0
  4  5  1  0  0  0
  5 14  1  0  0  0
 14 15  2  0  0  0
 14 16  1  0  0  0
 10 11  2  0  0  0
 11  6  1  0  0  0
  5  1  1  0  0  0
 26 21  1  0  0  0
 16 17  1  0  0  0
M  END
> <minimizedAffinity>
-6.90533

> <CNNscore>
0.3640442789

> <CNNaffinity>
5.9134612083

> <CNN_VS>
2.1527616978

> <CNNaffinity_variance>
0.1720905304

$$$$
[H]OC(=O)[C@@]1([H])N(c2nc(C#N)nc([H])c2[H])C([H])([H])[C@@]([H])(S(=O)(=O)c2c([H])c([H])c([H])c([H])c2C(F)(F)F)C1([H])[H]


 30 32  0  0  0  0  0  0  0  0999 V2000
  153.5296  137.6273  184.1588 N   0  0  0  0  0  0  0  0  0  0  0  0
  153.1313  137.6155  185.5500 C   0  0  0  0  0  0  0  0  0  0  0  0
  154.2432  136.7032  186.1378 C   0  0  0  0  0  0  0  0  0  0  0  0
  154.2096  135.5963  185.1682 C   0  0  0  0  0  0  0  0  0  0  0  0
  153.9149  136.2947  183.8267 C   0  0  0  0  0  0  0  0  0  0  0  0
  152.7791  139.9161  181.4011 C   0  0  0  0  0  0  0  0  0  0  0  0
  153.5049  141.0022  181.7204 N   0  0  0  0  0  0  0  0  0  0  0  0
  154.2682  141.0398  182.8422 C   0  0  0  0  0  0  0  0  0  0  0  0
  154.2539  139.9057  183.6275 C   0  0  0  0  0  0  0  0  0  0  0  0
  153.5200  138.7777  183.3259 C   0  0  0  0  0  0  0  0  0  0  0  0
  152.7887  138.8267  182.1906 N   0  0  0  0  0  0  0  0  0  0  0  0
  151.3566  139.9617  179.2168 N   0  0  0  0  0  0  0  0  0  0  0  0
  151.9921  139.9366  180.2023 C   0  0  0  0  0  0  0  0  0  0  0  0
  152.8981  135.5513  183.0684 C   0  0  0  0  0  0  0  0  0  0  0  0
  152.1986  134.6933  183.6430 O   0  0  0  0  0  0  0  0  0  0  0  0
  152.7079  135.7921  181.7256 O   0  0  0  0  0  0  0  0  0  0  0  0
  152.7298  135.0673  181.0130 H   0  0  0  0  0  0  0  0  0  0  0  0
  153.7314  136.2373  187.8094 S   0  0  0  0  0  0  0  0  0  0  0  0
  152.3130  136.7164  187.9095 O   0  0  0  0  0  0  0  0  0  0  0  0
  153.8117  134.7506  187.8007 O   0  0  0  0  0  0  0  0  0  0  0  0
  154.7262  137.0248  188.9881 C   0  0  0  0  0  0  0  0  0  0  0  0
  154.1993  138.1037  189.6414 C   0  0  0  0  0  0  0  0  0  0  0  0
  154.9486  138.7461  190.6029 C   0  0  0  0  0  0  0  0  0  0  0  0
  156.2149  138.3275  190.9223 C   0  0  0  0  0  0  0  0  0  0  0  0
  156.7070  137.2410  190.2445 C   0  0  0  0  0  0  0  0  0  0  0  0
  155.9880  136.5509  189.2572 C   0  0  0  0  0  0  0  0  0  0  0  0
  156.6109  135.4049  188.5952 C   0  0  0  0  0  0  0  0  0  0  0  0
  156.7734  135.5135  187.2332 F   0  0  0  0  0  0  0  0  0  0  0  0
  156.0832  134.1840  188.9643 F   0  0  0  0  0  0  0  0  0  0  0  0
  157.9342  135.3218  189.0624 F   0  0  0  0  0  0  0  0  0  0  0  0
 12 13  3  0  0  0
 13  6  1  0  0  0
  6  7  2  0  0  0
  7  8  1  0  0  0
  8  9  2  0  0  0
  9 10  1  0  0  0
 10  1  1  0  0  0
  1  2  1  0  0  0
  2  3  1  0  0  0
  3 18  1  0  0  0
 18 19  2  0  0  0
 18 20  2  0  0  0
 18 21  1  0  0  0
 21 22  2  0  0  0
 22 23  1  0  0  0
 23 24  2  0  0  0
 24 25  1  0  0  0
 25 26  2  0  0  0
 26 27  1  0  0  0
 27 28  1  0  0  0
 27 29  1  0  0  0
 27 30  1  0  0  0
  3  4  1  0  0  0
  4  5  1  0  0  0
  5 14  1  0  0  0
 14 15  2  0  0  0
 14 16  1  0  0  0
 10 11  2  0  0  0
 11  6  1  0  0  0
  5  1  1  0  0  0
 26 21  1  0  0  0
 16 17  1  0  0  0
M  END
> <minimizedAffinity>
-6.50032

> <CNNscore>
0.3511569500

> <CNNaffinity>
5.1327362061

> <CNN_VS>
1.8023959398

> <CNNaffinity_variance>
0.1821099818

$$$$
[H]OC(=O)[C@@]1([H])N(c2nc(C#N)nc([H])c2[H])C([H])([H])[C@@]([H])(S(=O)(=O)c2c([H])c([H])c([H])c([H])c2C(F)(F)F)C1([H])[H]


 30 32  0  0  0  0  0  0  0  0999 V2000
  153.8051  136.6118  185.8727 N   0  0  0  0  0  0  0  0  0  0  0  0
  153.7553  137.5169  184.7446 C   0  0  0  0  0  0  0  0  0  0  0  0
  152.3908  137.1004  184.1290 C   0  0  0  0  0  0  0  0  0  0  0  0
  152.5464  135.6368  184.1202 C   0  0  0  0  0  0  0  0  0  0  0  0
  153.3384  135.3461  185.4096 C   0  0  0  0  0  0  0  0  0  0  0  0
  155.4488  136.4890  189.1422 C   0  0  0  0  0  0  0  0  0  0  0  0
  155.0898  137.6629  189.6913 N   0  0  0  0  0  0  0  0  0  0  0  0
  154.3002  138.5443  189.0263 C   0  0  0  0  0  0  0  0  0  0  0  0
  153.8924  138.1653  187.7641 C   0  0  0  0  0  0  0  0  0  0  0  0
  154.2442  136.9688  187.1754 C   0  0  0  0  0  0  0  0  0  0  0  0
  155.0324  136.1515  187.9082 N   0  0  0  0  0  0  0  0  0  0  0  0
  156.9769  134.8709  190.5001 N   0  0  0  0  0  0  0  0  0  0  0  0
  156.2850  135.5992  189.8946 C   0  0  0  0  0  0  0  0  0  0  0  0
  154.4102  134.3736  185.1505 C   0  0  0  0  0  0  0  0  0  0  0  0
  154.7889  134.1632  183.9809 O   0  0  0  0  0  0  0  0  0  0  0  0
  155.0037  133.6895  186.1883 O   0  0  0  0  0  0  0  0  0  0  0  0
  155.0799  132.6763  186.2267 H   0  0  0  0  0  0  0  0  0  0  0  0
  152.2927  137.8431  182.4821 S   0  0  0  0  0  0  0  0  0  0  0  0
  153.2287  139.0139  182.5474 O   0  0  0  0  0  0  0  0  0  0  0  0
  152.8085  136.7745  181.5827 O   0  0  0  0  0  0  0  0  0  0  0  0
  150.6767  138.3712  182.1521 C   0  0  0  0  0  0  0  0  0  0  0  0
  149.6774  137.8850  182.9478 C   0  0  0  0  0  0  0  0  0  0  0  0
  148.3799  138.2966  182.7339 C   0  0  0  0  0  0  0  0  0  0  0  0
  148.0653  139.1862  181.7388 C   0  0  0  0  0  0  0  0  0  0  0  0
  149.0967  139.6511  180.9628 C   0  0  0  0  0  0  0  0  0  0  0  0
  150.4342  139.2652  181.1366 C   0  0  0  0  0  0  0  0  0  0  0  0
  151.4552  139.8220  180.2495 C   0  0  0  0  0  0  0  0  0  0  0  0
  152.2281  138.9059  179.5737 F   0  0  0  0  0  0  0  0  0  0  0  0
  152.2112  140.8267  180.8190 F   0  0  0  0  0  0  0  0  0  0  0  0
  150.7853  140.4924  179.2112 F   0  0  0  0  0  0  0  0  0  0  0  0
 12 13  3  0  0  0
 13  6  1  0  0  0
  6  7  2  0  0  0
  7  8  1  0  0  0
  8  9  2  0  0  0
  9 10  1  0  0  0
 10  1  1  0  0  0
  1  2  1  0  0  0
  2  3  1  0  0  0
  3 18  1  0  0  0
 18 19  2  0  0  0
 18 20  2  0  0  0
 18 21  1  0  0  0
 21 22  2  0  0  0
 22 23  1  0  0  0
 23 24  2  0  0  0
 24 25  1  0  0  0
 25 26  2  0  0  0
 26 27  1  0  0  0
 27 28  1  0  0  0
 27 29  1  0  0  0
 27 30  1  0  0  0
  3  4  1  0  0  0
  4  5  1  0  0  0
  5 14  1  0  0  0
 14 15  2  0  0  0
 14 16  1  0  0  0
 10 11  2  0  0  0
 11  6  1  0  0  0
  5  1  1  0  0  0
 26 21  1  0  0  0
 16 17  1  0  0  0
M  END
> <minimizedAffinity>
-5.72477

> <CNNscore>
0.3464807868

> <CNNaffinity>
4.9962797165

> <CNN_VS>
1.7311149836

> <CNNaffinity_variance>
0.0483919084

$$$$
[H]OC(=O)[C@@]1([H])N(c2nc(C#N)nc([H])c2[H])C([H])([H])[C@@]([H])(S(=O)(=O)c2c([H])c([H])c([H])c([H])c2C(F)(F)F)C1([H])[H]


 30 32  0  0  0  0  0  0  0  0999 V2000
  155.0242  139.3567  184.6243 N   0  0  0  0  0  0  0  0  0  0  0  0
  156.3651  139.5348  184.1097 C   0  0  0  0  0  0  0  0  0  0  0  0
  156.2785  141.0155  183.6471 C   0  0  0  0  0  0  0  0  0  0  0  0
  155.0104  140.9801  182.9007 C   0  0  0  0  0  0  0  0  0  0  0  0
  154.1397  139.9968  183.7065 C   0  0  0  0  0  0  0  0  0  0  0  0
  155.3130  137.2480  187.6036 C   0  0  0  0  0  0  0  0  0  0  0  0
  154.0827  137.3340  188.1398 N   0  0  0  0  0  0  0  0  0  0  0  0
  153.1072  138.0784  187.5595 C   0  0  0  0  0  0  0  0  0  0  0  0
  153.4523  138.7353  186.3965 C   0  0  0  0  0  0  0  0  0  0  0  0
  154.7048  138.6661  185.8235 C   0  0  0  0  0  0  0  0  0  0  0  0
  155.6149  137.9025  186.4675 N   0  0  0  0  0  0  0  0  0  0  0  0
  157.1113  135.7977  188.8118 N   0  0  0  0  0  0  0  0  0  0  0  0
  156.3017  136.4453  188.2633 C   0  0  0  0  0  0  0  0  0  0  0  0
  153.4395  139.0684  182.8069 C   0  0  0  0  0  0  0  0  0  0  0  0
  153.1746  137.9118  183.1914 O   0  0  0  0  0  0  0  0  0  0  0  0
  153.0710  139.4622  181.5395 O   0  0  0  0  0  0  0  0  0  0  0  0
  153.3205  138.9538  180.6950 H   0  0  0  0  0  0  0  0  0  0  0  0
  157.7312  141.3461  182.6207 S   0  0  0  0  0  0  0  0  0  0  0  0
  158.2610  139.9845  182.2792 O   0  0  0  0  0  0  0  0  0  0  0  0
  157.1691  142.0344  181.4261 O   0  0  0  0  0  0  0  0  0  0  0  0
  158.9075  142.2529  183.5115 C   0  0  0  0  0  0  0  0  0  0  0  0
  159.4364  141.6748  184.6315 C   0  0  0  0  0  0  0  0  0  0  0  0
  160.3917  142.3524  185.3573 C   0  0  0  0  0  0  0  0  0  0  0  0
  160.8271  143.5974  184.9817 C   0  0  0  0  0  0  0  0  0  0  0  0
  160.2722  144.1425  183.8516 C   0  0  0  0  0  0  0  0  0  0  0  0
  159.2971  143.4972  183.0767 C   0  0  0  0  0  0  0  0  0  0  0  0
  158.7712  144.1723  181.8903 C   0  0  0  0  0  0  0  0  0  0  0  0
  157.4424  144.5258  181.9400 F   0  0  0  0  0  0  0  0  0  0  0  0
  159.1071  143.5628  180.6983 F   0  0  0  0  0  0  0  0  0  0  0  0
  159.4220  145.4147  181.7944 F   0  0  0  0  0  0  0  0  0  0  0  0
 12 13  3  0  0  0
 13  6  1  0  0  0
  6  7  2  0  0  0
  7  8  1  0  0  0
  8  9  2  0  0  0
  9 10  1  0  0  0
 10  1  1  0  0  0
  1  2  1  0  0  0
  2  3  1  0  0  0
  3 18  1  0  0  0
 18 19  2  0  0  0
 18 20  2  0  0  0
 18 21  1  0  0  0
 21 22  2  0  0  0
 22 23  1  0  0  0
 23 24  2  0  0  0
 24 25  1  0  0  0
 25 26  2  0  0  0
 26 27  1  0  0  0
 27 28  1  0  0  0
 27 29  1  0  0  0
 27 30  1  0  0  0
  3  4  1  0  0  0
  4  5  1  0  0  0
  5 14  1  0  0  0
 14 15  2  0  0  0
 14 16  1  0  0  0
 10 11  2  0  0  0
 11  6  1  0  0  0
  5  1  1  0  0  0
 26 21  1  0  0  0
 16 17  1  0  0  0
M  END
> <minimizedAffinity>
-8.33233

> <CNNscore>
0.3349362910

> <CNNaffinity>
6.0401229858

> <CNN_VS>
2.0230565071

> <CNNaffinity_variance>
0.1225302815

$$$$
[H]OC(=O)[C@@]1([H])N(c2nc(C#N)nc([H])c2[H])C([H])([H])[C@@]([H])(S(=O)(=O)c2c([H])c([H])c([H])c([H])c2C(F)(F)F)C1([H])[H]


 30 32  0  0  0  0  0  0  0  0999 V2000
  154.5358  138.4121  185.0659 N   0  0  0  0  0  0  0  0  0  0  0  0
  154.0044  138.3268  186.4093 C   0  0  0  0  0  0  0  0  0  0  0  0
  154.5097  136.9122  186.8064 C   0  0  0  0  0  0  0  0  0  0  0  0
  154.1067  136.1489  185.6141 C   0  0  0  0  0  0  0  0  0  0  0  0
  154.3241  137.1407  184.4550 C   0  0  0  0  0  0  0  0  0  0  0  0
  154.9857  141.7003  183.5193 C   0  0  0  0  0  0  0  0  0  0  0  0
  156.3242  141.8013  183.4376 N   0  0  0  0  0  0  0  0  0  0  0  0
  157.1381  140.8090  183.8797 C   0  0  0  0  0  0  0  0  0  0  0  0
  156.5136  139.7007  184.4132 C   0  0  0  0  0  0  0  0  0  0  0  0
  155.1442  139.5689  184.5102 C   0  0  0  0  0  0  0  0  0  0  0  0
  154.4101  140.6041  184.0459 N   0  0  0  0  0  0  0  0  0  0  0  0
  153.5282  143.6749  182.6399 N   0  0  0  0  0  0  0  0  0  0  0  0
  154.1784  142.7823  183.0351 C   0  0  0  0  0  0  0  0  0  0  0  0
  153.1857  137.1078  183.5253 C   0  0  0  0  0  0  0  0  0  0  0  0
  152.6554  136.0181  183.2305 O   0  0  0  0  0  0  0  0  0  0  0  0
  152.6956  138.2710  182.9738 O   0  0  0  0  0  0  0  0  0  0  0  0
  152.5791  138.4171  181.9743 H   0  0  0  0  0  0  0  0  0  0  0  0
  153.6402  136.4336  188.3191 S   0  0  0  0  0  0  0  0  0  0  0  0
  153.0683  137.7191  188.8401 O   0  0  0  0  0  0  0  0  0  0  0  0
  152.5750  135.5120  187.8363 O   0  0  0  0  0  0  0  0  0  0  0  0
  154.7470  135.7503  189.4625 C   0  0  0  0  0  0  0  0  0  0  0  0
  154.6495  134.4103  189.7142 C   0  0  0  0  0  0  0  0  0  0  0  0
  155.5251  133.8218  190.6005 C   0  0  0  0  0  0  0  0  0  0  0  0
  156.4962  134.5501  191.2384 C   0  0  0  0  0  0  0  0  0  0  0  0
  156.5613  135.8916  190.9582 C   0  0  0  0  0  0  0  0  0  0  0  0
  155.6956  136.5411  190.0656 C   0  0  0  0  0  0  0  0  0  0  0  0
  155.8530  137.9781  189.8423 C   0  0  0  0  0  0  0  0  0  0  0  0
  154.7876  138.7643  190.2168 F   0  0  0  0  0  0  0  0  0  0  0  0
  156.3314  138.3059  188.5898 F   0  0  0  0  0  0  0  0  0  0  0  0
  156.8825  138.4219  190.6905 F   0  0  0  0  0  0  0  0  0  0  0  0
 12 13  3  0  0  0
 13  6  1  0  0  0
  6  7  2  0  0  0
  7  8  1  0  0  0
  8  9  2  0  0  0
  9 10  1  0  0  0
 10  1  1  0  0  0
  1  2  1  0  0  0
  2  3  1  0  0  0
  3 18  1  0  0  0
 18 19  2  0  0  0
 18 20  2  0  0  0
 18 21  1  0  0  0
 21 22  2  0  0  0
 22 23  1  0  0  0
 23 24  2  0  0  0
 24 25  1  0  0  0
 25 26  2  0  0  0
 26 27  1  0  0  0
 27 28  1  0  0  0
 27 29  1  0  0  0
 27 30  1  0  0  0
  3  4  1  0  0  0
  4  5  1  0  0  0
  5 14  1  0  0  0
 14 15  2  0  0  0
 14 16  1  0  0  0
 10 11  2  0  0  0
 11  6  1  0  0  0
  5  1  1  0  0  0
 26 21  1  0  0  0
 16 17  1  0  0  0
M  END
> <minimizedAffinity>
-6.27765

> <CNNscore>
0.2977370918

> <CNNaffinity>
5.3287181854

> <CNN_VS>
1.5865570307

> <CNNaffinity_variance>
0.0658891276

$$$$
[H]c1c([H])c([H])c(C([H])([H])n2c([H])nc(-c3c([H])c([H])c(F)c([H])c3[H])c2-c2nn3c([H])c(N([H])C(=O)C(C([H])([H])[H])(C([H])([H])[H])C([H])([H])[H])nc3c([H])c2[H])c([H])c1[H]


 36 40  0  0  0  0  0  0  0  0999 V2000
  155.8133  136.3699  189.6846 C   0  0  0  0  0  0  0  0  0  0  0  0
  156.7037  135.3473  189.9327 C   0  0  0  0  0  0  0  0  0  0  0  0
  156.7086  135.1789  191.2876 N   0  0  0  0  0  0  0  0  0  0  0  0
  155.8848  136.0286  191.8643 C   0  0  0  0  0  0  0  0  0  0  0  0
  155.3312  136.7673  190.8557 N   0  0  0  0  0  0  0  0  0  0  0  0
  155.9893  139.2269  184.5084 C   0  0  0  0  0  0  0  0  0  0  0  0
  156.6773  139.0941  185.6930 C   0  0  0  0  0  0  0  0  0  0  0  0
  156.0177  138.2016  186.4918 N   0  0  0  0  0  0  0  0  0  0  0  0
  156.2857  137.7568  187.7007 N   0  0  0  0  0  0  0  0  0  0  0  0
  155.5130  136.8663  188.3443 C   0  0  0  0  0  0  0  0  0  0  0  0
  154.4002  136.4293  187.6649 C   0  0  0  0  0  0  0  0  0  0  0  0
  154.0972  136.8861  186.3854 C   0  0  0  0  0  0  0  0  0  0  0  0
  154.9414  137.7915  185.8107 C   0  0  0  0  0  0  0  0  0  0  0  0
  154.9248  138.4071  184.6206 N   0  0  0  0  0  0  0  0  0  0  0  0
  156.8250  141.3583  183.5959 C   0  0  0  0  0  0  0  0  0  0  0  0
  156.9649  141.7912  184.7903 O   0  0  0  0  0  0  0  0  0  0  0  0
  156.3273  140.0440  183.4130 N   0  0  0  0  0  0  0  0  0  0  0  0
  156.2114  139.6854  182.4507 H   0  0  0  0  0  0  0  0  0  0  0  0
  158.5456  142.8516  182.8317 C   0  0  0  0  0  0  0  0  0  0  0  0
  157.1916  142.2590  182.5014 C   0  0  0  0  0  0  0  0  0  0  0  0
  157.3162  141.4896  181.2212 C   0  0  0  0  0  0  0  0  0  0  0  0
  156.2225  143.4125  182.3632 C   0  0  0  0  0  0  0  0  0  0  0  0
  157.5274  134.5477  189.0477 C   0  0  0  0  0  0  0  0  0  0  0  0
  157.0529  133.3496  188.5696 C   0  0  0  0  0  0  0  0  0  0  0  0
  157.8052  132.5492  187.7124 C   0  0  0  0  0  0  0  0  0  0  0  0
  159.0659  132.9501  187.3181 C   0  0  0  0  0  0  0  0  0  0  0  0
  159.7989  132.1654  186.4803 F   0  0  0  0  0  0  0  0  0  0  0  0
  159.5474  134.1468  187.7919 C   0  0  0  0  0  0  0  0  0  0  0  0
  158.7834  134.9315  188.6457 C   0  0  0  0  0  0  0  0  0  0  0  0
  154.3582  137.8257  191.0732 C   0  0  0  0  0  0  0  0  0  0  0  0
  153.0623  137.2962  191.5320 C   0  0  0  0  0  0  0  0  0  0  0  0
  152.5958  137.4792  192.8078 C   0  0  0  0  0  0  0  0  0  0  0  0
  151.3932  136.9980  193.2516 C   0  0  0  0  0  0  0  0  0  0  0  0
  150.6079  136.2892  192.3629 C   0  0  0  0  0  0  0  0  0  0  0  0
  151.0541  136.0894  191.0691 C   0  0  0  0  0  0  0  0  0  0  0  0
  152.2604  136.5799  190.6479 C   0  0  0  0  0  0  0  0  0  0  0  0
 19 20  1  0  0  0
 20 21  1  0  0  0
 20 22  1  0  0  0
 20 15  1  0  0  0
 15 16  2  0  0  0
 15 17  1  0  0  0
 17  6  1  0  0  0
  6  7  2  0  0  0
  7  8  1  0  0  0
  8  9  1  0  0  0
  9 10  2  0  0  0
 10  1  1  0  0  0
  1  2  2  0  0  0
  2 23  1  0  0  0
 23 24  2  0  0  0
 24 25  1  0  0  0
 25 26  2  0  0  0
 26 27  1  0  0  0
 26 28  1  0  0  0
 28 29  2  0  0  0
  2  3  1  0  0  0
  3  4  2  0  0  0
  4  5  1  0  0  0
  5 30  1  0  0  0
 30 31  1  0  0  0
 31 32  2  0  0  0
 32 33  1  0  0  0
 33 34  2  0  0  0
 34 35  1  0  0  0
 35 36  2  0  0  0
 10 11  1  0  0  0
 11 12  2  0  0  0
 12 13  1  0  0  0
 13 14  2  0  0  0
 14  6  1  0  0  0
 13  8  1  0  0  0
  5  1  1  0  0  0
 36 31  1  0  0  0
 29 23  1  0  0  0
 17 18  1  0  0  0
M  END
> <minimizedAffinity>
-7.72717

> <CNNscore>
0.4424937367

> <CNNaffinity>
6.5688576698

> <CNN_VS>
2.9066784382

> <CNNaffinity_variance>
0.0616062693

$$$$
[H]c1c([H])c([H])c(C([H])([H])n2c([H])nc(-c3c([H])c([H])c(F)c([H])c3[H])c2-c2nn3c([H])c(N([H])C(=O)C(C([H])([H])[H])(C([H])([H])[H])C([H])([H])[H])nc3c([H])c2[H])c([H])c1[H]


 36 40  0  0  0  0  0  0  0  0999 V2000
  151.7391  136.2200  187.3123 C   0  0  0  0  0  0  0  0  0  0  0  0
  152.0609  136.2752  188.6515 C   0  0  0  0  0  0  0  0  0  0  0  0
  150.9971  135.7313  189.3124 N   0  0  0  0  0  0  0  0  0  0  0  0
  150.0644  135.3563  188.4622 C   0  0  0  0  0  0  0  0  0  0  0  0
  150.5368  135.6656  187.2170 N   0  0  0  0  0  0  0  0  0  0  0  0
  154.7619  139.6528  183.5620 C   0  0  0  0  0  0  0  0  0  0  0  0
  153.8599  139.7190  184.5993 C   0  0  0  0  0  0  0  0  0  0  0  0
  153.5755  138.4500  185.0220 N   0  0  0  0  0  0  0  0  0  0  0  0
  152.7796  138.0107  185.9732 N   0  0  0  0  0  0  0  0  0  0  0  0
  152.6196  136.7068  186.2537 C   0  0  0  0  0  0  0  0  0  0  0  0
  153.3440  135.8292  185.4817 C   0  0  0  0  0  0  0  0  0  0  0  0
  154.1921  136.2716  184.4704 C   0  0  0  0  0  0  0  0  0  0  0  0
  154.2904  137.6161  184.2578 C   0  0  0  0  0  0  0  0  0  0  0  0
  155.0022  138.3384  183.3819 N   0  0  0  0  0  0  0  0  0  0  0  0
  156.6548  141.1461  183.0511 C   0  0  0  0  0  0  0  0  0  0  0  0
  157.3581  140.5153  183.9119 O   0  0  0  0  0  0  0  0  0  0  0  0
  155.3161  140.7294  182.8439 N   0  0  0  0  0  0  0  0  0  0  0  0
  154.7401  141.2333  182.1494 H   0  0  0  0  0  0  0  0  0  0  0  0
  158.5140  142.6662  183.1332 C   0  0  0  0  0  0  0  0  0  0  0  0
  157.2897  142.2578  182.3408 C   0  0  0  0  0  0  0  0  0  0  0  0
  157.7379  141.8118  180.9819 C   0  0  0  0  0  0  0  0  0  0  0  0
  156.3885  143.4702  182.2574 C   0  0  0  0  0  0  0  0  0  0  0  0
  153.2294  136.7810  189.3442 C   0  0  0  0  0  0  0  0  0  0  0  0
  153.6912  138.0463  189.0708 C   0  0  0  0  0  0  0  0  0  0  0  0
  154.8066  138.5780  189.7147 C   0  0  0  0  0  0  0  0  0  0  0  0
  155.4835  137.8314  190.6581 C   0  0  0  0  0  0  0  0  0  0  0  0
  156.5735  138.3538  191.2857 F   0  0  0  0  0  0  0  0  0  0  0  0
  155.0279  136.5653  190.9370 C   0  0  0  0  0  0  0  0  0  0  0  0
  153.9144  136.0517  190.2852 C   0  0  0  0  0  0  0  0  0  0  0  0
  149.8007  135.4087  185.9897 C   0  0  0  0  0  0  0  0  0  0  0  0
  149.0710  136.6013  185.5256 C   0  0  0  0  0  0  0  0  0  0  0  0
  149.0124  136.9685  184.2063 C   0  0  0  0  0  0  0  0  0  0  0  0
  148.3367  138.0708  183.7555 C   0  0  0  0  0  0  0  0  0  0  0  0
  147.6783  138.8550  184.6830 C   0  0  0  0  0  0  0  0  0  0  0  0
  147.7210  138.5080  186.0212 C   0  0  0  0  0  0  0  0  0  0  0  0
  148.4031  137.4011  186.4486 C   0  0  0  0  0  0  0  0  0  0  0  0
 19 20  1  0  0  0
 20 21  1  0  0  0
 20 22  1  0  0  0
 20 15  1  0  0  0
 15 16  2  0  0  0
 15 17  1  0  0  0
 17  6  1  0  0  0
  6  7  2  0  0  0
  7  8  1  0  0  0
  8  9  1  0  0  0
  9 10  2  0  0  0
 10  1  1  0  0  0
  1  2  2  0  0  0
  2 23  1  0  0  0
 23 24  2  0  0  0
 24 25  1  0  0  0
 25 26  2  0  0  0
 26 27  1  0  0  0
 26 28  1  0  0  0
 28 29  2  0  0  0
  2  3  1  0  0  0
  3  4  2  0  0  0
  4  5  1  0  0  0
  5 30  1  0  0  0
 30 31  1  0  0  0
 31 32  2  0  0  0
 32 33  1  0  0  0
 33 34  2  0  0  0
 34 35  1  0  0  0
 35 36  2  0  0  0
 10 11  1  0  0  0
 11 12  2  0  0  0
 12 13  1  0  0  0
 13 14  2  0  0  0
 14  6  1  0  0  0
 13  8  1  0  0  0
  5  1  1  0  0  0
 36 31  1  0  0  0
 29 23  1  0  0  0
 17 18  1  0  0  0
M  END
> <minimizedAffinity>
-6.77368

> <CNNscore>
0.3677546382

> <CNNaffinity>
6.5928945541

> <CNN_VS>
2.4245674610

> <CNNaffinity_variance>
0.1051447541

$$$$
[H]c1c([H])c([H])c(C([H])([H])n2c([H])nc(-c3c([H])c([H])c(F)c([H])c3[H])c2-c2nn3c([H])c(N([H])C(=O)C(C([H])([H])[H])(C([H])([H])[H])C([H])([H])[H])nc3c([H])c2[H])c([H])c1[H]


 36 40  0  0  0  0  0  0  0  0999 V2000
  155.0308  135.9738  189.9506 C   0  0  0  0  0  0  0  0  0  0  0  0
  156.4002  135.9213  190.0995 C   0  0  0  0  0  0  0  0  0  0  0  0
  156.7063  136.8470  191.0553 N   0  0  0  0  0  0  0  0  0  0  0  0
  155.6168  137.4474  191.4862 C   0  0  0  0  0  0  0  0  0  0  0  0
  154.5768  136.8957  190.7908 N   0  0  0  0  0  0  0  0  0  0  0  0
  152.3504  133.8226  185.1367 C   0  0  0  0  0  0  0  0  0  0  0  0
  153.0526  134.9188  185.5833 C   0  0  0  0  0  0  0  0  0  0  0  0
  153.3885  134.7268  186.8948 N   0  0  0  0  0  0  0  0  0  0  0  0
  154.0512  135.4863  187.7404 N   0  0  0  0  0  0  0  0  0  0  0  0
  154.2916  135.1321  189.0137 C   0  0  0  0  0  0  0  0  0  0  0  0
  153.8008  133.9081  189.4034 C   0  0  0  0  0  0  0  0  0  0  0  0
  153.0972  133.0882  188.5258 C   0  0  0  0  0  0  0  0  0  0  0  0
  152.9013  133.5323  187.2502 C   0  0  0  0  0  0  0  0  0  0  0  0
  152.2785  132.9901  186.1949 N   0  0  0  0  0  0  0  0  0  0  0  0
  152.6528  133.2652  182.7552 C   0  0  0  0  0  0  0  0  0  0  0  0
  153.9069  133.1375  182.9655 O   0  0  0  0  0  0  0  0  0  0  0  0
  151.8218  133.6153  183.8486 N   0  0  0  0  0  0  0  0  0  0  0  0
  150.8062  133.7203  183.6880 H   0  0  0  0  0  0  0  0  0  0  0  0
  151.1232  134.0955  181.0983 C   0  0  0  0  0  0  0  0  0  0  0  0
  152.1676  133.0390  181.3925 C   0  0  0  0  0  0  0  0  0  0  0  0
  153.2897  133.2032  180.4125 C   0  0  0  0  0  0  0  0  0  0  0  0
  151.4935  131.6928  181.2432 C   0  0  0  0  0  0  0  0  0  0  0  0
  157.4129  135.1171  189.4447 C   0  0  0  0  0  0  0  0  0  0  0  0
  157.9377  134.0222  190.0887 C   0  0  0  0  0  0  0  0  0  0  0  0
  158.9085  133.2159  189.4980 C   0  0  0  0  0  0  0  0  0  0  0  0
  159.3719  133.5052  188.2303 C   0  0  0  0  0  0  0  0  0  0  0  0
  160.3210  132.7152  187.6557 F   0  0  0  0  0  0  0  0  0  0  0  0
  158.8521  134.5983  187.5798 C   0  0  0  0  0  0  0  0  0  0  0  0
  157.8850  135.3906  188.1842 C   0  0  0  0  0  0  0  0  0  0  0  0
  153.1884  137.2872  190.9731 C   0  0  0  0  0  0  0  0  0  0  0  0
  152.5621  136.5830  192.1053 C   0  0  0  0  0  0  0  0  0  0  0  0
  153.2554  135.7283  192.9225 C   0  0  0  0  0  0  0  0  0  0  0  0
  152.6920  135.0677  193.9812 C   0  0  0  0  0  0  0  0  0  0  0  0
  151.3506  135.2753  194.2385 C   0  0  0  0  0  0  0  0  0  0  0  0
  150.6266  136.1324  193.4297 C   0  0  0  0  0  0  0  0  0  0  0  0
  151.2115  136.7820  192.3766 C   0  0  0  0  0  0  0  0  0  0  0  0
 19 20  1  0  0  0
 20 21  1  0  0  0
 20 22  1  0  0  0
 20 15  1  0  0  0
 15 16  2  0  0  0
 15 17  1  0  0  0
 17  6  1  0  0  0
  6  7  2  0  0  0
  7  8  1  0  0  0
  8  9  1  0  0  0
  9 10  2  0  0  0
 10  1  1  0  0  0
  1  2  2  0  0  0
  2 23  1  0  0  0
 23 24  2  0  0  0
 24 25  1  0  0  0
 25 26  2  0  0  0
 26 27  1  0  0  0
 26 28  1  0  0  0
 28 29  2  0  0  0
  2  3  1  0  0  0
  3  4  2  0  0  0
  4  5  1  0  0  0
  5 30  1  0  0  0
 30 31  1  0  0  0
 31 32  2  0  0  0
 32 33  1  0  0  0
 33 34  2  0  0  0
 34 35  1  0  0  0
 35 36  2  0  0  0
 10 11  1  0  0  0
 11 12  2  0  0  0
 12 13  1  0  0  0
 13 14  2  0  0  0
 14  6  1  0  0  0
 13  8  1  0  0  0
  5  1  1  0  0  0
 36 31  1  0  0  0
 29 23  1  0  0  0
 17 18  1  0  0  0
M  END
> <minimizedAffinity>
-5.90372

> <CNNscore>
0.3418281972

> <CNNaffinity>
6.0283250809

> <CNN_VS>
2.0606515408

> <CNNaffinity_variance>
0.0826661810

$$$$
[H]c1c([H])c([H])c(C([H])([H])n2c([H])nc(-c3c([H])c([H])c(F)c([H])c3[H])c2-c2nn3c([H])c(N([H])C(=O)C(C([H])([H])[H])(C([H])([H])[H])C([H])([H])[H])nc3c([H])c2[H])c([H])c1[H]


 36 40  0  0  0  0  0  0  0  0999 V2000
  151.2829  135.8909  188.7626 C   0  0  0  0  0  0  0  0  0  0  0  0
  151.7483  135.8350  190.0588 C   0  0  0  0  0  0  0  0  0  0  0  0
  150.6560  135.5739  190.8354 N   0  0  0  0  0  0  0  0  0  0  0  0
  149.5730  135.4705  190.0940 C   0  0  0  0  0  0  0  0  0  0  0  0
  149.9746  135.6700  188.8023 N   0  0  0  0  0  0  0  0  0  0  0  0
  154.4983  138.5134  184.5471 C   0  0  0  0  0  0  0  0  0  0  0  0
  153.7023  138.7983  185.6331 C   0  0  0  0  0  0  0  0  0  0  0  0
  153.2579  137.6255  186.1778 N   0  0  0  0  0  0  0  0  0  0  0  0
  152.4809  137.3896  187.2130 N   0  0  0  0  0  0  0  0  0  0  0  0
  152.1422  136.1521  187.6109 C   0  0  0  0  0  0  0  0  0  0  0  0
  152.6576  135.1161  186.8680 C   0  0  0  0  0  0  0  0  0  0  0  0
  153.4818  135.3423  185.7692 C   0  0  0  0  0  0  0  0  0  0  0  0
  153.7714  136.6346  185.4396 C   0  0  0  0  0  0  0  0  0  0  0  0
  154.5157  137.1679  184.4612 N   0  0  0  0  0  0  0  0  0  0  0  0
  156.4397  139.9391  184.0255 C   0  0  0  0  0  0  0  0  0  0  0  0
  156.9975  139.5385  185.1032 O   0  0  0  0  0  0  0  0  0  0  0  0
  155.1551  139.4321  183.7068 N   0  0  0  0  0  0  0  0  0  0  0  0
  154.6965  139.7502  182.8369 H   0  0  0  0  0  0  0  0  0  0  0  0
  158.0902  140.1060  182.2870 C   0  0  0  0  0  0  0  0  0  0  0  0
  157.1746  140.8973  183.1975 C   0  0  0  0  0  0  0  0  0  0  0  0
  156.2216  141.6761  182.3422 C   0  0  0  0  0  0  0  0  0  0  0  0
  158.0512  141.8114  184.0251 C   0  0  0  0  0  0  0  0  0  0  0  0
  153.0750  136.0063  190.6171 C   0  0  0  0  0  0  0  0  0  0  0  0
  153.8194  134.9031  190.9605 C   0  0  0  0  0  0  0  0  0  0  0  0
  155.1011  135.0172  191.4950 C   0  0  0  0  0  0  0  0  0  0  0  0
  155.6604  136.2633  191.6943 C   0  0  0  0  0  0  0  0  0  0  0  0
  156.9134  136.3715  192.2171 F   0  0  0  0  0  0  0  0  0  0  0  0
  154.9224  137.3713  191.3535 C   0  0  0  0  0  0  0  0  0  0  0  0
  153.6463  137.2384  190.8220 C   0  0  0  0  0  0  0  0  0  0  0  0
  149.0709  135.6367  187.6637 C   0  0  0  0  0  0  0  0  0  0  0  0
  148.6195  134.2679  187.3592 C   0  0  0  0  0  0  0  0  0  0  0  0
  149.4892  133.2385  187.1086 C   0  0  0  0  0  0  0  0  0  0  0  0
  149.0892  131.9595  186.8273 C   0  0  0  0  0  0  0  0  0  0  0  0
  147.7338  131.6939  186.7946 C   0  0  0  0  0  0  0  0  0  0  0  0
  146.8336  132.7141  187.0435 C   0  0  0  0  0  0  0  0  0  0  0  0
  147.2571  133.9853  187.3225 C   0  0  0  0  0  0  0  0  0  0  0  0
 19 20  1  0  0  0
 20 21  1  0  0  0
 20 22  1  0  0  0
 20 15  1  0  0  0
 15 16  2  0  0  0
 15 17  1  0  0  0
 17  6  1  0  0  0
  6  7  2  0  0  0
  7  8  1  0  0  0
  8  9  1  0  0  0
  9 10  2  0  0  0
 10  1  1  0  0  0
  1  2  2  0  0  0
  2 23  1  0  0  0
 23 24  2  0  0  0
 24 25  1  0  0  0
 25 26  2  0  0  0
 26 27  1  0  0  0
 26 28  1  0  0  0
 28 29  2  0  0  0
  2  3  1  0  0  0
  3  4  2  0  0  0
  4  5  1  0  0  0
  5 30  1  0  0  0
 30 31  1  0  0  0
 31 32  2  0  0  0
 32 33  1  0  0  0
 33 34  2  0  0  0
 34 35  1  0  0  0
 35 36  2  0  0  0
 10 11  1  0  0  0
 11 12  2  0  0  0
 12 13  1  0  0  0
 13 14  2  0  0  0
 14  6  1  0  0  0
 13  8  1  0  0  0
  5  1  1  0  0  0
 36 31  1  0  0  0
 29 23  1  0  0  0
 17 18  1  0  0  0
M  END
> <minimizedAffinity>
-5.76865

> <CNNscore>
0.3005332053

> <CNNaffinity>
6.2705521584

> <CNN_VS>
1.8845090866

> <CNNaffinity_variance>
0.1466954350

$$$$
[H]c1c([H])c([H])c(C([H])([H])n2c([H])nc(-c3c([H])c([H])c(F)c([H])c3[H])c2-c2nn3c([H])c(N([H])C(=O)C(C([H])([H])[H])(C([H])([H])[H])C([H])([H])[H])nc3c([H])c2[H])c([H])c1[H]


 36 40  0  0  0  0  0  0  0  0999 V2000
  151.8322  136.8336  185.5670 C   0  0  0  0  0  0  0  0  0  0  0  0
  152.3814  136.5573  186.8007 C   0  0  0  0  0  0  0  0  0  0  0  0
  151.5165  135.6926  187.4078 N   0  0  0  0  0  0  0  0  0  0  0  0
  150.4910  135.4343  186.6237 C   0  0  0  0  0  0  0  0  0  0  0  0
  150.6972  136.1511  185.4777 N   0  0  0  0  0  0  0  0  0  0  0  0
  155.1838  140.9488  182.9559 C   0  0  0  0  0  0  0  0  0  0  0  0
  154.9375  140.3747  184.1823 C   0  0  0  0  0  0  0  0  0  0  0  0
  153.9680  139.4212  184.0395 N   0  0  0  0  0  0  0  0  0  0  0  0
  153.4062  138.6174  184.9167 N   0  0  0  0  0  0  0  0  0  0  0  0
  152.4524  137.7284  184.5936 C   0  0  0  0  0  0  0  0  0  0  0  0
  152.0799  137.6957  183.2703 C   0  0  0  0  0  0  0  0  0  0  0  0
  152.6607  138.5366  182.3252 C   0  0  0  0  0  0  0  0  0  0  0  0
  153.6226  139.4081  182.7467 C   0  0  0  0  0  0  0  0  0  0  0  0
  154.3525  140.3250  182.0970 N   0  0  0  0  0  0  0  0  0  0  0  0
  157.3150  141.6973  181.9705 C   0  0  0  0  0  0  0  0  0  0  0  0
  157.5487  140.4930  181.6122 O   0  0  0  0  0  0  0  0  0  0  0  0
  156.1082  141.9690  182.6622 N   0  0  0  0  0  0  0  0  0  0  0  0
  155.9106  142.9402  182.9553 H   0  0  0  0  0  0  0  0  0  0  0  0
  157.6983  144.0682  181.8923 C   0  0  0  0  0  0  0  0  0  0  0  0
  158.3182  142.7103  181.6371 C   0  0  0  0  0  0  0  0  0  0  0  0
  159.5132  142.5650  182.5301 C   0  0  0  0  0  0  0  0  0  0  0  0
  158.7090  142.6668  180.1761 C   0  0  0  0  0  0  0  0  0  0  0  0
  153.5957  137.0200  187.4431 C   0  0  0  0  0  0  0  0  0  0  0  0
  153.5260  137.9771  188.4270 C   0  0  0  0  0  0  0  0  0  0  0  0
  154.6645  138.4490  189.0770 C   0  0  0  0  0  0  0  0  0  0  0  0
  155.9091  137.9561  188.7402 C   0  0  0  0  0  0  0  0  0  0  0  0
  157.0201  138.4195  189.3772 F   0  0  0  0  0  0  0  0  0  0  0  0
  155.9871  136.9989  187.7572 C   0  0  0  0  0  0  0  0  0  0  0  0
  154.8416  136.5404  187.1202 C   0  0  0  0  0  0  0  0  0  0  0  0
  149.7839  136.1412  184.3463 C   0  0  0  0  0  0  0  0  0  0  0  0
  148.8753  137.3007  184.3624 C   0  0  0  0  0  0  0  0  0  0  0  0
  148.5820  138.0290  183.2388 C   0  0  0  0  0  0  0  0  0  0  0  0
  147.7377  139.1070  183.2330 C   0  0  0  0  0  0  0  0  0  0  0  0
  147.1501  139.4797  184.4265 C   0  0  0  0  0  0  0  0  0  0  0  0
  147.4285  138.7626  185.5760 C   0  0  0  0  0  0  0  0  0  0  0  0
  148.2760  137.6882  185.5575 C   0  0  0  0  0  0  0  0  0  0  0  0
 19 20  1  0  0  0
 20 21  1  0  0  0
 20 22  1  0  0  0
 20 15  1  0  0  0
 15 16  2  0  0  0
 15 17  1  0  0  0
 17  6  1  0  0  0
  6  7  2  0  0  0
  7  8  1  0  0  0
  8  9  1  0  0  0
  9 10  2  0  0  0
 10  1  1  0  0  0
  1  2  2  0  0  0
  2 23  1  0  0  0
 23 24  2  0  0  0
 24 25  1  0  0  0
 25 26  2  0  0  0
 26 27  1  0  0  0
 26 28  1  0  0  0
 28 29  2  0  0  0
  2  3  1  0  0  0
  3  4  2  0  0  0
  4  5  1  0  0  0
  5 30  1  0  0  0
 30 31  1  0  0  0
 31 32  2  0  0  0
 32 33  1  0  0  0
 33 34  2  0  0  0
 34 35  1  0  0  0
 35 36  2  0  0  0
 10 11  1  0  0  0
 11 12  2  0  0  0
 12 13  1  0  0  0
 13 14  2  0  0  0
 14  6  1  0  0  0
 13  8  1  0  0  0
  5  1  1  0  0  0
 36 31  1  0  0  0
 29 23  1  0  0  0
 17 18  1  0  0  0
M  END
> <minimizedAffinity>
-8.53631

> <CNNscore>
0.2965027392

> <CNNaffinity>
6.5363912582

> <CNN_VS>
1.9380578995

> <CNNaffinity_variance>
0.1503777504

$$$$
[H]c1c([H])c([H])c(C([H])([H])n2c([H])nc(-c3c([H])c([H])c(F)c([H])c3[H])c2-c2nn3c([H])c(N([H])C(=O)C(C([H])([H])[H])(C([H])([H])[H])C([H])([H])[H])nc3c([H])c2[H])c([H])c1[H]


 36 40  0  0  0  0  0  0  0  0999 V2000
  155.5848  135.2269  187.2274 C   0  0  0  0  0  0  0  0  0  0  0  0
  155.7312  135.3851  188.5888 C   0  0  0  0  0  0  0  0  0  0  0  0
  156.1486  134.1740  189.0614 N   0  0  0  0  0  0  0  0  0  0  0  0
  156.2610  133.3056  188.0783 C   0  0  0  0  0  0  0  0  0  0  0  0
  155.9068  133.9721  186.9382 N   0  0  0  0  0  0  0  0  0  0  0  0
  152.9289  138.3443  182.9595 C   0  0  0  0  0  0  0  0  0  0  0  0
  153.0088  137.0717  183.4775 C   0  0  0  0  0  0  0  0  0  0  0  0
  153.8772  137.0760  184.5337 N   0  0  0  0  0  0  0  0  0  0  0  0
  154.2736  136.1102  185.3345 N   0  0  0  0  0  0  0  0  0  0  0  0
  155.1484  136.2986  186.3363 C   0  0  0  0  0  0  0  0  0  0  0  0
  155.6233  137.5798  186.4910 C   0  0  0  0  0  0  0  0  0  0  0  0
  155.2177  138.6168  185.6557 C   0  0  0  0  0  0  0  0  0  0  0  0
  154.3249  138.3302  184.6641 C   0  0  0  0  0  0  0  0  0  0  0  0
  153.7555  139.0909  183.7193 N   0  0  0  0  0  0  0  0  0  0  0  0
  150.7526  138.5340  181.8186 C   0  0  0  0  0  0  0  0  0  0  0  0
  150.2095  137.9144  182.7956 O   0  0  0  0  0  0  0  0  0  0  0  0
  152.1485  138.7738  181.8695 N   0  0  0  0  0  0  0  0  0  0  0  0
  152.5962  139.2747  181.0840 H   0  0  0  0  0  0  0  0  0  0  0  0
  148.6613  139.6064  181.3182 C   0  0  0  0  0  0  0  0  0  0  0  0
  149.8858  138.9509  180.7147 C   0  0  0  0  0  0  0  0  0  0  0  0
  150.5885  139.9643  179.8629 C   0  0  0  0  0  0  0  0  0  0  0  0
  149.4027  137.7755  179.8938 C   0  0  0  0  0  0  0  0  0  0  0  0
  155.5150  136.5251  189.4577 C   0  0  0  0  0  0  0  0  0  0  0  0
  154.2396  136.8508  189.8529 C   0  0  0  0  0  0  0  0  0  0  0  0
  153.9826  137.9335  190.6913 C   0  0  0  0  0  0  0  0  0  0  0  0
  155.0226  138.7160  191.1512 C   0  0  0  0  0  0  0  0  0  0  0  0
  154.7681  139.7738  191.9705 F   0  0  0  0  0  0  0  0  0  0  0  0
  156.3008  138.3969  190.7605 C   0  0  0  0  0  0  0  0  0  0  0  0
  156.5381  137.3140  189.9241 C   0  0  0  0  0  0  0  0  0  0  0  0
  155.8975  133.3618  185.6185 C   0  0  0  0  0  0  0  0  0  0  0  0
  154.5752  132.8094  185.2770 C   0  0  0  0  0  0  0  0  0  0  0  0
  154.0587  132.8518  184.0080 C   0  0  0  0  0  0  0  0  0  0  0  0
  152.8340  132.3409  183.6705 C   0  0  0  0  0  0  0  0  0  0  0  0
  152.0786  131.7506  184.6653 C   0  0  0  0  0  0  0  0  0  0  0  0
  152.5752  131.6942  185.9549 C   0  0  0  0  0  0  0  0  0  0  0  0
  153.8026  132.2119  186.2687 C   0  0  0  0  0  0  0  0  0  0  0  0
 19 20  1  0  0  0
 20 21  1  0  0  0
 20 22  1  0  0  0
 20 15  1  0  0  0
 15 16  2  0  0  0
 15 17  1  0  0  0
 17  6  1  0  0  0
  6  7  2  0  0  0
  7  8  1  0  0  0
  8  9  1  0  0  0
  9 10  2  0  0  0
 10  1  1  0  0  0
  1  2  2  0  0  0
  2 23  1  0  0  0
 23 24  2  0  0  0
 24 25  1  0  0  0
 25 26  2  0  0  0
 26 27  1  0  0  0
 26 28  1  0  0  0
 28 29  2  0  0  0
  2  3  1  0  0  0
  3  4  2  0  0  0
  4  5  1  0  0  0
  5 30  1  0  0  0
 30 31  1  0  0  0
 31 32  2  0  0  0
 32 33  1  0  0  0
 33 34  2  0  0  0
 34 35  1  0  0  0
 35 36  2  0  0  0
 10 11  1  0  0  0
 11 12  2  0  0  0
 12 13  1  0  0  0
 13 14  2  0  0  0
 14  6  1  0  0  0
 13  8  1  0  0  0
  5  1  1  0  0  0
 36 31  1  0  0  0
 29 23  1  0  0  0
 17 18  1  0  0  0
M  END
> <minimizedAffinity>
-6.50733

> <CNNscore>
0.2389799207

> <CNNaffinity>
6.0720868111

> <CNN_VS>
1.4511067867

> <CNNaffinity_variance>
0.0514500551

$$$$
[H]c1c([H])c([H])c(C([H])([H])n2c([H])nc(-c3c([H])c([H])c(F)c([H])c3[H])c2-c2nn3c([H])c(N([H])C(=O)C(C([H])([H])[H])(C([H])([H])[H])C([H])([H])[H])nc3c([H])c2[H])c([H])c1[H]


 36 40  0  0  0  0  0  0  0  0999 V2000
  153.2344  138.7547  183.3104 C   0  0  0  0  0  0  0  0  0  0  0  0
  154.0641  139.7694  182.8840 C   0  0  0  0  0  0  0  0  0  0  0  0
  153.5296  140.2188  181.7107 N   0  0  0  0  0  0  0  0  0  0  0  0
  152.4406  139.5439  181.4077 C   0  0  0  0  0  0  0  0  0  0  0  0
  152.2650  138.6326  182.4119 N   0  0  0  0  0  0  0  0  0  0  0  0
  153.4973  137.0632  188.9722 C   0  0  0  0  0  0  0  0  0  0  0  0
  153.1205  138.1216  188.1773 C   0  0  0  0  0  0  0  0  0  0  0  0
  153.3554  137.8001  186.8691 N   0  0  0  0  0  0  0  0  0  0  0  0
  153.1603  138.4809  185.7603 N   0  0  0  0  0  0  0  0  0  0  0  0
  153.4550  138.0000  184.5411 C   0  0  0  0  0  0  0  0  0  0  0  0
  153.9838  136.7312  184.5036 C   0  0  0  0  0  0  0  0  0  0  0  0
  154.1986  135.9928  185.6638 C   0  0  0  0  0  0  0  0  0  0  0  0
  153.8684  136.5643  186.8584 C   0  0  0  0  0  0  0  0  0  0  0  0
  153.9533  136.1225  188.1206 N   0  0  0  0  0  0  0  0  0  0  0  0
  152.2665  136.4770  191.0253 C   0  0  0  0  0  0  0  0  0  0  0  0
  151.2854  136.0917  190.3026 O   0  0  0  0  0  0  0  0  0  0  0  0
  153.4208  136.9809  190.3754 N   0  0  0  0  0  0  0  0  0  0  0  0
  154.2193  137.2944  190.9518 H   0  0  0  0  0  0  0  0  0  0  0  0
  150.7592  135.7694  192.7578 C   0  0  0  0  0  0  0  0  0  0  0  0
  152.1219  136.3680  192.4782 C   0  0  0  0  0  0  0  0  0  0  0  0
  153.1631  135.4424  193.0312 C   0  0  0  0  0  0  0  0  0  0  0  0
  152.1629  137.7188  193.1583 C   0  0  0  0  0  0  0  0  0  0  0  0
  155.2742  140.3306  183.4514 C   0  0  0  0  0  0  0  0  0  0  0  0
  155.4598  141.6925  183.4540 C   0  0  0  0  0  0  0  0  0  0  0  0
  156.6032  142.2786  183.9929 C   0  0  0  0  0  0  0  0  0  0  0  0
  157.5917  141.4893  184.5455 C   0  0  0  0  0  0  0  0  0  0  0  0
  158.7083  142.0652  185.0713 F   0  0  0  0  0  0  0  0  0  0  0  0
  157.4136  140.1267  184.5467 C   0  0  0  0  0  0  0  0  0  0  0  0
  156.2673  139.5601  184.0051 C   0  0  0  0  0  0  0  0  0  0  0  0
  151.1636  137.6843  182.4552 C   0  0  0  0  0  0  0  0  0  0  0  0
  149.9864  138.1739  181.7172 C   0  0  0  0  0  0  0  0  0  0  0  0
  149.0512  139.0040  182.2786 C   0  0  0  0  0  0  0  0  0  0  0  0
  147.9530  139.4721  181.6081 C   0  0  0  0  0  0  0  0  0  0  0  0
  147.7796  139.0852  180.2931 C   0  0  0  0  0  0  0  0  0  0  0  0
  148.7079  138.2479  179.7014 C   0  0  0  0  0  0  0  0  0  0  0  0
  149.7983  137.7924  180.3918 C   0  0  0  0  0  0  0  0  0  0  0  0
 19 20  1  0  0  0
 20 21  1  0  0  0
 20 22  1  0  0  0
 20 15  1  0  0  0
 15 16  2  0  0  0
 15 17  1  0  0  0
 17  6  1  0  0  0
  6  7  2  0  0  0
  7  8  1  0  0  0
  8  9  1  0  0  0
  9 10  2  0  0  0
 10  1  1  0  0  0
  1  2  2  0  0  0
  2 23  1  0  0  0
 23 24  2  0  0  0
 24 25  1  0  0  0
 25 26  2  0  0  0
 26 27  1  0  0  0
 26 28  1  0  0  0
 28 29  2  0  0  0
  2  3  1  0  0  0
  3  4  2  0  0  0
  4  5  1  0  0  0
  5 30  1  0  0  0
 30 31  1  0  0  0
 31 32  2  0  0  0
 32 33  1  0  0  0
 33 34  2  0  0  0
 34 35  1  0  0  0
 35 36  2  0  0  0
 10 11  1  0  0  0
 11 12  2  0  0  0
 12 13  1  0  0  0
 13 14  2  0  0  0
 14  6  1  0  0  0
 13  8  1  0  0  0
  5  1  1  0  0  0
 36 31  1  0  0  0
 29 23  1  0  0  0
 17 18  1  0  0  0
M  END
> <minimizedAffinity>
-8.69145

> <CNNscore>
0.2378288656

> <CNNaffinity>
6.1724448204

> <CNN_VS>
1.4679855108

> <CNNaffinity_variance>
0.1544210613

$$$$
[H]c1c([H])c([H])c(C([H])([H])n2c([H])nc(-c3c([H])c([H])c(F)c([H])c3[H])c2-c2nn3c([H])c(N([H])C(=O)C(C([H])([H])[H])(C([H])([H])[H])C([H])([H])[H])nc3c([H])c2[H])c([H])c1[H]


 36 40  0  0  0  0  0  0  0  0999 V2000
  154.2540  140.1246  183.5405 C   0  0  0  0  0  0  0  0  0  0  0  0
  153.4437  139.7544  182.4886 C   0  0  0  0  0  0  0  0  0  0  0  0
  153.5896  140.7305  181.5451 N   0  0  0  0  0  0  0  0  0  0  0  0
  154.4290  141.6560  181.9602 C   0  0  0  0  0  0  0  0  0  0  0  0
  154.8378  141.2689  183.2062 N   0  0  0  0  0  0  0  0  0  0  0  0
  153.1737  137.2405  188.5904 C   0  0  0  0  0  0  0  0  0  0  0  0
  152.5474  137.9812  187.6140 C   0  0  0  0  0  0  0  0  0  0  0  0
  153.4724  138.3567  186.6796 N   0  0  0  0  0  0  0  0  0  0  0  0
  153.3533  139.0652  185.5773 N   0  0  0  0  0  0  0  0  0  0  0  0
  154.3876  139.3416  184.7660 C   0  0  0  0  0  0  0  0  0  0  0  0
  155.6082  138.8376  185.1497 C   0  0  0  0  0  0  0  0  0  0  0  0
  155.7574  138.0856  186.3115 C   0  0  0  0  0  0  0  0  0  0  0  0
  154.6489  137.8558  187.0738 C   0  0  0  0  0  0  0  0  0  0  0  0
  154.4692  137.1861  188.2205 N   0  0  0  0  0  0  0  0  0  0  0  0
  153.0391  136.9749  191.0368 C   0  0  0  0  0  0  0  0  0  0  0  0
  154.0032  137.8048  191.1594 O   0  0  0  0  0  0  0  0  0  0  0  0
  152.5855  136.6622  189.7310 N   0  0  0  0  0  0  0  0  0  0  0  0
  151.8059  135.9924  189.6223 H   0  0  0  0  0  0  0  0  0  0  0  0
  153.5354  135.5289  192.8907 C   0  0  0  0  0  0  0  0  0  0  0  0
  152.4737  136.4071  192.2622 C   0  0  0  0  0  0  0  0  0  0  0  0
  152.1375  137.5016  193.2294 C   0  0  0  0  0  0  0  0  0  0  0  0
  151.2756  135.5264  191.9827 C   0  0  0  0  0  0  0  0  0  0  0  0
  152.5696  138.6140  182.2974 C   0  0  0  0  0  0  0  0  0  0  0  0
  151.2637  138.8104  181.9166 C   0  0  0  0  0  0  0  0  0  0  0  0
  150.3876  137.7459  181.7151 C   0  0  0  0  0  0  0  0  0  0  0  0
  150.8208  136.4479  181.8970 C   0  0  0  0  0  0  0  0  0  0  0  0
  149.9619  135.4095  181.6994 F   0  0  0  0  0  0  0  0  0  0  0  0
  152.1252  136.2433  182.2778 C   0  0  0  0  0  0  0  0  0  0  0  0
  152.9843  137.3165  182.4741 C   0  0  0  0  0  0  0  0  0  0  0  0
  155.7776  142.0263  184.0169 C   0  0  0  0  0  0  0  0  0  0  0  0
  157.1470  141.4928  183.9151 C   0  0  0  0  0  0  0  0  0  0  0  0
  157.6444  140.9410  182.7632 C   0  0  0  0  0  0  0  0  0  0  0  0
  158.9148  140.4434  182.6481 C   0  0  0  0  0  0  0  0  0  0  0  0
  159.7393  140.5014  183.7552 C   0  0  0  0  0  0  0  0  0  0  0  0
  159.2631  141.0529  184.9308 C   0  0  0  0  0  0  0  0  0  0  0  0
  157.9890  141.5442  185.0223 C   0  0  0  0  0  0  0  0  0  0  0  0
 19 20  1  0  0  0
 20 21  1  0  0  0
 20 22  1  0  0  0
 20 15  1  0  0  0
 15 16  2  0  0  0
 15 17  1  0  0  0
 17  6  1  0  0  0
  6  7  2  0  0  0
  7  8  1  0  0  0
  8  9  1  0  0  0
  9 10  2  0  0  0
 10  1  1  0  0  0
  1  2  2  0  0  0
  2 23  1  0  0  0
 23 24  2  0  0  0
 24 25  1  0  0  0
 25 26  2  0  0  0
 26 27  1  0  0  0
 26 28  1  0  0  0
 28 29  2  0  0  0
  2  3  1  0  0  0
  3  4  2  0  0  0
  4  5  1  0  0  0
  5 30  1  0  0  0
 30 31  1  0  0  0
 31 32  2  0  0  0
 32 33  1  0  0  0
 33 34  2  0  0  0
 34 35  1  0  0  0
 35 36  2  0  0  0
 10 11  1  0  0  0
 11 12  2  0  0  0
 12 13  1  0  0  0
 13 14  2  0  0  0
 14  6  1  0  0  0
 13  8  1  0  0  0
  5  1  1  0  0  0
 36 31  1  0  0  0
 29 23  1  0  0  0
 17 18  1  0  0  0
M  END
> <minimizedAffinity>
-8.49196

> <CNNscore>
0.2247947156

> <CNNaffinity>
6.3702964783

> <CNN_VS>
1.4320089817

> <CNNaffinity_variance>
0.1643925011

$$$$
[H]c1c([H])c([H])c(C([H])([H])n2c([H])nc(-c3c([H])c([H])c(F)c([H])c3[H])c2-c2nn3c([H])c(N([H])C(=O)C(C([H])([H])[H])(C([H])([H])[H])C([H])([H])[H])nc3c([H])c2[H])c([H])c1[H]


 36 40  0  0  0  0  0  0  0  0999 V2000
  154.8013  135.9566  189.9713 C   0  0  0  0  0  0  0  0  0  0  0  0
  154.6121  136.0739  191.3316 C   0  0  0  0  0  0  0  0  0  0  0  0
  155.8535  136.2727  191.8642 N   0  0  0  0  0  0  0  0  0  0  0  0
  156.7688  136.2820  190.9179 C   0  0  0  0  0  0  0  0  0  0  0  0
  156.1022  136.0838  189.7406 N   0  0  0  0  0  0  0  0  0  0  0  0
  150.4807  136.6906  185.9989 C   0  0  0  0  0  0  0  0  0  0  0  0
  151.4013  137.3989  186.7371 C   0  0  0  0  0  0  0  0  0  0  0  0
  152.1266  136.5251  187.4988 N   0  0  0  0  0  0  0  0  0  0  0  0
  153.1057  136.7265  188.3543 N   0  0  0  0  0  0  0  0  0  0  0  0
  153.7117  135.7328  189.0249 C   0  0  0  0  0  0  0  0  0  0  0  0
  153.2504  134.4627  188.7703 C   0  0  0  0  0  0  0  0  0  0  0  0
  152.2159  134.2263  187.8694 C   0  0  0  0  0  0  0  0  0  0  0  0
  151.6605  135.2990  187.2344 C   0  0  0  0  0  0  0  0  0  0  0  0
  150.6728  135.3988  186.3343 N   0  0  0  0  0  0  0  0  0  0  0  0
  149.8783  137.4463  183.7318 C   0  0  0  0  0  0  0  0  0  0  0  0
  151.0681  137.1796  183.3490 O   0  0  0  0  0  0  0  0  0  0  0  0
  149.5403  137.2062  185.0871 N   0  0  0  0  0  0  0  0  0  0  0  0
  148.5802  137.4185  185.4055 H   0  0  0  0  0  0  0  0  0  0  0  0
  149.7352  138.9128  181.8336 C   0  0  0  0  0  0  0  0  0  0  0  0
  148.9499  137.9830  182.7350 C   0  0  0  0  0  0  0  0  0  0  0  0
  148.3973  136.8716  181.8949 C   0  0  0  0  0  0  0  0  0  0  0  0
  147.8461  138.8025  183.3666 C   0  0  0  0  0  0  0  0  0  0  0  0
  153.4172  136.0103  192.1497 C   0  0  0  0  0  0  0  0  0  0  0  0
  153.1614  134.8871  192.8994 C   0  0  0  0  0  0  0  0  0  0  0  0
  152.0295  134.7817  193.7051 C   0  0  0  0  0  0  0  0  0  0  0  0
  151.1248  135.8224  193.7685 C   0  0  0  0  0  0  0  0  0  0  0  0
  150.0193  135.7163  194.5569 F   0  0  0  0  0  0  0  0  0  0  0  0
  151.3735  136.9489  193.0219 C   0  0  0  0  0  0  0  0  0  0  0  0
  152.5069  137.0362  192.2243 C   0  0  0  0  0  0  0  0  0  0  0  0
  156.7575  136.0275  188.4438 C   0  0  0  0  0  0  0  0  0  0  0  0
  157.6741  134.8789  188.3398 C   0  0  0  0  0  0  0  0  0  0  0  0
  159.0090  135.0180  188.0614 C   0  0  0  0  0  0  0  0  0  0  0  0
  159.8771  133.9635  187.9642 C   0  0  0  0  0  0  0  0  0  0  0  0
  159.3780  132.6898  188.1576 C   0  0  0  0  0  0  0  0  0  0  0  0
  158.0346  132.5202  188.4397 C   0  0  0  0  0  0  0  0  0  0  0  0
  157.1856  133.5898  188.5319 C   0  0  0  0  0  0  0  0  0  0  0  0
 19 20  1  0  0  0
 20 21  1  0  0  0
 20 22  1  0  0  0
 20 15  1  0  0  0
 15 16  2  0  0  0
 15 17  1  0  0  0
 17  6  1  0  0  0
  6  7  2  0  0  0
  7  8  1  0  0  0
  8  9  1  0  0  0
  9 10  2  0  0  0
 10  1  1  0  0  0
  1  2  2  0  0  0
  2 23  1  0  0  0
 23 24  2  0  0  0
 24 25  1  0  0  0
 25 26  2  0  0  0
 26 27  1  0  0  0
 26 28  1  0  0  0
 28 29  2  0  0  0
  2  3  1  0  0  0
  3  4  2  0  0  0
  4  5  1  0  0  0
  5 30  1  0  0  0
 30 31  1  0  0  0
 31 32  2  0  0  0
 32 33  1  0  0  0
 33 34  2  0  0  0
 34 35  1  0  0  0
 35 36  2  0  0  0
 10 11  1  0  0  0
 11 12  2  0  0  0
 12 13  1  0  0  0
 13 14  2  0  0  0
 14  6  1  0  0  0
 13  8  1  0  0  0
  5  1  1  0  0  0
 36 31  1  0  0  0
 29 23  1  0  0  0
 17 18  1  0  0  0
M  END
> <minimizedAffinity>
-6.58719

> <CNNscore>
0.2200065553

> <CNNaffinity>
6.0506339073

> <CNN_VS>
1.3311791420

> <CNNaffinity_variance>
0.0178096853

$$$$
[H]c1nc(N([H])[H])c(OC([H])([H])C([H])([H])[H])c(N2C([H])([H])C([H])([H])N(C([H])(c3c([H])c([H])c(C(F)(F)F)c([H])c3[H])C([H])([H])N([H])[H])C([H])([H])C2([H])[H])n1


 33 35  0  0  0  0  0  0  0  0999 V2000
  158.0124  141.8079  183.3279 N   0  0  0  0  0  0  0  0  0  0  0  0
  158.3188  140.6066  184.0716 C   0  0  0  0  0  0  0  0  0  0  0  0
  157.0193  140.2703  184.7624 C   0  0  0  0  0  0  0  0  0  0  0  0
  156.1572  139.5337  183.8016 N   0  0  0  0  0  0  0  0  0  0  0  0
  156.3170  140.2395  182.5268 C   0  0  0  0  0  0  0  0  0  0  0  0
  156.6632  141.6798  182.6666 C   0  0  0  0  0  0  0  0  0  0  0  0
  159.6533  143.6153  183.8887 C   0  0  0  0  0  0  0  0  0  0  0  0
  160.2073  144.8650  183.5355 C   0  0  0  0  0  0  0  0  0  0  0  0
  161.1573  145.4974  184.3705 N   0  0  0  0  0  0  0  0  0  0  0  0
  159.8366  145.4568  182.4111 N   0  0  0  0  0  0  0  0  0  0  0  0
  158.9306  144.8409  181.6232 C   0  0  0  0  0  0  0  0  0  0  0  0
  158.4044  143.6629  181.9562 N   0  0  0  0  0  0  0  0  0  0  0  0
  158.7408  142.9823  183.1201 C   0  0  0  0  0  0  0  0  0  0  0  0
  162.0136  145.9253  183.9269 H   0  0  0  0  0  0  0  0  0  0  0  0
  161.0457  145.5687  185.4184 H   0  0  0  0  0  0  0  0  0  0  0  0
  160.1290  143.1015  185.0851 O   0  0  0  0  0  0  0  0  0  0  0  0
  162.0999  142.7156  186.3864 C   0  0  0  0  0  0  0  0  0  0  0  0
  161.3357  142.3541  185.1325 C   0  0  0  0  0  0  0  0  0  0  0  0
  154.7797  139.6812  184.2283 C   0  0  0  0  0  0  0  0  0  0  0  0
  153.8276  139.5102  183.1181 C   0  0  0  0  0  0  0  0  0  0  0  0
  153.4273  140.6238  182.4041 C   0  0  0  0  0  0  0  0  0  0  0  0
  152.4505  140.5422  181.4217 C   0  0  0  0  0  0  0  0  0  0  0  0
  151.8507  139.3347  181.1407 C   0  0  0  0  0  0  0  0  0  0  0  0
  152.2265  138.2054  181.8271 C   0  0  0  0  0  0  0  0  0  0  0  0
  153.2160  138.3314  182.8063 C   0  0  0  0  0  0  0  0  0  0  0  0
  150.7649  139.2601  180.1328 C   0  0  0  0  0  0  0  0  0  0  0  0
  149.6697  139.9732  180.6718 F   0  0  0  0  0  0  0  0  0  0  0  0
  150.3227  137.9813  179.8985 F   0  0  0  0  0  0  0  0  0  0  0  0
  151.0951  139.9265  178.9767 F   0  0  0  0  0  0  0  0  0  0  0  0
  154.4892  138.4988  185.1795 C   0  0  0  0  0  0  0  0  0  0  0  0
  153.5990  138.8246  186.2361 N   0  0  0  0  0  0  0  0  0  0  0  0
  154.0930  139.0584  187.1048 H   0  0  0  0  0  0  0  0  0  0  0  0
  152.7969  138.1920  186.3274 H   0  0  0  0  0  0  0  0  0  0  0  0
 17 18  1  0  0  0
 18 16  1  0  0  0
 16  7  1  0  0  0
  7  8  2  0  0  0
  8  9  1  0  0  0
  8 10  1  0  0  0
 10 11  2  0  0  0
 11 12  1  0  0  0
 12 13  2  0  0  0
 13  1  1  0  0  0
  1  2  1  0  0  0
  2  3  1  0  0  0
  3  4  1  0  0  0
  4 19  1  0  0  0
 19 30  1  0  0  0
 30 31  1  0  0  0
 19 20  1  0  0  0
 20 21  2  0  0  0
 21 22  1  0  0  0
 22 23  2  0  0  0
 23 26  1  0  0  0
 26 27  1  0  0  0
 26 28  1  0  0  0
 26 29  1  0  0  0
 23 24  1  0  0  0
 24 25  2  0  0  0
  4  5  1  0  0  0
  5  6  1  0  0  0
 13  7  1  0  0  0
  6  1  1  0  0  0
 25 20  1  0  0  0
  9 14  1  0  0  0
  9 15  1  0  0  0
 31 32  1  0  0  0
 31 33  1  0  0  0
M  END
> <minimizedAffinity>
-7.66725

> <CNNscore>
0.2695339322

> <CNNaffinity>
6.3652276993

> <CNN_VS>
1.7156448364

> <CNNaffinity_variance>
0.0046886625

$$$$
[H]c1nc(N([H])[H])c(OC([H])([H])C([H])([H])[H])c(N2C([H])([H])C([H])([H])N(C([H])(c3c([H])c([H])c(C(F)(F)F)c([H])c3[H])C([H])([H])N([H])[H])C([H])([H])C2([H])[H])n1


 33 35  0  0  0  0  0  0  0  0999 V2000
  152.9192  137.2062  183.8236 N   0  0  0  0  0  0  0  0  0  0  0  0
  153.8433  136.1358  184.1245 C   0  0  0  0  0  0  0  0  0  0  0  0
  153.7418  135.9840  185.6230 C   0  0  0  0  0  0  0  0  0  0  0  0
  152.5595  135.1365  185.9272 N   0  0  0  0  0  0  0  0  0  0  0  0
  151.5092  135.6067  185.0191 C   0  0  0  0  0  0  0  0  0  0  0  0
  151.6467  137.0316  184.6138 C   0  0  0  0  0  0  0  0  0  0  0  0
  153.5766  139.5096  183.0915 C   0  0  0  0  0  0  0  0  0  0  0  0
  153.4683  140.5173  182.1087 C   0  0  0  0  0  0  0  0  0  0  0  0
  154.0732  141.7814  182.2986 N   0  0  0  0  0  0  0  0  0  0  0  0
  152.7935  140.2824  180.9946 N   0  0  0  0  0  0  0  0  0  0  0  0
  152.2230  139.0711  180.8261 C   0  0  0  0  0  0  0  0  0  0  0  0
  152.3216  138.1198  181.7537 N   0  0  0  0  0  0  0  0  0  0  0  0
  153.0096  138.2922  182.9487 C   0  0  0  0  0  0  0  0  0  0  0  0
  154.6049  142.2122  181.4955 H   0  0  0  0  0  0  0  0  0  0  0  0
  154.0108  142.3191  183.2056 H   0  0  0  0  0  0  0  0  0  0  0  0
  154.3132  139.8805  184.2057 O   0  0  0  0  0  0  0  0  0  0  0  0
  155.8659  138.8175  185.6843 C   0  0  0  0  0  0  0  0  0  0  0  0
  155.6729  139.4948  184.3460 C   0  0  0  0  0  0  0  0  0  0  0  0
  152.1402  135.4197  187.2856 C   0  0  0  0  0  0  0  0  0  0  0  0
  153.1540  136.1766  188.0389 C   0  0  0  0  0  0  0  0  0  0  0  0
  154.0905  135.4824  188.7814 C   0  0  0  0  0  0  0  0  0  0  0  0
  154.9995  136.1398  189.5983 C   0  0  0  0  0  0  0  0  0  0  0  0
  154.9809  137.5139  189.6891 C   0  0  0  0  0  0  0  0  0  0  0  0
  154.0669  138.2375  188.9619 C   0  0  0  0  0  0  0  0  0  0  0  0
  153.1714  137.5361  188.1494 C   0  0  0  0  0  0  0  0  0  0  0  0
  155.9131  138.2115  190.6081 C   0  0  0  0  0  0  0  0  0  0  0  0
  156.2361  137.2867  191.6274 F   0  0  0  0  0  0  0  0  0  0  0  0
  155.3552  139.3012  191.2302 F   0  0  0  0  0  0  0  0  0  0  0  0
  157.1084  138.5054  189.9961 F   0  0  0  0  0  0  0  0  0  0  0  0
  150.9341  136.3794  187.1782 C   0  0  0  0  0  0  0  0  0  0  0  0
  149.8351  136.0051  187.9949 N   0  0  0  0  0  0  0  0  0  0  0  0
  149.1245  135.4773  187.4756 H   0  0  0  0  0  0  0  0  0  0  0  0
  149.4877  136.7497  188.6087 H   0  0  0  0  0  0  0  0  0  0  0  0
 17 18  1  0  0  0
 18 16  1  0  0  0
 16  7  1  0  0  0
  7  8  2  0  0  0
  8  9  1  0  0  0
  8 10  1  0  0  0
 10 11  2  0  0  0
 11 12  1  0  0  0
 12 13  2  0  0  0
 13  1  1  0  0  0
  1  2  1  0  0  0
  2  3  1  0  0  0
  3  4  1  0  0  0
  4 19  1  0  0  0
 19 30  1  0  0  0
 30 31  1  0  0  0
 19 20  1  0  0  0
 20 21  2  0  0  0
 21 22  1  0  0  0
 22 23  2  0  0  0
 23 26  1  0  0  0
 26 27  1  0  0  0
 26 28  1  0  0  0
 26 29  1  0  0  0
 23 24  1  0  0  0
 24 25  2  0  0  0
  4  5  1  0  0  0
  5  6  1  0  0  0
 13  7  1  0  0  0
  6  1  1  0  0  0
 25 20  1  0  0  0
  9 14  1  0  0  0
  9 15  1  0  0  0
 31 32  1  0  0  0
 31 33  1  0  0  0
M  END
> <minimizedAffinity>
-6.23101

> <CNNscore>
0.2668643892

> <CNNaffinity>
5.1991720200

> <CNN_VS>
1.3874738216

> <CNNaffinity_variance>
0.2054149210

$$$$
[H]c1nc(N([H])[H])c(OC([H])([H])C([H])([H])[H])c(N2C([H])([H])C([H])([H])N(C([H])(c3c([H])c([H])c(C(F)(F)F)c([H])c3[H])C([H])([H])N([H])[H])C([H])([H])C2([H])[H])n1


 33 35  0  0  0  0  0  0  0  0999 V2000
  153.0231  137.2168  188.5796 N   0  0  0  0  0  0  0  0  0  0  0  0
  153.4039  138.4185  187.8716 C   0  0  0  0  0  0  0  0  0  0  0  0
  153.6450  137.9425  186.4594 C   0  0  0  0  0  0  0  0  0  0  0  0
  152.3347  137.8686  185.7618 N   0  0  0  0  0  0  0  0  0  0  0  0
  151.4138  137.2833  186.7406 C   0  0  0  0  0  0  0  0  0  0  0  0
  152.0697  136.4010  187.7432 C   0  0  0  0  0  0  0  0  0  0  0  0
  154.5085  136.2155  190.3300 C   0  0  0  0  0  0  0  0  0  0  0  0
  154.6149  135.6929  191.6373 C   0  0  0  0  0  0  0  0  0  0  0  0
  155.8340  135.1470  192.1015 N   0  0  0  0  0  0  0  0  0  0  0  0
  153.5644  135.7109  192.4424 N   0  0  0  0  0  0  0  0  0  0  0  0
  152.4081  136.2366  191.9867 C   0  0  0  0  0  0  0  0  0  0  0  0
  152.3049  136.7275  190.7523 N   0  0  0  0  0  0  0  0  0  0  0  0
  153.3611  136.7409  189.8493 C   0  0  0  0  0  0  0  0  0  0  0  0
  156.1662  135.4044  193.0692 H   0  0  0  0  0  0  0  0  0  0  0  0
  156.4245  134.4860  191.5271 H   0  0  0  0  0  0  0  0  0  0  0  0
  155.6800  136.1420  189.5927 O   0  0  0  0  0  0  0  0  0  0  0  0
  156.4409  138.2237  190.4952 C   0  0  0  0  0  0  0  0  0  0  0  0
  156.4291  137.3101  189.2901 C   0  0  0  0  0  0  0  0  0  0  0  0
  152.4653  136.9409  184.6557 C   0  0  0  0  0  0  0  0  0  0  0  0
  152.1097  137.5540  183.3650 C   0  0  0  0  0  0  0  0  0  0  0  0
  152.8552  138.6234  182.9057 C   0  0  0  0  0  0  0  0  0  0  0  0
  152.5015  139.3119  181.7538 C   0  0  0  0  0  0  0  0  0  0  0  0
  151.3832  138.9400  181.0411 C   0  0  0  0  0  0  0  0  0  0  0  0
  150.6205  137.8788  181.4651 C   0  0  0  0  0  0  0  0  0  0  0  0
  151.0139  137.2112  182.6286 C   0  0  0  0  0  0  0  0  0  0  0  0
  150.9725  139.7139  179.8441 C   0  0  0  0  0  0  0  0  0  0  0  0
  152.1575  140.0037  179.1298 F   0  0  0  0  0  0  0  0  0  0  0  0
  150.3916  140.9211  180.1457 F   0  0  0  0  0  0  0  0  0  0  0  0
  150.2095  138.9588  178.9854 F   0  0  0  0  0  0  0  0  0  0  0  0
  153.9712  136.6171  184.5341 C   0  0  0  0  0  0  0  0  0  0  0  0
  154.2348  135.3453  183.9615 N   0  0  0  0  0  0  0  0  0  0  0  0
  154.4072  134.6252  184.6721 H   0  0  0  0  0  0  0  0  0  0  0  0
  154.8835  135.3622  183.1672 H   0  0  0  0  0  0  0  0  0  0  0  0
 17 18  1  0  0  0
 18 16  1  0  0  0
 16  7  1  0  0  0
  7  8  2  0  0  0
  8  9  1  0  0  0
  8 10  1  0  0  0
 10 11  2  0  0  0
 11 12  1  0  0  0
 12 13  2  0  0  0
 13  1  1  0  0  0
  1  2  1  0  0  0
  2  3  1  0  0  0
  3  4  1  0  0  0
  4 19  1  0  0  0
 19 30  1  0  0  0
 30 31  1  0  0  0
 19 20  1  0  0  0
 20 21  2  0  0  0
 21 22  1  0  0  0
 22 23  2  0  0  0
 23 26  1  0  0  0
 26 27  1  0  0  0
 26 28  1  0  0  0
 26 29  1  0  0  0
 23 24  1  0  0  0
 24 25  2  0  0  0
  4  5  1  0  0  0
  5  6  1  0  0  0
 13  7  1  0  0  0
  6  1  1  0  0  0
 25 20  1  0  0  0
  9 14  1  0  0  0
  9 15  1  0  0  0
 31 32  1  0  0  0
 31 33  1  0  0  0
M  END
> <minimizedAffinity>
-5.75263

> <CNNscore>
0.2623397410

> <CNNaffinity>
4.9809751511

> <CNN_VS>
1.3067077398

> <CNNaffinity_variance>
0.1287789047

$$$$
[H]c1nc(N([H])[H])c(OC([H])([H])C([H])([H])[H])c(N2C([H])([H])C([H])([H])N(C([H])(c3c([H])c([H])c(C(F)(F)F)c([H])c3[H])C([H])([H])N([H])[H])C([H])([H])C2([H])[H])n1


 33 35  0  0  0  0  0  0  0  0999 V2000
  157.5522  142.7911  182.6301 N   0  0  0  0  0  0  0  0  0  0  0  0
  157.3217  142.0180  181.4303 C   0  0  0  0  0  0  0  0  0  0  0  0
  156.3915  140.9190  181.8840 C   0  0  0  0  0  0  0  0  0  0  0  0
  155.0044  141.4526  181.8849 N   0  0  0  0  0  0  0  0  0  0  0  0
  155.1141  142.7999  182.4518 C   0  0  0  0  0  0  0  0  0  0  0  0
  156.2598  142.9774  183.3844 C   0  0  0  0  0  0  0  0  0  0  0  0
  159.5997  142.9370  184.0654 C   0  0  0  0  0  0  0  0  0  0  0  0
  160.6644  143.7370  184.5342 C   0  0  0  0  0  0  0  0  0  0  0  0
  161.5722  143.2409  185.4983 N   0  0  0  0  0  0  0  0  0  0  0  0
  160.8195  144.9667  184.0699 N   0  0  0  0  0  0  0  0  0  0  0  0
  159.9469  145.4262  183.1490 C   0  0  0  0  0  0  0  0  0  0  0  0
  158.9396  144.6739  182.7075 N   0  0  0  0  0  0  0  0  0  0  0  0
  158.7101  143.3764  183.1492 C   0  0  0  0  0  0  0  0  0  0  0  0
  162.6037  143.4099  185.3542 H   0  0  0  0  0  0  0  0  0  0  0  0
  161.2652  142.7153  186.3614 H   0  0  0  0  0  0  0  0  0  0  0  0
  159.5527  141.6700  184.6257 O   0  0  0  0  0  0  0  0  0  0  0  0
  158.8828  139.4373  184.0840 C   0  0  0  0  0  0  0  0  0  0  0  0
  159.9147  140.5221  183.8716 C   0  0  0  0  0  0  0  0  0  0  0  0
  154.2123  140.6457  182.7919 C   0  0  0  0  0  0  0  0  0  0  0  0
  153.1420  139.9097  182.0983 C   0  0  0  0  0  0  0  0  0  0  0  0
  152.6072  140.4426  180.9406 C   0  0  0  0  0  0  0  0  0  0  0  0
  151.5236  139.8530  180.3047 C   0  0  0  0  0  0  0  0  0  0  0  0
  150.9509  138.7142  180.8259 C   0  0  0  0  0  0  0  0  0  0  0  0
  151.4589  138.1536  181.9728 C   0  0  0  0  0  0  0  0  0  0  0  0
  152.5526  138.7777  182.5797 C   0  0  0  0  0  0  0  0  0  0  0  0
  149.7559  138.1193  180.1789 C   0  0  0  0  0  0  0  0  0  0  0  0
  148.6317  138.6464  180.8548 F   0  0  0  0  0  0  0  0  0  0  0  0
  149.6863  136.7540  180.3082 F   0  0  0  0  0  0  0  0  0  0  0  0
  149.6209  138.5355  178.8758 F   0  0  0  0  0  0  0  0  0  0  0  0
  155.1546  139.5480  183.3347 C   0  0  0  0  0  0  0  0  0  0  0  0
  155.1784  139.4688  184.7517 N   0  0  0  0  0  0  0  0  0  0  0  0
  155.9704  139.9796  185.1582 H   0  0  0  0  0  0  0  0  0  0  0  0
  155.0024  138.5314  185.1287 H   0  0  0  0  0  0  0  0  0  0  0  0
 17 18  1  0  0  0
 18 16  1  0  0  0
 16  7  1  0  0  0
  7  8  2  0  0  0
  8  9  1  0  0  0
  8 10  1  0  0  0
 10 11  2  0  0  0
 11 12  1  0  0  0
 12 13  2  0  0  0
 13  1  1  0  0  0
  1  2  1  0  0  0
  2  3  1  0  0  0
  3  4  1  0  0  0
  4 19  1  0  0  0
 19 30  1  0  0  0
 30 31  1  0  0  0
 19 20  1  0  0  0
 20 21  2  0  0  0
 21 22  1  0  0  0
 22 23  2  0  0  0
 23 26  1  0  0  0
 26 27  1  0  0  0
 26 28  1  0  0  0
 26 29  1  0  0  0
 23 24  1  0  0  0
 24 25  2  0  0  0
  4  5  1  0  0  0
  5  6  1  0  0  0
 13  7  1  0  0  0
  6  1  1  0  0  0
 25 20  1  0  0  0
  9 14  1  0  0  0
  9 15  1  0  0  0
 31 32  1  0  0  0
 31 33  1  0  0  0
M  END
> <minimizedAffinity>
-7.74018

> <CNNscore>
0.2370217741

> <CNNaffinity>
6.2482271194

> <CNN_VS>
1.4809658527

> <CNNaffinity_variance>
0.0545401089

$$$$
[H]c1nc(N([H])[H])c(OC([H])([H])C([H])([H])[H])c(N2C([H])([H])C([H])([H])N(C([H])(c3c([H])c([H])c(C(F)(F)F)c([H])c3[H])C([H])([H])N([H])[H])C([H])([H])C2([H])[H])n1


 33 35  0  0  0  0  0  0  0  0999 V2000
  153.6890  137.1866  188.6878 N   0  0  0  0  0  0  0  0  0  0  0  0
  153.9458  138.4405  188.0153 C   0  0  0  0  0  0  0  0  0  0  0  0
  154.0148  138.0583  186.5565 C   0  0  0  0  0  0  0  0  0  0  0  0
  152.6279  137.9838  186.0276 N   0  0  0  0  0  0  0  0  0  0  0  0
  151.8553  137.3110  187.0759 C   0  0  0  0  0  0  0  0  0  0  0  0
  152.6563  136.3919  187.9288 C   0  0  0  0  0  0  0  0  0  0  0  0
  155.4049  136.1122  190.1626 C   0  0  0  0  0  0  0  0  0  0  0  0
  155.6909  135.5201  191.4119 C   0  0  0  0  0  0  0  0  0  0  0  0
  156.9655  134.9673  191.6758 N   0  0  0  0  0  0  0  0  0  0  0  0
  154.7591  135.4784  192.3510 N   0  0  0  0  0  0  0  0  0  0  0  0
  153.5481  136.0114  192.0858 C   0  0  0  0  0  0  0  0  0  0  0  0
  153.2752  136.5680  190.9064 N   0  0  0  0  0  0  0  0  0  0  0  0
  154.1992  136.6465  189.8714 C   0  0  0  0  0  0  0  0  0  0  0  0
  157.4240  135.1759  192.6030 H   0  0  0  0  0  0  0  0  0  0  0  0
  157.4774  134.3476  190.9906 H   0  0  0  0  0  0  0  0  0  0  0  0
  156.4662  136.0965  189.2710 O   0  0  0  0  0  0  0  0  0  0  0  0
  157.9532  135.0467  187.7174 C   0  0  0  0  0  0  0  0  0  0  0  0
  156.5327  135.1337  188.2290 C   0  0  0  0  0  0  0  0  0  0  0  0
  152.6379  137.1290  184.8569 C   0  0  0  0  0  0  0  0  0  0  0  0
  152.2332  137.8459  183.6359 C   0  0  0  0  0  0  0  0  0  0  0  0
  151.0476  137.4955  183.0179 C   0  0  0  0  0  0  0  0  0  0  0  0
  150.6684  138.0568  181.8067 C   0  0  0  0  0  0  0  0  0  0  0  0
  151.4802  138.9814  181.1880 C   0  0  0  0  0  0  0  0  0  0  0  0
  152.6641  139.3573  181.7752 C   0  0  0  0  0  0  0  0  0  0  0  0
  153.0066  138.7697  182.9964 C   0  0  0  0  0  0  0  0  0  0  0  0
  151.1027  139.5356  179.8648 C   0  0  0  0  0  0  0  0  0  0  0  0
  150.4576  140.7679  180.1171 F   0  0  0  0  0  0  0  0  0  0  0  0
  150.2031  138.7551  179.1811 F   0  0  0  0  0  0  0  0  0  0  0  0
  152.2073  139.8545  179.1112 F   0  0  0  0  0  0  0  0  0  0  0  0
  154.1136  136.7416  184.6129 C   0  0  0  0  0  0  0  0  0  0  0  0
  154.2752  135.4596  184.0252 N   0  0  0  0  0  0  0  0  0  0  0  0
  154.4749  134.7330  184.7220 H   0  0  0  0  0  0  0  0  0  0  0  0
  154.8562  135.4488  183.1801 H   0  0  0  0  0  0  0  0  0  0  0  0
 17 18  1  0  0  0
 18 16  1  0  0  0
 16  7  1  0  0  0
  7  8  2  0  0  0
  8  9  1  0  0  0
  8 10  1  0  0  0
 10 11  2  0  0  0
 11 12  1  0  0  0
 12 13  2  0  0  0
 13  1  1  0  0  0
  1  2  1  0  0  0
  2  3  1  0  0  0
  3  4  1  0  0  0
  4 19  1  0  0  0
 19 30  1  0  0  0
 30 31  1  0  0  0
 19 20  1  0  0  0
 20 21  2  0  0  0
 21 22  1  0  0  0
 22 23  2  0  0  0
 23 26  1  0  0  0
 26 27  1  0  0  0
 26 28  1  0  0  0
 26 29  1  0  0  0
 23 24  1  0  0  0
 24 25  2  0  0  0
  4  5  1  0  0  0
  5  6  1  0  0  0
 13  7  1  0  0  0
  6  1  1  0  0  0
 25 20  1  0  0  0
  9 14  1  0  0  0
  9 15  1  0  0  0
 31 32  1  0  0  0
 31 33  1  0  0  0
M  END
> <minimizedAffinity>
-5.66257

> <CNNscore>
0.2354216576

> <CNNaffinity>
4.8979578018

> <CNN_VS>
1.1530853510

> <CNNaffinity_variance>
0.0987120271

$$$$
[H]c1nc(N([H])[H])c(OC([H])([H])C([H])([H])[H])c(N2C([H])([H])C([H])([H])N(C([H])(c3c([H])c([H])c(C(F)(F)F)c([H])c3[H])C([H])([H])N([H])[H])C([H])([H])C2([H])[H])n1


 33 35  0  0  0  0  0  0  0  0999 V2000
  151.0529  136.7991  182.6723 N   0  0  0  0  0  0  0  0  0  0  0  0
  150.6223  137.3394  183.9423 C   0  0  0  0  0  0  0  0  0  0  0  0
  151.6943  136.8907  184.9058 C   0  0  0  0  0  0  0  0  0  0  0  0
  152.8326  137.8417  184.8133 N   0  0  0  0  0  0  0  0  0  0  0  0
  152.9942  138.1052  183.3804 C   0  0  0  0  0  0  0  0  0  0  0  0
  152.5383  136.9948  182.5012 C   0  0  0  0  0  0  0  0  0  0  0  0
  149.4786  136.6885  180.7274 C   0  0  0  0  0  0  0  0  0  0  0  0
  148.7803  135.8711  179.8122 C   0  0  0  0  0  0  0  0  0  0  0  0
  147.8790  136.4350  178.8797 N   0  0  0  0  0  0  0  0  0  0  0  0
  148.9669  134.5607  179.8227 N   0  0  0  0  0  0  0  0  0  0  0  0
  149.8312  134.0367  180.7167 C   0  0  0  0  0  0  0  0  0  0  0  0
  150.4889  134.8062  181.5832 N   0  0  0  0  0  0  0  0  0  0  0  0
  150.3436  136.1872  181.6353 C   0  0  0  0  0  0  0  0  0  0  0  0
  147.9121  136.0999  177.8798 H   0  0  0  0  0  0  0  0  0  0  0  0
  147.1676  137.1711  179.1395 H   0  0  0  0  0  0  0  0  0  0  0  0
  149.1985  138.0409  180.6083 O   0  0  0  0  0  0  0  0  0  0  0  0
  150.8549  139.7675  180.5655 C   0  0  0  0  0  0  0  0  0  0  0  0
  149.9570  138.8721  179.7417 C   0  0  0  0  0  0  0  0  0  0  0  0
  154.0246  137.1642  185.2838 C   0  0  0  0  0  0  0  0  0  0  0  0
  154.3996  137.5721  186.6481 C   0  0  0  0  0  0  0  0  0  0  0  0
  155.6262  137.1789  187.1492 C   0  0  0  0  0  0  0  0  0  0  0  0
  155.9886  137.4374  188.4637 C   0  0  0  0  0  0  0  0  0  0  0  0
  155.1185  138.0946  189.3050 C   0  0  0  0  0  0  0  0  0  0  0  0
  153.8923  138.5046  188.8403 C   0  0  0  0  0  0  0  0  0  0  0  0
  153.5684  138.2266  187.5092 C   0  0  0  0  0  0  0  0  0  0  0  0
  155.4827  138.3172  190.7256 C   0  0  0  0  0  0  0  0  0  0  0  0
  156.8918  138.4242  190.7648 F   0  0  0  0  0  0  0  0  0  0  0  0
  155.1463  137.2697  191.5474 F   0  0  0  0  0  0  0  0  0  0  0  0
  155.0164  139.5246  191.1888 F   0  0  0  0  0  0  0  0  0  0  0  0
  153.6551  135.6692  185.4093 C   0  0  0  0  0  0  0  0  0  0  0  0
  154.5220  134.8068  184.6884 N   0  0  0  0  0  0  0  0  0  0  0  0
  154.1433  134.5515  183.7694 H   0  0  0  0  0  0  0  0  0  0  0  0
  154.9190  134.0411  185.2434 H   0  0  0  0  0  0  0  0  0  0  0  0
 17 18  1  0  0  0
 18 16  1  0  0  0
 16  7  1  0  0  0
  7  8  2  0  0  0
  8  9  1  0  0  0
  8 10  1  0  0  0
 10 11  2  0  0  0
 11 12  1  0  0  0
 12 13  2  0  0  0
 13  1  1  0  0  0
  1  2  1  0  0  0
  2  3  1  0  0  0
  3  4  1  0  0  0
  4 19  1  0  0  0
 19 30  1  0  0  0
 30 31  1  0  0  0
 19 20  1  0  0  0
 20 21  2  0  0  0
 21 22  1  0  0  0
 22 23  2  0  0  0
 23 26  1  0  0  0
 26 27  1  0  0  0
 26 28  1  0  0  0
 26 29  1  0  0  0
 23 24  1  0  0  0
 24 25  2  0  0  0
  4  5  1  0  0  0
  5  6  1  0  0  0
 13  7  1  0  0  0
  6  1  1  0  0  0
 25 20  1  0  0  0
  9 14  1  0  0  0
  9 15  1  0  0  0
 31 32  1  0  0  0
 31 33  1  0  0  0
M  END
> <minimizedAffinity>
-5.82601

> <CNNscore>
0.2336316407

> <CNNaffinity>
5.0308418274

> <CNN_VS>
1.1753637791

> <CNNaffinity_variance>
0.0453118011

$$$$
[H]c1nc(N([H])[H])c(OC([H])([H])C([H])([H])[H])c(N2C([H])([H])C([H])([H])N(C([H])(c3c([H])c([H])c(C(F)(F)F)c([H])c3[H])C([H])([H])N([H])[H])C([H])([H])C2([H])[H])n1


 33 35  0  0  0  0  0  0  0  0999 V2000
  153.0556  137.0785  188.5866 N   0  0  0  0  0  0  0  0  0  0  0  0
  153.2453  138.3179  187.8669 C   0  0  0  0  0  0  0  0  0  0  0  0
  153.4986  137.8736  186.4465 C   0  0  0  0  0  0  0  0  0  0  0  0
  152.1865  137.6209  185.7957 N   0  0  0  0  0  0  0  0  0  0  0  0
  151.3882  136.9202  186.8058 C   0  0  0  0  0  0  0  0  0  0  0  0
  152.1923  136.1383  187.7836 C   0  0  0  0  0  0  0  0  0  0  0  0
  152.8345  136.4385  190.9980 C   0  0  0  0  0  0  0  0  0  0  0  0
  153.4934  136.1079  192.2021 C   0  0  0  0  0  0  0  0  0  0  0  0
  152.7607  135.8911  193.3920 N   0  0  0  0  0  0  0  0  0  0  0  0
  154.8123  135.9987  192.2239 N   0  0  0  0  0  0  0  0  0  0  0  0
  155.4984  136.2066  191.0806 C   0  0  0  0  0  0  0  0  0  0  0  0
  154.8786  136.5216  189.9439 N   0  0  0  0  0  0  0  0  0  0  0  0
  153.4993  136.6572  189.8430 C   0  0  0  0  0  0  0  0  0  0  0  0
  153.0118  135.0628  193.9955 H   0  0  0  0  0  0  0  0  0  0  0  0
  151.9780  136.5251  193.7098 H   0  0  0  0  0  0  0  0  0  0  0  0
  151.4549  136.5156  191.1089 O   0  0  0  0  0  0  0  0  0  0  0  0
  149.3743  135.7372  190.2188 C   0  0  0  0  0  0  0  0  0  0  0  0
  150.6423  135.3613  190.9522 C   0  0  0  0  0  0  0  0  0  0  0  0
  152.4022  136.7153  184.6846 C   0  0  0  0  0  0  0  0  0  0  0  0
  152.0351  137.3169  183.3917 C   0  0  0  0  0  0  0  0  0  0  0  0
  152.8679  138.2715  182.8389 C   0  0  0  0  0  0  0  0  0  0  0  0
  152.5207  138.9529  181.6808 C   0  0  0  0  0  0  0  0  0  0  0  0
  151.3216  138.6904  181.0564 C   0  0  0  0  0  0  0  0  0  0  0  0
  150.4704  137.7446  181.5747 C   0  0  0  0  0  0  0  0  0  0  0  0
  150.8600  137.0795  182.7409 C   0  0  0  0  0  0  0  0  0  0  0  0
  150.9250  139.4617  179.8530 C   0  0  0  0  0  0  0  0  0  0  0  0
  150.2124  140.5903  180.3187 F   0  0  0  0  0  0  0  0  0  0  0  0
  150.0742  138.7773  179.0203 F   0  0  0  0  0  0  0  0  0  0  0  0
  152.0165  139.9722  179.1915 F   0  0  0  0  0  0  0  0  0  0  0  0
  153.9285  136.4925  184.5940 C   0  0  0  0  0  0  0  0  0  0  0  0
  154.2878  135.2019  184.1250 N   0  0  0  0  0  0  0  0  0  0  0  0
  154.5050  134.5544  184.8911 H   0  0  0  0  0  0  0  0  0  0  0  0
  154.9406  135.2029  183.3339 H   0  0  0  0  0  0  0  0  0  0  0  0
 17 18  1  0  0  0
 18 16  1  0  0  0
 16  7  1  0  0  0
  7  8  2  0  0  0
  8  9  1  0  0  0
  8 10  1  0  0  0
 10 11  2  0  0  0
 11 12  1  0  0  0
 12 13  2  0  0  0
 13  1  1  0  0  0
  1  2  1  0  0  0
  2  3  1  0  0  0
  3  4  1  0  0  0
  4 19  1  0  0  0
 19 30  1  0  0  0
 30 31  1  0  0  0
 19 20  1  0  0  0
 20 21  2  0  0  0
 21 22  1  0  0  0
 22 23  2  0  0  0
 23 26  1  0  0  0
 26 27  1  0  0  0
 26 28  1  0  0  0
 26 29  1  0  0  0
 23 24  1  0  0  0
 24 25  2  0  0  0
  4  5  1  0  0  0
  5  6  1  0  0  0
 13  7  1  0  0  0
  6  1  1  0  0  0
 25 20  1  0  0  0
  9 14  1  0  0  0
  9 15  1  0  0  0
 31 32  1  0  0  0
 31 33  1  0  0  0
M  END
> <minimizedAffinity>
-5.52770

> <CNNscore>
0.2231476903

> <CNNaffinity>
4.8081974983

> <CNN_VS>
1.0729382038

> <CNNaffinity_variance>
0.1264059097

$$$$
[H]c1nc(N([H])[H])c(OC([H])([H])C([H])([H])[H])c(N2C([H])([H])C([H])([H])N(C([H])(c3c([H])c([H])c(C(F)(F)F)c([H])c3[H])C([H])([H])N([H])[H])C([H])([H])C2([H])[H])n1


 33 35  0  0  0  0  0  0  0  0999 V2000
  154.7380  136.8247  187.7604 N   0  0  0  0  0  0  0  0  0  0  0  0
  154.9209  138.0797  187.0661 C   0  0  0  0  0  0  0  0  0  0  0  0
  154.5610  137.7552  185.6364 C   0  0  0  0  0  0  0  0  0  0  0  0
  153.0824  137.8211  185.5010 N   0  0  0  0  0  0  0  0  0  0  0  0
  152.5596  137.1723  186.7070 C   0  0  0  0  0  0  0  0  0  0  0  0
  153.4706  136.1533  187.2948 C   0  0  0  0  0  0  0  0  0  0  0  0
  155.5576  136.3892  190.0867 C   0  0  0  0  0  0  0  0  0  0  0  0
  156.4759  135.7034  190.9113 C   0  0  0  0  0  0  0  0  0  0  0  0
  156.5139  135.9402  192.3049 N   0  0  0  0  0  0  0  0  0  0  0  0
  157.3138  134.8278  190.3794 N   0  0  0  0  0  0  0  0  0  0  0  0
  157.2650  134.6105  189.0485 C   0  0  0  0  0  0  0  0  0  0  0  0
  156.4012  135.2589  188.2682 N   0  0  0  0  0  0  0  0  0  0  0  0
  155.4939  136.1936  188.7520 C   0  0  0  0  0  0  0  0  0  0  0  0
  156.5810  135.1126  192.9559 H   0  0  0  0  0  0  0  0  0  0  0  0
  156.4865  136.9088  192.7253 H   0  0  0  0  0  0  0  0  0  0  0  0
  154.7339  137.2723  190.7671 O   0  0  0  0  0  0  0  0  0  0  0  0
  152.9740  137.0375  192.3718 C   0  0  0  0  0  0  0  0  0  0  0  0
  153.3434  137.0178  190.9055 C   0  0  0  0  0  0  0  0  0  0  0  0
  152.6991  137.0189  184.3560 C   0  0  0  0  0  0  0  0  0  0  0  0
  152.1933  137.8381  183.2418 C   0  0  0  0  0  0  0  0  0  0  0  0
  150.9649  137.5285  182.6894 C   0  0  0  0  0  0  0  0  0  0  0  0
  150.4864  138.1922  181.5684 C   0  0  0  0  0  0  0  0  0  0  0  0
  151.2398  139.1808  180.9754 C   0  0  0  0  0  0  0  0  0  0  0  0
  152.4640  139.5187  181.4998 C   0  0  0  0  0  0  0  0  0  0  0  0
  152.9068  138.8273  182.6311 C   0  0  0  0  0  0  0  0  0  0  0  0
  150.7542  139.8477  179.7426 C   0  0  0  0  0  0  0  0  0  0  0  0
  150.2849  141.1219  180.1360 F   0  0  0  0  0  0  0  0  0  0  0  0
  149.6936  139.2042  179.1538 F   0  0  0  0  0  0  0  0  0  0  0  0
  151.7784  140.0973  178.8602 F   0  0  0  0  0  0  0  0  0  0  0  0
  153.9989  136.3817  183.8156 C   0  0  0  0  0  0  0  0  0  0  0  0
  153.7761  135.2488  182.9901 N   0  0  0  0  0  0  0  0  0  0  0  0
  153.8699  134.3659  183.5049 H   0  0  0  0  0  0  0  0  0  0  0  0
  154.2380  135.2910  182.0753 H   0  0  0  0  0  0  0  0  0  0  0  0
 17 18  1  0  0  0
 18 16  1  0  0  0
 16  7  1  0  0  0
  7  8  2  0  0  0
  8  9  1  0  0  0
  8 10  1  0  0  0
 10 11  2  0  0  0
 11 12  1  0  0  0
 12 13  2  0  0  0
 13  1  1  0  0  0
  1  2  1  0  0  0
  2  3  1  0  0  0
  3  4  1  0  0  0
  4 19  1  0  0  0
 19 30  1  0  0  0
 30 31  1  0  0  0
 19 20  1  0  0  0
 20 21  2  0  0  0
 21 22  1  0  0  0
 22 23  2  0  0  0
 23 26  1  0  0  0
 26 27  1  0  0  0
 26 28  1  0  0  0
 26 29  1  0  0  0
 23 24  1  0  0  0
 24 25  2  0  0  0
  4  5  1  0  0  0
  5  6  1  0  0  0
 13  7  1  0  0  0
  6  1  1  0  0  0
 25 20  1  0  0  0
  9 14  1  0  0  0
  9 15  1  0  0  0
 31 32  1  0  0  0
 31 33  1  0  0  0
M  END
> <minimizedAffinity>
-5.60586

> <CNNscore>
0.2140425593

> <CNNaffinity>
4.9105620384

> <CNN_VS>
1.0510692596

> <CNNaffinity_variance>
0.0743498728

$$$$
[H]c1nc(N([H])[H])c(OC([H])([H])C([H])([H])[H])c(N2C([H])([H])C([H])([H])N(C([H])(c3c([H])c([H])c(C(F)(F)F)c([H])c3[H])C([H])([H])N([H])[H])C([H])([H])C2([H])[H])n1


 33 35  0  0  0  0  0  0  0  0999 V2000
  157.4337  141.3929  183.7427 N   0  0  0  0  0  0  0  0  0  0  0  0
  157.4150  140.2714  182.8304 C   0  0  0  0  0  0  0  0  0  0  0  0
  156.1022  139.5880  183.1279 C   0  0  0  0  0  0  0  0  0  0  0  0
  155.0285  140.2957  182.3828 N   0  0  0  0  0  0  0  0  0  0  0  0
  155.3315  141.7213  182.5390 C   0  0  0  0  0  0  0  0  0  0  0  0
  156.0786  142.0531  183.7822 C   0  0  0  0  0  0  0  0  0  0  0  0
  159.5150  142.7116  184.1932 C   0  0  0  0  0  0  0  0  0  0  0  0
  160.5063  143.0793  185.1288 C   0  0  0  0  0  0  0  0  0  0  0  0
  161.6014  143.8867  184.7433 N   0  0  0  0  0  0  0  0  0  0  0  0
  160.4153  142.6662  186.3830 N   0  0  0  0  0  0  0  0  0  0  0  0
  159.3640  141.8979  186.7371 C   0  0  0  0  0  0  0  0  0  0  0  0
  158.4290  141.5473  185.8549 N   0  0  0  0  0  0  0  0  0  0  0  0
  158.4573  141.9388  184.5219 C   0  0  0  0  0  0  0  0  0  0  0  0
  161.8875  144.6834  185.3731 H   0  0  0  0  0  0  0  0  0  0  0  0
  162.1524  143.7244  183.8570 H   0  0  0  0  0  0  0  0  0  0  0  0
  159.7243  143.2135  182.9181 O   0  0  0  0  0  0  0  0  0  0  0  0
  158.3206  143.6645  181.0331 C   0  0  0  0  0  0  0  0  0  0  0  0
  158.8436  144.1760  182.3566 C   0  0  0  0  0  0  0  0  0  0  0  0
  153.7681  140.0278  183.0470 C   0  0  0  0  0  0  0  0  0  0  0  0
  152.7296  139.5634  182.1121 C   0  0  0  0  0  0  0  0  0  0  0  0
  152.4573  140.3191  180.9874 C   0  0  0  0  0  0  0  0  0  0  0  0
  151.4164  139.9926  180.1295 C   0  0  0  0  0  0  0  0  0  0  0  0
  150.6222  138.8980  180.3901 C   0  0  0  0  0  0  0  0  0  0  0  0
  150.8661  138.1208  181.4965 C   0  0  0  0  0  0  0  0  0  0  0  0
  151.9261  138.4834  182.3326 C   0  0  0  0  0  0  0  0  0  0  0  0
  149.4733  138.5851  179.5056 C   0  0  0  0  0  0  0  0  0  0  0  0
  148.3293  139.1368  180.1264 F   0  0  0  0  0  0  0  0  0  0  0  0
  149.2361  137.2391  179.3723 F   0  0  0  0  0  0  0  0  0  0  0  0
  149.5717  139.2280  178.2945 F   0  0  0  0  0  0  0  0  0  0  0  0
  154.0168  138.8257  183.9853 C   0  0  0  0  0  0  0  0  0  0  0  0
  153.6900  139.0862  185.3418 N   0  0  0  0  0  0  0  0  0  0  0  0
  154.5110  139.3517  185.8974 H   0  0  0  0  0  0  0  0  0  0  0  0
  153.0582  138.3991  185.7670 H   0  0  0  0  0  0  0  0  0  0  0  0
 17 18  1  0  0  0
 18 16  1  0  0  0
 16  7  1  0  0  0
  7  8  2  0  0  0
  8  9  1  0  0  0
  8 10  1  0  0  0
 10 11  2  0  0  0
 11 12  1  0  0  0
 12 13  2  0  0  0
 13  1  1  0  0  0
  1  2  1  0  0  0
  2  3  1  0  0  0
  3  4  1  0  0  0
  4 19  1  0  0  0
 19 30  1  0  0  0
 30 31  1  0  0  0
 19 20  1  0  0  0
 20 21  2  0  0  0
 21 22  1  0  0  0
 22 23  2  0  0  0
 23 26  1  0  0  0
 26 27  1  0  0  0
 26 28  1  0  0  0
 26 29  1  0  0  0
 23 24  1  0  0  0
 24 25  2  0  0  0
  4  5  1  0  0  0
  5  6  1  0  0  0
 13  7  1  0  0  0
  6  1  1  0  0  0
 25 20  1  0  0  0
  9 14  1  0  0  0
  9 15  1  0  0  0
 31 32  1  0  0  0
 31 33  1  0  0  0
M  END
> <minimizedAffinity>
-7.96786

> <CNNscore>
0.2090128809

> <CNNaffinity>
6.0680179596

> <CNN_VS>
1.2682938576

> <CNNaffinity_variance>
0.0015839115

$$$$
[H]OC(=O)[C@@]([H])(Oc1c(Br)c([H])c(-c2c([H])c([H])c(-c3c(C([H])([H])c4c([H])c([H])c([H])c([H])c4[H])oc4c([H])c([H])c([H])c([H])c34)c([H])c2[H])c([H])c1Br)C([H])([H])c1c([H])c([H])c([H])c([H])c1[H]


 43 48  0  0  0  0  0  0  0  0999 V2000
  155.6216  139.0511  185.1503 C   0  0  0  0  0  0  0  0  0  0  0  0
  155.0651  139.9146  184.2270 C   0  0  0  0  0  0  0  0  0  0  0  0
  155.8819  140.8310  183.6170 C   0  0  0  0  0  0  0  0  0  0  0  0
  157.2294  140.9620  183.8528 C   0  0  0  0  0  0  0  0  0  0  0  0
  157.7555  140.0653  184.7964 C   0  0  0  0  0  0  0  0  0  0  0  0
  156.9668  139.1426  185.4199 C   0  0  0  0  0  0  0  0  0  0  0  0
  158.0941  141.9485  183.2345 C   0  0  0  0  0  0  0  0  0  0  0  0
  158.9112  142.8751  183.7693 C   0  0  0  0  0  0  0  0  0  0  0  0
  159.4732  143.5796  182.7841 O   0  0  0  0  0  0  0  0  0  0  0  0
  159.0661  143.1609  181.6140 C   0  0  0  0  0  0  0  0  0  0  0  0
  159.3474  143.5520  180.3235 C   0  0  0  0  0  0  0  0  0  0  0  0
  158.7665  142.9254  179.2417 C   0  0  0  0  0  0  0  0  0  0  0  0
  157.8922  141.8905  179.4978 C   0  0  0  0  0  0  0  0  0  0  0  0
  157.6004  141.4874  180.7984 C   0  0  0  0  0  0  0  0  0  0  0  0
  158.1897  142.1265  181.8378 C   0  0  0  0  0  0  0  0  0  0  0  0
  159.2300  143.1676  185.1825 C   0  0  0  0  0  0  0  0  0  0  0  0
  160.6468  142.8823  185.4785 C   0  0  0  0  0  0  0  0  0  0  0  0
  161.5726  142.4170  184.5975 C   0  0  0  0  0  0  0  0  0  0  0  0
  162.9021  142.1769  184.9802 C   0  0  0  0  0  0  0  0  0  0  0  0
  163.3153  142.4055  186.2694 C   0  0  0  0  0  0  0  0  0  0  0  0
  162.3944  142.8768  187.1781 C   0  0  0  0  0  0  0  0  0  0  0  0
  161.0892  143.1102  186.7894 C   0  0  0  0  0  0  0  0  0  0  0  0
  153.3555  136.0562  187.2376 C   0  0  0  0  0  0  0  0  0  0  0  0
  152.7265  137.1169  186.5720 C   0  0  0  0  0  0  0  0  0  0  0  0
  150.8270  137.1895  186.5960 Br  0  0  0  0  0  0  0  0  0  0  0  0
  153.4581  138.0786  185.9036 C   0  0  0  0  0  0  0  0  0  0  0  0
  154.8316  138.0475  185.8541 C   0  0  0  0  0  0  0  0  0  0  0  0
  155.4660  137.0026  186.5089 C   0  0  0  0  0  0  0  0  0  0  0  0
  154.7192  136.0303  187.1881 C   0  0  0  0  0  0  0  0  0  0  0  0
  155.7516  134.7012  188.1299 Br  0  0  0  0  0  0  0  0  0  0  0  0
  152.6360  135.1030  187.9079 O   0  0  0  0  0  0  0  0  0  0  0  0
  152.3188  135.0864  189.2928 C   0  0  0  0  0  0  0  0  0  0  0  0
  150.1564  134.7573  190.3442 O   0  0  0  0  0  0  0  0  0  0  0  0
  150.9479  134.5380  189.3853 C   0  0  0  0  0  0  0  0  0  0  0  0
  150.4369  133.7245  188.3811 O   0  0  0  0  0  0  0  0  0  0  0  0
  150.7193  132.8056  188.1590 H   0  0  0  0  0  0  0  0  0  0  0  0
  152.3744  136.4689  189.9214 C   0  0  0  0  0  0  0  0  0  0  0  0
  153.7002  136.8363  190.4525 C   0  0  0  0  0  0  0  0  0  0  0  0
  154.3803  135.9183  191.2756 C   0  0  0  0  0  0  0  0  0  0  0  0
  155.6361  136.2502  191.7452 C   0  0  0  0  0  0  0  0  0  0  0  0
  156.2439  137.4541  191.4324 C   0  0  0  0  0  0  0  0  0  0  0  0
  155.5368  138.3228  190.6209 C   0  0  0  0  0  0  0  0  0  0  0  0
  154.2870  138.0319  190.1325 C   0  0  0  0  0  0  0  0  0  0  0  0
 33 34  2  0  0  0
 34 35  1  0  0  0
 34 32  1  0  0  0
 32 37  1  0  0  0
 37 38  1  0  0  0
 38 39  2  0  0  0
 39 40  1  0  0  0
 40 41  2  0  0  0
 41 42  1  0  0  0
 42 43  2  0  0  0
 32 31  1  0  0  0
 31 23  1  0  0  0
 23 24  2  0  0  0
 24 25  1  0  0  0
 24 26  1  0  0  0
 26 27  2  0  0  0
 27  1  1  0  0  0
  1  2  2  0  0  0
  2  3  1  0  0  0
  3  4  2  0  0  0
  4  7  1  0  0  0
  7  8  2  0  0  0
  8 16  1  0  0  0
 16 17  1  0  0  0
 17 18  2  0  0  0
 18 19  1  0  0  0
 19 20  2  0  0  0
 20 21  1  0  0  0
 21 22  2  0  0  0
  8  9  1  0  0  0
  9 10  1  0  0  0
 10 11  2  0  0  0
 11 12  1  0  0  0
 12 13  2  0  0  0
 13 14  1  0  0  0
 14 15  2  0  0  0
  4  5  1  0  0  0
  5  6  2  0  0  0
 27 28  1  0  0  0
 28 29  2  0  0  0
 29 30  1  0  0  0
 43 38  1  0  0  0
 29 23  1  0  0  0
  6  1  1  0  0  0
 15  7  1  0  0  0
 22 17  1  0  0  0
 15 10  1  0  0  0
 35 36  1  0  0  0
M  END
> <minimizedAffinity>
-10.55531

> <CNNscore>
0.4261772335

> <CNNaffinity>
7.3150191307

> <CNN_VS>
3.1174945831

> <CNNaffinity_variance>
0.1691196263

$$$$
[H]OC(=O)[C@@]([H])(Oc1c(Br)c([H])c(-c2c([H])c([H])c(-c3c(C([H])([H])c4c([H])c([H])c([H])c([H])c4[H])oc4c([H])c([H])c([H])c([H])c34)c([H])c2[H])c([H])c1Br)C([H])([H])c1c([H])c([H])c([H])c([H])c1[H]


 43 48  0  0  0  0  0  0  0  0999 V2000
  155.6082  138.9070  185.2676 C   0  0  0  0  0  0  0  0  0  0  0  0
  155.0362  139.7834  184.3660 C   0  0  0  0  0  0  0  0  0  0  0  0
  155.8443  140.7028  183.7489 C   0  0  0  0  0  0  0  0  0  0  0  0
  157.1971  140.8251  183.9574 C   0  0  0  0  0  0  0  0  0  0  0  0
  157.7388  139.9155  184.8796 C   0  0  0  0  0  0  0  0  0  0  0  0
  156.9592  138.9895  185.5095 C   0  0  0  0  0  0  0  0  0  0  0  0
  158.0531  141.8145  183.3317 C   0  0  0  0  0  0  0  0  0  0  0  0
  158.8778  142.7384  183.8596 C   0  0  0  0  0  0  0  0  0  0  0  0
  159.4260  143.4477  182.8699 O   0  0  0  0  0  0  0  0  0  0  0  0
  159.0024  143.0347  181.7037 C   0  0  0  0  0  0  0  0  0  0  0  0
  159.2656  143.4320  180.4113 C   0  0  0  0  0  0  0  0  0  0  0  0
  158.6695  142.8107  179.3347 C   0  0  0  0  0  0  0  0  0  0  0  0
  157.7988  141.7747  179.5981 C   0  0  0  0  0  0  0  0  0  0  0  0
  157.5253  141.3652  180.9006 C   0  0  0  0  0  0  0  0  0  0  0  0
  158.1291  141.9993  181.9348 C   0  0  0  0  0  0  0  0  0  0  0  0
  159.2164  143.0241  185.2695 C   0  0  0  0  0  0  0  0  0  0  0  0
  160.6508  142.7971  185.5288 C   0  0  0  0  0  0  0  0  0  0  0  0
  161.5709  142.3644  184.6254 C   0  0  0  0  0  0  0  0  0  0  0  0
  162.9186  142.1795  184.9735 C   0  0  0  0  0  0  0  0  0  0  0  0
  163.3564  142.4313  186.2502 C   0  0  0  0  0  0  0  0  0  0  0  0
  162.4418  142.8704  187.1812 C   0  0  0  0  0  0  0  0  0  0  0  0
  161.1184  143.0495  186.8264 C   0  0  0  0  0  0  0  0  0  0  0  0
  153.2500  135.9776  187.3458 C   0  0  0  0  0  0  0  0  0  0  0  0
  154.6465  135.8798  187.2814 C   0  0  0  0  0  0  0  0  0  0  0  0
  155.4840  134.4178  188.1616 Br  0  0  0  0  0  0  0  0  0  0  0  0
  155.4010  136.8223  186.6110 C   0  0  0  0  0  0  0  0  0  0  0  0
  154.8285  137.8992  185.9769 C   0  0  0  0  0  0  0  0  0  0  0  0
  153.4471  138.0074  186.0336 C   0  0  0  0  0  0  0  0  0  0  0  0
  152.6854  137.0469  186.7130 C   0  0  0  0  0  0  0  0  0  0  0  0
  150.7741  137.2850  186.6154 Br  0  0  0  0  0  0  0  0  0  0  0  0
  152.4955  135.0427  188.0032 O   0  0  0  0  0  0  0  0  0  0  0  0
  152.2300  134.9837  189.3978 C   0  0  0  0  0  0  0  0  0  0  0  0
  150.1653  134.0304  188.5504 O   0  0  0  0  0  0  0  0  0  0  0  0
  150.8866  134.3777  189.5267 C   0  0  0  0  0  0  0  0  0  0  0  0
  150.3270  134.1455  190.7775 O   0  0  0  0  0  0  0  0  0  0  0  0
  150.0122  134.8221  191.4228 H   0  0  0  0  0  0  0  0  0  0  0  0
  152.2529  136.3536  190.0553 C   0  0  0  0  0  0  0  0  0  0  0  0
  153.5874  136.7775  190.5181 C   0  0  0  0  0  0  0  0  0  0  0  0
  154.3274  135.9091  191.3436 C   0  0  0  0  0  0  0  0  0  0  0  0
  155.5906  136.2933  191.7492 C   0  0  0  0  0  0  0  0  0  0  0  0
  156.1489  137.5022  191.3702 C   0  0  0  0  0  0  0  0  0  0  0  0
  155.3840  138.3208  190.5591 C   0  0  0  0  0  0  0  0  0  0  0  0
  154.1248  137.9771  190.1332 C   0  0  0  0  0  0  0  0  0  0  0  0
 33 34  2  0  0  0
 34 35  1  0  0  0
 34 32  1  0  0  0
 32 37  1  0  0  0
 37 38  1  0  0  0
 38 39  2  0  0  0
 39 40  1  0  0  0
 40 41  2  0  0  0
 41 42  1  0  0  0
 42 43  2  0  0  0
 32 31  1  0  0  0
 31 23  1  0  0  0
 23 24  2  0  0  0
 24 25  1  0  0  0
 24 26  1  0  0  0
 26 27  2  0  0  0
 27  1  1  0  0  0
  1  2  2  0  0  0
  2  3  1  0  0  0
  3  4  2  0  0  0
  4  7  1  0  0  0
  7  8  2  0  0  0
  8 16  1  0  0  0
 16 17  1  0  0  0
 17 18  2  0  0  0
 18 19  1  0  0  0
 19 20  2  0  0  0
 20 21  1  0  0  0
 21 22  2  0  0  0
  8  9  1  0  0  0
  9 10  1  0  0  0
 10 11  2  0  0  0
 11 12  1  0  0  0
 12 13  2  0  0  0
 13 14  1  0  0  0
 14 15  2  0  0  0
  4  5  1  0  0  0
  5  6  2  0  0  0
 27 28  1  0  0  0
 28 29  2  0  0  0
 29 30  1  0  0  0
 43 38  1  0  0  0
 29 23  1  0  0  0
  6  1  1  0  0  0
 15  7  1  0  0  0
 22 17  1  0  0  0
 15 10  1  0  0  0
 35 36  1  0  0  0
M  END
> <minimizedAffinity>
-10.50088

> <CNNscore>
0.3742371500

> <CNNaffinity>
7.2744178772

> <CNN_VS>
2.7223575115

> <CNNaffinity_variance>
0.1812787503

$$$$
[H]OC(=O)[C@@]([H])(Oc1c(Br)c([H])c(-c2c([H])c([H])c(-c3c(C([H])([H])c4c([H])c([H])c([H])c([H])c4[H])oc4c([H])c([H])c([H])c([H])c34)c([H])c2[H])c([H])c1Br)C([H])([H])c1c([H])c([H])c([H])c([H])c1[H]


 43 48  0  0  0  0  0  0  0  0999 V2000
  154.0076  138.7236  185.2037 C   0  0  0  0  0  0  0  0  0  0  0  0
  153.6777  137.4462  184.7944 C   0  0  0  0  0  0  0  0  0  0  0  0
  152.9054  136.6753  185.6241 C   0  0  0  0  0  0  0  0  0  0  0  0
  152.4256  137.0761  186.8478 C   0  0  0  0  0  0  0  0  0  0  0  0
  152.7823  138.3803  187.2257 C   0  0  0  0  0  0  0  0  0  0  0  0
  153.5501  139.1708  186.4209 C   0  0  0  0  0  0  0  0  0  0  0  0
  151.6338  136.2561  187.7445 C   0  0  0  0  0  0  0  0  0  0  0  0
  151.9948  135.3943  188.7136 C   0  0  0  0  0  0  0  0  0  0  0  0
  150.8964  134.8468  189.2396 O   0  0  0  0  0  0  0  0  0  0  0  0
  149.8174  135.3084  188.6627 C   0  0  0  0  0  0  0  0  0  0  0  0
  148.4742  135.0623  188.8430 C   0  0  0  0  0  0  0  0  0  0  0  0
  147.5195  135.7012  188.0809 C   0  0  0  0  0  0  0  0  0  0  0  0
  147.9580  136.5978  187.1297 C   0  0  0  0  0  0  0  0  0  0  0  0
  149.3134  136.8538  186.9388 C   0  0  0  0  0  0  0  0  0  0  0  0
  150.2240  136.2070  187.7060 C   0  0  0  0  0  0  0  0  0  0  0  0
  153.3353  135.0267  189.2158 C   0  0  0  0  0  0  0  0  0  0  0  0
  154.0472  136.2056  189.7446 C   0  0  0  0  0  0  0  0  0  0  0  0
  153.6489  136.9824  190.7876 C   0  0  0  0  0  0  0  0  0  0  0  0
  154.4015  138.0877  191.2158 C   0  0  0  0  0  0  0  0  0  0  0  0
  155.5756  138.4248  190.5890 C   0  0  0  0  0  0  0  0  0  0  0  0
  155.9979  137.6521  189.5305 C   0  0  0  0  0  0  0  0  0  0  0  0
  155.2492  136.5661  189.1189 C   0  0  0  0  0  0  0  0  0  0  0  0
  156.4837  141.3010  182.8190 C   0  0  0  0  0  0  0  0  0  0  0  0
  155.1961  141.6864  183.2154 C   0  0  0  0  0  0  0  0  0  0  0  0
  154.5714  143.4021  182.6862 Br  0  0  0  0  0  0  0  0  0  0  0  0
  154.4023  140.8547  183.9804 C   0  0  0  0  0  0  0  0  0  0  0  0
  154.8289  139.6145  184.3923 C   0  0  0  0  0  0  0  0  0  0  0  0
  156.1017  139.2215  184.0067 C   0  0  0  0  0  0  0  0  0  0  0  0
  156.9025  140.0681  183.2280 C   0  0  0  0  0  0  0  0  0  0  0  0
  158.6045  139.3365  182.6920 Br  0  0  0  0  0  0  0  0  0  0  0  0
  157.2733  142.1183  182.0547 O   0  0  0  0  0  0  0  0  0  0  0  0
  158.2732  143.0168  182.5147 C   0  0  0  0  0  0  0  0  0  0  0  0
  158.3456  143.6288  180.1673 O   0  0  0  0  0  0  0  0  0  0  0  0
  158.5575  143.9194  181.3776 C   0  0  0  0  0  0  0  0  0  0  0  0
  159.0895  145.1858  181.5892 O   0  0  0  0  0  0  0  0  0  0  0  0
  159.9985  145.4037  181.9048 H   0  0  0  0  0  0  0  0  0  0  0  0
  159.5433  142.3045  182.9494 C   0  0  0  0  0  0  0  0  0  0  0  0
  159.9082  142.5307  184.3602 C   0  0  0  0  0  0  0  0  0  0  0  0
  159.1215  141.9406  185.3681 C   0  0  0  0  0  0  0  0  0  0  0  0
  159.4837  142.1259  186.6880 C   0  0  0  0  0  0  0  0  0  0  0  0
  160.5928  142.8722  187.0486 C   0  0  0  0  0  0  0  0  0  0  0  0
  161.3340  143.4316  186.0235 C   0  0  0  0  0  0  0  0  0  0  0  0
  161.0092  143.2717  184.6991 C   0  0  0  0  0  0  0  0  0  0  0  0
 33 34  2  0  0  0
 34 35  1  0  0  0
 34 32  1  0  0  0
 32 37  1  0  0  0
 37 38  1  0  0  0
 38 39  2  0  0  0
 39 40  1  0  0  0
 40 41  2  0  0  0
 41 42  1  0  0  0
 42 43  2  0  0  0
 32 31  1  0  0  0
 31 23  1  0  0  0
 23 24  2  0  0  0
 24 25  1  0  0  0
 24 26  1  0  0  0
 26 27  2  0  0  0
 27  1  1  0  0  0
  1  2  2  0  0  0
  2  3  1  0  0  0
  3  4  2  0  0  0
  4  7  1  0  0  0
  7  8  2  0  0  0
  8 16  1  0  0  0
 16 17  1  0  0  0
 17 18  2  0  0  0
 18 19  1  0  0  0
 19 20  2  0  0  0
 20 21  1  0  0  0
 21 22  2  0  0  0
  8  9  1  0  0  0
  9 10  1  0  0  0
 10 11  2  0  0  0
 11 12  1  0  0  0
 12 13  2  0  0  0
 13 14  1  0  0  0
 14 15  2  0  0  0
  4  5  1  0  0  0
  5  6  2  0  0  0
 27 28  1  0  0  0
 28 29  2  0  0  0
 29 30  1  0  0  0
 43 38  1  0  0  0
 29 23  1  0  0  0
  6  1  1  0  0  0
 15  7  1  0  0  0
 22 17  1  0  0  0
 15 10  1  0  0  0
 35 36  1  0  0  0
M  END
> <minimizedAffinity>
-10.42199

> <CNNscore>
0.3238066733

> <CNNaffinity>
7.1304564476

> <CNN_VS>
2.3088893890

> <CNNaffinity_variance>
0.4931719303

$$$$
[H]OC(=O)[C@@]([H])(Oc1c(Br)c([H])c(-c2c([H])c([H])c(-c3c(C([H])([H])c4c([H])c([H])c([H])c([H])c4[H])oc4c([H])c([H])c([H])c([H])c34)c([H])c2[H])c([H])c1Br)C([H])([H])c1c([H])c([H])c([H])c([H])c1[H]


 43 48  0  0  0  0  0  0  0  0999 V2000
  154.0956  138.6682  185.2032 C   0  0  0  0  0  0  0  0  0  0  0  0
  153.8007  137.3709  184.8318 C   0  0  0  0  0  0  0  0  0  0  0  0
  153.0007  136.6231  185.6563 C   0  0  0  0  0  0  0  0  0  0  0  0
  152.4601  137.0659  186.8396 C   0  0  0  0  0  0  0  0  0  0  0  0
  152.7829  138.3892  187.1797 C   0  0  0  0  0  0  0  0  0  0  0  0
  153.5771  139.1575  186.3790 C   0  0  0  0  0  0  0  0  0  0  0  0
  151.6381  136.2714  187.7321 C   0  0  0  0  0  0  0  0  0  0  0  0
  151.9667  135.4055  188.7091 C   0  0  0  0  0  0  0  0  0  0  0  0
  150.8490  134.8896  189.2265 O   0  0  0  0  0  0  0  0  0  0  0  0
  149.7884  135.3762  188.6363 C   0  0  0  0  0  0  0  0  0  0  0  0
  148.4374  135.1662  188.8041 C   0  0  0  0  0  0  0  0  0  0  0  0
  147.5075  135.8258  188.0291 C   0  0  0  0  0  0  0  0  0  0  0  0
  147.9789  136.7058  187.0781 C   0  0  0  0  0  0  0  0  0  0  0  0
  149.3424  136.9253  186.8998 C   0  0  0  0  0  0  0  0  0  0  0  0
  150.2280  136.2589  187.6794 C   0  0  0  0  0  0  0  0  0  0  0  0
  153.2919  135.0056  189.2267 C   0  0  0  0  0  0  0  0  0  0  0  0
  154.0496  136.1755  189.7100 C   0  0  0  0  0  0  0  0  0  0  0  0
  153.6985  136.9883  190.7425 C   0  0  0  0  0  0  0  0  0  0  0  0
  154.4923  138.0810  191.1261 C   0  0  0  0  0  0  0  0  0  0  0  0
  155.6605  138.3686  190.4645 C   0  0  0  0  0  0  0  0  0  0  0  0
  156.0354  137.5588  189.4159 C   0  0  0  0  0  0  0  0  0  0  0  0
  155.2464  136.4857  189.0483 C   0  0  0  0  0  0  0  0  0  0  0  0
  156.5361  141.2788  182.8179 C   0  0  0  0  0  0  0  0  0  0  0  0
  156.9610  139.9867  183.1550 C   0  0  0  0  0  0  0  0  0  0  0  0
  158.6502  139.4015  182.5085 Br  0  0  0  0  0  0  0  0  0  0  0  0
  156.1747  139.1510  183.9234 C   0  0  0  0  0  0  0  0  0  0  0  0
  154.9423  139.5373  184.3942 C   0  0  0  0  0  0  0  0  0  0  0  0
  154.5103  140.8138  184.0672 C   0  0  0  0  0  0  0  0  0  0  0  0
  155.3131  141.6593  183.2893 C   0  0  0  0  0  0  0  0  0  0  0  0
  154.6151  143.4346  183.0060 Br  0  0  0  0  0  0  0  0  0  0  0  0
  157.3140  142.1149  182.0620 O   0  0  0  0  0  0  0  0  0  0  0  0
  158.3061  143.0175  182.5305 C   0  0  0  0  0  0  0  0  0  0  0  0
  158.9137  145.1501  181.5440 O   0  0  0  0  0  0  0  0  0  0  0  0
  158.5720  143.9424  181.4068 C   0  0  0  0  0  0  0  0  0  0  0  0
  158.4597  143.5137  180.0896 O   0  0  0  0  0  0  0  0  0  0  0  0
  157.6309  143.2744  179.6109 H   0  0  0  0  0  0  0  0  0  0  0  0
  159.5875  142.3135  182.9449 C   0  0  0  0  0  0  0  0  0  0  0  0
  159.9290  142.4737  184.3706 C   0  0  0  0  0  0  0  0  0  0  0  0
  161.0735  143.2180  184.7153 C   0  0  0  0  0  0  0  0  0  0  0  0
  161.3736  143.3951  186.0519 C   0  0  0  0  0  0  0  0  0  0  0  0
  160.5858  142.8643  187.0592 C   0  0  0  0  0  0  0  0  0  0  0  0
  159.4725  142.1412  186.6711 C   0  0  0  0  0  0  0  0  0  0  0  0
  159.1381  141.9419  185.3545 C   0  0  0  0  0  0  0  0  0  0  0  0
 33 34  2  0  0  0
 34 35  1  0  0  0
 34 32  1  0  0  0
 32 37  1  0  0  0
 37 38  1  0  0  0
 38 39  2  0  0  0
 39 40  1  0  0  0
 40 41  2  0  0  0
 41 42  1  0  0  0
 42 43  2  0  0  0
 32 31  1  0  0  0
 31 23  1  0  0  0
 23 24  2  0  0  0
 24 25  1  0  0  0
 24 26  1  0  0  0
 26 27  2  0  0  0
 27  1  1  0  0  0
  1  2  2  0  0  0
  2  3  1  0  0  0
  3  4  2  0  0  0
  4  7  1  0  0  0
  7  8  2  0  0  0
  8 16  1  0  0  0
 16 17  1  0  0  0
 17 18  2  0  0  0
 18 19  1  0  0  0
 19 20  2  0  0  0
 20 21  1  0  0  0
 21 22  2  0  0  0
  8  9  1  0  0  0
  9 10  1  0  0  0
 10 11  2  0  0  0
 11 12  1  0  0  0
 12 13  2  0  0  0
 13 14  1  0  0  0
 14 15  2  0  0  0
  4  5  1  0  0  0
  5  6  2  0  0  0
 27 28  1  0  0  0
 28 29  2  0  0  0
 29 30  1  0  0  0
 43 38  1  0  0  0
 29 23  1  0  0  0
  6  1  1  0  0  0
 15  7  1  0  0  0
 22 17  1  0  0  0
 15 10  1  0  0  0
 35 36  1  0  0  0
M  END
> <minimizedAffinity>
-10.27631

> <CNNscore>
0.3087892830

> <CNNaffinity>
7.1153268814

> <CNN_VS>
2.1971366405

> <CNNaffinity_variance>
0.4307754636

$$$$
[H]OC(=O)[C@@]([H])(Oc1c(Br)c([H])c(-c2c([H])c([H])c(-c3c(C([H])([H])c4c([H])c([H])c([H])c([H])c4[H])oc4c([H])c([H])c([H])c([H])c34)c([H])c2[H])c([H])c1Br)C([H])([H])c1c([H])c([H])c([H])c([H])c1[H]


 43 48  0  0  0  0  0  0  0  0999 V2000
  151.9920  138.6243  181.9245 C   0  0  0  0  0  0  0  0  0  0  0  0
  151.5966  138.8459  180.6197 C   0  0  0  0  0  0  0  0  0  0  0  0
  150.6022  138.0598  180.0978 C   0  0  0  0  0  0  0  0  0  0  0  0
  149.9573  137.0545  180.7774 C   0  0  0  0  0  0  0  0  0  0  0  0
  150.3879  136.8627  182.0999 C   0  0  0  0  0  0  0  0  0  0  0  0
  151.3756  137.6295  182.6463 C   0  0  0  0  0  0  0  0  0  0  0  0
  148.9261  136.1987  180.2230 C   0  0  0  0  0  0  0  0  0  0  0  0
  147.6250  136.4272  179.9638 C   0  0  0  0  0  0  0  0  0  0  0  0
  147.0735  135.3081  179.4879 O   0  0  0  0  0  0  0  0  0  0  0  0
  147.9528  134.3427  179.4177 C   0  0  0  0  0  0  0  0  0  0  0  0
  147.8801  133.0309  179.0037 C   0  0  0  0  0  0  0  0  0  0  0  0
  148.9855  132.2076  179.0327 C   0  0  0  0  0  0  0  0  0  0  0  0
  150.1693  132.7453  179.4913 C   0  0  0  0  0  0  0  0  0  0  0  0
  150.2538  134.0699  179.9125 C   0  0  0  0  0  0  0  0  0  0  0  0
  149.1467  134.8501  179.8707 C   0  0  0  0  0  0  0  0  0  0  0  0
  146.8194  137.6558  180.1241 C   0  0  0  0  0  0  0  0  0  0  0  0
  147.1266  138.3309  181.3994 C   0  0  0  0  0  0  0  0  0  0  0  0
  147.6893  139.5611  181.5408 C   0  0  0  0  0  0  0  0  0  0  0  0
  147.9419  140.1175  182.8050 C   0  0  0  0  0  0  0  0  0  0  0  0
  147.6266  139.4311  183.9516 C   0  0  0  0  0  0  0  0  0  0  0  0
  147.0560  138.1837  183.8318 C   0  0  0  0  0  0  0  0  0  0  0  0
  146.8114  137.6471  182.5822 C   0  0  0  0  0  0  0  0  0  0  0  0
  155.0761  140.9834  183.7642 C   0  0  0  0  0  0  0  0  0  0  0  0
  154.9194  139.6234  184.0637 C   0  0  0  0  0  0  0  0  0  0  0  0
  156.1285  138.8328  185.2994 Br  0  0  0  0  0  0  0  0  0  0  0  0
  153.9259  138.8687  183.4718 C   0  0  0  0  0  0  0  0  0  0  0  0
  153.0448  139.4055  182.5633 C   0  0  0  0  0  0  0  0  0  0  0  0
  153.1896  140.7504  182.2583 C   0  0  0  0  0  0  0  0  0  0  0  0
  154.1979  141.5129  182.8636 C   0  0  0  0  0  0  0  0  0  0  0  0
  154.2043  143.3873  182.4099 Br  0  0  0  0  0  0  0  0  0  0  0  0
  156.0550  141.7389  184.3527 O   0  0  0  0  0  0  0  0  0  0  0  0
  157.4022  141.8794  183.9236 C   0  0  0  0  0  0  0  0  0  0  0  0
  157.5661  140.3143  182.0760 O   0  0  0  0  0  0  0  0  0  0  0  0
  157.4119  141.4953  182.4949 C   0  0  0  0  0  0  0  0  0  0  0  0
  157.2410  142.4500  181.4995 O   0  0  0  0  0  0  0  0  0  0  0  0
  157.8734  143.1631  181.2448 H   0  0  0  0  0  0  0  0  0  0  0  0
  158.3604  141.0001  184.7098 C   0  0  0  0  0  0  0  0  0  0  0  0
  159.5673  141.7007  185.1868 C   0  0  0  0  0  0  0  0  0  0  0  0
  159.5830  142.2088  186.5000 C   0  0  0  0  0  0  0  0  0  0  0  0
  160.7261  142.8355  186.9565 C   0  0  0  0  0  0  0  0  0  0  0  0
  161.8526  142.9789  186.1644 C   0  0  0  0  0  0  0  0  0  0  0  0
  161.7891  142.4636  184.8825 C   0  0  0  0  0  0  0  0  0  0  0  0
  160.6733  141.8333  184.3897 C   0  0  0  0  0  0  0  0  0  0  0  0
 33 34  2  0  0  0
 34 35  1  0  0  0
 34 32  1  0  0  0
 32 37  1  0  0  0
 37 38  1  0  0  0
 38 39  2  0  0  0
 39 40  1  0  0  0
 40 41  2  0  0  0
 41 42  1  0  0  0
 42 43  2  0  0  0
 32 31  1  0  0  0
 31 23  1  0  0  0
 23 24  2  0  0  0
 24 25  1  0  0  0
 24 26  1  0  0  0
 26 27  2  0  0  0
 27  1  1  0  0  0
  1  2  2  0  0  0
  2  3  1  0  0  0
  3  4  2  0  0  0
  4  7  1  0  0  0
  7  8  2  0  0  0
  8 16  1  0  0  0
 16 17  1  0  0  0
 17 18  2  0  0  0
 18 19  1  0  0  0
 19 20  2  0  0  0
 20 21  1  0  0  0
 21 22  2  0  0  0
  8  9  1  0  0  0
  9 10  1  0  0  0
 10 11  2  0  0  0
 11 12  1  0  0  0
 12 13  2  0  0  0
 13 14  1  0  0  0
 14 15  2  0  0  0
  4  5  1  0  0  0
  5  6  2  0  0  0
 27 28  1  0  0  0
 28 29  2  0  0  0
 29 30  1  0  0  0
 43 38  1  0  0  0
 29 23  1  0  0  0
  6  1  1  0  0  0
 15  7  1  0  0  0
 22 17  1  0  0  0
 15 10  1  0  0  0
 35 36  1  0  0  0
M  END
> <minimizedAffinity>
-9.55296

> <CNNscore>
0.2733059824

> <CNNaffinity>
6.6110816002

> <CNN_VS>
1.8068481684

> <CNNaffinity_variance>
0.2252130508

$$$$
[H]OC(=O)[C@@]([H])(Oc1c(Br)c([H])c(-c2c([H])c([H])c(-c3c(C([H])([H])c4c([H])c([H])c([H])c([H])c4[H])oc4c([H])c([H])c([H])c([H])c34)c([H])c2[H])c([H])c1Br)C([H])([H])c1c([H])c([H])c([H])c([H])c1[H]


 43 48  0  0  0  0  0  0  0  0999 V2000
  154.8834  138.9528  185.0580 C   0  0  0  0  0  0  0  0  0  0  0  0
  154.5110  139.8949  184.1191 C   0  0  0  0  0  0  0  0  0  0  0  0
  155.4789  140.7144  183.5990 C   0  0  0  0  0  0  0  0  0  0  0  0
  156.8093  140.6740  183.9408 C   0  0  0  0  0  0  0  0  0  0  0  0
  157.1460  139.7024  184.8967 C   0  0  0  0  0  0  0  0  0  0  0  0
  156.2041  138.8729  185.4322 C   0  0  0  0  0  0  0  0  0  0  0  0
  157.8338  141.5574  183.4179 C   0  0  0  0  0  0  0  0  0  0  0  0
  158.7697  142.2996  184.0387 C   0  0  0  0  0  0  0  0  0  0  0  0
  159.4617  142.9814  183.1227 O   0  0  0  0  0  0  0  0  0  0  0  0
  159.0274  142.7241  181.9163 C   0  0  0  0  0  0  0  0  0  0  0  0
  159.4021  143.1652  180.6664 C   0  0  0  0  0  0  0  0  0  0  0  0
  158.7614  142.7236  179.5284 C   0  0  0  0  0  0  0  0  0  0  0  0
  157.7300  141.8223  179.6862 C   0  0  0  0  0  0  0  0  0  0  0  0
  157.3429  141.3703  180.9451 C   0  0  0  0  0  0  0  0  0  0  0  0
  157.9950  141.8261  182.0419 C   0  0  0  0  0  0  0  0  0  0  0  0
  159.0905  142.4277  185.4757 C   0  0  0  0  0  0  0  0  0  0  0  0
  160.5490  142.4543  185.6951 C   0  0  0  0  0  0  0  0  0  0  0  0
  161.5040  142.1349  184.7807 C   0  0  0  0  0  0  0  0  0  0  0  0
  162.8724  142.1931  185.0899 C   0  0  0  0  0  0  0  0  0  0  0  0
  163.2960  142.5774  186.3381 C   0  0  0  0  0  0  0  0  0  0  0  0
  162.3461  142.9052  187.2795 C   0  0  0  0  0  0  0  0  0  0  0  0
  161.0024  142.8451  186.9631 C   0  0  0  0  0  0  0  0  0  0  0  0
  152.0876  136.2810  186.9306 C   0  0  0  0  0  0  0  0  0  0  0  0
  152.1240  136.4431  185.5391 C   0  0  0  0  0  0  0  0  0  0  0  0
  150.9097  135.4276  184.4865 Br  0  0  0  0  0  0  0  0  0  0  0  0
  153.0228  137.3041  184.9408 C   0  0  0  0  0  0  0  0  0  0  0  0
  153.9240  138.0417  185.6713 C   0  0  0  0  0  0  0  0  0  0  0  0
  153.8982  137.8900  187.0494 C   0  0  0  0  0  0  0  0  0  0  0  0
  152.9823  137.0168  187.6522 C   0  0  0  0  0  0  0  0  0  0  0  0
  153.0062  136.9933  189.5805 Br  0  0  0  0  0  0  0  0  0  0  0  0
  151.1943  135.4339  187.5305 O   0  0  0  0  0  0  0  0  0  0  0  0
  150.0090  135.7931  188.2268 C   0  0  0  0  0  0  0  0  0  0  0  0
  149.5143  135.5387  190.5891 O   0  0  0  0  0  0  0  0  0  0  0  0
  150.1025  135.1338  189.5479 C   0  0  0  0  0  0  0  0  0  0  0  0
  150.8688  133.9871  189.7190 O   0  0  0  0  0  0  0  0  0  0  0  0
  151.8526  133.9194  189.6884 H   0  0  0  0  0  0  0  0  0  0  0  0
  148.7490  135.3452  187.5049 C   0  0  0  0  0  0  0  0  0  0  0  0
  148.2023  136.3460  186.5698 C   0  0  0  0  0  0  0  0  0  0  0  0
  147.3494  135.9145  185.5358 C   0  0  0  0  0  0  0  0  0  0  0  0
  146.8117  136.8569  184.6810 C   0  0  0  0  0  0  0  0  0  0  0  0
  147.0856  138.2079  184.8096 C   0  0  0  0  0  0  0  0  0  0  0  0
  147.9284  138.5829  185.8402 C   0  0  0  0  0  0  0  0  0  0  0  0
  148.4835  137.6790  186.7119 C   0  0  0  0  0  0  0  0  0  0  0  0
 33 34  2  0  0  0
 34 35  1  0  0  0
 34 32  1  0  0  0
 32 37  1  0  0  0
 37 38  1  0  0  0
 38 39  2  0  0  0
 39 40  1  0  0  0
 40 41  2  0  0  0
 41 42  1  0  0  0
 42 43  2  0  0  0
 32 31  1  0  0  0
 31 23  1  0  0  0
 23 24  2  0  0  0
 24 25  1  0  0  0
 24 26  1  0  0  0
 26 27  2  0  0  0
 27  1  1  0  0  0
  1  2  2  0  0  0
  2  3  1  0  0  0
  3  4  2  0  0  0
  4  7  1  0  0  0
  7  8  2  0  0  0
  8 16  1  0  0  0
 16 17  1  0  0  0
 17 18  2  0  0  0
 18 19  1  0  0  0
 19 20  2  0  0  0
 20 21  1  0  0  0
 21 22  2  0  0  0
  8  9  1  0  0  0
  9 10  1  0  0  0
 10 11  2  0  0  0
 11 12  1  0  0  0
 12 13  2  0  0  0
 13 14  1  0  0  0
 14 15  2  0  0  0
  4  5  1  0  0  0
  5  6  2  0  0  0
 27 28  1  0  0  0
 28 29  2  0  0  0
 29 30  1  0  0  0
 43 38  1  0  0  0
 29 23  1  0  0  0
  6  1  1  0  0  0
 15  7  1  0  0  0
 22 17  1  0  0  0
 15 10  1  0  0  0
 35 36  1  0  0  0
M  END
> <minimizedAffinity>
-10.11437

> <CNNscore>
0.2627231479

> <CNNaffinity>
6.9197320938

> <CNN_VS>
1.8179738522

> <CNNaffinity_variance>
0.1936146021

$$$$
[H]OC(=O)[C@@]([H])(Oc1c(Br)c([H])c(-c2c([H])c([H])c(-c3c(C([H])([H])c4c([H])c([H])c([H])c([H])c4[H])oc4c([H])c([H])c([H])c([H])c34)c([H])c2[H])c([H])c1Br)C([H])([H])c1c([H])c([H])c([H])c([H])c1[H]


 43 48  0  0  0  0  0  0  0  0999 V2000
  153.8377  138.7912  185.4478 C   0  0  0  0  0  0  0  0  0  0  0  0
  153.5245  139.0809  186.7616 C   0  0  0  0  0  0  0  0  0  0  0  0
  152.6311  138.2702  187.4124 C   0  0  0  0  0  0  0  0  0  0  0  0
  152.0128  137.1764  186.8559 C   0  0  0  0  0  0  0  0  0  0  0  0
  152.3591  136.9161  185.5204 C   0  0  0  0  0  0  0  0  0  0  0  0
  153.2451  137.7057  184.8468 C   0  0  0  0  0  0  0  0  0  0  0  0
  151.0439  136.3321  187.5278 C   0  0  0  0  0  0  0  0  0  0  0  0
  151.1839  135.4347  188.5216 C   0  0  0  0  0  0  0  0  0  0  0  0
  149.9969  134.8779  188.7746 O   0  0  0  0  0  0  0  0  0  0  0  0
  149.0706  135.3671  187.9919 C   0  0  0  0  0  0  0  0  0  0  0  0
  147.7205  135.1251  187.8649 C   0  0  0  0  0  0  0  0  0  0  0  0
  146.9560  135.7971  186.9351 C   0  0  0  0  0  0  0  0  0  0  0  0
  147.5922  136.7225  186.1353 C   0  0  0  0  0  0  0  0  0  0  0  0
  148.9564  136.9747  186.2550 C   0  0  0  0  0  0  0  0  0  0  0  0
  149.6769  136.2950  187.1798 C   0  0  0  0  0  0  0  0  0  0  0  0
  152.3817  135.0399  189.2919 C   0  0  0  0  0  0  0  0  0  0  0  0
  152.3236  135.5616  190.6706 C   0  0  0  0  0  0  0  0  0  0  0  0
  151.4578  136.5011  191.1372 C   0  0  0  0  0  0  0  0  0  0  0  0
  151.4840  136.9319  192.4733 C   0  0  0  0  0  0  0  0  0  0  0  0
  152.3940  136.4144  193.3617 C   0  0  0  0  0  0  0  0  0  0  0  0
  153.2801  135.4618  192.9108 C   0  0  0  0  0  0  0  0  0  0  0  0
  153.2440  135.0452  191.5938 C   0  0  0  0  0  0  0  0  0  0  0  0
  156.6452  141.1281  183.1854 C   0  0  0  0  0  0  0  0  0  0  0  0
  155.3037  141.5145  183.3082 C   0  0  0  0  0  0  0  0  0  0  0  0
  154.7536  143.1242  182.4595 Br  0  0  0  0  0  0  0  0  0  0  0  0
  154.4038  140.7600  184.0346 C   0  0  0  0  0  0  0  0  0  0  0  0
  154.7719  139.5993  184.6727 C   0  0  0  0  0  0  0  0  0  0  0  0
  156.0969  139.2062  184.5590 C   0  0  0  0  0  0  0  0  0  0  0  0
  157.0059  139.9740  183.8184 C   0  0  0  0  0  0  0  0  0  0  0  0
  158.7841  139.2414  183.6740 Br  0  0  0  0  0  0  0  0  0  0  0  0
  157.5410  141.8683  182.4609 O   0  0  0  0  0  0  0  0  0  0  0  0
  158.4455  142.8444  182.9585 C   0  0  0  0  0  0  0  0  0  0  0  0
  159.0166  145.0419  182.1011 O   0  0  0  0  0  0  0  0  0  0  0  0
  158.5089  143.8996  181.9235 C   0  0  0  0  0  0  0  0  0  0  0  0
  157.9969  143.6800  180.6502 O   0  0  0  0  0  0  0  0  0  0  0  0
  157.0477  143.5825  180.3998 H   0  0  0  0  0  0  0  0  0  0  0  0
  159.8322  142.2785  183.2163 C   0  0  0  0  0  0  0  0  0  0  0  0
  160.3031  142.4464  184.6037 C   0  0  0  0  0  0  0  0  0  0  0  0
  161.6610  142.7435  184.8286 C   0  0  0  0  0  0  0  0  0  0  0  0
  162.0938  142.9331  186.1265 C   0  0  0  0  0  0  0  0  0  0  0  0
  161.2357  142.8398  187.2090 C   0  0  0  0  0  0  0  0  0  0  0  0
  159.9116  142.5462  186.9377 C   0  0  0  0  0  0  0  0  0  0  0  0
  159.4401  142.3509  185.6631 C   0  0  0  0  0  0  0  0  0  0  0  0
 33 34  2  0  0  0
 34 35  1  0  0  0
 34 32  1  0  0  0
 32 37  1  0  0  0
 37 38  1  0  0  0
 38 39  2  0  0  0
 39 40  1  0  0  0
 40 41  2  0  0  0
 41 42  1  0  0  0
 42 43  2  0  0  0
 32 31  1  0  0  0
 31 23  1  0  0  0
 23 24  2  0  0  0
 24 25  1  0  0  0
 24 26  1  0  0  0
 26 27  2  0  0  0
 27  1  1  0  0  0
  1  2  2  0  0  0
  2  3  1  0  0  0
  3  4  2  0  0  0
  4  7  1  0  0  0
  7  8  2  0  0  0
  8 16  1  0  0  0
 16 17  1  0  0  0
 17 18  2  0  0  0
 18 19  1  0  0  0
 19 20  2  0  0  0
 20 21  1  0  0  0
 21 22  2  0  0  0
  8  9  1  0  0  0
  9 10  1  0  0  0
 10 11  2  0  0  0
 11 12  1  0  0  0
 12 13  2  0  0  0
 13 14  1  0  0  0
 14 15  2  0  0  0
  4  5  1  0  0  0
  5  6  2  0  0  0
 27 28  1  0  0  0
 28 29  2  0  0  0
 29 30  1  0  0  0
 43 38  1  0  0  0
 29 23  1  0  0  0
  6  1  1  0  0  0
 15  7  1  0  0  0
 22 17  1  0  0  0
 15 10  1  0  0  0
 35 36  1  0  0  0
M  END
> <minimizedAffinity>
-10.07226

> <CNNscore>
0.2531593442

> <CNNaffinity>
6.8311624527

> <CNN_VS>
1.7293726206

> <CNNaffinity_variance>
0.2231012583

$$$$
[H]OC(=O)[C@@]([H])(Oc1c(Br)c([H])c(-c2c([H])c([H])c(-c3c(C([H])([H])c4c([H])c([H])c([H])c([H])c4[H])oc4c([H])c([H])c([H])c([H])c34)c([H])c2[H])c([H])c1Br)C([H])([H])c1c([H])c([H])c([H])c([H])c1[H]


 43 48  0  0  0  0  0  0  0  0999 V2000
  155.1227  139.2733  185.1235 C   0  0  0  0  0  0  0  0  0  0  0  0
  154.6742  140.2826  184.2939 C   0  0  0  0  0  0  0  0  0  0  0  0
  155.6020  141.0986  183.7003 C   0  0  0  0  0  0  0  0  0  0  0  0
  156.9621  140.9925  183.8659 C   0  0  0  0  0  0  0  0  0  0  0  0
  157.3760  139.9540  184.7152 C   0  0  0  0  0  0  0  0  0  0  0  0
  156.4756  139.1261  185.3202 C   0  0  0  0  0  0  0  0  0  0  0  0
  157.9482  141.8705  183.2659 C   0  0  0  0  0  0  0  0  0  0  0  0
  158.8607  142.6919  183.8179 C   0  0  0  0  0  0  0  0  0  0  0  0
  159.5189  143.3269  182.8450 O   0  0  0  0  0  0  0  0  0  0  0  0
  159.0843  142.9624  181.6667 C   0  0  0  0  0  0  0  0  0  0  0  0
  159.4315  143.3203  180.3827 C   0  0  0  0  0  0  0  0  0  0  0  0
  158.7983  142.7699  179.2888 C   0  0  0  0  0  0  0  0  0  0  0  0
  157.8029  141.8459  179.5263 C   0  0  0  0  0  0  0  0  0  0  0  0
  157.4437  141.4773  180.8201 C   0  0  0  0  0  0  0  0  0  0  0  0
  158.0874  142.0392  181.8718 C   0  0  0  0  0  0  0  0  0  0  0  0
  159.1886  142.9411  185.2373 C   0  0  0  0  0  0  0  0  0  0  0  0
  160.6269  142.7380  185.4949 C   0  0  0  0  0  0  0  0  0  0  0  0
  161.5485  142.2976  184.5968 C   0  0  0  0  0  0  0  0  0  0  0  0
  162.8999  142.1375  184.9426 C   0  0  0  0  0  0  0  0  0  0  0  0
  163.3400  142.4223  186.2116 C   0  0  0  0  0  0  0  0  0  0  0  0
  162.4238  142.8697  187.1371 C   0  0  0  0  0  0  0  0  0  0  0  0
  161.0968  143.0242  186.7846 C   0  0  0  0  0  0  0  0  0  0  0  0
  152.4715  136.5970  187.1896 C   0  0  0  0  0  0  0  0  0  0  0  0
  152.4364  136.7284  185.7949 C   0  0  0  0  0  0  0  0  0  0  0  0
  151.1903  135.6689  184.8260 Br  0  0  0  0  0  0  0  0  0  0  0  0
  153.2888  137.5910  185.1343 C   0  0  0  0  0  0  0  0  0  0  0  0
  154.2113  138.3601  185.8031 C   0  0  0  0  0  0  0  0  0  0  0  0
  154.2562  138.2388  187.1838 C   0  0  0  0  0  0  0  0  0  0  0  0
  153.3871  137.3640  187.8499 C   0  0  0  0  0  0  0  0  0  0  0  0
  153.5063  137.3841  189.7747 Br  0  0  0  0  0  0  0  0  0  0  0  0
  151.6243  135.7484  187.8513 O   0  0  0  0  0  0  0  0  0  0  0  0
  151.9845  134.7025  188.7429 C   0  0  0  0  0  0  0  0  0  0  0  0
  151.2903  132.9057  187.2666 O   0  0  0  0  0  0  0  0  0  0  0  0
  152.2032  133.5091  187.8964 C   0  0  0  0  0  0  0  0  0  0  0  0
  153.4747  132.9702  187.7398 O   0  0  0  0  0  0  0  0  0  0  0  0
  154.0106  132.5027  188.4236 H   0  0  0  0  0  0  0  0  0  0  0  0
  150.9085  134.4212  189.7785 C   0  0  0  0  0  0  0  0  0  0  0  0
  151.1808  135.0063  191.1045 C   0  0  0  0  0  0  0  0  0  0  0  0
  152.2663  134.5138  191.8541 C   0  0  0  0  0  0  0  0  0  0  0  0
  152.5402  135.0852  193.0814 C   0  0  0  0  0  0  0  0  0  0  0  0
  151.7820  136.1237  193.5949 C   0  0  0  0  0  0  0  0  0  0  0  0
  150.7267  136.5731  192.8221 C   0  0  0  0  0  0  0  0  0  0  0  0
  150.4205  136.0336  191.5972 C   0  0  0  0  0  0  0  0  0  0  0  0
 33 34  2  0  0  0
 34 35  1  0  0  0
 34 32  1  0  0  0
 32 37  1  0  0  0
 37 38  1  0  0  0
 38 39  2  0  0  0
 39 40  1  0  0  0
 40 41  2  0  0  0
 41 42  1  0  0  0
 42 43  2  0  0  0
 32 31  1  0  0  0
 31 23  1  0  0  0
 23 24  2  0  0  0
 24 25  1  0  0  0
 24 26  1  0  0  0
 26 27  2  0  0  0
 27  1  1  0  0  0
  1  2  2  0  0  0
  2  3  1  0  0  0
  3  4  2  0  0  0
  4  7  1  0  0  0
  7  8  2  0  0  0
  8 16  1  0  0  0
 16 17  1  0  0  0
 17 18  2  0  0  0
 18 19  1  0  0  0
 19 20  2  0  0  0
 20 21  1  0  0  0
 21 22  2  0  0  0
  8  9  1  0  0  0
  9 10  1  0  0  0
 10 11  2  0  0  0
 11 12  1  0  0  0
 12 13  2  0  0  0
 13 14  1  0  0  0
 14 15  2  0  0  0
  4  5  1  0  0  0
  5  6  2  0  0  0
 27 28  1  0  0  0
 28 29  2  0  0  0
 29 30  1  0  0  0
 43 38  1  0  0  0
 29 23  1  0  0  0
  6  1  1  0  0  0
 15  7  1  0  0  0
 22 17  1  0  0  0
 15 10  1  0  0  0
 35 36  1  0  0  0
M  END
> <minimizedAffinity>
-10.01284

> <CNNscore>
0.2434620112

> <CNNaffinity>
6.9368162155

> <CNN_VS>
1.6888512373

> <CNNaffinity_variance>
0.1949711740

$$$$
[H]OC(=O)[C@@]([H])(Oc1c(Br)c([H])c(-c2c([H])c([H])c(-c3c(C([H])([H])c4c([H])c([H])c([H])c([H])c4[H])oc4c([H])c([H])c([H])c([H])c34)c([H])c2[H])c([H])c1Br)C([H])([H])c1c([H])c([H])c([H])c([H])c1[H]


 43 48  0  0  0  0  0  0  0  0999 V2000
  155.0374  138.9299  184.5053 C   0  0  0  0  0  0  0  0  0  0  0  0
  156.3280  138.8382  184.9889 C   0  0  0  0  0  0  0  0  0  0  0  0
  157.2492  139.7610  184.5661 C   0  0  0  0  0  0  0  0  0  0  0  0
  156.9892  140.7851  183.6874 C   0  0  0  0  0  0  0  0  0  0  0  0
  155.6663  140.8435  183.2208 C   0  0  0  0  0  0  0  0  0  0  0  0
  154.7277  139.9387  183.6237 C   0  0  0  0  0  0  0  0  0  0  0  0
  157.9652  141.7466  183.2119 C   0  0  0  0  0  0  0  0  0  0  0  0
  158.8343  142.5332  183.8740 C   0  0  0  0  0  0  0  0  0  0  0  0
  159.5018  143.2816  182.9922 O   0  0  0  0  0  0  0  0  0  0  0  0
  159.1151  143.0262  181.7694 C   0  0  0  0  0  0  0  0  0  0  0  0
  159.4902  143.5217  180.5401 C   0  0  0  0  0  0  0  0  0  0  0  0
  158.9082  143.0673  179.3759 C   0  0  0  0  0  0  0  0  0  0  0  0
  157.9355  142.0964  179.4859 C   0  0  0  0  0  0  0  0  0  0  0  0
  157.5485  141.5889  180.7235 C   0  0  0  0  0  0  0  0  0  0  0  0
  158.1418  142.0593  181.8473 C   0  0  0  0  0  0  0  0  0  0  0  0
  159.1105  142.6466  185.3214 C   0  0  0  0  0  0  0  0  0  0  0  0
  160.5591  142.5835  185.5932 C   0  0  0  0  0  0  0  0  0  0  0  0
  161.5261  142.2163  184.7100 C   0  0  0  0  0  0  0  0  0  0  0  0
  162.8833  142.1894  185.0687 C   0  0  0  0  0  0  0  0  0  0  0  0
  163.2832  142.5355  186.3357 C   0  0  0  0  0  0  0  0  0  0  0  0
  162.3208  142.9106  187.2463 C   0  0  0  0  0  0  0  0  0  0  0  0
  160.9884  142.9341  186.8812 C   0  0  0  0  0  0  0  0  0  0  0  0
  151.9405  136.1507  185.5759 C   0  0  0  0  0  0  0  0  0  0  0  0
  152.6172  136.9007  186.5471 C   0  0  0  0  0  0  0  0  0  0  0  0
  152.1140  136.6736  188.3662 Br  0  0  0  0  0  0  0  0  0  0  0  0
  153.6133  137.7917  186.1995 C   0  0  0  0  0  0  0  0  0  0  0  0
  153.9911  137.9908  184.8928 C   0  0  0  0  0  0  0  0  0  0  0  0
  153.3287  137.2546  183.9222 C   0  0  0  0  0  0  0  0  0  0  0  0
  152.3202  136.3495  184.2802 C   0  0  0  0  0  0  0  0  0  0  0  0
  151.5662  135.3317  182.8259 Br  0  0  0  0  0  0  0  0  0  0  0  0
  150.9565  135.2605  185.9146 O   0  0  0  0  0  0  0  0  0  0  0  0
  149.6087  135.5608  186.2494 C   0  0  0  0  0  0  0  0  0  0  0  0
  149.9657  133.8488  187.9321 O   0  0  0  0  0  0  0  0  0  0  0  0
  149.1809  134.5002  187.1880 C   0  0  0  0  0  0  0  0  0  0  0  0
  147.8404  134.1540  187.3084 O   0  0  0  0  0  0  0  0  0  0  0  0
  147.2824  133.6942  186.6371 H   0  0  0  0  0  0  0  0  0  0  0  0
  148.6965  135.5852  185.0343 C   0  0  0  0  0  0  0  0  0  0  0  0
  148.2741  136.9375  184.6250 C   0  0  0  0  0  0  0  0  0  0  0  0
  147.7531  137.8103  185.5996 C   0  0  0  0  0  0  0  0  0  0  0  0
  147.3888  139.0877  185.2213 C   0  0  0  0  0  0  0  0  0  0  0  0
  147.5197  139.5341  183.9172 C   0  0  0  0  0  0  0  0  0  0  0  0
  148.0362  138.6409  182.9962 C   0  0  0  0  0  0  0  0  0  0  0  0
  148.4109  137.3630  183.3302 C   0  0  0  0  0  0  0  0  0  0  0  0
 33 34  2  0  0  0
 34 35  1  0  0  0
 34 32  1  0  0  0
 32 37  1  0  0  0
 37 38  1  0  0  0
 38 39  2  0  0  0
 39 40  1  0  0  0
 40 41  2  0  0  0
 41 42  1  0  0  0
 42 43  2  0  0  0
 32 31  1  0  0  0
 31 23  1  0  0  0
 23 24  2  0  0  0
 24 25  1  0  0  0
 24 26  1  0  0  0
 26 27  2  0  0  0
 27  1  1  0  0  0
  1  2  2  0  0  0
  2  3  1  0  0  0
  3  4  2  0  0  0
  4  7  1  0  0  0
  7  8  2  0  0  0
  8 16  1  0  0  0
 16 17  1  0  0  0
 17 18  2  0  0  0
 18 19  1  0  0  0
 19 20  2  0  0  0
 20 21  1  0  0  0
 21 22  2  0  0  0
  8  9  1  0  0  0
  9 10  1  0  0  0
 10 11  2  0  0  0
 11 12  1  0  0  0
 12 13  2  0  0  0
 13 14  1  0  0  0
 14 15  2  0  0  0
  4  5  1  0  0  0
  5  6  2  0  0  0
 27 28  1  0  0  0
 28 29  2  0  0  0
 29 30  1  0  0  0
 43 38  1  0  0  0
 29 23  1  0  0  0
  6  1  1  0  0  0
 15  7  1  0  0  0
 22 17  1  0  0  0
 15 10  1  0  0  0
 35 36  1  0  0  0
M  END
> <minimizedAffinity>
-9.84465

> <CNNscore>
0.2341487855

> <CNNaffinity>
6.9709610939

> <CNN_VS>
1.6322420835

> <CNNaffinity_variance>
0.1675684899

$$$$
[H]c1c(F)c(C(=O)N([H])S(=O)(=O)C2([H])C([H])([H])C2([H])[H])c([H])c(C2([H])C([H])([H])C2([H])[H])c1OC([H])([H])C1([H])C([H])([H])C([H])([H])C([H])(C(F)(F)F)C([H])([H])C1([H])[H]


 32 35  0  0  0  0  0  0  0  0999 V2000
  153.3833  137.9481  183.8731 C   0  0  0  0  0  0  0  0  0  0  0  0
  152.8118  138.4838  182.7135 C   0  0  0  0  0  0  0  0  0  0  0  0
  153.0879  139.7283  182.2454 C   0  0  0  0  0  0  0  0  0  0  0  0
  153.9998  140.5759  182.9317 C   0  0  0  0  0  0  0  0  0  0  0  0
  154.5544  140.0303  184.0727 C   0  0  0  0  0  0  0  0  0  0  0  0
  154.2539  138.7501  184.5320 C   0  0  0  0  0  0  0  0  0  0  0  0
  154.8422  138.3310  185.6562 F   0  0  0  0  0  0  0  0  0  0  0  0
  153.9363  135.7639  184.4994 O   0  0  0  0  0  0  0  0  0  0  0  0
  152.9964  136.6017  184.2339 C   0  0  0  0  0  0  0  0  0  0  0  0
  151.7017  136.0886  184.3337 N   0  0  0  0  0  0  0  0  0  0  0  0
  150.8690  136.6576  184.1611 H   0  0  0  0  0  0  0  0  0  0  0  0
  151.4254  134.4468  184.7762 S   0  0  0  0  0  0  0  0  0  0  0  0
  149.9447  134.1855  184.9145 O   0  0  0  0  0  0  0  0  0  0  0  0
  152.0643  134.1140  186.0902 O   0  0  0  0  0  0  0  0  0  0  0  0
  152.0686  133.3483  183.5038 C   0  0  0  0  0  0  0  0  0  0  0  0
  151.1066  132.5506  182.6850 C   0  0  0  0  0  0  0  0  0  0  0  0
  151.6729  133.7861  182.1049 C   0  0  0  0  0  0  0  0  0  0  0  0
  152.4521  140.2906  181.0103 C   0  0  0  0  0  0  0  0  0  0  0  0
  152.0910  139.4433  179.8690 C   0  0  0  0  0  0  0  0  0  0  0  0
  151.0037  139.8349  180.7988 C   0  0  0  0  0  0  0  0  0  0  0  0
  154.2348  141.7767  182.4263 O   0  0  0  0  0  0  0  0  0  0  0  0
  155.1342  142.7122  182.2634 C   0  0  0  0  0  0  0  0  0  0  0  0
  156.5969  142.5063  182.3485 C   0  0  0  0  0  0  0  0  0  0  0  0
  157.1547  141.5552  181.3066 C   0  0  0  0  0  0  0  0  0  0  0  0
  158.3338  140.8780  181.9467 C   0  0  0  0  0  0  0  0  0  0  0  0
  159.3387  141.8448  182.4336 C   0  0  0  0  0  0  0  0  0  0  0  0
  158.9625  143.2520  182.6492 C   0  0  0  0  0  0  0  0  0  0  0  0
  157.5215  143.6354  182.4744 C   0  0  0  0  0  0  0  0  0  0  0  0
  160.0809  141.2877  183.6751 C   0  0  0  0  0  0  0  0  0  0  0  0
  159.7991  139.9746  183.8912 F   0  0  0  0  0  0  0  0  0  0  0  0
  161.4502  141.3892  183.4700 F   0  0  0  0  0  0  0  0  0  0  0  0
  159.7959  142.0522  184.7777 F   0  0  0  0  0  0  0  0  0  0  0  0
  8  9  2  0  0  0
  9 10  1  0  0  0
 10 12  1  0  0  0
 12 13  2  0  0  0
 12 14  2  0  0  0
 12 15  1  0  0  0
 15 16  1  0  0  0
 16 17  1  0  0  0
  9  1  1  0  0  0
  1  2  2  0  0  0
  2  3  1  0  0  0
  3 18  1  0  0  0
 18 19  1  0  0  0
 19 20  1  0  0  0
  3  4  2  0  0  0
  4 21  1  0  0  0
 21 22  1  0  0  0
 22 23  1  0  0  0
 23 24  1  0  0  0
 24 25  1  0  0  0
 25 26  1  0  0  0
 26 29  1  0  0  0
 29 30  1  0  0  0
 29 31  1  0  0  0
 29 32  1  0  0  0
 26 27  1  0  0  0
 27 28  1  0  0  0
  4  5  1  0  0  0
  5  6  2  0  0  0
  6  7  1  0  0  0
 17 15  1  0  0  0
  6  1  1  0  0  0
 20 18  1  0  0  0
 28 23  1  0  0  0
 10 11  1  0  0  0
M  END
> <minimizedAffinity>
-7.25262

> <CNNscore>
0.5375775695

> <CNNaffinity>
6.5381660461

> <CNN_VS>
3.5147714615

> <CNNaffinity_variance>
0.0996023864

$$$$
[H]c1c(F)c(C(=O)N([H])S(=O)(=O)C2([H])C([H])([H])C2([H])[H])c([H])c(C2([H])C([H])([H])C2([H])[H])c1OC([H])([H])C1([H])C([H])([H])C([H])([H])C([H])(C(F)(F)F)C([H])([H])C1([H])[H]


 32 35  0  0  0  0  0  0  0  0999 V2000
  150.6958  138.7903  181.0730 C   0  0  0  0  0  0  0  0  0  0  0  0
  151.3366  138.3345  182.2305 C   0  0  0  0  0  0  0  0  0  0  0  0
  152.5195  138.8284  182.6788 C   0  0  0  0  0  0  0  0  0  0  0  0
  153.1871  139.8657  181.9722 C   0  0  0  0  0  0  0  0  0  0  0  0
  152.5397  140.3034  180.8335 C   0  0  0  0  0  0  0  0  0  0  0  0
  151.3260  139.7793  180.3949 C   0  0  0  0  0  0  0  0  0  0  0  0
  150.7975  140.2724  179.2710 F   0  0  0  0  0  0  0  0  0  0  0  0
  148.3573  138.7893  181.0748 O   0  0  0  0  0  0  0  0  0  0  0  0
  149.4331  138.1708  180.7345 C   0  0  0  0  0  0  0  0  0  0  0  0
  149.2333  136.9601  180.0685 N   0  0  0  0  0  0  0  0  0  0  0  0
  150.0079  136.3810  179.7344 H   0  0  0  0  0  0  0  0  0  0  0  0
  147.6468  136.3690  179.7506 S   0  0  0  0  0  0  0  0  0  0  0  0
  146.8328  136.3483  181.0221 O   0  0  0  0  0  0  0  0  0  0  0  0
  147.6758  134.9703  179.2136 O   0  0  0  0  0  0  0  0  0  0  0  0
  146.8126  137.4440  178.5725 C   0  0  0  0  0  0  0  0  0  0  0  0
  147.6119  138.0750  177.4793 C   0  0  0  0  0  0  0  0  0  0  0  0
  146.8115  136.8730  177.1656 C   0  0  0  0  0  0  0  0  0  0  0  0
  153.1986  138.3147  183.9120 C   0  0  0  0  0  0  0  0  0  0  0  0
  152.6525  137.1982  184.6906 C   0  0  0  0  0  0  0  0  0  0  0  0
  153.7681  136.8996  183.7598 C   0  0  0  0  0  0  0  0  0  0  0  0
  154.3346  140.3120  182.4586 O   0  0  0  0  0  0  0  0  0  0  0  0
  155.3318  141.1357  182.2638 C   0  0  0  0  0  0  0  0  0  0  0  0
  156.7077  140.9360  182.7696 C   0  0  0  0  0  0  0  0  0  0  0  0
  156.8145  139.9452  183.9133 C   0  0  0  0  0  0  0  0  0  0  0  0
  157.9636  140.4093  184.7633 C   0  0  0  0  0  0  0  0  0  0  0  0
  159.2179  140.5289  183.9925 C   0  0  0  0  0  0  0  0  0  0  0  0
  159.1737  140.6175  182.5233 C   0  0  0  0  0  0  0  0  0  0  0  0
  157.8302  140.7006  181.8583 C   0  0  0  0  0  0  0  0  0  0  0  0
  160.1159  141.6503  184.5746 C   0  0  0  0  0  0  0  0  0  0  0  0
  159.9249  141.8145  185.9112 F   0  0  0  0  0  0  0  0  0  0  0  0
  161.4485  141.3103  184.3851 F   0  0  0  0  0  0  0  0  0  0  0  0
  159.9128  142.8209  183.8890 F   0  0  0  0  0  0  0  0  0  0  0  0
  8  9  2  0  0  0
  9 10  1  0  0  0
 10 12  1  0  0  0
 12 13  2  0  0  0
 12 14  2  0  0  0
 12 15  1  0  0  0
 15 16  1  0  0  0
 16 17  1  0  0  0
  9  1  1  0  0  0
  1  2  2  0  0  0
  2  3  1  0  0  0
  3 18  1  0  0  0
 18 19  1  0  0  0
 19 20  1  0  0  0
  3  4  2  0  0  0
  4 21  1  0  0  0
 21 22  1  0  0  0
 22 23  1  0  0  0
 23 24  1  0  0  0
 24 25  1  0  0  0
 25 26  1  0  0  0
 26 29  1  0  0  0
 29 30  1  0  0  0
 29 31  1  0  0  0
 29 32  1  0  0  0
 26 27  1  0  0  0
 27 28  1  0  0  0
  4  5  1  0  0  0
  5  6  2  0  0  0
  6  7  1  0  0  0
 17 15  1  0  0  0
  6  1  1  0  0  0
 20 18  1  0  0  0
 28 23  1  0  0  0
 10 11  1  0  0  0
M  END
> <minimizedAffinity>
-7.69388

> <CNNscore>
0.5315513611

> <CNNaffinity>
6.1939325333

> <CNN_VS>
3.2923932076

> <CNNaffinity_variance>
0.1188187972

$$$$
[H]c1c(F)c(C(=O)N([H])S(=O)(=O)C2([H])C([H])([H])C2([H])[H])c([H])c(C2([H])C([H])([H])C2([H])[H])c1OC([H])([H])C1([H])C([H])([H])C([H])([H])C([H])(C(F)(F)F)C([H])([H])C1([H])[H]


 32 35  0  0  0  0  0  0  0  0999 V2000
  152.4115  139.3862  182.0448 C   0  0  0  0  0  0  0  0  0  0  0  0
  153.0533  140.6289  182.0907 C   0  0  0  0  0  0  0  0  0  0  0  0
  154.1400  140.8854  182.8636 C   0  0  0  0  0  0  0  0  0  0  0  0
  154.6972  139.8726  183.6910 C   0  0  0  0  0  0  0  0  0  0  0  0
  154.0516  138.6532  183.6320 C   0  0  0  0  0  0  0  0  0  0  0  0
  152.9375  138.4160  182.8303 C   0  0  0  0  0  0  0  0  0  0  0  0
  152.3868  137.1989  182.8629 F   0  0  0  0  0  0  0  0  0  0  0  0
  150.9923  140.2775  180.4137 O   0  0  0  0  0  0  0  0  0  0  0  0
  151.2723  139.2680  181.1609 C   0  0  0  0  0  0  0  0  0  0  0  0
  150.4223  138.1702  181.0141 N   0  0  0  0  0  0  0  0  0  0  0  0
  150.5475  137.3024  181.5414 H   0  0  0  0  0  0  0  0  0  0  0  0
  149.1026  138.2066  179.9075 S   0  0  0  0  0  0  0  0  0  0  0  0
  148.5999  136.8066  179.6481 O   0  0  0  0  0  0  0  0  0  0  0  0
  149.5047  138.7907  178.5874 O   0  0  0  0  0  0  0  0  0  0  0  0
  147.7455  139.1669  180.5972 C   0  0  0  0  0  0  0  0  0  0  0  0
  146.8124  138.5091  181.5609 C   0  0  0  0  0  0  0  0  0  0  0  0
  147.8843  139.3751  182.0947 C   0  0  0  0  0  0  0  0  0  0  0  0
  154.8030  142.2285  182.9118 C   0  0  0  0  0  0  0  0  0  0  0  0
  154.1097  143.4516  182.4943 C   0  0  0  0  0  0  0  0  0  0  0  0
  154.1968  143.1799  183.9498 C   0  0  0  0  0  0  0  0  0  0  0  0
  155.7599  140.1780  184.4191 O   0  0  0  0  0  0  0  0  0  0  0  0
  157.0622  140.2991  184.4139 C   0  0  0  0  0  0  0  0  0  0  0  0
  157.8497  140.9417  183.3388 C   0  0  0  0  0  0  0  0  0  0  0  0
  159.2011  141.4675  183.7842 C   0  0  0  0  0  0  0  0  0  0  0  0
  159.4866  142.6680  182.9265 C   0  0  0  0  0  0  0  0  0  0  0  0
  159.4450  142.3490  181.4849 C   0  0  0  0  0  0  0  0  0  0  0  0
  158.7603  141.1312  181.0197 C   0  0  0  0  0  0  0  0  0  0  0  0
  158.0187  140.3049  182.0304 C   0  0  0  0  0  0  0  0  0  0  0  0
  158.9789  143.5780  180.6633 C   0  0  0  0  0  0  0  0  0  0  0  0
  159.1368  144.7409  181.3510 F   0  0  0  0  0  0  0  0  0  0  0  0
  159.7458  143.6715  179.5098 F   0  0  0  0  0  0  0  0  0  0  0  0
  157.6810  143.4071  180.2536 F   0  0  0  0  0  0  0  0  0  0  0  0
  8  9  2  0  0  0
  9 10  1  0  0  0
 10 12  1  0  0  0
 12 13  2  0  0  0
 12 14  2  0  0  0
 12 15  1  0  0  0
 15 16  1  0  0  0
 16 17  1  0  0  0
  9  1  1  0  0  0
  1  2  2  0  0  0
  2  3  1  0  0  0
  3 18  1  0  0  0
 18 19  1  0  0  0
 19 20  1  0  0  0
  3  4  2  0  0  0
  4 21  1  0  0  0
 21 22  1  0  0  0
 22 23  1  0  0  0
 23 24  1  0  0  0
 24 25  1  0  0  0
 25 26  1  0  0  0
 26 29  1  0  0  0
 29 30  1  0  0  0
 29 31  1  0  0  0
 29 32  1  0  0  0
 26 27  1  0  0  0
 27 28  1  0  0  0
  4  5  1  0  0  0
  5  6  2  0  0  0
  6  7  1  0  0  0
 17 15  1  0  0  0
  6  1  1  0  0  0
 20 18  1  0  0  0
 28 23  1  0  0  0
 10 11  1  0  0  0
M  END
> <minimizedAffinity>
-9.15450

> <CNNscore>
0.4923586845

> <CNNaffinity>
6.7034044266

> <CNN_VS>
3.3004794121

> <CNNaffinity_variance>
0.0275833867

$$$$
[H]c1c(F)c(C(=O)N([H])S(=O)(=O)C2([H])C([H])([H])C2([H])[H])c([H])c(C2([H])C([H])([H])C2([H])[H])c1OC([H])([H])C1([H])C([H])([H])C([H])([H])C([H])(C(F)(F)F)C([H])([H])C1([H])[H]


 32 35  0  0  0  0  0  0  0  0999 V2000
  153.6513  138.0442  183.8611 C   0  0  0  0  0  0  0  0  0  0  0  0
  153.0315  138.5232  182.7015 C   0  0  0  0  0  0  0  0  0  0  0  0
  153.0946  139.8175  182.2953 C   0  0  0  0  0  0  0  0  0  0  0  0
  153.8159  140.7809  183.0519 C   0  0  0  0  0  0  0  0  0  0  0  0
  154.4215  140.2902  184.1919 C   0  0  0  0  0  0  0  0  0  0  0  0
  154.3411  138.9568  184.5867 C   0  0  0  0  0  0  0  0  0  0  0  0
  154.9577  138.5971  185.7164 F   0  0  0  0  0  0  0  0  0  0  0  0
  152.5715  136.2930  184.9727 O   0  0  0  0  0  0  0  0  0  0  0  0
  153.5011  136.6350  184.1515 C   0  0  0  0  0  0  0  0  0  0  0  0
  154.2549  135.5777  183.6384 N   0  0  0  0  0  0  0  0  0  0  0  0
  155.0136  135.7175  182.9663 H   0  0  0  0  0  0  0  0  0  0  0  0
  153.9364  133.9492  184.1012 S   0  0  0  0  0  0  0  0  0  0  0  0
  154.9266  133.0168  183.4455 O   0  0  0  0  0  0  0  0  0  0  0  0
  152.5651  133.5141  183.6821 O   0  0  0  0  0  0  0  0  0  0  0  0
  154.1006  133.7714  185.8847 C   0  0  0  0  0  0  0  0  0  0  0  0
  155.1091  132.8103  186.4246 C   0  0  0  0  0  0  0  0  0  0  0  0
  155.4492  134.2480  186.3938 C   0  0  0  0  0  0  0  0  0  0  0  0
  152.4092  140.3146  181.0588 C   0  0  0  0  0  0  0  0  0  0  0  0
  152.0971  139.4263  179.9343 C   0  0  0  0  0  0  0  0  0  0  0  0
  150.9942  139.7560  180.8697 C   0  0  0  0  0  0  0  0  0  0  0  0
  153.8477  142.0268  182.6051 O   0  0  0  0  0  0  0  0  0  0  0  0
  154.6204  143.0444  182.3258 C   0  0  0  0  0  0  0  0  0  0  0  0
  156.0991  143.0235  182.3701 C   0  0  0  0  0  0  0  0  0  0  0  0
  156.7328  141.9255  181.5370 C   0  0  0  0  0  0  0  0  0  0  0  0
  158.0037  141.5450  182.2430 C   0  0  0  0  0  0  0  0  0  0  0  0
  158.9015  142.7008  182.4423 C   0  0  0  0  0  0  0  0  0  0  0  0
  158.3676  144.0706  182.3589 C   0  0  0  0  0  0  0  0  0  0  0  0
  156.8864  144.2450  182.1864 C   0  0  0  0  0  0  0  0  0  0  0  0
  159.7436  142.5267  183.7319 C   0  0  0  0  0  0  0  0  0  0  0  0
  160.7743  141.6570  183.5545 F   0  0  0  0  0  0  0  0  0  0  0  0
  160.2918  143.7521  184.0860 F   0  0  0  0  0  0  0  0  0  0  0  0
  158.9372  142.1466  184.7743 F   0  0  0  0  0  0  0  0  0  0  0  0
  8  9  2  0  0  0
  9 10  1  0  0  0
 10 12  1  0  0  0
 12 13  2  0  0  0
 12 14  2  0  0  0
 12 15  1  0  0  0
 15 16  1  0  0  0
 16 17  1  0  0  0
  9  1  1  0  0  0
  1  2  2  0  0  0
  2  3  1  0  0  0
  3 18  1  0  0  0
 18 19  1  0  0  0
 19 20  1  0  0  0
  3  4  2  0  0  0
  4 21  1  0  0  0
 21 22  1  0  0  0
 22 23  1  0  0  0
 23 24  1  0  0  0
 24 25  1  0  0  0
 25 26  1  0  0  0
 26 29  1  0  0  0
 29 30  1  0  0  0
 29 31  1  0  0  0
 29 32  1  0  0  0
 26 27  1  0  0  0
 27 28  1  0  0  0
  4  5  1  0  0  0
  5  6  2  0  0  0
  6  7  1  0  0  0
 17 15  1  0  0  0
  6  1  1  0  0  0
 20 18  1  0  0  0
 28 23  1  0  0  0
 10 11  1  0  0  0
M  END
> <minimizedAffinity>
-7.49103

> <CNNscore>
0.4569862485

> <CNNaffinity>
6.6032972336

> <CNN_VS>
3.0176160336

> <CNNaffinity_variance>
0.1255375296

$$$$
[H]c1c(F)c(C(=O)N([H])S(=O)(=O)C2([H])C([H])([H])C2([H])[H])c([H])c(C2([H])C([H])([H])C2([H])[H])c1OC([H])([H])C1([H])C([H])([H])C([H])([H])C([H])(C(F)(F)F)C([H])([H])C1([H])[H]


 32 35  0  0  0  0  0  0  0  0999 V2000
  152.1466  139.1701  182.1110 C   0  0  0  0  0  0  0  0  0  0  0  0
  152.8623  138.8047  183.2566 C   0  0  0  0  0  0  0  0  0  0  0  0
  153.9306  139.4979  183.7283 C   0  0  0  0  0  0  0  0  0  0  0  0
  154.3897  140.6660  183.0607 C   0  0  0  0  0  0  0  0  0  0  0  0
  153.6711  141.0116  181.9332 C   0  0  0  0  0  0  0  0  0  0  0  0
  152.5782  140.2827  181.4700 C   0  0  0  0  0  0  0  0  0  0  0  0
  151.9657  140.7047  180.3598 F   0  0  0  0  0  0  0  0  0  0  0  0
  151.2780  137.1373  181.3479 O   0  0  0  0  0  0  0  0  0  0  0  0
  151.0238  138.3348  181.7442 C   0  0  0  0  0  0  0  0  0  0  0  0
  149.6696  138.6740  181.7696 N   0  0  0  0  0  0  0  0  0  0  0  0
  149.3374  139.5912  182.0783 H   0  0  0  0  0  0  0  0  0  0  0  0
  148.4591  137.5456  181.2911 S   0  0  0  0  0  0  0  0  0  0  0  0
  147.0843  138.1179  181.5399 O   0  0  0  0  0  0  0  0  0  0  0  0
  148.5595  136.2665  182.0653 O   0  0  0  0  0  0  0  0  0  0  0  0
  148.6057  137.1925  179.5323 C   0  0  0  0  0  0  0  0  0  0  0  0
  147.5503  137.6989  178.6039 C   0  0  0  0  0  0  0  0  0  0  0  0
  148.8208  138.4469  178.7045 C   0  0  0  0  0  0  0  0  0  0  0  0
  154.6948  139.0804  184.9480 C   0  0  0  0  0  0  0  0  0  0  0  0
  154.0263  138.5322  186.1326 C   0  0  0  0  0  0  0  0  0  0  0  0
  154.6697  137.5694  185.2057 C   0  0  0  0  0  0  0  0  0  0  0  0
  155.4323  141.3044  183.5688 O   0  0  0  0  0  0  0  0  0  0  0  0
  156.4234  142.1160  183.3045 C   0  0  0  0  0  0  0  0  0  0  0  0
  157.7768  142.0219  183.8946 C   0  0  0  0  0  0  0  0  0  0  0  0
  157.9275  140.9328  184.9398 C   0  0  0  0  0  0  0  0  0  0  0  0
  158.9526  141.4313  185.9191 C   0  0  0  0  0  0  0  0  0  0  0  0
  160.2313  141.7756  185.2648 C   0  0  0  0  0  0  0  0  0  0  0  0
  160.2741  142.0158  183.8126 C   0  0  0  0  0  0  0  0  0  0  0  0
  158.9775  142.0156  183.0555 C   0  0  0  0  0  0  0  0  0  0  0  0
  160.9453  142.9234  186.0234 C   0  0  0  0  0  0  0  0  0  0  0  0
  162.2356  142.6128  186.3212 F   0  0  0  0  0  0  0  0  0  0  0  0
  160.9665  144.0555  185.2200 F   0  0  0  0  0  0  0  0  0  0  0  0
  160.2353  143.2590  187.1481 F   0  0  0  0  0  0  0  0  0  0  0  0
  8  9  2  0  0  0
  9 10  1  0  0  0
 10 12  1  0  0  0
 12 13  2  0  0  0
 12 14  2  0  0  0
 12 15  1  0  0  0
 15 16  1  0  0  0
 16 17  1  0  0  0
  9  1  1  0  0  0
  1  2  2  0  0  0
  2  3  1  0  0  0
  3 18  1  0  0  0
 18 19  1  0  0  0
 19 20  1  0  0  0
  3  4  2  0  0  0
  4 21  1  0  0  0
 21 22  1  0  0  0
 22 23  1  0  0  0
 23 24  1  0  0  0
 24 25  1  0  0  0
 25 26  1  0  0  0
 26 29  1  0  0  0
 29 30  1  0  0  0
 29 31  1  0  0  0
 29 32  1  0  0  0
 26 27  1  0  0  0
 27 28  1  0  0  0
  4  5  1  0  0  0
  5  6  2  0  0  0
  6  7  1  0  0  0
 17 15  1  0  0  0
  6  1  1  0  0  0
 20 18  1  0  0  0
 28 23  1  0  0  0
 10 11  1  0  0  0
M  END
> <minimizedAffinity>
-8.75854

> <CNNscore>
0.3642553389

> <CNNaffinity>
6.2821059227

> <CNN_VS>
2.2882907391

> <CNNaffinity_variance>
0.0579887852

$$$$
[H]c1c(F)c(C(=O)N([H])S(=O)(=O)C2([H])C([H])([H])C2([H])[H])c([H])c(C2([H])C([H])([H])C2([H])[H])c1OC([H])([H])C1([H])C([H])([H])C([H])([H])C([H])(C(F)(F)F)C([H])([H])C1([H])[H]


 32 35  0  0  0  0  0  0  0  0999 V2000
  152.1461  139.2339  182.0911 C   0  0  0  0  0  0  0  0  0  0  0  0
  152.8378  138.8874  183.2572 C   0  0  0  0  0  0  0  0  0  0  0  0
  153.9296  139.5561  183.7102 C   0  0  0  0  0  0  0  0  0  0  0  0
  154.4405  140.6765  183.0000 C   0  0  0  0  0  0  0  0  0  0  0  0
  153.7449  141.0042  181.8528 C   0  0  0  0  0  0  0  0  0  0  0  0
  152.6272  140.3012  181.4094 C   0  0  0  0  0  0  0  0  0  0  0  0
  152.0406  140.7016  180.2774 F   0  0  0  0  0  0  0  0  0  0  0  0
  151.0949  137.1549  181.8886 O   0  0  0  0  0  0  0  0  0  0  0  0
  150.9934  138.4299  181.7482 C   0  0  0  0  0  0  0  0  0  0  0  0
  149.7576  138.8760  181.2757 N   0  0  0  0  0  0  0  0  0  0  0  0
  149.5473  139.8674  181.1347 H   0  0  0  0  0  0  0  0  0  0  0  0
  148.4896  137.7680  180.9125 S   0  0  0  0  0  0  0  0  0  0  0  0
  149.0460  136.5454  180.2231 O   0  0  0  0  0  0  0  0  0  0  0  0
  147.4712  138.3753  179.9962 O   0  0  0  0  0  0  0  0  0  0  0  0
  147.6840  137.2333  182.4306 C   0  0  0  0  0  0  0  0  0  0  0  0
  148.1524  137.7955  183.7331 C   0  0  0  0  0  0  0  0  0  0  0  0
  146.9336  138.3604  183.1174 C   0  0  0  0  0  0  0  0  0  0  0  0
  154.6670  139.1587  184.9528 C   0  0  0  0  0  0  0  0  0  0  0  0
  153.9838  138.5522  186.1001 C   0  0  0  0  0  0  0  0  0  0  0  0
  154.7163  137.6441  185.1844 C   0  0  0  0  0  0  0  0  0  0  0  0
  155.5041  141.2930  183.4913 O   0  0  0  0  0  0  0  0  0  0  0  0
  156.5096  142.0809  183.2104 C   0  0  0  0  0  0  0  0  0  0  0  0
  157.8519  141.9951  183.8266 C   0  0  0  0  0  0  0  0  0  0  0  0
  157.9453  141.0212  184.9858 C   0  0  0  0  0  0  0  0  0  0  0  0
  158.9814  141.5802  185.9198 C   0  0  0  0  0  0  0  0  0  0  0  0
  160.2801  141.7972  185.2504 C   0  0  0  0  0  0  0  0  0  0  0  0
  160.3473  141.8755  183.7815 C   0  0  0  0  0  0  0  0  0  0  0  0
  159.0593  141.8470  183.0105 C   0  0  0  0  0  0  0  0  0  0  0  0
  161.0356  142.9899  185.8901 C   0  0  0  0  0  0  0  0  0  0  0  0
  160.5605  143.2892  187.1290 F   0  0  0  0  0  0  0  0  0  0  0  0
  162.3761  142.6570  186.0297 F   0  0  0  0  0  0  0  0  0  0  0  0
  160.9908  144.0785  185.0567 F   0  0  0  0  0  0  0  0  0  0  0  0
  8  9  2  0  0  0
  9 10  1  0  0  0
 10 12  1  0  0  0
 12 13  2  0  0  0
 12 14  2  0  0  0
 12 15  1  0  0  0
 15 16  1  0  0  0
 16 17  1  0  0  0
  9  1  1  0  0  0
  1  2  2  0  0  0
  2  3  1  0  0  0
  3 18  1  0  0  0
 18 19  1  0  0  0
 19 20  1  0  0  0
  3  4  2  0  0  0
  4 21  1  0  0  0
 21 22  1  0  0  0
 22 23  1  0  0  0
 23 24  1  0  0  0
 24 25  1  0  0  0
 25 26  1  0  0  0
 26 29  1  0  0  0
 29 30  1  0  0  0
 29 31  1  0  0  0
 29 32  1  0  0  0
 26 27  1  0  0  0
 27 28  1  0  0  0
  4  5  1  0  0  0
  5  6  2  0  0  0
  6  7  1  0  0  0
 17 15  1  0  0  0
  6  1  1  0  0  0
 20 18  1  0  0  0
 28 23  1  0  0  0
 10 11  1  0  0  0
M  END
> <minimizedAffinity>
-8.30698

> <CNNscore>
0.3517787755

> <CNNaffinity>
6.3675656319

> <CNN_VS>
2.2399744987

> <CNNaffinity_variance>
0.0642641559

$$$$
[H]c1c(F)c(C(=O)N([H])S(=O)(=O)C2([H])C([H])([H])C2([H])[H])c([H])c(C2([H])C([H])([H])C2([H])[H])c1OC([H])([H])C1([H])C([H])([H])C([H])([H])C([H])(C(F)(F)F)C([H])([H])C1([H])[H]


 32 35  0  0  0  0  0  0  0  0999 V2000
  152.5834  138.6310  182.3888 C   0  0  0  0  0  0  0  0  0  0  0  0
  153.2393  139.8514  182.5854 C   0  0  0  0  0  0  0  0  0  0  0  0
  154.2645  140.0214  183.4597 C   0  0  0  0  0  0  0  0  0  0  0  0
  154.7373  138.9339  184.2437 C   0  0  0  0  0  0  0  0  0  0  0  0
  154.0790  137.7378  184.0357 C   0  0  0  0  0  0  0  0  0  0  0  0
  153.0292  137.5900  183.1322 C   0  0  0  0  0  0  0  0  0  0  0  0
  152.4583  136.3867  183.0229 F   0  0  0  0  0  0  0  0  0  0  0  0
  151.8479  138.4957  180.1732 O   0  0  0  0  0  0  0  0  0  0  0  0
  151.5171  138.6089  181.4115 C   0  0  0  0  0  0  0  0  0  0  0  0
  150.1443  138.6951  181.6510 N   0  0  0  0  0  0  0  0  0  0  0  0
  149.7537  138.7745  182.5934 H   0  0  0  0  0  0  0  0  0  0  0  0
  149.0093  138.6558  180.3557 S   0  0  0  0  0  0  0  0  0  0  0  0
  149.5464  139.4172  179.1676 O   0  0  0  0  0  0  0  0  0  0  0  0
  147.7073  139.2886  180.7429 O   0  0  0  0  0  0  0  0  0  0  0  0
  148.7179  136.9556  179.8423 C   0  0  0  0  0  0  0  0  0  0  0  0
  147.4596  136.2763  180.2752 C   0  0  0  0  0  0  0  0  0  0  0  0
  147.5296  136.8276  178.9060 C   0  0  0  0  0  0  0  0  0  0  0  0
  154.9429  141.3413  183.6684 C   0  0  0  0  0  0  0  0  0  0  0  0
  155.9948  141.8241  182.7677 C   0  0  0  0  0  0  0  0  0  0  0  0
  154.6306  142.3754  182.5807 C   0  0  0  0  0  0  0  0  0  0  0  0
  155.7429  139.1567  185.0755 O   0  0  0  0  0  0  0  0  0  0  0  0
  156.4108  138.6874  186.0974 C   0  0  0  0  0  0  0  0  0  0  0  0
  155.8043  138.2065  187.3582 C   0  0  0  0  0  0  0  0  0  0  0  0
  154.2920  138.3166  187.4049 C   0  0  0  0  0  0  0  0  0  0  0  0
  153.9339  138.5545  188.8449 C   0  0  0  0  0  0  0  0  0  0  0  0
  154.4572  137.4975  189.7341 C   0  0  0  0  0  0  0  0  0  0  0  0
  155.5518  136.6254  189.2764 C   0  0  0  0  0  0  0  0  0  0  0  0
  156.1845  136.9203  187.9472 C   0  0  0  0  0  0  0  0  0  0  0  0
  154.7733  138.0688  191.1400 C   0  0  0  0  0  0  0  0  0  0  0  0
  155.9597  137.6100  191.6219 F   0  0  0  0  0  0  0  0  0  0  0  0
  154.8662  139.4516  191.0587 F   0  0  0  0  0  0  0  0  0  0  0  0
  153.7410  137.7991  192.0020 F   0  0  0  0  0  0  0  0  0  0  0  0
  8  9  2  0  0  0
  9 10  1  0  0  0
 10 12  1  0  0  0
 12 13  2  0  0  0
 12 14  2  0  0  0
 12 15  1  0  0  0
 15 16  1  0  0  0
 16 17  1  0  0  0
  9  1  1  0  0  0
  1  2  2  0  0  0
  2  3  1  0  0  0
  3 18  1  0  0  0
 18 19  1  0  0  0
 19 20  1  0  0  0
  3  4  2  0  0  0
  4 21  1  0  0  0
 21 22  1  0  0  0
 22 23  1  0  0  0
 23 24  1  0  0  0
 24 25  1  0  0  0
 25 26  1  0  0  0
 26 29  1  0  0  0
 29 30  1  0  0  0
 29 31  1  0  0  0
 29 32  1  0  0  0
 26 27  1  0  0  0
 27 28  1  0  0  0
  4  5  1  0  0  0
  5  6  2  0  0  0
  6  7  1  0  0  0
 17 15  1  0  0  0
  6  1  1  0  0  0
 20 18  1  0  0  0
 28 23  1  0  0  0
 10 11  1  0  0  0
M  END
> <minimizedAffinity>
-7.36037

> <CNNscore>
0.3258468211

> <CNNaffinity>
5.9239091873

> <CNN_VS>
1.9302870035

> <CNNaffinity_variance>
0.1108041629

$$$$
[H]c1c(F)c(C(=O)N([H])S(=O)(=O)C2([H])C([H])([H])C2([H])[H])c([H])c(C2([H])C([H])([H])C2([H])[H])c1OC([H])([H])C1([H])C([H])([H])C([H])([H])C([H])(C(F)(F)F)C([H])([H])C1([H])[H]


 32 35  0  0  0  0  0  0  0  0999 V2000
  152.2761  137.1777  185.1041 C   0  0  0  0  0  0  0  0  0  0  0  0
  153.1426  137.3719  186.1857 C   0  0  0  0  0  0  0  0  0  0  0  0
  154.2543  138.1496  186.1279 C   0  0  0  0  0  0  0  0  0  0  0  0
  154.6045  138.8266  184.9279 C   0  0  0  0  0  0  0  0  0  0  0  0
  153.7377  138.6241  183.8719 C   0  0  0  0  0  0  0  0  0  0  0  0
  152.6033  137.8204  183.9574 C   0  0  0  0  0  0  0  0  0  0  0  0
  151.8430  137.6875  182.8665 F   0  0  0  0  0  0  0  0  0  0  0  0
  150.3305  136.6473  186.2882 O   0  0  0  0  0  0  0  0  0  0  0  0
  151.1262  136.3290  185.3284 C   0  0  0  0  0  0  0  0  0  0  0  0
  150.7645  135.1841  184.6158 N   0  0  0  0  0  0  0  0  0  0  0  0
  151.3074  134.8352  183.8219 H   0  0  0  0  0  0  0  0  0  0  0  0
  149.3523  134.2874  185.0272 S   0  0  0  0  0  0  0  0  0  0  0  0
  149.0833  133.2294  183.9841 O   0  0  0  0  0  0  0  0  0  0  0  0
  148.1408  135.1665  185.0972 O   0  0  0  0  0  0  0  0  0  0  0  0
  149.5844  133.4629  186.6101 C   0  0  0  0  0  0  0  0  0  0  0  0
  148.6664  133.7979  187.7401 C   0  0  0  0  0  0  0  0  0  0  0  0
  148.4179  132.5607  186.9712 C   0  0  0  0  0  0  0  0  0  0  0  0
  155.1794  138.3313  187.2928 C   0  0  0  0  0  0  0  0  0  0  0  0
  154.8093  137.9156  188.6497 C   0  0  0  0  0  0  0  0  0  0  0  0
  155.7004  137.0142  187.8792 C   0  0  0  0  0  0  0  0  0  0  0  0
  155.6963  139.5753  184.9312 O   0  0  0  0  0  0  0  0  0  0  0  0
  157.0032  139.5625  184.8795 C   0  0  0  0  0  0  0  0  0  0  0  0
  157.8189  140.2738  183.8708 C   0  0  0  0  0  0  0  0  0  0  0  0
  159.0289  140.9906  184.4395 C   0  0  0  0  0  0  0  0  0  0  0  0
  159.2520  142.1929  183.5660 C   0  0  0  0  0  0  0  0  0  0  0  0
  159.4199  141.8290  182.1443 C   0  0  0  0  0  0  0  0  0  0  0  0
  158.9594  140.5165  181.6610 C   0  0  0  0  0  0  0  0  0  0  0  0
  158.2204  139.6276  182.6190 C   0  0  0  0  0  0  0  0  0  0  0  0
  158.8952  142.9589  181.2221 C   0  0  0  0  0  0  0  0  0  0  0  0
  159.4451  142.8998  179.9795 F   0  0  0  0  0  0  0  0  0  0  0  0
  157.5214  142.8240  181.0740 F   0  0  0  0  0  0  0  0  0  0  0  0
  159.1041  144.1815  181.8080 F   0  0  0  0  0  0  0  0  0  0  0  0
  8  9  2  0  0  0
  9 10  1  0  0  0
 10 12  1  0  0  0
 12 13  2  0  0  0
 12 14  2  0  0  0
 12 15  1  0  0  0
 15 16  1  0  0  0
 16 17  1  0  0  0
  9  1  1  0  0  0
  1  2  2  0  0  0
  2  3  1  0  0  0
  3 18  1  0  0  0
 18 19  1  0  0  0
 19 20  1  0  0  0
  3  4  2  0  0  0
  4 21  1  0  0  0
 21 22  1  0  0  0
 22 23  1  0  0  0
 23 24  1  0  0  0
 24 25  1  0  0  0
 25 26  1  0  0  0
 26 29  1  0  0  0
 29 30  1  0  0  0
 29 31  1  0  0  0
 29 32  1  0  0  0
 26 27  1  0  0  0
 27 28  1  0  0  0
  4  5  1  0  0  0
  5  6  2  0  0  0
  6  7  1  0  0  0
 17 15  1  0  0  0
  6  1  1  0  0  0
 20 18  1  0  0  0
 28 23  1  0  0  0
 10 11  1  0  0  0
M  END
> <minimizedAffinity>
-6.27116

> <CNNscore>
0.2727190256

> <CNNaffinity>
6.0965781212

> <CNN_VS>
1.6626528502

> <CNNaffinity_variance>
0.3084636331

$$$$
[H]c1c(F)c(C(=O)N([H])S(=O)(=O)C2([H])C([H])([H])C2([H])[H])c([H])c(C2([H])C([H])([H])C2([H])[H])c1OC([H])([H])C1([H])C([H])([H])C([H])([H])C([H])(C(F)(F)F)C([H])([H])C1([H])[H]


 32 35  0  0  0  0  0  0  0  0999 V2000
  156.2463  140.1772  183.4465 C   0  0  0  0  0  0  0  0  0  0  0  0
  154.9556  140.0261  182.9275 C   0  0  0  0  0  0  0  0  0  0  0  0
  153.9654  139.3464  183.5614 C   0  0  0  0  0  0  0  0  0  0  0  0
  154.1981  138.7350  184.8235 C   0  0  0  0  0  0  0  0  0  0  0  0
  155.4767  138.8953  185.3203 C   0  0  0  0  0  0  0  0  0  0  0  0
  156.4751  139.5976  184.6493 C   0  0  0  0  0  0  0  0  0  0  0  0
  157.6803  139.6777  185.2209 F   0  0  0  0  0  0  0  0  0  0  0  0
  158.3098  141.2499  183.2019 O   0  0  0  0  0  0  0  0  0  0  0  0
  157.1866  140.9408  182.6555 C   0  0  0  0  0  0  0  0  0  0  0  0
  157.0232  141.3918  181.3443 N   0  0  0  0  0  0  0  0  0  0  0  0
  156.1806  141.1993  180.7967 H   0  0  0  0  0  0  0  0  0  0  0  0
  158.2562  142.2983  180.5534 S   0  0  0  0  0  0  0  0  0  0  0  0
  158.1313  142.1537  179.0557 O   0  0  0  0  0  0  0  0  0  0  0  0
  159.6242  141.8223  180.9376 O   0  0  0  0  0  0  0  0  0  0  0  0
  158.0951  144.0442  180.9599 C   0  0  0  0  0  0  0  0  0  0  0  0
  157.2909  144.4356  182.1567 C   0  0  0  0  0  0  0  0  0  0  0  0
  158.7633  144.3976  182.2766 C   0  0  0  0  0  0  0  0  0  0  0  0
  152.5938  139.1811  182.9808 C   0  0  0  0  0  0  0  0  0  0  0  0
  152.2892  139.5470  181.5936 C   0  0  0  0  0  0  0  0  0  0  0  0
  152.5107  138.1101  181.8871 C   0  0  0  0  0  0  0  0  0  0  0  0
  153.1945  138.0899  185.3974 O   0  0  0  0  0  0  0  0  0  0  0  0
  152.8368  137.3638  186.4248 C   0  0  0  0  0  0  0  0  0  0  0  0
  153.6493  137.1620  187.6446 C   0  0  0  0  0  0  0  0  0  0  0  0
  152.8367  136.9312  188.9046 C   0  0  0  0  0  0  0  0  0  0  0  0
  153.6441  137.5056  190.0345 C   0  0  0  0  0  0  0  0  0  0  0  0
  154.9968  136.9175  190.1118 C   0  0  0  0  0  0  0  0  0  0  0  0
  155.5656  136.2232  188.9445 C   0  0  0  0  0  0  0  0  0  0  0  0
  154.7859  136.2381  187.6615 C   0  0  0  0  0  0  0  0  0  0  0  0
  156.0111  137.9445  190.6767 C   0  0  0  0  0  0  0  0  0  0  0  0
  155.3956  139.0589  191.1555 F   0  0  0  0  0  0  0  0  0  0  0  0
  156.7027  137.3670  191.7329 F   0  0  0  0  0  0  0  0  0  0  0  0
  156.9474  138.2560  189.7238 F   0  0  0  0  0  0  0  0  0  0  0  0
  8  9  2  0  0  0
  9 10  1  0  0  0
 10 12  1  0  0  0
 12 13  2  0  0  0
 12 14  2  0  0  0
 12 15  1  0  0  0
 15 16  1  0  0  0
 16 17  1  0  0  0
  9  1  1  0  0  0
  1  2  2  0  0  0
  2  3  1  0  0  0
  3 18  1  0  0  0
 18 19  1  0  0  0
 19 20  1  0  0  0
  3  4  2  0  0  0
  4 21  1  0  0  0
 21 22  1  0  0  0
 22 23  1  0  0  0
 23 24  1  0  0  0
 24 25  1  0  0  0
 25 26  1  0  0  0
 26 29  1  0  0  0
 29 30  1  0  0  0
 29 31  1  0  0  0
 29 32  1  0  0  0
 26 27  1  0  0  0
 27 28  1  0  0  0
  4  5  1  0  0  0
  5  6  2  0  0  0
  6  7  1  0  0  0
 17 15  1  0  0  0
  6  1  1  0  0  0
 20 18  1  0  0  0
 28 23  1  0  0  0
 10 11  1  0  0  0
M  END
> <minimizedAffinity>
-8.19516

> <CNNscore>
0.2675799727

> <CNNaffinity>
6.3502950668

> <CNN_VS>
1.6992118359

> <CNNaffinity_variance>
0.0462713577

$$$$
[H]OC(=O)C1=C([H])[C@@]([H])(O[C@@]([H])(C([H])([H])C([H])([H])[H])C([H])([H])C([H])([H])C([H])([H])C([H])([H])C([H])([H])C([H])([H])C([H])([H])[H])[C@]([H])(N([H])C(=O)C([H])([H])[H])[C@@]([H])(N([H])[H])C1([H])[H]


 29 29  0  0  0  0  0  0  0  0999 V2000
  155.9073  136.9899  187.3340 C   0  0  0  0  0  0  0  0  0  0  0  0
  155.9143  135.5746  186.7890 C   0  0  0  0  0  0  0  0  0  0  0  0
  156.7612  134.7044  187.3398 C   0  0  0  0  0  0  0  0  0  0  0  0
  157.5794  135.3009  188.4624 C   0  0  0  0  0  0  0  0  0  0  0  0
  156.5566  135.7927  189.4539 C   0  0  0  0  0  0  0  0  0  0  0  0
  155.8403  134.6579  190.0281 N   0  0  0  0  0  0  0  0  0  0  0  0
  155.6153  136.7672  188.8013 C   0  0  0  0  0  0  0  0  0  0  0  0
  156.3147  133.7568  189.7996 H   0  0  0  0  0  0  0  0  0  0  0  0
  155.8260  134.7669  191.0868 H   0  0  0  0  0  0  0  0  0  0  0  0
  155.6690  137.9655  189.6068 N   0  0  0  0  0  0  0  0  0  0  0  0
  154.8363  138.1746  190.7265 C   0  0  0  0  0  0  0  0  0  0  0  0
  154.8846  139.4001  191.5578 C   0  0  0  0  0  0  0  0  0  0  0  0
  154.0118  137.2810  191.0382 O   0  0  0  0  0  0  0  0  0  0  0  0
  156.3554  138.7011  189.3410 H   0  0  0  0  0  0  0  0  0  0  0  0
  156.9241  133.3306  186.9725 C   0  0  0  0  0  0  0  0  0  0  0  0
  156.9835  132.3891  187.8124 O   0  0  0  0  0  0  0  0  0  0  0  0
  157.0229  133.0094  185.6162 O   0  0  0  0  0  0  0  0  0  0  0  0
  156.5607  132.1417  185.3285 H   0  0  0  0  0  0  0  0  0  0  0  0
  154.9567  137.6901  186.6738 O   0  0  0  0  0  0  0  0  0  0  0  0
  155.3314  138.3709  185.5109 C   0  0  0  0  0  0  0  0  0  0  0  0
  154.2491  139.0832  184.8019 C   0  0  0  0  0  0  0  0  0  0  0  0
  153.3958  138.1096  183.9867 C   0  0  0  0  0  0  0  0  0  0  0  0
  156.5573  139.1579  185.6691 C   0  0  0  0  0  0  0  0  0  0  0  0
  157.0998  140.0807  184.6716 C   0  0  0  0  0  0  0  0  0  0  0  0
  158.4106  140.6816  184.9500 C   0  0  0  0  0  0  0  0  0  0  0  0
  159.1430  140.9774  183.5943 C   0  0  0  0  0  0  0  0  0  0  0  0
  160.5448  141.3791  184.0065 C   0  0  0  0  0  0  0  0  0  0  0  0
  160.7889  143.6883  184.7346 C   0  0  0  0  0  0  0  0  0  0  0  0
  160.5459  142.2858  185.2009 C   0  0  0  0  0  0  0  0  0  0  0  0
 28 29  1  0  0  0
 29 27  1  0  0  0
 27 26  1  0  0  0
 26 25  1  0  0  0
 25 24  1  0  0  0
 24 23  1  0  0  0
 23 20  1  0  0  0
 20 21  1  0  0  0
 21 22  1  0  0  0
 20 19  1  0  0  0
 19  1  1  0  0  0
  1  2  1  0  0  0
  2  3  2  0  0  0
  3 15  1  0  0  0
 15 16  2  0  0  0
 15 17  1  0  0  0
  3  4  1  0  0  0
  4  5  1  0  0  0
  5  6  1  0  0  0
  5  7  1  0  0  0
  7 10  1  0  0  0
 10 11  1  0  0  0
 11 12  1  0  0  0
 11 13  2  0  0  0
  7  1  1  0  0  0
 17 18  1  0  0  0
  6  8  1  0  0  0
  6  9  1  0  0  0
 10 14  1  0  0  0
M  END
> <minimizedAffinity>
-5.13938

> <CNNscore>
0.5438736081

> <CNNaffinity>
5.5315079689

> <CNN_VS>
3.0084412098

> <CNNaffinity_variance>
0.1443103254

$$$$
[H]OC(=O)C1=C([H])[C@@]([H])(O[C@@]([H])(C([H])([H])C([H])([H])[H])C([H])([H])C([H])([H])C([H])([H])C([H])([H])C([H])([H])C([H])([H])C([H])([H])[H])[C@]([H])(N([H])C(=O)C([H])([H])[H])[C@@]([H])(N([H])[H])C1([H])[H]


 29 29  0  0  0  0  0  0  0  0999 V2000
  154.5234  139.1296  183.9686 C   0  0  0  0  0  0  0  0  0  0  0  0
  153.3078  139.2040  183.0647 C   0  0  0  0  0  0  0  0  0  0  0  0
  152.6762  138.0640  182.7832 C   0  0  0  0  0  0  0  0  0  0  0  0
  153.2961  136.8597  183.4549 C   0  0  0  0  0  0  0  0  0  0  0  0
  153.2448  137.1811  184.9263 C   0  0  0  0  0  0  0  0  0  0  0  0
  151.8558  137.2287  185.3729 N   0  0  0  0  0  0  0  0  0  0  0  0
  153.9607  138.4729  185.2096 C   0  0  0  0  0  0  0  0  0  0  0  0
  151.2133  136.8328  184.6519 H   0  0  0  0  0  0  0  0  0  0  0  0
  151.7641  136.6434  186.2572 H   0  0  0  0  0  0  0  0  0  0  0  0
  154.9480  138.1625  186.2177 N   0  0  0  0  0  0  0  0  0  0  0  0
  154.6760  138.2218  187.6011 C   0  0  0  0  0  0  0  0  0  0  0  0
  155.6824  137.9053  188.6415 C   0  0  0  0  0  0  0  0  0  0  0  0
  153.5259  138.5587  187.9740 O   0  0  0  0  0  0  0  0  0  0  0  0
  155.8988  137.8843  185.8995 H   0  0  0  0  0  0  0  0  0  0  0  0
  151.5182  137.9180  181.9547 C   0  0  0  0  0  0  0  0  0  0  0  0
  151.0811  136.7998  181.5622 O   0  0  0  0  0  0  0  0  0  0  0  0
  150.8325  139.0686  181.5570 O   0  0  0  0  0  0  0  0  0  0  0  0
  149.8118  138.9899  181.5221 H   0  0  0  0  0  0  0  0  0  0  0  0
  154.9829  140.3874  184.1600 O   0  0  0  0  0  0  0  0  0  0  0  0
  156.1253  140.7832  183.4568 C   0  0  0  0  0  0  0  0  0  0  0  0
  155.9376  141.8771  182.4823 C   0  0  0  0  0  0  0  0  0  0  0  0
  154.7896  142.7956  182.9053 C   0  0  0  0  0  0  0  0  0  0  0  0
  157.3055  140.9432  184.3105 C   0  0  0  0  0  0  0  0  0  0  0  0
  158.5974  140.2922  184.0915 C   0  0  0  0  0  0  0  0  0  0  0  0
  159.5806  141.0039  183.2647 C   0  0  0  0  0  0  0  0  0  0  0  0
  160.7630  141.4933  184.1725 C   0  0  0  0  0  0  0  0  0  0  0  0
  160.5350  142.9850  184.3115 C   0  0  0  0  0  0  0  0  0  0  0  0
  160.5722  142.6936  186.7272 C   0  0  0  0  0  0  0  0  0  0  0  0
  161.0910  143.5257  185.5950 C   0  0  0  0  0  0  0  0  0  0  0  0
 28 29  1  0  0  0
 29 27  1  0  0  0
 27 26  1  0  0  0
 26 25  1  0  0  0
 25 24  1  0  0  0
 24 23  1  0  0  0
 23 20  1  0  0  0
 20 21  1  0  0  0
 21 22  1  0  0  0
 20 19  1  0  0  0
 19  1  1  0  0  0
  1  2  1  0  0  0
  2  3  2  0  0  0
  3 15  1  0  0  0
 15 16  2  0  0  0
 15 17  1  0  0  0
  3  4  1  0  0  0
  4  5  1  0  0  0
  5  6  1  0  0  0
  5  7  1  0  0  0
  7 10  1  0  0  0
 10 11  1  0  0  0
 11 12  1  0  0  0
 11 13  2  0  0  0
  7  1  1  0  0  0
 17 18  1  0  0  0
  6  8  1  0  0  0
  6  9  1  0  0  0
 10 14  1  0  0  0
M  END
> <minimizedAffinity>
-5.94908

> <CNNscore>
0.5389060378

> <CNNaffinity>
5.6393394470

> <CNN_VS>
3.0390741825

> <CNNaffinity_variance>
0.0409355238

$$$$
[H]OC(=O)C1=C([H])[C@@]([H])(O[C@@]([H])(C([H])([H])C([H])([H])[H])C([H])([H])C([H])([H])C([H])([H])C([H])([H])C([H])([H])C([H])([H])C([H])([H])[H])[C@]([H])(N([H])C(=O)C([H])([H])[H])[C@@]([H])(N([H])[H])C1([H])[H]


 29 29  0  0  0  0  0  0  0  0999 V2000
  155.2656  139.7695  184.3709 C   0  0  0  0  0  0  0  0  0  0  0  0
  155.8551  138.7875  185.3650 C   0  0  0  0  0  0  0  0  0  0  0  0
  155.0331  138.2560  186.2703 C   0  0  0  0  0  0  0  0  0  0  0  0
  153.6047  138.7301  186.1268 C   0  0  0  0  0  0  0  0  0  0  0  0
  153.2186  138.3430  184.7225 C   0  0  0  0  0  0  0  0  0  0  0  0
  153.1806  136.8886  184.6042 N   0  0  0  0  0  0  0  0  0  0  0  0
  154.1664  138.9536  183.7274 C   0  0  0  0  0  0  0  0  0  0  0  0
  153.2190  136.4321  185.5419 H   0  0  0  0  0  0  0  0  0  0  0  0
  152.2659  136.6106  184.1364 H   0  0  0  0  0  0  0  0  0  0  0  0
  153.3410  139.6941  182.8011 N   0  0  0  0  0  0  0  0  0  0  0  0
  152.6302  139.0802  181.7479 C   0  0  0  0  0  0  0  0  0  0  0  0
  151.7818  139.8317  180.7936 C   0  0  0  0  0  0  0  0  0  0  0  0
  152.7178  137.8360  181.6082 O   0  0  0  0  0  0  0  0  0  0  0  0
  153.2743  140.7252  182.9243 H   0  0  0  0  0  0  0  0  0  0  0  0
  155.3880  137.3170  187.2906 C   0  0  0  0  0  0  0  0  0  0  0  0
  156.1640  137.5920  188.2486 O   0  0  0  0  0  0  0  0  0  0  0  0
  154.8510  136.0285  187.2283 O   0  0  0  0  0  0  0  0  0  0  0  0
  154.5972  135.6071  188.1268 H   0  0  0  0  0  0  0  0  0  0  0  0
  156.2485  140.1516  183.5237 O   0  0  0  0  0  0  0  0  0  0  0  0
  156.5727  141.5109  183.4646 C   0  0  0  0  0  0  0  0  0  0  0  0
  155.5236  142.4459  183.9190 C   0  0  0  0  0  0  0  0  0  0  0  0
  154.8230  143.1028  182.7281 C   0  0  0  0  0  0  0  0  0  0  0  0
  157.9066  141.8124  183.9909 C   0  0  0  0  0  0  0  0  0  0  0  0
  158.4599  141.2811  185.2370 C   0  0  0  0  0  0  0  0  0  0  0  0
  159.5611  142.0274  185.8591 C   0  0  0  0  0  0  0  0  0  0  0  0
  160.4112  142.7248  184.7398 C   0  0  0  0  0  0  0  0  0  0  0  0
  161.8260  142.7124  185.2825 C   0  0  0  0  0  0  0  0  0  0  0  0
  163.1521  142.6114  187.3205 C   0  0  0  0  0  0  0  0  0  0  0  0
  161.8851  143.1376  186.7193 C   0  0  0  0  0  0  0  0  0  0  0  0
 28 29  1  0  0  0
 29 27  1  0  0  0
 27 26  1  0  0  0
 26 25  1  0  0  0
 25 24  1  0  0  0
 24 23  1  0  0  0
 23 20  1  0  0  0
 20 21  1  0  0  0
 21 22  1  0  0  0
 20 19  1  0  0  0
 19  1  1  0  0  0
  1  2  1  0  0  0
  2  3  2  0  0  0
  3 15  1  0  0  0
 15 16  2  0  0  0
 15 17  1  0  0  0
  3  4  1  0  0  0
  4  5  1  0  0  0
  5  6  1  0  0  0
  5  7  1  0  0  0
  7 10  1  0  0  0
 10 11  1  0  0  0
 11 12  1  0  0  0
 11 13  2  0  0  0
  7  1  1  0  0  0
 17 18  1  0  0  0
  6  8  1  0  0  0
  6  9  1  0  0  0
 10 14  1  0  0  0
M  END
> <minimizedAffinity>
-6.75671

> <CNNscore>
0.5255361795

> <CNNaffinity>
5.7523760796

> <CNN_VS>
3.0230817795

> <CNNaffinity_variance>
0.0320424177

$$$$
[H]OC(=O)C1=C([H])[C@@]([H])(O[C@@]([H])(C([H])([H])C([H])([H])[H])C([H])([H])C([H])([H])C([H])([H])C([H])([H])C([H])([H])C([H])([H])C([H])([H])[H])[C@]([H])(N([H])C(=O)C([H])([H])[H])[C@@]([H])(N([H])[H])C1([H])[H]


 29 29  0  0  0  0  0  0  0  0999 V2000
  154.5559  138.2397  185.2175 C   0  0  0  0  0  0  0  0  0  0  0  0
  154.2126  137.5509  183.9107 C   0  0  0  0  0  0  0  0  0  0  0  0
  153.9843  136.2377  183.9456 C   0  0  0  0  0  0  0  0  0  0  0  0
  154.0940  135.6523  185.3351 C   0  0  0  0  0  0  0  0  0  0  0  0
  153.0831  136.4193  186.1479 C   0  0  0  0  0  0  0  0  0  0  0  0
  151.7357  136.1102  185.6790 N   0  0  0  0  0  0  0  0  0  0  0  0
  153.3651  137.8951  186.0842 C   0  0  0  0  0  0  0  0  0  0  0  0
  151.7382  135.2856  185.0393 H   0  0  0  0  0  0  0  0  0  0  0  0
  151.1293  135.8754  186.5216 H   0  0  0  0  0  0  0  0  0  0  0  0
  153.4818  138.3329  187.4562 N   0  0  0  0  0  0  0  0  0  0  0  0
  154.6381  138.1145  188.2349 C   0  0  0  0  0  0  0  0  0  0  0  0
  154.7663  138.5597  189.6422 C   0  0  0  0  0  0  0  0  0  0  0  0
  155.6093  137.5136  187.7141 O   0  0  0  0  0  0  0  0  0  0  0  0
  152.6718  138.8300  187.8798 H   0  0  0  0  0  0  0  0  0  0  0  0
  153.6494  135.4050  182.8306 C   0  0  0  0  0  0  0  0  0  0  0  0
  154.1811  134.2788  182.6200 O   0  0  0  0  0  0  0  0  0  0  0  0
  152.6853  135.8567  181.9257 O   0  0  0  0  0  0  0  0  0  0  0  0
  152.0535  135.1416  181.5532 H   0  0  0  0  0  0  0  0  0  0  0  0
  154.7046  139.5613  184.9700 O   0  0  0  0  0  0  0  0  0  0  0  0
  155.8122  139.9681  184.2191 C   0  0  0  0  0  0  0  0  0  0  0  0
  155.6828  141.2671  183.5282 C   0  0  0  0  0  0  0  0  0  0  0  0
  154.6008  141.2070  182.4483 C   0  0  0  0  0  0  0  0  0  0  0  0
  157.0857  139.7929  184.9224 C   0  0  0  0  0  0  0  0  0  0  0  0
  158.4018  139.7553  184.2840 C   0  0  0  0  0  0  0  0  0  0  0  0
  158.4429  139.5199  182.8350 C   0  0  0  0  0  0  0  0  0  0  0  0
  159.1225  140.7460  182.1304 C   0  0  0  0  0  0  0  0  0  0  0  0
  158.3910  140.8706  180.8090 C   0  0  0  0  0  0  0  0  0  0  0  0
  158.2293  143.2586  181.2484 C   0  0  0  0  0  0  0  0  0  0  0  0
  158.5449  142.2336  180.2029 C   0  0  0  0  0  0  0  0  0  0  0  0
 28 29  1  0  0  0
 29 27  1  0  0  0
 27 26  1  0  0  0
 26 25  1  0  0  0
 25 24  1  0  0  0
 24 23  1  0  0  0
 23 20  1  0  0  0
 20 21  1  0  0  0
 21 22  1  0  0  0
 20 19  1  0  0  0
 19  1  1  0  0  0
  1  2  1  0  0  0
  2  3  2  0  0  0
  3 15  1  0  0  0
 15 16  2  0  0  0
 15 17  1  0  0  0
  3  4  1  0  0  0
  4  5  1  0  0  0
  5  6  1  0  0  0
  5  7  1  0  0  0
  7 10  1  0  0  0
 10 11  1  0  0  0
 11 12  1  0  0  0
 11 13  2  0  0  0
  7  1  1  0  0  0
 17 18  1  0  0  0
  6  8  1  0  0  0
  6  9  1  0  0  0
 10 14  1  0  0  0
M  END
> <minimizedAffinity>
-5.52203

> <CNNscore>
0.5231980681

> <CNNaffinity>
5.4227991104

> <CNN_VS>
2.8371980190

> <CNNaffinity_variance>
0.0880199894

$$$$
[H]OC(=O)C1=C([H])[C@@]([H])(O[C@@]([H])(C([H])([H])C([H])([H])[H])C([H])([H])C([H])([H])C([H])([H])C([H])([H])C([H])([H])C([H])([H])C([H])([H])[H])[C@]([H])(N([H])C(=O)C([H])([H])[H])[C@@]([H])(N([H])[H])C1([H])[H]


 29 29  0  0  0  0  0  0  0  0999 V2000
  154.6386  139.2358  184.0537 C   0  0  0  0  0  0  0  0  0  0  0  0
  153.4181  139.3372  183.1592 C   0  0  0  0  0  0  0  0  0  0  0  0
  152.7870  138.2057  182.8441 C   0  0  0  0  0  0  0  0  0  0  0  0
  153.4125  136.9814  183.4731 C   0  0  0  0  0  0  0  0  0  0  0  0
  153.3683  137.2548  184.9545 C   0  0  0  0  0  0  0  0  0  0  0  0
  151.9817  137.2854  185.4096 N   0  0  0  0  0  0  0  0  0  0  0  0
  154.0835  138.5381  185.2757 C   0  0  0  0  0  0  0  0  0  0  0  0
  151.3361  136.9119  184.6796 H   0  0  0  0  0  0  0  0  0  0  0  0
  151.8957  136.6716  186.2749 H   0  0  0  0  0  0  0  0  0  0  0  0
  155.0768  138.1971  186.2681 N   0  0  0  0  0  0  0  0  0  0  0  0
  154.8087  138.1995  187.6535 C   0  0  0  0  0  0  0  0  0  0  0  0
  155.8210  137.8513  188.6777 C   0  0  0  0  0  0  0  0  0  0  0  0
  153.6568  138.5114  188.0426 O   0  0  0  0  0  0  0  0  0  0  0  0
  156.0290  137.9400  185.9364 H   0  0  0  0  0  0  0  0  0  0  0  0
  151.6248  138.0844  182.0174 C   0  0  0  0  0  0  0  0  0  0  0  0
  151.6423  138.2506  180.7654 O   0  0  0  0  0  0  0  0  0  0  0  0
  150.4059  137.7659  182.6217 O   0  0  0  0  0  0  0  0  0  0  0  0
  149.7966  137.1354  182.0919 H   0  0  0  0  0  0  0  0  0  0  0  0
  155.0969  140.4875  184.2834 O   0  0  0  0  0  0  0  0  0  0  0  0
  155.9600  141.0542  183.3399 C   0  0  0  0  0  0  0  0  0  0  0  0
  155.7681  142.4937  183.0709 C   0  0  0  0  0  0  0  0  0  0  0  0
  154.2968  142.8864  183.2178 C   0  0  0  0  0  0  0  0  0  0  0  0
  157.3604  140.6658  183.5279 C   0  0  0  0  0  0  0  0  0  0  0  0
  158.0723  139.6689  182.7276 C   0  0  0  0  0  0  0  0  0  0  0  0
  158.6602  140.1165  181.4585 C   0  0  0  0  0  0  0  0  0  0  0  0
  159.1003  141.6165  181.5924 C   0  0  0  0  0  0  0  0  0  0  0  0
  158.7686  142.2253  180.2448 C   0  0  0  0  0  0  0  0  0  0  0  0
  158.8879  144.3088  181.4963 C   0  0  0  0  0  0  0  0  0  0  0  0
  159.1541  143.6724  180.1669 C   0  0  0  0  0  0  0  0  0  0  0  0
 28 29  1  0  0  0
 29 27  1  0  0  0
 27 26  1  0  0  0
 26 25  1  0  0  0
 25 24  1  0  0  0
 24 23  1  0  0  0
 23 20  1  0  0  0
 20 21  1  0  0  0
 21 22  1  0  0  0
 20 19  1  0  0  0
 19  1  1  0  0  0
  1  2  1  0  0  0
  2  3  2  0  0  0
  3 15  1  0  0  0
 15 16  2  0  0  0
 15 17  1  0  0  0
  3  4  1  0  0  0
  4  5  1  0  0  0
  5  6  1  0  0  0
  5  7  1  0  0  0
  7 10  1  0  0  0
 10 11  1  0  0  0
 11 12  1  0  0  0
 11 13  2  0  0  0
  7  1  1  0  0  0
 17 18  1  0  0  0
  6  8  1  0  0  0
  6  9  1  0  0  0
 10 14  1  0  0  0
M  END
> <minimizedAffinity>
-6.11761

> <CNNscore>
0.4785991013

> <CNNaffinity>
5.6822028160

> <CNN_VS>
2.7194972038

> <CNNaffinity_variance>
0.0904993266

$$$$
[H]OC(=O)C1=C([H])[C@@]([H])(O[C@@]([H])(C([H])([H])C([H])([H])[H])C([H])([H])C([H])([H])C([H])([H])C([H])([H])C([H])([H])C([H])([H])C([H])([H])[H])[C@]([H])(N([H])C(=O)C([H])([H])[H])[C@@]([H])(N([H])[H])C1([H])[H]


 29 29  0  0  0  0  0  0  0  0999 V2000
  154.9402  138.9275  184.9189 C   0  0  0  0  0  0  0  0  0  0  0  0
  155.7708  138.5196  186.1205 C   0  0  0  0  0  0  0  0  0  0  0  0
  155.1207  138.1395  187.2208 C   0  0  0  0  0  0  0  0  0  0  0  0
  153.6175  138.1661  187.0620 C   0  0  0  0  0  0  0  0  0  0  0  0
  153.3448  137.2432  185.9023 C   0  0  0  0  0  0  0  0  0  0  0  0
  153.6933  135.8739  186.2687 N   0  0  0  0  0  0  0  0  0  0  0  0
  154.0951  137.6959  184.6801 C   0  0  0  0  0  0  0  0  0  0  0  0
  153.8531  135.7867  187.2964 H   0  0  0  0  0  0  0  0  0  0  0  0
  152.8840  135.2357  186.0029 H   0  0  0  0  0  0  0  0  0  0  0  0
  153.1012  137.8489  183.6427 N   0  0  0  0  0  0  0  0  0  0  0  0
  152.7153  136.7937  182.7890 C   0  0  0  0  0  0  0  0  0  0  0  0
  151.6972  136.9418  181.7227 C   0  0  0  0  0  0  0  0  0  0  0  0
  153.2585  135.6717  182.9361 O   0  0  0  0  0  0  0  0  0  0  0  0
  152.6562  138.7825  183.5277 H   0  0  0  0  0  0  0  0  0  0  0  0
  155.7138  137.7212  188.4546 C   0  0  0  0  0  0  0  0  0  0  0  0
  155.5951  138.3637  189.5356 O   0  0  0  0  0  0  0  0  0  0  0  0
  156.4634  136.5421  188.4691 O   0  0  0  0  0  0  0  0  0  0  0  0
  156.3689  135.9638  189.3093 H   0  0  0  0  0  0  0  0  0  0  0  0
  155.7850  139.2317  183.9072 O   0  0  0  0  0  0  0  0  0  0  0  0
  155.5248  140.3840  183.1584 C   0  0  0  0  0  0  0  0  0  0  0  0
  154.4328  141.2450  183.6559 C   0  0  0  0  0  0  0  0  0  0  0  0
  154.6035  142.6838  183.1646 C   0  0  0  0  0  0  0  0  0  0  0  0
  156.7364  141.1175  182.7828 C   0  0  0  0  0  0  0  0  0  0  0  0
  158.0621  140.9079  183.3656 C   0  0  0  0  0  0  0  0  0  0  0  0
  159.2074  141.5122  182.6728 C   0  0  0  0  0  0  0  0  0  0  0  0
  159.1503  143.0711  182.8408 C   0  0  0  0  0  0  0  0  0  0  0  0
  158.6735  143.5751  181.4935 C   0  0  0  0  0  0  0  0  0  0  0  0
  158.2389  142.4220  179.3951 C   0  0  0  0  0  0  0  0  0  0  0  0
  159.3114  142.8369  180.3547 C   0  0  0  0  0  0  0  0  0  0  0  0
 28 29  1  0  0  0
 29 27  1  0  0  0
 27 26  1  0  0  0
 26 25  1  0  0  0
 25 24  1  0  0  0
 24 23  1  0  0  0
 23 20  1  0  0  0
 20 21  1  0  0  0
 21 22  1  0  0  0
 20 19  1  0  0  0
 19  1  1  0  0  0
  1  2  1  0  0  0
  2  3  2  0  0  0
  3 15  1  0  0  0
 15 16  2  0  0  0
 15 17  1  0  0  0
  3  4  1  0  0  0
  4  5  1  0  0  0
  5  6  1  0  0  0
  5  7  1  0  0  0
  7 10  1  0  0  0
 10 11  1  0  0  0
 11 12  1  0  0  0
 11 13  2  0  0  0
  7  1  1  0  0  0
 17 18  1  0  0  0
  6  8  1  0  0  0
  6  9  1  0  0  0
 10 14  1  0  0  0
M  END
> <minimizedAffinity>
-5.72110

> <CNNscore>
0.4700987339

> <CNNaffinity>
5.5800671577

> <CNN_VS>
2.6231825352

> <CNNaffinity_variance>
0.0888486877

$$$$
[H]OC(=O)C1=C([H])[C@@]([H])(O[C@@]([H])(C([H])([H])C([H])([H])[H])C([H])([H])C([H])([H])C([H])([H])C([H])([H])C([H])([H])C([H])([H])C([H])([H])[H])[C@]([H])(N([H])C(=O)C([H])([H])[H])[C@@]([H])(N([H])[H])C1([H])[H]


 29 29  0  0  0  0  0  0  0  0999 V2000
  154.2408  138.8544  184.6516 C   0  0  0  0  0  0  0  0  0  0  0  0
  153.4662  138.4763  183.4038 C   0  0  0  0  0  0  0  0  0  0  0  0
  153.1499  137.1915  183.2383 C   0  0  0  0  0  0  0  0  0  0  0  0
  153.6210  136.3125  184.3746 C   0  0  0  0  0  0  0  0  0  0  0  0
  152.9672  136.8979  185.5997 C   0  0  0  0  0  0  0  0  0  0  0  0
  151.5204  136.7218  185.5189 N   0  0  0  0  0  0  0  0  0  0  0  0
  153.3394  138.3467  185.7551 C   0  0  0  0  0  0  0  0  0  0  0  0
  151.2626  136.0584  184.7555 H   0  0  0  0  0  0  0  0  0  0  0  0
  151.1764  136.3169  186.4412 H   0  0  0  0  0  0  0  0  0  0  0  0
  153.8972  138.4693  187.0822 N   0  0  0  0  0  0  0  0  0  0  0  0
  155.2048  138.0492  187.4061 C   0  0  0  0  0  0  0  0  0  0  0  0
  155.7846  138.1710  188.7641 C   0  0  0  0  0  0  0  0  0  0  0  0
  155.9162  137.5466  186.5023 O   0  0  0  0  0  0  0  0  0  0  0  0
  153.3003  138.8870  187.8252 H   0  0  0  0  0  0  0  0  0  0  0  0
  152.4286  136.6306  182.1366 C   0  0  0  0  0  0  0  0  0  0  0  0
  151.5808  137.2773  181.4596 O   0  0  0  0  0  0  0  0  0  0  0  0
  152.6714  135.2994  181.7880 O   0  0  0  0  0  0  0  0  0  0  0  0
  152.6694  135.0936  180.7846 H   0  0  0  0  0  0  0  0  0  0  0  0
  154.4184  140.1954  184.6461 O   0  0  0  0  0  0  0  0  0  0  0  0
  155.6002  140.6990  184.0929 C   0  0  0  0  0  0  0  0  0  0  0  0
  156.6715  139.7119  183.8490 C   0  0  0  0  0  0  0  0  0  0  0  0
  158.0285  140.2541  184.3020 C   0  0  0  0  0  0  0  0  0  0  0  0
  155.3715  141.6171  182.9740 C   0  0  0  0  0  0  0  0  0  0  0  0
  155.3853  143.0773  183.0668 C   0  0  0  0  0  0  0  0  0  0  0  0
  156.2265  143.8069  182.1093 C   0  0  0  0  0  0  0  0  0  0  0  0
  157.7324  143.6560  182.5233 C   0  0  0  0  0  0  0  0  0  0  0  0
  158.4904  143.7400  181.2138 C   0  0  0  0  0  0  0  0  0  0  0  0
  158.1644  141.9363  179.6131 C   0  0  0  0  0  0  0  0  0  0  0  0
  158.9984  142.4017  180.7668 C   0  0  0  0  0  0  0  0  0  0  0  0
 28 29  1  0  0  0
 29 27  1  0  0  0
 27 26  1  0  0  0
 26 25  1  0  0  0
 25 24  1  0  0  0
 24 23  1  0  0  0
 23 20  1  0  0  0
 20 21  1  0  0  0
 21 22  1  0  0  0
 20 19  1  0  0  0
 19  1  1  0  0  0
  1  2  1  0  0  0
  2  3  2  0  0  0
  3 15  1  0  0  0
 15 16  2  0  0  0
 15 17  1  0  0  0
  3  4  1  0  0  0
  4  5  1  0  0  0
  5  6  1  0  0  0
  5  7  1  0  0  0
  7 10  1  0  0  0
 10 11  1  0  0  0
 11 12  1  0  0  0
 11 13  2  0  0  0
  7  1  1  0  0  0
 17 18  1  0  0  0
  6  8  1  0  0  0
  6  9  1  0  0  0
 10 14  1  0  0  0
M  END
> <minimizedAffinity>
-5.36874

> <CNNscore>
0.4144691825

> <CNNaffinity>
5.4646353722

> <CNN_VS>
2.2649228573

> <CNNaffinity_variance>
0.0402731225

$$$$
[H]OC(=O)C1=C([H])[C@@]([H])(O[C@@]([H])(C([H])([H])C([H])([H])[H])C([H])([H])C([H])([H])C([H])([H])C([H])([H])C([H])([H])C([H])([H])C([H])([H])[H])[C@]([H])(N([H])C(=O)C([H])([H])[H])[C@@]([H])(N([H])[H])C1([H])[H]


 29 29  0  0  0  0  0  0  0  0999 V2000
  154.1071  137.3377  186.0661 C   0  0  0  0  0  0  0  0  0  0  0  0
  152.6489  137.6350  186.3577 C   0  0  0  0  0  0  0  0  0  0  0  0
  151.8354  136.5983  186.5612 C   0  0  0  0  0  0  0  0  0  0  0  0
  152.5416  135.2641  186.4805 C   0  0  0  0  0  0  0  0  0  0  0  0
  153.6206  135.3450  187.5294 C   0  0  0  0  0  0  0  0  0  0  0  0
  153.0153  135.4079  188.8563 N   0  0  0  0  0  0  0  0  0  0  0  0
  154.5168  136.5255  187.2746 C   0  0  0  0  0  0  0  0  0  0  0  0
  151.9984  135.1759  188.8191 H   0  0  0  0  0  0  0  0  0  0  0  0
  153.4964  134.6939  189.4822 H   0  0  0  0  0  0  0  0  0  0  0  0
  155.8583  135.9934  187.2065 N   0  0  0  0  0  0  0  0  0  0  0  0
  156.6564  135.7773  188.3499 C   0  0  0  0  0  0  0  0  0  0  0  0
  158.0328  135.2323  188.2892 C   0  0  0  0  0  0  0  0  0  0  0  0
  156.1813  136.0591  189.4770 O   0  0  0  0  0  0  0  0  0  0  0  0
  156.2441  135.7627  186.2680 H   0  0  0  0  0  0  0  0  0  0  0  0
  150.4343  136.6628  186.8471 C   0  0  0  0  0  0  0  0  0  0  0  0
  149.9206  136.2131  187.9098 O   0  0  0  0  0  0  0  0  0  0  0  0
  149.5872  137.2526  185.9054 O   0  0  0  0  0  0  0  0  0  0  0  0
  148.8180  137.8121  186.2858 H   0  0  0  0  0  0  0  0  0  0  0  0
  154.7589  138.5159  185.9362 O   0  0  0  0  0  0  0  0  0  0  0  0
  155.2404  138.8637  184.6699 C   0  0  0  0  0  0  0  0  0  0  0  0
  154.2584  138.8103  183.5680 C   0  0  0  0  0  0  0  0  0  0  0  0
  153.8744  140.2181  183.1086 C   0  0  0  0  0  0  0  0  0  0  0  0
  156.0629  140.0764  184.6752 C   0  0  0  0  0  0  0  0  0  0  0  0
  157.5229  140.1037  184.5823 C   0  0  0  0  0  0  0  0  0  0  0  0
  158.1510  141.3725  184.1920 C   0  0  0  0  0  0  0  0  0  0  0  0
  159.5650  141.4783  184.8636 C   0  0  0  0  0  0  0  0  0  0  0  0
  159.2670  141.8048  186.3132 C   0  0  0  0  0  0  0  0  0  0  0  0
  161.5567  142.6286  186.2941 C   0  0  0  0  0  0  0  0  0  0  0  0
  160.1877  142.8557  186.8578 C   0  0  0  0  0  0  0  0  0  0  0  0
 28 29  1  0  0  0
 29 27  1  0  0  0
 27 26  1  0  0  0
 26 25  1  0  0  0
 25 24  1  0  0  0
 24 23  1  0  0  0
 23 20  1  0  0  0
 20 21  1  0  0  0
 21 22  1  0  0  0
 20 19  1  0  0  0
 19  1  1  0  0  0
  1  2  1  0  0  0
  2  3  2  0  0  0
  3 15  1  0  0  0
 15 16  2  0  0  0
 15 17  1  0  0  0
  3  4  1  0  0  0
  4  5  1  0  0  0
  5  6  1  0  0  0
  5  7  1  0  0  0
  7 10  1  0  0  0
 10 11  1  0  0  0
 11 12  1  0  0  0
 11 13  2  0  0  0
  7  1  1  0  0  0
 17 18  1  0  0  0
  6  8  1  0  0  0
  6  9  1  0  0  0
 10 14  1  0  0  0
M  END
> <minimizedAffinity>
-5.05379

> <CNNscore>
0.3350466788

> <CNNaffinity>
5.2283830643

> <CNN_VS>
1.7517523766

> <CNNaffinity_variance>
0.3151816130

$$$$
[H]OC(=O)C1=C([H])[C@@]([H])(O[C@@]([H])(C([H])([H])C([H])([H])[H])C([H])([H])C([H])([H])C([H])([H])C([H])([H])C([H])([H])C([H])([H])C([H])([H])[H])[C@]([H])(N([H])C(=O)C([H])([H])[H])[C@@]([H])(N([H])[H])C1([H])[H]


 29 29  0  0  0  0  0  0  0  0999 V2000
  153.6635  139.7186  182.5242 C   0  0  0  0  0  0  0  0  0  0  0  0
  152.5377  140.2848  181.6803 C   0  0  0  0  0  0  0  0  0  0  0  0
  151.8966  139.4482  180.8636 C   0  0  0  0  0  0  0  0  0  0  0  0
  152.4129  138.0294  180.9415 C   0  0  0  0  0  0  0  0  0  0  0  0
  152.2395  137.6443  182.3881 C   0  0  0  0  0  0  0  0  0  0  0  0
  150.8183  137.5809  182.7150 N   0  0  0  0  0  0  0  0  0  0  0  0
  152.9695  138.6086  183.2819 C   0  0  0  0  0  0  0  0  0  0  0  0
  150.2308  137.6058  181.8528 H   0  0  0  0  0  0  0  0  0  0  0  0
  150.6277  136.6640  183.2208 H   0  0  0  0  0  0  0  0  0  0  0  0
  153.8508  137.8018  184.0942 N   0  0  0  0  0  0  0  0  0  0  0  0
  154.0710  138.0502  185.4658 C   0  0  0  0  0  0  0  0  0  0  0  0
  154.9730  137.2282  186.3060 C   0  0  0  0  0  0  0  0  0  0  0  0
  153.4754  139.0142  186.0056 O   0  0  0  0  0  0  0  0  0  0  0  0
  154.3406  137.0049  183.6384 H   0  0  0  0  0  0  0  0  0  0  0  0
  150.8139  139.7804  179.9882 C   0  0  0  0  0  0  0  0  0  0  0  0
  149.6001  139.5891  180.2807 O   0  0  0  0  0  0  0  0  0  0  0  0
  151.1098  140.3458  178.7452 O   0  0  0  0  0  0  0  0  0  0  0  0
  150.4658  141.0736  178.4215 H   0  0  0  0  0  0  0  0  0  0  0  0
  154.1454  140.7130  183.3044 O   0  0  0  0  0  0  0  0  0  0  0  0
  155.4787  141.0975  183.1293 C   0  0  0  0  0  0  0  0  0  0  0  0
  155.8544  142.4062  183.7016 C   0  0  0  0  0  0  0  0  0  0  0  0
  155.7933  143.5057  182.6394 C   0  0  0  0  0  0  0  0  0  0  0  0
  156.4344  140.0252  183.4191 C   0  0  0  0  0  0  0  0  0  0  0  0
  157.6801  140.1878  184.1694 C   0  0  0  0  0  0  0  0  0  0  0  0
  158.9267  139.7905  183.5026 C   0  0  0  0  0  0  0  0  0  0  0  0
  158.7558  139.9454  181.9506 C   0  0  0  0  0  0  0  0  0  0  0  0
  159.1196  141.3908  181.6768 C   0  0  0  0  0  0  0  0  0  0  0  0
  159.1466  143.1289  179.9739 C   0  0  0  0  0  0  0  0  0  0  0  0
  158.3904  141.9429  180.4885 C   0  0  0  0  0  0  0  0  0  0  0  0
 28 29  1  0  0  0
 29 27  1  0  0  0
 27 26  1  0  0  0
 26 25  1  0  0  0
 25 24  1  0  0  0
 24 23  1  0  0  0
 23 20  1  0  0  0
 20 21  1  0  0  0
 21 22  1  0  0  0
 20 19  1  0  0  0
 19  1  1  0  0  0
  1  2  1  0  0  0
  2  3  2  0  0  0
  3 15  1  0  0  0
 15 16  2  0  0  0
 15 17  1  0  0  0
  3  4  1  0  0  0
  4  5  1  0  0  0
  5  6  1  0  0  0
  5  7  1  0  0  0
  7 10  1  0  0  0
 10 11  1  0  0  0
 11 12  1  0  0  0
 11 13  2  0  0  0
  7  1  1  0  0  0
 17 18  1  0  0  0
  6  8  1  0  0  0
  6  9  1  0  0  0
 10 14  1  0  0  0
M  END
> <minimizedAffinity>
-6.60017

> <CNNscore>
0.2913161516

> <CNNaffinity>
5.4759163857

> <CNN_VS>
1.5952228308

> <CNNaffinity_variance>
0.0586396754

$$$$
[H]c1c([H])c(-c2c([H])c([H])c(C([H])(C(=O)N([H])C([H])([H])C([H])([H])C([H])([H])C([H])([H])C([H])([H])C([H])([H])N([H])c3c4c(nc5c([H])c([H])c([H])c([H])c35)C([H])([H])C([H])([H])C([H])([H])C4([H])[H])C([H])([H])[H])c([H])c2F)c([H])c([H])c1OC([H])([H])C([H])([H])C([H])([H])C([H])([H])C([H])([H])C([H])([H])O[N+](=O)[O-]


 52 56  0  0  0  0  0  0  0  0999 V2000
  154.5585  138.3339  191.6763 C   0  0  0  0  0  0  0  0  0  0  0  0
  155.7537  137.9393  190.8141 C   0  0  0  0  0  0  0  0  0  0  0  0
  155.3485  138.1041  189.4048 C   0  0  0  0  0  0  0  0  0  0  0  0
  154.0185  138.2795  189.1030 C   0  0  0  0  0  0  0  0  0  0  0  0
  153.5804  138.4225  187.7856 C   0  0  0  0  0  0  0  0  0  0  0  0
  154.4913  138.3876  186.7769 C   0  0  0  0  0  0  0  0  0  0  0  0
  155.8247  138.2134  187.0563 C   0  0  0  0  0  0  0  0  0  0  0  0
  156.7443  138.1700  186.0629 F   0  0  0  0  0  0  0  0  0  0  0  0
  156.2561  138.0705  188.3820 C   0  0  0  0  0  0  0  0  0  0  0  0
  154.0652  138.5394  185.3980 C   0  0  0  0  0  0  0  0  0  0  0  0
  153.3504  137.5616  184.7433 C   0  0  0  0  0  0  0  0  0  0  0  0
  152.9466  137.7363  183.4158 C   0  0  0  0  0  0  0  0  0  0  0  0
  153.2334  138.8716  182.6973 C   0  0  0  0  0  0  0  0  0  0  0  0
  153.9651  139.8633  183.3820 C   0  0  0  0  0  0  0  0  0  0  0  0
  154.3518  139.6774  184.6789 C   0  0  0  0  0  0  0  0  0  0  0  0
  152.8802  139.1189  181.3951 O   0  0  0  0  0  0  0  0  0  0  0  0
  152.0251  138.3653  180.5957 C   0  0  0  0  0  0  0  0  0  0  0  0
  151.0858  139.2580  179.8497 C   0  0  0  0  0  0  0  0  0  0  0  0
  150.0771  139.8602  180.7827 C   0  0  0  0  0  0  0  0  0  0  0  0
  148.8059  139.0834  180.7563 C   0  0  0  0  0  0  0  0  0  0  0  0
  148.0014  139.2122  182.0244 C   0  0  0  0  0  0  0  0  0  0  0  0
  148.1897  137.9855  182.8689 C   0  0  0  0  0  0  0  0  0  0  0  0
  147.0357  137.8433  183.7160 O   0  0  0  0  0  0  0  0  0  0  0  0
  147.0247  138.6104  184.8558 N   0  0  0  0  0  0  0  0  0  0  0  0
  146.1403  139.4568  185.0827 O   0  0  0  0  0  0  0  0  0  0  0  0
  148.0591  138.3894  185.7458 O   0  0  0  0  0  0  0  0  0  0  0  0
  156.2976  136.6294  191.1666 C   0  0  0  0  0  0  0  0  0  0  0  0
  156.7721  136.4235  192.3391 O   0  0  0  0  0  0  0  0  0  0  0  0
  156.3491  135.5185  190.2939 N   0  0  0  0  0  0  0  0  0  0  0  0
  155.9743  135.6378  189.3305 H   0  0  0  0  0  0  0  0  0  0  0  0
  156.8837  134.2344  190.6572 C   0  0  0  0  0  0  0  0  0  0  0  0
  158.2415  133.9810  190.0477 C   0  0  0  0  0  0  0  0  0  0  0  0
  158.1202  133.8984  188.5390 C   0  0  0  0  0  0  0  0  0  0  0  0
  159.5412  133.9806  187.9780 C   0  0  0  0  0  0  0  0  0  0  0  0
  160.0483  132.6423  187.5975 C   0  0  0  0  0  0  0  0  0  0  0  0
  159.0798  131.5398  187.6778 C   0  0  0  0  0  0  0  0  0  0  0  0
  159.4461  130.3599  188.3379 N   0  0  0  0  0  0  0  0  0  0  0  0
  158.6298  129.8210  188.8157 H   0  0  0  0  0  0  0  0  0  0  0  0
  160.6746  129.7201  188.5128 C   0  0  0  0  0  0  0  0  0  0  0  0
  161.1944  128.9497  187.4917 C   0  0  0  0  0  0  0  0  0  0  0  0
  162.4265  128.3590  187.6477 C   0  0  0  0  0  0  0  0  0  0  0  0
  163.1149  128.5458  188.8099 N   0  0  0  0  0  0  0  0  0  0  0  0
  162.6461  129.2868  189.8248 C   0  0  0  0  0  0  0  0  0  0  0  0
  163.3612  129.4631  190.9851 C   0  0  0  0  0  0  0  0  0  0  0  0
  162.8725  130.2240  192.0091 C   0  0  0  0  0  0  0  0  0  0  0  0
  161.6366  130.8159  191.8516 C   0  0  0  0  0  0  0  0  0  0  0  0
  160.9075  130.6557  190.7091 C   0  0  0  0  0  0  0  0  0  0  0  0
  161.4111  129.8820  189.6759 C   0  0  0  0  0  0  0  0  0  0  0  0
  162.9755  127.5301  186.5693 C   0  0  0  0  0  0  0  0  0  0  0  0
  162.5504  127.8959  185.1900 C   0  0  0  0  0  0  0  0  0  0  0  0
  161.5151  128.9831  185.1137 C   0  0  0  0  0  0  0  0  0  0  0  0
  160.4755  128.7413  186.2113 C   0  0  0  0  0  0  0  0  0  0  0  0
  1  2  1  0  0  0
  2 27  1  0  0  0
 27 28  2  0  0  0
 27 29  1  0  0  0
 29 31  1  0  0  0
 31 32  1  0  0  0
 32 33  1  0  0  0
 33 34  1  0  0  0
 34 35  1  0  0  0
 35 36  1  0  0  0
 36 37  1  0  0  0
 37 39  1  0  0  0
 39 40  2  0  0  0
 40 41  1  0  0  0
 41 42  2  0  0  0
 42 43  1  0  0  0
 43 44  2  0  0  0
 44 45  1  0  0  0
 45 46  2  0  0  0
 46 47  1  0  0  0
 47 48  2  0  0  0
 41 49  1  0  0  0
 49 50  1  0  0  0
 50 51  1  0  0  0
 51 52  1  0  0  0
  2  3  1  0  0  0
  3  4  2  0  0  0
  4  5  1  0  0  0
  5  6  2  0  0  0
  6 10  1  0  0  0
 10 11  2  0  0  0
 11 12  1  0  0  0
 12 13  2  0  0  0
 13 16  1  0  0  0
 16 17  1  0  0  0
 17 18  1  0  0  0
 18 19  1  0  0  0
 19 20  1  0  0  0
 20 21  1  0  0  0
 21 22  1  0  0  0
 22 23  1  0  0  0
 23 24  1  0  0  0
 24 25  2  0  0  0
 24 26  1  0  0  0
 13 14  1  0  0  0
 14 15  2  0  0  0
  6  7  1  0  0  0
  7  8  1  0  0  0
  7  9  2  0  0  0
 48 39  1  0  0  0
  9  3  1  0  0  0
 52 40  1  0  0  0
 15 10  1  0  0  0
 48 43  1  0  0  0
 29 30  1  0  0  0
 37 38  1  0  0  0
M  CHG 1  24   1
M  CHG 1  26  -1
M  END
> <minimizedAffinity>
-8.12481

> <CNNscore>
0.5485554338

> <CNNaffinity>
6.6697630882

> <CNN_VS>
3.6587347984

> <CNNaffinity_variance>
0.1054015756

$$$$
[H]c1c([H])c(-c2c([H])c([H])c(C([H])(C(=O)N([H])C([H])([H])C([H])([H])C([H])([H])C([H])([H])C([H])([H])C([H])([H])N([H])c3c4c(nc5c([H])c([H])c([H])c([H])c35)C([H])([H])C([H])([H])C([H])([H])C4([H])[H])C([H])([H])[H])c([H])c2F)c([H])c([H])c1OC([H])([H])C([H])([H])C([H])([H])C([H])([H])C([H])([H])C([H])([H])O[N+](=O)[O-]


 52 56  0  0  0  0  0  0  0  0999 V2000
  155.8594  138.3031  190.8608 C   0  0  0  0  0  0  0  0  0  0  0  0
  155.1590  136.9830  191.1683 C   0  0  0  0  0  0  0  0  0  0  0  0
  156.0600  135.8989  190.7314 C   0  0  0  0  0  0  0  0  0  0  0  0
  156.7703  136.0440  189.5630 C   0  0  0  0  0  0  0  0  0  0  0  0
  157.6223  135.0420  189.0962 C   0  0  0  0  0  0  0  0  0  0  0  0
  157.7526  133.8951  189.8147 C   0  0  0  0  0  0  0  0  0  0  0  0
  157.0521  133.7296  190.9844 C   0  0  0  0  0  0  0  0  0  0  0  0
  157.1656  132.5910  191.7088 F   0  0  0  0  0  0  0  0  0  0  0  0
  156.1986  134.7409  191.4460 C   0  0  0  0  0  0  0  0  0  0  0  0
  158.6356  132.8386  189.3564 C   0  0  0  0  0  0  0  0  0  0  0  0
  159.5143  132.2029  190.2046 C   0  0  0  0  0  0  0  0  0  0  0  0
  160.3500  131.1831  189.7380 C   0  0  0  0  0  0  0  0  0  0  0  0
  160.3462  130.7619  188.4303 C   0  0  0  0  0  0  0  0  0  0  0  0
  159.4405  131.4222  187.5751 C   0  0  0  0  0  0  0  0  0  0  0  0
  158.6307  132.4162  188.0465 C   0  0  0  0  0  0  0  0  0  0  0  0
  161.1342  129.7762  187.8928 O   0  0  0  0  0  0  0  0  0  0  0  0
  161.2054  128.4436  188.2892 C   0  0  0  0  0  0  0  0  0  0  0  0
  162.5485  127.8729  187.9632 C   0  0  0  0  0  0  0  0  0  0  0  0
  163.6086  128.4931  188.8249 C   0  0  0  0  0  0  0  0  0  0  0  0
  163.1493  128.5866  190.2393 C   0  0  0  0  0  0  0  0  0  0  0  0
  163.4963  129.8994  190.8937 C   0  0  0  0  0  0  0  0  0  0  0  0
  163.5114  129.7318  192.3854 C   0  0  0  0  0  0  0  0  0  0  0  0
  162.5483  130.6403  192.9481 O   0  0  0  0  0  0  0  0  0  0  0  0
  161.5276  130.0686  193.6685 N   0  0  0  0  0  0  0  0  0  0  0  0
  161.6750  129.6787  194.8417 O   0  0  0  0  0  0  0  0  0  0  0  0
  160.3161  129.9483  193.0136 O   0  0  0  0  0  0  0  0  0  0  0  0
  153.7987  136.9272  190.6372 C   0  0  0  0  0  0  0  0  0  0  0  0
  152.8087  137.2970  191.3622 O   0  0  0  0  0  0  0  0  0  0  0  0
  153.4598  136.4842  189.3383 N   0  0  0  0  0  0  0  0  0  0  0  0
  154.2312  136.1744  188.7124 H   0  0  0  0  0  0  0  0  0  0  0  0
  152.1163  136.4393  188.8288 C   0  0  0  0  0  0  0  0  0  0  0  0
  152.0112  136.9936  187.4284 C   0  0  0  0  0  0  0  0  0  0  0  0
  150.8826  136.3053  186.6867 C   0  0  0  0  0  0  0  0  0  0  0  0
  150.0885  137.4032  185.9765 C   0  0  0  0  0  0  0  0  0  0  0  0
  149.8982  137.0882  184.5420 C   0  0  0  0  0  0  0  0  0  0  0  0
  150.8865  136.1786  183.9458 C   0  0  0  0  0  0  0  0  0  0  0  0
  151.8788  136.7064  183.1097 N   0  0  0  0  0  0  0  0  0  0  0  0
  152.6283  135.9940  182.7694 H   0  0  0  0  0  0  0  0  0  0  0  0
  152.1080  137.9911  182.6135 C   0  0  0  0  0  0  0  0  0  0  0  0
  153.0443  138.8015  183.2240 C   0  0  0  0  0  0  0  0  0  0  0  0
  153.3029  140.0487  182.7052 C   0  0  0  0  0  0  0  0  0  0  0  0
  152.6295  140.4632  181.5943 N   0  0  0  0  0  0  0  0  0  0  0  0
  151.7137  139.7068  180.9713 C   0  0  0  0  0  0  0  0  0  0  0  0
  151.0509  140.1460  179.8504 C   0  0  0  0  0  0  0  0  0  0  0  0
  150.1232  139.3627  179.2241 C   0  0  0  0  0  0  0  0  0  0  0  0
  149.8646  138.1121  179.7454 C   0  0  0  0  0  0  0  0  0  0  0  0
  150.5095  137.6536  180.8573 C   0  0  0  0  0  0  0  0  0  0  0  0
  151.4487  138.4551  181.4859 C   0  0  0  0  0  0  0  0  0  0  0  0
  154.2882  140.9165  183.3590 C   0  0  0  0  0  0  0  0  0  0  0  0
  155.3925  140.2193  184.0743 C   0  0  0  0  0  0  0  0  0  0  0  0
  155.2642  138.7227  184.1323 C   0  0  0  0  0  0  0  0  0  0  0  0
  153.8027  138.3718  184.4238 C   0  0  0  0  0  0  0  0  0  0  0  0
  1  2  1  0  0  0
  2 27  1  0  0  0
 27 28  2  0  0  0
 27 29  1  0  0  0
 29 31  1  0  0  0
 31 32  1  0  0  0
 32 33  1  0  0  0
 33 34  1  0  0  0
 34 35  1  0  0  0
 35 36  1  0  0  0
 36 37  1  0  0  0
 37 39  1  0  0  0
 39 40  2  0  0  0
 40 41  1  0  0  0
 41 42  2  0  0  0
 42 43  1  0  0  0
 43 44  2  0  0  0
 44 45  1  0  0  0
 45 46  2  0  0  0
 46 47  1  0  0  0
 47 48  2  0  0  0
 41 49  1  0  0  0
 49 50  1  0  0  0
 50 51  1  0  0  0
 51 52  1  0  0  0
  2  3  1  0  0  0
  3  4  2  0  0  0
  4  5  1  0  0  0
  5  6  2  0  0  0
  6 10  1  0  0  0
 10 11  2  0  0  0
 11 12  1  0  0  0
 12 13  2  0  0  0
 13 16  1  0  0  0
 16 17  1  0  0  0
 17 18  1  0  0  0
 18 19  1  0  0  0
 19 20  1  0  0  0
 20 21  1  0  0  0
 21 22  1  0  0  0
 22 23  1  0  0  0
 23 24  1  0  0  0
 24 25  2  0  0  0
 24 26  1  0  0  0
 13 14  1  0  0  0
 14 15  2  0  0  0
  6  7  1  0  0  0
  7  8  1  0  0  0
  7  9  2  0  0  0
 48 39  1  0  0  0
  9  3  1  0  0  0
 52 40  1  0  0  0
 15 10  1  0  0  0
 48 43  1  0  0  0
 29 30  1  0  0  0
 37 38  1  0  0  0
M  CHG 1  24   1
M  CHG 1  26  -1
M  END
> <minimizedAffinity>
-7.20026

> <CNNscore>
0.4687210917

> <CNNaffinity>
6.6967287064

> <CNN_VS>
3.1388978958

> <CNNaffinity_variance>
0.1833661646

$$$$
[H]c1c([H])c(-c2c([H])c([H])c(C([H])(C(=O)N([H])C([H])([H])C([H])([H])C([H])([H])C([H])([H])C([H])([H])C([H])([H])N([H])c3c4c(nc5c([H])c([H])c([H])c([H])c35)C([H])([H])C([H])([H])C([H])([H])C4([H])[H])C([H])([H])[H])c([H])c2F)c([H])c([H])c1OC([H])([H])C([H])([H])C([H])([H])C([H])([H])C([H])([H])C([H])([H])O[N+](=O)[O-]


 52 56  0  0  0  0  0  0  0  0999 V2000
  148.2458  136.6786  179.2939 C   0  0  0  0  0  0  0  0  0  0  0  0
  148.0943  138.1538  179.6521 C   0  0  0  0  0  0  0  0  0  0  0  0
  149.3598  138.5829  180.2784 C   0  0  0  0  0  0  0  0  0  0  0  0
  149.4719  138.5663  181.6487 C   0  0  0  0  0  0  0  0  0  0  0  0
  150.6402  138.9785  182.2917 C   0  0  0  0  0  0  0  0  0  0  0  0
  151.6922  139.4064  181.5443 C   0  0  0  0  0  0  0  0  0  0  0  0
  151.6013  139.4309  180.1740 C   0  0  0  0  0  0  0  0  0  0  0  0
  152.6375  139.8601  179.4151 F   0  0  0  0  0  0  0  0  0  0  0  0
  150.4244  139.0154  179.5365 C   0  0  0  0  0  0  0  0  0  0  0  0
  152.9214  139.8353  182.1854 C   0  0  0  0  0  0  0  0  0  0  0  0
  153.5276  141.0317  181.8743 C   0  0  0  0  0  0  0  0  0  0  0  0
  154.7088  141.4239  182.5122 C   0  0  0  0  0  0  0  0  0  0  0  0
  155.3252  140.6543  183.4689 C   0  0  0  0  0  0  0  0  0  0  0  0
  154.6916  139.4330  183.7765 C   0  0  0  0  0  0  0  0  0  0  0  0
  153.5379  139.0645  183.1446 C   0  0  0  0  0  0  0  0  0  0  0  0
  156.4834  140.9624  184.1361 O   0  0  0  0  0  0  0  0  0  0  0  0
  157.2500  140.1142  184.9305 C   0  0  0  0  0  0  0  0  0  0  0  0
  158.6976  140.2330  184.5754 C   0  0  0  0  0  0  0  0  0  0  0  0
  158.8579  140.6000  183.1295 C   0  0  0  0  0  0  0  0  0  0  0  0
  159.8791  141.6730  182.9688 C   0  0  0  0  0  0  0  0  0  0  0  0
  159.3839  143.0349  183.3835 C   0  0  0  0  0  0  0  0  0  0  0  0
  160.3943  143.6879  184.2813 C   0  0  0  0  0  0  0  0  0  0  0  0
  161.1609  142.6522  184.9210 O   0  0  0  0  0  0  0  0  0  0  0  0
  161.1546  142.6570  186.2949 N   0  0  0  0  0  0  0  0  0  0  0  0
  160.1087  142.5309  186.9585 O   0  0  0  0  0  0  0  0  0  0  0  0
  162.3846  142.8113  186.9067 O   0  0  0  0  0  0  0  0  0  0  0  0
  146.8829  138.4275  180.4224 C   0  0  0  0  0  0  0  0  0  0  0  0
  146.3459  139.5906  180.3864 O   0  0  0  0  0  0  0  0  0  0  0  0
  146.2186  137.4840  181.2390 N   0  0  0  0  0  0  0  0  0  0  0  0
  146.6177  136.5249  181.2990 H   0  0  0  0  0  0  0  0  0  0  0  0
  145.0246  137.7676  181.9876 C   0  0  0  0  0  0  0  0  0  0  0  0
  145.3156  138.1212  183.4262 C   0  0  0  0  0  0  0  0  0  0  0  0
  146.6156  137.4744  183.8615 C   0  0  0  0  0  0  0  0  0  0  0  0
  147.4261  138.5551  184.5797 C   0  0  0  0  0  0  0  0  0  0  0  0
  148.2883  137.9711  185.6326 C   0  0  0  0  0  0  0  0  0  0  0  0
  149.3757  137.1001  185.1650 C   0  0  0  0  0  0  0  0  0  0  0  0
  150.5145  136.9449  185.9658 N   0  0  0  0  0  0  0  0  0  0  0  0
  150.3598  137.1051  187.0314 H   0  0  0  0  0  0  0  0  0  0  0  0
  151.8392  136.6199  185.6678 C   0  0  0  0  0  0  0  0  0  0  0  0
  152.1169  135.8198  184.5773 C   0  0  0  0  0  0  0  0  0  0  0  0
  153.4248  135.5397  184.2575 C   0  0  0  0  0  0  0  0  0  0  0  0
  154.4262  136.0589  185.0237 N   0  0  0  0  0  0  0  0  0  0  0  0
  154.1991  136.8405  186.0898 C   0  0  0  0  0  0  0  0  0  0  0  0
  155.2261  137.3549  186.8443 C   0  0  0  0  0  0  0  0  0  0  0  0
  154.9796  138.1528  187.9254 C   0  0  0  0  0  0  0  0  0  0  0  0
  153.6674  138.4330  188.2453 C   0  0  0  0  0  0  0  0  0  0  0  0
  152.6304  137.9340  187.5117 C   0  0  0  0  0  0  0  0  0  0  0  0
  152.8901  137.1254  186.4170 C   0  0  0  0  0  0  0  0  0  0  0  0
  153.7222  134.6801  183.1068 C   0  0  0  0  0  0  0  0  0  0  0  0
  152.7281  134.7133  181.9988 C   0  0  0  0  0  0  0  0  0  0  0  0
  151.4952  135.5266  182.2781 C   0  0  0  0  0  0  0  0  0  0  0  0
  151.0495  135.2539  183.7172 C   0  0  0  0  0  0  0  0  0  0  0  0
  1  2  1  0  0  0
  2 27  1  0  0  0
 27 28  2  0  0  0
 27 29  1  0  0  0
 29 31  1  0  0  0
 31 32  1  0  0  0
 32 33  1  0  0  0
 33 34  1  0  0  0
 34 35  1  0  0  0
 35 36  1  0  0  0
 36 37  1  0  0  0
 37 39  1  0  0  0
 39 40  2  0  0  0
 40 41  1  0  0  0
 41 42  2  0  0  0
 42 43  1  0  0  0
 43 44  2  0  0  0
 44 45  1  0  0  0
 45 46  2  0  0  0
 46 47  1  0  0  0
 47 48  2  0  0  0
 41 49  1  0  0  0
 49 50  1  0  0  0
 50 51  1  0  0  0
 51 52  1  0  0  0
  2  3  1  0  0  0
  3  4  2  0  0  0
  4  5  1  0  0  0
  5  6  2  0  0  0
  6 10  1  0  0  0
 10 11  2  0  0  0
 11 12  1  0  0  0
 12 13  2  0  0  0
 13 16  1  0  0  0
 16 17  1  0  0  0
 17 18  1  0  0  0
 18 19  1  0  0  0
 19 20  1  0  0  0
 20 21  1  0  0  0
 21 22  1  0  0  0
 22 23  1  0  0  0
 23 24  1  0  0  0
 24 25  2  0  0  0
 24 26  1  0  0  0
 13 14  1  0  0  0
 14 15  2  0  0  0
  6  7  1  0  0  0
  7  8  1  0  0  0
  7  9  2  0  0  0
 48 39  1  0  0  0
  9  3  1  0  0  0
 52 40  1  0  0  0
 15 10  1  0  0  0
 48 43  1  0  0  0
 29 30  1  0  0  0
 37 38  1  0  0  0
M  CHG 1  24   1
M  CHG 1  26  -1
M  END
> <minimizedAffinity>
-8.04498

> <CNNscore>
0.4203735292

> <CNNaffinity>
7.5356569290

> <CNN_VS>
3.1677906513

> <CNNaffinity_variance>
0.5355394483

$$$$
[H]c1c([H])c(-c2c([H])c([H])c(C([H])(C(=O)N([H])C([H])([H])C([H])([H])C([H])([H])C([H])([H])C([H])([H])C([H])([H])N([H])c3c4c(nc5c([H])c([H])c([H])c([H])c35)C([H])([H])C([H])([H])C([H])([H])C4([H])[H])C([H])([H])[H])c([H])c2F)c([H])c([H])c1OC([H])([H])C([H])([H])C([H])([H])C([H])([H])C([H])([H])C([H])([H])O[N+](=O)[O-]


 52 56  0  0  0  0  0  0  0  0999 V2000
  155.5708  138.5425  190.6248 C   0  0  0  0  0  0  0  0  0  0  0  0
  155.4011  137.3126  191.5115 C   0  0  0  0  0  0  0  0  0  0  0  0
  156.2371  136.2413  190.9363 C   0  0  0  0  0  0  0  0  0  0  0  0
  156.5204  136.2577  189.5909 C   0  0  0  0  0  0  0  0  0  0  0  0
  157.2914  135.2591  188.9938 C   0  0  0  0  0  0  0  0  0  0  0  0
  157.7738  134.2462  189.7618 C   0  0  0  0  0  0  0  0  0  0  0  0
  157.5027  134.2107  191.1078 C   0  0  0  0  0  0  0  0  0  0  0  0
  157.9702  133.2056  191.8858 F   0  0  0  0  0  0  0  0  0  0  0  0
  156.7275  135.2174  191.6993 C   0  0  0  0  0  0  0  0  0  0  0  0
  158.5830  133.1975  189.1692 C   0  0  0  0  0  0  0  0  0  0  0  0
  159.3009  133.3962  188.0112 C   0  0  0  0  0  0  0  0  0  0  0  0
  160.0782  132.3700  187.4647 C   0  0  0  0  0  0  0  0  0  0  0  0
  160.1706  131.1248  188.0379 C   0  0  0  0  0  0  0  0  0  0  0  0
  159.4303  130.9378  189.2231 C   0  0  0  0  0  0  0  0  0  0  0  0
  158.6762  131.9506  189.7444 C   0  0  0  0  0  0  0  0  0  0  0  0
  160.9032  130.0660  187.5650 O   0  0  0  0  0  0  0  0  0  0  0  0
  160.9222  128.7652  188.0609 C   0  0  0  0  0  0  0  0  0  0  0  0
  162.2666  128.4430  188.6303 C   0  0  0  0  0  0  0  0  0  0  0  0
  162.2819  128.6769  190.1122 C   0  0  0  0  0  0  0  0  0  0  0  0
  163.4658  129.4922  190.5043 C   0  0  0  0  0  0  0  0  0  0  0  0
  163.1433  130.5666  191.5112 C   0  0  0  0  0  0  0  0  0  0  0  0
  161.8404  130.2511  192.1867 C   0  0  0  0  0  0  0  0  0  0  0  0
  162.0621  130.2470  193.6081 O   0  0  0  0  0  0  0  0  0  0  0  0
  161.7461  129.0827  194.2655 N   0  0  0  0  0  0  0  0  0  0  0  0
  161.2232  129.0744  195.3954 O   0  0  0  0  0  0  0  0  0  0  0  0
  162.0434  127.9092  193.5979 O   0  0  0  0  0  0  0  0  0  0  0  0
  153.9992  136.9678  191.7383 C   0  0  0  0  0  0  0  0  0  0  0  0
  153.1103  137.2813  190.8699 O   0  0  0  0  0  0  0  0  0  0  0  0
  153.5122  136.2884  192.8783 N   0  0  0  0  0  0  0  0  0  0  0  0
  154.1976  136.0126  193.6110 H   0  0  0  0  0  0  0  0  0  0  0  0
  152.1297  135.9524  193.0848 C   0  0  0  0  0  0  0  0  0  0  0  0
  151.9565  134.6266  193.7859 C   0  0  0  0  0  0  0  0  0  0  0  0
  150.9723  133.7650  193.0198 C   0  0  0  0  0  0  0  0  0  0  0  0
  151.5174  133.6335  191.5964 C   0  0  0  0  0  0  0  0  0  0  0  0
  150.4955  134.0067  190.5916 C   0  0  0  0  0  0  0  0  0  0  0  0
  151.0045  134.5779  189.3369 C   0  0  0  0  0  0  0  0  0  0  0  0
  152.3658  134.8923  189.2361 N   0  0  0  0  0  0  0  0  0  0  0  0
  152.8513  135.1651  190.1715 H   0  0  0  0  0  0  0  0  0  0  0  0
  153.2471  134.9288  188.1539 C   0  0  0  0  0  0  0  0  0  0  0  0
  153.3074  136.0573  187.3606 C   0  0  0  0  0  0  0  0  0  0  0  0
  154.2096  136.1100  186.3239 C   0  0  0  0  0  0  0  0  0  0  0  0
  155.0311  135.0453  186.0981 N   0  0  0  0  0  0  0  0  0  0  0  0
  155.0049  133.9318  186.8454 C   0  0  0  0  0  0  0  0  0  0  0  0
  155.8462  132.8733  186.5997 C   0  0  0  0  0  0  0  0  0  0  0  0
  155.8108  131.7469  187.3719 C   0  0  0  0  0  0  0  0  0  0  0  0
  154.9053  131.6951  188.4112 C   0  0  0  0  0  0  0  0  0  0  0  0
  154.0595  132.7330  188.6750 C   0  0  0  0  0  0  0  0  0  0  0  0
  154.1025  133.8714  187.8864 C   0  0  0  0  0  0  0  0  0  0  0  0
  154.2672  137.3027  185.4722 C   0  0  0  0  0  0  0  0  0  0  0  0
  153.8841  138.5848  186.1253 C   0  0  0  0  0  0  0  0  0  0  0  0
  153.3678  138.4503  187.5306 C   0  0  0  0  0  0  0  0  0  0  0  0
  152.4374  137.2360  187.5917 C   0  0  0  0  0  0  0  0  0  0  0  0
  1  2  1  0  0  0
  2 27  1  0  0  0
 27 28  2  0  0  0
 27 29  1  0  0  0
 29 31  1  0  0  0
 31 32  1  0  0  0
 32 33  1  0  0  0
 33 34  1  0  0  0
 34 35  1  0  0  0
 35 36  1  0  0  0
 36 37  1  0  0  0
 37 39  1  0  0  0
 39 40  2  0  0  0
 40 41  1  0  0  0
 41 42  2  0  0  0
 42 43  1  0  0  0
 43 44  2  0  0  0
 44 45  1  0  0  0
 45 46  2  0  0  0
 46 47  1  0  0  0
 47 48  2  0  0  0
 41 49  1  0  0  0
 49 50  1  0  0  0
 50 51  1  0  0  0
 51 52  1  0  0  0
  2  3  1  0  0  0
  3  4  2  0  0  0
  4  5  1  0  0  0
  5  6  2  0  0  0
  6 10  1  0  0  0
 10 11  2  0  0  0
 11 12  1  0  0  0
 12 13  2  0  0  0
 13 16  1  0  0  0
 16 17  1  0  0  0
 17 18  1  0  0  0
 18 19  1  0  0  0
 19 20  1  0  0  0
 20 21  1  0  0  0
 21 22  1  0  0  0
 22 23  1  0  0  0
 23 24  1  0  0  0
 24 25  2  0  0  0
 24 26  1  0  0  0
 13 14  1  0  0  0
 14 15  2  0  0  0
  6  7  1  0  0  0
  7  8  1  0  0  0
  7  9  2  0  0  0
 48 39  1  0  0  0
  9  3  1  0  0  0
 52 40  1  0  0  0
 15 10  1  0  0  0
 48 43  1  0  0  0
 29 30  1  0  0  0
 37 38  1  0  0  0
M  CHG 1  24   1
M  CHG 1  26  -1
M  END
> <minimizedAffinity>
-5.75996

> <CNNscore>
0.3792567849

> <CNNaffinity>
6.9393186569

> <CNN_VS>
2.6317837238

> <CNNaffinity_variance>
0.5859016776

$$$$
[H]c1c([H])c(-c2c([H])c([H])c(C([H])(C(=O)N([H])C([H])([H])C([H])([H])C([H])([H])C([H])([H])C([H])([H])C([H])([H])N([H])c3c4c(nc5c([H])c([H])c([H])c([H])c35)C([H])([H])C([H])([H])C([H])([H])C4([H])[H])C([H])([H])[H])c([H])c2F)c([H])c([H])c1OC([H])([H])C([H])([H])C([H])([H])C([H])([H])C([H])([H])C([H])([H])O[N+](=O)[O-]


 52 56  0  0  0  0  0  0  0  0999 V2000
  151.1275  139.8126  180.2968 C   0  0  0  0  0  0  0  0  0  0  0  0
  151.2429  139.3233  181.7373 C   0  0  0  0  0  0  0  0  0  0  0  0
  152.6044  139.6519  182.2020 C   0  0  0  0  0  0  0  0  0  0  0  0
  153.1819  138.8869  183.1878 C   0  0  0  0  0  0  0  0  0  0  0  0
  154.4598  139.1655  183.6752 C   0  0  0  0  0  0  0  0  0  0  0  0
  155.1495  140.2189  183.1621 C   0  0  0  0  0  0  0  0  0  0  0  0
  154.5911  140.9960  182.1768 C   0  0  0  0  0  0  0  0  0  0  0  0
  155.2620  142.0525  181.6593 F   0  0  0  0  0  0  0  0  0  0  0  0
  153.3074  140.7092  181.6932 C   0  0  0  0  0  0  0  0  0  0  0  0
  156.4822  140.5287  183.6456 C   0  0  0  0  0  0  0  0  0  0  0  0
  157.5792  139.7739  183.2955 C   0  0  0  0  0  0  0  0  0  0  0  0
  158.8539  140.0985  183.7707 C   0  0  0  0  0  0  0  0  0  0  0  0
  159.0851  141.1688  184.6005 C   0  0  0  0  0  0  0  0  0  0  0  0
  157.9519  141.9318  184.9489 C   0  0  0  0  0  0  0  0  0  0  0  0
  156.7136  141.6017  184.4759 C   0  0  0  0  0  0  0  0  0  0  0  0
  160.2985  141.5510  185.1132 O   0  0  0  0  0  0  0  0  0  0  0  0
  160.6219  142.7757  185.6908 C   0  0  0  0  0  0  0  0  0  0  0  0
  161.3649  143.6326  184.7165 C   0  0  0  0  0  0  0  0  0  0  0  0
  160.4485  144.6492  184.1020 C   0  0  0  0  0  0  0  0  0  0  0  0
  159.9117  144.1566  182.8023 C   0  0  0  0  0  0  0  0  0  0  0  0
  158.6595  144.8724  182.3643 C   0  0  0  0  0  0  0  0  0  0  0  0
  157.7261  143.8994  181.7044 C   0  0  0  0  0  0  0  0  0  0  0  0
  158.4573  142.6904  181.4337 O   0  0  0  0  0  0  0  0  0  0  0  0
  158.2493  142.1219  180.2003 N   0  0  0  0  0  0  0  0  0  0  0  0
  157.6311  141.0512  180.0540 O   0  0  0  0  0  0  0  0  0  0  0  0
  158.7690  142.8101  179.1198 O   0  0  0  0  0  0  0  0  0  0  0  0
  150.8409  137.9271  181.8943 C   0  0  0  0  0  0  0  0  0  0  0  0
  151.6919  136.9871  181.7082 O   0  0  0  0  0  0  0  0  0  0  0  0
  149.5413  137.4993  182.2501 N   0  0  0  0  0  0  0  0  0  0  0  0
  148.8160  138.2275  182.4124 H   0  0  0  0  0  0  0  0  0  0  0  0
  149.1625  136.1212  182.4050 C   0  0  0  0  0  0  0  0  0  0  0  0
  148.1128  135.6955  181.4068 C   0  0  0  0  0  0  0  0  0  0  0  0
  148.3161  136.4361  180.1000 C   0  0  0  0  0  0  0  0  0  0  0  0
  147.7794  135.5286  178.9915 C   0  0  0  0  0  0  0  0  0  0  0  0
  146.6308  136.1513  178.2944 C   0  0  0  0  0  0  0  0  0  0  0  0
  146.2295  135.5242  177.0273 C   0  0  0  0  0  0  0  0  0  0  0  0
  144.8709  135.4859  176.6882 N   0  0  0  0  0  0  0  0  0  0  0  0
  144.2031  135.1468  177.4782 H   0  0  0  0  0  0  0  0  0  0  0  0
  144.1831  135.8004  175.5146 C   0  0  0  0  0  0  0  0  0  0  0  0
  143.9873  137.1236  175.1721 C   0  0  0  0  0  0  0  0  0  0  0  0
  143.3514  137.4316  173.9922 C   0  0  0  0  0  0  0  0  0  0  0  0
  142.9257  136.4229  173.1793 N   0  0  0  0  0  0  0  0  0  0  0  0
  143.0969  135.1258  173.4748 C   0  0  0  0  0  0  0  0  0  0  0  0
  142.6618  134.1273  172.6368 C   0  0  0  0  0  0  0  0  0  0  0  0
  142.8468  132.8102  172.9491 C   0  0  0  0  0  0  0  0  0  0  0  0
  143.4846  132.5025  174.1329 C   0  0  0  0  0  0  0  0  0  0  0  0
  143.9255  133.4761  174.9816 C   0  0  0  0  0  0  0  0  0  0  0  0
  143.7333  134.8092  174.6565 C   0  0  0  0  0  0  0  0  0  0  0  0
  143.1313  138.8362  173.6318 C   0  0  0  0  0  0  0  0  0  0  0  0
  144.1358  139.8041  174.1525 C   0  0  0  0  0  0  0  0  0  0  0  0
  145.1597  139.2156  175.0826 C   0  0  0  0  0  0  0  0  0  0  0  0
  144.4528  138.2413  176.0286 C   0  0  0  0  0  0  0  0  0  0  0  0
  1  2  1  0  0  0
  2 27  1  0  0  0
 27 28  2  0  0  0
 27 29  1  0  0  0
 29 31  1  0  0  0
 31 32  1  0  0  0
 32 33  1  0  0  0
 33 34  1  0  0  0
 34 35  1  0  0  0
 35 36  1  0  0  0
 36 37  1  0  0  0
 37 39  1  0  0  0
 39 40  2  0  0  0
 40 41  1  0  0  0
 41 42  2  0  0  0
 42 43  1  0  0  0
 43 44  2  0  0  0
 44 45  1  0  0  0
 45 46  2  0  0  0
 46 47  1  0  0  0
 47 48  2  0  0  0
 41 49  1  0  0  0
 49 50  1  0  0  0
 50 51  1  0  0  0
 51 52  1  0  0  0
  2  3  1  0  0  0
  3  4  2  0  0  0
  4  5  1  0  0  0
  5  6  2  0  0  0
  6 10  1  0  0  0
 10 11  2  0  0  0
 11 12  1  0  0  0
 12 13  2  0  0  0
 13 16  1  0  0  0
 16 17  1  0  0  0
 17 18  1  0  0  0
 18 19  1  0  0  0
 19 20  1  0  0  0
 20 21  1  0  0  0
 21 22  1  0  0  0
 22 23  1  0  0  0
 23 24  1  0  0  0
 24 25  2  0  0  0
 24 26  1  0  0  0
 13 14  1  0  0  0
 14 15  2  0  0  0
  6  7  1  0  0  0
  7  8  1  0  0  0
  7  9  2  0  0  0
 48 39  1  0  0  0
  9  3  1  0  0  0
 52 40  1  0  0  0
 15 10  1  0  0  0
 48 43  1  0  0  0
 29 30  1  0  0  0
 37 38  1  0  0  0
M  CHG 1  24   1
M  CHG 1  26  -1
M  END
> <minimizedAffinity>
-7.81734

> <CNNscore>
0.3556418717

> <CNNaffinity>
6.4823088646

> <CNN_VS>
2.3053803444

> <CNNaffinity_variance>
0.2322173864

$$$$
[H]c1c([H])c(-c2c([H])c([H])c(C([H])(C(=O)N([H])C([H])([H])C([H])([H])C([H])([H])C([H])([H])C([H])([H])C([H])([H])N([H])c3c4c(nc5c([H])c([H])c([H])c([H])c35)C([H])([H])C([H])([H])C([H])([H])C4([H])[H])C([H])([H])[H])c([H])c2F)c([H])c([H])c1OC([H])([H])C([H])([H])C([H])([H])C([H])([H])C([H])([H])C([H])([H])O[N+](=O)[O-]


 52 56  0  0  0  0  0  0  0  0999 V2000
  154.3670  136.0887  191.9240 C   0  0  0  0  0  0  0  0  0  0  0  0
  155.6958  135.9601  191.1853 C   0  0  0  0  0  0  0  0  0  0  0  0
  155.5295  136.6115  189.8716 C   0  0  0  0  0  0  0  0  0  0  0  0
  156.3270  136.2218  188.8215 C   0  0  0  0  0  0  0  0  0  0  0  0
  156.2224  136.8176  187.5637 C   0  0  0  0  0  0  0  0  0  0  0  0
  155.3095  137.8071  187.3730 C   0  0  0  0  0  0  0  0  0  0  0  0
  154.5030  138.2115  188.4086 C   0  0  0  0  0  0  0  0  0  0  0  0
  153.5930  139.1998  188.2373 F   0  0  0  0  0  0  0  0  0  0  0  0
  154.6147  137.6079  189.6685 C   0  0  0  0  0  0  0  0  0  0  0  0
  155.1747  138.4406  186.0744 C   0  0  0  0  0  0  0  0  0  0  0  0
  156.1869  139.1917  185.5204 C   0  0  0  0  0  0  0  0  0  0  0  0
  156.0330  139.7862  184.2638 C   0  0  0  0  0  0  0  0  0  0  0  0
  154.8846  139.6605  183.5202 C   0  0  0  0  0  0  0  0  0  0  0  0
  153.8583  138.8878  184.1011 C   0  0  0  0  0  0  0  0  0  0  0  0
  154.0245  138.3134  185.3293 C   0  0  0  0  0  0  0  0  0  0  0  0
  154.6518  140.2135  182.2867 O   0  0  0  0  0  0  0  0  0  0  0  0
  153.6901  141.1645  181.9569 C   0  0  0  0  0  0  0  0  0  0  0  0
  153.6689  142.2602  182.9742 C   0  0  0  0  0  0  0  0  0  0  0  0
  154.4524  143.4447  182.4903 C   0  0  0  0  0  0  0  0  0  0  0  0
  155.8654  143.3674  182.9568 C   0  0  0  0  0  0  0  0  0  0  0  0
  156.8691  143.6561  181.8700 C   0  0  0  0  0  0  0  0  0  0  0  0
  157.7063  142.4358  181.6185 C   0  0  0  0  0  0  0  0  0  0  0  0
  158.5465  142.2244  182.7670 O   0  0  0  0  0  0  0  0  0  0  0  0
  159.3171  141.0870  182.7506 N   0  0  0  0  0  0  0  0  0  0  0  0
  159.0114  140.0827  182.0813 O   0  0  0  0  0  0  0  0  0  0  0  0
  160.4615  141.1184  183.5254 O   0  0  0  0  0  0  0  0  0  0  0  0
  156.1936  134.5865  191.1515 C   0  0  0  0  0  0  0  0  0  0  0  0
  155.3917  133.6168  190.9088 O   0  0  0  0  0  0  0  0  0  0  0  0
  157.5393  134.2130  191.3704 N   0  0  0  0  0  0  0  0  0  0  0  0
  158.2279  134.9670  191.5707 H   0  0  0  0  0  0  0  0  0  0  0  0
  158.0144  132.8568  191.3295 C   0  0  0  0  0  0  0  0  0  0  0  0
  158.4707  132.4465  189.9501 C   0  0  0  0  0  0  0  0  0  0  0  0
  159.4175  133.4896  189.3906 C   0  0  0  0  0  0  0  0  0  0  0  0
  159.8266  133.0103  187.9965 C   0  0  0  0  0  0  0  0  0  0  0  0
  159.1908  131.7148  187.6642 C   0  0  0  0  0  0  0  0  0  0  0  0
  160.1073  130.6020  187.3786 C   0  0  0  0  0  0  0  0  0  0  0  0
  160.4451  129.7175  188.4109 N   0  0  0  0  0  0  0  0  0  0  0  0
  159.6027  129.2862  188.9490 H   0  0  0  0  0  0  0  0  0  0  0  0
  161.6717  129.2669  188.9025 C   0  0  0  0  0  0  0  0  0  0  0  0
  162.1049  129.6864  190.1446 C   0  0  0  0  0  0  0  0  0  0  0  0
  163.2907  129.2044  190.6475 C   0  0  0  0  0  0  0  0  0  0  0  0
  164.0185  128.3182  189.9097 N   0  0  0  0  0  0  0  0  0  0  0  0
  163.6329  127.8852  188.7003 C   0  0  0  0  0  0  0  0  0  0  0  0
  164.3826  126.9884  187.9777 C   0  0  0  0  0  0  0  0  0  0  0  0
  163.9751  126.5533  186.7485 C   0  0  0  0  0  0  0  0  0  0  0  0
  162.7857  127.0375  186.2450 C   0  0  0  0  0  0  0  0  0  0  0  0
  162.0236  127.9287  186.9433 C   0  0  0  0  0  0  0  0  0  0  0  0
  162.4451  128.3645  188.1891 C   0  0  0  0  0  0  0  0  0  0  0  0
  163.7592  129.6578  191.9614 C   0  0  0  0  0  0  0  0  0  0  0  0
  162.6966  130.0385  192.9325 C   0  0  0  0  0  0  0  0  0  0  0  0
  161.2989  130.0264  192.3792 C   0  0  0  0  0  0  0  0  0  0  0  0
  161.3273  130.6372  190.9757 C   0  0  0  0  0  0  0  0  0  0  0  0
  1  2  1  0  0  0
  2 27  1  0  0  0
 27 28  2  0  0  0
 27 29  1  0  0  0
 29 31  1  0  0  0
 31 32  1  0  0  0
 32 33  1  0  0  0
 33 34  1  0  0  0
 34 35  1  0  0  0
 35 36  1  0  0  0
 36 37  1  0  0  0
 37 39  1  0  0  0
 39 40  2  0  0  0
 40 41  1  0  0  0
 41 42  2  0  0  0
 42 43  1  0  0  0
 43 44  2  0  0  0
 44 45  1  0  0  0
 45 46  2  0  0  0
 46 47  1  0  0  0
 47 48  2  0  0  0
 41 49  1  0  0  0
 49 50  1  0  0  0
 50 51  1  0  0  0
 51 52  1  0  0  0
  2  3  1  0  0  0
  3  4  2  0  0  0
  4  5  1  0  0  0
  5  6  2  0  0  0
  6 10  1  0  0  0
 10 11  2  0  0  0
 11 12  1  0  0  0
 12 13  2  0  0  0
 13 16  1  0  0  0
 16 17  1  0  0  0
 17 18  1  0  0  0
 18 19  1  0  0  0
 19 20  1  0  0  0
 20 21  1  0  0  0
 21 22  1  0  0  0
 22 23  1  0  0  0
 23 24  1  0  0  0
 24 25  2  0  0  0
 24 26  1  0  0  0
 13 14  1  0  0  0
 14 15  2  0  0  0
  6  7  1  0  0  0
  7  8  1  0  0  0
  7  9  2  0  0  0
 48 39  1  0  0  0
  9  3  1  0  0  0
 52 40  1  0  0  0
 15 10  1  0  0  0
 48 43  1  0  0  0
 29 30  1  0  0  0
 37 38  1  0  0  0
M  CHG 1  24   1
M  CHG 1  26  -1
M  END
> <minimizedAffinity>
-8.61181

> <CNNscore>
0.3206267357

> <CNNaffinity>
6.7933640480

> <CNN_VS>
2.1781342030

> <CNNaffinity_variance>
0.1326080710

$$$$
[H]c1c([H])c(-c2c([H])c([H])c(C([H])(C(=O)N([H])C([H])([H])C([H])([H])C([H])([H])C([H])([H])C([H])([H])C([H])([H])N([H])c3c4c(nc5c([H])c([H])c([H])c([H])c35)C([H])([H])C([H])([H])C([H])([H])C4([H])[H])C([H])([H])[H])c([H])c2F)c([H])c([H])c1OC([H])([H])C([H])([H])C([H])([H])C([H])([H])C([H])([H])C([H])([H])O[N+](=O)[O-]


 52 56  0  0  0  0  0  0  0  0999 V2000
  154.7320  135.9635  192.1198 C   0  0  0  0  0  0  0  0  0  0  0  0
  156.0082  135.8155  191.2970 C   0  0  0  0  0  0  0  0  0  0  0  0
  155.7713  136.4805  190.0010 C   0  0  0  0  0  0  0  0  0  0  0  0
  156.4700  136.0631  188.8928 C   0  0  0  0  0  0  0  0  0  0  0  0
  156.2963  136.6697  187.6478 C   0  0  0  0  0  0  0  0  0  0  0  0
  155.4147  137.6979  187.5288 C   0  0  0  0  0  0  0  0  0  0  0  0
  154.7065  138.1305  188.6233 C   0  0  0  0  0  0  0  0  0  0  0  0
  153.8292  139.1573  188.5234 F   0  0  0  0  0  0  0  0  0  0  0  0
  154.8871  137.5159  189.8698 C   0  0  0  0  0  0  0  0  0  0  0  0
  155.2095  138.3436  186.2455 C   0  0  0  0  0  0  0  0  0  0  0  0
  156.2130  139.0404  185.6106 C   0  0  0  0  0  0  0  0  0  0  0  0
  155.9900  139.6480  184.3708 C   0  0  0  0  0  0  0  0  0  0  0  0
  154.7796  139.5889  183.7234 C   0  0  0  0  0  0  0  0  0  0  0  0
  153.7631  138.8712  184.3863 C   0  0  0  0  0  0  0  0  0  0  0  0
  153.9971  138.2831  185.5969 C   0  0  0  0  0  0  0  0  0  0  0  0
  154.4778  140.1593  182.5131 O   0  0  0  0  0  0  0  0  0  0  0  0
  153.7257  141.3087  182.2868 C   0  0  0  0  0  0  0  0  0  0  0  0
  154.2379  142.4402  183.1193 C   0  0  0  0  0  0  0  0  0  0  0  0
  155.1329  143.3296  182.3077 C   0  0  0  0  0  0  0  0  0  0  0  0
  156.5597  143.1278  182.6867 C   0  0  0  0  0  0  0  0  0  0  0  0
  157.5242  143.8673  181.7952 C   0  0  0  0  0  0  0  0  0  0  0  0
  158.8817  143.2327  181.8833 C   0  0  0  0  0  0  0  0  0  0  0  0
  158.8389  141.9827  181.1723 O   0  0  0  0  0  0  0  0  0  0  0  0
  158.4342  142.0473  179.8609 N   0  0  0  0  0  0  0  0  0  0  0  0
  159.0241  142.7427  179.0133 O   0  0  0  0  0  0  0  0  0  0  0  0
  157.3254  141.2908  179.5303 O   0  0  0  0  0  0  0  0  0  0  0  0
  156.4759  134.4330  191.2220 C   0  0  0  0  0  0  0  0  0  0  0  0
  155.6522  133.4882  190.9551 O   0  0  0  0  0  0  0  0  0  0  0  0
  157.8139  134.0244  191.4247 N   0  0  0  0  0  0  0  0  0  0  0  0
  158.5194  134.7573  191.6434 H   0  0  0  0  0  0  0  0  0  0  0  0
  158.2593  132.6600  191.3432 C   0  0  0  0  0  0  0  0  0  0  0  0
  158.6583  132.2657  189.9416 C   0  0  0  0  0  0  0  0  0  0  0  0
  159.4346  133.3940  189.2918 C   0  0  0  0  0  0  0  0  0  0  0  0
  159.8948  132.8819  187.9255 C   0  0  0  0  0  0  0  0  0  0  0  0
  159.1852  131.6376  187.5497 C   0  0  0  0  0  0  0  0  0  0  0  0
  160.0361  130.4903  187.2042 C   0  0  0  0  0  0  0  0  0  0  0  0
  160.3466  129.5511  188.1961 N   0  0  0  0  0  0  0  0  0  0  0  0
  159.5001  129.1926  188.7793 H   0  0  0  0  0  0  0  0  0  0  0  0
  161.5497  128.9686  188.5991 C   0  0  0  0  0  0  0  0  0  0  0  0
  162.1718  128.0495  187.7778 C   0  0  0  0  0  0  0  0  0  0  0  0
  163.3804  127.5123  188.1546 C   0  0  0  0  0  0  0  0  0  0  0  0
  163.9447  127.8985  189.3343 N   0  0  0  0  0  0  0  0  0  0  0  0
  163.3740  128.7883  190.1597 C   0  0  0  0  0  0  0  0  0  0  0  0
  163.9650  129.1642  191.3421 C   0  0  0  0  0  0  0  0  0  0  0  0
  163.3735  130.0749  192.1710 C   0  0  0  0  0  0  0  0  0  0  0  0
  162.1612  130.6129  191.7921 C   0  0  0  0  0  0  0  0  0  0  0  0
  161.5544  130.2556  190.6231 C   0  0  0  0  0  0  0  0  0  0  0  0
  162.1617  129.3310  189.7888 C   0  0  0  0  0  0  0  0  0  0  0  0
  164.0374  126.5265  187.2897 C   0  0  0  0  0  0  0  0  0  0  0  0
  163.7582  126.6541  185.8327 C   0  0  0  0  0  0  0  0  0  0  0  0
  162.7375  127.6972  185.4724 C   0  0  0  0  0  0  0  0  0  0  0  0
  161.5894  127.6222  186.4825 C   0  0  0  0  0  0  0  0  0  0  0  0
  1  2  1  0  0  0
  2 27  1  0  0  0
 27 28  2  0  0  0
 27 29  1  0  0  0
 29 31  1  0  0  0
 31 32  1  0  0  0
 32 33  1  0  0  0
 33 34  1  0  0  0
 34 35  1  0  0  0
 35 36  1  0  0  0
 36 37  1  0  0  0
 37 39  1  0  0  0
 39 40  2  0  0  0
 40 41  1  0  0  0
 41 42  2  0  0  0
 42 43  1  0  0  0
 43 44  2  0  0  0
 44 45  1  0  0  0
 45 46  2  0  0  0
 46 47  1  0  0  0
 47 48  2  0  0  0
 41 49  1  0  0  0
 49 50  1  0  0  0
 50 51  1  0  0  0
 51 52  1  0  0  0
  2  3  1  0  0  0
  3  4  2  0  0  0
  4  5  1  0  0  0
  5  6  2  0  0  0
  6 10  1  0  0  0
 10 11  2  0  0  0
 11 12  1  0  0  0
 12 13  2  0  0  0
 13 16  1  0  0  0
 16 17  1  0  0  0
 17 18  1  0  0  0
 18 19  1  0  0  0
 19 20  1  0  0  0
 20 21  1  0  0  0
 21 22  1  0  0  0
 22 23  1  0  0  0
 23 24  1  0  0  0
 24 25  2  0  0  0
 24 26  1  0  0  0
 13 14  1  0  0  0
 14 15  2  0  0  0
  6  7  1  0  0  0
  7  8  1  0  0  0
  7  9  2  0  0  0
 48 39  1  0  0  0
  9  3  1  0  0  0
 52 40  1  0  0  0
 15 10  1  0  0  0
 48 43  1  0  0  0
 29 30  1  0  0  0
 37 38  1  0  0  0
M  CHG 1  24   1
M  CHG 1  26  -1
M  END
> <minimizedAffinity>
-8.85328

> <CNNscore>
0.2873602211

> <CNNaffinity>
6.5431680679

> <CNN_VS>
1.8802462816

> <CNNaffinity_variance>
0.2090891600

$$$$
[H]c1c([H])c(-c2c([H])c([H])c(C([H])(C(=O)N([H])C([H])([H])C([H])([H])C([H])([H])C([H])([H])C([H])([H])C([H])([H])N([H])c3c4c(nc5c([H])c([H])c([H])c([H])c35)C([H])([H])C([H])([H])C([H])([H])C4([H])[H])C([H])([H])[H])c([H])c2F)c([H])c([H])c1OC([H])([H])C([H])([H])C([H])([H])C([H])([H])C([H])([H])C([H])([H])O[N+](=O)[O-]


 52 56  0  0  0  0  0  0  0  0999 V2000
  154.4549  141.5105  182.9599 C   0  0  0  0  0  0  0  0  0  0  0  0
  154.3414  139.9969  182.8054 C   0  0  0  0  0  0  0  0  0  0  0  0
  153.0161  139.7162  182.2201 C   0  0  0  0  0  0  0  0  0  0  0  0
  152.2673  138.6759  182.7177 C   0  0  0  0  0  0  0  0  0  0  0  0
  151.0157  138.3573  182.1886 C   0  0  0  0  0  0  0  0  0  0  0  0
  150.5258  139.0940  181.1562 C   0  0  0  0  0  0  0  0  0  0  0  0
  151.2574  140.1375  180.6441 C   0  0  0  0  0  0  0  0  0  0  0  0
  150.7868  140.8773  179.6120 F   0  0  0  0  0  0  0  0  0  0  0  0
  152.5134  140.4505  181.1814 C   0  0  0  0  0  0  0  0  0  0  0  0
  149.2249  138.7892  180.5899 C   0  0  0  0  0  0  0  0  0  0  0  0
  148.0821  139.4424  180.9937 C   0  0  0  0  0  0  0  0  0  0  0  0
  146.8415  139.1335  180.4266 C   0  0  0  0  0  0  0  0  0  0  0  0
  146.6898  138.1775  179.4516 C   0  0  0  0  0  0  0  0  0  0  0  0
  147.8693  137.5186  179.0488 C   0  0  0  0  0  0  0  0  0  0  0  0
  149.0735  137.8322  179.6123 C   0  0  0  0  0  0  0  0  0  0  0  0
  145.5128  137.8120  178.8495 O   0  0  0  0  0  0  0  0  0  0  0  0
  144.2244  137.9643  179.3545 C   0  0  0  0  0  0  0  0  0  0  0  0
  144.2432  137.9391  180.8494 C   0  0  0  0  0  0  0  0  0  0  0  0
  142.8807  138.2424  181.3994 C   0  0  0  0  0  0  0  0  0  0  0  0
  142.5019  137.2500  182.4443 C   0  0  0  0  0  0  0  0  0  0  0  0
  143.6864  136.5485  183.0582 C   0  0  0  0  0  0  0  0  0  0  0  0
  143.3663  136.1606  184.4726 C   0  0  0  0  0  0  0  0  0  0  0  0
  144.5391  136.3852  185.2750 O   0  0  0  0  0  0  0  0  0  0  0  0
  144.4578  137.4057  186.1913 N   0  0  0  0  0  0  0  0  0  0  0  0
  143.8536  138.4684  185.9556 O   0  0  0  0  0  0  0  0  0  0  0  0
  145.0896  137.1864  187.4012 O   0  0  0  0  0  0  0  0  0  0  0  0
  154.6532  139.2774  184.0386 C   0  0  0  0  0  0  0  0  0  0  0  0
  155.7208  138.5732  184.1209 O   0  0  0  0  0  0  0  0  0  0  0  0
  153.8497  139.2887  185.2016 N   0  0  0  0  0  0  0  0  0  0  0  0
  152.9724  139.8479  185.1823 H   0  0  0  0  0  0  0  0  0  0  0  0
  154.1726  138.5787  186.4092 C   0  0  0  0  0  0  0  0  0  0  0  0
  152.9548  138.2954  187.2554 C   0  0  0  0  0  0  0  0  0  0  0  0
  152.2094  137.0987  186.6988 C   0  0  0  0  0  0  0  0  0  0  0  0
  153.2503  136.2115  186.0134 C   0  0  0  0  0  0  0  0  0  0  0  0
  153.2462  134.8422  186.5774 C   0  0  0  0  0  0  0  0  0  0  0  0
  152.4381  134.6473  187.7894 C   0  0  0  0  0  0  0  0  0  0  0  0
  153.0684  134.6837  189.0398 N   0  0  0  0  0  0  0  0  0  0  0  0
  153.5334  133.7510  189.3543 H   0  0  0  0  0  0  0  0  0  0  0  0
  153.2240  135.6968  189.9878 C   0  0  0  0  0  0  0  0  0  0  0  0
  152.2224  135.9289  190.9093 C   0  0  0  0  0  0  0  0  0  0  0  0
  152.3974  136.8953  191.8720 C   0  0  0  0  0  0  0  0  0  0  0  0
  153.5597  137.6078  191.9003 N   0  0  0  0  0  0  0  0  0  0  0  0
  154.5568  137.4128  191.0246 C   0  0  0  0  0  0  0  0  0  0  0  0
  155.7207  138.1418  191.0763 C   0  0  0  0  0  0  0  0  0  0  0  0
  156.7294  137.9293  190.1798 C   0  0  0  0  0  0  0  0  0  0  0  0
  156.5527  136.9599  189.2146 C   0  0  0  0  0  0  0  0  0  0  0  0
  155.4061  136.2232  189.1426 C   0  0  0  0  0  0  0  0  0  0  0  0
  154.3884  136.4458  190.0560 C   0  0  0  0  0  0  0  0  0  0  0  0
  151.3300  137.1523  192.8446 C   0  0  0  0  0  0  0  0  0  0  0  0
  150.4632  135.9885  193.1784 C   0  0  0  0  0  0  0  0  0  0  0  0
  150.7278  134.7491  192.3698 C   0  0  0  0  0  0  0  0  0  0  0  0
  150.9545  135.1596  190.9124 C   0  0  0  0  0  0  0  0  0  0  0  0
  1  2  1  0  0  0
  2 27  1  0  0  0
 27 28  2  0  0  0
 27 29  1  0  0  0
 29 31  1  0  0  0
 31 32  1  0  0  0
 32 33  1  0  0  0
 33 34  1  0  0  0
 34 35  1  0  0  0
 35 36  1  0  0  0
 36 37  1  0  0  0
 37 39  1  0  0  0
 39 40  2  0  0  0
 40 41  1  0  0  0
 41 42  2  0  0  0
 42 43  1  0  0  0
 43 44  2  0  0  0
 44 45  1  0  0  0
 45 46  2  0  0  0
 46 47  1  0  0  0
 47 48  2  0  0  0
 41 49  1  0  0  0
 49 50  1  0  0  0
 50 51  1  0  0  0
 51 52  1  0  0  0
  2  3  1  0  0  0
  3  4  2  0  0  0
  4  5  1  0  0  0
  5  6  2  0  0  0
  6 10  1  0  0  0
 10 11  2  0  0  0
 11 12  1  0  0  0
 12 13  2  0  0  0
 13 16  1  0  0  0
 16 17  1  0  0  0
 17 18  1  0  0  0
 18 19  1  0  0  0
 19 20  1  0  0  0
 20 21  1  0  0  0
 21 22  1  0  0  0
 22 23  1  0  0  0
 23 24  1  0  0  0
 24 25  2  0  0  0
 24 26  1  0  0  0
 13 14  1  0  0  0
 14 15  2  0  0  0
  6  7  1  0  0  0
  7  8  1  0  0  0
  7  9  2  0  0  0
 48 39  1  0  0  0
  9  3  1  0  0  0
 52 40  1  0  0  0
 15 10  1  0  0  0
 48 43  1  0  0  0
 29 30  1  0  0  0
 37 38  1  0  0  0
M  CHG 1  24   1
M  CHG 1  26  -1
M  END
> <minimizedAffinity>
-7.59857

> <CNNscore>
0.2846918404

> <CNNaffinity>
6.7005400658

> <CNN_VS>
1.9075890779

> <CNNaffinity_variance>
0.4445775449

$$$$
[H]c1c([H])c(-c2c([H])c([H])c(C([H])(C(=O)N([H])C([H])([H])C([H])([H])C([H])([H])C([H])([H])C([H])([H])C([H])([H])N([H])c3c4c(nc5c([H])c([H])c([H])c([H])c35)C([H])([H])C([H])([H])C([H])([H])C4([H])[H])C([H])([H])[H])c([H])c2F)c([H])c([H])c1OC([H])([H])C([H])([H])C([H])([H])C([H])([H])C([H])([H])C([H])([H])O[N+](=O)[O-]


 52 56  0  0  0  0  0  0  0  0999 V2000
  156.6931  138.1797  190.1507 C   0  0  0  0  0  0  0  0  0  0  0  0
  155.5775  137.2256  189.7350 C   0  0  0  0  0  0  0  0  0  0  0  0
  155.1141  137.6511  188.4001 C   0  0  0  0  0  0  0  0  0  0  0  0
  156.0377  137.8694  187.4051 C   0  0  0  0  0  0  0  0  0  0  0  0
  155.6539  138.2895  186.1307 C   0  0  0  0  0  0  0  0  0  0  0  0
  154.3347  138.4874  185.8675 C   0  0  0  0  0  0  0  0  0  0  0  0
  153.3957  138.2751  186.8471 C   0  0  0  0  0  0  0  0  0  0  0  0
  152.0784  138.4735  186.6034 F   0  0  0  0  0  0  0  0  0  0  0  0
  153.7898  137.8534  188.1242 C   0  0  0  0  0  0  0  0  0  0  0  0
  153.9061  138.9185  184.5498 C   0  0  0  0  0  0  0  0  0  0  0  0
  154.2338  140.1567  184.0448 C   0  0  0  0  0  0  0  0  0  0  0  0
  153.8129  140.5447  182.7687 C   0  0  0  0  0  0  0  0  0  0  0  0
  153.0607  139.7305  181.9570 C   0  0  0  0  0  0  0  0  0  0  0  0
  152.7344  138.4660  182.4884 C   0  0  0  0  0  0  0  0  0  0  0  0
  153.1535  138.1020  183.7366 C   0  0  0  0  0  0  0  0  0  0  0  0
  152.6047  140.0355  180.6999 O   0  0  0  0  0  0  0  0  0  0  0  0
  151.2978  140.3379  180.3273 C   0  0  0  0  0  0  0  0  0  0  0  0
  150.7585  139.2847  179.4132 C   0  0  0  0  0  0  0  0  0  0  0  0
  149.4082  138.8241  179.8773 C   0  0  0  0  0  0  0  0  0  0  0  0
  149.2542  139.0383  181.3438 C   0  0  0  0  0  0  0  0  0  0  0  0
  147.9167  139.6196  181.7247 C   0  0  0  0  0  0  0  0  0  0  0  0
  147.2624  138.7478  182.7567 C   0  0  0  0  0  0  0  0  0  0  0  0
  147.9422  138.9481  184.0087 O   0  0  0  0  0  0  0  0  0  0  0  0
  147.1443  139.0185  185.1249 N   0  0  0  0  0  0  0  0  0  0  0  0
  145.9417  139.3358  185.0674 O   0  0  0  0  0  0  0  0  0  0  0  0
  147.7551  138.7149  186.3274 O   0  0  0  0  0  0  0  0  0  0  0  0
  154.5373  137.0937  190.7530 C   0  0  0  0  0  0  0  0  0  0  0  0
  154.2927  138.0643  191.5532 O   0  0  0  0  0  0  0  0  0  0  0  0
  153.7396  135.9423  190.9435 N   0  0  0  0  0  0  0  0  0  0  0  0
  153.9016  135.1280  190.3162 H   0  0  0  0  0  0  0  0  0  0  0  0
  152.7167  135.8296  191.9473 C   0  0  0  0  0  0  0  0  0  0  0  0
  151.3885  136.3763  191.4820 C   0  0  0  0  0  0  0  0  0  0  0  0
  150.2585  135.6217  192.1538 C   0  0  0  0  0  0  0  0  0  0  0  0
  149.7805  134.5650  191.1561 C   0  0  0  0  0  0  0  0  0  0  0  0
  148.5948  135.0331  190.4023 C   0  0  0  0  0  0  0  0  0  0  0  0
  148.2576  134.2692  189.1931 C   0  0  0  0  0  0  0  0  0  0  0  0
  146.9681  133.7377  189.0623 N   0  0  0  0  0  0  0  0  0  0  0  0
  146.8974  132.8280  188.4686 H   0  0  0  0  0  0  0  0  0  0  0  0
  145.7257  134.1479  189.5493 C   0  0  0  0  0  0  0  0  0  0  0  0
  145.2431  133.6117  190.7266 C   0  0  0  0  0  0  0  0  0  0  0  0
  144.0411  134.0516  191.2296 C   0  0  0  0  0  0  0  0  0  0  0  0
  143.3463  135.0124  190.5560 N   0  0  0  0  0  0  0  0  0  0  0  0
  143.7801  135.5592  189.4108 C   0  0  0  0  0  0  0  0  0  0  0  0
  143.0628  136.5292  188.7525 C   0  0  0  0  0  0  0  0  0  0  0  0
  143.5193  137.0799  187.5886 C   0  0  0  0  0  0  0  0  0  0  0  0
  144.7249  136.6377  187.0850 C   0  0  0  0  0  0  0  0  0  0  0  0
  145.4555  135.6757  187.7201 C   0  0  0  0  0  0  0  0  0  0  0  0
  144.9844  135.1227  188.9000 C   0  0  0  0  0  0  0  0  0  0  0  0
  143.5204  133.4749  192.4736 C   0  0  0  0  0  0  0  0  0  0  0  0
  144.5431  132.9914  193.4418 C   0  0  0  0  0  0  0  0  0  0  0  0
  145.9611  133.0462  192.9456 C   0  0  0  0  0  0  0  0  0  0  0  0
  145.9838  132.5770  191.4885 C   0  0  0  0  0  0  0  0  0  0  0  0
  1  2  1  0  0  0
  2 27  1  0  0  0
 27 28  2  0  0  0
 27 29  1  0  0  0
 29 31  1  0  0  0
 31 32  1  0  0  0
 32 33  1  0  0  0
 33 34  1  0  0  0
 34 35  1  0  0  0
 35 36  1  0  0  0
 36 37  1  0  0  0
 37 39  1  0  0  0
 39 40  2  0  0  0
 40 41  1  0  0  0
 41 42  2  0  0  0
 42 43  1  0  0  0
 43 44  2  0  0  0
 44 45  1  0  0  0
 45 46  2  0  0  0
 46 47  1  0  0  0
 47 48  2  0  0  0
 41 49  1  0  0  0
 49 50  1  0  0  0
 50 51  1  0  0  0
 51 52  1  0  0  0
  2  3  1  0  0  0
  3  4  2  0  0  0
  4  5  1  0  0  0
  5  6  2  0  0  0
  6 10  1  0  0  0
 10 11  2  0  0  0
 11 12  1  0  0  0
 12 13  2  0  0  0
 13 16  1  0  0  0
 16 17  1  0  0  0
 17 18  1  0  0  0
 18 19  1  0  0  0
 19 20  1  0  0  0
 20 21  1  0  0  0
 21 22  1  0  0  0
 22 23  1  0  0  0
 23 24  1  0  0  0
 24 25  2  0  0  0
 24 26  1  0  0  0
 13 14  1  0  0  0
 14 15  2  0  0  0
  6  7  1  0  0  0
  7  8  1  0  0  0
  7  9  2  0  0  0
 48 39  1  0  0  0
  9  3  1  0  0  0
 52 40  1  0  0  0
 15 10  1  0  0  0
 48 43  1  0  0  0
 29 30  1  0  0  0
 37 38  1  0  0  0
M  CHG 1  24   1
M  CHG 1  26  -1
M  END
> <minimizedAffinity>
-7.78560

> <CNNscore>
0.2632230222

> <CNNaffinity>
6.5472946167

> <CNN_VS>
1.7233986855

> <CNNaffinity_variance>
0.6680614948

$$$$
[H]OC(=O)[C@@]([H])(N([H])[H])C([H])([H])OP(=O)(O[H])O[C@]1([H])C([H])([H])C([H])([H])C([H])([H])O[C@]1([H])C([H])([H])OC(=O)C([H])([H])C([H])([H])c1c([H])c([H])c([H])c([H])c1OC([H])([H])c1c([H])c([H])c([H])c(Oc2c([H])c([H])c(C([H])([H])[H])c([H])c2[H])c1[H]


 49 52  0  0  0  0  0  0  0  0999 V2000
  152.6291  136.4056  184.8206 C   0  0  0  0  0  0  0  0  0  0  0  0
  153.2019  135.3864  184.4017 O   0  0  0  0  0  0  0  0  0  0  0  0
  152.5528  136.5719  186.2240 O   0  0  0  0  0  0  0  0  0  0  0  0
  153.2452  135.8520  187.1455 C   0  0  0  0  0  0  0  0  0  0  0  0
  154.1790  136.5563  188.0829 C   0  0  0  0  0  0  0  0  0  0  0  0
  154.1764  137.9192  187.9464 O   0  0  0  0  0  0  0  0  0  0  0  0
  154.3643  138.6496  189.0931 C   0  0  0  0  0  0  0  0  0  0  0  0
  155.2900  138.0493  190.1029 C   0  0  0  0  0  0  0  0  0  0  0  0
  155.1045  136.5899  190.3227 C   0  0  0  0  0  0  0  0  0  0  0  0
  153.8958  136.1269  189.5283 C   0  0  0  0  0  0  0  0  0  0  0  0
  152.7171  136.5921  190.0302 O   0  0  0  0  0  0  0  0  0  0  0  0
  151.7037  135.4511  190.7022 P   0  0  0  0  0  0  0  0  0  0  0  0
  150.5973  134.9932  189.8107 O   0  0  0  0  0  0  0  0  0  0  0  0
  152.5674  134.0432  191.1561 O   0  0  0  0  0  0  0  0  0  0  0  0
  152.8900  134.1457  192.0645 H   0  0  0  0  0  0  0  0  0  0  0  0
  151.0953  136.1073  192.1535 O   0  0  0  0  0  0  0  0  0  0  0  0
  150.6937  135.1194  193.0488 C   0  0  0  0  0  0  0  0  0  0  0  0
  151.4586  135.3840  194.3364 C   0  0  0  0  0  0  0  0  0  0  0  0
  152.8358  135.0427  194.1180 N   0  0  0  0  0  0  0  0  0  0  0  0
  153.3701  135.7826  193.6575 H   0  0  0  0  0  0  0  0  0  0  0  0
  153.2932  134.5723  194.9096 H   0  0  0  0  0  0  0  0  0  0  0  0
  150.8613  134.7487  195.5145 C   0  0  0  0  0  0  0  0  0  0  0  0
  151.4344  133.8094  196.1079 O   0  0  0  0  0  0  0  0  0  0  0  0
  149.6402  135.1818  195.9945 O   0  0  0  0  0  0  0  0  0  0  0  0
  149.4385  136.0585  196.4138 H   0  0  0  0  0  0  0  0  0  0  0  0
  152.0319  137.4237  183.9629 C   0  0  0  0  0  0  0  0  0  0  0  0
  152.7631  137.9057  182.7792 C   0  0  0  0  0  0  0  0  0  0  0  0
  152.3220  139.6645  181.0158 C   0  0  0  0  0  0  0  0  0  0  0  0
  151.5856  140.0547  179.9305 C   0  0  0  0  0  0  0  0  0  0  0  0
  150.4773  139.3331  179.4680 C   0  0  0  0  0  0  0  0  0  0  0  0
  150.1352  138.1896  180.1485 C   0  0  0  0  0  0  0  0  0  0  0  0
  150.8571  137.7756  181.2356 C   0  0  0  0  0  0  0  0  0  0  0  0
  151.9505  138.4964  181.6806 C   0  0  0  0  0  0  0  0  0  0  0  0
  153.3780  140.3866  181.4514 O   0  0  0  0  0  0  0  0  0  0  0  0
  153.7388  140.8935  182.6697 C   0  0  0  0  0  0  0  0  0  0  0  0
  157.4202  141.7426  182.9717 C   0  0  0  0  0  0  0  0  0  0  0  0
  157.4456  143.1058  182.6662 C   0  0  0  0  0  0  0  0  0  0  0  0
  156.2359  143.6879  182.3757 C   0  0  0  0  0  0  0  0  0  0  0  0
  155.0597  142.9761  182.3821 C   0  0  0  0  0  0  0  0  0  0  0  0
  155.0611  141.6239  182.6875 C   0  0  0  0  0  0  0  0  0  0  0  0
  156.2502  141.0244  182.9797 C   0  0  0  0  0  0  0  0  0  0  0  0
  158.6461  141.1696  183.2672 O   0  0  0  0  0  0  0  0  0  0  0  0
  162.2169  143.0221  187.1732 C   0  0  0  0  0  0  0  0  0  0  0  0
  161.2835  142.5314  186.1402 C   0  0  0  0  0  0  0  0  0  0  0  0
  161.7388  142.2990  184.8492 C   0  0  0  0  0  0  0  0  0  0  0  0
  160.8299  141.8388  183.8997 C   0  0  0  0  0  0  0  0  0  0  0  0
  159.5134  141.6145  184.2081 C   0  0  0  0  0  0  0  0  0  0  0  0
  159.0817  141.8557  185.5124 C   0  0  0  0  0  0  0  0  0  0  0  0
  159.9501  142.3094  186.4758 C   0  0  0  0  0  0  0  0  0  0  0  0
 43 44  1  0  0  0
 44 45  2  0  0  0
 45 46  1  0  0  0
 46 47  2  0  0  0
 47 42  1  0  0  0
 42 36  1  0  0  0
 36 37  2  0  0  0
 37 38  1  0  0  0
 38 39  2  0  0  0
 39 40  1  0  0  0
 40 35  1  0  0  0
 35 34  1  0  0  0
 34 28  1  0  0  0
 28 29  2  0  0  0
 29 30  1  0  0  0
 30 31  2  0  0  0
 31 32  1  0  0  0
 32 33  2  0  0  0
 33 27  1  0  0  0
 27 26  1  0  0  0
 26  1  1  0  0  0
  1  2  2  0  0  0
  1  3  1  0  0  0
  3  4  1  0  0  0
  4  5  1  0  0  0
  5  6  1  0  0  0
  6  7  1  0  0  0
  7  8  1  0  0  0
  8  9  1  0  0  0
  9 10  1  0  0  0
 10 11  1  0  0  0
 11 12  1  0  0  0
 12 13  2  0  0  0
 12 14  1  0  0  0
 12 16  1  0  0  0
 16 17  1  0  0  0
 17 18  1  0  0  0
 18 19  1  0  0  0
 18 22  1  0  0  0
 22 23  2  0  0  0
 22 24  1  0  0  0
 40 41  2  0  0  0
 47 48  1  0  0  0
 48 49  2  0  0  0
 49 44  1  0  0  0
 41 36  1  0  0  0
 33 28  1  0  0  0
 10  5  1  0  0  0
 14 15  1  0  0  0
 19 20  1  0  0  0
 19 21  1  0  0  0
 24 25  1  0  0  0
M  END
> <minimizedAffinity>
-8.49677

> <CNNscore>
0.6245647073

> <CNNaffinity>
6.6021013260

> <CNN_VS>
4.1234393120

> <CNNaffinity_variance>
0.3430023491

$$$$
[H]OC(=O)[C@@]([H])(N([H])[H])C([H])([H])OP(=O)(O[H])O[C@]1([H])C([H])([H])C([H])([H])C([H])([H])O[C@]1([H])C([H])([H])OC(=O)C([H])([H])C([H])([H])c1c([H])c([H])c([H])c([H])c1OC([H])([H])c1c([H])c([H])c([H])c(Oc2c([H])c([H])c(C([H])([H])[H])c([H])c2[H])c1[H]


 49 52  0  0  0  0  0  0  0  0999 V2000
  152.6816  137.4583  186.2075 C   0  0  0  0  0  0  0  0  0  0  0  0
  152.0534  136.6265  185.5323 O   0  0  0  0  0  0  0  0  0  0  0  0
  152.6033  137.3376  187.6154 O   0  0  0  0  0  0  0  0  0  0  0  0
  153.3615  138.0215  188.5122 C   0  0  0  0  0  0  0  0  0  0  0  0
  154.5872  137.3773  189.0861 C   0  0  0  0  0  0  0  0  0  0  0  0
  155.6206  138.2496  189.3038 O   0  0  0  0  0  0  0  0  0  0  0  0
  156.4173  137.9955  190.3921 C   0  0  0  0  0  0  0  0  0  0  0  0
  156.6413  136.5517  190.7119 C   0  0  0  0  0  0  0  0  0  0  0  0
  155.4235  135.7020  190.6251 C   0  0  0  0  0  0  0  0  0  0  0  0
  154.2247  136.5942  190.3545 C   0  0  0  0  0  0  0  0  0  0  0  0
  153.8903  137.3764  191.4195 O   0  0  0  0  0  0  0  0  0  0  0  0
  152.6084  136.8473  192.3456 P   0  0  0  0  0  0  0  0  0  0  0  0
  152.1715  137.7971  193.4111 O   0  0  0  0  0  0  0  0  0  0  0  0
  151.2275  136.5428  191.3790 O   0  0  0  0  0  0  0  0  0  0  0  0
  151.2516  135.6250  191.0680 H   0  0  0  0  0  0  0  0  0  0  0  0
  153.0507  135.3392  193.0067 O   0  0  0  0  0  0  0  0  0  0  0  0
  152.5581  135.1670  194.2976 C   0  0  0  0  0  0  0  0  0  0  0  0
  151.3181  134.2971  194.1609 C   0  0  0  0  0  0  0  0  0  0  0  0
  151.3323  133.6982  192.8562 N   0  0  0  0  0  0  0  0  0  0  0  0
  151.9163  132.8612  192.7992 H   0  0  0  0  0  0  0  0  0  0  0  0
  150.4143  133.6483  192.3957 H   0  0  0  0  0  0  0  0  0  0  0  0
  150.0721  134.9965  194.4878 C   0  0  0  0  0  0  0  0  0  0  0  0
  149.3611  135.5097  193.5968 O   0  0  0  0  0  0  0  0  0  0  0  0
  149.6578  135.1021  195.8016 O   0  0  0  0  0  0  0  0  0  0  0  0
  149.3544  134.3664  196.3947 H   0  0  0  0  0  0  0  0  0  0  0  0
  153.4784  138.5421  185.6423 C   0  0  0  0  0  0  0  0  0  0  0  0
  154.1006  138.3805  184.3177 C   0  0  0  0  0  0  0  0  0  0  0  0
  153.5630  140.3051  182.7670 C   0  0  0  0  0  0  0  0  0  0  0  0
  152.9655  140.7259  181.6101 C   0  0  0  0  0  0  0  0  0  0  0  0
  152.1808  139.8825  180.8128 C   0  0  0  0  0  0  0  0  0  0  0  0
  152.0191  138.5835  181.2302 C   0  0  0  0  0  0  0  0  0  0  0  0
  152.6085  138.1364  182.3821 C   0  0  0  0  0  0  0  0  0  0  0  0
  153.3826  138.9792  183.1592 C   0  0  0  0  0  0  0  0  0  0  0  0
  154.3029  141.1427  183.5268 O   0  0  0  0  0  0  0  0  0  0  0  0
  154.5776  142.4814  183.4654 C   0  0  0  0  0  0  0  0  0  0  0  0
  158.3466  142.4184  183.0713 C   0  0  0  0  0  0  0  0  0  0  0  0
  158.5945  143.5692  182.3186 C   0  0  0  0  0  0  0  0  0  0  0  0
  157.4977  144.3214  181.9759 C   0  0  0  0  0  0  0  0  0  0  0  0
  156.2219  143.9689  182.3481 C   0  0  0  0  0  0  0  0  0  0  0  0
  156.0020  142.8213  183.0941 C   0  0  0  0  0  0  0  0  0  0  0  0
  157.0759  142.0589  183.4465 C   0  0  0  0  0  0  0  0  0  0  0  0
  159.4620  141.6720  183.4139 O   0  0  0  0  0  0  0  0  0  0  0  0
  163.0788  142.9016  187.5183 C   0  0  0  0  0  0  0  0  0  0  0  0
  162.1203  142.5822  186.4419 C   0  0  0  0  0  0  0  0  0  0  0  0
  160.7558  142.6185  186.6961 C   0  0  0  0  0  0  0  0  0  0  0  0
  159.8807  142.3089  185.6580 C   0  0  0  0  0  0  0  0  0  0  0  0
  160.3317  141.9726  184.4081 C   0  0  0  0  0  0  0  0  0  0  0  0
  161.7074  141.9437  184.1791 C   0  0  0  0  0  0  0  0  0  0  0  0
  162.6007  142.2439  185.1791 C   0  0  0  0  0  0  0  0  0  0  0  0
 43 44  1  0  0  0
 44 45  2  0  0  0
 45 46  1  0  0  0
 46 47  2  0  0  0
 47 42  1  0  0  0
 42 36  1  0  0  0
 36 37  2  0  0  0
 37 38  1  0  0  0
 38 39  2  0  0  0
 39 40  1  0  0  0
 40 35  1  0  0  0
 35 34  1  0  0  0
 34 28  1  0  0  0
 28 29  2  0  0  0
 29 30  1  0  0  0
 30 31  2  0  0  0
 31 32  1  0  0  0
 32 33  2  0  0  0
 33 27  1  0  0  0
 27 26  1  0  0  0
 26  1  1  0  0  0
  1  2  2  0  0  0
  1  3  1  0  0  0
  3  4  1  0  0  0
  4  5  1  0  0  0
  5  6  1  0  0  0
  6  7  1  0  0  0
  7  8  1  0  0  0
  8  9  1  0  0  0
  9 10  1  0  0  0
 10 11  1  0  0  0
 11 12  1  0  0  0
 12 13  2  0  0  0
 12 14  1  0  0  0
 12 16  1  0  0  0
 16 17  1  0  0  0
 17 18  1  0  0  0
 18 19  1  0  0  0
 18 22  1  0  0  0
 22 23  2  0  0  0
 22 24  1  0  0  0
 40 41  2  0  0  0
 47 48  1  0  0  0
 48 49  2  0  0  0
 49 44  1  0  0  0
 41 36  1  0  0  0
 33 28  1  0  0  0
 10  5  1  0  0  0
 14 15  1  0  0  0
 19 20  1  0  0  0
 19 21  1  0  0  0
 24 25  1  0  0  0
M  END
> <minimizedAffinity>
-9.30736

> <CNNscore>
0.4904394150

> <CNNaffinity>
6.5118246078

> <CNN_VS>
3.1936554909

> <CNNaffinity_variance>
0.2675337791

$$$$
[H]OC(=O)[C@@]([H])(N([H])[H])C([H])([H])OP(=O)(O[H])O[C@]1([H])C([H])([H])C([H])([H])C([H])([H])O[C@]1([H])C([H])([H])OC(=O)C([H])([H])C([H])([H])c1c([H])c([H])c([H])c([H])c1OC([H])([H])c1c([H])c([H])c([H])c(Oc2c([H])c([H])c(C([H])([H])[H])c([H])c2[H])c1[H]


 49 52  0  0  0  0  0  0  0  0999 V2000
  155.2896  138.4176  186.0115 C   0  0  0  0  0  0  0  0  0  0  0  0
  156.4299  138.9093  185.9938 O   0  0  0  0  0  0  0  0  0  0  0  0
  155.0420  137.3968  186.9600 O   0  0  0  0  0  0  0  0  0  0  0  0
  155.9711  136.5440  187.4662 C   0  0  0  0  0  0  0  0  0  0  0  0
  156.3802  136.6661  188.9030 C   0  0  0  0  0  0  0  0  0  0  0  0
  156.2651  137.9352  189.4053 O   0  0  0  0  0  0  0  0  0  0  0  0
  155.9079  138.0407  190.7263 C   0  0  0  0  0  0  0  0  0  0  0  0
  156.4398  136.9756  191.6315 C   0  0  0  0  0  0  0  0  0  0  0  0
  156.3624  135.5970  191.0782 C   0  0  0  0  0  0  0  0  0  0  0  0
  155.6176  135.6436  189.7555 C   0  0  0  0  0  0  0  0  0  0  0  0
  154.2896  135.9140  189.9000 O   0  0  0  0  0  0  0  0  0  0  0  0
  153.2537  134.6178  189.7340 P   0  0  0  0  0  0  0  0  0  0  0  0
  152.6071  134.5004  188.3936 O   0  0  0  0  0  0  0  0  0  0  0  0
  154.0662  133.1345  190.0058 O   0  0  0  0  0  0  0  0  0  0  0  0
  154.0262  132.9170  190.9497 H   0  0  0  0  0  0  0  0  0  0  0  0
  152.0886  134.7396  190.9727 O   0  0  0  0  0  0  0  0  0  0  0  0
  152.4088  135.7282  191.8995 C   0  0  0  0  0  0  0  0  0  0  0  0
  151.1377  136.5373  192.1060 C   0  0  0  0  0  0  0  0  0  0  0  0
  151.4487  137.6515  192.9562 N   0  0  0  0  0  0  0  0  0  0  0  0
  151.8614  138.4419  192.4563 H   0  0  0  0  0  0  0  0  0  0  0  0
  150.7259  137.8767  193.6520 H   0  0  0  0  0  0  0  0  0  0  0  0
  149.9986  135.7343  192.5599 C   0  0  0  0  0  0  0  0  0  0  0  0
  149.6276  135.7478  193.7536 O   0  0  0  0  0  0  0  0  0  0  0  0
  149.3078  134.9391  191.6658 O   0  0  0  0  0  0  0  0  0  0  0  0
  148.7423  135.2417  190.9084 H   0  0  0  0  0  0  0  0  0  0  0  0
  154.2075  138.8198  185.1192 C   0  0  0  0  0  0  0  0  0  0  0  0
  154.1457  138.2780  183.7515 C   0  0  0  0  0  0  0  0  0  0  0  0
  152.9855  139.7694  182.0699 C   0  0  0  0  0  0  0  0  0  0  0  0
  151.9079  139.9683  181.2504 C   0  0  0  0  0  0  0  0  0  0  0  0
  150.7955  139.1167  181.2418 C   0  0  0  0  0  0  0  0  0  0  0  0
  150.8103  138.0441  182.1002 C   0  0  0  0  0  0  0  0  0  0  0  0
  151.8773  137.8207  182.9283 C   0  0  0  0  0  0  0  0  0  0  0  0
  152.9704  138.6683  182.9255 C   0  0  0  0  0  0  0  0  0  0  0  0
  154.0402  140.6143  182.0702 O   0  0  0  0  0  0  0  0  0  0  0  0
  154.1754  141.9577  182.2898 C   0  0  0  0  0  0  0  0  0  0  0  0
  157.9074  142.1457  182.9242 C   0  0  0  0  0  0  0  0  0  0  0  0
  158.2072  143.4699  182.5942 C   0  0  0  0  0  0  0  0  0  0  0  0
  157.1545  144.2476  182.1776 C   0  0  0  0  0  0  0  0  0  0  0  0
  155.8729  143.7583  182.0865 C   0  0  0  0  0  0  0  0  0  0  0  0
  155.6013  142.4401  182.4186 C   0  0  0  0  0  0  0  0  0  0  0  0
  156.6305  141.6491  182.8354 C   0  0  0  0  0  0  0  0  0  0  0  0
  158.9771  141.3743  183.3473 O   0  0  0  0  0  0  0  0  0  0  0  0
  162.7262  142.9034  187.2263 C   0  0  0  0  0  0  0  0  0  0  0  0
  161.7455  142.4970  186.2004 C   0  0  0  0  0  0  0  0  0  0  0  0
  162.1730  142.1957  184.9142 C   0  0  0  0  0  0  0  0  0  0  0  0
  161.2200  141.8185  183.9714 C   0  0  0  0  0  0  0  0  0  0  0  0
  159.8872  141.7406  184.2816 C   0  0  0  0  0  0  0  0  0  0  0  0
  159.4841  142.0484  185.5811 C   0  0  0  0  0  0  0  0  0  0  0  0
  160.3961  142.4237  186.5379 C   0  0  0  0  0  0  0  0  0  0  0  0
 43 44  1  0  0  0
 44 45  2  0  0  0
 45 46  1  0  0  0
 46 47  2  0  0  0
 47 42  1  0  0  0
 42 36  1  0  0  0
 36 37  2  0  0  0
 37 38  1  0  0  0
 38 39  2  0  0  0
 39 40  1  0  0  0
 40 35  1  0  0  0
 35 34  1  0  0  0
 34 28  1  0  0  0
 28 29  2  0  0  0
 29 30  1  0  0  0
 30 31  2  0  0  0
 31 32  1  0  0  0
 32 33  2  0  0  0
 33 27  1  0  0  0
 27 26  1  0  0  0
 26  1  1  0  0  0
  1  2  2  0  0  0
  1  3  1  0  0  0
  3  4  1  0  0  0
  4  5  1  0  0  0
  5  6  1  0  0  0
  6  7  1  0  0  0
  7  8  1  0  0  0
  8  9  1  0  0  0
  9 10  1  0  0  0
 10 11  1  0  0  0
 11 12  1  0  0  0
 12 13  2  0  0  0
 12 14  1  0  0  0
 12 16  1  0  0  0
 16 17  1  0  0  0
 17 18  1  0  0  0
 18 19  1  0  0  0
 18 22  1  0  0  0
 22 23  2  0  0  0
 22 24  1  0  0  0
 40 41  2  0  0  0
 47 48  1  0  0  0
 48 49  2  0  0  0
 49 44  1  0  0  0
 41 36  1  0  0  0
 33 28  1  0  0  0
 10  5  1  0  0  0
 14 15  1  0  0  0
 19 20  1  0  0  0
 19 21  1  0  0  0
 24 25  1  0  0  0
M  END
> <minimizedAffinity>
-9.11763

> <CNNscore>
0.4881517589

> <CNNaffinity>
6.5724616051

> <CNN_VS>
3.2083587646

> <CNNaffinity_variance>
0.1612374634

$$$$
[H]OC(=O)[C@@]([H])(N([H])[H])C([H])([H])OP(=O)(O[H])O[C@]1([H])C([H])([H])C([H])([H])C([H])([H])O[C@]1([H])C([H])([H])OC(=O)C([H])([H])C([H])([H])c1c([H])c([H])c([H])c([H])c1OC([H])([H])c1c([H])c([H])c([H])c(Oc2c([H])c([H])c(C([H])([H])[H])c([H])c2[H])c1[H]


 49 52  0  0  0  0  0  0  0  0999 V2000
  155.2773  138.3290  186.0259 C   0  0  0  0  0  0  0  0  0  0  0  0
  156.3961  138.8683  186.0228 O   0  0  0  0  0  0  0  0  0  0  0  0
  155.0724  137.2738  186.9465 O   0  0  0  0  0  0  0  0  0  0  0  0
  156.0459  136.4967  187.4898 C   0  0  0  0  0  0  0  0  0  0  0  0
  156.4134  136.6743  188.9320 C   0  0  0  0  0  0  0  0  0  0  0  0
  156.1598  137.9300  189.4172 O   0  0  0  0  0  0  0  0  0  0  0  0
  155.7690  138.0114  190.7304 C   0  0  0  0  0  0  0  0  0  0  0  0
  156.3902  137.0155  191.6573 C   0  0  0  0  0  0  0  0  0  0  0  0
  156.4646  135.6308  191.1190 C   0  0  0  0  0  0  0  0  0  0  0  0
  155.7437  135.5876  189.7830 C   0  0  0  0  0  0  0  0  0  0  0  0
  154.3925  135.7219  189.9010 O   0  0  0  0  0  0  0  0  0  0  0  0
  153.5829  134.4324  190.5811 P   0  0  0  0  0  0  0  0  0  0  0  0
  154.2919  133.1228  190.4780 O   0  0  0  0  0  0  0  0  0  0  0  0
  153.2932  134.6908  192.2494 O   0  0  0  0  0  0  0  0  0  0  0  0
  152.4469  135.1507  192.3589 H   0  0  0  0  0  0  0  0  0  0  0  0
  152.0437  134.3600  189.8511 O   0  0  0  0  0  0  0  0  0  0  0  0
  151.5408  135.6251  189.5593 C   0  0  0  0  0  0  0  0  0  0  0  0
  151.3238  135.6534  188.0543 C   0  0  0  0  0  0  0  0  0  0  0  0
  152.3558  136.4608  187.4677 N   0  0  0  0  0  0  0  0  0  0  0  0
  153.2338  135.9574  187.3239 H   0  0  0  0  0  0  0  0  0  0  0  0
  152.0432  137.0656  186.6972 H   0  0  0  0  0  0  0  0  0  0  0  0
  149.9644  136.0391  187.6648 C   0  0  0  0  0  0  0  0  0  0  0  0
  149.6982  136.3927  186.4957 O   0  0  0  0  0  0  0  0  0  0  0  0
  148.9424  136.0188  188.5943 O   0  0  0  0  0  0  0  0  0  0  0  0
  148.5479  135.2208  189.0332 H   0  0  0  0  0  0  0  0  0  0  0  0
  154.1796  138.7092  185.1431 C   0  0  0  0  0  0  0  0  0  0  0  0
  154.1197  138.1704  183.7741 C   0  0  0  0  0  0  0  0  0  0  0  0
  152.9888  139.7021  182.1089 C   0  0  0  0  0  0  0  0  0  0  0  0
  151.9245  139.9220  181.2775 C   0  0  0  0  0  0  0  0  0  0  0  0
  150.8106  139.0735  181.2325 C   0  0  0  0  0  0  0  0  0  0  0  0
  150.8098  137.9818  182.0667 C   0  0  0  0  0  0  0  0  0  0  0  0
  151.8634  137.7372  182.9059 C   0  0  0  0  0  0  0  0  0  0  0  0
  152.9582  138.5820  182.9390 C   0  0  0  0  0  0  0  0  0  0  0  0
  154.0452  140.5442  182.1446 O   0  0  0  0  0  0  0  0  0  0  0  0
  154.1686  141.9018  182.2589 C   0  0  0  0  0  0  0  0  0  0  0  0
  157.8895  142.1351  182.9417 C   0  0  0  0  0  0  0  0  0  0  0  0
  158.1790  143.4605  182.6075 C   0  0  0  0  0  0  0  0  0  0  0  0
  157.1235  144.2238  182.1721 C   0  0  0  0  0  0  0  0  0  0  0  0
  155.8487  143.7199  182.0669 C   0  0  0  0  0  0  0  0  0  0  0  0
  155.5873  142.4007  182.4037 C   0  0  0  0  0  0  0  0  0  0  0  0
  156.6195  141.6238  182.8390 C   0  0  0  0  0  0  0  0  0  0  0  0
  158.9619  141.3782  183.3838 O   0  0  0  0  0  0  0  0  0  0  0  0
  162.6192  142.9560  187.3303 C   0  0  0  0  0  0  0  0  0  0  0  0
  161.6629  142.5372  186.2866 C   0  0  0  0  0  0  0  0  0  0  0  0
  162.1110  142.2867  184.9965 C   0  0  0  0  0  0  0  0  0  0  0  0
  161.1806  141.8960  184.0368 C   0  0  0  0  0  0  0  0  0  0  0  0
  159.8499  141.7565  184.3344 C   0  0  0  0  0  0  0  0  0  0  0  0
  159.4258  142.0141  185.6380 C   0  0  0  0  0  0  0  0  0  0  0  0
  160.3153  142.4009  186.6114 C   0  0  0  0  0  0  0  0  0  0  0  0
 43 44  1  0  0  0
 44 45  2  0  0  0
 45 46  1  0  0  0
 46 47  2  0  0  0
 47 42  1  0  0  0
 42 36  1  0  0  0
 36 37  2  0  0  0
 37 38  1  0  0  0
 38 39  2  0  0  0
 39 40  1  0  0  0
 40 35  1  0  0  0
 35 34  1  0  0  0
 34 28  1  0  0  0
 28 29  2  0  0  0
 29 30  1  0  0  0
 30 31  2  0  0  0
 31 32  1  0  0  0
 32 33  2  0  0  0
 33 27  1  0  0  0
 27 26  1  0  0  0
 26  1  1  0  0  0
  1  2  2  0  0  0
  1  3  1  0  0  0
  3  4  1  0  0  0
  4  5  1  0  0  0
  5  6  1  0  0  0
  6  7  1  0  0  0
  7  8  1  0  0  0
  8  9  1  0  0  0
  9 10  1  0  0  0
 10 11  1  0  0  0
 11 12  1  0  0  0
 12 13  2  0  0  0
 12 14  1  0  0  0
 12 16  1  0  0  0
 16 17  1  0  0  0
 17 18  1  0  0  0
 18 19  1  0  0  0
 18 22  1  0  0  0
 22 23  2  0  0  0
 22 24  1  0  0  0
 40 41  2  0  0  0
 47 48  1  0  0  0
 48 49  2  0  0  0
 49 44  1  0  0  0
 41 36  1  0  0  0
 33 28  1  0  0  0
 10  5  1  0  0  0
 14 15  1  0  0  0
 19 20  1  0  0  0
 19 21  1  0  0  0
 24 25  1  0  0  0
M  END
> <minimizedAffinity>
-8.41724

> <CNNscore>
0.3792794645

> <CNNaffinity>
6.4268584251

> <CNN_VS>
2.4375753403

> <CNNaffinity_variance>
0.2822413146

$$$$
[H]OC(=O)[C@@]([H])(N([H])[H])C([H])([H])OP(=O)(O[H])O[C@]1([H])C([H])([H])C([H])([H])C([H])([H])O[C@]1([H])C([H])([H])OC(=O)C([H])([H])C([H])([H])c1c([H])c([H])c([H])c([H])c1OC([H])([H])c1c([H])c([H])c([H])c(Oc2c([H])c([H])c(C([H])([H])[H])c([H])c2[H])c1[H]


 49 52  0  0  0  0  0  0  0  0999 V2000
  153.8713  138.0190  186.1738 C   0  0  0  0  0  0  0  0  0  0  0  0
  154.9184  137.5292  186.6279 O   0  0  0  0  0  0  0  0  0  0  0  0
  152.6513  137.5480  186.7149 O   0  0  0  0  0  0  0  0  0  0  0  0
  152.4976  136.4210  187.4585 C   0  0  0  0  0  0  0  0  0  0  0  0
  151.9317  135.1877  186.8217 C   0  0  0  0  0  0  0  0  0  0  0  0
  152.8329  134.1631  186.7024 O   0  0  0  0  0  0  0  0  0  0  0  0
  152.3349  132.8912  186.8369 C   0  0  0  0  0  0  0  0  0  0  0  0
  150.9537  132.6734  186.3061 C   0  0  0  0  0  0  0  0  0  0  0  0
  149.9862  133.7542  186.6353 C   0  0  0  0  0  0  0  0  0  0  0  0
  150.6626  134.7481  187.5632 C   0  0  0  0  0  0  0  0  0  0  0  0
  150.8878  134.2462  188.8102 O   0  0  0  0  0  0  0  0  0  0  0  0
  149.7263  134.5830  189.9584 P   0  0  0  0  0  0  0  0  0  0  0  0
  148.4843  135.2171  189.4257 O   0  0  0  0  0  0  0  0  0  0  0  0
  149.2273  133.1612  190.7729 O   0  0  0  0  0  0  0  0  0  0  0  0
  149.8007  133.0154  191.5409 H   0  0  0  0  0  0  0  0  0  0  0  0
  150.4587  135.5626  191.1463 O   0  0  0  0  0  0  0  0  0  0  0  0
  149.9174  135.3477  192.4109 C   0  0  0  0  0  0  0  0  0  0  0  0
  150.7113  136.2292  193.3625 C   0  0  0  0  0  0  0  0  0  0  0  0
  151.1578  137.3844  192.6363 N   0  0  0  0  0  0  0  0  0  0  0  0
  150.4488  138.1169  192.5615 H   0  0  0  0  0  0  0  0  0  0  0  0
  152.1124  137.6923  192.8625 H   0  0  0  0  0  0  0  0  0  0  0  0
  151.7774  135.5157  194.0715 C   0  0  0  0  0  0  0  0  0  0  0  0
  152.7096  134.9576  193.4531 O   0  0  0  0  0  0  0  0  0  0  0  0
  151.7699  135.4465  195.4514 O   0  0  0  0  0  0  0  0  0  0  0  0
  151.9009  136.1956  196.0892 H   0  0  0  0  0  0  0  0  0  0  0  0
  153.8256  139.0318  185.1246 C   0  0  0  0  0  0  0  0  0  0  0  0
  154.0314  138.6416  183.7198 C   0  0  0  0  0  0  0  0  0  0  0  0
  152.9770  139.9672  181.8413 C   0  0  0  0  0  0  0  0  0  0  0  0
  151.9687  140.0688  180.9219 C   0  0  0  0  0  0  0  0  0  0  0  0
  150.8867  139.1796  180.8830 C   0  0  0  0  0  0  0  0  0  0  0  0
  150.8591  138.1720  181.8167 C   0  0  0  0  0  0  0  0  0  0  0  0
  151.8569  138.0463  182.7455 C   0  0  0  0  0  0  0  0  0  0  0  0
  152.9207  138.9300  182.7716 C   0  0  0  0  0  0  0  0  0  0  0  0
  154.0024  140.8471  181.8675 O   0  0  0  0  0  0  0  0  0  0  0  0
  154.1964  142.0551  182.4796 C   0  0  0  0  0  0  0  0  0  0  0  0
  157.9486  142.2015  182.9934 C   0  0  0  0  0  0  0  0  0  0  0  0
  158.2639  143.4973  182.5763 C   0  0  0  0  0  0  0  0  0  0  0  0
  157.2144  144.2709  182.1445 C   0  0  0  0  0  0  0  0  0  0  0  0
  155.9214  143.8043  182.1199 C   0  0  0  0  0  0  0  0  0  0  0  0
  155.6345  142.5140  182.5380 C   0  0  0  0  0  0  0  0  0  0  0  0
  156.6604  141.7276  182.9714 C   0  0  0  0  0  0  0  0  0  0  0  0
  159.0156  141.4341  183.4307 O   0  0  0  0  0  0  0  0  0  0  0  0
  162.7256  142.9395  187.3562 C   0  0  0  0  0  0  0  0  0  0  0  0
  161.7425  142.5470  186.3273 C   0  0  0  0  0  0  0  0  0  0  0  0
  160.3940  142.4739  186.6497 C   0  0  0  0  0  0  0  0  0  0  0  0
  159.4950  142.0977  185.6549 C   0  0  0  0  0  0  0  0  0  0  0  0
  159.9077  141.8010  184.3820 C   0  0  0  0  0  0  0  0  0  0  0  0
  161.2680  141.8823  184.0841 C   0  0  0  0  0  0  0  0  0  0  0  0
  162.1840  142.2507  185.0399 C   0  0  0  0  0  0  0  0  0  0  0  0
 43 44  1  0  0  0
 44 45  2  0  0  0
 45 46  1  0  0  0
 46 47  2  0  0  0
 47 42  1  0  0  0
 42 36  1  0  0  0
 36 37  2  0  0  0
 37 38  1  0  0  0
 38 39  2  0  0  0
 39 40  1  0  0  0
 40 35  1  0  0  0
 35 34  1  0  0  0
 34 28  1  0  0  0
 28 29  2  0  0  0
 29 30  1  0  0  0
 30 31  2  0  0  0
 31 32  1  0  0  0
 32 33  2  0  0  0
 33 27  1  0  0  0
 27 26  1  0  0  0
 26  1  1  0  0  0
  1  2  2  0  0  0
  1  3  1  0  0  0
  3  4  1  0  0  0
  4  5  1  0  0  0
  5  6  1  0  0  0
  6  7  1  0  0  0
  7  8  1  0  0  0
  8  9  1  0  0  0
  9 10  1  0  0  0
 10 11  1  0  0  0
 11 12  1  0  0  0
 12 13  2  0  0  0
 12 14  1  0  0  0
 12 16  1  0  0  0
 16 17  1  0  0  0
 17 18  1  0  0  0
 18 19  1  0  0  0
 18 22  1  0  0  0
 22 23  2  0  0  0
 22 24  1  0  0  0
 40 41  2  0  0  0
 47 48  1  0  0  0
 48 49  2  0  0  0
 49 44  1  0  0  0
 41 36  1  0  0  0
 33 28  1  0  0  0
 10  5  1  0  0  0
 14 15  1  0  0  0
 19 20  1  0  0  0
 19 21  1  0  0  0
 24 25  1  0  0  0
M  END
> <minimizedAffinity>
-8.03459

> <CNNscore>
0.3735191226

> <CNNaffinity>
6.2643218040

> <CNN_VS>
2.3398439884

> <CNNaffinity_variance>
0.4255954623

$$$$
[H]OC(=O)[C@@]([H])(N([H])[H])C([H])([H])OP(=O)(O[H])O[C@]1([H])C([H])([H])C([H])([H])C([H])([H])O[C@]1([H])C([H])([H])OC(=O)C([H])([H])C([H])([H])c1c([H])c([H])c([H])c([H])c1OC([H])([H])c1c([H])c([H])c([H])c(Oc2c([H])c([H])c(C([H])([H])[H])c([H])c2[H])c1[H]


 49 52  0  0  0  0  0  0  0  0999 V2000
  152.7934  135.5130  184.0677 C   0  0  0  0  0  0  0  0  0  0  0  0
  152.2971  134.6983  183.2724 O   0  0  0  0  0  0  0  0  0  0  0  0
  153.5468  134.9867  185.1440 O   0  0  0  0  0  0  0  0  0  0  0  0
  153.3674  135.2863  186.4573 C   0  0  0  0  0  0  0  0  0  0  0  0
  154.1254  136.4280  187.0643 C   0  0  0  0  0  0  0  0  0  0  0  0
  153.3641  137.5465  187.2778 O   0  0  0  0  0  0  0  0  0  0  0  0
  153.6758  138.2973  188.3838 C   0  0  0  0  0  0  0  0  0  0  0  0
  155.1271  138.3604  188.7397 C   0  0  0  0  0  0  0  0  0  0  0  0
  155.8430  137.0593  188.6536 C   0  0  0  0  0  0  0  0  0  0  0  0
  154.8341  135.9671  188.3446 C   0  0  0  0  0  0  0  0  0  0  0  0
  153.9949  135.7054  189.3862 O   0  0  0  0  0  0  0  0  0  0  0  0
  154.2119  134.2413  190.1543 P   0  0  0  0  0  0  0  0  0  0  0  0
  153.4846  133.0947  189.5340 O   0  0  0  0  0  0  0  0  0  0  0  0
  155.8659  133.7972  190.1893 O   0  0  0  0  0  0  0  0  0  0  0  0
  156.2777  134.1629  190.9871 H   0  0  0  0  0  0  0  0  0  0  0  0
  153.7561  134.4525  191.7836 O   0  0  0  0  0  0  0  0  0  0  0  0
  153.9056  135.7714  192.2039 C   0  0  0  0  0  0  0  0  0  0  0  0
  152.7550  136.0395  193.1617 C   0  0  0  0  0  0  0  0  0  0  0  0
  152.6367  134.9149  194.0461 N   0  0  0  0  0  0  0  0  0  0  0  0
  153.2886  134.9458  194.8329 H   0  0  0  0  0  0  0  0  0  0  0  0
  151.6705  134.6376  194.2626 H   0  0  0  0  0  0  0  0  0  0  0  0
  151.5063  136.4095  192.4893 C   0  0  0  0  0  0  0  0  0  0  0  0
  151.4982  136.8044  191.3032 O   0  0  0  0  0  0  0  0  0  0  0  0
  150.3028  136.3278  193.1631 O   0  0  0  0  0  0  0  0  0  0  0  0
  149.8453  135.5036  193.4738 H   0  0  0  0  0  0  0  0  0  0  0  0
  152.6409  136.9603  183.9632 C   0  0  0  0  0  0  0  0  0  0  0  0
  153.2402  137.6803  182.8272 C   0  0  0  0  0  0  0  0  0  0  0  0
  152.6484  139.7190  181.4521 C   0  0  0  0  0  0  0  0  0  0  0  0
  151.7913  140.3027  180.5593 C   0  0  0  0  0  0  0  0  0  0  0  0
  150.5977  139.6957  180.1474 C   0  0  0  0  0  0  0  0  0  0  0  0
  150.2970  138.4633  180.6752 C   0  0  0  0  0  0  0  0  0  0  0  0
  151.1389  137.8562  181.5679 C   0  0  0  0  0  0  0  0  0  0  0  0
  152.3154  138.4657  181.9648 C   0  0  0  0  0  0  0  0  0  0  0  0
  153.7867  140.3323  181.8453 O   0  0  0  0  0  0  0  0  0  0  0  0
  154.0935  141.1946  182.8619 C   0  0  0  0  0  0  0  0  0  0  0  0
  157.7073  141.5196  183.9573 C   0  0  0  0  0  0  0  0  0  0  0  0
  157.8753  140.4102  184.7899 C   0  0  0  0  0  0  0  0  0  0  0  0
  156.7802  139.5970  184.9500 C   0  0  0  0  0  0  0  0  0  0  0  0
  155.5802  139.8528  184.3296 C   0  0  0  0  0  0  0  0  0  0  0  0
  155.4386  140.9611  183.5089 C   0  0  0  0  0  0  0  0  0  0  0  0
  156.5125  141.7827  183.3345 C   0  0  0  0  0  0  0  0  0  0  0  0
  158.8209  142.3283  183.8009 O   0  0  0  0  0  0  0  0  0  0  0  0
  163.0931  142.7003  187.4133 C   0  0  0  0  0  0  0  0  0  0  0  0
  161.9732  142.5974  186.4571 C   0  0  0  0  0  0  0  0  0  0  0  0
  162.2210  142.2570  185.1340 C   0  0  0  0  0  0  0  0  0  0  0  0
  161.1409  142.1716  184.2591 C   0  0  0  0  0  0  0  0  0  0  0  0
  159.8562  142.4142  184.6705 C   0  0  0  0  0  0  0  0  0  0  0  0
  159.6344  142.7542  186.0050 C   0  0  0  0  0  0  0  0  0  0  0  0
  160.6755  142.8473  186.8970 C   0  0  0  0  0  0  0  0  0  0  0  0
 43 44  1  0  0  0
 44 45  2  0  0  0
 45 46  1  0  0  0
 46 47  2  0  0  0
 47 42  1  0  0  0
 42 36  1  0  0  0
 36 37  2  0  0  0
 37 38  1  0  0  0
 38 39  2  0  0  0
 39 40  1  0  0  0
 40 35  1  0  0  0
 35 34  1  0  0  0
 34 28  1  0  0  0
 28 29  2  0  0  0
 29 30  1  0  0  0
 30 31  2  0  0  0
 31 32  1  0  0  0
 32 33  2  0  0  0
 33 27  1  0  0  0
 27 26  1  0  0  0
 26  1  1  0  0  0
  1  2  2  0  0  0
  1  3  1  0  0  0
  3  4  1  0  0  0
  4  5  1  0  0  0
  5  6  1  0  0  0
  6  7  1  0  0  0
  7  8  1  0  0  0
  8  9  1  0  0  0
  9 10  1  0  0  0
 10 11  1  0  0  0
 11 12  1  0  0  0
 12 13  2  0  0  0
 12 14  1  0  0  0
 12 16  1  0  0  0
 16 17  1  0  0  0
 17 18  1  0  0  0
 18 19  1  0  0  0
 18 22  1  0  0  0
 22 23  2  0  0  0
 22 24  1  0  0  0
 40 41  2  0  0  0
 47 48  1  0  0  0
 48 49  2  0  0  0
 49 44  1  0  0  0
 41 36  1  0  0  0
 33 28  1  0  0  0
 10  5  1  0  0  0
 14 15  1  0  0  0
 19 20  1  0  0  0
 19 21  1  0  0  0
 24 25  1  0  0  0
M  END
> <minimizedAffinity>
-8.09391

> <CNNscore>
0.3637895286

> <CNNaffinity>
6.3016200066

> <CNN_VS>
2.2924633026

> <CNNaffinity_variance>
0.1626780927

$$$$
[H]OC(=O)[C@@]([H])(N([H])[H])C([H])([H])OP(=O)(O[H])O[C@]1([H])C([H])([H])C([H])([H])C([H])([H])O[C@]1([H])C([H])([H])OC(=O)C([H])([H])C([H])([H])c1c([H])c([H])c([H])c([H])c1OC([H])([H])c1c([H])c([H])c([H])c(Oc2c([H])c([H])c(C([H])([H])[H])c([H])c2[H])c1[H]


 49 52  0  0  0  0  0  0  0  0999 V2000
  153.7493  140.5536  182.3901 C   0  0  0  0  0  0  0  0  0  0  0  0
  153.6690  141.0332  181.2473 O   0  0  0  0  0  0  0  0  0  0  0  0
  154.5515  141.2484  183.3263 O   0  0  0  0  0  0  0  0  0  0  0  0
  154.9254  142.5518  183.2356 C   0  0  0  0  0  0  0  0  0  0  0  0
  155.9739  142.9517  182.2420 C   0  0  0  0  0  0  0  0  0  0  0  0
  156.4672  144.2147  182.4359 O   0  0  0  0  0  0  0  0  0  0  0  0
  157.7927  144.4070  182.1359 C   0  0  0  0  0  0  0  0  0  0  0  0
  158.3185  143.6208  180.9772 C   0  0  0  0  0  0  0  0  0  0  0  0
  157.8756  142.2013  180.9401 C   0  0  0  0  0  0  0  0  0  0  0  0
  157.0919  141.9017  182.2059 C   0  0  0  0  0  0  0  0  0  0  0  0
  157.8721  141.8755  183.3232 O   0  0  0  0  0  0  0  0  0  0  0  0
  158.2194  140.3662  183.9413 P   0  0  0  0  0  0  0  0  0  0  0  0
  157.0279  139.5753  184.3694 O   0  0  0  0  0  0  0  0  0  0  0  0
  159.0487  139.4010  182.7947 O   0  0  0  0  0  0  0  0  0  0  0  0
  160.0028  139.5471  182.8849 H   0  0  0  0  0  0  0  0  0  0  0  0
  159.3098  140.5875  185.2332 O   0  0  0  0  0  0  0  0  0  0  0  0
  159.2269  141.8665  185.7771 C   0  0  0  0  0  0  0  0  0  0  0  0
  160.6380  142.2292  186.2134 C   0  0  0  0  0  0  0  0  0  0  0  0
  160.5451  143.1304  187.3271 N   0  0  0  0  0  0  0  0  0  0  0  0
  160.3983  142.6579  188.2215 H   0  0  0  0  0  0  0  0  0  0  0  0
  161.2328  143.8948  187.3204 H   0  0  0  0  0  0  0  0  0  0  0  0
  161.4846  142.7117  185.1185 C   0  0  0  0  0  0  0  0  0  0  0  0
  162.3980  142.0037  184.6418 O   0  0  0  0  0  0  0  0  0  0  0  0
  161.2858  143.9723  184.5890 O   0  0  0  0  0  0  0  0  0  0  0  0
  160.5014  144.2861  184.0682 H   0  0  0  0  0  0  0  0  0  0  0  0
  153.0804  139.3287  182.8158 C   0  0  0  0  0  0  0  0  0  0  0  0
  152.6188  138.3580  181.8096 C   0  0  0  0  0  0  0  0  0  0  0  0
  150.6020  136.8318  181.8454 C   0  0  0  0  0  0  0  0  0  0  0  0
  149.2398  136.7168  181.9057 C   0  0  0  0  0  0  0  0  0  0  0  0
  148.3833  137.8245  181.8593 C   0  0  0  0  0  0  0  0  0  0  0  0
  148.9582  139.0674  181.7486 C   0  0  0  0  0  0  0  0  0  0  0  0
  150.3185  139.2104  181.6894 C   0  0  0  0  0  0  0  0  0  0  0  0
  151.1530  138.1083  181.7382 C   0  0  0  0  0  0  0  0  0  0  0  0
  151.4062  135.7462  181.8768 O   0  0  0  0  0  0  0  0  0  0  0  0
  151.5340  134.6886  182.7350 C   0  0  0  0  0  0  0  0  0  0  0  0
  155.1224  133.7215  181.9913 C   0  0  0  0  0  0  0  0  0  0  0  0
  155.4711  132.9584  183.1086 C   0  0  0  0  0  0  0  0  0  0  0  0
  154.4967  132.7937  184.0624 C   0  0  0  0  0  0  0  0  0  0  0  0
  153.2442  133.3459  183.9337 C   0  0  0  0  0  0  0  0  0  0  0  0
  152.9230  134.1002  182.8158 C   0  0  0  0  0  0  0  0  0  0  0  0
  153.8743  134.2770  181.8553 C   0  0  0  0  0  0  0  0  0  0  0  0
  156.1127  133.8756  181.0353 O   0  0  0  0  0  0  0  0  0  0  0  0
  159.1625  129.7342  178.8021 C   0  0  0  0  0  0  0  0  0  0  0  0
  158.3523  130.8199  179.3887 C   0  0  0  0  0  0  0  0  0  0  0  0
  156.9993  130.9130  179.0911 C   0  0  0  0  0  0  0  0  0  0  0  0
  156.2664  131.9515  179.6601 C   0  0  0  0  0  0  0  0  0  0  0  0
  156.8447  132.8716  180.4954 C   0  0  0  0  0  0  0  0  0  0  0  0
  158.2056  132.7554  180.7783 C   0  0  0  0  0  0  0  0  0  0  0  0
  158.9604  131.7434  180.2357 C   0  0  0  0  0  0  0  0  0  0  0  0
 43 44  1  0  0  0
 44 45  2  0  0  0
 45 46  1  0  0  0
 46 47  2  0  0  0
 47 42  1  0  0  0
 42 36  1  0  0  0
 36 37  2  0  0  0
 37 38  1  0  0  0
 38 39  2  0  0  0
 39 40  1  0  0  0
 40 35  1  0  0  0
 35 34  1  0  0  0
 34 28  1  0  0  0
 28 29  2  0  0  0
 29 30  1  0  0  0
 30 31  2  0  0  0
 31 32  1  0  0  0
 32 33  2  0  0  0
 33 27  1  0  0  0
 27 26  1  0  0  0
 26  1  1  0  0  0
  1  2  2  0  0  0
  1  3  1  0  0  0
  3  4  1  0  0  0
  4  5  1  0  0  0
  5  6  1  0  0  0
  6  7  1  0  0  0
  7  8  1  0  0  0
  8  9  1  0  0  0
  9 10  1  0  0  0
 10 11  1  0  0  0
 11 12  1  0  0  0
 12 13  2  0  0  0
 12 14  1  0  0  0
 12 16  1  0  0  0
 16 17  1  0  0  0
 17 18  1  0  0  0
 18 19  1  0  0  0
 18 22  1  0  0  0
 22 23  2  0  0  0
 22 24  1  0  0  0
 40 41  2  0  0  0
 47 48  1  0  0  0
 48 49  2  0  0  0
 49 44  1  0  0  0
 41 36  1  0  0  0
 33 28  1  0  0  0
 10  5  1  0  0  0
 14 15  1  0  0  0
 19 20  1  0  0  0
 19 21  1  0  0  0
 24 25  1  0  0  0
M  END
> <minimizedAffinity>
-7.79585

> <CNNscore>
0.2957938015

> <CNNaffinity>
6.1734585762

> <CNN_VS>
1.8260707855

> <CNNaffinity_variance>
0.1355727017

$$$$
[H]OC(=O)[C@@]([H])(N([H])[H])C([H])([H])OP(=O)(O[H])O[C@]1([H])C([H])([H])C([H])([H])C([H])([H])O[C@]1([H])C([H])([H])OC(=O)C([H])([H])C([H])([H])c1c([H])c([H])c([H])c([H])c1OC([H])([H])c1c([H])c([H])c([H])c(Oc2c([H])c([H])c(C([H])([H])[H])c([H])c2[H])c1[H]


 49 52  0  0  0  0  0  0  0  0999 V2000
  154.7275  137.5771  186.9733 C   0  0  0  0  0  0  0  0  0  0  0  0
  155.3658  136.5140  187.0409 O   0  0  0  0  0  0  0  0  0  0  0  0
  153.6381  137.7331  187.8631 O   0  0  0  0  0  0  0  0  0  0  0  0
  153.0505  136.7377  188.5777 C   0  0  0  0  0  0  0  0  0  0  0  0
  153.2703  136.6631  190.0585 C   0  0  0  0  0  0  0  0  0  0  0  0
  152.1338  136.3932  190.7738 O   0  0  0  0  0  0  0  0  0  0  0  0
  152.2887  135.6302  191.9042 C   0  0  0  0  0  0  0  0  0  0  0  0
  153.5595  135.8425  192.6637 C   0  0  0  0  0  0  0  0  0  0  0  0
  154.7775  135.9465  191.8162 C   0  0  0  0  0  0  0  0  0  0  0  0
  154.3933  135.6665  190.3738 C   0  0  0  0  0  0  0  0  0  0  0  0
  154.0635  134.3626  190.1528 O   0  0  0  0  0  0  0  0  0  0  0  0
  155.0716  133.5131  189.1316 P   0  0  0  0  0  0  0  0  0  0  0  0
  154.4475  133.0927  187.8424 O   0  0  0  0  0  0  0  0  0  0  0  0
  156.4551  134.4339  188.7168 O   0  0  0  0  0  0  0  0  0  0  0  0
  157.1517  134.2764  189.3723 H   0  0  0  0  0  0  0  0  0  0  0  0
  155.6561  132.1683  190.0017 O   0  0  0  0  0  0  0  0  0  0  0  0
  157.0436  132.1802  190.1171 C   0  0  0  0  0  0  0  0  0  0  0  0
  157.3413  132.5525  191.5614 C   0  0  0  0  0  0  0  0  0  0  0  0
  157.8189  133.9062  191.5860 N   0  0  0  0  0  0  0  0  0  0  0  0
  157.0703  134.6020  191.5690 H   0  0  0  0  0  0  0  0  0  0  0  0
  158.5895  134.0785  192.2446 H   0  0  0  0  0  0  0  0  0  0  0  0
  158.2140  131.5945  192.2461 C   0  0  0  0  0  0  0  0  0  0  0  0
  158.4998  130.4917  191.7315 O   0  0  0  0  0  0  0  0  0  0  0  0
  158.7413  131.8974  193.4868 O   0  0  0  0  0  0  0  0  0  0  0  0
  159.4113  132.5985  193.6977 H   0  0  0  0  0  0  0  0  0  0  0  0
  155.0260  138.6566  186.0381 C   0  0  0  0  0  0  0  0  0  0  0  0
  155.0831  138.3796  184.5931 C   0  0  0  0  0  0  0  0  0  0  0  0
  153.5899  139.5504  182.9207 C   0  0  0  0  0  0  0  0  0  0  0  0
  152.4477  139.5165  182.1678 C   0  0  0  0  0  0  0  0  0  0  0  0
  151.4972  138.4933  182.2793 C   0  0  0  0  0  0  0  0  0  0  0  0
  151.7441  137.4935  183.1887 C   0  0  0  0  0  0  0  0  0  0  0  0
  152.8806  137.5021  183.9521 C   0  0  0  0  0  0  0  0  0  0  0  0
  153.8121  138.5174  183.8307 C   0  0  0  0  0  0  0  0  0  0  0  0
  154.4842  140.5569  182.8052 O   0  0  0  0  0  0  0  0  0  0  0  0
  154.8882  141.5631  183.6393 C   0  0  0  0  0  0  0  0  0  0  0  0
  158.4839  142.5210  182.9191 C   0  0  0  0  0  0  0  0  0  0  0  0
  158.3503  143.7669  182.3007 C   0  0  0  0  0  0  0  0  0  0  0  0
  157.0693  144.2393  182.1519 C   0  0  0  0  0  0  0  0  0  0  0  0
  155.9724  143.5319  182.5840 C   0  0  0  0  0  0  0  0  0  0  0  0
  156.1313  142.2970  183.1938 C   0  0  0  0  0  0  0  0  0  0  0  0
  157.3939  141.8079  183.3528 C   0  0  0  0  0  0  0  0  0  0  0  0
  159.7812  142.0590  183.0670 O   0  0  0  0  0  0  0  0  0  0  0  0
  162.9660  142.7886  187.6238 C   0  0  0  0  0  0  0  0  0  0  0  0
  162.1338  142.5916  186.4205 C   0  0  0  0  0  0  0  0  0  0  0  0
  162.7287  142.2361  185.2173 C   0  0  0  0  0  0  0  0  0  0  0  0
  161.9133  142.0612  184.1021 C   0  0  0  0  0  0  0  0  0  0  0  0
  160.5547  142.2314  184.1657 C   0  0  0  0  0  0  0  0  0  0  0  0
  159.9821  142.5884  185.3866 C   0  0  0  0  0  0  0  0  0  0  0  0
  160.7551  142.7689  186.5083 C   0  0  0  0  0  0  0  0  0  0  0  0
 43 44  1  0  0  0
 44 45  2  0  0  0
 45 46  1  0  0  0
 46 47  2  0  0  0
 47 42  1  0  0  0
 42 36  1  0  0  0
 36 37  2  0  0  0
 37 38  1  0  0  0
 38 39  2  0  0  0
 39 40  1  0  0  0
 40 35  1  0  0  0
 35 34  1  0  0  0
 34 28  1  0  0  0
 28 29  2  0  0  0
 29 30  1  0  0  0
 30 31  2  0  0  0
 31 32  1  0  0  0
 32 33  2  0  0  0
 33 27  1  0  0  0
 27 26  1  0  0  0
 26  1  1  0  0  0
  1  2  2  0  0  0
  1  3  1  0  0  0
  3  4  1  0  0  0
  4  5  1  0  0  0
  5  6  1  0  0  0
  6  7  1  0  0  0
  7  8  1  0  0  0
  8  9  1  0  0  0
  9 10  1  0  0  0
 10 11  1  0  0  0
 11 12  1  0  0  0
 12 13  2  0  0  0
 12 14  1  0  0  0
 12 16  1  0  0  0
 16 17  1  0  0  0
 17 18  1  0  0  0
 18 19  1  0  0  0
 18 22  1  0  0  0
 22 23  2  0  0  0
 22 24  1  0  0  0
 40 41  2  0  0  0
 47 48  1  0  0  0
 48 49  2  0  0  0
 49 44  1  0  0  0
 41 36  1  0  0  0
 33 28  1  0  0  0
 10  5  1  0  0  0
 14 15  1  0  0  0
 19 20  1  0  0  0
 19 21  1  0  0  0
 24 25  1  0  0  0
M  END
> <minimizedAffinity>
-7.75131

> <CNNscore>
0.2652124763

> <CNNaffinity>
6.3065423965

> <CNN_VS>
1.6725736856

> <CNNaffinity_variance>
0.3562670052

$$$$
[H]OC(=O)[C@@]([H])(N([H])[H])C([H])([H])OP(=O)(O[H])O[C@]1([H])C([H])([H])C([H])([H])C([H])([H])O[C@]1([H])C([H])([H])OC(=O)C([H])([H])C([H])([H])c1c([H])c([H])c([H])c([H])c1OC([H])([H])c1c([H])c([H])c([H])c(Oc2c([H])c([H])c(C([H])([H])[H])c([H])c2[H])c1[H]


 49 52  0  0  0  0  0  0  0  0999 V2000
  151.0457  136.0743  186.1971 C   0  0  0  0  0  0  0  0  0  0  0  0
  150.4274  137.1168  185.9264 O   0  0  0  0  0  0  0  0  0  0  0  0
  150.6252  135.3533  187.3401 O   0  0  0  0  0  0  0  0  0  0  0  0
  150.7901  135.7477  188.6301 C   0  0  0  0  0  0  0  0  0  0  0  0
  152.1702  135.8156  189.2107 C   0  0  0  0  0  0  0  0  0  0  0  0
  152.7225  137.0687  189.1801 O   0  0  0  0  0  0  0  0  0  0  0  0
  153.5438  137.4014  190.2283 C   0  0  0  0  0  0  0  0  0  0  0  0
  154.3690  136.2866  190.7879 C   0  0  0  0  0  0  0  0  0  0  0  0
  153.6399  135.0012  190.9575 C   0  0  0  0  0  0  0  0  0  0  0  0
  152.1747  135.2243  190.6264 C   0  0  0  0  0  0  0  0  0  0  0  0
  151.5279  135.9858  191.5535 O   0  0  0  0  0  0  0  0  0  0  0  0
  150.4543  135.1819  192.5444 P   0  0  0  0  0  0  0  0  0  0  0  0
  149.7597  136.0443  193.5455 O   0  0  0  0  0  0  0  0  0  0  0  0
  149.2218  134.4165  191.6338 O   0  0  0  0  0  0  0  0  0  0  0  0
  149.5117  133.5236  191.3916 H   0  0  0  0  0  0  0  0  0  0  0  0
  151.3150  133.9226  193.3063 O   0  0  0  0  0  0  0  0  0  0  0  0
  150.5482  133.2690  194.2673 C   0  0  0  0  0  0  0  0  0  0  0  0
  151.3400  133.3515  195.5631 C   0  0  0  0  0  0  0  0  0  0  0  0
  151.2309  132.0883  196.2364 N   0  0  0  0  0  0  0  0  0  0  0  0
  151.8864  131.3847  195.8897 H   0  0  0  0  0  0  0  0  0  0  0  0
  151.1256  132.1525  197.2572 H   0  0  0  0  0  0  0  0  0  0  0  0
  150.9880  134.5074  196.3929 C   0  0  0  0  0  0  0  0  0  0  0  0
  151.8007  134.9945  197.2084 O   0  0  0  0  0  0  0  0  0  0  0  0
  149.7371  135.0845  196.2872 O   0  0  0  0  0  0  0  0  0  0  0  0
  149.3704  135.5806  195.5098 H   0  0  0  0  0  0  0  0  0  0  0  0
  152.1694  135.5604  185.4211 C   0  0  0  0  0  0  0  0  0  0  0  0
  153.0795  136.4969  184.7408 C   0  0  0  0  0  0  0  0  0  0  0  0
  154.9076  138.1626  185.2711 C   0  0  0  0  0  0  0  0  0  0  0  0
  155.9211  138.5392  186.1097 C   0  0  0  0  0  0  0  0  0  0  0  0
  156.3548  137.7440  187.1786 C   0  0  0  0  0  0  0  0  0  0  0  0
  155.7207  136.5407  187.3730 C   0  0  0  0  0  0  0  0  0  0  0  0
  154.7019  136.1417  186.5502 C   0  0  0  0  0  0  0  0  0  0  0  0
  154.2821  136.9374  185.4995 C   0  0  0  0  0  0  0  0  0  0  0  0
  154.5178  138.9410  184.2375 O   0  0  0  0  0  0  0  0  0  0  0  0
  154.1776  140.2611  184.1237 C   0  0  0  0  0  0  0  0  0  0  0  0
  157.5820  141.6848  183.2587 C   0  0  0  0  0  0  0  0  0  0  0  0
  157.2665  142.9538  182.7662 C   0  0  0  0  0  0  0  0  0  0  0  0
  155.9338  143.2855  182.7455 C   0  0  0  0  0  0  0  0  0  0  0  0
  154.9568  142.4226  183.1827 C   0  0  0  0  0  0  0  0  0  0  0  0
  155.2956  141.1682  183.6660 C   0  0  0  0  0  0  0  0  0  0  0  0
  156.6125  140.8169  183.6967 C   0  0  0  0  0  0  0  0  0  0  0  0
  158.9295  141.3653  183.2785 O   0  0  0  0  0  0  0  0  0  0  0  0
  162.5735  142.9934  187.2169 C   0  0  0  0  0  0  0  0  0  0  0  0
  161.6206  142.5610  186.1756 C   0  0  0  0  0  0  0  0  0  0  0  0
  162.0797  142.2493  184.9028 C   0  0  0  0  0  0  0  0  0  0  0  0
  161.1523  141.8475  183.9447 C   0  0  0  0  0  0  0  0  0  0  0  0
  159.8143  141.7555  184.2274 C   0  0  0  0  0  0  0  0  0  0  0  0
  159.3792  142.0741  185.5138 C   0  0  0  0  0  0  0  0  0  0  0  0
  160.2654  142.4737  186.4850 C   0  0  0  0  0  0  0  0  0  0  0  0
 43 44  1  0  0  0
 44 45  2  0  0  0
 45 46  1  0  0  0
 46 47  2  0  0  0
 47 42  1  0  0  0
 42 36  1  0  0  0
 36 37  2  0  0  0
 37 38  1  0  0  0
 38 39  2  0  0  0
 39 40  1  0  0  0
 40 35  1  0  0  0
 35 34  1  0  0  0
 34 28  1  0  0  0
 28 29  2  0  0  0
 29 30  1  0  0  0
 30 31  2  0  0  0
 31 32  1  0  0  0
 32 33  2  0  0  0
 33 27  1  0  0  0
 27 26  1  0  0  0
 26  1  1  0  0  0
  1  2  2  0  0  0
  1  3  1  0  0  0
  3  4  1  0  0  0
  4  5  1  0  0  0
  5  6  1  0  0  0
  6  7  1  0  0  0
  7  8  1  0  0  0
  8  9  1  0  0  0
  9 10  1  0  0  0
 10 11  1  0  0  0
 11 12  1  0  0  0
 12 13  2  0  0  0
 12 14  1  0  0  0
 12 16  1  0  0  0
 16 17  1  0  0  0
 17 18  1  0  0  0
 18 19  1  0  0  0
 18 22  1  0  0  0
 22 23  2  0  0  0
 22 24  1  0  0  0
 40 41  2  0  0  0
 47 48  1  0  0  0
 48 49  2  0  0  0
 49 44  1  0  0  0
 41 36  1  0  0  0
 33 28  1  0  0  0
 10  5  1  0  0  0
 14 15  1  0  0  0
 19 20  1  0  0  0
 19 21  1  0  0  0
 24 25  1  0  0  0
M  END
> <minimizedAffinity>
-7.60639

> <CNNscore>
0.2459179610

> <CNNaffinity>
6.1067419052

> <CNN_VS>
1.5017575026

> <CNNaffinity_variance>
0.2678801417

$$$$
[H]C([H])([H])C1([H])OC([H])(C([H])([H])[N+](C([H])([H])[H])(C([H])([H])[H])C([H])([H])[H])C([H])([H])OC1([H])[H].[I-]


 12 12  0  0  0  0  0  0  0  0999 V2000
  159.5175  134.5944  188.0645 C   0  0  0  0  0  0  0  0  0  0  0  0
  158.0540  134.4972  188.5085 C   0  0  0  0  0  0  0  0  0  0  0  0
  157.9977  133.3474  189.4995 C   0  0  0  0  0  0  0  0  0  0  0  0
  158.0493  133.9497  190.7792 O   0  0  0  0  0  0  0  0  0  0  0  0
  156.7906  134.5630  190.9378 C   0  0  0  0  0  0  0  0  0  0  0  0
  156.5742  135.6370  189.8777 C   0  0  0  0  0  0  0  0  0  0  0  0
  157.6829  135.6992  189.0526 O   0  0  0  0  0  0  0  0  0  0  0  0
  156.3700  136.9359  190.5874 C   0  0  0  0  0  0  0  0  0  0  0  0
  155.1503  137.5993  190.3226 N   0  0  0  0  0  0  0  0  0  0  0  0
  155.1206  138.0289  188.9151 C   0  0  0  0  0  0  0  0  0  0  0  0
  155.0802  138.8170  191.1455 C   0  0  0  0  0  0  0  0  0  0  0  0
  153.9613  136.8563  190.5658 C   0  0  0  0  0  0  0  0  0  0  0  0
  1  2  1  0  0  0
  2  3  1  0  0  0
  3  4  1  0  0  0
  4  5  1  0  0  0
  5  6  1  0  0  0
  6  8  1  0  0  0
  8  9  1  0  0  0
  9 10  1  0  0  0
  9 11  1  0  0  0
  9 12  1  0  0  0
  6  7  1  0  0  0
  7  2  1  0  0  0
M  CHG 1   9   1
M  END
> <minimizedAffinity>
-3.21199

> <CNNscore>
0.6707360148

> <CNNaffinity>
3.5020833015

> <CNN_VS>
2.3489735126

> <CNNaffinity_variance>
0.1172337756

$$$$
[H]C([H])([H])C1([H])OC([H])(C([H])([H])[N+](C([H])([H])[H])(C([H])([H])[H])C([H])([H])[H])C([H])([H])OC1([H])[H].[I-]


 12 12  0  0  0  0  0  0  0  0999 V2000
  157.3015  134.4333  191.0115 C   0  0  0  0  0  0  0  0  0  0  0  0
  156.0682  135.3296  190.8555 C   0  0  0  0  0  0  0  0  0  0  0  0
  156.1137  136.3025  192.0212 C   0  0  0  0  0  0  0  0  0  0  0  0
  156.6883  137.4870  191.5016 O   0  0  0  0  0  0  0  0  0  0  0  0
  155.6897  138.0362  190.6729 C   0  0  0  0  0  0  0  0  0  0  0  0
  155.3546  137.0877  189.5275 C   0  0  0  0  0  0  0  0  0  0  0  0
  156.1296  135.9465  189.6332 O   0  0  0  0  0  0  0  0  0  0  0  0
  155.6426  137.8055  188.2490 C   0  0  0  0  0  0  0  0  0  0  0  0
  154.6342  137.7359  187.2610 N   0  0  0  0  0  0  0  0  0  0  0  0
  155.0914  138.4255  186.0436 C   0  0  0  0  0  0  0  0  0  0  0  0
  153.4440  138.4552  187.7414 C   0  0  0  0  0  0  0  0  0  0  0  0
  154.2135  136.4315  186.8783 C   0  0  0  0  0  0  0  0  0  0  0  0
  1  2  1  0  0  0
  2  3  1  0  0  0
  3  4  1  0  0  0
  4  5  1  0  0  0
  5  6  1  0  0  0
  6  8  1  0  0  0
  8  9  1  0  0  0
  9 10  1  0  0  0
  9 11  1  0  0  0
  9 12  1  0  0  0
  6  7  1  0  0  0
  7  2  1  0  0  0
M  CHG 1   9   1
M  END
> <minimizedAffinity>
-3.14721

> <CNNscore>
0.6193296313

> <CNNaffinity>
3.5275535583

> <CNN_VS>
2.1847183704

> <CNNaffinity_variance>
0.1632406712

$$$$
[H]C([H])([H])C1([H])OC([H])(C([H])([H])[N+](C([H])([H])[H])(C([H])([H])[H])C([H])([H])[H])C([H])([H])OC1([H])[H].[I-]


 12 12  0  0  0  0  0  0  0  0999 V2000
  159.4085  134.7008  188.0632 C   0  0  0  0  0  0  0  0  0  0  0  0
  157.9875  134.4950  188.5989 C   0  0  0  0  0  0  0  0  0  0  0  0
  158.0715  133.3153  189.5521 C   0  0  0  0  0  0  0  0  0  0  0  0
  158.1715  133.8817  190.8452 O   0  0  0  0  0  0  0  0  0  0  0  0
  156.8901  134.4063  191.1068 C   0  0  0  0  0  0  0  0  0  0  0  0
  156.5347  135.4946  190.1002 C   0  0  0  0  0  0  0  0  0  0  0  0
  157.5788  135.6535  189.2065 O   0  0  0  0  0  0  0  0  0  0  0  0
  156.2973  136.7559  190.8651 C   0  0  0  0  0  0  0  0  0  0  0  0
  155.0282  137.3538  190.6918 N   0  0  0  0  0  0  0  0  0  0  0  0
  155.0923  138.7675  191.0964 C   0  0  0  0  0  0  0  0  0  0  0  0
  154.0632  136.6941  191.5854 C   0  0  0  0  0  0  0  0  0  0  0  0
  154.4841  137.3117  189.3777 C   0  0  0  0  0  0  0  0  0  0  0  0
  1  2  1  0  0  0
  2  3  1  0  0  0
  3  4  1  0  0  0
  4  5  1  0  0  0
  5  6  1  0  0  0
  6  8  1  0  0  0
  8  9  1  0  0  0
  9 10  1  0  0  0
  9 11  1  0  0  0
  9 12  1  0  0  0
  6  7  1  0  0  0
  7  2  1  0  0  0
M  CHG 1   9   1
M  END
> <minimizedAffinity>
-3.15678

> <CNNscore>
0.6168212891

> <CNNaffinity>
3.4555678368

> <CNN_VS>
2.1314678192

> <CNNaffinity_variance>
0.1261729300

$$$$
[H]C([H])([H])C1([H])OC([H])(C([H])([H])[N+](C([H])([H])[H])(C([H])([H])[H])C([H])([H])[H])C([H])([H])OC1([H])[H].[I-]


 12 12  0  0  0  0  0  0  0  0999 V2000
  154.2507  138.5707  188.8340 C   0  0  0  0  0  0  0  0  0  0  0  0
  155.6326  138.0861  189.2859 C   0  0  0  0  0  0  0  0  0  0  0  0
  155.6984  138.3577  190.7790 C   0  0  0  0  0  0  0  0  0  0  0  0
  155.3778  137.1274  191.4006 O   0  0  0  0  0  0  0  0  0  0  0  0
  156.5042  136.3100  191.1801 C   0  0  0  0  0  0  0  0  0  0  0  0
  156.7259  136.0846  189.6888 C   0  0  0  0  0  0  0  0  0  0  0  0
  155.7526  136.7574  188.9718 O   0  0  0  0  0  0  0  0  0  0  0  0
  156.6449  134.6138  189.4383 C   0  0  0  0  0  0  0  0  0  0  0  0
  157.7835  134.0250  188.8427 N   0  0  0  0  0  0  0  0  0  0  0  0
  157.3822  132.8149  188.1071 C   0  0  0  0  0  0  0  0  0  0  0  0
  158.7097  133.5966  189.9027 C   0  0  0  0  0  0  0  0  0  0  0  0
  158.5211  134.8445  187.9433 C   0  0  0  0  0  0  0  0  0  0  0  0
  1  2  1  0  0  0
  2  3  1  0  0  0
  3  4  1  0  0  0
  4  5  1  0  0  0
  5  6  1  0  0  0
  6  8  1  0  0  0
  8  9  1  0  0  0
  9 10  1  0  0  0
  9 11  1  0  0  0
  9 12  1  0  0  0
  6  7  1  0  0  0
  7  2  1  0  0  0
M  CHG 1   9   1
M  END
> <minimizedAffinity>
-3.15974

> <CNNscore>
0.5819805861

> <CNNaffinity>
3.4358870983

> <CNN_VS>
1.9996196032

> <CNNaffinity_variance>
0.0664903969

$$$$
[H]C([H])([H])C1([H])OC([H])(C([H])([H])[N+](C([H])([H])[H])(C([H])([H])[H])C([H])([H])[H])C([H])([H])OC1([H])[H].[I-]


 12 12  0  0  0  0  0  0  0  0999 V2000
  157.4219  139.6807  185.1318 C   0  0  0  0  0  0  0  0  0  0  0  0
  157.7581  141.1304  184.7658 C   0  0  0  0  0  0  0  0  0  0  0  0
  158.8920  141.5383  185.6907 C   0  0  0  0  0  0  0  0  0  0  0  0
  160.0754  141.3719  184.9326 O   0  0  0  0  0  0  0  0  0  0  0  0
  160.0472  142.4186  183.9895 C   0  0  0  0  0  0  0  0  0  0  0  0
  158.8343  142.2908  183.0750 C   0  0  0  0  0  0  0  0  0  0  0  0
  158.0986  141.1771  183.4391 O   0  0  0  0  0  0  0  0  0  0  0  0
  159.3379  142.1568  181.6746 C   0  0  0  0  0  0  0  0  0  0  0  0
  158.5682  142.7980  180.6775 N   0  0  0  0  0  0  0  0  0  0  0  0
  158.0121  141.7886  179.7618 C   0  0  0  0  0  0  0  0  0  0  0  0
  159.4483  143.6651  179.8784 C   0  0  0  0  0  0  0  0  0  0  0  0
  157.4856  143.6008  181.1337 C   0  0  0  0  0  0  0  0  0  0  0  0
  1  2  1  0  0  0
  2  3  1  0  0  0
  3  4  1  0  0  0
  4  5  1  0  0  0
  5  6  1  0  0  0
  6  8  1  0  0  0
  8  9  1  0  0  0
  9 10  1  0  0  0
  9 11  1  0  0  0
  9 12  1  0  0  0
  6  7  1  0  0  0
  7  2  1  0  0  0
M  CHG 1   9   1
M  END
> <minimizedAffinity>
-4.39446

> <CNNscore>
0.5705799460

> <CNNaffinity>
4.4199085236

> <CNN_VS>
2.5219111443

> <CNNaffinity_variance>
0.1026981622

$$$$
[H]C([H])([H])C1([H])OC([H])(C([H])([H])[N+](C([H])([H])[H])(C([H])([H])[H])C([H])([H])[H])C([H])([H])OC1([H])[H].[I-]


 12 12  0  0  0  0  0  0  0  0999 V2000
  158.6044  141.7419  180.2337 C   0  0  0  0  0  0  0  0  0  0  0  0
  158.3376  141.6754  181.7413 C   0  0  0  0  0  0  0  0  0  0  0  0
  157.8324  140.2683  182.0103 C   0  0  0  0  0  0  0  0  0  0  0  0
  158.9595  139.5435  182.4657 O   0  0  0  0  0  0  0  0  0  0  0  0
  159.2066  140.0415  183.7605 C   0  0  0  0  0  0  0  0  0  0  0  0
  159.5417  141.5279  183.7141 C   0  0  0  0  0  0  0  0  0  0  0  0
  159.5015  141.9681  182.4031 O   0  0  0  0  0  0  0  0  0  0  0  0
  160.9108  141.6994  184.2874 C   0  0  0  0  0  0  0  0  0  0  0  0
  161.0292  142.6444  185.3318 N   0  0  0  0  0  0  0  0  0  0  0  0
  160.8887  144.0029  184.7829 C   0  0  0  0  0  0  0  0  0  0  0  0
  162.3792  142.5515  185.9095 C   0  0  0  0  0  0  0  0  0  0  0  0
  160.1017  142.5208  186.4038 C   0  0  0  0  0  0  0  0  0  0  0  0
  1  2  1  0  0  0
  2  3  1  0  0  0
  3  4  1  0  0  0
  4  5  1  0  0  0
  5  6  1  0  0  0
  6  8  1  0  0  0
  8  9  1  0  0  0
  9 10  1  0  0  0
  9 11  1  0  0  0
  9 12  1  0  0  0
  6  7  1  0  0  0
  7  2  1  0  0  0
M  CHG 1   9   1
M  END
> <minimizedAffinity>
-5.20886

> <CNNscore>
0.5671576262

> <CNNaffinity>
4.4901790619

> <CNN_VS>
2.5466392040

> <CNNaffinity_variance>
0.0766455904

$$$$
[H]C([H])([H])C1([H])OC([H])(C([H])([H])[N+](C([H])([H])[H])(C([H])([H])[H])C([H])([H])[H])C([H])([H])OC1([H])[H].[I-]


 12 12  0  0  0  0  0  0  0  0999 V2000
  158.5740  132.8567  189.7435 C   0  0  0  0  0  0  0  0  0  0  0  0
  158.3720  134.3141  189.3152 C   0  0  0  0  0  0  0  0  0  0  0  0
  158.3884  134.3050  187.7962 C   0  0  0  0  0  0  0  0  0  0  0  0
  157.0285  134.2992  187.4044 O   0  0  0  0  0  0  0  0  0  0  0  0
  156.5631  135.5947  187.7057 C   0  0  0  0  0  0  0  0  0  0  0  0
  156.6609  135.8707  189.2018 C   0  0  0  0  0  0  0  0  0  0  0  0
  157.1885  134.7628  189.8408 O   0  0  0  0  0  0  0  0  0  0  0  0
  155.2815  136.1599  189.6979 C   0  0  0  0  0  0  0  0  0  0  0  0
  155.0912  137.4299  190.2886 N   0  0  0  0  0  0  0  0  0  0  0  0
  154.1084  137.3217  191.3790 C   0  0  0  0  0  0  0  0  0  0  0  0
  154.5217  138.3431  189.2854 C   0  0  0  0  0  0  0  0  0  0  0  0
  156.2508  138.0587  190.8221 C   0  0  0  0  0  0  0  0  0  0  0  0
  1  2  1  0  0  0
  2  3  1  0  0  0
  3  4  1  0  0  0
  4  5  1  0  0  0
  5  6  1  0  0  0
  6  8  1  0  0  0
  8  9  1  0  0  0
  9 10  1  0  0  0
  9 11  1  0  0  0
  9 12  1  0  0  0
  6  7  1  0  0  0
  7  2  1  0  0  0
M  CHG 1   9   1
M  END
> <minimizedAffinity>
-2.86473

> <CNNscore>
0.5573371053

> <CNNaffinity>
3.3890991211

> <CNN_VS>
1.8888707161

> <CNNaffinity_variance>
0.0489590578

$$$$
[H]C([H])([H])C1([H])OC([H])(C([H])([H])[N+](C([H])([H])[H])(C([H])([H])[H])C([H])([H])[H])C([H])([H])OC1([H])[H].[I-]


 12 12  0  0  0  0  0  0  0  0999 V2000
  156.7152  138.1024  190.2945 C   0  0  0  0  0  0  0  0  0  0  0  0
  155.2228  138.2720  190.5983 C   0  0  0  0  0  0  0  0  0  0  0  0
  154.5328  138.3584  189.2478 C   0  0  0  0  0  0  0  0  0  0  0  0
  154.0417  137.0560  188.9913 O   0  0  0  0  0  0  0  0  0  0  0  0
  152.9640  136.8969  189.8850 C   0  0  0  0  0  0  0  0  0  0  0  0
  153.4413  136.9857  191.3301 C   0  0  0  0  0  0  0  0  0  0  0  0
  154.8072  137.2047  191.3510 O   0  0  0  0  0  0  0  0  0  0  0  0
  153.1032  135.6920  191.9967 C   0  0  0  0  0  0  0  0  0  0  0  0
  152.1447  135.7631  193.0330 N   0  0  0  0  0  0  0  0  0  0  0  0
  152.6344  135.0217  194.2065 C   0  0  0  0  0  0  0  0  0  0  0  0
  150.9100  135.0976  192.5885 C   0  0  0  0  0  0  0  0  0  0  0  0
  151.7861  137.0678  193.4735 C   0  0  0  0  0  0  0  0  0  0  0  0
  1  2  1  0  0  0
  2  3  1  0  0  0
  3  4  1  0  0  0
  4  5  1  0  0  0
  5  6  1  0  0  0
  6  8  1  0  0  0
  8  9  1  0  0  0
  9 10  1  0  0  0
  9 11  1  0  0  0
  9 12  1  0  0  0
  6  7  1  0  0  0
  7  2  1  0  0  0
M  CHG 1   9   1
M  END
> <minimizedAffinity>
-3.38217

> <CNNscore>
0.5550703406

> <CNNaffinity>
3.3704566956

> <CNN_VS>
1.8708405495

> <CNNaffinity_variance>
0.1374843419

$$$$
[H]C([H])([H])C1([H])OC([H])(C([H])([H])[N+](C([H])([H])[H])(C([H])([H])[H])C([H])([H])[H])C([H])([H])OC1([H])[H].[I-]


 12 12  0  0  0  0  0  0  0  0999 V2000
  155.1089  138.8230  191.1376 C   0  0  0  0  0  0  0  0  0  0  0  0
  154.8448  137.6145  190.2330 C   0  0  0  0  0  0  0  0  0  0  0  0
  154.5869  138.1828  188.8481 C   0  0  0  0  0  0  0  0  0  0  0  0
  155.8179  138.0704  188.1590 O   0  0  0  0  0  0  0  0  0  0  0  0
  155.9649  136.6912  187.9103 C   0  0  0  0  0  0  0  0  0  0  0  0
  156.0396  135.9102  189.2174 C   0  0  0  0  0  0  0  0  0  0  0  0
  155.9354  136.7859  190.2834 O   0  0  0  0  0  0  0  0  0  0  0  0
  157.3540  135.2000  189.2435 C   0  0  0  0  0  0  0  0  0  0  0  0
  157.3265  133.8670  189.7125 N   0  0  0  0  0  0  0  0  0  0  0  0
  155.9558  133.3398  189.6131 C   0  0  0  0  0  0  0  0  0  0  0  0
  157.6897  133.8544  191.1383 C   0  0  0  0  0  0  0  0  0  0  0  0
  158.1854  132.9462  189.0499 C   0  0  0  0  0  0  0  0  0  0  0  0
  1  2  1  0  0  0
  2  3  1  0  0  0
  3  4  1  0  0  0
  4  5  1  0  0  0
  5  6  1  0  0  0
  6  8  1  0  0  0
  8  9  1  0  0  0
  9 10  1  0  0  0
  9 11  1  0  0  0
  9 12  1  0  0  0
  6  7  1  0  0  0
  7  2  1  0  0  0
M  CHG 1   9   1
M  END
> <minimizedAffinity>
-2.98774

> <CNNscore>
0.5454599857

> <CNNaffinity>
3.2823524475

> <CNN_VS>
1.7903919220

> <CNNaffinity_variance>
0.0762709975

$$$$
[H]Sc1nnc(N([H])C(=O)N([H])N=C([H])c2c([H])c([H])c([H])c(OC([H])([H])[H])c2[H])s1


 23 24  0  0  0  0  0  0  0  0999 V2000
  156.2931  139.9095  184.7317 N   0  0  0  0  0  0  0  0  0  0  0  0
  155.4522  139.9369  183.5971 C   0  0  0  0  0  0  0  0  0  0  0  0
  155.9153  140.2939  182.4855 O   0  0  0  0  0  0  0  0  0  0  0  0
  154.0943  139.5715  183.6772 N   0  0  0  0  0  0  0  0  0  0  0  0
  155.8872  139.6089  185.6485 H   0  0  0  0  0  0  0  0  0  0  0  0
  153.6903  139.2745  184.5794 H   0  0  0  0  0  0  0  0  0  0  0  0
  153.2431  139.5992  182.5286 C   0  0  0  0  0  0  0  0  0  0  0  0
  153.3126  140.3589  181.4391 N   0  0  0  0  0  0  0  0  0  0  0  0
  152.4542  140.2324  180.5210 N   0  0  0  0  0  0  0  0  0  0  0  0
  151.4812  139.3389  180.6450 C   0  0  0  0  0  0  0  0  0  0  0  0
  150.1970  139.0377  179.4450 S   0  0  0  0  0  0  0  0  0  0  0  0
  151.8465  138.6636  182.1677 S   0  0  0  0  0  0  0  0  0  0  0  0
  150.7168  139.0092  178.1218 H   0  0  0  0  0  0  0  0  0  0  0  0
  158.0788  141.4193  185.0284 C   0  0  0  0  0  0  0  0  0  0  0  0
  157.6279  140.2538  184.7227 N   0  0  0  0  0  0  0  0  0  0  0  0
  161.4844  142.6128  186.0325 C   0  0  0  0  0  0  0  0  0  0  0  0
  162.2025  142.2583  184.9101 C   0  0  0  0  0  0  0  0  0  0  0  0
  161.5672  141.6406  183.8532 C   0  0  0  0  0  0  0  0  0  0  0  0
  160.2175  141.3622  183.8835 C   0  0  0  0  0  0  0  0  0  0  0  0
  159.5038  141.7137  184.9972 C   0  0  0  0  0  0  0  0  0  0  0  0
  160.1397  142.3291  186.0490 C   0  0  0  0  0  0  0  0  0  0  0  0
  163.2416  142.6919  187.7053 C   0  0  0  0  0  0  0  0  0  0  0  0
  162.0884  143.2304  187.1040 O   0  0  0  0  0  0  0  0  0  0  0  0
 22 23  1  0  0  0
 23 16  1  0  0  0
 16 17  2  0  0  0
 17 18  1  0  0  0
 18 19  2  0  0  0
 19 20  1  0  0  0
 20 14  1  0  0  0
 14 15  2  0  0  0
 15  1  1  0  0  0
  1  2  1  0  0  0
  2  3  2  0  0  0
  2  4  1  0  0  0
  4  7  1  0  0  0
  7  8  2  0  0  0
  8  9  1  0  0  0
  9 10  2  0  0  0
 10 11  1  0  0  0
 10 12  1  0  0  0
 20 21  2  0  0  0
 21 16  1  0  0  0
 12  7  1  0  0  0
  1  5  1  0  0  0
  4  6  1  0  0  0
 11 13  1  0  0  0
M  END
> <minimizedAffinity>
-7.41222

> <CNNscore>
0.4975064397

> <CNNaffinity>
5.3570251465

> <CNN_VS>
2.6651544571

> <CNNaffinity_variance>
0.1089893728

$$$$
[H]Sc1nnc(N([H])C(=O)N([H])N=C([H])c2c([H])c([H])c([H])c(OC([H])([H])[H])c2[H])s1


 23 24  0  0  0  0  0  0  0  0999 V2000
  154.4752  139.1118  184.3063 N   0  0  0  0  0  0  0  0  0  0  0  0
  154.6375  138.3345  185.4745 C   0  0  0  0  0  0  0  0  0  0  0  0
  153.7435  137.5188  185.8107 O   0  0  0  0  0  0  0  0  0  0  0  0
  155.7855  138.4492  186.2824 N   0  0  0  0  0  0  0  0  0  0  0  0
  155.2322  139.7855  184.0442 H   0  0  0  0  0  0  0  0  0  0  0  0
  156.5341  139.1124  186.0273 H   0  0  0  0  0  0  0  0  0  0  0  0
  155.9498  137.6623  187.4650 C   0  0  0  0  0  0  0  0  0  0  0  0
  156.4796  136.4511  187.6115 N   0  0  0  0  0  0  0  0  0  0  0  0
  156.5350  135.9163  188.7546 N   0  0  0  0  0  0  0  0  0  0  0  0
  156.0631  136.5655  189.8111 C   0  0  0  0  0  0  0  0  0  0  0  0
  156.0663  135.9526  191.4857 S   0  0  0  0  0  0  0  0  0  0  0  0
  155.5199  138.0134  189.0923 S   0  0  0  0  0  0  0  0  0  0  0  0
  157.3031  135.3306  191.8104 H   0  0  0  0  0  0  0  0  0  0  0  0
  153.3139  139.6081  182.3160 C   0  0  0  0  0  0  0  0  0  0  0  0
  153.3790  139.0490  183.4729 N   0  0  0  0  0  0  0  0  0  0  0  0
  149.8073  138.8958  181.2086 C   0  0  0  0  0  0  0  0  0  0  0  0
  149.8827  139.3088  179.8954 C   0  0  0  0  0  0  0  0  0  0  0  0
  151.0680  139.8088  179.3981 C   0  0  0  0  0  0  0  0  0  0  0  0
  152.1962  139.9104  180.1835 C   0  0  0  0  0  0  0  0  0  0  0  0
  152.1223  139.5006  181.4874 C   0  0  0  0  0  0  0  0  0  0  0  0
  150.9396  139.0027  181.9801 C   0  0  0  0  0  0  0  0  0  0  0  0
  147.8713  139.1320  182.6539 C   0  0  0  0  0  0  0  0  0  0  0  0
  148.6395  138.3921  181.7353 O   0  0  0  0  0  0  0  0  0  0  0  0
 22 23  1  0  0  0
 23 16  1  0  0  0
 16 17  2  0  0  0
 17 18  1  0  0  0
 18 19  2  0  0  0
 19 20  1  0  0  0
 20 14  1  0  0  0
 14 15  2  0  0  0
 15  1  1  0  0  0
  1  2  1  0  0  0
  2  3  2  0  0  0
  2  4  1  0  0  0
  4  7  1  0  0  0
  7  8  2  0  0  0
  8  9  1  0  0  0
  9 10  2  0  0  0
 10 11  1  0  0  0
 10 12  1  0  0  0
 20 21  2  0  0  0
 21 16  1  0  0  0
 12  7  1  0  0  0
  1  5  1  0  0  0
  4  6  1  0  0  0
 11 13  1  0  0  0
M  END
> <minimizedAffinity>
-5.45197

> <CNNscore>
0.4962123930

> <CNNaffinity>
4.3667268753

> <CNN_VS>
2.1668241024

> <CNNaffinity_variance>
0.0899025947

$$$$
[H]Sc1nnc(N([H])C(=O)N([H])N=C([H])c2c([H])c([H])c([H])c(OC([H])([H])[H])c2[H])s1


 23 24  0  0  0  0  0  0  0  0999 V2000
  156.7076  141.5549  182.9886 N   0  0  0  0  0  0  0  0  0  0  0  0
  157.8761  141.5292  183.7818 C   0  0  0  0  0  0  0  0  0  0  0  0
  157.9689  140.7108  184.7301 O   0  0  0  0  0  0  0  0  0  0  0  0
  158.9521  142.4046  183.5375 N   0  0  0  0  0  0  0  0  0  0  0  0
  156.6507  142.2446  182.2034 H   0  0  0  0  0  0  0  0  0  0  0  0
  158.8998  143.0862  182.7641 H   0  0  0  0  0  0  0  0  0  0  0  0
  160.1349  142.3786  184.3405 C   0  0  0  0  0  0  0  0  0  0  0  0
  161.3549  141.9422  184.0401 N   0  0  0  0  0  0  0  0  0  0  0  0
  162.2806  142.0047  184.8973 N   0  0  0  0  0  0  0  0  0  0  0  0
  162.0340  142.5072  186.1003 C   0  0  0  0  0  0  0  0  0  0  0  0
  163.2258  142.6653  187.4174 S   0  0  0  0  0  0  0  0  0  0  0  0
  160.3805  142.9002  185.9602 S   0  0  0  0  0  0  0  0  0  0  0  0
  164.4734  143.1482  186.9357 H   0  0  0  0  0  0  0  0  0  0  0  0
  155.5956  139.7327  183.9882 C   0  0  0  0  0  0  0  0  0  0  0  0
  155.6203  140.7278  183.1733 N   0  0  0  0  0  0  0  0  0  0  0  0
  153.0638  137.3714  185.4184 C   0  0  0  0  0  0  0  0  0  0  0  0
  152.1595  137.3319  184.3784 C   0  0  0  0  0  0  0  0  0  0  0  0
  152.3902  138.0712  183.2372 C   0  0  0  0  0  0  0  0  0  0  0  0
  153.5125  138.8599  183.1010 C   0  0  0  0  0  0  0  0  0  0  0  0
  154.4109  138.8997  184.1328 C   0  0  0  0  0  0  0  0  0  0  0  0
  154.1782  138.1618  185.2689 C   0  0  0  0  0  0  0  0  0  0  0  0
  152.6318  137.2803  187.8053 C   0  0  0  0  0  0  0  0  0  0  0  0
  152.8630  136.6454  186.5704 O   0  0  0  0  0  0  0  0  0  0  0  0
 22 23  1  0  0  0
 23 16  1  0  0  0
 16 17  2  0  0  0
 17 18  1  0  0  0
 18 19  2  0  0  0
 19 20  1  0  0  0
 20 14  1  0  0  0
 14 15  2  0  0  0
 15  1  1  0  0  0
  1  2  1  0  0  0
  2  3  2  0  0  0
  2  4  1  0  0  0
  4  7  1  0  0  0
  7  8  2  0  0  0
  8  9  1  0  0  0
  9 10  2  0  0  0
 10 11  1  0  0  0
 10 12  1  0  0  0
 20 21  2  0  0  0
 21 16  1  0  0  0
 12  7  1  0  0  0
  1  5  1  0  0  0
  4  6  1  0  0  0
 11 13  1  0  0  0
M  END
> <minimizedAffinity>
-5.73794

> <CNNscore>
0.4512180388

> <CNNaffinity>
5.3562059402

> <CNN_VS>
2.4168167114

> <CNNaffinity_variance>
0.0704504475

$$$$
[H]Sc1nnc(N([H])C(=O)N([H])N=C([H])c2c([H])c([H])c([H])c(OC([H])([H])[H])c2[H])s1


 23 24  0  0  0  0  0  0  0  0999 V2000
  154.1875  139.7361  182.9123 N   0  0  0  0  0  0  0  0  0  0  0  0
  153.0435  139.6310  182.0904 C   0  0  0  0  0  0  0  0  0  0  0  0
  152.9503  140.3389  181.0570 O   0  0  0  0  0  0  0  0  0  0  0  0
  151.9926  138.7458  182.3997 N   0  0  0  0  0  0  0  0  0  0  0  0
  154.2452  139.1373  183.7688 H   0  0  0  0  0  0  0  0  0  0  0  0
  152.0458  138.1536  183.2435 H   0  0  0  0  0  0  0  0  0  0  0  0
  150.8346  138.6394  181.5677 C   0  0  0  0  0  0  0  0  0  0  0  0
  150.7460  138.3813  180.2660 N   0  0  0  0  0  0  0  0  0  0  0  0
  149.6155  138.3282  179.7047 N   0  0  0  0  0  0  0  0  0  0  0  0
  148.5144  138.5308  180.4168 C   0  0  0  0  0  0  0  0  0  0  0  0
  146.8499  138.4906  179.7781 S   0  0  0  0  0  0  0  0  0  0  0  0
  149.1707  138.8086  181.9660 S   0  0  0  0  0  0  0  0  0  0  0  0
  146.6592  137.3971  178.8894 H   0  0  0  0  0  0  0  0  0  0  0  0
  155.6504  141.4957  183.4781 C   0  0  0  0  0  0  0  0  0  0  0  0
  155.2495  140.5803  182.6679 N   0  0  0  0  0  0  0  0  0  0  0  0
  159.1195  142.9018  183.3407 C   0  0  0  0  0  0  0  0  0  0  0  0
  158.9030  143.9930  182.5262 C   0  0  0  0  0  0  0  0  0  0  0  0
  157.6380  144.2488  182.0398 C   0  0  0  0  0  0  0  0  0  0  0  0
  156.5674  143.4364  182.3464 C   0  0  0  0  0  0  0  0  0  0  0  0
  156.7813  142.3529  183.1549 C   0  0  0  0  0  0  0  0  0  0  0  0
  158.0431  142.1006  183.6381 C   0  0  0  0  0  0  0  0  0  0  0  0
  160.7972  143.1378  185.0791 C   0  0  0  0  0  0  0  0  0  0  0  0
  160.3696  142.6190  183.8424 O   0  0  0  0  0  0  0  0  0  0  0  0
 22 23  1  0  0  0
 23 16  1  0  0  0
 16 17  2  0  0  0
 17 18  1  0  0  0
 18 19  2  0  0  0
 19 20  1  0  0  0
 20 14  1  0  0  0
 14 15  2  0  0  0
 15  1  1  0  0  0
  1  2  1  0  0  0
  2  3  2  0  0  0
  2  4  1  0  0  0
  4  7  1  0  0  0
  7  8  2  0  0  0
  8  9  1  0  0  0
  9 10  2  0  0  0
 10 11  1  0  0  0
 10 12  1  0  0  0
 20 21  2  0  0  0
 21 16  1  0  0  0
 12  7  1  0  0  0
  1  5  1  0  0  0
  4  6  1  0  0  0
 11 13  1  0  0  0
M  END
> <minimizedAffinity>
-6.11338

> <CNNscore>
0.4356074035

> <CNNaffinity>
5.1010174751

> <CNN_VS>
2.2220408916

> <CNNaffinity_variance>
0.1036112681

$$$$
[H]Sc1nnc(N([H])C(=O)N([H])N=C([H])c2c([H])c([H])c([H])c(OC([H])([H])[H])c2[H])s1


 23 24  0  0  0  0  0  0  0  0999 V2000
  156.9828  141.9991  182.1365 N   0  0  0  0  0  0  0  0  0  0  0  0
  158.0741  141.8334  183.0180 C   0  0  0  0  0  0  0  0  0  0  0  0
  158.1147  140.8361  183.7805 O   0  0  0  0  0  0  0  0  0  0  0  0
  159.1297  142.7646  183.0672 N   0  0  0  0  0  0  0  0  0  0  0  0
  156.9686  142.8371  181.5096 H   0  0  0  0  0  0  0  0  0  0  0  0
  159.1192  143.5922  182.4506 H   0  0  0  0  0  0  0  0  0  0  0  0
  160.2343  142.5968  183.9595 C   0  0  0  0  0  0  0  0  0  0  0  0
  161.3647  141.9161  183.7918 N   0  0  0  0  0  0  0  0  0  0  0  0
  162.2310  141.8876  184.7107 N   0  0  0  0  0  0  0  0  0  0  0  0
  162.0116  142.5388  185.8458 C   0  0  0  0  0  0  0  0  0  0  0  0
  163.1286  142.5982  187.2345 S   0  0  0  0  0  0  0  0  0  0  0  0
  160.4753  143.2153  185.5454 S   0  0  0  0  0  0  0  0  0  0  0  0
  164.4727  142.7946  186.8140 H   0  0  0  0  0  0  0  0  0  0  0  0
  154.7812  141.3036  182.6114 C   0  0  0  0  0  0  0  0  0  0  0  0
  155.9194  141.1274  182.0381 N   0  0  0  0  0  0  0  0  0  0  0  0
  151.6491  139.6307  181.4188 C   0  0  0  0  0  0  0  0  0  0  0  0
  151.6675  138.4993  182.2066 C   0  0  0  0  0  0  0  0  0  0  0  0
  152.6943  138.3038  183.1064 C   0  0  0  0  0  0  0  0  0  0  0  0
  153.7177  139.2167  183.2455 C   0  0  0  0  0  0  0  0  0  0  0  0
  153.7003  140.3402  182.4639 C   0  0  0  0  0  0  0  0  0  0  0  0
  152.6757  140.5323  181.5680 C   0  0  0  0  0  0  0  0  0  0  0  0
  150.9108  140.0348  179.1419 C   0  0  0  0  0  0  0  0  0  0  0  0
  150.6389  139.8556  180.5114 O   0  0  0  0  0  0  0  0  0  0  0  0
 22 23  1  0  0  0
 23 16  1  0  0  0
 16 17  2  0  0  0
 17 18  1  0  0  0
 18 19  2  0  0  0
 19 20  1  0  0  0
 20 14  1  0  0  0
 14 15  2  0  0  0
 15  1  1  0  0  0
  1  2  1  0  0  0
  2  3  2  0  0  0
  2  4  1  0  0  0
  4  7  1  0  0  0
  7  8  2  0  0  0
  8  9  1  0  0  0
  9 10  2  0  0  0
 10 11  1  0  0  0
 10 12  1  0  0  0
 20 21  2  0  0  0
 21 16  1  0  0  0
 12  7  1  0  0  0
  1  5  1  0  0  0
  4  6  1  0  0  0
 11 13  1  0  0  0
M  END
> <minimizedAffinity>
-6.97453

> <CNNscore>
0.4227839410

> <CNNaffinity>
5.5664138794

> <CNN_VS>
2.3533904552

> <CNNaffinity_variance>
0.1707470864

$$$$
[H]Sc1nnc(N([H])C(=O)N([H])N=C([H])c2c([H])c([H])c([H])c(OC([H])([H])[H])c2[H])s1


 23 24  0  0  0  0  0  0  0  0999 V2000
  154.3984  140.2839  182.5429 N   0  0  0  0  0  0  0  0  0  0  0  0
  153.2188  139.7888  181.9441 C   0  0  0  0  0  0  0  0  0  0  0  0
  152.9560  140.0782  180.7504 O   0  0  0  0  0  0  0  0  0  0  0  0
  152.3187  138.9712  182.6547 N   0  0  0  0  0  0  0  0  0  0  0  0
  154.5985  140.0309  183.5386 H   0  0  0  0  0  0  0  0  0  0  0  0
  152.5124  138.7195  183.6368 H   0  0  0  0  0  0  0  0  0  0  0  0
  151.1246  138.4700  182.0485 C   0  0  0  0  0  0  0  0  0  0  0  0
  149.9856  139.0984  181.7713 N   0  0  0  0  0  0  0  0  0  0  0  0
  149.0322  138.4740  181.2264 N   0  0  0  0  0  0  0  0  0  0  0  0
  149.1687  137.1878  180.9304 C   0  0  0  0  0  0  0  0  0  0  0  0
  147.9238  136.1673  180.1630 S   0  0  0  0  0  0  0  0  0  0  0  0
  150.7573  136.8914  181.4748 S   0  0  0  0  0  0  0  0  0  0  0  0
  147.2809  136.8465  179.0920 H   0  0  0  0  0  0  0  0  0  0  0  0
  156.5631  141.1619  182.2275 C   0  0  0  0  0  0  0  0  0  0  0  0
  155.3198  141.0870  181.9055 N   0  0  0  0  0  0  0  0  0  0  0  0
  158.8185  144.0335  181.3923 C   0  0  0  0  0  0  0  0  0  0  0  0
  159.2197  143.6622  180.1266 C   0  0  0  0  0  0  0  0  0  0  0  0
  158.7505  142.4897  179.5721 C   0  0  0  0  0  0  0  0  0  0  0  0
  157.8805  141.6652  180.2528 C   0  0  0  0  0  0  0  0  0  0  0  0
  157.4817  142.0330  181.5094 C   0  0  0  0  0  0  0  0  0  0  0  0
  157.9510  143.2020  182.0594 C   0  0  0  0  0  0  0  0  0  0  0  0
  159.8982  145.1909  183.2328 C   0  0  0  0  0  0  0  0  0  0  0  0
  159.2683  145.1971  181.9739 O   0  0  0  0  0  0  0  0  0  0  0  0
 22 23  1  0  0  0
 23 16  1  0  0  0
 16 17  2  0  0  0
 17 18  1  0  0  0
 18 19  2  0  0  0
 19 20  1  0  0  0
 20 14  1  0  0  0
 14 15  2  0  0  0
 15  1  1  0  0  0
  1  2  1  0  0  0
  2  3  2  0  0  0
  2  4  1  0  0  0
  4  7  1  0  0  0
  7  8  2  0  0  0
  8  9  1  0  0  0
  9 10  2  0  0  0
 10 11  1  0  0  0
 10 12  1  0  0  0
 20 21  2  0  0  0
 21 16  1  0  0  0
 12  7  1  0  0  0
  1  5  1  0  0  0
  4  6  1  0  0  0
 11 13  1  0  0  0
M  END
> <minimizedAffinity>
-6.54163

> <CNNscore>
0.3570905924

> <CNNaffinity>
5.0819296837

> <CNN_VS>
1.8147093058

> <CNNaffinity_variance>
0.0851354226

$$$$
[H]Sc1nnc(N([H])C(=O)N([H])N=C([H])c2c([H])c([H])c([H])c(OC([H])([H])[H])c2[H])s1


 23 24  0  0  0  0  0  0  0  0999 V2000
  153.8201  141.0621  181.5811 N   0  0  0  0  0  0  0  0  0  0  0  0
  152.8271  140.0816  181.3623 C   0  0  0  0  0  0  0  0  0  0  0  0
  153.0536  138.8847  181.6684 O   0  0  0  0  0  0  0  0  0  0  0  0
  151.5764  140.4110  180.8046 N   0  0  0  0  0  0  0  0  0  0  0  0
  153.6109  142.0536  181.3190 H   0  0  0  0  0  0  0  0  0  0  0  0
  151.3663  141.3876  180.5448 H   0  0  0  0  0  0  0  0  0  0  0  0
  150.5712  139.4185  180.5832 C   0  0  0  0  0  0  0  0  0  0  0  0
  150.2278  138.7944  179.4600 N   0  0  0  0  0  0  0  0  0  0  0  0
  149.3004  137.9367  179.4681 N   0  0  0  0  0  0  0  0  0  0  0  0
  148.6679  137.6586  180.6009 C   0  0  0  0  0  0  0  0  0  0  0  0
  147.3428  136.4788  180.7806 S   0  0  0  0  0  0  0  0  0  0  0  0
  149.4696  138.6982  181.6894 S   0  0  0  0  0  0  0  0  0  0  0  0
  147.6140  135.2784  180.0684 H   0  0  0  0  0  0  0  0  0  0  0  0
  155.9990  141.6831  182.2313 C   0  0  0  0  0  0  0  0  0  0  0  0
  155.0624  140.8080  182.1218 N   0  0  0  0  0  0  0  0  0  0  0  0
  159.3980  142.0066  183.7718 C   0  0  0  0  0  0  0  0  0  0  0  0
  159.7243  140.6745  183.9128 C   0  0  0  0  0  0  0  0  0  0  0  0
  158.8359  139.7013  183.5056 C   0  0  0  0  0  0  0  0  0  0  0  0
  157.6141  140.0226  182.9541 C   0  0  0  0  0  0  0  0  0  0  0  0
  157.2892  141.3448  182.8137 C   0  0  0  0  0  0  0  0  0  0  0  0
  158.1767  142.3123  183.2205 C   0  0  0  0  0  0  0  0  0  0  0  0
  161.2938  142.7510  185.0926 C   0  0  0  0  0  0  0  0  0  0  0  0
  160.2624  143.0018  184.1681 O   0  0  0  0  0  0  0  0  0  0  0  0
 22 23  1  0  0  0
 23 16  1  0  0  0
 16 17  2  0  0  0
 17 18  1  0  0  0
 18 19  2  0  0  0
 19 20  1  0  0  0
 20 14  1  0  0  0
 14 15  2  0  0  0
 15  1  1  0  0  0
  1  2  1  0  0  0
  2  3  2  0  0  0
  2  4  1  0  0  0
  4  7  1  0  0  0
  7  8  2  0  0  0
  8  9  1  0  0  0
  9 10  2  0  0  0
 10 11  1  0  0  0
 10 12  1  0  0  0
 20 21  2  0  0  0
 21 16  1  0  0  0
 12  7  1  0  0  0
  1  5  1  0  0  0
  4  6  1  0  0  0
 11 13  1  0  0  0
M  END
> <minimizedAffinity>
-6.28206

> <CNNscore>
0.3449586928

> <CNNaffinity>
5.0636429787

> <CNN_VS>
1.7467476130

> <CNNaffinity_variance>
0.1523374021

$$$$
[H]Sc1nnc(N([H])C(=O)N([H])N=C([H])c2c([H])c([H])c([H])c(OC([H])([H])[H])c2[H])s1


 23 24  0  0  0  0  0  0  0  0999 V2000
  155.2037  140.3929  183.7335 N   0  0  0  0  0  0  0  0  0  0  0  0
  155.4119  139.4920  184.8014 C   0  0  0  0  0  0  0  0  0  0  0  0
  156.5706  139.3173  185.2536 O   0  0  0  0  0  0  0  0  0  0  0  0
  154.3459  138.7759  185.3799 N   0  0  0  0  0  0  0  0  0  0  0  0
  154.2303  140.5238  183.3717 H   0  0  0  0  0  0  0  0  0  0  0  0
  153.3847  138.9022  185.0258 H   0  0  0  0  0  0  0  0  0  0  0  0
  154.5567  137.8640  186.4609 C   0  0  0  0  0  0  0  0  0  0  0  0
  154.7101  138.1081  187.7593 N   0  0  0  0  0  0  0  0  0  0  0  0
  154.8882  137.1542  188.5681 N   0  0  0  0  0  0  0  0  0  0  0  0
  154.9222  135.9058  188.1198 C   0  0  0  0  0  0  0  0  0  0  0  0
  155.1635  134.4537  189.1263 S   0  0  0  0  0  0  0  0  0  0  0  0
  154.6832  136.1494  186.4490 S   0  0  0  0  0  0  0  0  0  0  0  0
  154.4021  134.5186  190.3255 H   0  0  0  0  0  0  0  0  0  0  0  0
  156.1978  141.4584  181.8808 C   0  0  0  0  0  0  0  0  0  0  0  0
  156.2004  141.1237  183.1230 N   0  0  0  0  0  0  0  0  0  0  0  0
  158.8052  144.1001  181.3773 C   0  0  0  0  0  0  0  0  0  0  0  0
  159.3454  143.6779  180.1810 C   0  0  0  0  0  0  0  0  0  0  0  0
  158.8528  142.5468  179.5644 C   0  0  0  0  0  0  0  0  0  0  0  0
  157.8225  141.8142  180.1138 C   0  0  0  0  0  0  0  0  0  0  0  0
  157.2856  142.2325  181.3013 C   0  0  0  0  0  0  0  0  0  0  0  0
  157.7787  143.3601  181.9135 C   0  0  0  0  0  0  0  0  0  0  0  0
  159.9108  145.1420  183.2706 C   0  0  0  0  0  0  0  0  0  0  0  0
  159.2741  145.2245  182.0179 O   0  0  0  0  0  0  0  0  0  0  0  0
 22 23  1  0  0  0
 23 16  1  0  0  0
 16 17  2  0  0  0
 17 18  1  0  0  0
 18 19  2  0  0  0
 19 20  1  0  0  0
 20 14  1  0  0  0
 14 15  2  0  0  0
 15  1  1  0  0  0
  1  2  1  0  0  0
  2  3  2  0  0  0
  2  4  1  0  0  0
  4  7  1  0  0  0
  7  8  2  0  0  0
  8  9  1  0  0  0
  9 10  2  0  0  0
 10 11  1  0  0  0
 10 12  1  0  0  0
 20 21  2  0  0  0
 21 16  1  0  0  0
 12  7  1  0  0  0
  1  5  1  0  0  0
  4  6  1  0  0  0
 11 13  1  0  0  0
M  END
> <minimizedAffinity>
-5.91874

> <CNNscore>
0.3395014703

> <CNNaffinity>
5.0349307060

> <CNN_VS>
1.7093663216

> <CNNaffinity_variance>
0.2617339492

$$$$
[H]Sc1nnc(N([H])C(=O)N([H])N=C([H])c2c([H])c([H])c([H])c(OC([H])([H])[H])c2[H])s1


 23 24  0  0  0  0  0  0  0  0999 V2000
  155.5962  138.8239  185.3917 N   0  0  0  0  0  0  0  0  0  0  0  0
  156.4606  139.5707  184.5609 C   0  0  0  0  0  0  0  0  0  0  0  0
  157.5989  139.8983  184.9788 O   0  0  0  0  0  0  0  0  0  0  0  0
  156.0789  139.9632  183.2633 N   0  0  0  0  0  0  0  0  0  0  0  0
  154.6520  138.5612  185.0240 H   0  0  0  0  0  0  0  0  0  0  0  0
  155.1487  139.7061  182.8972 H   0  0  0  0  0  0  0  0  0  0  0  0
  156.9540  140.7191  182.4224 C   0  0  0  0  0  0  0  0  0  0  0  0
  157.8631  140.2983  181.5474 N   0  0  0  0  0  0  0  0  0  0  0  0
  158.5468  141.1334  180.8910 N   0  0  0  0  0  0  0  0  0  0  0  0
  158.3566  142.4335  181.0757 C   0  0  0  0  0  0  0  0  0  0  0  0
  159.2356  143.7356  180.2319 S   0  0  0  0  0  0  0  0  0  0  0  0
  157.1275  142.4217  182.2577 S   0  0  0  0  0  0  0  0  0  0  0  0
  159.3729  143.4572  178.8443 H   0  0  0  0  0  0  0  0  0  0  0  0
  155.0353  138.1349  187.5750 C   0  0  0  0  0  0  0  0  0  0  0  0
  155.9066  138.4085  186.6689 N   0  0  0  0  0  0  0  0  0  0  0  0
  156.4838  136.0944  190.3622 C   0  0  0  0  0  0  0  0  0  0  0  0
  156.1790  136.9047  191.4352 C   0  0  0  0  0  0  0  0  0  0  0  0
  155.5110  138.0941  191.2317 C   0  0  0  0  0  0  0  0  0  0  0  0
  155.1328  138.5046  189.9713 C   0  0  0  0  0  0  0  0  0  0  0  0
  155.4350  137.7008  188.9054 C   0  0  0  0  0  0  0  0  0  0  0  0
  156.1008  136.5161  189.1115 C   0  0  0  0  0  0  0  0  0  0  0  0
  156.4533  133.7023  190.7742 C   0  0  0  0  0  0  0  0  0  0  0  0
  157.1494  134.9015  190.5316 O   0  0  0  0  0  0  0  0  0  0  0  0
 22 23  1  0  0  0
 23 16  1  0  0  0
 16 17  2  0  0  0
 17 18  1  0  0  0
 18 19  2  0  0  0
 19 20  1  0  0  0
 20 14  1  0  0  0
 14 15  2  0  0  0
 15  1  1  0  0  0
  1  2  1  0  0  0
  2  3  2  0  0  0
  2  4  1  0  0  0
  4  7  1  0  0  0
  7  8  2  0  0  0
  8  9  1  0  0  0
  9 10  2  0  0  0
 10 11  1  0  0  0
 10 12  1  0  0  0
 20 21  2  0  0  0
 21 16  1  0  0  0
 12  7  1  0  0  0
  1  5  1  0  0  0
  4  6  1  0  0  0
 11 13  1  0  0  0
M  END
> <minimizedAffinity>
-6.17118

> <CNNscore>
0.3384609818

> <CNNaffinity>
4.9016294479

> <CNN_VS>
1.6590102911

> <CNNaffinity_variance>
0.0917402133

$$$$
[H]c1c([H])c(-c2c([H])c(SC([H])([H])[H])n([H])c2-c2c([H])c([H])c(S(=O)(=O)C([H])([H])[H])c([H])c2[H])c([H])c([H])c1F


 25 27  0  0  0  0  0  0  0  0999 V2000
  160.5095  142.8076  185.8963 C   0  0  0  0  0  0  0  0  0  0  0  0
  160.5391  143.0527  184.5152 C   0  0  0  0  0  0  0  0  0  0  0  0
  159.4714  142.4104  183.9388 C   0  0  0  0  0  0  0  0  0  0  0  0
  158.7988  141.7817  184.9525 C   0  0  0  0  0  0  0  0  0  0  0  0
  159.4367  142.0321  186.1184 N   0  0  0  0  0  0  0  0  0  0  0  0
  159.1650  141.6920  187.0601 H   0  0  0  0  0  0  0  0  0  0  0  0
  159.1223  142.3997  182.5297 C   0  0  0  0  0  0  0  0  0  0  0  0
  158.8344  143.5757  181.8678 C   0  0  0  0  0  0  0  0  0  0  0  0
  158.5014  143.6099  180.5543 C   0  0  0  0  0  0  0  0  0  0  0  0
  158.4407  142.4459  179.8302 C   0  0  0  0  0  0  0  0  0  0  0  0
  158.1057  142.5307  178.5318 F   0  0  0  0  0  0  0  0  0  0  0  0
  158.7251  141.2470  180.4684 C   0  0  0  0  0  0  0  0  0  0  0  0
  159.0607  141.2268  181.7987 C   0  0  0  0  0  0  0  0  0  0  0  0
  157.6034  140.9810  184.7731 C   0  0  0  0  0  0  0  0  0  0  0  0
  156.4953  141.5317  184.1204 C   0  0  0  0  0  0  0  0  0  0  0  0
  155.3975  140.7097  183.9836 C   0  0  0  0  0  0  0  0  0  0  0  0
  155.3414  139.4173  184.4429 C   0  0  0  0  0  0  0  0  0  0  0  0
  156.4400  138.8838  185.0858 C   0  0  0  0  0  0  0  0  0  0  0  0
  157.5408  139.6703  185.2369 C   0  0  0  0  0  0  0  0  0  0  0  0
  153.9361  138.4038  184.2476 S   0  0  0  0  0  0  0  0  0  0  0  0
  152.9697  139.0383  182.8907 C   0  0  0  0  0  0  0  0  0  0  0  0
  153.0920  138.4936  185.5024 O   0  0  0  0  0  0  0  0  0  0  0  0
  154.3113  136.9760  184.0706 O   0  0  0  0  0  0  0  0  0  0  0  0
  163.2329  142.5340  187.0894 C   0  0  0  0  0  0  0  0  0  0  0  0
  161.6375  143.3774  187.1445 S   0  0  0  0  0  0  0  0  0  0  0  0
 24 25  1  0  0  0
 25  1  1  0  0  0
  1  2  2  0  0  0
  2  3  1  0  0  0
  3  7  1  0  0  0
  7  8  2  0  0  0
  8  9  1  0  0  0
  9 10  2  0  0  0
 10 11  1  0  0  0
 10 12  1  0  0  0
 12 13  2  0  0  0
  3  4  2  0  0  0
  4 14  1  0  0  0
 14 15  2  0  0  0
 15 16  1  0  0  0
 16 17  2  0  0  0
 17 20  1  0  0  0
 20 21  1  0  0  0
 20 22  2  0  0  0
 20 23  2  0  0  0
 17 18  1  0  0  0
 18 19  2  0  0  0
  4  5  1  0  0  0
  5  1  1  0  0  0
 13  7  1  0  0  0
 19 14  1  0  0  0
  5  6  1  0  0  0
M  END
> <minimizedAffinity>
-8.38378

> <CNNscore>
0.6069010496

> <CNNaffinity>
6.6090621948

> <CNN_VS>
4.0110468864

> <CNNaffinity_variance>
0.0475521572

$$$$
[H]c1c([H])c(-c2c([H])c(SC([H])([H])[H])n([H])c2-c2c([H])c([H])c(S(=O)(=O)C([H])([H])[H])c([H])c2[H])c([H])c([H])c1F


 25 27  0  0  0  0  0  0  0  0999 V2000
  155.7250  138.1704  186.2645 C   0  0  0  0  0  0  0  0  0  0  0  0
  156.4997  139.1584  185.6385 C   0  0  0  0  0  0  0  0  0  0  0  0
  155.8286  139.5916  184.5219 C   0  0  0  0  0  0  0  0  0  0  0  0
  154.6606  138.8789  184.4659 C   0  0  0  0  0  0  0  0  0  0  0  0
  154.6171  138.0321  185.5195 N   0  0  0  0  0  0  0  0  0  0  0  0
  153.8573  137.3635  185.7474 H   0  0  0  0  0  0  0  0  0  0  0  0
  156.2698  140.6076  183.5835 C   0  0  0  0  0  0  0  0  0  0  0  0
  155.9030  141.9271  183.7519 C   0  0  0  0  0  0  0  0  0  0  0  0
  156.2907  142.9059  182.8980 C   0  0  0  0  0  0  0  0  0  0  0  0
  157.0783  142.6020  181.8163 C   0  0  0  0  0  0  0  0  0  0  0  0
  157.4363  143.6059  180.9983 F   0  0  0  0  0  0  0  0  0  0  0  0
  157.4636  141.2834  181.6204 C   0  0  0  0  0  0  0  0  0  0  0  0
  157.0640  140.3024  182.4926 C   0  0  0  0  0  0  0  0  0  0  0  0
  153.6565  139.0266  183.4305 C   0  0  0  0  0  0  0  0  0  0  0  0
  153.5148  140.2552  182.7766 C   0  0  0  0  0  0  0  0  0  0  0  0
  152.5427  140.3186  181.8017 C   0  0  0  0  0  0  0  0  0  0  0  0
  151.7323  139.2669  181.4530 C   0  0  0  0  0  0  0  0  0  0  0  0
  151.8800  138.0593  182.1045 C   0  0  0  0  0  0  0  0  0  0  0  0
  152.8320  137.9639  183.0730 C   0  0  0  0  0  0  0  0  0  0  0  0
  150.5149  139.3820  180.2100 S   0  0  0  0  0  0  0  0  0  0  0  0
  148.9573  139.7743  180.9833 C   0  0  0  0  0  0  0  0  0  0  0  0
  150.3743  138.0312  179.5387 O   0  0  0  0  0  0  0  0  0  0  0  0
  150.8985  140.3591  179.1571 O   0  0  0  0  0  0  0  0  0  0  0  0
  155.7039  138.1656  189.2502 C   0  0  0  0  0  0  0  0  0  0  0  0
  156.0875  137.2520  187.7410 S   0  0  0  0  0  0  0  0  0  0  0  0
 24 25  1  0  0  0
 25  1  1  0  0  0
  1  2  2  0  0  0
  2  3  1  0  0  0
  3  7  1  0  0  0
  7  8  2  0  0  0
  8  9  1  0  0  0
  9 10  2  0  0  0
 10 11  1  0  0  0
 10 12  1  0  0  0
 12 13  2  0  0  0
  3  4  2  0  0  0
  4 14  1  0  0  0
 14 15  2  0  0  0
 15 16  1  0  0  0
 16 17  2  0  0  0
 17 20  1  0  0  0
 20 21  1  0  0  0
 20 22  2  0  0  0
 20 23  2  0  0  0
 17 18  1  0  0  0
 18 19  2  0  0  0
  4  5  1  0  0  0
  5  1  1  0  0  0
 13  7  1  0  0  0
 19 14  1  0  0  0
  5  6  1  0  0  0
M  END
> <minimizedAffinity>
-6.97902

> <CNNscore>
0.5800476074

> <CNNaffinity>
5.8980836868

> <CNN_VS>
3.4211692810

> <CNNaffinity_variance>
0.0944893807

$$$$
[H]c1c([H])c(-c2c([H])c(SC([H])([H])[H])n([H])c2-c2c([H])c([H])c(S(=O)(=O)C([H])([H])[H])c([H])c2[H])c([H])c([H])c1F


 25 27  0  0  0  0  0  0  0  0999 V2000
  154.1260  137.2646  188.3615 C   0  0  0  0  0  0  0  0  0  0  0  0
  153.1621  137.2501  187.3422 C   0  0  0  0  0  0  0  0  0  0  0  0
  152.0751  136.5378  187.7846 C   0  0  0  0  0  0  0  0  0  0  0  0
  152.3699  136.1227  189.0558 C   0  0  0  0  0  0  0  0  0  0  0  0
  153.6039  136.5686  189.3836 N   0  0  0  0  0  0  0  0  0  0  0  0
  154.1016  136.4144  190.2807 H   0  0  0  0  0  0  0  0  0  0  0  0
  150.8511  136.2758  187.0493 C   0  0  0  0  0  0  0  0  0  0  0  0
  150.0600  137.3164  186.6073 C   0  0  0  0  0  0  0  0  0  0  0  0
  148.9089  137.1157  185.9202 C   0  0  0  0  0  0  0  0  0  0  0  0
  148.4899  135.8397  185.6392 C   0  0  0  0  0  0  0  0  0  0  0  0
  147.3423  135.6916  184.9563 F   0  0  0  0  0  0  0  0  0  0  0  0
  149.2645  134.7723  186.0707 C   0  0  0  0  0  0  0  0  0  0  0  0
  150.4276  134.9898  186.7653 C   0  0  0  0  0  0  0  0  0  0  0  0
  151.4851  135.3309  189.8879 C   0  0  0  0  0  0  0  0  0  0  0  0
  151.7733  133.9804  190.1120 C   0  0  0  0  0  0  0  0  0  0  0  0
  150.8895  133.2936  190.9161 C   0  0  0  0  0  0  0  0  0  0  0  0
  149.7750  133.8538  191.4893 C   0  0  0  0  0  0  0  0  0  0  0  0
  149.4997  135.1869  191.2616 C   0  0  0  0  0  0  0  0  0  0  0  0
  150.3538  135.8935  190.4714 C   0  0  0  0  0  0  0  0  0  0  0  0
  148.6806  132.9548  192.5063 S   0  0  0  0  0  0  0  0  0  0  0  0
  149.5686  132.4270  193.9591 C   0  0  0  0  0  0  0  0  0  0  0  0
  148.2290  131.7157  191.7608 O   0  0  0  0  0  0  0  0  0  0  0  0
  147.4619  133.7427  192.8296 O   0  0  0  0  0  0  0  0  0  0  0  0
  156.7559  137.5210  189.7519 C   0  0  0  0  0  0  0  0  0  0  0  0
  155.7298  138.0281  188.3556 S   0  0  0  0  0  0  0  0  0  0  0  0
 24 25  1  0  0  0
 25  1  1  0  0  0
  1  2  2  0  0  0
  2  3  1  0  0  0
  3  7  1  0  0  0
  7  8  2  0  0  0
  8  9  1  0  0  0
  9 10  2  0  0  0
 10 11  1  0  0  0
 10 12  1  0  0  0
 12 13  2  0  0  0
  3  4  2  0  0  0
  4 14  1  0  0  0
 14 15  2  0  0  0
 15 16  1  0  0  0
 16 17  2  0  0  0
 17 20  1  0  0  0
 20 21  1  0  0  0
 20 22  2  0  0  0
 20 23  2  0  0  0
 17 18  1  0  0  0
 18 19  2  0  0  0
  4  5  1  0  0  0
  5  1  1  0  0  0
 13  7  1  0  0  0
 19 14  1  0  0  0
  5  6  1  0  0  0
M  END
> <minimizedAffinity>
-3.30054

> <CNNscore>
0.5416260362

> <CNNaffinity>
5.4560871124

> <CNN_VS>
2.9551589489

> <CNNaffinity_variance>
0.8454230428

$$$$
[H]c1c([H])c(-c2c([H])c(SC([H])([H])[H])n([H])c2-c2c([H])c([H])c(S(=O)(=O)C([H])([H])[H])c([H])c2[H])c([H])c([H])c1F


 25 27  0  0  0  0  0  0  0  0999 V2000
  154.5953  137.0737  189.5144 C   0  0  0  0  0  0  0  0  0  0  0  0
  153.9161  136.4540  190.5740 C   0  0  0  0  0  0  0  0  0  0  0  0
  152.6425  136.1566  190.1566 C   0  0  0  0  0  0  0  0  0  0  0  0
  152.5443  136.5882  188.8606 C   0  0  0  0  0  0  0  0  0  0  0  0
  153.7256  137.1350  188.4938 N   0  0  0  0  0  0  0  0  0  0  0  0
  153.9584  137.5482  187.5712 H   0  0  0  0  0  0  0  0  0  0  0  0
  151.6022  135.5100  190.9359 C   0  0  0  0  0  0  0  0  0  0  0  0
  150.7614  136.2526  191.7393 C   0  0  0  0  0  0  0  0  0  0  0  0
  149.7796  135.6886  192.4846 C   0  0  0  0  0  0  0  0  0  0  0  0
  149.5918  134.3296  192.4586 C   0  0  0  0  0  0  0  0  0  0  0  0
  148.6064  133.8173  193.2148 F   0  0  0  0  0  0  0  0  0  0  0  0
  150.4219  133.5560  191.6599 C   0  0  0  0  0  0  0  0  0  0  0  0
  151.4118  134.1399  190.9104 C   0  0  0  0  0  0  0  0  0  0  0  0
  151.3531  136.4690  188.0426 C   0  0  0  0  0  0  0  0  0  0  0  0
  150.4495  135.4292  188.2865 C   0  0  0  0  0  0  0  0  0  0  0  0
  149.3391  135.3828  187.4715 C   0  0  0  0  0  0  0  0  0  0  0  0
  149.0856  136.2797  186.4637 C   0  0  0  0  0  0  0  0  0  0  0  0
  149.9836  137.3016  186.2314 C   0  0  0  0  0  0  0  0  0  0  0  0
  151.0911  137.3754  187.0195 C   0  0  0  0  0  0  0  0  0  0  0  0
  147.6663  136.1930  185.4546 S   0  0  0  0  0  0  0  0  0  0  0  0
  148.1855  136.2318  183.7497 C   0  0  0  0  0  0  0  0  0  0  0  0
  146.8116  137.4177  185.7090 O   0  0  0  0  0  0  0  0  0  0  0  0
  146.8367  135.0023  185.7780 O   0  0  0  0  0  0  0  0  0  0  0  0
  157.4922  136.3737  189.6971 C   0  0  0  0  0  0  0  0  0  0  0  0
  156.2648  137.6790  189.4749 S   0  0  0  0  0  0  0  0  0  0  0  0
 24 25  1  0  0  0
 25  1  1  0  0  0
  1  2  2  0  0  0
  2  3  1  0  0  0
  3  7  1  0  0  0
  7  8  2  0  0  0
  8  9  1  0  0  0
  9 10  2  0  0  0
 10 11  1  0  0  0
 10 12  1  0  0  0
 12 13  2  0  0  0
  3  4  2  0  0  0
  4 14  1  0  0  0
 14 15  2  0  0  0
 15 16  1  0  0  0
 16 17  2  0  0  0
 17 20  1  0  0  0
 20 21  1  0  0  0
 20 22  2  0  0  0
 20 23  2  0  0  0
 17 18  1  0  0  0
 18 19  2  0  0  0
  4  5  1  0  0  0
  5  1  1  0  0  0
 13  7  1  0  0  0
 19 14  1  0  0  0
  5  6  1  0  0  0
M  END
> <minimizedAffinity>
-3.56714

> <CNNscore>
0.4916445613

> <CNNaffinity>
5.5881586075

> <CNN_VS>
2.7473878860

> <CNNaffinity_variance>
1.0763181448

$$$$
[H]c1c([H])c(-c2c([H])c(SC([H])([H])[H])n([H])c2-c2c([H])c([H])c(S(=O)(=O)C([H])([H])[H])c([H])c2[H])c([H])c([H])c1F


 25 27  0  0  0  0  0  0  0  0999 V2000
  155.1931  141.1518  183.0766 C   0  0  0  0  0  0  0  0  0  0  0  0
  155.0920  139.9909  183.8577 C   0  0  0  0  0  0  0  0  0  0  0  0
  154.0117  139.2665  183.4185 C   0  0  0  0  0  0  0  0  0  0  0  0
  153.4602  139.9741  182.3839 C   0  0  0  0  0  0  0  0  0  0  0  0
  154.1829  141.1014  182.1942 N   0  0  0  0  0  0  0  0  0  0  0  0
  154.0104  141.8370  181.4833 H   0  0  0  0  0  0  0  0  0  0  0  0
  153.5447  137.9973  183.9465 C   0  0  0  0  0  0  0  0  0  0  0  0
  152.9571  137.9280  185.1930 C   0  0  0  0  0  0  0  0  0  0  0  0
  152.5101  136.7637  185.7242 C   0  0  0  0  0  0  0  0  0  0  0  0
  152.6335  135.5939  185.0177 C   0  0  0  0  0  0  0  0  0  0  0  0
  152.1763  134.4657  185.5862 F   0  0  0  0  0  0  0  0  0  0  0  0
  153.2204  135.6318  183.7608 C   0  0  0  0  0  0  0  0  0  0  0  0
  153.6686  136.8173  183.2351 C   0  0  0  0  0  0  0  0  0  0  0  0
  152.2891  139.5593  181.6364 C   0  0  0  0  0  0  0  0  0  0  0  0
  152.2983  139.6373  180.2397 C   0  0  0  0  0  0  0  0  0  0  0  0
  151.1514  139.2219  179.5982 C   0  0  0  0  0  0  0  0  0  0  0  0
  150.0357  138.7502  180.2441 C   0  0  0  0  0  0  0  0  0  0  0  0
  150.0370  138.6775  181.6223 C   0  0  0  0  0  0  0  0  0  0  0  0
  151.1551  139.0804  182.2860 C   0  0  0  0  0  0  0  0  0  0  0  0
  148.6028  138.2280  179.3989 S   0  0  0  0  0  0  0  0  0  0  0  0
  147.1783  138.8624  180.2625 C   0  0  0  0  0  0  0  0  0  0  0  0
  148.5367  136.7151  179.4400 O   0  0  0  0  0  0  0  0  0  0  0  0
  148.6353  138.6286  177.9674 O   0  0  0  0  0  0  0  0  0  0  0  0
  155.9875  143.8744  182.1428 C   0  0  0  0  0  0  0  0  0  0  0  0
  156.3899  142.4594  183.1895 S   0  0  0  0  0  0  0  0  0  0  0  0
 24 25  1  0  0  0
 25  1  1  0  0  0
  1  2  2  0  0  0
  2  3  1  0  0  0
  3  7  1  0  0  0
  7  8  2  0  0  0
  8  9  1  0  0  0
  9 10  2  0  0  0
 10 11  1  0  0  0
 10 12  1  0  0  0
 12 13  2  0  0  0
  3  4  2  0  0  0
  4 14  1  0  0  0
 14 15  2  0  0  0
 15 16  1  0  0  0
 16 17  2  0  0  0
 17 20  1  0  0  0
 20 21  1  0  0  0
 20 22  2  0  0  0
 20 23  2  0  0  0
 17 18  1  0  0  0
 18 19  2  0  0  0
  4  5  1  0  0  0
  5  1  1  0  0  0
 13  7  1  0  0  0
 19 14  1  0  0  0
  5  6  1  0  0  0
M  END
> <minimizedAffinity>
-6.20196

> <CNNscore>
0.4555151463

> <CNNaffinity>
5.5391564369

> <CNN_VS>
2.5231697559

> <CNNaffinity_variance>
0.1873471439

$$$$
[H]c1c([H])c(-c2c([H])c(SC([H])([H])[H])n([H])c2-c2c([H])c([H])c(S(=O)(=O)C([H])([H])[H])c([H])c2[H])c([H])c([H])c1F


 25 27  0  0  0  0  0  0  0  0999 V2000
  154.2605  137.8573  186.8834 C   0  0  0  0  0  0  0  0  0  0  0  0
  155.3673  137.2689  187.5133 C   0  0  0  0  0  0  0  0  0  0  0  0
  154.9328  136.6421  188.6549 C   0  0  0  0  0  0  0  0  0  0  0  0
  153.5800  136.8444  188.7220 C   0  0  0  0  0  0  0  0  0  0  0  0
  153.1960  137.5750  187.6508 N   0  0  0  0  0  0  0  0  0  0  0  0
  152.2327  137.8873  187.4255 H   0  0  0  0  0  0  0  0  0  0  0  0
  155.7475  135.9073  189.6056 C   0  0  0  0  0  0  0  0  0  0  0  0
  156.0837  136.4651  190.8221 C   0  0  0  0  0  0  0  0  0  0  0  0
  156.8441  135.8147  191.7366 C   0  0  0  0  0  0  0  0  0  0  0  0
  157.3109  134.5524  191.4694 C   0  0  0  0  0  0  0  0  0  0  0  0
  158.0610  133.9487  192.4066 F   0  0  0  0  0  0  0  0  0  0  0  0
  156.9892  133.9649  190.2542 C   0  0  0  0  0  0  0  0  0  0  0  0
  156.2187  134.6345  189.3374 C   0  0  0  0  0  0  0  0  0  0  0  0
  152.7265  136.3480  189.7838 C   0  0  0  0  0  0  0  0  0  0  0  0
  152.6618  137.0401  190.9978 C   0  0  0  0  0  0  0  0  0  0  0  0
  151.8264  136.5107  191.9577 C   0  0  0  0  0  0  0  0  0  0  0  0
  151.0785  135.3726  191.7847 C   0  0  0  0  0  0  0  0  0  0  0  0
  151.1499  134.6973  190.5832 C   0  0  0  0  0  0  0  0  0  0  0  0
  151.9663  135.1947  189.6140 C   0  0  0  0  0  0  0  0  0  0  0  0
  150.0275  134.7339  193.0206 S   0  0  0  0  0  0  0  0  0  0  0  0
  150.9477  133.5494  193.9840 C   0  0  0  0  0  0  0  0  0  0  0  0
  148.8804  134.0020  192.3547 O   0  0  0  0  0  0  0  0  0  0  0  0
  149.4364  135.8173  193.8498 O   0  0  0  0  0  0  0  0  0  0  0  0
  153.5856  137.8554  183.9748 C   0  0  0  0  0  0  0  0  0  0  0  0
  154.2169  138.7995  185.3782 S   0  0  0  0  0  0  0  0  0  0  0  0
 24 25  1  0  0  0
 25  1  1  0  0  0
  1  2  2  0  0  0
  2  3  1  0  0  0
  3  7  1  0  0  0
  7  8  2  0  0  0
  8  9  1  0  0  0
  9 10  2  0  0  0
 10 11  1  0  0  0
 10 12  1  0  0  0
 12 13  2  0  0  0
  3  4  2  0  0  0
  4 14  1  0  0  0
 14 15  2  0  0  0
 15 16  1  0  0  0
 16 17  2  0  0  0
 17 20  1  0  0  0
 20 21  1  0  0  0
 20 22  2  0  0  0
 20 23  2  0  0  0
 17 18  1  0  0  0
 18 19  2  0  0  0
  4  5  1  0  0  0
  5  1  1  0  0  0
 13  7  1  0  0  0
 19 14  1  0  0  0
  5  6  1  0  0  0
M  END
> <minimizedAffinity>
-5.10365

> <CNNscore>
0.4213453233

> <CNNaffinity>
5.3229203224

> <CNN_VS>
2.2427875996

> <CNNaffinity_variance>
0.0774066001

$$$$
[H]c1c([H])c(-c2c([H])c(SC([H])([H])[H])n([H])c2-c2c([H])c([H])c(S(=O)(=O)C([H])([H])[H])c([H])c2[H])c([H])c([H])c1F


 25 27  0  0  0  0  0  0  0  0999 V2000
  153.8093  137.5502  189.7260 C   0  0  0  0  0  0  0  0  0  0  0  0
  152.9197  136.6179  190.2807 C   0  0  0  0  0  0  0  0  0  0  0  0
  152.0672  136.1922  189.2923 C   0  0  0  0  0  0  0  0  0  0  0  0
  152.4302  136.8545  188.1500 C   0  0  0  0  0  0  0  0  0  0  0  0
  153.4766  137.6639  188.4306 N   0  0  0  0  0  0  0  0  0  0  0  0
  153.9714  138.2908  187.7685 H   0  0  0  0  0  0  0  0  0  0  0  0
  150.9911  135.2275  189.4301 C   0  0  0  0  0  0  0  0  0  0  0  0
  149.7762  135.6015  189.9668 C   0  0  0  0  0  0  0  0  0  0  0  0
  148.7467  134.7322  190.1155 C   0  0  0  0  0  0  0  0  0  0  0  0
  148.8899  133.4243  189.7260 C   0  0  0  0  0  0  0  0  0  0  0  0
  147.8418  132.6007  189.8939 F   0  0  0  0  0  0  0  0  0  0  0  0
  150.1004  133.0183  189.1825 C   0  0  0  0  0  0  0  0  0  0  0  0
  151.1343  133.9087  189.0376 C   0  0  0  0  0  0  0  0  0  0  0  0
  151.7766  136.6966  186.8654 C   0  0  0  0  0  0  0  0  0  0  0  0
  152.4347  136.0166  185.8351 C   0  0  0  0  0  0  0  0  0  0  0  0
  151.7495  135.9027  184.6447 C   0  0  0  0  0  0  0  0  0  0  0  0
  150.4919  136.4089  184.4287 C   0  0  0  0  0  0  0  0  0  0  0  0
  149.8516  137.0783  185.4518 C   0  0  0  0  0  0  0  0  0  0  0  0
  150.5018  137.2078  186.6408 C   0  0  0  0  0  0  0  0  0  0  0  0
  149.6525  136.2415  182.9096 S   0  0  0  0  0  0  0  0  0  0  0  0
  148.9527  137.8230  182.4769 C   0  0  0  0  0  0  0  0  0  0  0  0
  148.5117  135.2608  183.0884 O   0  0  0  0  0  0  0  0  0  0  0  0
  150.5413  135.6947  181.8506 O   0  0  0  0  0  0  0  0  0  0  0  0
  156.3335  137.3447  191.3076 C   0  0  0  0  0  0  0  0  0  0  0  0
  155.1246  138.4352  190.5271 S   0  0  0  0  0  0  0  0  0  0  0  0
 24 25  1  0  0  0
 25  1  1  0  0  0
  1  2  2  0  0  0
  2  3  1  0  0  0
  3  7  1  0  0  0
  7  8  2  0  0  0
  8  9  1  0  0  0
  9 10  2  0  0  0
 10 11  1  0  0  0
 10 12  1  0  0  0
 12 13  2  0  0  0
  3  4  2  0  0  0
  4 14  1  0  0  0
 14 15  2  0  0  0
 15 16  1  0  0  0
 16 17  2  0  0  0
 17 20  1  0  0  0
 20 21  1  0  0  0
 20 22  2  0  0  0
 20 23  2  0  0  0
 17 18  1  0  0  0
 18 19  2  0  0  0
  4  5  1  0  0  0
  5  1  1  0  0  0
 13  7  1  0  0  0
 19 14  1  0  0  0
  5  6  1  0  0  0
M  END
> <minimizedAffinity>
-3.79185

> <CNNscore>
0.4184285402

> <CNNaffinity>
5.2000703812

> <CNN_VS>
2.1758577824

> <CNNaffinity_variance>
0.3318526745

$$$$
[H]c1c([H])c(-c2c([H])c(SC([H])([H])[H])n([H])c2-c2c([H])c([H])c(S(=O)(=O)C([H])([H])[H])c([H])c2[H])c([H])c([H])c1F


 25 27  0  0  0  0  0  0  0  0999 V2000
  155.4343  138.6501  185.4193 C   0  0  0  0  0  0  0  0  0  0  0  0
  156.1545  138.5278  186.6171 C   0  0  0  0  0  0  0  0  0  0  0  0
  155.4548  137.7007  187.4602 C   0  0  0  0  0  0  0  0  0  0  0  0
  154.3231  137.3228  186.7880 C   0  0  0  0  0  0  0  0  0  0  0  0
  154.3293  137.9023  185.5661 N   0  0  0  0  0  0  0  0  0  0  0  0
  153.6056  137.8049  184.8292 H   0  0  0  0  0  0  0  0  0  0  0  0
  155.8390  137.3029  188.8025 C   0  0  0  0  0  0  0  0  0  0  0  0
  155.6740  138.1665  189.8660 C   0  0  0  0  0  0  0  0  0  0  0  0
  156.0218  137.8361  191.1338 C   0  0  0  0  0  0  0  0  0  0  0  0
  156.5608  136.6024  191.3991 C   0  0  0  0  0  0  0  0  0  0  0  0
  156.8902  136.3214  192.6710 F   0  0  0  0  0  0  0  0  0  0  0  0
  156.7388  135.7119  190.3499 C   0  0  0  0  0  0  0  0  0  0  0  0
  156.3824  136.0594  189.0713 C   0  0  0  0  0  0  0  0  0  0  0  0
  153.3008  136.4471  187.3268 C   0  0  0  0  0  0  0  0  0  0  0  0
  152.4444  136.9195  188.3270 C   0  0  0  0  0  0  0  0  0  0  0  0
  151.4958  136.0317  188.7869 C   0  0  0  0  0  0  0  0  0  0  0  0
  151.3559  134.7466  188.3250 C   0  0  0  0  0  0  0  0  0  0  0  0
  152.2061  134.2904  187.3382 C   0  0  0  0  0  0  0  0  0  0  0  0
  153.1545  135.1433  186.8624 C   0  0  0  0  0  0  0  0  0  0  0  0
  150.1398  133.6517  188.9272 S   0  0  0  0  0  0  0  0  0  0  0  0
  150.8566  132.0235  189.0416 C   0  0  0  0  0  0  0  0  0  0  0  0
  149.0018  133.5904  187.9292 O   0  0  0  0  0  0  0  0  0  0  0  0
  149.5696  134.1228  190.2169 O   0  0  0  0  0  0  0  0  0  0  0  0
  154.6431  140.8848  183.6039 C   0  0  0  0  0  0  0  0  0  0  0  0
  155.8486  139.5920  183.9716 S   0  0  0  0  0  0  0  0  0  0  0  0
 24 25  1  0  0  0
 25  1  1  0  0  0
  1  2  2  0  0  0
  2  3  1  0  0  0
  3  7  1  0  0  0
  7  8  2  0  0  0
  8  9  1  0  0  0
  9 10  2  0  0  0
 10 11  1  0  0  0
 10 12  1  0  0  0
 12 13  2  0  0  0
  3  4  2  0  0  0
  4 14  1  0  0  0
 14 15  2  0  0  0
 15 16  1  0  0  0
 16 17  2  0  0  0
 17 20  1  0  0  0
 20 21  1  0  0  0
 20 22  2  0  0  0
 20 23  2  0  0  0
 17 18  1  0  0  0
 18 19  2  0  0  0
  4  5  1  0  0  0
  5  1  1  0  0  0
 13  7  1  0  0  0
 19 14  1  0  0  0
  5  6  1  0  0  0
M  END
> <minimizedAffinity>
-5.21717

> <CNNscore>
0.3630301058

> <CNNaffinity>
5.2649087906

> <CNN_VS>
1.9113204479

> <CNNaffinity_variance>
0.0756696910

$$$$
[H]c1c([H])c(-c2c([H])c(SC([H])([H])[H])n([H])c2-c2c([H])c([H])c(S(=O)(=O)C([H])([H])[H])c([H])c2[H])c([H])c([H])c1F


 25 27  0  0  0  0  0  0  0  0999 V2000
  155.0440  138.0117  186.4318 C   0  0  0  0  0  0  0  0  0  0  0  0
  154.0019  138.0370  185.4929 C   0  0  0  0  0  0  0  0  0  0  0  0
  154.3804  138.8431  184.4480 C   0  0  0  0  0  0  0  0  0  0  0  0
  155.6355  139.3040  184.7437 C   0  0  0  0  0  0  0  0  0  0  0  0
  156.0159  138.7942  185.9371 N   0  0  0  0  0  0  0  0  0  0  0  0
  156.9158  138.9618  186.4253 H   0  0  0  0  0  0  0  0  0  0  0  0
  153.6028  139.1475  183.2604 C   0  0  0  0  0  0  0  0  0  0  0  0
  153.5713  140.4291  182.7502 C   0  0  0  0  0  0  0  0  0  0  0  0
  152.8565  140.7563  181.6459 C   0  0  0  0  0  0  0  0  0  0  0  0
  152.1270  139.7968  180.9901 C   0  0  0  0  0  0  0  0  0  0  0  0
  151.4344  140.1697  179.9009 F   0  0  0  0  0  0  0  0  0  0  0  0
  152.1391  138.4984  181.4795 C   0  0  0  0  0  0  0  0  0  0  0  0
  152.8670  138.1809  182.5984 C   0  0  0  0  0  0  0  0  0  0  0  0
  156.4039  140.1963  183.8978 C   0  0  0  0  0  0  0  0  0  0  0  0
  157.2449  139.6624  182.9155 C   0  0  0  0  0  0  0  0  0  0  0  0
  157.9400  140.5718  182.1479 C   0  0  0  0  0  0  0  0  0  0  0  0
  157.8494  141.9335  182.2966 C   0  0  0  0  0  0  0  0  0  0  0  0
  157.0171  142.4498  183.2689 C   0  0  0  0  0  0  0  0  0  0  0  0
  156.3162  141.5775  184.0442 C   0  0  0  0  0  0  0  0  0  0  0  0
  158.7408  143.0554  181.3031 S   0  0  0  0  0  0  0  0  0  0  0  0
  158.9681  144.5644  182.2246 C   0  0  0  0  0  0  0  0  0  0  0  0
  157.9164  143.3798  180.0742 O   0  0  0  0  0  0  0  0  0  0  0  0
  160.0230  142.4691  180.8310 O   0  0  0  0  0  0  0  0  0  0  0  0
  156.1518  137.9724  189.2043 C   0  0  0  0  0  0  0  0  0  0  0  0
  155.1166  137.1431  187.9795 S   0  0  0  0  0  0  0  0  0  0  0  0
 24 25  1  0  0  0
 25  1  1  0  0  0
  1  2  2  0  0  0
  2  3  1  0  0  0
  3  7  1  0  0  0
  7  8  2  0  0  0
  8  9  1  0  0  0
  9 10  2  0  0  0
 10 11  1  0  0  0
 10 12  1  0  0  0
 12 13  2  0  0  0
  3  4  2  0  0  0
  4 14  1  0  0  0
 14 15  2  0  0  0
 15 16  1  0  0  0
 16 17  2  0  0  0
 17 20  1  0  0  0
 20 21  1  0  0  0
 20 22  2  0  0  0
 20 23  2  0  0  0
 17 18  1  0  0  0
 18 19  2  0  0  0
  4  5  1  0  0  0
  5  1  1  0  0  0
 13  7  1  0  0  0
 19 14  1  0  0  0
  5  6  1  0  0  0
M  END
> <minimizedAffinity>
-7.29835

> <CNNscore>
0.3602089882

> <CNNaffinity>
5.9231324196

> <CNN_VS>
2.1335654259

> <CNNaffinity_variance>
0.0614668541

$$$$
[H]OC([H])([H])C([H])([H])N([H])C(=O)[C@@]1([H])O[C@@]([H])(n2c([H])nc3c(N([H])C([H])([H])c4c([H])c([H])c([H])c([H])c4C([H])([H])[H])nc([H])nc32)[C@]([H])(O[H])[C@]1([H])O[H]


 36 39  0  0  0  0  0  0  0  0999 V2000
  155.8844  141.6725  183.7390 C   0  0  0  0  0  0  0  0  0  0  0  0
  155.3326  142.6903  183.0421 N   0  0  0  0  0  0  0  0  0  0  0  0
  154.2329  142.5313  182.2930 C   0  0  0  0  0  0  0  0  0  0  0  0
  153.6613  141.3211  182.2331 N   0  0  0  0  0  0  0  0  0  0  0  0
  154.1592  140.2774  182.8986 C   0  0  0  0  0  0  0  0  0  0  0  0
  155.2765  140.4338  183.6613 C   0  0  0  0  0  0  0  0  0  0  0  0
  155.5668  139.2438  184.2197 N   0  0  0  0  0  0  0  0  0  0  0  0
  154.6568  138.3368  183.8265 C   0  0  0  0  0  0  0  0  0  0  0  0
  153.7977  138.9756  183.0179 N   0  0  0  0  0  0  0  0  0  0  0  0
  152.6745  138.3685  182.3820 C   0  0  0  0  0  0  0  0  0  0  0  0
  151.4913  139.0828  182.5531 O   0  0  0  0  0  0  0  0  0  0  0  0
  150.5126  138.1615  182.1338 C   0  0  0  0  0  0  0  0  0  0  0  0
  150.8958  136.9593  182.9893 C   0  0  0  0  0  0  0  0  0  0  0  0
  150.2990  135.7969  182.5770 O   0  0  0  0  0  0  0  0  0  0  0  0
  152.4047  136.9558  182.7754 C   0  0  0  0  0  0  0  0  0  0  0  0
  152.6483  136.0623  181.7190 O   0  0  0  0  0  0  0  0  0  0  0  0
  150.2832  135.1565  183.3444 H   0  0  0  0  0  0  0  0  0  0  0  0
  153.3480  135.4016  181.9732 H   0  0  0  0  0  0  0  0  0  0  0  0
  149.1584  138.6319  182.3739 C   0  0  0  0  0  0  0  0  0  0  0  0
  148.6519  139.5140  181.6463 O   0  0  0  0  0  0  0  0  0  0  0  0
  148.3865  138.1021  183.4344 N   0  0  0  0  0  0  0  0  0  0  0  0
  148.7868  137.3686  184.0515 H   0  0  0  0  0  0  0  0  0  0  0  0
  147.0287  138.5553  183.6965 C   0  0  0  0  0  0  0  0  0  0  0  0
  147.0114  139.4810  184.8667 C   0  0  0  0  0  0  0  0  0  0  0  0
  147.4883  138.8092  185.9939 O   0  0  0  0  0  0  0  0  0  0  0  0
  147.9149  139.4405  186.6472 H   0  0  0  0  0  0  0  0  0  0  0  0
  157.0604  141.8605  184.5119 N   0  0  0  0  0  0  0  0  0  0  0  0
  156.9371  142.1252  185.5202 H   0  0  0  0  0  0  0  0  0  0  0  0
  158.3793  141.7074  183.9828 C   0  0  0  0  0  0  0  0  0  0  0  0
  158.5571  140.0893  181.6571 C   0  0  0  0  0  0  0  0  0  0  0  0
  158.7147  141.5445  181.5366 C   0  0  0  0  0  0  0  0  0  0  0  0
  158.9531  142.1039  180.3183 C   0  0  0  0  0  0  0  0  0  0  0  0
  159.1055  143.4674  180.1728 C   0  0  0  0  0  0  0  0  0  0  0  0
  159.0188  144.2978  181.2688 C   0  0  0  0  0  0  0  0  0  0  0  0
  158.7754  143.6963  182.4945 C   0  0  0  0  0  0  0  0  0  0  0  0
  158.6178  142.3449  182.6783 C   0  0  0  0  0  0  0  0  0  0  0  0
 30 31  1  0  0  0
 31 32  2  0  0  0
 32 33  1  0  0  0
 33 34  2  0  0  0
 34 35  1  0  0  0
 35 36  2  0  0  0
 36 29  1  0  0  0
 29 27  1  0  0  0
 27  1  1  0  0  0
  1  2  2  0  0  0
  2  3  1  0  0  0
  3  4  2  0  0  0
  4  5  1  0  0  0
  5  6  2  0  0  0
  6  7  1  0  0  0
  7  8  2  0  0  0
  8  9  1  0  0  0
  9 10  1  0  0  0
 10 11  1  0  0  0
 11 12  1  0  0  0
 12 19  1  0  0  0
 19 20  2  0  0  0
 19 21  1  0  0  0
 21 23  1  0  0  0
 23 24  1  0  0  0
 24 25  1  0  0  0
 12 13  1  0  0  0
 13 14  1  0  0  0
 13 15  1  0  0  0
 15 16  1  0  0  0
 36 31  1  0  0  0
  6  1  1  0  0  0
 15 10  1  0  0  0
  9  5  1  0  0  0
 27 28  1  0  0  0
 21 22  1  0  0  0
 25 26  1  0  0  0
 14 17  1  0  0  0
 16 18  1  0  0  0
M  END
> <minimizedAffinity>
-7.74389

> <CNNscore>
0.4833497107

> <CNNaffinity>
5.8481721878

> <CNN_VS>
2.8267123699

> <CNNaffinity_variance>
0.0694313571

$$$$
[H]OC([H])([H])C([H])([H])N([H])C(=O)[C@@]1([H])O[C@@]([H])(n2c([H])nc3c(N([H])C([H])([H])c4c([H])c([H])c([H])c([H])c4C([H])([H])[H])nc([H])nc32)[C@]([H])(O[H])[C@]1([H])O[H]


 36 39  0  0  0  0  0  0  0  0999 V2000
  155.7729  139.4248  184.4208 C   0  0  0  0  0  0  0  0  0  0  0  0
  154.8331  139.5766  183.4618 N   0  0  0  0  0  0  0  0  0  0  0  0
  153.5962  139.0762  183.5864 C   0  0  0  0  0  0  0  0  0  0  0  0
  153.2811  138.4020  184.7005 N   0  0  0  0  0  0  0  0  0  0  0  0
  154.1657  138.2192  185.6825 C   0  0  0  0  0  0  0  0  0  0  0  0
  155.4239  138.7258  185.5607 C   0  0  0  0  0  0  0  0  0  0  0  0
  156.1088  138.4060  186.6746 N   0  0  0  0  0  0  0  0  0  0  0  0
  155.3108  137.7072  187.4994 C   0  0  0  0  0  0  0  0  0  0  0  0
  154.1225  137.5961  186.8865 N   0  0  0  0  0  0  0  0  0  0  0  0
  152.9883  136.9212  187.4273 C   0  0  0  0  0  0  0  0  0  0  0  0
  152.8662  137.0666  188.8070 O   0  0  0  0  0  0  0  0  0  0  0  0
  151.9064  136.0900  189.1353 C   0  0  0  0  0  0  0  0  0  0  0  0
  152.5343  134.8680  188.4745 C   0  0  0  0  0  0  0  0  0  0  0  0
  151.6672  133.8125  188.3679 O   0  0  0  0  0  0  0  0  0  0  0  0
  152.9075  135.4638  187.1224 C   0  0  0  0  0  0  0  0  0  0  0  0
  151.8412  135.1683  186.2567 O   0  0  0  0  0  0  0  0  0  0  0  0
  152.1987  132.9703  188.2808 H   0  0  0  0  0  0  0  0  0  0  0  0
  152.1760  134.7451  185.4203 H   0  0  0  0  0  0  0  0  0  0  0  0
  151.7247  135.9406  190.5697 C   0  0  0  0  0  0  0  0  0  0  0  0
  152.1117  136.8317  191.3571 O   0  0  0  0  0  0  0  0  0  0  0  0
  151.1070  134.7854  191.1036 N   0  0  0  0  0  0  0  0  0  0  0  0
  150.7777  134.0324  190.4682 H   0  0  0  0  0  0  0  0  0  0  0  0
  150.9129  134.6109  192.5352 C   0  0  0  0  0  0  0  0  0  0  0  0
  149.4658  134.7342  192.8777 C   0  0  0  0  0  0  0  0  0  0  0  0
  149.3158  135.6405  193.9291 O   0  0  0  0  0  0  0  0  0  0  0  0
  148.4208  136.0938  193.9012 H   0  0  0  0  0  0  0  0  0  0  0  0
  157.0826  139.9486  184.2589 N   0  0  0  0  0  0  0  0  0  0  0  0
  157.8496  139.2678  184.0350 H   0  0  0  0  0  0  0  0  0  0  0  0
  157.3926  141.3381  184.3862 C   0  0  0  0  0  0  0  0  0  0  0  0
  155.5927  143.1912  183.2094 C   0  0  0  0  0  0  0  0  0  0  0  0
  156.8813  142.9243  182.5571 C   0  0  0  0  0  0  0  0  0  0  0  0
  157.1984  143.5569  181.3938 C   0  0  0  0  0  0  0  0  0  0  0  0
  158.4008  143.3275  180.7575 C   0  0  0  0  0  0  0  0  0  0  0  0
  159.3134  142.4445  181.2923 C   0  0  0  0  0  0  0  0  0  0  0  0
  158.9596  141.8171  182.4775 C   0  0  0  0  0  0  0  0  0  0  0  0
  157.7739  142.0201  183.1393 C   0  0  0  0  0  0  0  0  0  0  0  0
 30 31  1  0  0  0
 31 32  2  0  0  0
 32 33  1  0  0  0
 33 34  2  0  0  0
 34 35  1  0  0  0
 35 36  2  0  0  0
 36 29  1  0  0  0
 29 27  1  0  0  0
 27  1  1  0  0  0
  1  2  2  0  0  0
  2  3  1  0  0  0
  3  4  2  0  0  0
  4  5  1  0  0  0
  5  6  2  0  0  0
  6  7  1  0  0  0
  7  8  2  0  0  0
  8  9  1  0  0  0
  9 10  1  0  0  0
 10 11  1  0  0  0
 11 12  1  0  0  0
 12 19  1  0  0  0
 19 20  2  0  0  0
 19 21  1  0  0  0
 21 23  1  0  0  0
 23 24  1  0  0  0
 24 25  1  0  0  0
 12 13  1  0  0  0
 13 14  1  0  0  0
 13 15  1  0  0  0
 15 16  1  0  0  0
 36 31  1  0  0  0
  6  1  1  0  0  0
 15 10  1  0  0  0
  9  5  1  0  0  0
 27 28  1  0  0  0
 21 22  1  0  0  0
 25 26  1  0  0  0
 14 17  1  0  0  0
 16 18  1  0  0  0
M  END
> <minimizedAffinity>
-6.47269

> <CNNscore>
0.4334034026

> <CNNaffinity>
5.5487875938

> <CNN_VS>
2.4048633575

> <CNNaffinity_variance>
0.4027714133

$$$$
[H]OC([H])([H])C([H])([H])N([H])C(=O)[C@@]1([H])O[C@@]([H])(n2c([H])nc3c(N([H])C([H])([H])c4c([H])c([H])c([H])c([H])c4C([H])([H])[H])nc([H])nc32)[C@]([H])(O[H])[C@]1([H])O[H]


 36 39  0  0  0  0  0  0  0  0999 V2000
  155.6760  140.5956  183.9937 C   0  0  0  0  0  0  0  0  0  0  0  0
  155.8969  139.5739  184.8501 N   0  0  0  0  0  0  0  0  0  0  0  0
  155.1617  138.4536  184.8323 C   0  0  0  0  0  0  0  0  0  0  0  0
  154.1736  138.3433  183.9342 N   0  0  0  0  0  0  0  0  0  0  0  0
  153.9072  139.3178  183.0627 C   0  0  0  0  0  0  0  0  0  0  0  0
  154.6513  140.4582  183.0766 C   0  0  0  0  0  0  0  0  0  0  0  0
  154.1837  141.2699  182.1099 N   0  0  0  0  0  0  0  0  0  0  0  0
  153.1588  140.6675  181.4838 C   0  0  0  0  0  0  0  0  0  0  0  0
  152.9942  139.4728  182.0716 N   0  0  0  0  0  0  0  0  0  0  0  0
  152.0039  138.5146  181.7033 C   0  0  0  0  0  0  0  0  0  0  0  0
  151.3188  138.8498  180.5380 O   0  0  0  0  0  0  0  0  0  0  0  0
  150.2256  137.9627  180.5582 C   0  0  0  0  0  0  0  0  0  0  0  0
  149.6847  138.2397  181.9563 C   0  0  0  0  0  0  0  0  0  0  0  0
  148.7868  137.2952  182.3796 O   0  0  0  0  0  0  0  0  0  0  0  0
  150.9853  138.2148  182.7502 C   0  0  0  0  0  0  0  0  0  0  0  0
  151.1152  136.9074  183.2480 O   0  0  0  0  0  0  0  0  0  0  0  0
  148.2151  137.6962  183.0949 H   0  0  0  0  0  0  0  0  0  0  0  0
  151.2890  136.9214  184.2279 H   0  0  0  0  0  0  0  0  0  0  0  0
  149.2628  138.2333  179.5033 C   0  0  0  0  0  0  0  0  0  0  0  0
  149.5511  139.0012  178.5593 O   0  0  0  0  0  0  0  0  0  0  0  0
  147.9814  137.6342  179.5229 N   0  0  0  0  0  0  0  0  0  0  0  0
  147.7203  136.9929  180.2974 H   0  0  0  0  0  0  0  0  0  0  0  0
  146.9993  137.8881  178.4796 C   0  0  0  0  0  0  0  0  0  0  0  0
  146.8147  136.6695  177.6384 C   0  0  0  0  0  0  0  0  0  0  0  0
  147.1251  135.5364  178.3927 O   0  0  0  0  0  0  0  0  0  0  0  0
  146.6165  134.7311  178.0761 H   0  0  0  0  0  0  0  0  0  0  0  0
  156.4565  141.7805  184.0431 N   0  0  0  0  0  0  0  0  0  0  0  0
  155.9564  142.6784  184.2569 H   0  0  0  0  0  0  0  0  0  0  0  0
  157.8678  141.7999  183.8176 C   0  0  0  0  0  0  0  0  0  0  0  0
  158.4734  140.0695  181.6502 C   0  0  0  0  0  0  0  0  0  0  0  0
  158.6046  141.5215  181.4718 C   0  0  0  0  0  0  0  0  0  0  0  0
  159.0224  142.0247  180.2776 C   0  0  0  0  0  0  0  0  0  0  0  0
  159.1553  143.3836  180.0791 C   0  0  0  0  0  0  0  0  0  0  0  0
  158.8649  144.2666  181.0962 C   0  0  0  0  0  0  0  0  0  0  0  0
  158.4421  143.7216  182.2993 C   0  0  0  0  0  0  0  0  0  0  0  0
  158.2975  142.3766  182.5338 C   0  0  0  0  0  0  0  0  0  0  0  0
 30 31  1  0  0  0
 31 32  2  0  0  0
 32 33  1  0  0  0
 33 34  2  0  0  0
 34 35  1  0  0  0
 35 36  2  0  0  0
 36 29  1  0  0  0
 29 27  1  0  0  0
 27  1  1  0  0  0
  1  2  2  0  0  0
  2  3  1  0  0  0
  3  4  2  0  0  0
  4  5  1  0  0  0
  5  6  2  0  0  0
  6  7  1  0  0  0
  7  8  2  0  0  0
  8  9  1  0  0  0
  9 10  1  0  0  0
 10 11  1  0  0  0
 11 12  1  0  0  0
 12 19  1  0  0  0
 19 20  2  0  0  0
 19 21  1  0  0  0
 21 23  1  0  0  0
 23 24  1  0  0  0
 24 25  1  0  0  0
 12 13  1  0  0  0
 13 14  1  0  0  0
 13 15  1  0  0  0
 15 16  1  0  0  0
 36 31  1  0  0  0
  6  1  1  0  0  0
 15 10  1  0  0  0
  9  5  1  0  0  0
 27 28  1  0  0  0
 21 22  1  0  0  0
 25 26  1  0  0  0
 14 17  1  0  0  0
 16 18  1  0  0  0
M  END
> <minimizedAffinity>
-7.42625

> <CNNscore>
0.4286459982

> <CNNaffinity>
5.6025609970

> <CNN_VS>
2.4015152454

> <CNNaffinity_variance>
0.0372208469

$$$$
[H]OC([H])([H])C([H])([H])N([H])C(=O)[C@@]1([H])O[C@@]([H])(n2c([H])nc3c(N([H])C([H])([H])c4c([H])c([H])c([H])c([H])c4C([H])([H])[H])nc([H])nc32)[C@]([H])(O[H])[C@]1([H])O[H]


 36 39  0  0  0  0  0  0  0  0999 V2000
  156.3633  140.5704  182.8076 C   0  0  0  0  0  0  0  0  0  0  0  0
  155.2608  140.9228  182.1102 N   0  0  0  0  0  0  0  0  0  0  0  0
  154.0230  140.6335  182.5343 C   0  0  0  0  0  0  0  0  0  0  0  0
  153.8740  139.9719  183.6898 N   0  0  0  0  0  0  0  0  0  0  0  0
  154.9239  139.5973  184.4230 C   0  0  0  0  0  0  0  0  0  0  0  0
  156.1838  139.8889  183.9964 C   0  0  0  0  0  0  0  0  0  0  0  0
  157.0511  139.4072  184.9062 N   0  0  0  0  0  0  0  0  0  0  0  0
  156.3669  138.8163  185.9002 C   0  0  0  0  0  0  0  0  0  0  0  0
  155.0650  138.9359  185.5988 N   0  0  0  0  0  0  0  0  0  0  0  0
  153.9954  138.4383  186.4004 C   0  0  0  0  0  0  0  0  0  0  0  0
  154.3042  138.3800  187.7572 O   0  0  0  0  0  0  0  0  0  0  0  0
  153.2610  137.5894  188.2762 C   0  0  0  0  0  0  0  0  0  0  0  0
  153.3513  136.3860  187.3446 C   0  0  0  0  0  0  0  0  0  0  0  0
  152.2527  135.5703  187.4160 O   0  0  0  0  0  0  0  0  0  0  0  0
  153.4691  137.1008  186.0038 C   0  0  0  0  0  0  0  0  0  0  0  0
  152.1649  137.1831  185.4880 O   0  0  0  0  0  0  0  0  0  0  0  0
  152.5094  134.6601  187.0918 H   0  0  0  0  0  0  0  0  0  0  0  0
  152.1353  136.8402  184.5541 H   0  0  0  0  0  0  0  0  0  0  0  0
  153.4558  137.2507  189.6763 C   0  0  0  0  0  0  0  0  0  0  0  0
  154.4813  137.6258  190.2858 O   0  0  0  0  0  0  0  0  0  0  0  0
  152.4902  136.4908  190.3772 N   0  0  0  0  0  0  0  0  0  0  0  0
  151.6306  136.1686  189.8910 H   0  0  0  0  0  0  0  0  0  0  0  0
  152.6606  136.1382  191.7787 C   0  0  0  0  0  0  0  0  0  0  0  0
  151.9605  137.1287  192.6479 C   0  0  0  0  0  0  0  0  0  0  0  0
  150.6123  137.1859  192.2896 O   0  0  0  0  0  0  0  0  0  0  0  0
  150.0345  137.4500  193.0665 H   0  0  0  0  0  0  0  0  0  0  0  0
  157.6656  140.8722  182.3295 N   0  0  0  0  0  0  0  0  0  0  0  0
  158.2966  140.0633  182.1069 H   0  0  0  0  0  0  0  0  0  0  0  0
  158.1429  142.2065  182.1429 C   0  0  0  0  0  0  0  0  0  0  0  0
  158.9516  144.9276  182.1225 C   0  0  0  0  0  0  0  0  0  0  0  0
  159.5290  144.0114  183.1147 C   0  0  0  0  0  0  0  0  0  0  0  0
  160.4502  144.4685  184.0070 C   0  0  0  0  0  0  0  0  0  0  0  0
  161.0104  143.6326  184.9510 C   0  0  0  0  0  0  0  0  0  0  0  0
  160.6449  142.3054  185.0092 C   0  0  0  0  0  0  0  0  0  0  0  0
  159.7047  141.8721  184.0863 C   0  0  0  0  0  0  0  0  0  0  0  0
  159.1254  142.6734  183.1338 C   0  0  0  0  0  0  0  0  0  0  0  0
 30 31  1  0  0  0
 31 32  2  0  0  0
 32 33  1  0  0  0
 33 34  2  0  0  0
 34 35  1  0  0  0
 35 36  2  0  0  0
 36 29  1  0  0  0
 29 27  1  0  0  0
 27  1  1  0  0  0
  1  2  2  0  0  0
  2  3  1  0  0  0
  3  4  2  0  0  0
  4  5  1  0  0  0
  5  6  2  0  0  0
  6  7  1  0  0  0
  7  8  2  0  0  0
  8  9  1  0  0  0
  9 10  1  0  0  0
 10 11  1  0  0  0
 11 12  1  0  0  0
 12 19  1  0  0  0
 19 20  2  0  0  0
 19 21  1  0  0  0
 21 23  1  0  0  0
 23 24  1  0  0  0
 24 25  1  0  0  0
 12 13  1  0  0  0
 13 14  1  0  0  0
 13 15  1  0  0  0
 15 16  1  0  0  0
 36 31  1  0  0  0
  6  1  1  0  0  0
 15 10  1  0  0  0
  9  5  1  0  0  0
 27 28  1  0  0  0
 21 22  1  0  0  0
 25 26  1  0  0  0
 14 17  1  0  0  0
 16 18  1  0  0  0
M  END
> <minimizedAffinity>
-7.60290

> <CNNscore>
0.4022226334

> <CNNaffinity>
5.7345552444

> <CNN_VS>
2.3065679073

> <CNNaffinity_variance>
0.1775315255

$$$$
[H]OC([H])([H])C([H])([H])N([H])C(=O)[C@@]1([H])O[C@@]([H])(n2c([H])nc3c(N([H])C([H])([H])c4c([H])c([H])c([H])c([H])c4C([H])([H])[H])nc([H])nc32)[C@]([H])(O[H])[C@]1([H])O[H]


 36 39  0  0  0  0  0  0  0  0999 V2000
  155.0839  141.2595  182.6486 C   0  0  0  0  0  0  0  0  0  0  0  0
  154.0562  141.2441  181.7713 N   0  0  0  0  0  0  0  0  0  0  0  0
  153.1019  140.3039  181.8034 C   0  0  0  0  0  0  0  0  0  0  0  0
  153.1695  139.3462  182.7379 N   0  0  0  0  0  0  0  0  0  0  0  0
  154.1595  139.3082  183.6316 C   0  0  0  0  0  0  0  0  0  0  0  0
  155.1317  140.2613  183.6032 C   0  0  0  0  0  0  0  0  0  0  0  0
  155.9996  139.9976  184.5978 N   0  0  0  0  0  0  0  0  0  0  0  0
  155.5975  138.8972  185.2557 C   0  0  0  0  0  0  0  0  0  0  0  0
  154.4705  138.4797  184.6595 N   0  0  0  0  0  0  0  0  0  0  0  0
  153.7181  137.3339  185.0539 C   0  0  0  0  0  0  0  0  0  0  0  0
  152.4105  137.6347  185.4270 O   0  0  0  0  0  0  0  0  0  0  0  0
  151.9894  136.4473  186.0559 C   0  0  0  0  0  0  0  0  0  0  0  0
  153.1238  136.2605  187.0571 C   0  0  0  0  0  0  0  0  0  0  0  0
  153.1442  135.0093  187.6153 O   0  0  0  0  0  0  0  0  0  0  0  0
  154.3200  136.5211  186.1495 C   0  0  0  0  0  0  0  0  0  0  0  0
  154.7473  135.2626  185.6939 O   0  0  0  0  0  0  0  0  0  0  0  0
  153.6377  135.0552  188.4835 H   0  0  0  0  0  0  0  0  0  0  0  0
  155.7247  135.1492  185.8436 H   0  0  0  0  0  0  0  0  0  0  0  0
  150.6835  136.5752  186.6813 C   0  0  0  0  0  0  0  0  0  0  0  0
  150.4810  136.1266  187.8309 O   0  0  0  0  0  0  0  0  0  0  0  0
  149.6162  137.2094  186.0031 N   0  0  0  0  0  0  0  0  0  0  0  0
  149.7617  137.5896  185.0473 H   0  0  0  0  0  0  0  0  0  0  0  0
  148.2995  137.3507  186.6063 C   0  0  0  0  0  0  0  0  0  0  0  0
  147.4229  138.1908  185.7389 C   0  0  0  0  0  0  0  0  0  0  0  0
  147.7334  137.9514  184.3989 O   0  0  0  0  0  0  0  0  0  0  0  0
  146.9409  138.1057  183.8028 H   0  0  0  0  0  0  0  0  0  0  0  0
  156.0934  142.2557  182.5840 N   0  0  0  0  0  0  0  0  0  0  0  0
  155.9066  143.1637  183.0765 H   0  0  0  0  0  0  0  0  0  0  0  0
  157.3293  142.0758  181.8888 C   0  0  0  0  0  0  0  0  0  0  0  0
  158.6831  139.6399  182.4292 C   0  0  0  0  0  0  0  0  0  0  0  0
  159.1964  140.8919  183.0003 C   0  0  0  0  0  0  0  0  0  0  0  0
  160.3065  140.8749  183.7884 C   0  0  0  0  0  0  0  0  0  0  0  0
  160.8129  142.0341  184.3391 C   0  0  0  0  0  0  0  0  0  0  0  0
  160.1984  143.2439  184.0998 C   0  0  0  0  0  0  0  0  0  0  0  0
  159.0703  143.2264  183.2934 C   0  0  0  0  0  0  0  0  0  0  0  0
  158.5379  142.0943  182.7279 C   0  0  0  0  0  0  0  0  0  0  0  0
 30 31  1  0  0  0
 31 32  2  0  0  0
 32 33  1  0  0  0
 33 34  2  0  0  0
 34 35  1  0  0  0
 35 36  2  0  0  0
 36 29  1  0  0  0
 29 27  1  0  0  0
 27  1  1  0  0  0
  1  2  2  0  0  0
  2  3  1  0  0  0
  3  4  2  0  0  0
  4  5  1  0  0  0
  5  6  2  0  0  0
  6  7  1  0  0  0
  7  8  2  0  0  0
  8  9  1  0  0  0
  9 10  1  0  0  0
 10 11  1  0  0  0
 11 12  1  0  0  0
 12 19  1  0  0  0
 19 20  2  0  0  0
 19 21  1  0  0  0
 21 23  1  0  0  0
 23 24  1  0  0  0
 24 25  1  0  0  0
 12 13  1  0  0  0
 13 14  1  0  0  0
 13 15  1  0  0  0
 15 16  1  0  0  0
 36 31  1  0  0  0
  6  1  1  0  0  0
 15 10  1  0  0  0
  9  5  1  0  0  0
 27 28  1  0  0  0
 21 22  1  0  0  0
 25 26  1  0  0  0
 14 17  1  0  0  0
 16 18  1  0  0  0
M  END
> <minimizedAffinity>
-6.66513

> <CNNscore>
0.3999242485

> <CNNaffinity>
5.6883144379

> <CNN_VS>
2.2748949528

> <CNNaffinity_variance>
0.0911616385

$$$$
[H]OC([H])([H])C([H])([H])N([H])C(=O)[C@@]1([H])O[C@@]([H])(n2c([H])nc3c(N([H])C([H])([H])c4c([H])c([H])c([H])c([H])c4C([H])([H])[H])nc([H])nc32)[C@]([H])(O[H])[C@]1([H])O[H]


 36 39  0  0  0  0  0  0  0  0999 V2000
  156.2389  140.1080  183.5872 C   0  0  0  0  0  0  0  0  0  0  0  0
  155.3966  140.4966  182.6045 N   0  0  0  0  0  0  0  0  0  0  0  0
  154.0965  140.1720  182.6063 C   0  0  0  0  0  0  0  0  0  0  0  0
  153.6155  139.4365  183.6178 N   0  0  0  0  0  0  0  0  0  0  0  0
  154.3973  139.0230  184.6168 C   0  0  0  0  0  0  0  0  0  0  0  0
  155.7191  139.3503  184.6196 C   0  0  0  0  0  0  0  0  0  0  0  0
  156.2756  138.8172  185.7233 N   0  0  0  0  0  0  0  0  0  0  0  0
  155.3338  138.1589  186.4198 C   0  0  0  0  0  0  0  0  0  0  0  0
  154.1860  138.2885  185.7373 N   0  0  0  0  0  0  0  0  0  0  0  0
  152.9347  137.7330  186.1373 C   0  0  0  0  0  0  0  0  0  0  0  0
  152.8753  137.4286  187.4950 O   0  0  0  0  0  0  0  0  0  0  0  0
  151.7186  136.6304  187.5809 C   0  0  0  0  0  0  0  0  0  0  0  0
  152.0287  135.5968  186.5040 C   0  0  0  0  0  0  0  0  0  0  0  0
  150.9355  134.8525  186.1459 O   0  0  0  0  0  0  0  0  0  0  0  0
  152.5072  136.5171  185.3874 C   0  0  0  0  0  0  0  0  0  0  0  0
  151.3858  136.7677  184.5791 O   0  0  0  0  0  0  0  0  0  0  0  0
  151.2519  133.9949  185.7410 H   0  0  0  0  0  0  0  0  0  0  0  0
  151.5962  136.5888  183.6228 H   0  0  0  0  0  0  0  0  0  0  0  0
  151.5328  136.0502  188.9006 C   0  0  0  0  0  0  0  0  0  0  0  0
  150.7152  135.1208  189.0787 O   0  0  0  0  0  0  0  0  0  0  0  0
  152.2726  136.5243  190.0093 N   0  0  0  0  0  0  0  0  0  0  0  0
  152.9573  137.2955  189.8847 H   0  0  0  0  0  0  0  0  0  0  0  0
  152.1059  135.9611  191.3407 C   0  0  0  0  0  0  0  0  0  0  0  0
  152.3664  137.0027  192.3770 C   0  0  0  0  0  0  0  0  0  0  0  0
  151.1497  137.5001  192.8477 O   0  0  0  0  0  0  0  0  0  0  0  0
  151.2257  137.8284  193.7931 H   0  0  0  0  0  0  0  0  0  0  0  0
  157.6167  140.4489  183.5548 N   0  0  0  0  0  0  0  0  0  0  0  0
  158.1251  140.4882  184.4723 H   0  0  0  0  0  0  0  0  0  0  0  0
  158.3254  140.7354  182.3470 C   0  0  0  0  0  0  0  0  0  0  0  0
  158.2211  141.7617  179.7023 C   0  0  0  0  0  0  0  0  0  0  0  0
  158.5895  142.6552  180.8082 C   0  0  0  0  0  0  0  0  0  0  0  0
  158.8861  143.9603  180.5580 C   0  0  0  0  0  0  0  0  0  0  0  0
  159.2354  144.8242  181.5754 C   0  0  0  0  0  0  0  0  0  0  0  0
  159.2916  144.3782  182.8779 C   0  0  0  0  0  0  0  0  0  0  0  0
  158.9840  143.0440  183.0984 C   0  0  0  0  0  0  0  0  0  0  0  0
  158.6320  142.1554  182.1128 C   0  0  0  0  0  0  0  0  0  0  0  0
 30 31  1  0  0  0
 31 32  2  0  0  0
 32 33  1  0  0  0
 33 34  2  0  0  0
 34 35  1  0  0  0
 35 36  2  0  0  0
 36 29  1  0  0  0
 29 27  1  0  0  0
 27  1  1  0  0  0
  1  2  2  0  0  0
  2  3  1  0  0  0
  3  4  2  0  0  0
  4  5  1  0  0  0
  5  6  2  0  0  0
  6  7  1  0  0  0
  7  8  2  0  0  0
  8  9  1  0  0  0
  9 10  1  0  0  0
 10 11  1  0  0  0
 11 12  1  0  0  0
 12 19  1  0  0  0
 19 20  2  0  0  0
 19 21  1  0  0  0
 21 23  1  0  0  0
 23 24  1  0  0  0
 24 25  1  0  0  0
 12 13  1  0  0  0
 13 14  1  0  0  0
 13 15  1  0  0  0
 15 16  1  0  0  0
 36 31  1  0  0  0
  6  1  1  0  0  0
 15 10  1  0  0  0
  9  5  1  0  0  0
 27 28  1  0  0  0
 21 22  1  0  0  0
 25 26  1  0  0  0
 14 17  1  0  0  0
 16 18  1  0  0  0
M  END
> <minimizedAffinity>
-7.13740

> <CNNscore>
0.3906307518

> <CNNaffinity>
5.5657296181

> <CNN_VS>
2.1741452217

> <CNNaffinity_variance>
0.2741660774

$$$$
[H]OC([H])([H])C([H])([H])N([H])C(=O)[C@@]1([H])O[C@@]([H])(n2c([H])nc3c(N([H])C([H])([H])c4c([H])c([H])c([H])c([H])c4C([H])([H])[H])nc([H])nc32)[C@]([H])(O[H])[C@]1([H])O[H]


 36 39  0  0  0  0  0  0  0  0999 V2000
  156.3235  139.8737  184.4741 C   0  0  0  0  0  0  0  0  0  0  0  0
  155.6074  140.2373  183.3874 N   0  0  0  0  0  0  0  0  0  0  0  0
  154.3658  139.7850  183.1643 C   0  0  0  0  0  0  0  0  0  0  0  0
  153.8161  138.9431  184.0498 N   0  0  0  0  0  0  0  0  0  0  0  0
  154.4730  138.5477  185.1418 C   0  0  0  0  0  0  0  0  0  0  0  0
  155.7348  139.0045  185.3730 C   0  0  0  0  0  0  0  0  0  0  0  0
  156.1672  138.4614  186.5263 N   0  0  0  0  0  0  0  0  0  0  0  0
  155.2056  137.6699  187.0305 C   0  0  0  0  0  0  0  0  0  0  0  0
  154.1708  137.7269  186.1784 N   0  0  0  0  0  0  0  0  0  0  0  0
  152.9404  137.0251  186.3451 C   0  0  0  0  0  0  0  0  0  0  0  0
  152.6154  136.7910  187.6790 O   0  0  0  0  0  0  0  0  0  0  0  0
  151.5770  135.8452  187.5810 C   0  0  0  0  0  0  0  0  0  0  0  0
  152.2468  134.8070  186.6879 C   0  0  0  0  0  0  0  0  0  0  0  0
  151.3629  133.8988  186.1672 O   0  0  0  0  0  0  0  0  0  0  0  0
  152.8463  135.7219  185.6267 C   0  0  0  0  0  0  0  0  0  0  0  0
  151.9131  135.7685  184.5775 O   0  0  0  0  0  0  0  0  0  0  0  0
  151.8659  133.0727  185.9142 H   0  0  0  0  0  0  0  0  0  0  0  0
  152.3536  135.5681  183.7077 H   0  0  0  0  0  0  0  0  0  0  0  0
  151.1726  135.3186  188.8741 C   0  0  0  0  0  0  0  0  0  0  0  0
  150.2710  134.4561  188.9571 O   0  0  0  0  0  0  0  0  0  0  0  0
  151.7903  135.7705  190.0639 N   0  0  0  0  0  0  0  0  0  0  0  0
  152.5417  136.4865  190.0188 H   0  0  0  0  0  0  0  0  0  0  0  0
  151.4046  135.2599  191.3708 C   0  0  0  0  0  0  0  0  0  0  0  0
  150.2775  136.0647  191.9262 C   0  0  0  0  0  0  0  0  0  0  0  0
  150.7635  137.2970  192.3673 O   0  0  0  0  0  0  0  0  0  0  0  0
  150.0593  138.0104  192.3195 H   0  0  0  0  0  0  0  0  0  0  0  0
  157.6443  140.3519  184.6803 N   0  0  0  0  0  0  0  0  0  0  0  0
  158.4025  139.6361  184.8021 H   0  0  0  0  0  0  0  0  0  0  0  0
  157.9768  141.7412  184.7279 C   0  0  0  0  0  0  0  0  0  0  0  0
  160.1055  141.6543  182.8518 C   0  0  0  0  0  0  0  0  0  0  0  0
  160.3913  141.9982  184.2508 C   0  0  0  0  0  0  0  0  0  0  0  0
  161.6694  142.2623  184.6386 C   0  0  0  0  0  0  0  0  0  0  0  0
  161.9696  142.5884  185.9452 C   0  0  0  0  0  0  0  0  0  0  0  0
  160.9713  142.6534  186.8926 C   0  0  0  0  0  0  0  0  0  0  0  0
  159.6810  142.3788  186.4649 C   0  0  0  0  0  0  0  0  0  0  0  0
  159.3439  142.0516  185.1748 C   0  0  0  0  0  0  0  0  0  0  0  0
 30 31  1  0  0  0
 31 32  2  0  0  0
 32 33  1  0  0  0
 33 34  2  0  0  0
 34 35  1  0  0  0
 35 36  2  0  0  0
 36 29  1  0  0  0
 29 27  1  0  0  0
 27  1  1  0  0  0
  1  2  2  0  0  0
  2  3  1  0  0  0
  3  4  2  0  0  0
  4  5  1  0  0  0
  5  6  2  0  0  0
  6  7  1  0  0  0
  7  8  2  0  0  0
  8  9  1  0  0  0
  9 10  1  0  0  0
 10 11  1  0  0  0
 11 12  1  0  0  0
 12 19  1  0  0  0
 19 20  2  0  0  0
 19 21  1  0  0  0
 21 23  1  0  0  0
 23 24  1  0  0  0
 24 25  1  0  0  0
 12 13  1  0  0  0
 13 14  1  0  0  0
 13 15  1  0  0  0
 15 16  1  0  0  0
 36 31  1  0  0  0
  6  1  1  0  0  0
 15 10  1  0  0  0
  9  5  1  0  0  0
 27 28  1  0  0  0
 21 22  1  0  0  0
 25 26  1  0  0  0
 14 17  1  0  0  0
 16 18  1  0  0  0
M  END
> <minimizedAffinity>
-7.05295

> <CNNscore>
0.3612488806

> <CNNaffinity>
5.3944530487

> <CNN_VS>
1.9487401247

> <CNNaffinity_variance>
0.0960296243

$$$$
[H]OC([H])([H])C([H])([H])N([H])C(=O)[C@@]1([H])O[C@@]([H])(n2c([H])nc3c(N([H])C([H])([H])c4c([H])c([H])c([H])c([H])c4C([H])([H])[H])nc([H])nc32)[C@]([H])(O[H])[C@]1([H])O[H]


 36 39  0  0  0  0  0  0  0  0999 V2000
  155.1765  141.5793  183.2742 C   0  0  0  0  0  0  0  0  0  0  0  0
  154.3045  141.9768  182.3215 N   0  0  0  0  0  0  0  0  0  0  0  0
  153.3150  141.1869  181.8826 C   0  0  0  0  0  0  0  0  0  0  0  0
  153.1862  139.9606  182.4069 N   0  0  0  0  0  0  0  0  0  0  0  0
  154.0159  139.5115  183.3503 C   0  0  0  0  0  0  0  0  0  0  0  0
  155.0230  140.3103  183.7997 C   0  0  0  0  0  0  0  0  0  0  0  0
  155.7056  139.6281  184.7381 N   0  0  0  0  0  0  0  0  0  0  0  0
  155.1519  138.4136  184.8925 C   0  0  0  0  0  0  0  0  0  0  0  0
  154.1179  138.3481  184.0402 N   0  0  0  0  0  0  0  0  0  0  0  0
  153.2594  137.2194  183.8881 C   0  0  0  0  0  0  0  0  0  0  0  0
  152.0193  137.3833  184.5005 O   0  0  0  0  0  0  0  0  0  0  0  0
  151.4976  136.0755  184.4933 C   0  0  0  0  0  0  0  0  0  0  0  0
  152.6567  135.3237  185.1378 C   0  0  0  0  0  0  0  0  0  0  0  0
  152.5612  133.9649  184.9903 O   0  0  0  0  0  0  0  0  0  0  0  0
  153.8222  135.9212  184.3586 C   0  0  0  0  0  0  0  0  0  0  0  0
  154.0721  135.0415  183.2920 O   0  0  0  0  0  0  0  0  0  0  0  0
  153.1049  133.5271  185.7060 H   0  0  0  0  0  0  0  0  0  0  0  0
  155.0363  134.7968  183.2584 H   0  0  0  0  0  0  0  0  0  0  0  0
  150.2532  135.9629  185.2360 C   0  0  0  0  0  0  0  0  0  0  0  0
  150.1073  135.0741  186.1037 O   0  0  0  0  0  0  0  0  0  0  0  0
  149.1829  136.8554  184.9929 N   0  0  0  0  0  0  0  0  0  0  0  0
  149.2819  137.6015  184.2768 H   0  0  0  0  0  0  0  0  0  0  0  0
  147.9270  136.7646  185.7223 C   0  0  0  0  0  0  0  0  0  0  0  0
  147.9940  137.5840  186.9676 C   0  0  0  0  0  0  0  0  0  0  0  0
  148.0563  138.9367  186.6274 O   0  0  0  0  0  0  0  0  0  0  0  0
  147.6601  139.5166  187.3444 H   0  0  0  0  0  0  0  0  0  0  0  0
  156.2282  142.4272  183.7108 N   0  0  0  0  0  0  0  0  0  0  0  0
  155.9626  143.2782  184.2650 H   0  0  0  0  0  0  0  0  0  0  0  0
  157.6069  142.1738  183.4315 C   0  0  0  0  0  0  0  0  0  0  0  0
  159.0936  144.4997  182.7690 C   0  0  0  0  0  0  0  0  0  0  0  0
  158.7452  143.5415  181.7118 C   0  0  0  0  0  0  0  0  0  0  0  0
  159.1272  143.7783  180.4266 C   0  0  0  0  0  0  0  0  0  0  0  0
  158.8153  142.8972  179.4117 C   0  0  0  0  0  0  0  0  0  0  0  0
  158.1035  141.7489  179.6821 C   0  0  0  0  0  0  0  0  0  0  0  0
  157.7297  141.5377  181.0008 C   0  0  0  0  0  0  0  0  0  0  0  0
  158.0219  142.3904  182.0364 C   0  0  0  0  0  0  0  0  0  0  0  0
 30 31  1  0  0  0
 31 32  2  0  0  0
 32 33  1  0  0  0
 33 34  2  0  0  0
 34 35  1  0  0  0
 35 36  2  0  0  0
 36 29  1  0  0  0
 29 27  1  0  0  0
 27  1  1  0  0  0
  1  2  2  0  0  0
  2  3  1  0  0  0
  3  4  2  0  0  0
  4  5  1  0  0  0
  5  6  2  0  0  0
  6  7  1  0  0  0
  7  8  2  0  0  0
  8  9  1  0  0  0
  9 10  1  0  0  0
 10 11  1  0  0  0
 11 12  1  0  0  0
 12 19  1  0  0  0
 19 20  2  0  0  0
 19 21  1  0  0  0
 21 23  1  0  0  0
 23 24  1  0  0  0
 24 25  1  0  0  0
 12 13  1  0  0  0
 13 14  1  0  0  0
 13 15  1  0  0  0
 15 16  1  0  0  0
 36 31  1  0  0  0
  6  1  1  0  0  0
 15 10  1  0  0  0
  9  5  1  0  0  0
 27 28  1  0  0  0
 21 22  1  0  0  0
 25 26  1  0  0  0
 14 17  1  0  0  0
 16 18  1  0  0  0
M  END
> <minimizedAffinity>
-7.15125

> <CNNscore>
0.3265632987

> <CNNaffinity>
5.6515970230

> <CNN_VS>
1.8456041813

> <CNNaffinity_variance>
0.1734427512

$$$$
[H]OC([H])([H])C([H])([H])N([H])C(=O)[C@@]1([H])O[C@@]([H])(n2c([H])nc3c(N([H])C([H])([H])c4c([H])c([H])c([H])c([H])c4C([H])([H])[H])nc([H])nc32)[C@]([H])(O[H])[C@]1([H])O[H]


 36 39  0  0  0  0  0  0  0  0999 V2000
  154.5986  137.0424  189.6700 C   0  0  0  0  0  0  0  0  0  0  0  0
  155.7740  136.3769  189.7120 N   0  0  0  0  0  0  0  0  0  0  0  0
  156.6145  136.3424  188.6688 C   0  0  0  0  0  0  0  0  0  0  0  0
  156.2772  136.9902  187.5456 N   0  0  0  0  0  0  0  0  0  0  0  0
  155.1305  137.6647  187.4433 C   0  0  0  0  0  0  0  0  0  0  0  0
  154.2731  137.7029  188.5005 C   0  0  0  0  0  0  0  0  0  0  0  0
  153.2053  138.4398  188.1416 N   0  0  0  0  0  0  0  0  0  0  0  0
  153.3684  138.8692  186.8789 C   0  0  0  0  0  0  0  0  0  0  0  0
  154.5489  138.3914  186.4568 N   0  0  0  0  0  0  0  0  0  0  0  0
  155.1020  138.6182  185.1618 C   0  0  0  0  0  0  0  0  0  0  0  0
  156.3784  139.1742  185.1970 O   0  0  0  0  0  0  0  0  0  0  0  0
  156.5706  139.5875  183.8648 C   0  0  0  0  0  0  0  0  0  0  0  0
  155.3043  140.4107  183.6570 C   0  0  0  0  0  0  0  0  0  0  0  0
  155.0631  140.6979  182.3391 O   0  0  0  0  0  0  0  0  0  0  0  0
  154.2729  139.4595  184.2518 C   0  0  0  0  0  0  0  0  0  0  0  0
  153.7585  138.7169  183.1757 O   0  0  0  0  0  0  0  0  0  0  0  0
  154.4727  141.5032  182.2909 H   0  0  0  0  0  0  0  0  0  0  0  0
  152.7635  138.7415  183.1770 H   0  0  0  0  0  0  0  0  0  0  0  0
  157.7926  140.3539  183.6849 C   0  0  0  0  0  0  0  0  0  0  0  0
  158.6369  140.4317  184.6042 O   0  0  0  0  0  0  0  0  0  0  0  0
  158.0515  141.0265  182.4677 N   0  0  0  0  0  0  0  0  0  0  0  0
  157.3641  140.9756  181.6904 H   0  0  0  0  0  0  0  0  0  0  0  0
  159.2666  141.8002  182.2616 C   0  0  0  0  0  0  0  0  0  0  0  0
  159.1308  143.1487  182.8860 C   0  0  0  0  0  0  0  0  0  0  0  0
  159.9527  143.2208  184.0123 O   0  0  0  0  0  0  0  0  0  0  0  0
  160.2506  144.1621  184.1926 H   0  0  0  0  0  0  0  0  0  0  0  0
  153.7159  137.0501  190.7819 N   0  0  0  0  0  0  0  0  0  0  0  0
  154.0839  137.4343  191.6868 H   0  0  0  0  0  0  0  0  0  0  0  0
  152.3727  136.5650  190.7202 C   0  0  0  0  0  0  0  0  0  0  0  0
  149.6634  135.7219  190.8048 C   0  0  0  0  0  0  0  0  0  0  0  0
  150.4457  135.7596  192.0472 C   0  0  0  0  0  0  0  0  0  0  0  0
  149.8669  135.4009  193.2263 C   0  0  0  0  0  0  0  0  0  0  0  0
  150.5755  135.4256  194.4098 C   0  0  0  0  0  0  0  0  0  0  0  0
  151.8963  135.8181  194.4216 C   0  0  0  0  0  0  0  0  0  0  0  0
  152.4554  136.1770  193.2042 C   0  0  0  0  0  0  0  0  0  0  0  0
  151.7828  136.1646  192.0074 C   0  0  0  0  0  0  0  0  0  0  0  0
 30 31  1  0  0  0
 31 32  2  0  0  0
 32 33  1  0  0  0
 33 34  2  0  0  0
 34 35  1  0  0  0
 35 36  2  0  0  0
 36 29  1  0  0  0
 29 27  1  0  0  0
 27  1  1  0  0  0
  1  2  2  0  0  0
  2  3  1  0  0  0
  3  4  2  0  0  0
  4  5  1  0  0  0
  5  6  2  0  0  0
  6  7  1  0  0  0
  7  8  2  0  0  0
  8  9  1  0  0  0
  9 10  1  0  0  0
 10 11  1  0  0  0
 11 12  1  0  0  0
 12 19  1  0  0  0
 19 20  2  0  0  0
 19 21  1  0  0  0
 21 23  1  0  0  0
 23 24  1  0  0  0
 24 25  1  0  0  0
 12 13  1  0  0  0
 13 14  1  0  0  0
 13 15  1  0  0  0
 15 16  1  0  0  0
 36 31  1  0  0  0
  6  1  1  0  0  0
 15 10  1  0  0  0
  9  5  1  0  0  0
 27 28  1  0  0  0
 21 22  1  0  0  0
 25 26  1  0  0  0
 14 17  1  0  0  0
 16 18  1  0  0  0
M  END
> <minimizedAffinity>
-7.03549

> <CNNscore>
0.3214945197

> <CNNaffinity>
5.2321634293

> <CNN_VS>
1.6821118593

> <CNNaffinity_variance>
0.0400301032

$$$$
[H]c1c([H])c([H])c(S(=O)(=O)c2c([H])c([H])c3c(c2[H])c2c(n3[H])C([H])([H])C([H])([H])C([H])(N([H])[H])C2([H])[H])c([H])c1[H]


 26 29  0  0  0  0  0  0  0  0999 V2000
  155.5661  135.5913  189.0746 N   0  0  0  0  0  0  0  0  0  0  0  0
  155.0879  136.1187  187.7990 C   0  0  0  0  0  0  0  0  0  0  0  0
  153.6128  135.9539  187.7445 C   0  0  0  0  0  0  0  0  0  0  0  0
  152.8707  137.0375  187.0309 C   0  0  0  0  0  0  0  0  0  0  0  0
  153.7066  137.8719  186.1509 C   0  0  0  0  0  0  0  0  0  0  0  0
  153.4198  138.5060  185.0137 N   0  0  0  0  0  0  0  0  0  0  0  0
  154.4945  139.1465  184.5596 C   0  0  0  0  0  0  0  0  0  0  0  0
  154.7335  139.9442  183.4343 C   0  0  0  0  0  0  0  0  0  0  0  0
  156.0036  140.4546  183.2830 C   0  0  0  0  0  0  0  0  0  0  0  0
  157.0175  140.2186  184.1681 C   0  0  0  0  0  0  0  0  0  0  0  0
  156.7760  139.4325  185.2740 C   0  0  0  0  0  0  0  0  0  0  0  0
  155.5142  138.9143  185.4417 C   0  0  0  0  0  0  0  0  0  0  0  0
  155.0200  138.1140  186.4412 C   0  0  0  0  0  0  0  0  0  0  0  0
  155.5849  137.5123  187.6700 C   0  0  0  0  0  0  0  0  0  0  0  0
  156.4545  136.0473  189.3266 H   0  0  0  0  0  0  0  0  0  0  0  0
  155.5873  134.5566  189.0690 H   0  0  0  0  0  0  0  0  0  0  0  0
  152.4944  138.5270  184.5098 H   0  0  0  0  0  0  0  0  0  0  0  0
  158.6117  140.8939  183.9241 S   0  0  0  0  0  0  0  0  0  0  0  0
  159.6120  139.7915  184.0084 O   0  0  0  0  0  0  0  0  0  0  0  0
  158.8803  141.8914  185.0121 O   0  0  0  0  0  0  0  0  0  0  0  0
  158.6207  141.6628  182.3526 C   0  0  0  0  0  0  0  0  0  0  0  0
  158.4064  140.9065  181.2272 C   0  0  0  0  0  0  0  0  0  0  0  0
  158.3962  141.4287  179.9472 C   0  0  0  0  0  0  0  0  0  0  0  0
  158.6165  142.7882  179.8239 C   0  0  0  0  0  0  0  0  0  0  0  0
  158.8357  143.5768  180.9429 C   0  0  0  0  0  0  0  0  0  0  0  0
  158.8359  143.0086  182.1931 C   0  0  0  0  0  0  0  0  0  0  0  0
  1  2  1  0  0  0
  2  3  1  0  0  0
  3  4  1  0  0  0
  4  5  1  0  0  0
  5  6  1  0  0  0
  6  7  1  0  0  0
  7  8  2  0  0  0
  8  9  1  0  0  0
  9 10  2  0  0  0
 10 18  1  0  0  0
 18 19  2  0  0  0
 18 20  2  0  0  0
 18 21  1  0  0  0
 21 22  2  0  0  0
 22 23  1  0  0  0
 23 24  2  0  0  0
 24 25  1  0  0  0
 25 26  2  0  0  0
 10 11  1  0  0  0
 11 12  2  0  0  0
 12 13  1  0  0  0
 13 14  1  0  0  0
 14  2  1  0  0  0
 13  5  2  0  0  0
 12  7  1  0  0  0
 26 21  1  0  0  0
  1 15  1  0  0  0
  1 16  1  0  0  0
  6 17  1  0  0  0
M  END
> <minimizedAffinity>
-8.10082

> <CNNscore>
0.4137271047

> <CNNaffinity>
5.6118197441

> <CNN_VS>
2.3217618465

> <CNNaffinity_variance>
0.0714285299

$$$$
[H]c1c([H])c([H])c(S(=O)(=O)c2c([H])c([H])c3c(c2[H])c2c(n3[H])C([H])([H])C([H])([H])C([H])(N([H])[H])C2([H])[H])c([H])c1[H]


 26 29  0  0  0  0  0  0  0  0999 V2000
  150.5108  140.2914  178.4252 N   0  0  0  0  0  0  0  0  0  0  0  0
  150.7599  139.8496  179.7952 C   0  0  0  0  0  0  0  0  0  0  0  0
  150.0582  138.5580  180.0085 C   0  0  0  0  0  0  0  0  0  0  0  0
  150.7533  137.5898  180.9105 C   0  0  0  0  0  0  0  0  0  0  0  0
  151.7933  138.1897  181.7637 C   0  0  0  0  0  0  0  0  0  0  0  0
  152.2191  137.8654  182.9847 N   0  0  0  0  0  0  0  0  0  0  0  0
  153.1887  138.6921  183.3694 C   0  0  0  0  0  0  0  0  0  0  0  0
  153.9615  138.7915  184.5324 C   0  0  0  0  0  0  0  0  0  0  0  0
  154.8977  139.8004  184.5815 C   0  0  0  0  0  0  0  0  0  0  0  0
  155.0979  140.6886  183.5627 C   0  0  0  0  0  0  0  0  0  0  0  0
  154.3340  140.5855  182.4202 C   0  0  0  0  0  0  0  0  0  0  0  0
  153.3944  139.5847  182.3532 C   0  0  0  0  0  0  0  0  0  0  0  0
  152.5185  139.2697  181.3445 C   0  0  0  0  0  0  0  0  0  0  0  0
  152.2303  139.8251  180.0030 C   0  0  0  0  0  0  0  0  0  0  0  0
  151.2751  140.9085  178.1161 H   0  0  0  0  0  0  0  0  0  0  0  0
  149.5586  140.6840  178.3245 H   0  0  0  0  0  0  0  0  0  0  0  0
  151.8711  137.0798  183.5950 H   0  0  0  0  0  0  0  0  0  0  0  0
  156.3024  141.9503  183.6813 S   0  0  0  0  0  0  0  0  0  0  0  0
  157.1518  141.6845  184.8775 O   0  0  0  0  0  0  0  0  0  0  0  0
  155.6018  143.2659  183.8531 O   0  0  0  0  0  0  0  0  0  0  0  0
  157.2353  141.9257  182.2015 C   0  0  0  0  0  0  0  0  0  0  0  0
  157.3785  143.0796  181.4717 C   0  0  0  0  0  0  0  0  0  0  0  0
  158.0966  143.1528  180.2926 C   0  0  0  0  0  0  0  0  0  0  0  0
  158.6916  141.9863  179.8484 C   0  0  0  0  0  0  0  0  0  0  0  0
  158.5639  140.8063  180.5649 C   0  0  0  0  0  0  0  0  0  0  0  0
  157.8392  140.7868  181.7312 C   0  0  0  0  0  0  0  0  0  0  0  0
  1  2  1  0  0  0
  2  3  1  0  0  0
  3  4  1  0  0  0
  4  5  1  0  0  0
  5  6  1  0  0  0
  6  7  1  0  0  0
  7  8  2  0  0  0
  8  9  1  0  0  0
  9 10  2  0  0  0
 10 18  1  0  0  0
 18 19  2  0  0  0
 18 20  2  0  0  0
 18 21  1  0  0  0
 21 22  2  0  0  0
 22 23  1  0  0  0
 23 24  2  0  0  0
 24 25  1  0  0  0
 25 26  2  0  0  0
 10 11  1  0  0  0
 11 12  2  0  0  0
 12 13  1  0  0  0
 13 14  1  0  0  0
 14  2  1  0  0  0
 13  5  2  0  0  0
 12  7  1  0  0  0
 26 21  1  0  0  0
  1 15  1  0  0  0
  1 16  1  0  0  0
  6 17  1  0  0  0
M  END
> <minimizedAffinity>
-8.64000

> <CNNscore>
0.4000803232

> <CNNaffinity>
5.8217430115

> <CNN_VS>
2.3291647434

> <CNNaffinity_variance>
0.0711006299

$$$$
[H]c1c([H])c([H])c(S(=O)(=O)c2c([H])c([H])c3c(c2[H])c2c(n3[H])C([H])([H])C([H])([H])C([H])(N([H])[H])C2([H])[H])c([H])c1[H]


 26 29  0  0  0  0  0  0  0  0999 V2000
  156.3790  135.8690  188.7215 N   0  0  0  0  0  0  0  0  0  0  0  0
  155.6465  136.4023  187.5756 C   0  0  0  0  0  0  0  0  0  0  0  0
  154.1919  136.3065  187.8605 C   0  0  0  0  0  0  0  0  0  0  0  0
  153.3543  137.4148  187.3090 C   0  0  0  0  0  0  0  0  0  0  0  0
  154.0033  138.1978  186.2435 C   0  0  0  0  0  0  0  0  0  0  0  0
  153.4930  138.8302  185.1867 N   0  0  0  0  0  0  0  0  0  0  0  0
  154.4628  139.4136  184.4862 C   0  0  0  0  0  0  0  0  0  0  0  0
  154.4738  140.1849  183.3180 C   0  0  0  0  0  0  0  0  0  0  0  0
  155.6970  140.6329  182.8712 C   0  0  0  0  0  0  0  0  0  0  0  0
  156.8745  140.3605  183.5086 C   0  0  0  0  0  0  0  0  0  0  0  0
  156.8572  139.6007  184.6583 C   0  0  0  0  0  0  0  0  0  0  0  0
  155.6454  139.1448  185.1194 C   0  0  0  0  0  0  0  0  0  0  0  0
  155.3575  138.3813  186.2231 C   0  0  0  0  0  0  0  0  0  0  0  0
  156.1606  137.7692  187.3054 C   0  0  0  0  0  0  0  0  0  0  0  0
  157.3202  136.2858  188.7550 H   0  0  0  0  0  0  0  0  0  0  0  0
  156.3538  134.8345  188.7350 H   0  0  0  0  0  0  0  0  0  0  0  0
  152.4791  138.8885  184.9052 H   0  0  0  0  0  0  0  0  0  0  0  0
  158.3990  140.9567  182.8943 S   0  0  0  0  0  0  0  0  0  0  0  0
  158.1212  142.0178  181.8844 O   0  0  0  0  0  0  0  0  0  0  0  0
  159.1254  139.8219  182.2342 O   0  0  0  0  0  0  0  0  0  0  0  0
  159.3074  141.5750  184.2556 C   0  0  0  0  0  0  0  0  0  0  0  0
  160.6129  141.9613  184.0796 C   0  0  0  0  0  0  0  0  0  0  0  0
  161.4050  142.4603  185.0967 C   0  0  0  0  0  0  0  0  0  0  0  0
  160.8253  142.5650  186.3478 C   0  0  0  0  0  0  0  0  0  0  0  0
  159.5089  142.1826  186.5550 C   0  0  0  0  0  0  0  0  0  0  0  0
  158.7643  141.6925  185.5103 C   0  0  0  0  0  0  0  0  0  0  0  0
  1  2  1  0  0  0
  2  3  1  0  0  0
  3  4  1  0  0  0
  4  5  1  0  0  0
  5  6  1  0  0  0
  6  7  1  0  0  0
  7  8  2  0  0  0
  8  9  1  0  0  0
  9 10  2  0  0  0
 10 18  1  0  0  0
 18 19  2  0  0  0
 18 20  2  0  0  0
 18 21  1  0  0  0
 21 22  2  0  0  0
 22 23  1  0  0  0
 23 24  2  0  0  0
 24 25  1  0  0  0
 25 26  2  0  0  0
 10 11  1  0  0  0
 11 12  2  0  0  0
 12 13  1  0  0  0
 13 14  1  0  0  0
 14  2  1  0  0  0
 13  5  2  0  0  0
 12  7  1  0  0  0
 26 21  1  0  0  0
  1 15  1  0  0  0
  1 16  1  0  0  0
  6 17  1  0  0  0
M  END
> <minimizedAffinity>
-8.66883

> <CNNscore>
0.3962240517

> <CNNaffinity>
5.7806458473

> <CNN_VS>
2.2904310226

> <CNNaffinity_variance>
0.1571835130

$$$$
[H]c1c([H])c([H])c(S(=O)(=O)c2c([H])c([H])c3c(c2[H])c2c(n3[H])C([H])([H])C([H])([H])C([H])(N([H])[H])C2([H])[H])c([H])c1[H]


 26 29  0  0  0  0  0  0  0  0999 V2000
  155.6086  135.7414  188.6757 N   0  0  0  0  0  0  0  0  0  0  0  0
  155.0028  136.4356  187.5422 C   0  0  0  0  0  0  0  0  0  0  0  0
  153.5730  136.6892  187.8546 C   0  0  0  0  0  0  0  0  0  0  0  0
  153.0136  137.9660  187.3153 C   0  0  0  0  0  0  0  0  0  0  0  0
  153.8103  138.5730  186.2353 C   0  0  0  0  0  0  0  0  0  0  0  0
  153.4456  139.3104  185.1862 N   0  0  0  0  0  0  0  0  0  0  0  0
  154.5131  139.6465  184.4659 C   0  0  0  0  0  0  0  0  0  0  0  0
  154.6856  140.3946  183.2952 C   0  0  0  0  0  0  0  0  0  0  0  0
  155.9716  140.5384  182.8240 C   0  0  0  0  0  0  0  0  0  0  0  0
  157.0620  139.9921  183.4402 C   0  0  0  0  0  0  0  0  0  0  0  0
  156.8858  139.2568  184.5924 C   0  0  0  0  0  0  0  0  0  0  0  0
  155.6093  139.1025  185.0776 C   0  0  0  0  0  0  0  0  0  0  0  0
  155.1685  138.4282  186.1889 C   0  0  0  0  0  0  0  0  0  0  0  0
  155.8229  137.6407  187.2579 C   0  0  0  0  0  0  0  0  0  0  0  0
  156.6225  135.9216  188.6903 H   0  0  0  0  0  0  0  0  0  0  0  0
  155.3376  134.7428  188.6931 H   0  0  0  0  0  0  0  0  0  0  0  0
  152.4697  139.6093  184.9237 H   0  0  0  0  0  0  0  0  0  0  0  0
  158.6727  140.2083  182.7954 S   0  0  0  0  0  0  0  0  0  0  0  0
  158.8935  139.1981  181.7213 O   0  0  0  0  0  0  0  0  0  0  0  0
  159.6639  139.9833  183.8990 O   0  0  0  0  0  0  0  0  0  0  0  0
  158.7774  141.8437  182.1828 C   0  0  0  0  0  0  0  0  0  0  0  0
  158.8905  142.0549  180.8311 C   0  0  0  0  0  0  0  0  0  0  0  0
  158.9789  143.3105  180.2594 C   0  0  0  0  0  0  0  0  0  0  0  0
  158.9492  144.3933  181.1190 C   0  0  0  0  0  0  0  0  0  0  0  0
  158.8356  144.2102  182.4886 C   0  0  0  0  0  0  0  0  0  0  0  0
  158.7511  142.9411  183.0063 C   0  0  0  0  0  0  0  0  0  0  0  0
  1  2  1  0  0  0
  2  3  1  0  0  0
  3  4  1  0  0  0
  4  5  1  0  0  0
  5  6  1  0  0  0
  6  7  1  0  0  0
  7  8  2  0  0  0
  8  9  1  0  0  0
  9 10  2  0  0  0
 10 18  1  0  0  0
 18 19  2  0  0  0
 18 20  2  0  0  0
 18 21  1  0  0  0
 21 22  2  0  0  0
 22 23  1  0  0  0
 23 24  2  0  0  0
 24 25  1  0  0  0
 25 26  2  0  0  0
 10 11  1  0  0  0
 11 12  2  0  0  0
 12 13  1  0  0  0
 13 14  1  0  0  0
 14  2  1  0  0  0
 13  5  2  0  0  0
 12  7  1  0  0  0
 26 21  1  0  0  0
  1 15  1  0  0  0
  1 16  1  0  0  0
  6 17  1  0  0  0
M  END
> <minimizedAffinity>
-8.30515

> <CNNscore>
0.3634413779

> <CNNaffinity>
5.6519608498

> <CNN_VS>
2.0541565418

> <CNNaffinity_variance>
0.0847226903

$$$$
[H]c1c([H])c([H])c(S(=O)(=O)c2c([H])c([H])c3c(c2[H])c2c(n3[H])C([H])([H])C([H])([H])C([H])(N([H])[H])C2([H])[H])c([H])c1[H]


 26 29  0  0  0  0  0  0  0  0999 V2000
  155.1038  132.5213  183.8549 N   0  0  0  0  0  0  0  0  0  0  0  0
  154.9083  133.9576  184.0361 C   0  0  0  0  0  0  0  0  0  0  0  0
  154.2931  134.5086  182.8016 C   0  0  0  0  0  0  0  0  0  0  0  0
  153.3264  135.6294  183.0100 C   0  0  0  0  0  0  0  0  0  0  0  0
  153.4292  136.2874  184.3237 C   0  0  0  0  0  0  0  0  0  0  0  0
  153.1998  137.5478  184.6924 N   0  0  0  0  0  0  0  0  0  0  0  0
  153.4226  137.6944  185.9964 C   0  0  0  0  0  0  0  0  0  0  0  0
  153.3339  138.7849  186.8697 C   0  0  0  0  0  0  0  0  0  0  0  0
  153.6493  138.5600  188.1913 C   0  0  0  0  0  0  0  0  0  0  0  0
  154.0369  137.3417  188.6734 C   0  0  0  0  0  0  0  0  0  0  0  0
  154.1224  136.2719  187.8087 C   0  0  0  0  0  0  0  0  0  0  0  0
  153.8113  136.4774  186.4859 C   0  0  0  0  0  0  0  0  0  0  0  0
  153.8156  135.5934  185.4360 C   0  0  0  0  0  0  0  0  0  0  0  0
  154.1305  134.1548  185.2860 C   0  0  0  0  0  0  0  0  0  0  0  0
  155.1184  132.0553  184.7732 H   0  0  0  0  0  0  0  0  0  0  0  0
  155.9196  132.3268  183.2486 H   0  0  0  0  0  0  0  0  0  0  0  0
  152.8870  138.3459  184.0793 H   0  0  0  0  0  0  0  0  0  0  0  0
  154.4255  137.1154  190.3630 S   0  0  0  0  0  0  0  0  0  0  0  0
  155.1230  138.3369  190.8573 O   0  0  0  0  0  0  0  0  0  0  0  0
  155.3433  135.9352  190.4888 O   0  0  0  0  0  0  0  0  0  0  0  0
  152.9228  136.8342  191.2137 C   0  0  0  0  0  0  0  0  0  0  0  0
  152.8197  137.1786  192.5386 C   0  0  0  0  0  0  0  0  0  0  0  0
  151.6733  136.9930  193.2886 C   0  0  0  0  0  0  0  0  0  0  0  0
  150.5881  136.4283  192.6440 C   0  0  0  0  0  0  0  0  0  0  0  0
  150.6634  136.0706  191.3066 C   0  0  0  0  0  0  0  0  0  0  0  0
  151.8264  136.2761  190.6059 C   0  0  0  0  0  0  0  0  0  0  0  0
  1  2  1  0  0  0
  2  3  1  0  0  0
  3  4  1  0  0  0
  4  5  1  0  0  0
  5  6  1  0  0  0
  6  7  1  0  0  0
  7  8  2  0  0  0
  8  9  1  0  0  0
  9 10  2  0  0  0
 10 18  1  0  0  0
 18 19  2  0  0  0
 18 20  2  0  0  0
 18 21  1  0  0  0
 21 22  2  0  0  0
 22 23  1  0  0  0
 23 24  2  0  0  0
 24 25  1  0  0  0
 25 26  2  0  0  0
 10 11  1  0  0  0
 11 12  2  0  0  0
 12 13  1  0  0  0
 13 14  1  0  0  0
 14  2  1  0  0  0
 13  5  2  0  0  0
 12  7  1  0  0  0
 26 21  1  0  0  0
  1 15  1  0  0  0
  1 16  1  0  0  0
  6 17  1  0  0  0
M  END
> <minimizedAffinity>
-5.88836

> <CNNscore>
0.3470885754

> <CNNaffinity>
4.9522156715

> <CNN_VS>
1.7188575268

> <CNNaffinity_variance>
0.0380364172

$$$$
[H]c1c([H])c([H])c(S(=O)(=O)c2c([H])c([H])c3c(c2[H])c2c(n3[H])C([H])([H])C([H])([H])C([H])(N([H])[H])C2([H])[H])c([H])c1[H]


 26 29  0  0  0  0  0  0  0  0999 V2000
  152.8440  134.5983  183.9400 N   0  0  0  0  0  0  0  0  0  0  0  0
  152.7278  135.8309  183.1648 C   0  0  0  0  0  0  0  0  0  0  0  0
  151.3027  136.0196  182.7909 C   0  0  0  0  0  0  0  0  0  0  0  0
  150.8318  137.4375  182.7470 C   0  0  0  0  0  0  0  0  0  0  0  0
  151.9113  138.4369  182.6742 C   0  0  0  0  0  0  0  0  0  0  0  0
  151.9537  139.6402  182.1019 N   0  0  0  0  0  0  0  0  0  0  0  0
  153.1474  140.1981  182.2900 C   0  0  0  0  0  0  0  0  0  0  0  0
  153.7067  141.4229  181.9067 C   0  0  0  0  0  0  0  0  0  0  0  0
  155.0069  141.6680  182.2889 C   0  0  0  0  0  0  0  0  0  0  0  0
  155.7563  140.7828  183.0113 C   0  0  0  0  0  0  0  0  0  0  0  0
  155.2001  139.5786  183.3856 C   0  0  0  0  0  0  0  0  0  0  0  0
  153.9034  139.3165  183.0132 C   0  0  0  0  0  0  0  0  0  0  0  0
  153.1276  138.2103  183.2549 C   0  0  0  0  0  0  0  0  0  0  0  0
  153.3342  136.9269  183.9630 C   0  0  0  0  0  0  0  0  0  0  0  0
  153.6729  134.6491  184.5490 H   0  0  0  0  0  0  0  0  0  0  0  0
  152.7959  133.7643  183.3290 H   0  0  0  0  0  0  0  0  0  0  0  0
  151.1826  140.1216  181.5687 H   0  0  0  0  0  0  0  0  0  0  0  0
  157.4037  141.1486  183.4685 S   0  0  0  0  0  0  0  0  0  0  0  0
  158.1499  139.8667  183.6203 O   0  0  0  0  0  0  0  0  0  0  0  0
  157.3861  141.8708  184.7835 O   0  0  0  0  0  0  0  0  0  0  0  0
  158.0862  142.1544  182.2102 C   0  0  0  0  0  0  0  0  0  0  0  0
  158.2981  141.6261  180.9610 C   0  0  0  0  0  0  0  0  0  0  0  0
  158.8320  142.3459  179.9083 C   0  0  0  0  0  0  0  0  0  0  0  0
  159.1610  143.6660  180.1556 C   0  0  0  0  0  0  0  0  0  0  0  0
  158.9580  144.2262  181.4075 C   0  0  0  0  0  0  0  0  0  0  0  0
  158.4243  143.4677  182.4202 C   0  0  0  0  0  0  0  0  0  0  0  0
  1  2  1  0  0  0
  2  3  1  0  0  0
  3  4  1  0  0  0
  4  5  1  0  0  0
  5  6  1  0  0  0
  6  7  1  0  0  0
  7  8  2  0  0  0
  8  9  1  0  0  0
  9 10  2  0  0  0
 10 18  1  0  0  0
 18 19  2  0  0  0
 18 20  2  0  0  0
 18 21  1  0  0  0
 21 22  2  0  0  0
 22 23  1  0  0  0
 23 24  2  0  0  0
 24 25  1  0  0  0
 25 26  2  0  0  0
 10 11  1  0  0  0
 11 12  2  0  0  0
 12 13  1  0  0  0
 13 14  1  0  0  0
 14  2  1  0  0  0
 13  5  2  0  0  0
 12  7  1  0  0  0
 26 21  1  0  0  0
  1 15  1  0  0  0
  1 16  1  0  0  0
  6 17  1  0  0  0
M  END
> <minimizedAffinity>
-7.92046

> <CNNscore>
0.3405892849

> <CNNaffinity>
5.5426588058

> <CNN_VS>
1.8877701759

> <CNNaffinity_variance>
0.1324436069

$$$$
[H]c1c([H])c([H])c(S(=O)(=O)c2c([H])c([H])c3c(c2[H])c2c(n3[H])C([H])([H])C([H])([H])C([H])(N([H])[H])C2([H])[H])c([H])c1[H]


 26 29  0  0  0  0  0  0  0  0999 V2000
  161.1841  143.2990  187.4843 N   0  0  0  0  0  0  0  0  0  0  0  0
  160.9831  143.1126  186.0495 C   0  0  0  0  0  0  0  0  0  0  0  0
  162.2336  142.5627  185.4663 C   0  0  0  0  0  0  0  0  0  0  0  0
  162.0478  141.6009  184.3373 C   0  0  0  0  0  0  0  0  0  0  0  0
  160.7176  141.6499  183.7068 C   0  0  0  0  0  0  0  0  0  0  0  0
  160.3346  141.4188  182.4509 N   0  0  0  0  0  0  0  0  0  0  0  0
  159.0189  141.5819  182.3330 C   0  0  0  0  0  0  0  0  0  0  0  0
  158.1287  141.4655  181.2588 C   0  0  0  0  0  0  0  0  0  0  0  0
  156.7987  141.7158  181.5138 C   0  0  0  0  0  0  0  0  0  0  0  0
  156.3238  142.0656  182.7463 C   0  0  0  0  0  0  0  0  0  0  0  0
  157.2051  142.1786  183.7999 C   0  0  0  0  0  0  0  0  0  0  0  0
  158.5366  141.9324  183.5643 C   0  0  0  0  0  0  0  0  0  0  0  0
  159.6029  141.9753  184.4275 C   0  0  0  0  0  0  0  0  0  0  0  0
  159.7672  142.2795  185.8668 C   0  0  0  0  0  0  0  0  0  0  0  0
  160.2757  143.2648  187.9685 H   0  0  0  0  0  0  0  0  0  0  0  0
  161.7555  144.1400  187.6775 H   0  0  0  0  0  0  0  0  0  0  0  0
  160.9453  141.1448  181.6369 H   0  0  0  0  0  0  0  0  0  0  0  0
  154.6229  142.3717  183.0109 S   0  0  0  0  0  0  0  0  0  0  0  0
  154.1845  143.4510  182.0803 O   0  0  0  0  0  0  0  0  0  0  0  0
  154.4341  142.8308  184.4268 O   0  0  0  0  0  0  0  0  0  0  0  0
  153.7686  140.8731  182.7188 C   0  0  0  0  0  0  0  0  0  0  0  0
  153.9728  139.8031  183.5542 C   0  0  0  0  0  0  0  0  0  0  0  0
  153.3420  138.5827  183.3995 C   0  0  0  0  0  0  0  0  0  0  0  0
  152.4638  138.4619  182.3382 C   0  0  0  0  0  0  0  0  0  0  0  0
  152.2379  139.5258  181.4784 C   0  0  0  0  0  0  0  0  0  0  0  0
  152.8904  140.7179  181.6759 C   0  0  0  0  0  0  0  0  0  0  0  0
  1  2  1  0  0  0
  2  3  1  0  0  0
  3  4  1  0  0  0
  4  5  1  0  0  0
  5  6  1  0  0  0
  6  7  1  0  0  0
  7  8  2  0  0  0
  8  9  1  0  0  0
  9 10  2  0  0  0
 10 18  1  0  0  0
 18 19  2  0  0  0
 18 20  2  0  0  0
 18 21  1  0  0  0
 21 22  2  0  0  0
 22 23  1  0  0  0
 23 24  2  0  0  0
 24 25  1  0  0  0
 25 26  2  0  0  0
 10 11  1  0  0  0
 11 12  2  0  0  0
 12 13  1  0  0  0
 13 14  1  0  0  0
 14  2  1  0  0  0
 13  5  2  0  0  0
 12  7  1  0  0  0
 26 21  1  0  0  0
  1 15  1  0  0  0
  1 16  1  0  0  0
  6 17  1  0  0  0
M  END
> <minimizedAffinity>
-9.37423

> <CNNscore>
0.3203123212

> <CNNaffinity>
6.3404703140

> <CNN_VS>
2.0309307575

> <CNNaffinity_variance>
0.0865585655

$$$$
[H]c1c([H])c([H])c(S(=O)(=O)c2c([H])c([H])c3c(c2[H])c2c(n3[H])C([H])([H])C([H])([H])C([H])(N([H])[H])C2([H])[H])c([H])c1[H]


 26 29  0  0  0  0  0  0  0  0999 V2000
  149.6298  139.3626  178.3502 N   0  0  0  0  0  0  0  0  0  0  0  0
  149.9776  139.0242  179.7280 C   0  0  0  0  0  0  0  0  0  0  0  0
  149.3997  137.6935  180.0464 C   0  0  0  0  0  0  0  0  0  0  0  0
  150.2154  136.8411  180.9641 C   0  0  0  0  0  0  0  0  0  0  0  0
  151.2377  137.5743  181.7301 C   0  0  0  0  0  0  0  0  0  0  0  0
  151.7445  137.3587  182.9442 N   0  0  0  0  0  0  0  0  0  0  0  0
  152.6561  138.2842  183.2340 C   0  0  0  0  0  0  0  0  0  0  0  0
  153.4694  138.5156  184.3497 C   0  0  0  0  0  0  0  0  0  0  0  0
  154.3169  139.5998  184.2966 C   0  0  0  0  0  0  0  0  0  0  0  0
  154.3938  140.4403  183.2220 C   0  0  0  0  0  0  0  0  0  0  0  0
  153.5906  140.2072  182.1266 C   0  0  0  0  0  0  0  0  0  0  0  0
  152.7383  139.1296  182.1615 C   0  0  0  0  0  0  0  0  0  0  0  0
  151.8478  138.6843  181.2167 C   0  0  0  0  0  0  0  0  0  0  0  0
  151.4526  139.1341  179.8630 C   0  0  0  0  0  0  0  0  0  0  0  0
  150.3236  140.0219  177.9699 H   0  0  0  0  0  0  0  0  0  0  0  0
  148.6438  139.6682  178.2759 H   0  0  0  0  0  0  0  0  0  0  0  0
  151.4931  136.5840  183.6131 H   0  0  0  0  0  0  0  0  0  0  0  0
  155.4898  141.8024  183.2111 S   0  0  0  0  0  0  0  0  0  0  0  0
  155.0115  142.8044  184.2061 O   0  0  0  0  0  0  0  0  0  0  0  0
  155.4754  142.4170  181.8424 O   0  0  0  0  0  0  0  0  0  0  0  0
  157.0823  141.1976  183.6097 C   0  0  0  0  0  0  0  0  0  0  0  0
  157.6947  141.6128  184.7661 C   0  0  0  0  0  0  0  0  0  0  0  0
  158.9498  141.1878  185.1601 C   0  0  0  0  0  0  0  0  0  0  0  0
  159.5998  140.2971  184.3257 C   0  0  0  0  0  0  0  0  0  0  0  0
  159.0056  139.8605  183.1516 C   0  0  0  0  0  0  0  0  0  0  0  0
  157.7562  140.3134  182.8054 C   0  0  0  0  0  0  0  0  0  0  0  0
  1  2  1  0  0  0
  2  3  1  0  0  0
  3  4  1  0  0  0
  4  5  1  0  0  0
  5  6  1  0  0  0
  6  7  1  0  0  0
  7  8  2  0  0  0
  8  9  1  0  0  0
  9 10  2  0  0  0
 10 18  1  0  0  0
 18 19  2  0  0  0
 18 20  2  0  0  0
 18 21  1  0  0  0
 21 22  2  0  0  0
 22 23  1  0  0  0
 23 24  2  0  0  0
 24 25  1  0  0  0
 25 26  2  0  0  0
 10 11  1  0  0  0
 11 12  2  0  0  0
 12 13  1  0  0  0
 13 14  1  0  0  0
 14  2  1  0  0  0
 13  5  2  0  0  0
 12  7  1  0  0  0
 26 21  1  0  0  0
  1 15  1  0  0  0
  1 16  1  0  0  0
  6 17  1  0  0  0
M  END
> <minimizedAffinity>
-7.77166

> <CNNscore>
0.3012150228

> <CNNaffinity>
5.3825273514

> <CNN_VS>
1.6212980747

> <CNNaffinity_variance>
0.1233389825

$$$$
[H]c1c([H])c([H])c(S(=O)(=O)c2c([H])c([H])c3c(c2[H])c2c(n3[H])C([H])([H])C([H])([H])C([H])(N([H])[H])C2([H])[H])c([H])c1[H]


 26 29  0  0  0  0  0  0  0  0999 V2000
  156.1894  140.8575  183.5124 N   0  0  0  0  0  0  0  0  0  0  0  0
  155.0097  140.2334  184.1064 C   0  0  0  0  0  0  0  0  0  0  0  0
  154.1302  139.7507  183.0110 C   0  0  0  0  0  0  0  0  0  0  0  0
  153.3850  138.4865  183.2945 C   0  0  0  0  0  0  0  0  0  0  0  0
  153.3053  138.1323  184.7219 C   0  0  0  0  0  0  0  0  0  0  0  0
  152.3650  137.4880  185.4133 N   0  0  0  0  0  0  0  0  0  0  0  0
  152.7182  137.3922  186.6930 C   0  0  0  0  0  0  0  0  0  0  0  0
  152.1080  136.8257  187.8184 C   0  0  0  0  0  0  0  0  0  0  0  0
  152.7846  136.9177  189.0144 C   0  0  0  0  0  0  0  0  0  0  0  0
  154.0010  137.5266  189.1435 C   0  0  0  0  0  0  0  0  0  0  0  0
  154.5967  138.0825  188.0319 C   0  0  0  0  0  0  0  0  0  0  0  0
  153.9361  138.0003  186.8295 C   0  0  0  0  0  0  0  0  0  0  0  0
  154.3054  138.4652  185.5920 C   0  0  0  0  0  0  0  0  0  0  0  0
  155.4779  139.1956  185.0602 C   0  0  0  0  0  0  0  0  0  0  0  0
  156.9746  140.8166  184.1775 H   0  0  0  0  0  0  0  0  0  0  0  0
  155.9709  141.8000  183.1451 H   0  0  0  0  0  0  0  0  0  0  0  0
  151.4591  137.0941  185.0461 H   0  0  0  0  0  0  0  0  0  0  0  0
  154.8138  137.6133  190.6890 S   0  0  0  0  0  0  0  0  0  0  0  0
  155.0634  139.0468  191.0143 O   0  0  0  0  0  0  0  0  0  0  0  0
  156.1260  136.8938  190.5804 O   0  0  0  0  0  0  0  0  0  0  0  0
  153.7756  136.8483  191.8712 C   0  0  0  0  0  0  0  0  0  0  0  0
  152.7667  137.5725  192.4562 C   0  0  0  0  0  0  0  0  0  0  0  0
  151.8999  137.0507  193.3984 C   0  0  0  0  0  0  0  0  0  0  0  0
  152.0823  135.7263  193.7514 C   0  0  0  0  0  0  0  0  0  0  0  0
  153.0929  134.9707  193.1771 C   0  0  0  0  0  0  0  0  0  0  0  0
  153.9278  135.5368  192.2452 C   0  0  0  0  0  0  0  0  0  0  0  0
  1  2  1  0  0  0
  2  3  1  0  0  0
  3  4  1  0  0  0
  4  5  1  0  0  0
  5  6  1  0  0  0
  6  7  1  0  0  0
  7  8  2  0  0  0
  8  9  1  0  0  0
  9 10  2  0  0  0
 10 18  1  0  0  0
 18 19  2  0  0  0
 18 20  2  0  0  0
 18 21  1  0  0  0
 21 22  2  0  0  0
 22 23  1  0  0  0
 23 24  2  0  0  0
 24 25  1  0  0  0
 25 26  2  0  0  0
 10 11  1  0  0  0
 11 12  2  0  0  0
 12 13  1  0  0  0
 13 14  1  0  0  0
 14  2  1  0  0  0
 13  5  2  0  0  0
 12  7  1  0  0  0
 26 21  1  0  0  0
  1 15  1  0  0  0
  1 16  1  0  0  0
  6 17  1  0  0  0
M  END
> <minimizedAffinity>
-7.15147

> <CNNscore>
0.2964751124

> <CNNaffinity>
5.1743531227

> <CNN_VS>
1.5340669155

> <CNNaffinity_variance>
0.1075500473

$$$$
[H]c1c([H])c(OC([H])([H])[H])c2c(c1[H])[C@]([H])(C([H])([H])N(C([H])([H])[H])C([H])([H])C([H])([H])c1c([H])c([H])c3c(c1[H])C([H])([H])N(S(=O)(=O)C([H])([H])[H])C3([H])[H])C([H])([H])C([H])([H])C2([H])[H]


 30 33  0  0  0  0  0  0  0  0999 V2000
  154.6072  138.0214  187.2386 N   0  0  0  0  0  0  0  0  0  0  0  0
  153.4202  138.3925  187.8733 C   0  0  0  0  0  0  0  0  0  0  0  0
  155.8190  137.9821  187.9029 C   0  0  0  0  0  0  0  0  0  0  0  0
  157.6472  134.0683  190.2265 C   0  0  0  0  0  0  0  0  0  0  0  0
  158.3681  133.7380  189.0862 C   0  0  0  0  0  0  0  0  0  0  0  0
  158.2478  134.5675  187.9690 C   0  0  0  0  0  0  0  0  0  0  0  0
  157.4430  135.6960  187.9607 C   0  0  0  0  0  0  0  0  0  0  0  0
  156.7251  136.0233  189.0977 C   0  0  0  0  0  0  0  0  0  0  0  0
  156.8594  135.1955  190.1805 C   0  0  0  0  0  0  0  0  0  0  0  0
  156.0688  135.6350  191.3902 C   0  0  0  0  0  0  0  0  0  0  0  0
  156.4259  137.0992  191.6083 C   0  0  0  0  0  0  0  0  0  0  0  0
  155.9969  137.9432  190.4305 C   0  0  0  0  0  0  0  0  0  0  0  0
  155.8147  137.1833  189.1718 C   0  0  0  0  0  0  0  0  0  0  0  0
  157.2143  131.9735  191.4509 C   0  0  0  0  0  0  0  0  0  0  0  0
  157.6998  133.2992  191.4002 O   0  0  0  0  0  0  0  0  0  0  0  0
  154.5909  137.8160  185.8379 C   0  0  0  0  0  0  0  0  0  0  0  0
  153.9933  138.8908  184.9928 C   0  0  0  0  0  0  0  0  0  0  0  0
  155.0698  139.7278  184.3479 C   0  0  0  0  0  0  0  0  0  0  0  0
  154.8147  140.8308  183.5695 C   0  0  0  0  0  0  0  0  0  0  0  0
  155.8106  141.5700  182.9781 C   0  0  0  0  0  0  0  0  0  0  0  0
  157.1498  141.2268  183.1449 C   0  0  0  0  0  0  0  0  0  0  0  0
  157.4133  140.1346  183.9148 C   0  0  0  0  0  0  0  0  0  0  0  0
  156.3957  139.3821  184.5179 C   0  0  0  0  0  0  0  0  0  0  0  0
  158.8842  139.9210  183.9711 C   0  0  0  0  0  0  0  0  0  0  0  0
  159.4319  141.0769  183.3367 N   0  0  0  0  0  0  0  0  0  0  0  0
  158.4139  141.8047  182.6573 C   0  0  0  0  0  0  0  0  0  0  0  0
  160.1942  142.1437  184.4606 S   0  0  0  0  0  0  0  0  0  0  0  0
  159.5363  141.9497  186.0927 C   0  0  0  0  0  0  0  0  0  0  0  0
  161.6651  141.8421  184.4361 O   0  0  0  0  0  0  0  0  0  0  0  0
  160.0528  143.5670  183.9700 O   0  0  0  0  0  0  0  0  0  0  0  0
 14 15  1  0  0  0
 15  4  1  0  0  0
  4  5  2  0  0  0
  5  6  1  0  0  0
  6  7  2  0  0  0
  7  8  1  0  0  0
  8  9  2  0  0  0
  9 10  1  0  0  0
 10 11  1  0  0  0
 11 12  1  0  0  0
 12 13  1  0  0  0
 13  3  1  0  0  0
  3  1  1  0  0  0
  1  2  1  0  0  0
  1 16  1  0  0  0
 16 17  1  0  0  0
 17 18  1  0  0  0
 18 19  2  0  0  0
 19 20  1  0  0  0
 20 21  2  0  0  0
 21 22  1  0  0  0
 22 23  2  0  0  0
 22 24  1  0  0  0
 24 25  1  0  0  0
 25 27  1  0  0  0
 27 28  1  0  0  0
 27 29  2  0  0  0
 27 30  2  0  0  0
 25 26  1  0  0  0
  9  4  1  0  0  0
 23 18  1  0  0  0
 13  8  1  0  0  0
 26 21  1  0  0  0
M  END
> <minimizedAffinity>
-8.33141

> <CNNscore>
0.6354581118

> <CNNaffinity>
6.4442877769

> <CNN_VS>
4.0950751305

> <CNNaffinity_variance>
0.0422913805

$$$$
[H]c1c([H])c(OC([H])([H])[H])c2c(c1[H])[C@]([H])(C([H])([H])N(C([H])([H])[H])C([H])([H])C([H])([H])c1c([H])c([H])c3c(c1[H])C([H])([H])N(S(=O)(=O)C([H])([H])[H])C3([H])[H])C([H])([H])C([H])([H])C2([H])[H]


 30 33  0  0  0  0  0  0  0  0999 V2000
  154.4908  142.1623  182.5670 N   0  0  0  0  0  0  0  0  0  0  0  0
  154.4511  143.2855  183.3952 C   0  0  0  0  0  0  0  0  0  0  0  0
  155.6755  141.6553  182.0660 C   0  0  0  0  0  0  0  0  0  0  0  0
  159.7574  142.5455  184.6360 C   0  0  0  0  0  0  0  0  0  0  0  0
  159.4648  141.4660  185.4595 C   0  0  0  0  0  0  0  0  0  0  0  0
  158.3032  140.7357  185.1985 C   0  0  0  0  0  0  0  0  0  0  0  0
  157.4434  141.0484  184.1571 C   0  0  0  0  0  0  0  0  0  0  0  0
  157.7364  142.1247  183.3379 C   0  0  0  0  0  0  0  0  0  0  0  0
  158.8806  142.8252  183.6131 C   0  0  0  0  0  0  0  0  0  0  0  0
  159.1461  143.9653  182.6584 C   0  0  0  0  0  0  0  0  0  0  0  0
  159.0359  143.3693  181.2614 C   0  0  0  0  0  0  0  0  0  0  0  0
  157.6407  142.8502  181.0019 C   0  0  0  0  0  0  0  0  0  0  0  0
  156.8632  142.5560  182.2283 C   0  0  0  0  0  0  0  0  0  0  0  0
  161.7888  143.1465  185.8958 C   0  0  0  0  0  0  0  0  0  0  0  0
  160.8997  143.3421  184.8155 O   0  0  0  0  0  0  0  0  0  0  0  0
  153.2680  141.6116  182.1131 C   0  0  0  0  0  0  0  0  0  0  0  0
  153.1783  140.1254  182.0150 C   0  0  0  0  0  0  0  0  0  0  0  0
  151.9679  139.7121  181.2154 C   0  0  0  0  0  0  0  0  0  0  0  0
  151.8356  139.9276  179.8650 C   0  0  0  0  0  0  0  0  0  0  0  0
  150.7168  139.5569  179.1588 C   0  0  0  0  0  0  0  0  0  0  0  0
  149.6455  138.9336  179.7936 C   0  0  0  0  0  0  0  0  0  0  0  0
  149.7667  138.7155  181.1325 C   0  0  0  0  0  0  0  0  0  0  0  0
  150.9095  139.0939  181.8511 C   0  0  0  0  0  0  0  0  0  0  0  0
  148.5323  138.0532  181.6324 C   0  0  0  0  0  0  0  0  0  0  0  0
  147.7941  137.7465  180.4494 N   0  0  0  0  0  0  0  0  0  0  0  0
  148.3441  138.4266  179.3257 C   0  0  0  0  0  0  0  0  0  0  0  0
  147.7853  136.0552  180.1007 S   0  0  0  0  0  0  0  0  0  0  0  0
  146.9345  135.1361  181.3518 C   0  0  0  0  0  0  0  0  0  0  0  0
  147.1258  135.8779  178.7632 O   0  0  0  0  0  0  0  0  0  0  0  0
  149.2089  135.5750  179.9298 O   0  0  0  0  0  0  0  0  0  0  0  0
 14 15  1  0  0  0
 15  4  1  0  0  0
  4  5  2  0  0  0
  5  6  1  0  0  0
  6  7  2  0  0  0
  7  8  1  0  0  0
  8  9  2  0  0  0
  9 10  1  0  0  0
 10 11  1  0  0  0
 11 12  1  0  0  0
 12 13  1  0  0  0
 13  3  1  0  0  0
  3  1  1  0  0  0
  1  2  1  0  0  0
  1 16  1  0  0  0
 16 17  1  0  0  0
 17 18  1  0  0  0
 18 19  2  0  0  0
 19 20  1  0  0  0
 20 21  2  0  0  0
 21 22  1  0  0  0
 22 23  2  0  0  0
 22 24  1  0  0  0
 24 25  1  0  0  0
 25 27  1  0  0  0
 27 28  1  0  0  0
 27 29  2  0  0  0
 27 30  2  0  0  0
 25 26  1  0  0  0
  9  4  1  0  0  0
 23 18  1  0  0  0
 13  8  1  0  0  0
 26 21  1  0  0  0
M  END
> <minimizedAffinity>
-8.52309

> <CNNscore>
0.6141747236

> <CNNaffinity>
6.4819130898

> <CNN_VS>
3.9810271263

> <CNNaffinity_variance>
0.0233643893

$$$$
[H]c1c([H])c(OC([H])([H])[H])c2c(c1[H])[C@]([H])(C([H])([H])N(C([H])([H])[H])C([H])([H])C([H])([H])c1c([H])c([H])c3c(c1[H])C([H])([H])N(S(=O)(=O)C([H])([H])[H])C3([H])[H])C([H])([H])C([H])([H])C2([H])[H]


 30 33  0  0  0  0  0  0  0  0999 V2000
  155.2732  142.0340  182.4285 N   0  0  0  0  0  0  0  0  0  0  0  0
  154.7950  142.7448  183.5309 C   0  0  0  0  0  0  0  0  0  0  0  0
  156.5596  142.1939  181.9479 C   0  0  0  0  0  0  0  0  0  0  0  0
  160.6290  143.3379  184.4359 C   0  0  0  0  0  0  0  0  0  0  0  0
  160.5650  144.6301  183.9307 C   0  0  0  0  0  0  0  0  0  0  0  0
  159.5118  144.9484  183.0704 C   0  0  0  0  0  0  0  0  0  0  0  0
  158.5397  144.0288  182.7089 C   0  0  0  0  0  0  0  0  0  0  0  0
  158.6053  142.7415  183.2129 C   0  0  0  0  0  0  0  0  0  0  0  0
  159.6466  142.4532  184.0546 C   0  0  0  0  0  0  0  0  0  0  0  0
  159.6326  141.0389  184.5852 C   0  0  0  0  0  0  0  0  0  0  0  0
  158.2317  140.8192  185.1403 C   0  0  0  0  0  0  0  0  0  0  0  0
  157.1928  140.9250  184.0480 C   0  0  0  0  0  0  0  0  0  0  0  0
  157.6381  141.6845  182.8565 C   0  0  0  0  0  0  0  0  0  0  0  0
  161.7284  143.3750  186.6415 C   0  0  0  0  0  0  0  0  0  0  0  0
  161.6477  142.9191  185.3069 O   0  0  0  0  0  0  0  0  0  0  0  0
  154.3670  141.2299  181.6959 C   0  0  0  0  0  0  0  0  0  0  0  0
  153.4851  140.3085  182.4703 C   0  0  0  0  0  0  0  0  0  0  0  0
  152.3160  139.8538  181.6327 C   0  0  0  0  0  0  0  0  0  0  0  0
  152.2447  140.0159  180.2703 C   0  0  0  0  0  0  0  0  0  0  0  0
  151.1624  139.6083  179.5285 C   0  0  0  0  0  0  0  0  0  0  0  0
  150.0675  139.0003  180.1372 C   0  0  0  0  0  0  0  0  0  0  0  0
  150.1282  138.8351  181.4877 C   0  0  0  0  0  0  0  0  0  0  0  0
  151.2338  139.2512  182.2428 C   0  0  0  0  0  0  0  0  0  0  0  0
  148.8768  138.1815  181.9559 C   0  0  0  0  0  0  0  0  0  0  0  0
  148.1962  137.8229  180.7530 N   0  0  0  0  0  0  0  0  0  0  0  0
  148.7927  138.4640  179.6302 C   0  0  0  0  0  0  0  0  0  0  0  0
  148.2157  136.1193  180.4704 S   0  0  0  0  0  0  0  0  0  0  0  0
  147.4439  135.7049  178.9320 C   0  0  0  0  0  0  0  0  0  0  0  0
  149.6516  135.6801  180.4854 O   0  0  0  0  0  0  0  0  0  0  0  0
  147.5526  135.4145  181.6323 O   0  0  0  0  0  0  0  0  0  0  0  0
 14 15  1  0  0  0
 15  4  1  0  0  0
  4  5  2  0  0  0
  5  6  1  0  0  0
  6  7  2  0  0  0
  7  8  1  0  0  0
  8  9  2  0  0  0
  9 10  1  0  0  0
 10 11  1  0  0  0
 11 12  1  0  0  0
 12 13  1  0  0  0
 13  3  1  0  0  0
  3  1  1  0  0  0
  1  2  1  0  0  0
  1 16  1  0  0  0
 16 17  1  0  0  0
 17 18  1  0  0  0
 18 19  2  0  0  0
 19 20  1  0  0  0
 20 21  2  0  0  0
 21 22  1  0  0  0
 22 23  2  0  0  0
 22 24  1  0  0  0
 24 25  1  0  0  0
 25 27  1  0  0  0
 27 28  1  0  0  0
 27 29  2  0  0  0
 27 30  2  0  0  0
 25 26  1  0  0  0
  9  4  1  0  0  0
 23 18  1  0  0  0
 13  8  1  0  0  0
 26 21  1  0  0  0
M  END
> <minimizedAffinity>
-8.32447

> <CNNscore>
0.6064274311

> <CNNaffinity>
6.5241851807

> <CNN_VS>
3.9564447403

> <CNNaffinity_variance>
0.0059976503

$$$$
[H]c1c([H])c(OC([H])([H])[H])c2c(c1[H])[C@]([H])(C([H])([H])N(C([H])([H])[H])C([H])([H])C([H])([H])c1c([H])c([H])c3c(c1[H])C([H])([H])N(S(=O)(=O)C([H])([H])[H])C3([H])[H])C([H])([H])C([H])([H])C2([H])[H]


 30 33  0  0  0  0  0  0  0  0999 V2000
  155.0816  140.2776  183.8067 N   0  0  0  0  0  0  0  0  0  0  0  0
  154.5789  141.5179  183.4086 C   0  0  0  0  0  0  0  0  0  0  0  0
  156.4139  139.9388  183.6596 C   0  0  0  0  0  0  0  0  0  0  0  0
  160.0710  143.1030  184.4796 C   0  0  0  0  0  0  0  0  0  0  0  0
  160.1321  142.6778  185.8004 C   0  0  0  0  0  0  0  0  0  0  0  0
  159.2431  141.6825  186.2126 C   0  0  0  0  0  0  0  0  0  0  0  0
  158.3135  141.1115  185.3574 C   0  0  0  0  0  0  0  0  0  0  0  0
  158.2539  141.5368  184.0418 C   0  0  0  0  0  0  0  0  0  0  0  0
  159.1356  142.5131  183.6608 C   0  0  0  0  0  0  0  0  0  0  0  0
  159.0284  142.9021  182.2051 C   0  0  0  0  0  0  0  0  0  0  0  0
  159.0834  141.5967  181.4229 C   0  0  0  0  0  0  0  0  0  0  0  0
  157.9077  140.7105  181.7636 C   0  0  0  0  0  0  0  0  0  0  0  0
  157.2746  141.0147  183.0680 C   0  0  0  0  0  0  0  0  0  0  0  0
  160.5252  145.4511  183.8840 C   0  0  0  0  0  0  0  0  0  0  0  0
  160.9203  144.0974  183.9682 O   0  0  0  0  0  0  0  0  0  0  0  0
  154.1705  139.2861  184.2443 C   0  0  0  0  0  0  0  0  0  0  0  0
  154.7399  138.0648  184.8850 C   0  0  0  0  0  0  0  0  0  0  0  0
  154.6599  138.1600  186.3883 C   0  0  0  0  0  0  0  0  0  0  0  0
  153.5156  138.4931  187.0717 C   0  0  0  0  0  0  0  0  0  0  0  0
  153.4689  138.5898  188.4415 C   0  0  0  0  0  0  0  0  0  0  0  0
  154.6027  138.3493  189.2135 C   0  0  0  0  0  0  0  0  0  0  0  0
  155.7425  138.0183  188.5454 C   0  0  0  0  0  0  0  0  0  0  0  0
  155.7878  137.9198  187.1476 C   0  0  0  0  0  0  0  0  0  0  0  0
  156.8397  137.8081  189.5273 C   0  0  0  0  0  0  0  0  0  0  0  0
  156.1896  137.8591  190.7974 N   0  0  0  0  0  0  0  0  0  0  0  0
  154.8667  138.3686  190.6625 C   0  0  0  0  0  0  0  0  0  0  0  0
  156.0921  136.3069  191.5482 S   0  0  0  0  0  0  0  0  0  0  0  0
  154.4219  135.8828  191.9538 C   0  0  0  0  0  0  0  0  0  0  0  0
  156.6815  135.3101  190.5922 O   0  0  0  0  0  0  0  0  0  0  0  0
  156.9825  136.2885  192.7703 O   0  0  0  0  0  0  0  0  0  0  0  0
 14 15  1  0  0  0
 15  4  1  0  0  0
  4  5  2  0  0  0
  5  6  1  0  0  0
  6  7  2  0  0  0
  7  8  1  0  0  0
  8  9  2  0  0  0
  9 10  1  0  0  0
 10 11  1  0  0  0
 11 12  1  0  0  0
 12 13  1  0  0  0
 13  3  1  0  0  0
  3  1  1  0  0  0
  1  2  1  0  0  0
  1 16  1  0  0  0
 16 17  1  0  0  0
 17 18  1  0  0  0
 18 19  2  0  0  0
 19 20  1  0  0  0
 20 21  2  0  0  0
 21 22  1  0  0  0
 22 23  2  0  0  0
 22 24  1  0  0  0
 24 25  1  0  0  0
 25 27  1  0  0  0
 27 28  1  0  0  0
 27 29  2  0  0  0
 27 30  2  0  0  0
 25 26  1  0  0  0
  9  4  1  0  0  0
 23 18  1  0  0  0
 13  8  1  0  0  0
 26 21  1  0  0  0
M  END
> <minimizedAffinity>
-9.26410

> <CNNscore>
0.6037337780

> <CNNaffinity>
6.6338105202

> <CNN_VS>
4.0050554276

> <CNNaffinity_variance>
0.0464930609

$$$$
[H]c1c([H])c(OC([H])([H])[H])c2c(c1[H])[C@]([H])(C([H])([H])N(C([H])([H])[H])C([H])([H])C([H])([H])c1c([H])c([H])c3c(c1[H])C([H])([H])N(S(=O)(=O)C([H])([H])[H])C3([H])[H])C([H])([H])C([H])([H])C2([H])[H]


 30 33  0  0  0  0  0  0  0  0999 V2000
  155.1701  142.4587  182.5653 N   0  0  0  0  0  0  0  0  0  0  0  0
  154.8291  143.2545  183.6605 C   0  0  0  0  0  0  0  0  0  0  0  0
  156.2743  142.7221  181.7760 C   0  0  0  0  0  0  0  0  0  0  0  0
  160.5005  142.0612  184.1762 C   0  0  0  0  0  0  0  0  0  0  0  0
  160.3530  140.6868  184.0414 C   0  0  0  0  0  0  0  0  0  0  0  0
  159.2231  140.2091  183.3737 C   0  0  0  0  0  0  0  0  0  0  0  0
  158.2560  141.0510  182.8471 C   0  0  0  0  0  0  0  0  0  0  0  0
  158.4045  142.4203  182.9828 C   0  0  0  0  0  0  0  0  0  0  0  0
  159.5204  142.8649  183.6407 C   0  0  0  0  0  0  0  0  0  0  0  0
  159.6255  144.3696  183.7222 C   0  0  0  0  0  0  0  0  0  0  0  0
  159.4313  144.8755  182.2991 C   0  0  0  0  0  0  0  0  0  0  0  0
  158.0555  144.5247  181.7819 C   0  0  0  0  0  0  0  0  0  0  0  0
  157.4104  143.3933  182.4881 C   0  0  0  0  0  0  0  0  0  0  0  0
  161.6579  142.7608  186.2368 C   0  0  0  0  0  0  0  0  0  0  0  0
  161.5998  142.6403  184.8304 O   0  0  0  0  0  0  0  0  0  0  0  0
  154.2773  141.4341  182.1680 C   0  0  0  0  0  0  0  0  0  0  0  0
  154.2051  140.2152  183.0255 C   0  0  0  0  0  0  0  0  0  0  0  0
  153.0907  139.3052  182.5727 C   0  0  0  0  0  0  0  0  0  0  0  0
  152.8491  138.0664  183.1155 C   0  0  0  0  0  0  0  0  0  0  0  0
  151.8376  137.2466  182.6767 C   0  0  0  0  0  0  0  0  0  0  0  0
  150.9952  137.6433  181.6412 C   0  0  0  0  0  0  0  0  0  0  0  0
  151.2264  138.8698  181.0962 C   0  0  0  0  0  0  0  0  0  0  0  0
  152.2587  139.7050  181.5458 C   0  0  0  0  0  0  0  0  0  0  0  0
  150.2407  139.1143  180.0095 C   0  0  0  0  0  0  0  0  0  0  0  0
  149.3266  138.0222  180.1116 N   0  0  0  0  0  0  0  0  0  0  0  0
  149.8496  137.0099  180.9657 C   0  0  0  0  0  0  0  0  0  0  0  0
  147.7905  138.5075  180.7338 S   0  0  0  0  0  0  0  0  0  0  0  0
  147.1977  137.3775  181.9610 C   0  0  0  0  0  0  0  0  0  0  0  0
  147.9558  139.8850  181.3085 O   0  0  0  0  0  0  0  0  0  0  0  0
  146.8121  138.6485  179.5894 O   0  0  0  0  0  0  0  0  0  0  0  0
 14 15  1  0  0  0
 15  4  1  0  0  0
  4  5  2  0  0  0
  5  6  1  0  0  0
  6  7  2  0  0  0
  7  8  1  0  0  0
  8  9  2  0  0  0
  9 10  1  0  0  0
 10 11  1  0  0  0
 11 12  1  0  0  0
 12 13  1  0  0  0
 13  3  1  0  0  0
  3  1  1  0  0  0
  1  2  1  0  0  0
  1 16  1  0  0  0
 16 17  1  0  0  0
 17 18  1  0  0  0
 18 19  2  0  0  0
 19 20  1  0  0  0
 20 21  2  0  0  0
 21 22  1  0  0  0
 22 23  2  0  0  0
 22 24  1  0  0  0
 24 25  1  0  0  0
 25 27  1  0  0  0
 27 28  1  0  0  0
 27 29  2  0  0  0
 27 30  2  0  0  0
 25 26  1  0  0  0
  9  4  1  0  0  0
 23 18  1  0  0  0
 13  8  1  0  0  0
 26 21  1  0  0  0
M  END
> <minimizedAffinity>
-7.77208

> <CNNscore>
0.5888034105

> <CNNaffinity>
6.5976381302

> <CNN_VS>
3.8847117424

> <CNNaffinity_variance>
0.0148899797

$$$$
[H]c1c([H])c(OC([H])([H])[H])c2c(c1[H])[C@]([H])(C([H])([H])N(C([H])([H])[H])C([H])([H])C([H])([H])c1c([H])c([H])c3c(c1[H])C([H])([H])N(S(=O)(=O)C([H])([H])[H])C3([H])[H])C([H])([H])C([H])([H])C2([H])[H]


 30 33  0  0  0  0  0  0  0  0999 V2000
  154.5115  138.4349  186.0469 N   0  0  0  0  0  0  0  0  0  0  0  0
  153.2826  138.5139  186.7048 C   0  0  0  0  0  0  0  0  0  0  0  0
  155.7091  138.3270  186.7293 C   0  0  0  0  0  0  0  0  0  0  0  0
  156.5382  135.5531  190.6887 C   0  0  0  0  0  0  0  0  0  0  0  0
  156.4114  136.6779  191.4935 C   0  0  0  0  0  0  0  0  0  0  0  0
  156.1419  137.9013  190.8759 C   0  0  0  0  0  0  0  0  0  0  0  0
  155.9982  138.0285  189.5031 C   0  0  0  0  0  0  0  0  0  0  0  0
  156.1253  136.9067  188.7028 C   0  0  0  0  0  0  0  0  0  0  0  0
  156.3890  135.7185  189.3309 C   0  0  0  0  0  0  0  0  0  0  0  0
  156.4843  134.5375  188.3939 C   0  0  0  0  0  0  0  0  0  0  0  0
  155.2263  134.5865  187.5372 C   0  0  0  0  0  0  0  0  0  0  0  0
  155.1852  135.8478  186.7059 C   0  0  0  0  0  0  0  0  0  0  0  0
  156.0253  136.9496  187.2304 C   0  0  0  0  0  0  0  0  0  0  0  0
  155.7851  133.3386  191.4657 C   0  0  0  0  0  0  0  0  0  0  0  0
  156.8088  134.2786  191.2124 O   0  0  0  0  0  0  0  0  0  0  0  0
  154.5410  138.6130  184.6427 C   0  0  0  0  0  0  0  0  0  0  0  0
  154.1397  139.9482  184.1109 C   0  0  0  0  0  0  0  0  0  0  0  0
  155.3512  140.7544  183.7141 C   0  0  0  0  0  0  0  0  0  0  0  0
  155.2920  142.0560  183.2784 C   0  0  0  0  0  0  0  0  0  0  0  0
  156.4073  142.7672  182.9065 C   0  0  0  0  0  0  0  0  0  0  0  0
  157.6728  142.1882  182.9558 C   0  0  0  0  0  0  0  0  0  0  0  0
  157.7422  140.8979  183.3863 C   0  0  0  0  0  0  0  0  0  0  0  0
  156.6031  140.1743  183.7659 C   0  0  0  0  0  0  0  0  0  0  0  0
  159.1610  140.4521  183.3643 C   0  0  0  0  0  0  0  0  0  0  0  0
  159.8982  141.6396  183.0727 N   0  0  0  0  0  0  0  0  0  0  0  0
  159.0252  142.6761  182.6354 C   0  0  0  0  0  0  0  0  0  0  0  0
  160.7762  142.2204  184.4417 S   0  0  0  0  0  0  0  0  0  0  0  0
  160.7508  143.9883  184.5303 C   0  0  0  0  0  0  0  0  0  0  0  0
  160.1506  141.6132  185.6644 O   0  0  0  0  0  0  0  0  0  0  0  0
  162.1902  141.6869  184.3889 O   0  0  0  0  0  0  0  0  0  0  0  0
 14 15  1  0  0  0
 15  4  1  0  0  0
  4  5  2  0  0  0
  5  6  1  0  0  0
  6  7  2  0  0  0
  7  8  1  0  0  0
  8  9  2  0  0  0
  9 10  1  0  0  0
 10 11  1  0  0  0
 11 12  1  0  0  0
 12 13  1  0  0  0
 13  3  1  0  0  0
  3  1  1  0  0  0
  1  2  1  0  0  0
  1 16  1  0  0  0
 16 17  1  0  0  0
 17 18  1  0  0  0
 18 19  2  0  0  0
 19 20  1  0  0  0
 20 21  2  0  0  0
 21 22  1  0  0  0
 22 23  2  0  0  0
 22 24  1  0  0  0
 24 25  1  0  0  0
 25 27  1  0  0  0
 27 28  1  0  0  0
 27 29  2  0  0  0
 27 30  2  0  0  0
 25 26  1  0  0  0
  9  4  1  0  0  0
 23 18  1  0  0  0
 13  8  1  0  0  0
 26 21  1  0  0  0
M  END
> <minimizedAffinity>
-7.96052

> <CNNscore>
0.5779895782

> <CNNaffinity>
6.4474763870

> <CNN_VS>
3.7265741825

> <CNNaffinity_variance>
0.0101422761

$$$$
[H]c1c([H])c(OC([H])([H])[H])c2c(c1[H])[C@]([H])(C([H])([H])N(C([H])([H])[H])C([H])([H])C([H])([H])c1c([H])c([H])c3c(c1[H])C([H])([H])N(S(=O)(=O)C([H])([H])[H])C3([H])[H])C([H])([H])C([H])([H])C2([H])[H]


 30 33  0  0  0  0  0  0  0  0999 V2000
  154.4274  138.1906  186.3340 N   0  0  0  0  0  0  0  0  0  0  0  0
  153.2237  138.8394  186.6158 C   0  0  0  0  0  0  0  0  0  0  0  0
  155.0783  137.4037  187.2659 C   0  0  0  0  0  0  0  0  0  0  0  0
  152.9087  136.7106  191.6100 C   0  0  0  0  0  0  0  0  0  0  0  0
  152.1646  135.6729  191.0638 C   0  0  0  0  0  0  0  0  0  0  0  0
  152.3623  135.3598  189.7172 C   0  0  0  0  0  0  0  0  0  0  0  0
  153.2661  136.0418  188.9174 C   0  0  0  0  0  0  0  0  0  0  0  0
  154.0064  137.0758  189.4633 C   0  0  0  0  0  0  0  0  0  0  0  0
  153.7956  137.3641  190.7855 C   0  0  0  0  0  0  0  0  0  0  0  0
  154.6608  138.4837  191.3145 C   0  0  0  0  0  0  0  0  0  0  0  0
  156.0871  138.1271  190.9178 C   0  0  0  0  0  0  0  0  0  0  0  0
  156.2369  138.0832  189.4148 C   0  0  0  0  0  0  0  0  0  0  0  0
  154.9649  137.8826  188.6822 C   0  0  0  0  0  0  0  0  0  0  0  0
  151.8536  136.4968  193.8272 C   0  0  0  0  0  0  0  0  0  0  0  0
  152.7831  137.1024  192.9526 O   0  0  0  0  0  0  0  0  0  0  0  0
  155.0713  138.4621  185.1026 C   0  0  0  0  0  0  0  0  0  0  0  0
  154.5690  139.6190  184.3052 C   0  0  0  0  0  0  0  0  0  0  0  0
  155.7000  140.5434  183.9290 C   0  0  0  0  0  0  0  0  0  0  0  0
  155.5160  141.8049  183.4166 C   0  0  0  0  0  0  0  0  0  0  0  0
  156.5612  142.6247  183.0656 C   0  0  0  0  0  0  0  0  0  0  0  0
  157.8803  142.2048  183.2167 C   0  0  0  0  0  0  0  0  0  0  0  0
  158.0734  140.9556  183.7239 C   0  0  0  0  0  0  0  0  0  0  0  0
  157.0056  140.1208  184.0820 C   0  0  0  0  0  0  0  0  0  0  0  0
  159.5333  140.6824  183.8046 C   0  0  0  0  0  0  0  0  0  0  0  0
  160.1432  141.9334  183.4857 N   0  0  0  0  0  0  0  0  0  0  0  0
  159.1835  142.8343  182.9428 C   0  0  0  0  0  0  0  0  0  0  0  0
  160.8627  142.6838  184.8647 S   0  0  0  0  0  0  0  0  0  0  0  0
  159.9655  142.3202  186.3470 C   0  0  0  0  0  0  0  0  0  0  0  0
  162.2764  142.1861  184.9578 O   0  0  0  0  0  0  0  0  0  0  0  0
  160.9607  144.1737  184.6259 O   0  0  0  0  0  0  0  0  0  0  0  0
 14 15  1  0  0  0
 15  4  1  0  0  0
  4  5  2  0  0  0
  5  6  1  0  0  0
  6  7  2  0  0  0
  7  8  1  0  0  0
  8  9  2  0  0  0
  9 10  1  0  0  0
 10 11  1  0  0  0
 11 12  1  0  0  0
 12 13  1  0  0  0
 13  3  1  0  0  0
  3  1  1  0  0  0
  1  2  1  0  0  0
  1 16  1  0  0  0
 16 17  1  0  0  0
 17 18  1  0  0  0
 18 19  2  0  0  0
 19 20  1  0  0  0
 20 21  2  0  0  0
 21 22  1  0  0  0
 22 23  2  0  0  0
 22 24  1  0  0  0
 24 25  1  0  0  0
 25 27  1  0  0  0
 27 28  1  0  0  0
 27 29  2  0  0  0
 27 30  2  0  0  0
 25 26  1  0  0  0
  9  4  1  0  0  0
 23 18  1  0  0  0
 13  8  1  0  0  0
 26 21  1  0  0  0
M  END
> <minimizedAffinity>
-8.66047

> <CNNscore>
0.5699788332

> <CNNaffinity>
6.3469324112

> <CNN_VS>
3.6176171303

> <CNNaffinity_variance>
0.0355755053

$$$$
[H]c1c([H])c(OC([H])([H])[H])c2c(c1[H])[C@]([H])(C([H])([H])N(C([H])([H])[H])C([H])([H])C([H])([H])c1c([H])c([H])c3c(c1[H])C([H])([H])N(S(=O)(=O)C([H])([H])[H])C3([H])[H])C([H])([H])C([H])([H])C2([H])[H]


 30 33  0  0  0  0  0  0  0  0999 V2000
  156.4584  143.0004  181.8692 N   0  0  0  0  0  0  0  0  0  0  0  0
  156.1614  144.2752  182.3548 C   0  0  0  0  0  0  0  0  0  0  0  0
  157.7171  142.6597  181.4096 C   0  0  0  0  0  0  0  0  0  0  0  0
  161.1385  143.0623  184.9011 C   0  0  0  0  0  0  0  0  0  0  0  0
  161.1881  144.4331  184.6833 C   0  0  0  0  0  0  0  0  0  0  0  0
  160.3505  144.9742  183.7054 C   0  0  0  0  0  0  0  0  0  0  0  0
  159.4815  144.1981  182.9545 C   0  0  0  0  0  0  0  0  0  0  0  0
  159.4339  142.8323  183.1726 C   0  0  0  0  0  0  0  0  0  0  0  0
  160.2639  142.3248  184.1366 C   0  0  0  0  0  0  0  0  0  0  0  0
  160.1326  140.8332  184.3356 C   0  0  0  0  0  0  0  0  0  0  0  0
  158.6437  140.5693  184.5159 C   0  0  0  0  0  0  0  0  0  0  0  0
  157.8712  140.9508  183.2745 C   0  0  0  0  0  0  0  0  0  0  0  0
  158.5685  141.9206  182.3981 C   0  0  0  0  0  0  0  0  0  0  0  0
  162.2945  143.0448  187.0779 C   0  0  0  0  0  0  0  0  0  0  0  0
  161.9400  142.4223  185.8602 O   0  0  0  0  0  0  0  0  0  0  0  0
  155.4012  142.0719  181.7121 C   0  0  0  0  0  0  0  0  0  0  0  0
  154.4779  141.8801  182.8685 C   0  0  0  0  0  0  0  0  0  0  0  0
  153.7323  140.5743  182.7495 C   0  0  0  0  0  0  0  0  0  0  0  0
  153.9103  139.5135  183.6043 C   0  0  0  0  0  0  0  0  0  0  0  0
  153.2317  138.3266  183.4680 C   0  0  0  0  0  0  0  0  0  0  0  0
  152.3147  138.1426  182.4363 C   0  0  0  0  0  0  0  0  0  0  0  0
  152.1311  139.1883  181.5832 C   0  0  0  0  0  0  0  0  0  0  0  0
  152.8240  140.3987  181.7245 C   0  0  0  0  0  0  0  0  0  0  0  0
  151.1298  138.8062  180.5518 C   0  0  0  0  0  0  0  0  0  0  0  0
  150.6287  137.5459  180.9981 N   0  0  0  0  0  0  0  0  0  0  0  0
  151.4500  137.0195  182.0354 C   0  0  0  0  0  0  0  0  0  0  0  0
  149.0130  137.6567  181.5979 S   0  0  0  0  0  0  0  0  0  0  0  0
  148.6513  136.3543  182.7411 C   0  0  0  0  0  0  0  0  0  0  0  0
  148.8706  139.0004  182.2532 O   0  0  0  0  0  0  0  0  0  0  0  0
  148.0488  137.6573  180.4330 O   0  0  0  0  0  0  0  0  0  0  0  0
 14 15  1  0  0  0
 15  4  1  0  0  0
  4  5  2  0  0  0
  5  6  1  0  0  0
  6  7  2  0  0  0
  7  8  1  0  0  0
  8  9  2  0  0  0
  9 10  1  0  0  0
 10 11  1  0  0  0
 11 12  1  0  0  0
 12 13  1  0  0  0
 13  3  1  0  0  0
  3  1  1  0  0  0
  1  2  1  0  0  0
  1 16  1  0  0  0
 16 17  1  0  0  0
 17 18  1  0  0  0
 18 19  2  0  0  0
 19 20  1  0  0  0
 20 21  2  0  0  0
 21 22  1  0  0  0
 22 23  2  0  0  0
 22 24  1  0  0  0
 24 25  1  0  0  0
 25 27  1  0  0  0
 27 28  1  0  0  0
 27 29  2  0  0  0
 27 30  2  0  0  0
 25 26  1  0  0  0
  9  4  1  0  0  0
 23 18  1  0  0  0
 13  8  1  0  0  0
 26 21  1  0  0  0
M  END
> <minimizedAffinity>
-8.43313

> <CNNscore>
0.5081799626

> <CNNaffinity>
6.7495832443

> <CNN_VS>
3.4300029278

> <CNNaffinity_variance>
0.0167983528

$$$$
[H]c1c([H])c(OC([H])([H])[H])c2c(c1[H])[C@]([H])(C([H])([H])N(C([H])([H])[H])C([H])([H])C([H])([H])c1c([H])c([H])c3c(c1[H])C([H])([H])N(S(=O)(=O)C([H])([H])[H])C3([H])[H])C([H])([H])C([H])([H])C2([H])[H]


 30 33  0  0  0  0  0  0  0  0999 V2000
  153.7258  138.2645  184.6562 N   0  0  0  0  0  0  0  0  0  0  0  0
  153.6374  137.3370  183.6165 C   0  0  0  0  0  0  0  0  0  0  0  0
  154.0050  139.6001  184.4330 C   0  0  0  0  0  0  0  0  0  0  0  0
  156.9538  142.8943  182.3089 C   0  0  0  0  0  0  0  0  0  0  0  0
  155.8862  143.7777  182.2152 C   0  0  0  0  0  0  0  0  0  0  0  0
  154.6458  143.3646  182.7065 C   0  0  0  0  0  0  0  0  0  0  0  0
  154.4473  142.1174  183.2780 C   0  0  0  0  0  0  0  0  0  0  0  0
  155.5123  141.2383  183.3702 C   0  0  0  0  0  0  0  0  0  0  0  0
  156.7185  141.6657  182.8823 C   0  0  0  0  0  0  0  0  0  0  0  0
  157.8362  140.6628  183.0455 C   0  0  0  0  0  0  0  0  0  0  0  0
  157.8070  140.2455  184.5098 C   0  0  0  0  0  0  0  0  0  0  0  0
  156.5038  139.5616  184.8528 C   0  0  0  0  0  0  0  0  0  0  0  0
  155.3896  139.8771  183.9287 C   0  0  0  0  0  0  0  0  0  0  0  0
  158.5588  143.2267  180.4682 C   0  0  0  0  0  0  0  0  0  0  0  0
  158.2397  143.2144  181.8443 O   0  0  0  0  0  0  0  0  0  0  0  0
  153.6670  137.7944  185.9904 C   0  0  0  0  0  0  0  0  0  0  0  0
  153.3240  138.7841  187.0531 C   0  0  0  0  0  0  0  0  0  0  0  0
  153.5493  138.1989  188.4249 C   0  0  0  0  0  0  0  0  0  0  0  0
  154.5924  138.5559  189.2447 C   0  0  0  0  0  0  0  0  0  0  0  0
  154.7879  137.9981  190.4851 C   0  0  0  0  0  0  0  0  0  0  0  0
  153.9197  137.0264  190.9762 C   0  0  0  0  0  0  0  0  0  0  0  0
  152.8823  136.6653  190.1709 C   0  0  0  0  0  0  0  0  0  0  0  0
  152.6842  137.2361  188.9059 C   0  0  0  0  0  0  0  0  0  0  0  0
  152.0749  135.6202  190.8550 C   0  0  0  0  0  0  0  0  0  0  0  0
  152.6224  135.5589  192.1722 N   0  0  0  0  0  0  0  0  0  0  0  0
  153.8599  136.2607  192.2331 C   0  0  0  0  0  0  0  0  0  0  0  0
  151.5632  136.2366  193.3559 S   0  0  0  0  0  0  0  0  0  0  0  0
  151.5904  135.3081  194.8629 C   0  0  0  0  0  0  0  0  0  0  0  0
  152.0031  137.6531  193.5908 O   0  0  0  0  0  0  0  0  0  0  0  0
  150.1668  136.3241  192.7823 O   0  0  0  0  0  0  0  0  0  0  0  0
 14 15  1  0  0  0
 15  4  1  0  0  0
  4  5  2  0  0  0
  5  6  1  0  0  0
  6  7  2  0  0  0
  7  8  1  0  0  0
  8  9  2  0  0  0
  9 10  1  0  0  0
 10 11  1  0  0  0
 11 12  1  0  0  0
 12 13  1  0  0  0
 13  3  1  0  0  0
  3  1  1  0  0  0
  1  2  1  0  0  0
  1 16  1  0  0  0
 16 17  1  0  0  0
 17 18  1  0  0  0
 18 19  2  0  0  0
 19 20  1  0  0  0
 20 21  2  0  0  0
 21 22  1  0  0  0
 22 23  2  0  0  0
 22 24  1  0  0  0
 24 25  1  0  0  0
 25 27  1  0  0  0
 27 28  1  0  0  0
 27 29  2  0  0  0
 27 30  2  0  0  0
 25 26  1  0  0  0
  9  4  1  0  0  0
 23 18  1  0  0  0
 13  8  1  0  0  0
 26 21  1  0  0  0
M  END
> <minimizedAffinity>
-8.68474

> <CNNscore>
0.4853845537

> <CNNaffinity>
5.9819107056

> <CNN_VS>
2.9035270214

> <CNNaffinity_variance>
0.0736566409

$$$$
[H]N=C(c1c([H])c([H])c(C([H])([H])N([H])C(=O)C2([H])N3C(=O)[C@](O[H])(C([H])([H])c4c([H])c([H])c([H])c([H])c4[H])C([H])([H])C([H])([H])[C@]3([H])C([H])([H])C2([H])[H])c([H])c1[H])N([H])[H]


 36 39  0  0  0  0  0  0  0  0999 V2000
  157.1352  141.0565  181.8387 C   0  0  0  0  0  0  0  0  0  0  0  0
  157.6054  141.2425  180.4116 C   0  0  0  0  0  0  0  0  0  0  0  0
  158.1138  142.6753  180.4597 C   0  0  0  0  0  0  0  0  0  0  0  0
  158.9025  142.6619  181.7491 C   0  0  0  0  0  0  0  0  0  0  0  0
  159.0045  144.0318  182.3655 C   0  0  0  0  0  0  0  0  0  0  0  0
  159.5932  143.9831  183.7369 C   0  0  0  0  0  0  0  0  0  0  0  0
  159.7026  142.6015  184.3187 C   0  0  0  0  0  0  0  0  0  0  0  0
  160.8209  141.9223  183.8063 O   0  0  0  0  0  0  0  0  0  0  0  0
  158.4483  141.8651  184.0118 C   0  0  0  0  0  0  0  0  0  0  0  0
  157.7085  141.3287  184.8573 O   0  0  0  0  0  0  0  0  0  0  0  0
  158.1004  141.7902  182.6216 N   0  0  0  0  0  0  0  0  0  0  0  0
  161.5169  142.6339  183.6809 H   0  0  0  0  0  0  0  0  0  0  0  0
  154.6560  140.8356  181.7608 N   0  0  0  0  0  0  0  0  0  0  0  0
  155.7732  141.6965  181.9125 C   0  0  0  0  0  0  0  0  0  0  0  0
  155.6218  142.9115  182.0956 O   0  0  0  0  0  0  0  0  0  0  0  0
  154.7699  139.7937  181.6022 H   0  0  0  0  0  0  0  0  0  0  0  0
  153.2796  141.2975  181.8090 C   0  0  0  0  0  0  0  0  0  0  0  0
  150.6963  137.9599  181.1712 C   0  0  0  0  0  0  0  0  0  0  0  0
  150.6060  139.0915  180.4097 C   0  0  0  0  0  0  0  0  0  0  0  0
  151.4283  140.1996  180.5824 C   0  0  0  0  0  0  0  0  0  0  0  0
  152.3762  140.1547  181.5653 C   0  0  0  0  0  0  0  0  0  0  0  0
  152.4900  139.0321  182.3451 C   0  0  0  0  0  0  0  0  0  0  0  0
  151.6684  137.9266  182.1714 C   0  0  0  0  0  0  0  0  0  0  0  0
  149.6717  135.8463  181.8022 N   0  0  0  0  0  0  0  0  0  0  0  0
  149.8255  136.8102  180.9750 C   0  0  0  0  0  0  0  0  0  0  0  0
  149.0543  136.7083  179.7647 N   0  0  0  0  0  0  0  0  0  0  0  0
  150.1916  135.8491  182.6927 H   0  0  0  0  0  0  0  0  0  0  0  0
  148.3167  137.4098  179.5430 H   0  0  0  0  0  0  0  0  0  0  0  0
  149.2494  135.9172  179.1139 H   0  0  0  0  0  0  0  0  0  0  0  0
  159.9220  142.7072  185.8094 C   0  0  0  0  0  0  0  0  0  0  0  0
  161.3279  142.6212  186.1981 C   0  0  0  0  0  0  0  0  0  0  0  0
  162.3566  142.4351  185.2957 C   0  0  0  0  0  0  0  0  0  0  0  0
  163.6787  142.3556  185.7034 C   0  0  0  0  0  0  0  0  0  0  0  0
  164.0007  142.4617  187.0386 C   0  0  0  0  0  0  0  0  0  0  0  0
  162.9993  142.6458  187.9460 C   0  0  0  0  0  0  0  0  0  0  0  0
  161.6729  142.7248  187.5287 C   0  0  0  0  0  0  0  0  0  0  0  0
 24 25  2  0  0  0
 25 26  1  0  0  0
 25 18  1  0  0  0
 18 19  2  0  0  0
 19 20  1  0  0  0
 20 21  2  0  0  0
 21 17  1  0  0  0
 17 13  1  0  0  0
 13 14  1  0  0  0
 14 15  2  0  0  0
 14  1  1  0  0  0
  1  2  1  0  0  0
  2  3  1  0  0  0
  3  4  1  0  0  0
  4  5  1  0  0  0
  5  6  1  0  0  0
  6  7  1  0  0  0
  7  8  1  0  0  0
  7 30  1  0  0  0
 30 31  1  0  0  0
 31 32  2  0  0  0
 32 33  1  0  0  0
 33 34  2  0  0  0
 34 35  1  0  0  0
 35 36  2  0  0  0
  7  9  1  0  0  0
  9 10  2  0  0  0
  9 11  1  0  0  0
 21 22  1  0  0  0
 22 23  2  0  0  0
 23 18  1  0  0  0
 11  1  1  0  0  0
 11  4  1  0  0  0
 36 31  1  0  0  0
 24 27  1  0  0  0
 26 28  1  0  0  0
 26 29  1  0  0  0
 13 16  1  0  0  0
  8 12  1  0  0  0
M  END
> <minimizedAffinity>
-9.01821

> <CNNscore>
0.4296818376

> <CNNaffinity>
6.1871356964

> <CNN_VS>
2.6584997177

> <CNNaffinity_variance>
0.0737222880

$$$$
[H]N=C(c1c([H])c([H])c(C([H])([H])N([H])C(=O)C2([H])N3C(=O)[C@](O[H])(C([H])([H])c4c([H])c([H])c([H])c([H])c4[H])C([H])([H])C([H])([H])[C@]3([H])C([H])([H])C2([H])[H])c([H])c1[H])N([H])[H]


 36 39  0  0  0  0  0  0  0  0999 V2000
  153.7289  136.0922  186.4238 C   0  0  0  0  0  0  0  0  0  0  0  0
  154.2194  137.2053  185.5224 C   0  0  0  0  0  0  0  0  0  0  0  0
  154.0752  138.4071  186.4436 C   0  0  0  0  0  0  0  0  0  0  0  0
  154.6634  137.8642  187.7258 C   0  0  0  0  0  0  0  0  0  0  0  0
  154.1215  138.5688  188.9409 C   0  0  0  0  0  0  0  0  0  0  0  0
  154.5356  137.8940  190.2070 C   0  0  0  0  0  0  0  0  0  0  0  0
  155.1528  136.5369  190.0160 C   0  0  0  0  0  0  0  0  0  0  0  0
  156.4979  136.6419  189.6232 O   0  0  0  0  0  0  0  0  0  0  0  0
  154.3585  135.8020  188.9967 C   0  0  0  0  0  0  0  0  0  0  0  0
  153.8294  134.6883  189.1686 O   0  0  0  0  0  0  0  0  0  0  0  0
  154.2154  136.4629  187.7310 N   0  0  0  0  0  0  0  0  0  0  0  0
  156.8418  137.4529  190.1034 H   0  0  0  0  0  0  0  0  0  0  0  0
  151.5358  136.0461  187.6027 N   0  0  0  0  0  0  0  0  0  0  0  0
  152.2243  136.1455  186.3664 C   0  0  0  0  0  0  0  0  0  0  0  0
  151.6065  136.2693  185.3007 O   0  0  0  0  0  0  0  0  0  0  0  0
  152.0511  135.9384  188.5230 H   0  0  0  0  0  0  0  0  0  0  0  0
  150.0881  136.0827  187.7158 C   0  0  0  0  0  0  0  0  0  0  0  0
  148.8575  134.1790  191.3326 C   0  0  0  0  0  0  0  0  0  0  0  0
  150.0650  134.8114  191.2309 C   0  0  0  0  0  0  0  0  0  0  0  0
  150.5036  135.4452  190.0734 C   0  0  0  0  0  0  0  0  0  0  0  0
  149.6842  135.4349  188.9802 C   0  0  0  0  0  0  0  0  0  0  0  0
  148.4664  134.8080  189.0530 C   0  0  0  0  0  0  0  0  0  0  0  0
  148.0299  134.1757  190.2092 C   0  0  0  0  0  0  0  0  0  0  0  0
  148.7521  133.8582  193.7411 N   0  0  0  0  0  0  0  0  0  0  0  0
  148.4166  133.5206  192.5535 C   0  0  0  0  0  0  0  0  0  0  0  0
  147.5285  132.3921  192.4647 N   0  0  0  0  0  0  0  0  0  0  0  0
  149.3865  134.6582  193.8851 H   0  0  0  0  0  0  0  0  0  0  0  0
  146.5676  132.5003  192.0772 H   0  0  0  0  0  0  0  0  0  0  0  0
  147.8672  131.4634  192.7966 H   0  0  0  0  0  0  0  0  0  0  0  0
  155.1569  135.8036  191.3366 C   0  0  0  0  0  0  0  0  0  0  0  0
  153.9647  136.0524  192.1439 C   0  0  0  0  0  0  0  0  0  0  0  0
  153.3726  135.0933  192.9419 C   0  0  0  0  0  0  0  0  0  0  0  0
  152.2396  135.3667  193.6916 C   0  0  0  0  0  0  0  0  0  0  0  0
  151.6702  136.6206  193.6566 C   0  0  0  0  0  0  0  0  0  0  0  0
  152.2397  137.5820  192.8747 C   0  0  0  0  0  0  0  0  0  0  0  0
  153.3784  137.2999  192.1240 C   0  0  0  0  0  0  0  0  0  0  0  0
 24 25  2  0  0  0
 25 26  1  0  0  0
 25 18  1  0  0  0
 18 19  2  0  0  0
 19 20  1  0  0  0
 20 21  2  0  0  0
 21 17  1  0  0  0
 17 13  1  0  0  0
 13 14  1  0  0  0
 14 15  2  0  0  0
 14  1  1  0  0  0
  1  2  1  0  0  0
  2  3  1  0  0  0
  3  4  1  0  0  0
  4  5  1  0  0  0
  5  6  1  0  0  0
  6  7  1  0  0  0
  7  8  1  0  0  0
  7 30  1  0  0  0
 30 31  1  0  0  0
 31 32  2  0  0  0
 32 33  1  0  0  0
 33 34  2  0  0  0
 34 35  1  0  0  0
 35 36  2  0  0  0
  7  9  1  0  0  0
  9 10  2  0  0  0
  9 11  1  0  0  0
 21 22  1  0  0  0
 22 23  2  0  0  0
 23 18  1  0  0  0
 11  1  1  0  0  0
 11  4  1  0  0  0
 36 31  1  0  0  0
 24 27  1  0  0  0
 26 28  1  0  0  0
 26 29  1  0  0  0
 13 16  1  0  0  0
  8 12  1  0  0  0
M  END
> <minimizedAffinity>
-6.27686

> <CNNscore>
0.3706000745

> <CNNaffinity>
4.9299755096

> <CNN_VS>
1.8270492554

> <CNNaffinity_variance>
0.5074853897

$$$$
[H]N=C(c1c([H])c([H])c(C([H])([H])N([H])C(=O)C2([H])N3C(=O)[C@](O[H])(C([H])([H])c4c([H])c([H])c([H])c([H])c4[H])C([H])([H])C([H])([H])[C@]3([H])C([H])([H])C2([H])[H])c([H])c1[H])N([H])[H]


 36 39  0  0  0  0  0  0  0  0999 V2000
  153.9117  136.0517  186.8659 C   0  0  0  0  0  0  0  0  0  0  0  0
  154.6421  137.0343  185.9753 C   0  0  0  0  0  0  0  0  0  0  0  0
  154.6102  138.2857  186.8394 C   0  0  0  0  0  0  0  0  0  0  0  0
  154.9984  137.7201  188.1863 C   0  0  0  0  0  0  0  0  0  0  0  0
  154.4734  138.5547  189.3242 C   0  0  0  0  0  0  0  0  0  0  0  0
  154.6711  137.8846  190.6439 C   0  0  0  0  0  0  0  0  0  0  0  0
  155.0840  136.4422  190.5540 C   0  0  0  0  0  0  0  0  0  0  0  0
  156.4569  136.3235  190.2796 O   0  0  0  0  0  0  0  0  0  0  0  0
  154.2727  135.7896  189.4930 C   0  0  0  0  0  0  0  0  0  0  0  0
  153.5647  134.7783  189.6539 O   0  0  0  0  0  0  0  0  0  0  0  0
  154.3395  136.4048  188.1983 N   0  0  0  0  0  0  0  0  0  0  0  0
  156.8815  137.0944  190.7613 H   0  0  0  0  0  0  0  0  0  0  0  0
  151.9850  136.4293  185.3340 N   0  0  0  0  0  0  0  0  0  0  0  0
  152.4435  136.3300  186.6727 C   0  0  0  0  0  0  0  0  0  0  0  0
  151.6650  136.4676  187.6254 O   0  0  0  0  0  0  0  0  0  0  0  0
  152.6399  136.3151  184.5082 H   0  0  0  0  0  0  0  0  0  0  0  0
  150.6003  136.6915  184.9816 C   0  0  0  0  0  0  0  0  0  0  0  0
  150.3725  138.3988  181.0761 C   0  0  0  0  0  0  0  0  0  0  0  0
  151.5480  137.9157  181.5792 C   0  0  0  0  0  0  0  0  0  0  0  0
  151.6658  137.3503  182.8442 C   0  0  0  0  0  0  0  0  0  0  0  0
  150.5475  137.2740  183.6253 C   0  0  0  0  0  0  0  0  0  0  0  0
  149.3538  137.7507  183.1466 C   0  0  0  0  0  0  0  0  0  0  0  0
  149.2377  138.3148  181.8835 C   0  0  0  0  0  0  0  0  0  0  0  0
  149.3720  138.7090  178.8811 N   0  0  0  0  0  0  0  0  0  0  0  0
  150.2698  138.9877  179.7490 C   0  0  0  0  0  0  0  0  0  0  0  0
  151.2369  139.9700  179.3368 N   0  0  0  0  0  0  0  0  0  0  0  0
  148.6439  138.0137  179.1040 H   0  0  0  0  0  0  0  0  0  0  0  0
  151.3082  140.8856  179.8286 H   0  0  0  0  0  0  0  0  0  0  0  0
  151.8651  139.7459  178.5352 H   0  0  0  0  0  0  0  0  0  0  0  0
  154.8645  135.7792  191.8934 C   0  0  0  0  0  0  0  0  0  0  0  0
  153.5154  135.9679  192.4219 C   0  0  0  0  0  0  0  0  0  0  0  0
  152.8880  137.1965  192.4848 C   0  0  0  0  0  0  0  0  0  0  0  0
  151.6075  137.3360  192.9960 C   0  0  0  0  0  0  0  0  0  0  0  0
  150.9218  136.2350  193.4601 C   0  0  0  0  0  0  0  0  0  0  0  0
  151.5239  135.0124  193.4068 C   0  0  0  0  0  0  0  0  0  0  0  0
  152.8110  134.8800  192.8917 C   0  0  0  0  0  0  0  0  0  0  0  0
 24 25  2  0  0  0
 25 26  1  0  0  0
 25 18  1  0  0  0
 18 19  2  0  0  0
 19 20  1  0  0  0
 20 21  2  0  0  0
 21 17  1  0  0  0
 17 13  1  0  0  0
 13 14  1  0  0  0
 14 15  2  0  0  0
 14  1  1  0  0  0
  1  2  1  0  0  0
  2  3  1  0  0  0
  3  4  1  0  0  0
  4  5  1  0  0  0
  5  6  1  0  0  0
  6  7  1  0  0  0
  7  8  1  0  0  0
  7 30  1  0  0  0
 30 31  1  0  0  0
 31 32  2  0  0  0
 32 33  1  0  0  0
 33 34  2  0  0  0
 34 35  1  0  0  0
 35 36  2  0  0  0
  7  9  1  0  0  0
  9 10  2  0  0  0
  9 11  1  0  0  0
 21 22  1  0  0  0
 22 23  2  0  0  0
 23 18  1  0  0  0
 11  1  1  0  0  0
 11  4  1  0  0  0
 36 31  1  0  0  0
 24 27  1  0  0  0
 26 28  1  0  0  0
 26 29  1  0  0  0
 13 16  1  0  0  0
  8 12  1  0  0  0
M  END
> <minimizedAffinity>
-6.98590

> <CNNscore>
0.3705981672

> <CNNaffinity>
4.9950971603

> <CNN_VS>
1.8511738777

> <CNNaffinity_variance>
0.0823794454

$$$$
[H]N=C(c1c([H])c([H])c(C([H])([H])N([H])C(=O)C2([H])N3C(=O)[C@](O[H])(C([H])([H])c4c([H])c([H])c([H])c([H])c4[H])C([H])([H])C([H])([H])[C@]3([H])C([H])([H])C2([H])[H])c([H])c1[H])N([H])[H]


 36 39  0  0  0  0  0  0  0  0999 V2000
  154.6327  139.7669  182.7759 C   0  0  0  0  0  0  0  0  0  0  0  0
  153.6196  140.5621  181.9798 C   0  0  0  0  0  0  0  0  0  0  0  0
  154.0143  141.9839  182.3491 C   0  0  0  0  0  0  0  0  0  0  0  0
  155.5181  141.9137  182.2139 C   0  0  0  0  0  0  0  0  0  0  0  0
  156.2129  142.9351  183.0746 C   0  0  0  0  0  0  0  0  0  0  0  0
  157.6909  142.7247  183.1056 C   0  0  0  0  0  0  0  0  0  0  0  0
  158.1459  141.4167  182.5213 C   0  0  0  0  0  0  0  0  0  0  0  0
  158.1755  141.4710  181.1175 O   0  0  0  0  0  0  0  0  0  0  0  0
  157.2240  140.3495  182.9915 C   0  0  0  0  0  0  0  0  0  0  0  0
  157.5720  139.3192  183.5973 O   0  0  0  0  0  0  0  0  0  0  0  0
  155.8344  140.5630  182.7039 N   0  0  0  0  0  0  0  0  0  0  0  0
  158.4513  142.4117  180.9039 H   0  0  0  0  0  0  0  0  0  0  0  0
  153.5572  138.4700  184.6096 N   0  0  0  0  0  0  0  0  0  0  0  0
  154.0999  139.7096  184.1841 C   0  0  0  0  0  0  0  0  0  0  0  0
  154.1276  140.6876  184.9426 O   0  0  0  0  0  0  0  0  0  0  0  0
  153.5254  137.6243  183.9711 H   0  0  0  0  0  0  0  0  0  0  0  0
  153.0064  138.2527  185.9361 C   0  0  0  0  0  0  0  0  0  0  0  0
  155.9629  136.3094  188.3240 C   0  0  0  0  0  0  0  0  0  0  0  0
  155.4016  137.4963  188.7044 C   0  0  0  0  0  0  0  0  0  0  0  0
  154.4348  138.1613  187.9581 C   0  0  0  0  0  0  0  0  0  0  0  0
  154.0248  137.5987  186.7826 C   0  0  0  0  0  0  0  0  0  0  0  0
  154.5705  136.4079  186.3755 C   0  0  0  0  0  0  0  0  0  0  0  0
  155.5355  135.7451  187.1217 C   0  0  0  0  0  0  0  0  0  0  0  0
  156.8986  135.3975  190.3754 N   0  0  0  0  0  0  0  0  0  0  0  0
  156.9743  135.6289  189.1193 C   0  0  0  0  0  0  0  0  0  0  0  0
  158.1753  135.1598  188.4809 N   0  0  0  0  0  0  0  0  0  0  0  0
  156.0670  135.7041  190.9024 H   0  0  0  0  0  0  0  0  0  0  0  0
  158.1345  134.4203  187.7482 H   0  0  0  0  0  0  0  0  0  0  0  0
  159.0876  135.5758  188.7672 H   0  0  0  0  0  0  0  0  0  0  0  0
  159.5650  141.1441  182.9612 C   0  0  0  0  0  0  0  0  0  0  0  0
  159.8918  141.7219  184.2628 C   0  0  0  0  0  0  0  0  0  0  0  0
  159.1389  141.5082  185.4006 C   0  0  0  0  0  0  0  0  0  0  0  0
  159.4797  142.0766  186.6178 C   0  0  0  0  0  0  0  0  0  0  0  0
  160.5941  142.8797  186.7208 C   0  0  0  0  0  0  0  0  0  0  0  0
  161.3511  143.1033  185.6086 C   0  0  0  0  0  0  0  0  0  0  0  0
  161.0025  142.5287  184.3888 C   0  0  0  0  0  0  0  0  0  0  0  0
 24 25  2  0  0  0
 25 26  1  0  0  0
 25 18  1  0  0  0
 18 19  2  0  0  0
 19 20  1  0  0  0
 20 21  2  0  0  0
 21 17  1  0  0  0
 17 13  1  0  0  0
 13 14  1  0  0  0
 14 15  2  0  0  0
 14  1  1  0  0  0
  1  2  1  0  0  0
  2  3  1  0  0  0
  3  4  1  0  0  0
  4  5  1  0  0  0
  5  6  1  0  0  0
  6  7  1  0  0  0
  7  8  1  0  0  0
  7 30  1  0  0  0
 30 31  1  0  0  0
 31 32  2  0  0  0
 32 33  1  0  0  0
 33 34  2  0  0  0
 34 35  1  0  0  0
 35 36  2  0  0  0
  7  9  1  0  0  0
  9 10  2  0  0  0
  9 11  1  0  0  0
 21 22  1  0  0  0
 22 23  2  0  0  0
 23 18  1  0  0  0
 11  1  1  0  0  0
 11  4  1  0  0  0
 36 31  1  0  0  0
 24 27  1  0  0  0
 26 28  1  0  0  0
 26 29  1  0  0  0
 13 16  1  0  0  0
  8 12  1  0  0  0
M  END
> <minimizedAffinity>
-8.63010

> <CNNscore>
0.3126571476

> <CNNaffinity>
5.9681653976

> <CNN_VS>
1.8659895658

> <CNNaffinity_variance>
0.0933780298

$$$$
[H]N=C(c1c([H])c([H])c(C([H])([H])N([H])C(=O)C2([H])N3C(=O)[C@](O[H])(C([H])([H])c4c([H])c([H])c([H])c([H])c4[H])C([H])([H])C([H])([H])[C@]3([H])C([H])([H])C2([H])[H])c([H])c1[H])N([H])[H]


 36 39  0  0  0  0  0  0  0  0999 V2000
  153.9029  137.7676  183.8835 C   0  0  0  0  0  0  0  0  0  0  0  0
  152.9451  137.4465  182.7558 C   0  0  0  0  0  0  0  0  0  0  0  0
  152.3991  138.8302  182.4382 C   0  0  0  0  0  0  0  0  0  0  0  0
  153.6687  139.6504  182.4313 C   0  0  0  0  0  0  0  0  0  0  0  0
  153.4096  141.0988  182.7505 C   0  0  0  0  0  0  0  0  0  0  0  0
  154.6780  141.8598  182.9545 C   0  0  0  0  0  0  0  0  0  0  0  0
  155.9063  141.0018  183.0742 C   0  0  0  0  0  0  0  0  0  0  0  0
  156.3545  140.5785  181.8115 O   0  0  0  0  0  0  0  0  0  0  0  0
  155.5801  139.8375  183.9389 C   0  0  0  0  0  0  0  0  0  0  0  0
  156.1954  139.5201  184.9735 O   0  0  0  0  0  0  0  0  0  0  0  0
  154.4628  139.0448  183.5117 N   0  0  0  0  0  0  0  0  0  0  0  0
  156.1527  141.3463  181.1980 H   0  0  0  0  0  0  0  0  0  0  0  0
  153.5102  138.7838  186.1229 N   0  0  0  0  0  0  0  0  0  0  0  0
  153.0568  137.8835  185.1248 C   0  0  0  0  0  0  0  0  0  0  0  0
  152.0158  137.2316  185.2796 O   0  0  0  0  0  0  0  0  0  0  0  0
  154.4002  139.3478  186.0051 H   0  0  0  0  0  0  0  0  0  0  0  0
  152.8071  139.0095  187.3738 C   0  0  0  0  0  0  0  0  0  0  0  0
  154.6318  136.6760  190.4470 C   0  0  0  0  0  0  0  0  0  0  0  0
  153.5034  136.2537  189.8014 C   0  0  0  0  0  0  0  0  0  0  0  0
  152.8785  136.9811  188.7942 C   0  0  0  0  0  0  0  0  0  0  0  0
  153.4213  138.1812  188.4312 C   0  0  0  0  0  0  0  0  0  0  0  0
  154.5536  138.6304  189.0616 C   0  0  0  0  0  0  0  0  0  0  0  0
  155.1763  137.9031  190.0669 C   0  0  0  0  0  0  0  0  0  0  0  0
  156.5323  135.8105  191.6936 N   0  0  0  0  0  0  0  0  0  0  0  0
  155.2708  135.8999  191.4996 C   0  0  0  0  0  0  0  0  0  0  0  0
  154.4545  135.1561  192.4217 N   0  0  0  0  0  0  0  0  0  0  0  0
  157.1821  136.3160  191.0727 H   0  0  0  0  0  0  0  0  0  0  0  0
  153.7986  135.6457  193.0662 H   0  0  0  0  0  0  0  0  0  0  0  0
  154.5333  134.1164  192.4313 H   0  0  0  0  0  0  0  0  0  0  0  0
  157.0286  141.8223  183.6649 C   0  0  0  0  0  0  0  0  0  0  0  0
  157.8026  142.5546  182.6651 C   0  0  0  0  0  0  0  0  0  0  0  0
  158.7273  141.9570  181.8315 C   0  0  0  0  0  0  0  0  0  0  0  0
  159.4448  142.6863  180.8967 C   0  0  0  0  0  0  0  0  0  0  0  0
  159.2484  144.0445  180.7769 C   0  0  0  0  0  0  0  0  0  0  0  0
  158.3396  144.6539  181.5909 C   0  0  0  0  0  0  0  0  0  0  0  0
  157.6222  143.9144  182.5280 C   0  0  0  0  0  0  0  0  0  0  0  0
 24 25  2  0  0  0
 25 26  1  0  0  0
 25 18  1  0  0  0
 18 19  2  0  0  0
 19 20  1  0  0  0
 20 21  2  0  0  0
 21 17  1  0  0  0
 17 13  1  0  0  0
 13 14  1  0  0  0
 14 15  2  0  0  0
 14  1  1  0  0  0
  1  2  1  0  0  0
  2  3  1  0  0  0
  3  4  1  0  0  0
  4  5  1  0  0  0
  5  6  1  0  0  0
  6  7  1  0  0  0
  7  8  1  0  0  0
  7 30  1  0  0  0
 30 31  1  0  0  0
 31 32  2  0  0  0
 32 33  1  0  0  0
 33 34  2  0  0  0
 34 35  1  0  0  0
 35 36  2  0  0  0
  7  9  1  0  0  0
  9 10  2  0  0  0
  9 11  1  0  0  0
 21 22  1  0  0  0
 22 23  2  0  0  0
 23 18  1  0  0  0
 11  1  1  0  0  0
 11  4  1  0  0  0
 36 31  1  0  0  0
 24 27  1  0  0  0
 26 28  1  0  0  0
 26 29  1  0  0  0
 13 16  1  0  0  0
  8 12  1  0  0  0
M  END
> <minimizedAffinity>
-8.03643

> <CNNscore>
0.2709383368

> <CNNaffinity>
5.6804533005

> <CNN_VS>
1.5390526056

> <CNNaffinity_variance>
0.0846521333

$$$$
[H]N=C(c1c([H])c([H])c(C([H])([H])N([H])C(=O)C2([H])N3C(=O)[C@](O[H])(C([H])([H])c4c([H])c([H])c([H])c([H])c4[H])C([H])([H])C([H])([H])[C@]3([H])C([H])([H])C2([H])[H])c([H])c1[H])N([H])[H]


 36 39  0  0  0  0  0  0  0  0999 V2000
  151.6108  135.0238  185.4273 C   0  0  0  0  0  0  0  0  0  0  0  0
  152.3000  134.5218  184.1763 C   0  0  0  0  0  0  0  0  0  0  0  0
  152.8320  135.8240  183.5977 C   0  0  0  0  0  0  0  0  0  0  0  0
  153.4119  136.4762  184.8318 C   0  0  0  0  0  0  0  0  0  0  0  0
  153.4534  137.9766  184.7137 C   0  0  0  0  0  0  0  0  0  0  0  0
  153.8222  138.6272  186.0061 C   0  0  0  0  0  0  0  0  0  0  0  0
  153.8046  137.7063  187.1939 C   0  0  0  0  0  0  0  0  0  0  0  0
  154.9704  136.9236  187.2464 O   0  0  0  0  0  0  0  0  0  0  0  0
  152.5938  136.8487  187.1018 C   0  0  0  0  0  0  0  0  0  0  0  0
  151.7188  136.7495  187.9818 O   0  0  0  0  0  0  0  0  0  0  0  0
  152.4625  136.0937  185.8885 N   0  0  0  0  0  0  0  0  0  0  0  0
  155.6957  137.5215  186.8957 H   0  0  0  0  0  0  0  0  0  0  0  0
  149.6208  134.8307  183.9427 N   0  0  0  0  0  0  0  0  0  0  0  0
  150.2708  135.5476  184.9799 C   0  0  0  0  0  0  0  0  0  0  0  0
  149.7513  136.5523  185.4832 O   0  0  0  0  0  0  0  0  0  0  0  0
  150.0538  133.9695  183.5013 H   0  0  0  0  0  0  0  0  0  0  0  0
  148.3256  135.2062  183.4026 C   0  0  0  0  0  0  0  0  0  0  0  0
  148.8976  137.6947  179.9821 C   0  0  0  0  0  0  0  0  0  0  0  0
  148.6916  138.2229  181.2259 C   0  0  0  0  0  0  0  0  0  0  0  0
  148.5032  137.4492  182.3660 C   0  0  0  0  0  0  0  0  0  0  0  0
  148.5249  136.0894  182.2357 C   0  0  0  0  0  0  0  0  0  0  0  0
  148.7297  135.5311  180.9997 C   0  0  0  0  0  0  0  0  0  0  0  0
  148.9177  136.3047  179.8625 C   0  0  0  0  0  0  0  0  0  0  0  0
  149.9864  139.4276  178.6680 N   0  0  0  0  0  0  0  0  0  0  0  0
  149.0923  138.5219  178.8005 C   0  0  0  0  0  0  0  0  0  0  0  0
  148.2309  138.3398  177.6626 N   0  0  0  0  0  0  0  0  0  0  0  0
  150.6415  139.6161  179.4417 H   0  0  0  0  0  0  0  0  0  0  0  0
  148.2285  137.4413  177.1354 H   0  0  0  0  0  0  0  0  0  0  0  0
  147.6090  139.1264  177.3768 H   0  0  0  0  0  0  0  0  0  0  0  0
  153.7943  138.5300  188.4599 C   0  0  0  0  0  0  0  0  0  0  0  0
  154.5810  137.9431  189.5423 C   0  0  0  0  0  0  0  0  0  0  0  0
  154.0661  137.0453  190.4566 C   0  0  0  0  0  0  0  0  0  0  0  0
  154.8438  136.5120  191.4722 C   0  0  0  0  0  0  0  0  0  0  0  0
  156.1679  136.8716  191.5939 C   0  0  0  0  0  0  0  0  0  0  0  0
  156.6957  137.7571  190.7010 C   0  0  0  0  0  0  0  0  0  0  0  0
  155.9080  138.2889  189.6830 C   0  0  0  0  0  0  0  0  0  0  0  0
 24 25  2  0  0  0
 25 26  1  0  0  0
 25 18  1  0  0  0
 18 19  2  0  0  0
 19 20  1  0  0  0
 20 21  2  0  0  0
 21 17  1  0  0  0
 17 13  1  0  0  0
 13 14  1  0  0  0
 14 15  2  0  0  0
 14  1  1  0  0  0
  1  2  1  0  0  0
  2  3  1  0  0  0
  3  4  1  0  0  0
  4  5  1  0  0  0
  5  6  1  0  0  0
  6  7  1  0  0  0
  7  8  1  0  0  0
  7 30  1  0  0  0
 30 31  1  0  0  0
 31 32  2  0  0  0
 32 33  1  0  0  0
 33 34  2  0  0  0
 34 35  1  0  0  0
 35 36  2  0  0  0
  7  9  1  0  0  0
  9 10  2  0  0  0
  9 11  1  0  0  0
 21 22  1  0  0  0
 22 23  2  0  0  0
 23 18  1  0  0  0
 11  1  1  0  0  0
 11  4  1  0  0  0
 36 31  1  0  0  0
 24 27  1  0  0  0
 26 28  1  0  0  0
 26 29  1  0  0  0
 13 16  1  0  0  0
  8 12  1  0  0  0
M  END
> <minimizedAffinity>
-5.97710

> <CNNscore>
0.2699470818

> <CNNaffinity>
4.9621415138

> <CNN_VS>
1.3395155668

> <CNNaffinity_variance>
0.0968049765

$$$$
[H]N=C(c1c([H])c([H])c(C([H])([H])N([H])C(=O)C2([H])N3C(=O)[C@](O[H])(C([H])([H])c4c([H])c([H])c([H])c([H])c4[H])C([H])([H])C([H])([H])[C@]3([H])C([H])([H])C2([H])[H])c([H])c1[H])N([H])[H]


 36 39  0  0  0  0  0  0  0  0999 V2000
  154.7235  135.1268  187.6577 C   0  0  0  0  0  0  0  0  0  0  0  0
  156.1397  134.6631  187.3905 C   0  0  0  0  0  0  0  0  0  0  0  0
  156.9283  135.9028  187.7841 C   0  0  0  0  0  0  0  0  0  0  0  0
  156.2566  136.2746  189.0862 C   0  0  0  0  0  0  0  0  0  0  0  0
  156.3878  137.7428  189.3926 C   0  0  0  0  0  0  0  0  0  0  0  0
  155.5470  138.1457  190.5590 C   0  0  0  0  0  0  0  0  0  0  0  0
  154.5584  137.1043  191.0030 C   0  0  0  0  0  0  0  0  0  0  0  0
  155.1800  136.1147  191.7833 O   0  0  0  0  0  0  0  0  0  0  0  0
  153.9316  136.5097  189.7933 C   0  0  0  0  0  0  0  0  0  0  0  0
  152.7078  136.4692  189.5682 O   0  0  0  0  0  0  0  0  0  0  0  0
  154.8434  135.9502  188.8369 N   0  0  0  0  0  0  0  0  0  0  0  0
  155.8882  136.6034  192.2993 H   0  0  0  0  0  0  0  0  0  0  0  0
  153.9349  137.2883  186.7051 N   0  0  0  0  0  0  0  0  0  0  0  0
  154.3230  135.9464  186.4585 C   0  0  0  0  0  0  0  0  0  0  0  0
  154.3274  135.4846  185.3098 O   0  0  0  0  0  0  0  0  0  0  0  0
  153.9249  137.6972  187.6832 H   0  0  0  0  0  0  0  0  0  0  0  0
  153.5240  138.2063  185.6569 C   0  0  0  0  0  0  0  0  0  0  0  0
  156.9317  140.1625  183.9895 C   0  0  0  0  0  0  0  0  0  0  0  0
  157.0059  139.4756  185.1689 C   0  0  0  0  0  0  0  0  0  0  0  0
  155.9218  138.8230  185.7457 C   0  0  0  0  0  0  0  0  0  0  0  0
  154.7191  138.8713  185.0992 C   0  0  0  0  0  0  0  0  0  0  0  0
  154.6149  139.5532  183.9137 C   0  0  0  0  0  0  0  0  0  0  0  0
  155.6981  140.2042  183.3391 C   0  0  0  0  0  0  0  0  0  0  0  0
  158.9517  140.2959  182.6415 N   0  0  0  0  0  0  0  0  0  0  0  0
  158.0784  140.8398  183.4022 C   0  0  0  0  0  0  0  0  0  0  0  0
  158.2860  142.2376  183.6723 N   0  0  0  0  0  0  0  0  0  0  0  0
  158.8699  139.2962  182.4026 H   0  0  0  0  0  0  0  0  0  0  0  0
  157.5962  142.9496  183.3522 H   0  0  0  0  0  0  0  0  0  0  0  0
  159.1418  142.5230  184.1954 H   0  0  0  0  0  0  0  0  0  0  0  0
  153.5225  137.7510  191.8920 C   0  0  0  0  0  0  0  0  0  0  0  0
  152.6808  136.7888  192.5997 C   0  0  0  0  0  0  0  0  0  0  0  0
  153.1822  135.7032  193.2906 C   0  0  0  0  0  0  0  0  0  0  0  0
  152.3510  134.8100  193.9478 C   0  0  0  0  0  0  0  0  0  0  0  0
  150.9852  134.9881  193.9256 C   0  0  0  0  0  0  0  0  0  0  0  0
  150.4699  136.0541  193.2488 C   0  0  0  0  0  0  0  0  0  0  0  0
  151.3115  136.9477  192.5908 C   0  0  0  0  0  0  0  0  0  0  0  0
 24 25  2  0  0  0
 25 26  1  0  0  0
 25 18  1  0  0  0
 18 19  2  0  0  0
 19 20  1  0  0  0
 20 21  2  0  0  0
 21 17  1  0  0  0
 17 13  1  0  0  0
 13 14  1  0  0  0
 14 15  2  0  0  0
 14  1  1  0  0  0
  1  2  1  0  0  0
  2  3  1  0  0  0
  3  4  1  0  0  0
  4  5  1  0  0  0
  5  6  1  0  0  0
  6  7  1  0  0  0
  7  8  1  0  0  0
  7 30  1  0  0  0
 30 31  1  0  0  0
 31 32  2  0  0  0
 32 33  1  0  0  0
 33 34  2  0  0  0
 34 35  1  0  0  0
 35 36  2  0  0  0
  7  9  1  0  0  0
  9 10  2  0  0  0
  9 11  1  0  0  0
 21 22  1  0  0  0
 22 23  2  0  0  0
 23 18  1  0  0  0
 11  1  1  0  0  0
 11  4  1  0  0  0
 36 31  1  0  0  0
 24 27  1  0  0  0
 26 28  1  0  0  0
 26 29  1  0  0  0
 13 16  1  0  0  0
  8 12  1  0  0  0
M  END
> <minimizedAffinity>
-7.89167

> <CNNscore>
0.2672669291

> <CNNaffinity>
5.4647507668

> <CNN_VS>
1.4605472088

> <CNNaffinity_variance>
0.0423274748

$$$$
[H]N=C(c1c([H])c([H])c(C([H])([H])N([H])C(=O)C2([H])N3C(=O)[C@](O[H])(C([H])([H])c4c([H])c([H])c([H])c([H])c4[H])C([H])([H])C([H])([H])[C@]3([H])C([H])([H])C2([H])[H])c([H])c1[H])N([H])[H]


 36 39  0  0  0  0  0  0  0  0999 V2000
  155.2357  138.7694  183.9397 C   0  0  0  0  0  0  0  0  0  0  0  0
  153.9584  139.2712  183.3003 C   0  0  0  0  0  0  0  0  0  0  0  0
  154.0798  140.7670  183.5486 C   0  0  0  0  0  0  0  0  0  0  0  0
  155.5209  141.0107  183.1628 C   0  0  0  0  0  0  0  0  0  0  0  0
  156.0978  142.2152  183.8578 C   0  0  0  0  0  0  0  0  0  0  0  0
  157.5714  142.3286  183.6449 C   0  0  0  0  0  0  0  0  0  0  0  0
  158.2080  141.1103  183.0369 C   0  0  0  0  0  0  0  0  0  0  0  0
  158.0027  141.0704  181.6474 O   0  0  0  0  0  0  0  0  0  0  0  0
  157.6329  139.9065  183.6927 C   0  0  0  0  0  0  0  0  0  0  0  0
  158.2929  139.0198  184.2655 O   0  0  0  0  0  0  0  0  0  0  0  0
  156.2032  139.7970  183.6379 N   0  0  0  0  0  0  0  0  0  0  0  0
  158.0249  142.0309  181.3581 H   0  0  0  0  0  0  0  0  0  0  0  0
  153.5955  138.7090  185.8125 N   0  0  0  0  0  0  0  0  0  0  0  0
  154.9583  138.6989  185.4189 C   0  0  0  0  0  0  0  0  0  0  0  0
  155.8645  138.6353  186.2600 O   0  0  0  0  0  0  0  0  0  0  0  0
  152.8089  138.7644  185.1040 H   0  0  0  0  0  0  0  0  0  0  0  0
  153.1640  138.6449  187.1981 C   0  0  0  0  0  0  0  0  0  0  0  0
  150.5441  135.3228  187.7627 C   0  0  0  0  0  0  0  0  0  0  0  0
  150.4532  136.1277  186.6617 C   0  0  0  0  0  0  0  0  0  0  0  0
  151.2871  137.2178  186.4378 C   0  0  0  0  0  0  0  0  0  0  0  0
  152.2477  137.4991  187.3678 C   0  0  0  0  0  0  0  0  0  0  0  0
  152.3624  136.7085  188.4827 C   0  0  0  0  0  0  0  0  0  0  0  0
  151.5292  135.6205  188.7048 C   0  0  0  0  0  0  0  0  0  0  0  0
  149.6973  133.0843  187.3297 N   0  0  0  0  0  0  0  0  0  0  0  0
  149.6610  134.1861  187.9791 C   0  0  0  0  0  0  0  0  0  0  0  0
  148.6485  134.2640  188.9983 N   0  0  0  0  0  0  0  0  0  0  0  0
  150.3964  132.9538  186.5831 H   0  0  0  0  0  0  0  0  0  0  0  0
  148.9102  134.3581  190.0023 H   0  0  0  0  0  0  0  0  0  0  0  0
  147.6470  134.2243  188.7107 H   0  0  0  0  0  0  0  0  0  0  0  0
  159.7034  141.1791  183.2388 C   0  0  0  0  0  0  0  0  0  0  0  0
  160.0932  141.8542  184.4746 C   0  0  0  0  0  0  0  0  0  0  0  0
  159.4462  141.6670  185.6803 C   0  0  0  0  0  0  0  0  0  0  0  0
  159.8438  142.3282  186.8315 C   0  0  0  0  0  0  0  0  0  0  0  0
  160.9096  143.2004  186.7977 C   0  0  0  0  0  0  0  0  0  0  0  0
  161.5620  143.3993  185.6168 C   0  0  0  0  0  0  0  0  0  0  0  0
  161.1567  142.7312  184.4639 C   0  0  0  0  0  0  0  0  0  0  0  0
 24 25  2  0  0  0
 25 26  1  0  0  0
 25 18  1  0  0  0
 18 19  2  0  0  0
 19 20  1  0  0  0
 20 21  2  0  0  0
 21 17  1  0  0  0
 17 13  1  0  0  0
 13 14  1  0  0  0
 14 15  2  0  0  0
 14  1  1  0  0  0
  1  2  1  0  0  0
  2  3  1  0  0  0
  3  4  1  0  0  0
  4  5  1  0  0  0
  5  6  1  0  0  0
  6  7  1  0  0  0
  7  8  1  0  0  0
  7 30  1  0  0  0
 30 31  1  0  0  0
 31 32  2  0  0  0
 32 33  1  0  0  0
 33 34  2  0  0  0
 34 35  1  0  0  0
 35 36  2  0  0  0
  7  9  1  0  0  0
  9 10  2  0  0  0
  9 11  1  0  0  0
 21 22  1  0  0  0
 22 23  2  0  0  0
 23 18  1  0  0  0
 11  1  1  0  0  0
 11  4  1  0  0  0
 36 31  1  0  0  0
 24 27  1  0  0  0
 26 28  1  0  0  0
 26 29  1  0  0  0
 13 16  1  0  0  0
  8 12  1  0  0  0
M  END
> <minimizedAffinity>
-8.05941

> <CNNscore>
0.2599140704

> <CNNaffinity>
5.7009124756

> <CNN_VS>
1.4817473888

> <CNNaffinity_variance>
0.0351602957

$$$$
[H]N=C(c1c([H])c([H])c(C([H])([H])N([H])C(=O)C2([H])N3C(=O)[C@](O[H])(C([H])([H])c4c([H])c([H])c([H])c([H])c4[H])C([H])([H])C([H])([H])[C@]3([H])C([H])([H])C2([H])[H])c([H])c1[H])N([H])[H]


 36 39  0  0  0  0  0  0  0  0999 V2000
  154.4915  139.7837  182.6500 C   0  0  0  0  0  0  0  0  0  0  0  0
  153.5014  140.6451  181.8952 C   0  0  0  0  0  0  0  0  0  0  0  0
  153.8773  142.0289  182.4028 C   0  0  0  0  0  0  0  0  0  0  0  0
  155.3850  141.9735  182.3116 C   0  0  0  0  0  0  0  0  0  0  0  0
  156.0466  142.9150  183.2825 C   0  0  0  0  0  0  0  0  0  0  0  0
  157.5237  142.7051  183.3434 C   0  0  0  0  0  0  0  0  0  0  0  0
  158.0035  141.4554  182.6600 C   0  0  0  0  0  0  0  0  0  0  0  0
  158.0788  141.6350  181.2684 O   0  0  0  0  0  0  0  0  0  0  0  0
  157.0716  140.3489  183.0022 C   0  0  0  0  0  0  0  0  0  0  0  0
  157.4044  139.2691  183.5248 O   0  0  0  0  0  0  0  0  0  0  0  0
  155.6912  140.5850  182.6892 N   0  0  0  0  0  0  0  0  0  0  0  0
  158.3572  142.5915  181.1489 H   0  0  0  0  0  0  0  0  0  0  0  0
  153.2117  138.3904  184.2695 N   0  0  0  0  0  0  0  0  0  0  0  0
  153.9132  139.5997  184.0291 C   0  0  0  0  0  0  0  0  0  0  0  0
  154.0361  140.4530  184.9176 O   0  0  0  0  0  0  0  0  0  0  0  0
  153.0972  137.6512  183.5182 H   0  0  0  0  0  0  0  0  0  0  0  0
  152.5986  138.0628  185.5450 C   0  0  0  0  0  0  0  0  0  0  0  0
  155.6176  137.4343  188.4963 C   0  0  0  0  0  0  0  0  0  0  0  0
  155.6902  136.8517  187.2619 C   0  0  0  0  0  0  0  0  0  0  0  0
  154.7307  137.0314  186.2715 C   0  0  0  0  0  0  0  0  0  0  0  0
  153.6587  137.8323  186.5472 C   0  0  0  0  0  0  0  0  0  0  0  0
  153.5593  138.4303  187.7776 C   0  0  0  0  0  0  0  0  0  0  0  0
  154.5181  138.2500  188.7653 C   0  0  0  0  0  0  0  0  0  0  0  0
  157.0154  138.1118  190.3677 N   0  0  0  0  0  0  0  0  0  0  0  0
  156.6325  137.2332  189.5200 C   0  0  0  0  0  0  0  0  0  0  0  0
  157.2854  135.9554  189.6243 N   0  0  0  0  0  0  0  0  0  0  0  0
  156.5929  139.0524  190.3552 H   0  0  0  0  0  0  0  0  0  0  0  0
  156.7450  135.1006  189.8742 H   0  0  0  0  0  0  0  0  0  0  0  0
  158.3111  135.9031  189.4443 H   0  0  0  0  0  0  0  0  0  0  0  0
  159.4087  141.1468  183.1203 C   0  0  0  0  0  0  0  0  0  0  0  0
  159.7456  141.7520  184.4069 C   0  0  0  0  0  0  0  0  0  0  0  0
  159.0792  141.4626  185.5814 C   0  0  0  0  0  0  0  0  0  0  0  0
  159.4263  142.0599  186.7828 C   0  0  0  0  0  0  0  0  0  0  0  0
  160.4595  142.9696  186.8324 C   0  0  0  0  0  0  0  0  0  0  0  0
  161.1304  143.2692  185.6835 C   0  0  0  0  0  0  0  0  0  0  0  0
  160.7759  142.6649  184.4798 C   0  0  0  0  0  0  0  0  0  0  0  0
 24 25  2  0  0  0
 25 26  1  0  0  0
 25 18  1  0  0  0
 18 19  2  0  0  0
 19 20  1  0  0  0
 20 21  2  0  0  0
 21 17  1  0  0  0
 17 13  1  0  0  0
 13 14  1  0  0  0
 14 15  2  0  0  0
 14  1  1  0  0  0
  1  2  1  0  0  0
  2  3  1  0  0  0
  3  4  1  0  0  0
  4  5  1  0  0  0
  5  6  1  0  0  0
  6  7  1  0  0  0
  7  8  1  0  0  0
  7 30  1  0  0  0
 30 31  1  0  0  0
 31 32  2  0  0  0
 32 33  1  0  0  0
 33 34  2  0  0  0
 34 35  1  0  0  0
 35 36  2  0  0  0
  7  9  1  0  0  0
  9 10  2  0  0  0
  9 11  1  0  0  0
 21 22  1  0  0  0
 22 23  2  0  0  0
 23 18  1  0  0  0
 11  1  1  0  0  0
 11  4  1  0  0  0
 36 31  1  0  0  0
 24 27  1  0  0  0
 26 28  1  0  0  0
 26 29  1  0  0  0
 13 16  1  0  0  0
  8 12  1  0  0  0
M  END
> <minimizedAffinity>
-9.13091

> <CNNscore>
0.2487907559

> <CNNaffinity>
5.9330787659

> <CNN_VS>
1.4760951996

> <CNNaffinity_variance>
0.1566928923

$$$$
[H]c1c(OC([H])([H])[H])c(C([H])([H])N(C([H])([H])[H])C([H])([H])[H])c([H])c(OC([H])([H])[H])c1-c1c([H])n(C([H])([H])[H])c(=O)c2c([H])c([H])c([H])c([H])c12


 26 28  0  0  0  0  0  0  0  0999 V2000
  153.2157  139.7200  182.7014 C   0  0  0  0  0  0  0  0  0  0  0  0
  154.2693  140.6659  182.6676 C   0  0  0  0  0  0  0  0  0  0  0  0
  155.4839  140.5110  183.4852 C   0  0  0  0  0  0  0  0  0  0  0  0
  155.5629  139.4691  184.2767 C   0  0  0  0  0  0  0  0  0  0  0  0
  154.5124  138.5233  184.3940 C   0  0  0  0  0  0  0  0  0  0  0  0
  153.4563  138.6888  183.6451 C   0  0  0  0  0  0  0  0  0  0  0  0
  156.5337  141.3874  182.9617 C   0  0  0  0  0  0  0  0  0  0  0  0
  156.6586  141.5234  181.5253 C   0  0  0  0  0  0  0  0  0  0  0  0
  157.8522  141.8655  180.9270 N   0  0  0  0  0  0  0  0  0  0  0  0
  158.0812  141.9656  179.5443 C   0  0  0  0  0  0  0  0  0  0  0  0
  158.7581  142.0241  181.8496 C   0  0  0  0  0  0  0  0  0  0  0  0
  159.9553  142.3759  181.1553 O   0  0  0  0  0  0  0  0  0  0  0  0
  158.9579  141.9744  183.0860 C   0  0  0  0  0  0  0  0  0  0  0  0
  160.1509  142.2087  183.7972 C   0  0  0  0  0  0  0  0  0  0  0  0
  159.8464  142.0449  185.2639 C   0  0  0  0  0  0  0  0  0  0  0  0
  158.8267  141.7690  185.7577 C   0  0  0  0  0  0  0  0  0  0  0  0
  157.5815  141.5099  185.0670 C   0  0  0  0  0  0  0  0  0  0  0  0
  157.6796  141.6157  183.7653 C   0  0  0  0  0  0  0  0  0  0  0  0
  151.1180  139.5062  181.2537 C   0  0  0  0  0  0  0  0  0  0  0  0
  152.1302  139.6362  182.0074 O   0  0  0  0  0  0  0  0  0  0  0  0
  156.7178  139.1883  185.0547 O   0  0  0  0  0  0  0  0  0  0  0  0
  156.3243  138.4923  186.2416 C   0  0  0  0  0  0  0  0  0  0  0  0
  152.3475  137.6832  183.6105 C   0  0  0  0  0  0  0  0  0  0  0  0
  152.5015  136.3426  183.4165 N   0  0  0  0  0  0  0  0  0  0  0  0
  152.2249  135.9987  182.0379 C   0  0  0  0  0  0  0  0  0  0  0  0
  152.6074  135.2761  184.2442 C   0  0  0  0  0  0  0  0  0  0  0  0
 19 20  1  0  0  0
 20  1  1  0  0  0
  1  2  2  0  0  0
  2  3  1  0  0  0
  3  7  1  0  0  0
  7  8  2  0  0  0
  8  9  1  0  0  0
  9 10  1  0  0  0
  9 11  1  0  0  0
 11 12  2  0  0  0
 11 13  1  0  0  0
 13 14  2  0  0  0
 14 15  1  0  0  0
 15 16  2  0  0  0
 16 17  1  0  0  0
 17 18  2  0  0  0
  3  4  2  0  0  0
  4 21  1  0  0  0
 21 22  1  0  0  0
  4  5  1  0  0  0
  5  6  2  0  0  0
  6 23  1  0  0  0
 23 24  1  0  0  0
 24 25  1  0  0  0
 24 26  1  0  0  0
  6  1  1  0  0  0
 18  7  1  0  0  0
 18 13  1  0  0  0
M  END
> <minimizedAffinity>
-6.87670

> <CNNscore>
0.5537692308

> <CNNaffinity>
6.0478811264

> <CNN_VS>
3.3491303921

> <CNNaffinity_variance>
0.0795134604

$$$$
[H]c1c(OC([H])([H])[H])c(C([H])([H])N(C([H])([H])[H])C([H])([H])[H])c([H])c(OC([H])([H])[H])c1-c1c([H])n(C([H])([H])[H])c(=O)c2c([H])c([H])c([H])c([H])c12


 26 28  0  0  0  0  0  0  0  0999 V2000
  155.4850  138.7232  185.4698 C   0  0  0  0  0  0  0  0  0  0  0  0
  156.2704  139.4763  184.5633 C   0  0  0  0  0  0  0  0  0  0  0  0
  155.6653  140.2944  183.4991 C   0  0  0  0  0  0  0  0  0  0  0  0
  154.3588  140.2953  183.3928 C   0  0  0  0  0  0  0  0  0  0  0  0
  153.5279  139.5134  184.2355 C   0  0  0  0  0  0  0  0  0  0  0  0
  154.1005  138.8097  185.1738 C   0  0  0  0  0  0  0  0  0  0  0  0
  156.6595  141.2441  182.9956 C   0  0  0  0  0  0  0  0  0  0  0  0
  156.7567  141.4388  181.5638 C   0  0  0  0  0  0  0  0  0  0  0  0
  157.9218  141.8658  180.9640 N   0  0  0  0  0  0  0  0  0  0  0  0
  158.1255  142.0282  179.5833 C   0  0  0  0  0  0  0  0  0  0  0  0
  158.8311  142.0390  181.8808 C   0  0  0  0  0  0  0  0  0  0  0  0
  159.9979  142.4793  181.1853 O   0  0  0  0  0  0  0  0  0  0  0  0
  159.0508  141.9551  183.1119 C   0  0  0  0  0  0  0  0  0  0  0  0
  160.2397  142.2269  183.8166 C   0  0  0  0  0  0  0  0  0  0  0  0
  159.9651  141.9938  185.2799 C   0  0  0  0  0  0  0  0  0  0  0  0
  158.9686  141.6460  185.7755 C   0  0  0  0  0  0  0  0  0  0  0  0
  157.7292  141.3459  185.0910 C   0  0  0  0  0  0  0  0  0  0  0  0
  157.8030  141.5040  183.7930 C   0  0  0  0  0  0  0  0  0  0  0  0
  156.1753  137.4301  187.5659 C   0  0  0  0  0  0  0  0  0  0  0  0
  155.8195  138.0269  186.5044 O   0  0  0  0  0  0  0  0  0  0  0  0
  153.6712  141.1023  182.4473 O   0  0  0  0  0  0  0  0  0  0  0  0
  152.7217  140.2939  181.7452 C   0  0  0  0  0  0  0  0  0  0  0  0
  153.3038  138.0458  186.1855 C   0  0  0  0  0  0  0  0  0  0  0  0
  152.6787  136.8546  185.9641 N   0  0  0  0  0  0  0  0  0  0  0  0
  151.6368  136.6430  186.9464 C   0  0  0  0  0  0  0  0  0  0  0  0
  152.9677  135.7626  185.2172 C   0  0  0  0  0  0  0  0  0  0  0  0
 19 20  1  0  0  0
 20  1  1  0  0  0
  1  2  2  0  0  0
  2  3  1  0  0  0
  3  7  1  0  0  0
  7  8  2  0  0  0
  8  9  1  0  0  0
  9 10  1  0  0  0
  9 11  1  0  0  0
 11 12  2  0  0  0
 11 13  1  0  0  0
 13 14  2  0  0  0
 14 15  1  0  0  0
 15 16  2  0  0  0
 16 17  1  0  0  0
 17 18  2  0  0  0
  3  4  2  0  0  0
  4 21  1  0  0  0
 21 22  1  0  0  0
  4  5  1  0  0  0
  5  6  2  0  0  0
  6 23  1  0  0  0
 23 24  1  0  0  0
 24 25  1  0  0  0
 24 26  1  0  0  0
  6  1  1  0  0  0
 18  7  1  0  0  0
 18 13  1  0  0  0
M  END
> <minimizedAffinity>
-7.06310

> <CNNscore>
0.5418945551

> <CNNaffinity>
5.9607653618

> <CNN_VS>
3.2301063538

> <CNNaffinity_variance>
0.0480526462

$$$$
[H]c1c(OC([H])([H])[H])c(C([H])([H])N(C([H])([H])[H])C([H])([H])[H])c([H])c(OC([H])([H])[H])c1-c1c([H])n(C([H])([H])[H])c(=O)c2c([H])c([H])c([H])c([H])c12


 26 28  0  0  0  0  0  0  0  0999 V2000
  154.2166  139.8851  183.0080 C   0  0  0  0  0  0  0  0  0  0  0  0
  155.4514  140.4768  183.3697 C   0  0  0  0  0  0  0  0  0  0  0  0
  156.2558  139.9772  184.4973 C   0  0  0  0  0  0  0  0  0  0  0  0
  155.7862  138.9658  185.1864 C   0  0  0  0  0  0  0  0  0  0  0  0
  154.5282  138.3741  184.9048 C   0  0  0  0  0  0  0  0  0  0  0  0
  153.8494  138.8375  183.8909 C   0  0  0  0  0  0  0  0  0  0  0  0
  157.6194  140.4992  184.3866 C   0  0  0  0  0  0  0  0  0  0  0  0
  158.2493  141.0271  185.5790 C   0  0  0  0  0  0  0  0  0  0  0  0
  159.2511  141.9716  185.5164 N   0  0  0  0  0  0  0  0  0  0  0  0
  159.8792  142.5798  186.6164 C   0  0  0  0  0  0  0  0  0  0  0  0
  159.4848  142.2588  184.2674 C   0  0  0  0  0  0  0  0  0  0  0  0
  160.5271  143.2346  184.2868 O   0  0  0  0  0  0  0  0  0  0  0  0
  159.1338  142.0046  183.0914 C   0  0  0  0  0  0  0  0  0  0  0  0
  159.6246  142.5463  181.8873 C   0  0  0  0  0  0  0  0  0  0  0  0
  158.8830  141.8846  180.7546 C   0  0  0  0  0  0  0  0  0  0  0  0
  158.0465  141.0750  180.8218 C   0  0  0  0  0  0  0  0  0  0  0  0
  157.5054  140.4993  182.0345 C   0  0  0  0  0  0  0  0  0  0  0  0
  158.0549  140.9754  183.1238 C   0  0  0  0  0  0  0  0  0  0  0  0
  152.6987  140.2838  180.9882 C   0  0  0  0  0  0  0  0  0  0  0  0
  153.4233  140.1196  182.0166 O   0  0  0  0  0  0  0  0  0  0  0  0
  156.5129  138.3632  186.2478 O   0  0  0  0  0  0  0  0  0  0  0  0
  155.5952  137.7149  187.1340 C   0  0  0  0  0  0  0  0  0  0  0  0
  152.5687  138.2045  183.4426 C   0  0  0  0  0  0  0  0  0  0  0  0
  152.3824  136.8736  183.2133 N   0  0  0  0  0  0  0  0  0  0  0  0
  152.4264  136.5968  181.7932 C   0  0  0  0  0  0  0  0  0  0  0  0
  151.9373  135.8403  183.9668 C   0  0  0  0  0  0  0  0  0  0  0  0
 19 20  1  0  0  0
 20  1  1  0  0  0
  1  2  2  0  0  0
  2  3  1  0  0  0
  3  7  1  0  0  0
  7  8  2  0  0  0
  8  9  1  0  0  0
  9 10  1  0  0  0
  9 11  1  0  0  0
 11 12  2  0  0  0
 11 13  1  0  0  0
 13 14  2  0  0  0
 14 15  1  0  0  0
 15 16  2  0  0  0
 16 17  1  0  0  0
 17 18  2  0  0  0
  3  4  2  0  0  0
  4 21  1  0  0  0
 21 22  1  0  0  0
  4  5  1  0  0  0
  5  6  2  0  0  0
  6 23  1  0  0  0
 23 24  1  0  0  0
 24 25  1  0  0  0
 24 26  1  0  0  0
  6  1  1  0  0  0
 18  7  1  0  0  0
 18 13  1  0  0  0
M  END
> <minimizedAffinity>
-7.24797

> <CNNscore>
0.4644551277

> <CNNaffinity>
5.9763245583

> <CNN_VS>
2.7757346630

> <CNNaffinity_variance>
0.1480957717

$$$$
[H]c1c(OC([H])([H])[H])c(C([H])([H])N(C([H])([H])[H])C([H])([H])[H])c([H])c(OC([H])([H])[H])c1-c1c([H])n(C([H])([H])[H])c(=O)c2c([H])c([H])c([H])c([H])c12


 26 28  0  0  0  0  0  0  0  0999 V2000
  157.7754  141.2952  183.4671 C   0  0  0  0  0  0  0  0  0  0  0  0
  156.7462  140.3659  183.7550 C   0  0  0  0  0  0  0  0  0  0  0  0
  155.3274  140.6698  183.5044 C   0  0  0  0  0  0  0  0  0  0  0  0
  155.0286  141.8500  183.0185 C   0  0  0  0  0  0  0  0  0  0  0  0
  156.0135  142.8395  182.7679 C   0  0  0  0  0  0  0  0  0  0  0  0
  157.2611  142.5289  182.9925 C   0  0  0  0  0  0  0  0  0  0  0  0
  154.5576  139.4243  183.5140 C   0  0  0  0  0  0  0  0  0  0  0  0
  153.5038  139.2632  182.5338 C   0  0  0  0  0  0  0  0  0  0  0  0
  152.4255  138.4332  182.7530 N   0  0  0  0  0  0  0  0  0  0  0  0
  151.3325  138.2575  181.8878 C   0  0  0  0  0  0  0  0  0  0  0  0
  152.5499  137.8782  183.9250 C   0  0  0  0  0  0  0  0  0  0  0  0
  151.4043  137.0390  184.0755 O   0  0  0  0  0  0  0  0  0  0  0  0
  153.2818  137.8199  184.9408 C   0  0  0  0  0  0  0  0  0  0  0  0
  153.0970  137.0719  186.1199 C   0  0  0  0  0  0  0  0  0  0  0  0
  154.2781  137.3373  187.0174 C   0  0  0  0  0  0  0  0  0  0  0  0
  155.1921  138.0319  186.8126 C   0  0  0  0  0  0  0  0  0  0  0  0
  155.4170  138.8251  185.6230 C   0  0  0  0  0  0  0  0  0  0  0  0
  154.4663  138.7015  184.7307 C   0  0  0  0  0  0  0  0  0  0  0  0
  160.3087  141.0141  183.6802 C   0  0  0  0  0  0  0  0  0  0  0  0
  159.0600  141.1838  183.5337 O   0  0  0  0  0  0  0  0  0  0  0  0
  153.7005  142.2196  182.6757 O   0  0  0  0  0  0  0  0  0  0  0  0
  153.5668  143.6400  182.7868 C   0  0  0  0  0  0  0  0  0  0  0  0
  158.3811  143.4615  182.6492 C   0  0  0  0  0  0  0  0  0  0  0  0
  158.8252  143.7341  181.3895 N   0  0  0  0  0  0  0  0  0  0  0  0
  159.2052  145.1265  181.2803 C   0  0  0  0  0  0  0  0  0  0  0  0
  158.7578  143.0824  180.2044 C   0  0  0  0  0  0  0  0  0  0  0  0
 19 20  1  0  0  0
 20  1  1  0  0  0
  1  2  2  0  0  0
  2  3  1  0  0  0
  3  7  1  0  0  0
  7  8  2  0  0  0
  8  9  1  0  0  0
  9 10  1  0  0  0
  9 11  1  0  0  0
 11 12  2  0  0  0
 11 13  1  0  0  0
 13 14  2  0  0  0
 14 15  1  0  0  0
 15 16  2  0  0  0
 16 17  1  0  0  0
 17 18  2  0  0  0
  3  4  2  0  0  0
  4 21  1  0  0  0
 21 22  1  0  0  0
  4  5  1  0  0  0
  5  6  2  0  0  0
  6 23  1  0  0  0
 23 24  1  0  0  0
 24 25  1  0  0  0
 24 26  1  0  0  0
  6  1  1  0  0  0
 18  7  1  0  0  0
 18 13  1  0  0  0
M  END
> <minimizedAffinity>
-6.80615

> <CNNscore>
0.4533315599

> <CNNaffinity>
6.1304883957

> <CNN_VS>
2.7791438103

> <CNNaffinity_variance>
0.0303177722

$$$$
[H]c1c(OC([H])([H])[H])c(C([H])([H])N(C([H])([H])[H])C([H])([H])[H])c([H])c(OC([H])([H])[H])c1-c1c([H])n(C([H])([H])[H])c(=O)c2c([H])c([H])c([H])c([H])c12


 26 28  0  0  0  0  0  0  0  0999 V2000
  157.0883  140.4889  183.8164 C   0  0  0  0  0  0  0  0  0  0  0  0
  156.2005  139.5113  184.3281 C   0  0  0  0  0  0  0  0  0  0  0  0
  154.7682  139.5026  183.9870 C   0  0  0  0  0  0  0  0  0  0  0  0
  154.3183  140.4497  183.2003 C   0  0  0  0  0  0  0  0  0  0  0  0
  155.1510  141.4870  182.7078 C   0  0  0  0  0  0  0  0  0  0  0  0
  156.4171  141.4545  183.0233 C   0  0  0  0  0  0  0  0  0  0  0  0
  154.2007  138.1941  184.3183 C   0  0  0  0  0  0  0  0  0  0  0  0
  153.6741  137.3834  183.2399 C   0  0  0  0  0  0  0  0  0  0  0  0
  152.6968  136.4349  183.4518 N   0  0  0  0  0  0  0  0  0  0  0  0
  152.0885  135.6443  182.4624 C   0  0  0  0  0  0  0  0  0  0  0  0
  152.3800  136.4284  184.7155 C   0  0  0  0  0  0  0  0  0  0  0  0
  151.3716  135.4268  184.8529 O   0  0  0  0  0  0  0  0  0  0  0  0
  152.6244  136.9696  185.8193 C   0  0  0  0  0  0  0  0  0  0  0  0
  152.0458  136.7095  187.0769 C   0  0  0  0  0  0  0  0  0  0  0  0
  152.7107  137.6160  188.0803 C   0  0  0  0  0  0  0  0  0  0  0  0
  153.5479  138.4048  187.8892 C   0  0  0  0  0  0  0  0  0  0  0  0
  154.1623  138.7120  186.6152 C   0  0  0  0  0  0  0  0  0  0  0  0
  153.6882  137.9967  185.6258 C   0  0  0  0  0  0  0  0  0  0  0  0
  159.6320  140.6291  184.0445 C   0  0  0  0  0  0  0  0  0  0  0  0
  158.3690  140.6107  183.9270 O   0  0  0  0  0  0  0  0  0  0  0  0
  152.9704  140.4942  182.7540 O   0  0  0  0  0  0  0  0  0  0  0  0
  152.9509  140.4846  181.3232 C   0  0  0  0  0  0  0  0  0  0  0  0
  157.3970  142.4356  182.4586 C   0  0  0  0  0  0  0  0  0  0  0  0
  158.0129  142.3298  181.2470 N   0  0  0  0  0  0  0  0  0  0  0  0
  158.5164  143.6193  180.8242 C   0  0  0  0  0  0  0  0  0  0  0  0
  158.0380  141.3803  180.2817 C   0  0  0  0  0  0  0  0  0  0  0  0
 19 20  1  0  0  0
 20  1  1  0  0  0
  1  2  2  0  0  0
  2  3  1  0  0  0
  3  7  1  0  0  0
  7  8  2  0  0  0
  8  9  1  0  0  0
  9 10  1  0  0  0
  9 11  1  0  0  0
 11 12  2  0  0  0
 11 13  1  0  0  0
 13 14  2  0  0  0
 14 15  1  0  0  0
 15 16  2  0  0  0
 16 17  1  0  0  0
 17 18  2  0  0  0
  3  4  2  0  0  0
  4 21  1  0  0  0
 21 22  1  0  0  0
  4  5  1  0  0  0
  5  6  2  0  0  0
  6 23  1  0  0  0
 23 24  1  0  0  0
 24 25  1  0  0  0
 24 26  1  0  0  0
  6  1  1  0  0  0
 18  7  1  0  0  0
 18 13  1  0  0  0
M  END
> <minimizedAffinity>
-6.29104

> <CNNscore>
0.3990568817

> <CNNaffinity>
5.7105093002

> <CNN_VS>
2.2788181305

> <CNNaffinity_variance>
0.0553918108

$$$$
[H]c1c(OC([H])([H])[H])c(C([H])([H])N(C([H])([H])[H])C([H])([H])[H])c([H])c(OC([H])([H])[H])c1-c1c([H])n(C([H])([H])[H])c(=O)c2c([H])c([H])c([H])c([H])c12


 26 28  0  0  0  0  0  0  0  0999 V2000
  155.4469  138.2263  185.7858 C   0  0  0  0  0  0  0  0  0  0  0  0
  156.6038  138.8110  185.2154 C   0  0  0  0  0  0  0  0  0  0  0  0
  156.5269  139.9642  184.3032 C   0  0  0  0  0  0  0  0  0  0  0  0
  155.3399  140.4354  184.0074 C   0  0  0  0  0  0  0  0  0  0  0  0
  154.1461  139.8512  184.5029 C   0  0  0  0  0  0  0  0  0  0  0  0
  154.2556  138.8372  185.3173 C   0  0  0  0  0  0  0  0  0  0  0  0
  157.8484  140.5859  184.1978 C   0  0  0  0  0  0  0  0  0  0  0  0
  158.4462  141.1311  185.3989 C   0  0  0  0  0  0  0  0  0  0  0  0
  159.3768  142.1468  185.3531 N   0  0  0  0  0  0  0  0  0  0  0  0
  159.9663  142.7741  186.4637 C   0  0  0  0  0  0  0  0  0  0  0  0
  159.5810  142.4781  184.1099 C   0  0  0  0  0  0  0  0  0  0  0  0
  160.5502  143.5262  184.1465 O   0  0  0  0  0  0  0  0  0  0  0  0
  159.2417  142.2256  182.9301 C   0  0  0  0  0  0  0  0  0  0  0  0
  159.6843  142.8282  181.7363 C   0  0  0  0  0  0  0  0  0  0  0  0
  158.9852  142.1401  180.5924 C   0  0  0  0  0  0  0  0  0  0  0  0
  158.2098  141.2708  180.6451 C   0  0  0  0  0  0  0  0  0  0  0  0
  157.7195  140.6304  181.8469 C   0  0  0  0  0  0  0  0  0  0  0  0
  158.2402  141.1205  182.9441 C   0  0  0  0  0  0  0  0  0  0  0  0
  155.2897  136.3631  187.5311 C   0  0  0  0  0  0  0  0  0  0  0  0
  155.3168  137.2841  186.6590 O   0  0  0  0  0  0  0  0  0  0  0  0
  155.1570  141.5855  183.1941 O   0  0  0  0  0  0  0  0  0  0  0  0
  154.0439  141.3687  182.3211 C   0  0  0  0  0  0  0  0  0  0  0  0
  153.0616  138.2276  185.9841 C   0  0  0  0  0  0  0  0  0  0  0  0
  152.2260  137.3082  185.4229 N   0  0  0  0  0  0  0  0  0  0  0  0
  151.1684  136.9590  186.3475 C   0  0  0  0  0  0  0  0  0  0  0  0
  152.3039  136.5013  184.3382 C   0  0  0  0  0  0  0  0  0  0  0  0
 19 20  1  0  0  0
 20  1  1  0  0  0
  1  2  2  0  0  0
  2  3  1  0  0  0
  3  7  1  0  0  0
  7  8  2  0  0  0
  8  9  1  0  0  0
  9 10  1  0  0  0
  9 11  1  0  0  0
 11 12  2  0  0  0
 11 13  1  0  0  0
 13 14  2  0  0  0
 14 15  1  0  0  0
 15 16  2  0  0  0
 16 17  1  0  0  0
 17 18  2  0  0  0
  3  4  2  0  0  0
  4 21  1  0  0  0
 21 22  1  0  0  0
  4  5  1  0  0  0
  5  6  2  0  0  0
  6 23  1  0  0  0
 23 24  1  0  0  0
 24 25  1  0  0  0
 24 26  1  0  0  0
  6  1  1  0  0  0
 18  7  1  0  0  0
 18 13  1  0  0  0
M  END
> <minimizedAffinity>
-6.85599

> <CNNscore>
0.3888785243

> <CNNaffinity>
5.9637317657

> <CNN_VS>
2.3191671371

> <CNNaffinity_variance>
0.1214282066

$$$$
[H]c1c(OC([H])([H])[H])c(C([H])([H])N(C([H])([H])[H])C([H])([H])[H])c([H])c(OC([H])([H])[H])c1-c1c([H])n(C([H])([H])[H])c(=O)c2c([H])c([H])c([H])c([H])c12


 26 28  0  0  0  0  0  0  0  0999 V2000
  154.3918  141.1364  182.8502 C   0  0  0  0  0  0  0  0  0  0  0  0
  153.2720  140.3964  182.3983 C   0  0  0  0  0  0  0  0  0  0  0  0
  153.0534  138.9940  182.7899 C   0  0  0  0  0  0  0  0  0  0  0  0
  153.9454  138.4264  183.5648 C   0  0  0  0  0  0  0  0  0  0  0  0
  155.1150  139.1022  183.9978 C   0  0  0  0  0  0  0  0  0  0  0  0
  155.2681  140.3476  183.6387 C   0  0  0  0  0  0  0  0  0  0  0  0
  151.6624  138.6272  182.5164 C   0  0  0  0  0  0  0  0  0  0  0  0
  151.0736  137.5521  183.2875 C   0  0  0  0  0  0  0  0  0  0  0  0
  150.0259  136.7981  182.8044 N   0  0  0  0  0  0  0  0  0  0  0  0
  149.4300  135.7044  183.4547 C   0  0  0  0  0  0  0  0  0  0  0  0
  149.7114  137.2239  181.6140 C   0  0  0  0  0  0  0  0  0  0  0  0
  148.6263  136.4001  181.1863 O   0  0  0  0  0  0  0  0  0  0  0  0
  150.0100  138.0619  180.7312 C   0  0  0  0  0  0  0  0  0  0  0  0
  149.4294  138.2515  179.4619 C   0  0  0  0  0  0  0  0  0  0  0  0
  150.1393  139.4066  178.8043 C   0  0  0  0  0  0  0  0  0  0  0  0
  151.0159  140.0460  179.2314 C   0  0  0  0  0  0  0  0  0  0  0  0
  151.6488  139.8801  180.5225 C   0  0  0  0  0  0  0  0  0  0  0  0
  151.1370  138.9028  181.2284 C   0  0  0  0  0  0  0  0  0  0  0  0
  154.9801  143.5915  182.4391 C   0  0  0  0  0  0  0  0  0  0  0  0
  154.7064  142.3785  182.6909 O   0  0  0  0  0  0  0  0  0  0  0  0
  153.7960  137.1023  184.0571 O   0  0  0  0  0  0  0  0  0  0  0  0
  154.1470  137.0766  185.4441 C   0  0  0  0  0  0  0  0  0  0  0  0
  156.4074  141.1796  184.1402 C   0  0  0  0  0  0  0  0  0  0  0  0
  157.7234  140.9766  183.8481 N   0  0  0  0  0  0  0  0  0  0  0  0
  158.5408  141.2109  185.0194 C   0  0  0  0  0  0  0  0  0  0  0  0
  158.4256  140.8534  182.6967 C   0  0  0  0  0  0  0  0  0  0  0  0
 19 20  1  0  0  0
 20  1  1  0  0  0
  1  2  2  0  0  0
  2  3  1  0  0  0
  3  7  1  0  0  0
  7  8  2  0  0  0
  8  9  1  0  0  0
  9 10  1  0  0  0
  9 11  1  0  0  0
 11 12  2  0  0  0
 11 13  1  0  0  0
 13 14  2  0  0  0
 14 15  1  0  0  0
 15 16  2  0  0  0
 16 17  1  0  0  0
 17 18  2  0  0  0
  3  4  2  0  0  0
  4 21  1  0  0  0
 21 22  1  0  0  0
  4  5  1  0  0  0
  5  6  2  0  0  0
  6 23  1  0  0  0
 23 24  1  0  0  0
 24 25  1  0  0  0
 24 26  1  0  0  0
  6  1  1  0  0  0
 18  7  1  0  0  0
 18 13  1  0  0  0
M  END
> <minimizedAffinity>
-6.79476

> <CNNscore>
0.3854793310

> <CNNaffinity>
5.4952106476

> <CNN_VS>
2.1182901859

> <CNNaffinity_variance>
0.1196087226

$$$$
[H]c1c(OC([H])([H])[H])c(C([H])([H])N(C([H])([H])[H])C([H])([H])[H])c([H])c(OC([H])([H])[H])c1-c1c([H])n(C([H])([H])[H])c(=O)c2c([H])c([H])c([H])c([H])c12


 26 28  0  0  0  0  0  0  0  0999 V2000
  156.8676  140.3894  183.4696 C   0  0  0  0  0  0  0  0  0  0  0  0
  155.6554  139.6802  183.2875 C   0  0  0  0  0  0  0  0  0  0  0  0
  154.3970  140.3613  182.9402 C   0  0  0  0  0  0  0  0  0  0  0  0
  154.4178  141.6665  182.8206 C   0  0  0  0  0  0  0  0  0  0  0  0
  155.5900  142.4314  183.0502 C   0  0  0  0  0  0  0  0  0  0  0  0
  156.6881  141.7910  183.3456 C   0  0  0  0  0  0  0  0  0  0  0  0
  153.4383  139.3766  182.4348 C   0  0  0  0  0  0  0  0  0  0  0  0
  152.7687  139.6541  181.1810 C   0  0  0  0  0  0  0  0  0  0  0  0
  151.5379  139.1133  180.8772 N   0  0  0  0  0  0  0  0  0  0  0  0
  150.7903  139.3692  179.7153 C   0  0  0  0  0  0  0  0  0  0  0  0
  151.1455  138.3687  181.8715 C   0  0  0  0  0  0  0  0  0  0  0  0
  149.8743  137.8477  181.4822 O   0  0  0  0  0  0  0  0  0  0  0  0
  151.4636  137.9615  183.0134 C   0  0  0  0  0  0  0  0  0  0  0  0
  150.7461  137.1134  183.8794 C   0  0  0  0  0  0  0  0  0  0  0  0
  151.5815  136.9147  185.1177 C   0  0  0  0  0  0  0  0  0  0  0  0
  152.6295  137.3675  185.3555 C   0  0  0  0  0  0  0  0  0  0  0  0
  153.3963  138.2498  184.5021 C   0  0  0  0  0  0  0  0  0  0  0  0
  152.7992  138.5220  183.3687 C   0  0  0  0  0  0  0  0  0  0  0  0
  159.2435  139.6000  183.9930 C   0  0  0  0  0  0  0  0  0  0  0  0
  158.0695  139.9706  183.6867 O   0  0  0  0  0  0  0  0  0  0  0  0
  153.2775  142.4139  182.4216 O   0  0  0  0  0  0  0  0  0  0  0  0
  153.4856  143.7924  182.7442 C   0  0  0  0  0  0  0  0  0  0  0  0
  157.9999  142.4980  183.4905 C   0  0  0  0  0  0  0  0  0  0  0  0
  158.5862  143.2795  182.5397 N   0  0  0  0  0  0  0  0  0  0  0  0
  158.9398  142.4845  181.3829 C   0  0  0  0  0  0  0  0  0  0  0  0
  159.1128  144.5271  182.5378 C   0  0  0  0  0  0  0  0  0  0  0  0
 19 20  1  0  0  0
 20  1  1  0  0  0
  1  2  2  0  0  0
  2  3  1  0  0  0
  3  7  1  0  0  0
  7  8  2  0  0  0
  8  9  1  0  0  0
  9 10  1  0  0  0
  9 11  1  0  0  0
 11 12  2  0  0  0
 11 13  1  0  0  0
 13 14  2  0  0  0
 14 15  1  0  0  0
 15 16  2  0  0  0
 16 17  1  0  0  0
 17 18  2  0  0  0
  3  4  2  0  0  0
  4 21  1  0  0  0
 21 22  1  0  0  0
  4  5  1  0  0  0
  5  6  2  0  0  0
  6 23  1  0  0  0
 23 24  1  0  0  0
 24 25  1  0  0  0
 24 26  1  0  0  0
  6  1  1  0  0  0
 18  7  1  0  0  0
 18 13  1  0  0  0
M  END
> <minimizedAffinity>
-6.27597

> <CNNscore>
0.3839670420

> <CNNaffinity>
5.9943556786

> <CNN_VS>
2.3016350269

> <CNNaffinity_variance>
0.0896742046

$$$$
[H]c1c(OC([H])([H])[H])c(C([H])([H])N(C([H])([H])[H])C([H])([H])[H])c([H])c(OC([H])([H])[H])c1-c1c([H])n(C([H])([H])[H])c(=O)c2c([H])c([H])c([H])c([H])c12


 26 28  0  0  0  0  0  0  0  0999 V2000
  153.5957  137.2406  189.7402 C   0  0  0  0  0  0  0  0  0  0  0  0
  153.1537  137.3377  188.3982 C   0  0  0  0  0  0  0  0  0  0  0  0
  152.2579  136.3356  187.7969 C   0  0  0  0  0  0  0  0  0  0  0  0
  151.8867  135.3201  188.5380 C   0  0  0  0  0  0  0  0  0  0  0  0
  152.3469  135.1425  189.8679 C   0  0  0  0  0  0  0  0  0  0  0  0
  153.1310  136.0574  190.3694 C   0  0  0  0  0  0  0  0  0  0  0  0
  151.6652  136.8877  186.5771 C   0  0  0  0  0  0  0  0  0  0  0  0
  150.2741  137.2889  186.6129 C   0  0  0  0  0  0  0  0  0  0  0  0
  149.4957  137.3210  185.4759 N   0  0  0  0  0  0  0  0  0  0  0  0
  148.1287  137.6414  185.4228 C   0  0  0  0  0  0  0  0  0  0  0  0
  150.2172  136.9460  184.4581 C   0  0  0  0  0  0  0  0  0  0  0  0
  149.3468  137.0071  183.3277 O   0  0  0  0  0  0  0  0  0  0  0  0
  151.3595  136.5557  184.1208 C   0  0  0  0  0  0  0  0  0  0  0  0
  151.8276  136.1975  182.8415 C   0  0  0  0  0  0  0  0  0  0  0  0
  153.2819  135.8264  182.9761 C   0  0  0  0  0  0  0  0  0  0  0  0
  153.9327  135.8178  183.9436 C   0  0  0  0  0  0  0  0  0  0  0  0
  153.4917  136.1668  185.2772 C   0  0  0  0  0  0  0  0  0  0  0  0
  152.2316  136.5197  185.3301 C   0  0  0  0  0  0  0  0  0  0  0  0
  155.0702  138.8166  191.1130 C   0  0  0  0  0  0  0  0  0  0  0  0
  154.2987  138.0490  190.4609 O   0  0  0  0  0  0  0  0  0  0  0  0
  150.9711  134.3357  188.0793 O   0  0  0  0  0  0  0  0  0  0  0  0
  149.7802  134.4000  188.8701 C   0  0  0  0  0  0  0  0  0  0  0  0
  153.5741  136.0203  191.7991 C   0  0  0  0  0  0  0  0  0  0  0  0
  152.7939  136.3181  192.8767 N   0  0  0  0  0  0  0  0  0  0  0  0
  152.7088  135.1795  193.7663 C   0  0  0  0  0  0  0  0  0  0  0  0
  151.9193  137.3119  193.1617 C   0  0  0  0  0  0  0  0  0  0  0  0
 19 20  1  0  0  0
 20  1  1  0  0  0
  1  2  2  0  0  0
  2  3  1  0  0  0
  3  7  1  0  0  0
  7  8  2  0  0  0
  8  9  1  0  0  0
  9 10  1  0  0  0
  9 11  1  0  0  0
 11 12  2  0  0  0
 11 13  1  0  0  0
 13 14  2  0  0  0
 14 15  1  0  0  0
 15 16  2  0  0  0
 16 17  1  0  0  0
 17 18  2  0  0  0
  3  4  2  0  0  0
  4 21  1  0  0  0
 21 22  1  0  0  0
  4  5  1  0  0  0
  5  6  2  0  0  0
  6 23  1  0  0  0
 23 24  1  0  0  0
 24 25  1  0  0  0
 24 26  1  0  0  0
  6  1  1  0  0  0
 18  7  1  0  0  0
 18 13  1  0  0  0
M  END
> <minimizedAffinity>
-4.43940

> <CNNscore>
0.3554864824

> <CNNaffinity>
4.9881453514

> <CNN_VS>
1.7732182741

> <CNNaffinity_variance>
0.0099067269

$$$$
[H]c1nc([H])c(N([H])C(=O)c2nn(-c3c([H])c([H])c([H])c([H])c3Cl)c(-c3c([H])c([H])c(Cl)c([H])c3[H])c2C([H])([H])C(=O)N([H])[H])c(C([H])([H])[H])c1[H]


 36 39  0  0  0  0  0  0  0  0999 V2000
  155.3433  138.5139  185.6870 C   0  0  0  0  0  0  0  0  0  0  0  0
  156.1055  139.4281  185.0673 N   0  0  0  0  0  0  0  0  0  0  0  0
  155.5260  139.8587  183.9398 N   0  0  0  0  0  0  0  0  0  0  0  0
  154.3249  139.2214  183.7756 C   0  0  0  0  0  0  0  0  0  0  0  0
  154.2198  138.3890  184.8702 C   0  0  0  0  0  0  0  0  0  0  0  0
  156.1806  140.8014  183.1174 C   0  0  0  0  0  0  0  0  0  0  0  0
  157.1743  140.3952  182.2576 C   0  0  0  0  0  0  0  0  0  0  0  0
  157.8545  141.3175  181.4534 C   0  0  0  0  0  0  0  0  0  0  0  0
  157.5385  142.6643  181.5081 C   0  0  0  0  0  0  0  0  0  0  0  0
  156.5458  143.0652  182.3680 C   0  0  0  0  0  0  0  0  0  0  0  0
  155.8776  142.1591  183.1582 C   0  0  0  0  0  0  0  0  0  0  0  0
  154.6110  142.6554  184.2577 Cl  0  0  0  0  0  0  0  0  0  0  0  0
  153.4820  139.3208  182.5945 C   0  0  0  0  0  0  0  0  0  0  0  0
  152.9655  138.2539  181.9040 C   0  0  0  0  0  0  0  0  0  0  0  0
  152.0731  138.3547  180.8443 C   0  0  0  0  0  0  0  0  0  0  0  0
  151.6618  139.5974  180.4344 C   0  0  0  0  0  0  0  0  0  0  0  0
  150.5389  139.6971  179.0991 Cl  0  0  0  0  0  0  0  0  0  0  0  0
  152.1420  140.6926  181.0809 C   0  0  0  0  0  0  0  0  0  0  0  0
  153.0392  140.5713  182.1474 C   0  0  0  0  0  0  0  0  0  0  0  0
  155.1387  138.3486  188.1374 N   0  0  0  0  0  0  0  0  0  0  0  0
  155.6613  137.8210  186.9384 C   0  0  0  0  0  0  0  0  0  0  0  0
  156.3625  136.8113  186.9321 O   0  0  0  0  0  0  0  0  0  0  0  0
  154.5400  139.2341  188.0059 H   0  0  0  0  0  0  0  0  0  0  0  0
  152.9515  137.0779  189.2852 C   0  0  0  0  0  0  0  0  0  0  0  0
  154.2042  137.2212  190.0485 C   0  0  0  0  0  0  0  0  0  0  0  0
  154.2834  136.7194  191.3320 C   0  0  0  0  0  0  0  0  0  0  0  0
  155.4302  136.8364  192.0771 C   0  0  0  0  0  0  0  0  0  0  0  0
  156.4615  137.4578  191.4996 N   0  0  0  0  0  0  0  0  0  0  0  0
  156.4155  137.9671  190.2275 C   0  0  0  0  0  0  0  0  0  0  0  0
  155.2941  137.8743  189.4469 C   0  0  0  0  0  0  0  0  0  0  0  0
  153.0667  137.5187  185.2601 C   0  0  0  0  0  0  0  0  0  0  0  0
  153.5193  136.0912  185.0356 C   0  0  0  0  0  0  0  0  0  0  0  0
  153.5289  135.2327  186.1482 N   0  0  0  0  0  0  0  0  0  0  0  0
  153.8673  135.6931  183.9179 O   0  0  0  0  0  0  0  0  0  0  0  0
  154.0434  135.4474  187.0509 H   0  0  0  0  0  0  0  0  0  0  0  0
  153.0194  134.2993  186.1698 H   0  0  0  0  0  0  0  0  0  0  0  0
 24 25  1  0  0  0
 25 26  2  0  0  0
 26 27  1  0  0  0
 27 28  2  0  0  0
 28 29  1  0  0  0
 29 30  2  0  0  0
 30 20  1  0  0  0
 20 21  1  0  0  0
 21 22  2  0  0  0
 21  1  1  0  0  0
  1  2  2  0  0  0
  2  3  1  0  0  0
  3  6  1  0  0  0
  6  7  2  0  0  0
  7  8  1  0  0  0
  8  9  2  0  0  0
  9 10  1  0  0  0
 10 11  2  0  0  0
 11 12  1  0  0  0
  3  4  1  0  0  0
  4 13  1  0  0  0
 13 14  2  0  0  0
 14 15  1  0  0  0
 15 16  2  0  0  0
 16 17  1  0  0  0
 16 18  1  0  0  0
 18 19  2  0  0  0
  4  5  2  0  0  0
  5 31  1  0  0  0
 31 32  1  0  0  0
 32 33  1  0  0  0
 32 34  2  0  0  0
 30 25  1  0  0  0
  5  1  1  0  0  0
 11  6  1  0  0  0
 19 13  1  0  0  0
 20 23  1  0  0  0
 33 35  1  0  0  0
 33 36  1  0  0  0
M  END
> <minimizedAffinity>
-7.89087

> <CNNscore>
0.6304390430

> <CNNaffinity>
6.6204309464

> <CNN_VS>
4.1737780571

> <CNNaffinity_variance>
0.1379115880

$$$$
[H]c1nc([H])c(N([H])C(=O)c2nn(-c3c([H])c([H])c([H])c([H])c3Cl)c(-c3c([H])c([H])c(Cl)c([H])c3[H])c2C([H])([H])C(=O)N([H])[H])c(C([H])([H])[H])c1[H]


 36 39  0  0  0  0  0  0  0  0999 V2000
  152.9993  137.8881  183.2118 C   0  0  0  0  0  0  0  0  0  0  0  0
  153.9989  138.7671  183.0419 N   0  0  0  0  0  0  0  0  0  0  0  0
  154.6660  138.9697  184.1849 N   0  0  0  0  0  0  0  0  0  0  0  0
  154.1092  138.2061  185.1761 C   0  0  0  0  0  0  0  0  0  0  0  0
  153.0746  137.5347  184.5589 C   0  0  0  0  0  0  0  0  0  0  0  0
  155.7377  139.8878  184.2311 C   0  0  0  0  0  0  0  0  0  0  0  0
  156.9775  139.4804  184.6651 C   0  0  0  0  0  0  0  0  0  0  0  0
  158.0465  140.3811  184.7443 C   0  0  0  0  0  0  0  0  0  0  0  0
  157.8756  141.7071  184.3852 C   0  0  0  0  0  0  0  0  0  0  0  0
  156.6361  142.1093  183.9525 C   0  0  0  0  0  0  0  0  0  0  0  0
  155.5858  141.2246  183.8748 C   0  0  0  0  0  0  0  0  0  0  0  0
  154.0017  141.7228  183.3253 Cl  0  0  0  0  0  0  0  0  0  0  0  0
  154.4704  138.2727  186.5834 C   0  0  0  0  0  0  0  0  0  0  0  0
  153.6475  138.7169  187.5871 C   0  0  0  0  0  0  0  0  0  0  0  0
  153.9573  138.6755  188.9406 C   0  0  0  0  0  0  0  0  0  0  0  0
  155.1668  138.1610  189.3326 C   0  0  0  0  0  0  0  0  0  0  0  0
  155.5326  138.1202  191.0410 Cl  0  0  0  0  0  0  0  0  0  0  0  0
  156.0248  137.7066  188.3811 C   0  0  0  0  0  0  0  0  0  0  0  0
  155.6947  137.7549  187.0225 C   0  0  0  0  0  0  0  0  0  0  0  0
  151.0307  138.3166  181.7925 N   0  0  0  0  0  0  0  0  0  0  0  0
  152.0576  137.4333  182.1854 C   0  0  0  0  0  0  0  0  0  0  0  0
  152.1684  136.3145  181.6884 O   0  0  0  0  0  0  0  0  0  0  0  0
  151.0452  139.2650  182.3026 H   0  0  0  0  0  0  0  0  0  0  0  0
  151.1903  139.8139  179.4582 C   0  0  0  0  0  0  0  0  0  0  0  0
  150.0814  138.8617  179.6481 C   0  0  0  0  0  0  0  0  0  0  0  0
  149.1275  138.7180  178.6607 C   0  0  0  0  0  0  0  0  0  0  0  0
  148.0774  137.8454  178.8011 C   0  0  0  0  0  0  0  0  0  0  0  0
  148.0253  137.1452  179.9370 N   0  0  0  0  0  0  0  0  0  0  0  0
  148.9561  137.2643  180.9366 C   0  0  0  0  0  0  0  0  0  0  0  0
  150.0202  138.1210  180.8415 C   0  0  0  0  0  0  0  0  0  0  0  0
  152.1757  136.4897  185.1409 C   0  0  0  0  0  0  0  0  0  0  0  0
  152.9413  135.1852  185.0689 C   0  0  0  0  0  0  0  0  0  0  0  0
  152.6805  134.3412  183.9758 N   0  0  0  0  0  0  0  0  0  0  0  0
  153.7648  134.8718  185.9363 O   0  0  0  0  0  0  0  0  0  0  0  0
  151.7104  133.9979  183.7176 H   0  0  0  0  0  0  0  0  0  0  0  0
  153.4385  133.9813  183.3223 H   0  0  0  0  0  0  0  0  0  0  0  0
 24 25  1  0  0  0
 25 26  2  0  0  0
 26 27  1  0  0  0
 27 28  2  0  0  0
 28 29  1  0  0  0
 29 30  2  0  0  0
 30 20  1  0  0  0
 20 21  1  0  0  0
 21 22  2  0  0  0
 21  1  1  0  0  0
  1  2  2  0  0  0
  2  3  1  0  0  0
  3  6  1  0  0  0
  6  7  2  0  0  0
  7  8  1  0  0  0
  8  9  2  0  0  0
  9 10  1  0  0  0
 10 11  2  0  0  0
 11 12  1  0  0  0
  3  4  1  0  0  0
  4 13  1  0  0  0
 13 14  2  0  0  0
 14 15  1  0  0  0
 15 16  2  0  0  0
 16 17  1  0  0  0
 16 18  1  0  0  0
 18 19  2  0  0  0
  4  5  2  0  0  0
  5 31  1  0  0  0
 31 32  1  0  0  0
 32 33  1  0  0  0
 32 34  2  0  0  0
 30 25  1  0  0  0
  5  1  1  0  0  0
 11  6  1  0  0  0
 19 13  1  0  0  0
 20 23  1  0  0  0
 33 35  1  0  0  0
 33 36  1  0  0  0
M  END
> <minimizedAffinity>
-8.18980

> <CNNscore>
0.4470799863

> <CNNaffinity>
6.3732614517

> <CNN_VS>
2.8493576050

> <CNNaffinity_variance>
0.1408134997

$$$$
[H]c1nc([H])c(N([H])C(=O)c2nn(-c3c([H])c([H])c([H])c([H])c3Cl)c(-c3c([H])c([H])c(Cl)c([H])c3[H])c2C([H])([H])C(=O)N([H])[H])c(C([H])([H])[H])c1[H]


 36 39  0  0  0  0  0  0  0  0999 V2000
  153.5958  135.2772  185.9101 C   0  0  0  0  0  0  0  0  0  0  0  0
  154.4763  135.8692  186.7315 N   0  0  0  0  0  0  0  0  0  0  0  0
  154.0605  135.8221  188.0033 N   0  0  0  0  0  0  0  0  0  0  0  0
  152.8540  135.1767  188.0620 C   0  0  0  0  0  0  0  0  0  0  0  0
  152.5755  134.8392  186.7541 C   0  0  0  0  0  0  0  0  0  0  0  0
  154.8281  136.4202  189.0264 C   0  0  0  0  0  0  0  0  0  0  0  0
  155.6795  135.6544  189.7881 C   0  0  0  0  0  0  0  0  0  0  0  0
  156.4291  136.2228  190.8250 C   0  0  0  0  0  0  0  0  0  0  0  0
  156.3274  137.5747  191.1056 C   0  0  0  0  0  0  0  0  0  0  0  0
  155.4761  138.3353  190.3425 C   0  0  0  0  0  0  0  0  0  0  0  0
  154.7396  137.7769  189.3239 C   0  0  0  0  0  0  0  0  0  0  0  0
  153.6516  138.7335  188.3438 Cl  0  0  0  0  0  0  0  0  0  0  0  0
  152.0248  135.0642  189.2516 C   0  0  0  0  0  0  0  0  0  0  0  0
  150.8978  135.8063  189.4987 C   0  0  0  0  0  0  0  0  0  0  0  0
  150.0492  135.6190  190.5823 C   0  0  0  0  0  0  0  0  0  0  0  0
  150.3334  134.6299  191.4890 C   0  0  0  0  0  0  0  0  0  0  0  0
  149.2503  134.4146  192.8435 Cl  0  0  0  0  0  0  0  0  0  0  0  0
  151.4391  133.8628  191.2966 C   0  0  0  0  0  0  0  0  0  0  0  0
  152.2814  134.0652  190.1981 C   0  0  0  0  0  0  0  0  0  0  0  0
  154.1622  133.9146  183.9362 N   0  0  0  0  0  0  0  0  0  0  0  0
  153.7152  135.1474  184.4554 C   0  0  0  0  0  0  0  0  0  0  0  0
  153.4315  136.0901  183.7192 O   0  0  0  0  0  0  0  0  0  0  0  0
  154.3758  133.1714  184.6858 H   0  0  0  0  0  0  0  0  0  0  0  0
  152.1335  132.4499  182.7300 C   0  0  0  0  0  0  0  0  0  0  0  0
  153.3403  132.8070  181.9628 C   0  0  0  0  0  0  0  0  0  0  0  0
  153.4539  132.4120  180.6450 C   0  0  0  0  0  0  0  0  0  0  0  0
  154.5633  132.7208  179.8981 C   0  0  0  0  0  0  0  0  0  0  0  0
  155.5234  133.4201  180.5083 N   0  0  0  0  0  0  0  0  0  0  0  0
  155.4415  133.8275  181.8149 C   0  0  0  0  0  0  0  0  0  0  0  0
  154.3552  133.5432  182.5988 C   0  0  0  0  0  0  0  0  0  0  0  0
  151.4249  134.0369  186.2333 C   0  0  0  0  0  0  0  0  0  0  0  0
  151.5991  132.6384  186.7872 C   0  0  0  0  0  0  0  0  0  0  0  0
  152.7119  131.9018  186.3466 N   0  0  0  0  0  0  0  0  0  0  0  0
  150.7954  132.1602  187.5960 O   0  0  0  0  0  0  0  0  0  0  0  0
  152.9288  131.7213  185.3239 H   0  0  0  0  0  0  0  0  0  0  0  0
  153.4234  131.4677  187.0073 H   0  0  0  0  0  0  0  0  0  0  0  0
 24 25  1  0  0  0
 25 26  2  0  0  0
 26 27  1  0  0  0
 27 28  2  0  0  0
 28 29  1  0  0  0
 29 30  2  0  0  0
 30 20  1  0  0  0
 20 21  1  0  0  0
 21 22  2  0  0  0
 21  1  1  0  0  0
  1  2  2  0  0  0
  2  3  1  0  0  0
  3  6  1  0  0  0
  6  7  2  0  0  0
  7  8  1  0  0  0
  8  9  2  0  0  0
  9 10  1  0  0  0
 10 11  2  0  0  0
 11 12  1  0  0  0
  3  4  1  0  0  0
  4 13  1  0  0  0
 13 14  2  0  0  0
 14 15  1  0  0  0
 15 16  2  0  0  0
 16 17  1  0  0  0
 16 18  1  0  0  0
 18 19  2  0  0  0
  4  5  2  0  0  0
  5 31  1  0  0  0
 31 32  1  0  0  0
 32 33  1  0  0  0
 32 34  2  0  0  0
 30 25  1  0  0  0
  5  1  1  0  0  0
 11  6  1  0  0  0
 19 13  1  0  0  0
 20 23  1  0  0  0
 33 35  1  0  0  0
 33 36  1  0  0  0
M  END
> <minimizedAffinity>
-4.61074

> <CNNscore>
0.3901994228

> <CNNaffinity>
5.9564828873

> <CNN_VS>
2.3242161274

> <CNNaffinity_variance>
0.1754575074

$$$$
[H]c1nc([H])c(N([H])C(=O)c2nn(-c3c([H])c([H])c([H])c([H])c3Cl)c(-c3c([H])c([H])c(Cl)c([H])c3[H])c2C([H])([H])C(=O)N([H])[H])c(C([H])([H])[H])c1[H]


 36 39  0  0  0  0  0  0  0  0999 V2000
  151.5755  135.9950  185.3981 C   0  0  0  0  0  0  0  0  0  0  0  0
  150.9562  137.0585  184.8635 N   0  0  0  0  0  0  0  0  0  0  0  0
  150.2555  136.7154  183.7755 N   0  0  0  0  0  0  0  0  0  0  0  0
  150.3956  135.3716  183.5515 C   0  0  0  0  0  0  0  0  0  0  0  0
  151.2166  134.9325  184.5689 C   0  0  0  0  0  0  0  0  0  0  0  0
  149.5544  137.6965  183.0409 C   0  0  0  0  0  0  0  0  0  0  0  0
  148.2612  138.0196  183.3799 C   0  0  0  0  0  0  0  0  0  0  0  0
  147.5391  138.9698  182.6479 C   0  0  0  0  0  0  0  0  0  0  0  0
  148.1159  139.6065  181.5622 C   0  0  0  0  0  0  0  0  0  0  0  0
  149.4071  139.2807  181.2275 C   0  0  0  0  0  0  0  0  0  0  0  0
  150.1166  138.3471  181.9466 C   0  0  0  0  0  0  0  0  0  0  0  0
  151.7619  137.9224  181.5319 Cl  0  0  0  0  0  0  0  0  0  0  0  0
  149.9018  134.6649  182.3800 C   0  0  0  0  0  0  0  0  0  0  0  0
  148.6013  134.2733  182.1871 C   0  0  0  0  0  0  0  0  0  0  0  0
  148.1133  133.6975  181.0209 C   0  0  0  0  0  0  0  0  0  0  0  0
  148.9699  133.4910  179.9698 C   0  0  0  0  0  0  0  0  0  0  0  0
  148.3314  132.7650  178.5140 Cl  0  0  0  0  0  0  0  0  0  0  0  0
  150.2719  133.8580  180.1039 C   0  0  0  0  0  0  0  0  0  0  0  0
  150.7451  134.4382  181.2858 C   0  0  0  0  0  0  0  0  0  0  0  0
  153.7495  136.4847  186.4504 N   0  0  0  0  0  0  0  0  0  0  0  0
  152.4339  135.9949  186.5857 C   0  0  0  0  0  0  0  0  0  0  0  0
  152.0104  135.5787  187.6621 O   0  0  0  0  0  0  0  0  0  0  0  0
  153.9957  136.8200  185.4570 H   0  0  0  0  0  0  0  0  0  0  0  0
  153.6649  138.7120  188.1082 C   0  0  0  0  0  0  0  0  0  0  0  0
  154.7276  137.7053  188.2807 C   0  0  0  0  0  0  0  0  0  0  0  0
  155.6756  137.8753  189.2697 C   0  0  0  0  0  0  0  0  0  0  0  0
  156.6834  136.9631  189.4598 C   0  0  0  0  0  0  0  0  0  0  0  0
  156.7004  135.9069  188.6428 N   0  0  0  0  0  0  0  0  0  0  0  0
  155.7742  135.7087  187.6515 C   0  0  0  0  0  0  0  0  0  0  0  0
  154.7516  136.5908  187.4243 C   0  0  0  0  0  0  0  0  0  0  0  0
  151.6343  133.5291  184.8768 C   0  0  0  0  0  0  0  0  0  0  0  0
  152.9182  133.2919  184.1096 C   0  0  0  0  0  0  0  0  0  0  0  0
  152.9172  132.2678  183.1472 N   0  0  0  0  0  0  0  0  0  0  0  0
  153.9298  133.9712  184.3194 O   0  0  0  0  0  0  0  0  0  0  0  0
  152.6423  131.2649  183.3574 H   0  0  0  0  0  0  0  0  0  0  0  0
  153.1930  132.4211  182.1315 H   0  0  0  0  0  0  0  0  0  0  0  0
 24 25  1  0  0  0
 25 26  2  0  0  0
 26 27  1  0  0  0
 27 28  2  0  0  0
 28 29  1  0  0  0
 29 30  2  0  0  0
 30 20  1  0  0  0
 20 21  1  0  0  0
 21 22  2  0  0  0
 21  1  1  0  0  0
  1  2  2  0  0  0
  2  3  1  0  0  0
  3  6  1  0  0  0
  6  7  2  0  0  0
  7  8  1  0  0  0
  8  9  2  0  0  0
  9 10  1  0  0  0
 10 11  2  0  0  0
 11 12  1  0  0  0
  3  4  1  0  0  0
  4 13  1  0  0  0
 13 14  2  0  0  0
 14 15  1  0  0  0
 15 16  2  0  0  0
 16 17  1  0  0  0
 16 18  1  0  0  0
 18 19  2  0  0  0
  4  5  2  0  0  0
  5 31  1  0  0  0
 31 32  1  0  0  0
 32 33  1  0  0  0
 32 34  2  0  0  0
 30 25  1  0  0  0
  5  1  1  0  0  0
 11  6  1  0  0  0
 19 13  1  0  0  0
 20 23  1  0  0  0
 33 35  1  0  0  0
 33 36  1  0  0  0
M  END
> <minimizedAffinity>
-4.68994

> <CNNscore>
0.2572096586

> <CNNaffinity>
5.9392476082

> <CNN_VS>
1.5276318789

> <CNNaffinity_variance>
0.2692147791

$$$$
[H]c1nc([H])c(N([H])C(=O)c2nn(-c3c([H])c([H])c([H])c([H])c3Cl)c(-c3c([H])c([H])c(Cl)c([H])c3[H])c2C([H])([H])C(=O)N([H])[H])c(C([H])([H])[H])c1[H]


 36 39  0  0  0  0  0  0  0  0999 V2000
  155.7213  138.4088  186.2836 C   0  0  0  0  0  0  0  0  0  0  0  0
  156.6339  139.0158  185.5094 N   0  0  0  0  0  0  0  0  0  0  0  0
  156.0826  139.4740  184.3786 N   0  0  0  0  0  0  0  0  0  0  0  0
  154.7464  139.1738  184.3717 C   0  0  0  0  0  0  0  0  0  0  0  0
  154.5316  138.5135  185.5633 C   0  0  0  0  0  0  0  0  0  0  0  0
  156.8801  140.1175  183.4072 C   0  0  0  0  0  0  0  0  0  0  0  0
  157.7432  139.3845  182.6268 C   0  0  0  0  0  0  0  0  0  0  0  0
  158.5624  140.0063  181.6767 C   0  0  0  0  0  0  0  0  0  0  0  0
  158.5193  141.3791  181.5031 C   0  0  0  0  0  0  0  0  0  0  0  0
  157.6560  142.1068  182.2845 C   0  0  0  0  0  0  0  0  0  0  0  0
  156.8513  141.4961  183.2179 C   0  0  0  0  0  0  0  0  0  0  0  0
  155.7469  142.4103  184.2199 Cl  0  0  0  0  0  0  0  0  0  0  0  0
  153.8503  139.3812  183.2451 C   0  0  0  0  0  0  0  0  0  0  0  0
  153.5874  140.5944  182.6614 C   0  0  0  0  0  0  0  0  0  0  0  0
  152.8180  140.7723  181.5185 C   0  0  0  0  0  0  0  0  0  0  0  0
  152.2661  139.6748  180.9084 C   0  0  0  0  0  0  0  0  0  0  0  0
  151.3024  139.9253  179.4723 Cl  0  0  0  0  0  0  0  0  0  0  0  0
  152.4914  138.4455  181.4433 C   0  0  0  0  0  0  0  0  0  0  0  0
  153.2705  138.2857  182.5942 C   0  0  0  0  0  0  0  0  0  0  0  0
  156.1105  136.3806  187.6284 N   0  0  0  0  0  0  0  0  0  0  0  0
  155.9643  137.7826  187.5860 C   0  0  0  0  0  0  0  0  0  0  0  0
  156.0371  138.4677  188.6041 O   0  0  0  0  0  0  0  0  0  0  0  0
  156.0268  135.8988  186.6688 H   0  0  0  0  0  0  0  0  0  0  0  0
  158.5337  135.0239  187.6904 C   0  0  0  0  0  0  0  0  0  0  0  0
  157.5709  134.8629  188.7948 C   0  0  0  0  0  0  0  0  0  0  0  0
  157.8817  134.0382  189.8572 C   0  0  0  0  0  0  0  0  0  0  0  0
  157.0107  133.8584  190.9027 C   0  0  0  0  0  0  0  0  0  0  0  0
  155.8519  134.5191  190.8403 N   0  0  0  0  0  0  0  0  0  0  0  0
  155.5130  135.3453  189.7999 C   0  0  0  0  0  0  0  0  0  0  0  0
  156.3490  135.5555  188.7358 C   0  0  0  0  0  0  0  0  0  0  0  0
  153.2333  138.0319  186.1303 C   0  0  0  0  0  0  0  0  0  0  0  0
  153.0296  136.6317  185.5909 C   0  0  0  0  0  0  0  0  0  0  0  0
  151.7178  136.2493  185.2621 N   0  0  0  0  0  0  0  0  0  0  0  0
  153.9784  135.8526  185.4442 O   0  0  0  0  0  0  0  0  0  0  0  0
  150.9031  136.3043  185.9394 H   0  0  0  0  0  0  0  0  0  0  0  0
  151.4414  135.8745  184.3058 H   0  0  0  0  0  0  0  0  0  0  0  0
 24 25  1  0  0  0
 25 26  2  0  0  0
 26 27  1  0  0  0
 27 28  2  0  0  0
 28 29  1  0  0  0
 29 30  2  0  0  0
 30 20  1  0  0  0
 20 21  1  0  0  0
 21 22  2  0  0  0
 21  1  1  0  0  0
  1  2  2  0  0  0
  2  3  1  0  0  0
  3  6  1  0  0  0
  6  7  2  0  0  0
  7  8  1  0  0  0
  8  9  2  0  0  0
  9 10  1  0  0  0
 10 11  2  0  0  0
 11 12  1  0  0  0
  3  4  1  0  0  0
  4 13  1  0  0  0
 13 14  2  0  0  0
 14 15  1  0  0  0
 15 16  2  0  0  0
 16 17  1  0  0  0
 16 18  1  0  0  0
 18 19  2  0  0  0
  4  5  2  0  0  0
  5 31  1  0  0  0
 31 32  1  0  0  0
 32 33  1  0  0  0
 32 34  2  0  0  0
 30 25  1  0  0  0
  5  1  1  0  0  0
 11  6  1  0  0  0
 19 13  1  0  0  0
 20 23  1  0  0  0
 33 35  1  0  0  0
 33 36  1  0  0  0
M  END
> <minimizedAffinity>
-8.05712

> <CNNscore>
0.2559314668

> <CNNaffinity>
6.1830072403

> <CNN_VS>
1.5824260712

> <CNNaffinity_variance>
0.2144614458

$$$$
[H]c1nc([H])c(N([H])C(=O)c2nn(-c3c([H])c([H])c([H])c([H])c3Cl)c(-c3c([H])c([H])c(Cl)c([H])c3[H])c2C([H])([H])C(=O)N([H])[H])c(C([H])([H])[H])c1[H]


 36 39  0  0  0  0  0  0  0  0999 V2000
  156.7111  139.7411  184.5497 C   0  0  0  0  0  0  0  0  0  0  0  0
  155.9587  138.9820  185.3611 N   0  0  0  0  0  0  0  0  0  0  0  0
  154.7555  138.7437  184.8243 N   0  0  0  0  0  0  0  0  0  0  0  0
  154.6744  139.3581  183.6030 C   0  0  0  0  0  0  0  0  0  0  0  0
  155.8980  139.9734  183.4406 C   0  0  0  0  0  0  0  0  0  0  0  0
  153.7955  137.9897  185.5339 C   0  0  0  0  0  0  0  0  0  0  0  0
  153.0486  138.5813  186.5257 C   0  0  0  0  0  0  0  0  0  0  0  0
  152.1108  137.8450  187.2596 C   0  0  0  0  0  0  0  0  0  0  0  0
  151.9159  136.4992  187.0000 C   0  0  0  0  0  0  0  0  0  0  0  0
  152.6639  135.9128  186.0089 C   0  0  0  0  0  0  0  0  0  0  0  0
  153.5852  136.6361  185.2879 C   0  0  0  0  0  0  0  0  0  0  0  0
  154.5448  135.9025  184.0228 Cl  0  0  0  0  0  0  0  0  0  0  0  0
  153.4707  139.4459  182.7912 C   0  0  0  0  0  0  0  0  0  0  0  0
  153.0581  140.5651  182.1138 C   0  0  0  0  0  0  0  0  0  0  0  0
  151.9689  140.6120  181.2529 C   0  0  0  0  0  0  0  0  0  0  0  0
  151.2321  139.4736  181.0468 C   0  0  0  0  0  0  0  0  0  0  0  0
  149.8668  139.5589  179.9592 Cl  0  0  0  0  0  0  0  0  0  0  0  0
  151.5932  138.3335  181.6930 C   0  0  0  0  0  0  0  0  0  0  0  0
  152.6945  138.3050  182.5553 C   0  0  0  0  0  0  0  0  0  0  0  0
  158.2409  141.4867  185.3780 N   0  0  0  0  0  0  0  0  0  0  0  0
  158.0759  140.2056  184.8120 C   0  0  0  0  0  0  0  0  0  0  0  0
  159.0404  139.4923  184.5435 O   0  0  0  0  0  0  0  0  0  0  0  0
  157.3176  142.0083  185.5662 H   0  0  0  0  0  0  0  0  0  0  0  0
  159.6434  142.7105  183.3161 C   0  0  0  0  0  0  0  0  0  0  0  0
  160.1526  142.7824  184.6974 C   0  0  0  0  0  0  0  0  0  0  0  0
  161.3256  143.4616  184.9586 C   0  0  0  0  0  0  0  0  0  0  0  0
  161.8351  143.5479  186.2303 C   0  0  0  0  0  0  0  0  0  0  0  0
  161.1412  142.9439  187.1982 N   0  0  0  0  0  0  0  0  0  0  0  0
  159.9735  142.2618  186.9723 C   0  0  0  0  0  0  0  0  0  0  0  0
  159.4272  142.1490  185.7216 C   0  0  0  0  0  0  0  0  0  0  0  0
  156.4051  140.7176  182.2457 C   0  0  0  0  0  0  0  0  0  0  0  0
  156.2104  142.1883  182.5493 C   0  0  0  0  0  0  0  0  0  0  0  0
  156.6165  143.1106  181.5697 N   0  0  0  0  0  0  0  0  0  0  0  0
  155.7136  142.5663  183.6165 O   0  0  0  0  0  0  0  0  0  0  0  0
  157.5938  143.1372  181.1577 H   0  0  0  0  0  0  0  0  0  0  0  0
  155.9726  143.8546  181.1658 H   0  0  0  0  0  0  0  0  0  0  0  0
 24 25  1  0  0  0
 25 26  2  0  0  0
 26 27  1  0  0  0
 27 28  2  0  0  0
 28 29  1  0  0  0
 29 30  2  0  0  0
 30 20  1  0  0  0
 20 21  1  0  0  0
 21 22  2  0  0  0
 21  1  1  0  0  0
  1  2  2  0  0  0
  2  3  1  0  0  0
  3  6  1  0  0  0
  6  7  2  0  0  0
  7  8  1  0  0  0
  8  9  2  0  0  0
  9 10  1  0  0  0
 10 11  2  0  0  0
 11 12  1  0  0  0
  3  4  1  0  0  0
  4 13  1  0  0  0
 13 14  2  0  0  0
 14 15  1  0  0  0
 15 16  2  0  0  0
 16 17  1  0  0  0
 16 18  1  0  0  0
 18 19  2  0  0  0
  4  5  2  0  0  0
  5 31  1  0  0  0
 31 32  1  0  0  0
 32 33  1  0  0  0
 32 34  2  0  0  0
 30 25  1  0  0  0
  5  1  1  0  0  0
 11  6  1  0  0  0
 19 13  1  0  0  0
 20 23  1  0  0  0
 33 35  1  0  0  0
 33 36  1  0  0  0
M  END
> <minimizedAffinity>
-8.52155

> <CNNscore>
0.2377680242

> <CNNaffinity>
6.6179480553

> <CNN_VS>
1.5735363960

> <CNNaffinity_variance>
0.3265659809

$$$$
[H]c1nc([H])c(N([H])C(=O)c2nn(-c3c([H])c([H])c([H])c([H])c3Cl)c(-c3c([H])c([H])c(Cl)c([H])c3[H])c2C([H])([H])C(=O)N([H])[H])c(C([H])([H])[H])c1[H]


 36 39  0  0  0  0  0  0  0  0999 V2000
  156.9654  140.0973  184.7465 C   0  0  0  0  0  0  0  0  0  0  0  0
  158.1772  140.4052  185.2336 N   0  0  0  0  0  0  0  0  0  0  0  0
  158.8231  141.2550  184.4254 N   0  0  0  0  0  0  0  0  0  0  0  0
  158.0318  141.5432  183.3454 C   0  0  0  0  0  0  0  0  0  0  0  0
  156.8768  140.8198  183.5568 C   0  0  0  0  0  0  0  0  0  0  0  0
  160.1325  141.6803  184.7388 C   0  0  0  0  0  0  0  0  0  0  0  0
  161.1670  141.4287  183.8682 C   0  0  0  0  0  0  0  0  0  0  0  0
  162.4771  141.8178  184.1723 C   0  0  0  0  0  0  0  0  0  0  0  0
  162.7586  142.4672  185.3621 C   0  0  0  0  0  0  0  0  0  0  0  0
  161.7225  142.7163  186.2282 C   0  0  0  0  0  0  0  0  0  0  0  0
  160.4355  142.3339  185.9296 C   0  0  0  0  0  0  0  0  0  0  0  0
  159.1061  142.6447  187.0231 Cl  0  0  0  0  0  0  0  0  0  0  0  0
  158.4520  142.3120  182.1844 C   0  0  0  0  0  0  0  0  0  0  0  0
  158.7134  143.6586  182.1847 C   0  0  0  0  0  0  0  0  0  0  0  0
  159.2196  144.3664  181.1018 C   0  0  0  0  0  0  0  0  0  0  0  0
  159.4850  143.6985  179.9336 C   0  0  0  0  0  0  0  0  0  0  0  0
  160.1211  144.6116  178.5861 Cl  0  0  0  0  0  0  0  0  0  0  0  0
  159.2440  142.3620  179.8738 C   0  0  0  0  0  0  0  0  0  0  0  0
  158.7355  141.6655  180.9755 C   0  0  0  0  0  0  0  0  0  0  0  0
  154.6496  139.2713  184.9157 N   0  0  0  0  0  0  0  0  0  0  0  0
  155.9869  139.1935  185.3571 C   0  0  0  0  0  0  0  0  0  0  0  0
  156.3315  138.3955  186.2264 O   0  0  0  0  0  0  0  0  0  0  0  0
  154.4798  140.0097  184.1503 H   0  0  0  0  0  0  0  0  0  0  0  0
  153.1784  137.9830  182.9430 C   0  0  0  0  0  0  0  0  0  0  0  0
  152.7836  137.8560  184.3574 C   0  0  0  0  0  0  0  0  0  0  0  0
  151.6833  137.0934  184.6939 C   0  0  0  0  0  0  0  0  0  0  0  0
  151.2808  136.9538  185.9987 C   0  0  0  0  0  0  0  0  0  0  0  0
  152.0048  137.5905  186.9226 N   0  0  0  0  0  0  0  0  0  0  0  0
  153.1024  138.3551  186.6218 C   0  0  0  0  0  0  0  0  0  0  0  0
  153.5413  138.5235  185.3356 C   0  0  0  0  0  0  0  0  0  0  0  0
  155.6236  140.8226  182.7392 C   0  0  0  0  0  0  0  0  0  0  0  0
  154.9083  142.1167  183.0660 C   0  0  0  0  0  0  0  0  0  0  0  0
  155.0227  143.1703  182.1431 N   0  0  0  0  0  0  0  0  0  0  0  0
  154.2483  142.2446  184.1037 O   0  0  0  0  0  0  0  0  0  0  0  0
  155.9512  143.5557  181.8042 H   0  0  0  0  0  0  0  0  0  0  0  0
  154.1840  143.6631  181.7128 H   0  0  0  0  0  0  0  0  0  0  0  0
 24 25  1  0  0  0
 25 26  2  0  0  0
 26 27  1  0  0  0
 27 28  2  0  0  0
 28 29  1  0  0  0
 29 30  2  0  0  0
 30 20  1  0  0  0
 20 21  1  0  0  0
 21 22  2  0  0  0
 21  1  1  0  0  0
  1  2  2  0  0  0
  2  3  1  0  0  0
  3  6  1  0  0  0
  6  7  2  0  0  0
  7  8  1  0  0  0
  8  9  2  0  0  0
  9 10  1  0  0  0
 10 11  2  0  0  0
 11 12  1  0  0  0
  3  4  1  0  0  0
  4 13  1  0  0  0
 13 14  2  0  0  0
 14 15  1  0  0  0
 15 16  2  0  0  0
 16 17  1  0  0  0
 16 18  1  0  0  0
 18 19  2  0  0  0
  4  5  2  0  0  0
  5 31  1  0  0  0
 31 32  1  0  0  0
 32 33  1  0  0  0
 32 34  2  0  0  0
 30 25  1  0  0  0
  5  1  1  0  0  0
 11  6  1  0  0  0
 19 13  1  0  0  0
 20 23  1  0  0  0
 33 35  1  0  0  0
 33 36  1  0  0  0
M  END
> <minimizedAffinity>
-9.00620

> <CNNscore>
0.2295388728

> <CNNaffinity>
7.0575666428

> <CNN_VS>
1.6199859381

> <CNNaffinity_variance>
0.2245333940

$$$$
[H]c1nc([H])c(N([H])C(=O)c2nn(-c3c([H])c([H])c([H])c([H])c3Cl)c(-c3c([H])c([H])c(Cl)c([H])c3[H])c2C([H])([H])C(=O)N([H])[H])c(C([H])([H])[H])c1[H]


 36 39  0  0  0  0  0  0  0  0999 V2000
  153.8858  139.6886  183.0672 C   0  0  0  0  0  0  0  0  0  0  0  0
  152.7488  139.9574  182.4071 N   0  0  0  0  0  0  0  0  0  0  0  0
  151.9081  138.9162  182.4456 N   0  0  0  0  0  0  0  0  0  0  0  0
  152.4830  137.8955  183.1551 C   0  0  0  0  0  0  0  0  0  0  0  0
  153.7124  138.3880  183.5399 C   0  0  0  0  0  0  0  0  0  0  0  0
  150.6641  138.9800  181.7807 C   0  0  0  0  0  0  0  0  0  0  0  0
  149.4942  138.8393  182.4899 C   0  0  0  0  0  0  0  0  0  0  0  0
  148.2514  138.8723  181.8461 C   0  0  0  0  0  0  0  0  0  0  0  0
  148.1752  139.0482  180.4751 C   0  0  0  0  0  0  0  0  0  0  0  0
  149.3458  139.1883  179.7711 C   0  0  0  0  0  0  0  0  0  0  0  0
  150.5668  139.1558  180.4035 C   0  0  0  0  0  0  0  0  0  0  0  0
  152.0658  139.3330  179.5197 Cl  0  0  0  0  0  0  0  0  0  0  0  0
  151.9327  136.5553  183.2838 C   0  0  0  0  0  0  0  0  0  0  0  0
  152.0851  135.5500  182.3629 C   0  0  0  0  0  0  0  0  0  0  0  0
  151.6522  134.2421  182.5406 C   0  0  0  0  0  0  0  0  0  0  0  0
  151.0215  133.9013  183.7099 C   0  0  0  0  0  0  0  0  0  0  0  0
  150.4864  132.2496  183.9089 Cl  0  0  0  0  0  0  0  0  0  0  0  0
  150.8408  134.8571  184.6595 C   0  0  0  0  0  0  0  0  0  0  0  0
  151.2852  136.1691  184.4633 C   0  0  0  0  0  0  0  0  0  0  0  0
  155.6698  141.0584  182.0598 N   0  0  0  0  0  0  0  0  0  0  0  0
  155.0320  140.5875  183.2263 C   0  0  0  0  0  0  0  0  0  0  0  0
  155.4176  140.9152  184.3466 O   0  0  0  0  0  0  0  0  0  0  0  0
  155.2345  140.6983  181.1429 H   0  0  0  0  0  0  0  0  0  0  0  0
  155.1751  143.7789  182.3242 C   0  0  0  0  0  0  0  0  0  0  0  0
  156.5481  143.2999  182.0835 C   0  0  0  0  0  0  0  0  0  0  0  0
  157.5829  144.2091  181.9931 C   0  0  0  0  0  0  0  0  0  0  0  0
  158.8743  143.8037  181.7656 C   0  0  0  0  0  0  0  0  0  0  0  0
  159.0784  142.4903  181.6367 N   0  0  0  0  0  0  0  0  0  0  0  0
  158.0731  141.5618  181.7212 C   0  0  0  0  0  0  0  0  0  0  0  0
  156.7703  141.9185  181.9469 C   0  0  0  0  0  0  0  0  0  0  0  0
  154.7340  137.7358  184.4173 C   0  0  0  0  0  0  0  0  0  0  0  0
  154.2900  137.9878  185.8430 C   0  0  0  0  0  0  0  0  0  0  0  0
  154.9466  137.2751  186.8608 N   0  0  0  0  0  0  0  0  0  0  0  0
  153.3853  138.7888  186.1047 O   0  0  0  0  0  0  0  0  0  0  0  0
  155.0269  136.2173  186.8789 H   0  0  0  0  0  0  0  0  0  0  0  0
  155.4145  137.7437  187.6931 H   0  0  0  0  0  0  0  0  0  0  0  0
 24 25  1  0  0  0
 25 26  2  0  0  0
 26 27  1  0  0  0
 27 28  2  0  0  0
 28 29  1  0  0  0
 29 30  2  0  0  0
 30 20  1  0  0  0
 20 21  1  0  0  0
 21 22  2  0  0  0
 21  1  1  0  0  0
  1  2  2  0  0  0
  2  3  1  0  0  0
  3  6  1  0  0  0
  6  7  2  0  0  0
  7  8  1  0  0  0
  8  9  2  0  0  0
  9 10  1  0  0  0
 10 11  2  0  0  0
 11 12  1  0  0  0
  3  4  1  0  0  0
  4 13  1  0  0  0
 13 14  2  0  0  0
 14 15  1  0  0  0
 15 16  2  0  0  0
 16 17  1  0  0  0
 16 18  1  0  0  0
 18 19  2  0  0  0
  4  5  2  0  0  0
  5 31  1  0  0  0
 31 32  1  0  0  0
 32 33  1  0  0  0
 32 34  2  0  0  0
 30 25  1  0  0  0
  5  1  1  0  0  0
 11  6  1  0  0  0
 19 13  1  0  0  0
 20 23  1  0  0  0
 33 35  1  0  0  0
 33 36  1  0  0  0
M  END
> <minimizedAffinity>
-7.11280

> <CNNscore>
0.2246888280

> <CNNaffinity>
6.3583531380

> <CNN_VS>
1.4286508560

> <CNNaffinity_variance>
0.2057662904

$$$$
[H]c1nc([H])c(N([H])C(=O)c2nn(-c3c([H])c([H])c([H])c([H])c3Cl)c(-c3c([H])c([H])c(Cl)c([H])c3[H])c2C([H])([H])C(=O)N([H])[H])c(C([H])([H])[H])c1[H]


 36 39  0  0  0  0  0  0  0  0999 V2000
  156.7843  139.8070  184.9174 C   0  0  0  0  0  0  0  0  0  0  0  0
  157.7998  140.3066  185.6383 N   0  0  0  0  0  0  0  0  0  0  0  0
  158.4874  141.2189  184.9401 N   0  0  0  0  0  0  0  0  0  0  0  0
  157.9286  141.3537  183.6970 C   0  0  0  0  0  0  0  0  0  0  0  0
  156.8676  140.4727  183.6946 C   0  0  0  0  0  0  0  0  0  0  0  0
  159.6200  141.8439  185.5060 C   0  0  0  0  0  0  0  0  0  0  0  0
  159.4988  142.5728  186.6660 C   0  0  0  0  0  0  0  0  0  0  0  0
  160.6038  143.2228  187.2288 C   0  0  0  0  0  0  0  0  0  0  0  0
  161.8473  143.1441  186.6253 C   0  0  0  0  0  0  0  0  0  0  0  0
  161.9635  142.4152  185.4674 C   0  0  0  0  0  0  0  0  0  0  0  0
  160.8779  141.7767  184.9143 C   0  0  0  0  0  0  0  0  0  0  0  0
  161.0112  140.8448  183.4401 Cl  0  0  0  0  0  0  0  0  0  0  0  0
  158.4896  142.1418  182.6109 C   0  0  0  0  0  0  0  0  0  0  0  0
  158.8361  141.6492  181.3784 C   0  0  0  0  0  0  0  0  0  0  0  0
  159.2677  142.4244  180.3095 C   0  0  0  0  0  0  0  0  0  0  0  0
  159.3670  143.7832  180.4681 C   0  0  0  0  0  0  0  0  0  0  0  0
  159.9124  144.7359  179.1084 Cl  0  0  0  0  0  0  0  0  0  0  0  0
  159.0382  144.3283  181.6692 C   0  0  0  0  0  0  0  0  0  0  0  0
  158.6038  143.5316  182.7340 C   0  0  0  0  0  0  0  0  0  0  0  0
  154.4539  139.0958  185.2874 N   0  0  0  0  0  0  0  0  0  0  0  0
  155.8281  138.7859  185.3536 C   0  0  0  0  0  0  0  0  0  0  0  0
  156.2224  137.6957  185.7627 O   0  0  0  0  0  0  0  0  0  0  0  0
  154.2415  140.0820  184.9103 H   0  0  0  0  0  0  0  0  0  0  0  0
  153.8918  138.8496  187.9966 C   0  0  0  0  0  0  0  0  0  0  0  0
  153.0459  138.1634  187.0035 C   0  0  0  0  0  0  0  0  0  0  0  0
  151.9751  137.4024  187.4275 C   0  0  0  0  0  0  0  0  0  0  0  0
  151.1663  136.7445  186.5347 C   0  0  0  0  0  0  0  0  0  0  0  0
  151.4664  136.8775  185.2403 N   0  0  0  0  0  0  0  0  0  0  0  0
  152.5221  137.6255  184.7867 C   0  0  0  0  0  0  0  0  0  0  0  0
  153.3560  138.2990  185.6390 C   0  0  0  0  0  0  0  0  0  0  0  0
  155.8438  140.2643  182.6235 C   0  0  0  0  0  0  0  0  0  0  0  0
  154.7840  141.3242  182.8394 C   0  0  0  0  0  0  0  0  0  0  0  0
  153.4878  141.0479  182.3719 N   0  0  0  0  0  0  0  0  0  0  0  0
  155.0456  142.3922  183.4048 O   0  0  0  0  0  0  0  0  0  0  0  0
  153.2710  140.7744  181.3700 H   0  0  0  0  0  0  0  0  0  0  0  0
  152.6227  141.0922  182.9892 H   0  0  0  0  0  0  0  0  0  0  0  0
 24 25  1  0  0  0
 25 26  2  0  0  0
 26 27  1  0  0  0
 27 28  2  0  0  0
 28 29  1  0  0  0
 29 30  2  0  0  0
 30 20  1  0  0  0
 20 21  1  0  0  0
 21 22  2  0  0  0
 21  1  1  0  0  0
  1  2  2  0  0  0
  2  3  1  0  0  0
  3  6  1  0  0  0
  6  7  2  0  0  0
  7  8  1  0  0  0
  8  9  2  0  0  0
  9 10  1  0  0  0
 10 11  2  0  0  0
 11 12  1  0  0  0
  3  4  1  0  0  0
  4 13  1  0  0  0
 13 14  2  0  0  0
 14 15  1  0  0  0
 15 16  2  0  0  0
 16 17  1  0  0  0
 16 18  1  0  0  0
 18 19  2  0  0  0
  4  5  2  0  0  0
  5 31  1  0  0  0
 31 32  1  0  0  0
 32 33  1  0  0  0
 32 34  2  0  0  0
 30 25  1  0  0  0
  5  1  1  0  0  0
 11  6  1  0  0  0
 19 13  1  0  0  0
 20 23  1  0  0  0
 33 35  1  0  0  0
 33 36  1  0  0  0
M  END
> <minimizedAffinity>
-7.97731

> <CNNscore>
0.2222598791

> <CNNaffinity>
6.9907579422

> <CNN_VS>
1.5537650585

> <CNNaffinity_variance>
0.1964922994

$$$$
[H]OC([H])([H])C([H])([H])n1c(C2([H])C([H])([H])C([H])([H])N(c3nc([H])nc(N([H])[H])c3C#N)C([H])([H])C2([H])[H])nc(-c2c([H])c([H])c(F)c(C([H])([H])[H])c2[H])c1[H]


 34 37  0  0  0  0  0  0  0  0999 V2000
  155.6177  137.7894  187.4148 C   0  0  0  0  0  0  0  0  0  0  0  0
  154.5084  137.4517  186.6758 C   0  0  0  0  0  0  0  0  0  0  0  0
  154.6254  138.0899  185.4683 N   0  0  0  0  0  0  0  0  0  0  0  0
  155.7593  138.7949  185.4568 C   0  0  0  0  0  0  0  0  0  0  0  0
  156.3452  138.5973  186.6488 N   0  0  0  0  0  0  0  0  0  0  0  0
  157.1711  134.3154  190.6593 C   0  0  0  0  0  0  0  0  0  0  0  0
  156.6440  135.6675  190.3516 C   0  0  0  0  0  0  0  0  0  0  0  0
  156.3851  136.0788  189.0437 C   0  0  0  0  0  0  0  0  0  0  0  0
  155.8988  137.3282  188.7681 C   0  0  0  0  0  0  0  0  0  0  0  0
  155.6602  138.1983  189.8088 C   0  0  0  0  0  0  0  0  0  0  0  0
  155.9068  137.8193  191.1133 C   0  0  0  0  0  0  0  0  0  0  0  0
  156.4000  136.5500  191.3828 C   0  0  0  0  0  0  0  0  0  0  0  0
  156.6294  136.2178  192.6900 F   0  0  0  0  0  0  0  0  0  0  0  0
  156.2828  139.6293  184.3778 C   0  0  0  0  0  0  0  0  0  0  0  0
  157.6919  140.1056  184.6736 C   0  0  0  0  0  0  0  0  0  0  0  0
  158.2402  140.5391  183.3371 C   0  0  0  0  0  0  0  0  0  0  0  0
  157.4319  141.6761  182.8399 N   0  0  0  0  0  0  0  0  0  0  0  0
  156.0145  141.5905  182.9105 C   0  0  0  0  0  0  0  0  0  0  0  0
  155.4886  140.9035  184.1823 C   0  0  0  0  0  0  0  0  0  0  0  0
  158.2069  142.7645  182.3669 C   0  0  0  0  0  0  0  0  0  0  0  0
  158.6563  143.7276  183.2327 N   0  0  0  0  0  0  0  0  0  0  0  0
  159.3558  144.7852  182.8142 C   0  0  0  0  0  0  0  0  0  0  0  0
  159.6555  144.9614  181.5265 N   0  0  0  0  0  0  0  0  0  0  0  0
  159.2510  144.0613  180.6204 C   0  0  0  0  0  0  0  0  0  0  0  0
  159.5451  144.2023  179.2278 N   0  0  0  0  0  0  0  0  0  0  0  0
  158.5130  142.9433  181.0597 C   0  0  0  0  0  0  0  0  0  0  0  0
  159.0816  144.9763  178.6757 H   0  0  0  0  0  0  0  0  0  0  0  0
  160.1988  143.5784  178.7165 H   0  0  0  0  0  0  0  0  0  0  0  0
  158.1372  141.9795  180.0534 C   0  0  0  0  0  0  0  0  0  0  0  0
  157.8116  141.2229  179.2358 N   0  0  0  0  0  0  0  0  0  0  0  0
  153.6338  137.9506  184.4436 C   0  0  0  0  0  0  0  0  0  0  0  0
  153.3359  136.4958  184.2341 C   0  0  0  0  0  0  0  0  0  0  0  0
  154.2897  135.7923  183.5452 O   0  0  0  0  0  0  0  0  0  0  0  0
  154.5171  134.9130  183.9715 H   0  0  0  0  0  0  0  0  0  0  0  0
  6  7  1  0  0  0
  7  8  2  0  0  0
  8  9  1  0  0  0
  9  1  1  0  0  0
  1  2  2  0  0  0
  2  3  1  0  0  0
  3 31  1  0  0  0
 31 32  1  0  0  0
 32 33  1  0  0  0
  3  4  1  0  0  0
  4 14  1  0  0  0
 14 15  1  0  0  0
 15 16  1  0  0  0
 16 17  1  0  0  0
 17 20  1  0  0  0
 20 21  2  0  0  0
 21 22  1  0  0  0
 22 23  2  0  0  0
 23 24  1  0  0  0
 24 25  1  0  0  0
 24 26  2  0  0  0
 26 29  1  0  0  0
 29 30  3  0  0  0
 17 18  1  0  0  0
 18 19  1  0  0  0
  4  5  2  0  0  0
  9 10  2  0  0  0
 10 11  1  0  0  0
 11 12  2  0  0  0
 12 13  1  0  0  0
 12  7  1  0  0  0
  5  1  1  0  0  0
 19 14  1  0  0  0
 26 20  1  0  0  0
 33 34  1  0  0  0
 25 27  1  0  0  0
 25 28  1  0  0  0
M  END
> <minimizedAffinity>
-7.41599

> <CNNscore>
0.3421730399

> <CNNaffinity>
6.6220855713

> <CNN_VS>
2.2658991814

> <CNNaffinity_variance>
0.0077342265

$$$$
[H]OC([H])([H])C([H])([H])n1c(C2([H])C([H])([H])C([H])([H])N(c3nc([H])nc(N([H])[H])c3C#N)C([H])([H])C2([H])[H])nc(-c2c([H])c([H])c(F)c(C([H])([H])[H])c2[H])c1[H]


 34 37  0  0  0  0  0  0  0  0999 V2000
  152.4226  139.2358  181.9643 C   0  0  0  0  0  0  0  0  0  0  0  0
  153.2219  140.3447  182.1127 C   0  0  0  0  0  0  0  0  0  0  0  0
  154.0123  140.1213  183.2102 N   0  0  0  0  0  0  0  0  0  0  0  0
  153.7168  138.9243  183.7228 C   0  0  0  0  0  0  0  0  0  0  0  0
  152.7492  138.4050  182.9500 N   0  0  0  0  0  0  0  0  0  0  0  0
  148.5491  136.8084  179.9361 C   0  0  0  0  0  0  0  0  0  0  0  0
  149.5582  137.8958  179.9197 C   0  0  0  0  0  0  0  0  0  0  0  0
  150.4990  138.0452  180.9392 C   0  0  0  0  0  0  0  0  0  0  0  0
  151.4267  139.0513  180.9167 C   0  0  0  0  0  0  0  0  0  0  0  0
  151.4293  139.9361  179.8611 C   0  0  0  0  0  0  0  0  0  0  0  0
  150.5105  139.8132  178.8380 C   0  0  0  0  0  0  0  0  0  0  0  0
  149.5734  138.7896  178.8696 C   0  0  0  0  0  0  0  0  0  0  0  0
  148.6827  138.7064  177.8346 F   0  0  0  0  0  0  0  0  0  0  0  0
  154.3085  138.2823  184.8942 C   0  0  0  0  0  0  0  0  0  0  0  0
  153.3714  138.3226  186.0860 C   0  0  0  0  0  0  0  0  0  0  0  0
  153.8991  137.2680  187.0264 C   0  0  0  0  0  0  0  0  0  0  0  0
  155.2607  137.6580  187.4591 N   0  0  0  0  0  0  0  0  0  0  0  0
  156.1869  138.1096  186.4795 C   0  0  0  0  0  0  0  0  0  0  0  0
  155.5615  138.9816  185.3775 C   0  0  0  0  0  0  0  0  0  0  0  0
  155.4662  137.5585  188.8580 C   0  0  0  0  0  0  0  0  0  0  0  0
  155.0863  138.5780  189.6919 N   0  0  0  0  0  0  0  0  0  0  0  0
  155.3002  138.5323  191.0092 C   0  0  0  0  0  0  0  0  0  0  0  0
  155.8970  137.4879  191.5857 N   0  0  0  0  0  0  0  0  0  0  0  0
  156.2960  136.4524  190.8354 C   0  0  0  0  0  0  0  0  0  0  0  0
  156.9406  135.3086  191.4028 N   0  0  0  0  0  0  0  0  0  0  0  0
  156.0708  136.4978  189.4444 C   0  0  0  0  0  0  0  0  0  0  0  0
  157.9166  135.4065  191.7985 H   0  0  0  0  0  0  0  0  0  0  0  0
  156.4995  134.3699  191.4504 H   0  0  0  0  0  0  0  0  0  0  0  0
  156.4784  135.3407  188.6843 C   0  0  0  0  0  0  0  0  0  0  0  0
  156.8154  134.4290  188.0502 N   0  0  0  0  0  0  0  0  0  0  0  0
  154.9783  141.0832  183.6511 C   0  0  0  0  0  0  0  0  0  0  0  0
  155.7594  141.5804  182.4713 C   0  0  0  0  0  0  0  0  0  0  0  0
  156.6897  140.7071  181.9702 O   0  0  0  0  0  0  0  0  0  0  0  0
  156.6633  140.6325  180.9701 H   0  0  0  0  0  0  0  0  0  0  0  0
  6  7  1  0  0  0
  7  8  2  0  0  0
  8  9  1  0  0  0
  9  1  1  0  0  0
  1  2  2  0  0  0
  2  3  1  0  0  0
  3 31  1  0  0  0
 31 32  1  0  0  0
 32 33  1  0  0  0
  3  4  1  0  0  0
  4 14  1  0  0  0
 14 15  1  0  0  0
 15 16  1  0  0  0
 16 17  1  0  0  0
 17 20  1  0  0  0
 20 21  2  0  0  0
 21 22  1  0  0  0
 22 23  2  0  0  0
 23 24  1  0  0  0
 24 25  1  0  0  0
 24 26  2  0  0  0
 26 29  1  0  0  0
 29 30  3  0  0  0
 17 18  1  0  0  0
 18 19  1  0  0  0
  4  5  2  0  0  0
  9 10  2  0  0  0
 10 11  1  0  0  0
 11 12  2  0  0  0
 12 13  1  0  0  0
 12  7  1  0  0  0
  5  1  1  0  0  0
 19 14  1  0  0  0
 26 20  1  0  0  0
 33 34  1  0  0  0
 25 27  1  0  0  0
 25 28  1  0  0  0
M  END
> <minimizedAffinity>
-7.92005

> <CNNscore>
0.3190765381

> <CNNaffinity>
5.8319544792

> <CNN_VS>
1.8608398438

> <CNNaffinity_variance>
0.0198236741

$$$$
[H]OC([H])([H])C([H])([H])n1c(C2([H])C([H])([H])C([H])([H])N(c3nc([H])nc(N([H])[H])c3C#N)C([H])([H])C2([H])[H])nc(-c2c([H])c([H])c(F)c(C([H])([H])[H])c2[H])c1[H]


 34 37  0  0  0  0  0  0  0  0999 V2000
  153.8577  138.0108  186.4722 C   0  0  0  0  0  0  0  0  0  0  0  0
  153.2024  137.3782  185.4421 C   0  0  0  0  0  0  0  0  0  0  0  0
  153.6455  137.9503  184.2779 N   0  0  0  0  0  0  0  0  0  0  0  0
  154.5384  138.8987  184.5715 C   0  0  0  0  0  0  0  0  0  0  0  0
  154.6513  138.9175  185.9094 N   0  0  0  0  0  0  0  0  0  0  0  0
  155.1163  138.5514  191.2819 C   0  0  0  0  0  0  0  0  0  0  0  0
  154.2742  137.9578  190.2144 C   0  0  0  0  0  0  0  0  0  0  0  0
  154.4659  138.2643  188.8668 C   0  0  0  0  0  0  0  0  0  0  0  0
  153.6845  137.7125  187.8880 C   0  0  0  0  0  0  0  0  0  0  0  0
  152.6858  136.8336  188.2446 C   0  0  0  0  0  0  0  0  0  0  0  0
  152.4725  136.5112  189.5699 C   0  0  0  0  0  0  0  0  0  0  0  0
  153.2702  137.0762  190.5557 C   0  0  0  0  0  0  0  0  0  0  0  0
  153.0229  136.7279  191.8553 F   0  0  0  0  0  0  0  0  0  0  0  0
  155.2619  139.7641  183.6429 C   0  0  0  0  0  0  0  0  0  0  0  0
  156.6991  139.9737  184.0794 C   0  0  0  0  0  0  0  0  0  0  0  0
  157.4074  140.4732  182.8450 C   0  0  0  0  0  0  0  0  0  0  0  0
  156.8180  141.7746  182.4550 N   0  0  0  0  0  0  0  0  0  0  0  0
  155.4025  141.9053  182.4319 C   0  0  0  0  0  0  0  0  0  0  0  0
  154.6836  141.1615  183.5703 C   0  0  0  0  0  0  0  0  0  0  0  0
  157.7805  142.7765  182.1741 C   0  0  0  0  0  0  0  0  0  0  0  0
  158.2165  143.6201  183.1627 N   0  0  0  0  0  0  0  0  0  0  0  0
  159.0932  144.5984  182.9231 C   0  0  0  0  0  0  0  0  0  0  0  0
  159.5933  144.8074  181.7043 N   0  0  0  0  0  0  0  0  0  0  0  0
  159.2149  144.0225  180.6868 C   0  0  0  0  0  0  0  0  0  0  0  0
  159.7201  144.2035  179.3609 N   0  0  0  0  0  0  0  0  0  0  0  0
  158.2899  142.9885  180.9371 C   0  0  0  0  0  0  0  0  0  0  0  0
  159.4389  145.0626  178.8117 H   0  0  0  0  0  0  0  0  0  0  0  0
  160.3584  143.5292  178.8964 H   0  0  0  0  0  0  0  0  0  0  0  0
  157.9462  142.1425  179.8196 C   0  0  0  0  0  0  0  0  0  0  0  0
  157.6895  141.4407  178.9316 N   0  0  0  0  0  0  0  0  0  0  0  0
  153.1673  137.5202  182.9976 C   0  0  0  0  0  0  0  0  0  0  0  0
  152.2814  138.5810  182.4155 C   0  0  0  0  0  0  0  0  0  0  0  0
  152.7710  139.2112  181.3008 O   0  0  0  0  0  0  0  0  0  0  0  0
  152.0927  139.2998  180.5669 H   0  0  0  0  0  0  0  0  0  0  0  0
  6  7  1  0  0  0
  7  8  2  0  0  0
  8  9  1  0  0  0
  9  1  1  0  0  0
  1  2  2  0  0  0
  2  3  1  0  0  0
  3 31  1  0  0  0
 31 32  1  0  0  0
 32 33  1  0  0  0
  3  4  1  0  0  0
  4 14  1  0  0  0
 14 15  1  0  0  0
 15 16  1  0  0  0
 16 17  1  0  0  0
 17 20  1  0  0  0
 20 21  2  0  0  0
 21 22  1  0  0  0
 22 23  2  0  0  0
 23 24  1  0  0  0
 24 25  1  0  0  0
 24 26  2  0  0  0
 26 29  1  0  0  0
 29 30  3  0  0  0
 17 18  1  0  0  0
 18 19  1  0  0  0
  4  5  2  0  0  0
  9 10  2  0  0  0
 10 11  1  0  0  0
 11 12  2  0  0  0
 12 13  1  0  0  0
 12  7  1  0  0  0
  5  1  1  0  0  0
 19 14  1  0  0  0
 26 20  1  0  0  0
 33 34  1  0  0  0
 25 27  1  0  0  0
 25 28  1  0  0  0
M  END
> <minimizedAffinity>
-7.74829

> <CNNscore>
0.3010150492

> <CNNaffinity>
6.5333356857

> <CNN_VS>
1.9666323662

> <CNNaffinity_variance>
0.0324057564

$$$$
[H]OC([H])([H])C([H])([H])n1c(C2([H])C([H])([H])C([H])([H])N(c3nc([H])nc(N([H])[H])c3C#N)C([H])([H])C2([H])[H])nc(-c2c([H])c([H])c(F)c(C([H])([H])[H])c2[H])c1[H]


 34 37  0  0  0  0  0  0  0  0999 V2000
  154.0868  137.8936  186.8586 C   0  0  0  0  0  0  0  0  0  0  0  0
  153.4338  137.2328  185.8449 C   0  0  0  0  0  0  0  0  0  0  0  0
  153.9037  137.7498  184.6656 N   0  0  0  0  0  0  0  0  0  0  0  0
  154.8106  138.6923  184.9344 C   0  0  0  0  0  0  0  0  0  0  0  0
  154.9053  138.7622  186.2720 N   0  0  0  0  0  0  0  0  0  0  0  0
  151.5977  135.8536  190.6864 C   0  0  0  0  0  0  0  0  0  0  0  0
  152.7032  136.6812  190.1444 C   0  0  0  0  0  0  0  0  0  0  0  0
  152.8656  136.8903  188.7745 C   0  0  0  0  0  0  0  0  0  0  0  0
  153.8884  137.6551  188.2824 C   0  0  0  0  0  0  0  0  0  0  0  0
  154.7773  138.2311  189.1629 C   0  0  0  0  0  0  0  0  0  0  0  0
  154.6418  138.0419  190.5238 C   0  0  0  0  0  0  0  0  0  0  0  0
  153.6012  137.2644  191.0134 C   0  0  0  0  0  0  0  0  0  0  0  0
  153.5060  137.1044  192.3687 F   0  0  0  0  0  0  0  0  0  0  0  0
  155.5632  139.5065  183.9830 C   0  0  0  0  0  0  0  0  0  0  0  0
  156.9187  139.9022  184.5364 C   0  0  0  0  0  0  0  0  0  0  0  0
  157.7214  140.3170  183.3288 C   0  0  0  0  0  0  0  0  0  0  0  0
  157.0768  141.5010  182.7156 N   0  0  0  0  0  0  0  0  0  0  0  0
  155.6674  141.4926  182.5284 C   0  0  0  0  0  0  0  0  0  0  0  0
  154.8852  140.8240  183.6717 C   0  0  0  0  0  0  0  0  0  0  0  0
  157.9802  142.5495  182.4103 C   0  0  0  0  0  0  0  0  0  0  0  0
  158.4660  143.3612  183.4024 N   0  0  0  0  0  0  0  0  0  0  0  0
  159.2881  144.3811  183.1439 C   0  0  0  0  0  0  0  0  0  0  0  0
  159.6820  144.6653  181.9016 N   0  0  0  0  0  0  0  0  0  0  0  0
  159.2494  143.9158  180.8790 C   0  0  0  0  0  0  0  0  0  0  0  0
  159.6407  144.1772  179.5283 N   0  0  0  0  0  0  0  0  0  0  0  0
  158.3818  142.8379  181.1493 C   0  0  0  0  0  0  0  0  0  0  0  0
  159.2884  145.0502  179.0462 H   0  0  0  0  0  0  0  0  0  0  0  0
  160.2616  143.5493  178.9823 H   0  0  0  0  0  0  0  0  0  0  0  0
  157.9778  142.0333  180.0214 C   0  0  0  0  0  0  0  0  0  0  0  0
  157.6275  141.4039  179.1114 N   0  0  0  0  0  0  0  0  0  0  0  0
  153.4351  137.2780  183.3965 C   0  0  0  0  0  0  0  0  0  0  0  0
  152.2390  138.0803  182.9784 C   0  0  0  0  0  0  0  0  0  0  0  0
  152.4415  138.9349  181.9257 O   0  0  0  0  0  0  0  0  0  0  0  0
  151.7148  138.8906  181.2354 H   0  0  0  0  0  0  0  0  0  0  0  0
  6  7  1  0  0  0
  7  8  2  0  0  0
  8  9  1  0  0  0
  9  1  1  0  0  0
  1  2  2  0  0  0
  2  3  1  0  0  0
  3 31  1  0  0  0
 31 32  1  0  0  0
 32 33  1  0  0  0
  3  4  1  0  0  0
  4 14  1  0  0  0
 14 15  1  0  0  0
 15 16  1  0  0  0
 16 17  1  0  0  0
 17 20  1  0  0  0
 20 21  2  0  0  0
 21 22  1  0  0  0
 22 23  2  0  0  0
 23 24  1  0  0  0
 24 25  1  0  0  0
 24 26  2  0  0  0
 26 29  1  0  0  0
 29 30  3  0  0  0
 17 18  1  0  0  0
 18 19  1  0  0  0
  4  5  2  0  0  0
  9 10  2  0  0  0
 10 11  1  0  0  0
 11 12  2  0  0  0
 12 13  1  0  0  0
 12  7  1  0  0  0
  5  1  1  0  0  0
 19 14  1  0  0  0
 26 20  1  0  0  0
 33 34  1  0  0  0
 25 27  1  0  0  0
 25 28  1  0  0  0
M  END
> <minimizedAffinity>
-7.36708

> <CNNscore>
0.2453119606

> <CNNaffinity>
6.4033994675

> <CNN_VS>
1.5708304644

> <CNNaffinity_variance>
0.0316372737

$$$$
[H]OC([H])([H])C([H])([H])n1c(C2([H])C([H])([H])C([H])([H])N(c3nc([H])nc(N([H])[H])c3C#N)C([H])([H])C2([H])[H])nc(-c2c([H])c([H])c(F)c(C([H])([H])[H])c2[H])c1[H]


 34 37  0  0  0  0  0  0  0  0999 V2000
  152.8135  137.5490  183.5699 C   0  0  0  0  0  0  0  0  0  0  0  0
  152.1393  138.1566  182.5369 C   0  0  0  0  0  0  0  0  0  0  0  0
  152.7603  139.3570  182.3081 N   0  0  0  0  0  0  0  0  0  0  0  0
  153.7776  139.4905  183.1627 C   0  0  0  0  0  0  0  0  0  0  0  0
  153.7906  138.3809  183.9188 N   0  0  0  0  0  0  0  0  0  0  0  0
  152.9918  132.5513  183.5446 C   0  0  0  0  0  0  0  0  0  0  0  0
  152.5583  133.8364  184.1459 C   0  0  0  0  0  0  0  0  0  0  0  0
  152.8893  135.0666  183.5768 C   0  0  0  0  0  0  0  0  0  0  0  0
  152.4855  136.2478  184.1379 C   0  0  0  0  0  0  0  0  0  0  0  0
  151.7344  136.2186  185.2920 C   0  0  0  0  0  0  0  0  0  0  0  0
  151.3915  135.0164  185.8779 C   0  0  0  0  0  0  0  0  0  0  0  0
  151.8058  133.8235  185.3015 C   0  0  0  0  0  0  0  0  0  0  0  0
  151.4428  132.6566  185.9165 F   0  0  0  0  0  0  0  0  0  0  0  0
  154.7064  140.6123  183.2793 C   0  0  0  0  0  0  0  0  0  0  0  0
  154.7605  141.4274  182.0015 C   0  0  0  0  0  0  0  0  0  0  0  0
  155.3683  142.7456  182.4113 C   0  0  0  0  0  0  0  0  0  0  0  0
  156.7460  142.5013  182.8966 N   0  0  0  0  0  0  0  0  0  0  0  0
  156.9730  141.4265  183.7993 C   0  0  0  0  0  0  0  0  0  0  0  0
  156.1368  140.1698  183.5037 C   0  0  0  0  0  0  0  0  0  0  0  0
  157.7093  143.3865  182.3513 C   0  0  0  0  0  0  0  0  0  0  0  0
  158.0871  144.5122  183.0362 N   0  0  0  0  0  0  0  0  0  0  0  0
  158.9630  145.3861  182.5340 C   0  0  0  0  0  0  0  0  0  0  0  0
  159.5191  145.2092  181.3345 N   0  0  0  0  0  0  0  0  0  0  0  0
  159.1995  144.1314  180.6059 C   0  0  0  0  0  0  0  0  0  0  0  0
  159.7662  143.8941  179.3142 N   0  0  0  0  0  0  0  0  0  0  0  0
  158.2755  143.2069  181.1341 C   0  0  0  0  0  0  0  0  0  0  0  0
  159.5020  144.5258  178.5080 H   0  0  0  0  0  0  0  0  0  0  0  0
  160.4340  143.1240  179.1167 H   0  0  0  0  0  0  0  0  0  0  0  0
  157.9961  142.0403  180.3317 C   0  0  0  0  0  0  0  0  0  0  0  0
  157.7464  141.0966  179.7040 N   0  0  0  0  0  0  0  0  0  0  0  0
  152.3137  140.2528  181.2831 C   0  0  0  0  0  0  0  0  0  0  0  0
  151.6666  139.4662  180.1823 C   0  0  0  0  0  0  0  0  0  0  0  0
  151.4564  140.1512  179.0136 O   0  0  0  0  0  0  0  0  0  0  0  0
  151.7343  139.6366  178.1984 H   0  0  0  0  0  0  0  0  0  0  0  0
  6  7  1  0  0  0
  7  8  2  0  0  0
  8  9  1  0  0  0
  9  1  1  0  0  0
  1  2  2  0  0  0
  2  3  1  0  0  0
  3 31  1  0  0  0
 31 32  1  0  0  0
 32 33  1  0  0  0
  3  4  1  0  0  0
  4 14  1  0  0  0
 14 15  1  0  0  0
 15 16  1  0  0  0
 16 17  1  0  0  0
 17 20  1  0  0  0
 20 21  2  0  0  0
 21 22  1  0  0  0
 22 23  2  0  0  0
 23 24  1  0  0  0
 24 25  1  0  0  0
 24 26  2  0  0  0
 26 29  1  0  0  0
 29 30  3  0  0  0
 17 18  1  0  0  0
 18 19  1  0  0  0
  4  5  2  0  0  0
  9 10  2  0  0  0
 10 11  1  0  0  0
 11 12  2  0  0  0
 12 13  1  0  0  0
 12  7  1  0  0  0
  5  1  1  0  0  0
 19 14  1  0  0  0
 26 20  1  0  0  0
 33 34  1  0  0  0
 25 27  1  0  0  0
 25 28  1  0  0  0
M  END
> <minimizedAffinity>
-6.35934

> <CNNscore>
0.1895723790

> <CNNaffinity>
6.3375883102

> <CNN_VS>
1.2014317513

> <CNNaffinity_variance>
0.1355137378

$$$$
[H]OC([H])([H])C([H])([H])n1c(C2([H])C([H])([H])C([H])([H])N(c3nc([H])nc(N([H])[H])c3C#N)C([H])([H])C2([H])[H])nc(-c2c([H])c([H])c(F)c(C([H])([H])[H])c2[H])c1[H]


 34 37  0  0  0  0  0  0  0  0999 V2000
  153.7754  138.6283  184.7939 C   0  0  0  0  0  0  0  0  0  0  0  0
  153.2625  139.3562  183.7462 C   0  0  0  0  0  0  0  0  0  0  0  0
  154.3088  140.0466  183.1915 N   0  0  0  0  0  0  0  0  0  0  0  0
  155.4252  139.7603  183.8658 C   0  0  0  0  0  0  0  0  0  0  0  0
  155.0772  138.8973  184.8339 N   0  0  0  0  0  0  0  0  0  0  0  0
  152.5667  136.8303  189.3011 C   0  0  0  0  0  0  0  0  0  0  0  0
  152.4061  136.8656  187.8268 C   0  0  0  0  0  0  0  0  0  0  0  0
  153.1596  137.7211  187.0224 C   0  0  0  0  0  0  0  0  0  0  0  0
  153.0053  137.7477  185.6627 C   0  0  0  0  0  0  0  0  0  0  0  0
  152.0833  136.9088  185.0770 C   0  0  0  0  0  0  0  0  0  0  0  0
  151.3233  136.0513  185.8473 C   0  0  0  0  0  0  0  0  0  0  0  0
  151.4869  136.0316  187.2256 C   0  0  0  0  0  0  0  0  0  0  0  0
  150.7126  135.1661  187.9487 F   0  0  0  0  0  0  0  0  0  0  0  0
  156.7719  140.2728  183.6246 C   0  0  0  0  0  0  0  0  0  0  0  0
  157.7952  139.5950  184.5154 C   0  0  0  0  0  0  0  0  0  0  0  0
  159.1235  139.8749  183.8580 C   0  0  0  0  0  0  0  0  0  0  0  0
  159.3571  141.3373  183.8666 N   0  0  0  0  0  0  0  0  0  0  0  0
  158.2978  142.2018  183.4767 C   0  0  0  0  0  0  0  0  0  0  0  0
  156.9072  141.7453  183.9498 C   0  0  0  0  0  0  0  0  0  0  0  0
  160.6509  141.7066  184.3123 C   0  0  0  0  0  0  0  0  0  0  0  0
  161.7412  141.5429  183.4977 N   0  0  0  0  0  0  0  0  0  0  0  0
  162.9779  141.8449  183.9006 C   0  0  0  0  0  0  0  0  0  0  0  0
  163.2189  142.3239  185.1220 N   0  0  0  0  0  0  0  0  0  0  0  0
  162.2032  142.5119  185.9749 C   0  0  0  0  0  0  0  0  0  0  0  0
  162.4064  143.0224  187.2955 N   0  0  0  0  0  0  0  0  0  0  0  0
  160.8963  142.1944  185.5517 C   0  0  0  0  0  0  0  0  0  0  0  0
  162.9057  142.4248  188.0113 H   0  0  0  0  0  0  0  0  0  0  0  0
  162.0869  143.9624  187.5994 H   0  0  0  0  0  0  0  0  0  0  0  0
  159.8308  142.4549  186.4896 C   0  0  0  0  0  0  0  0  0  0  0  0
  158.9697  142.6337  187.2468 N   0  0  0  0  0  0  0  0  0  0  0  0
  154.1277  140.9091  182.0619 C   0  0  0  0  0  0  0  0  0  0  0  0
  152.7982  140.6263  181.4282 C   0  0  0  0  0  0  0  0  0  0  0  0
  152.8060  139.6734  180.4426 O   0  0  0  0  0  0  0  0  0  0  0  0
  152.0614  139.0069  180.5313 H   0  0  0  0  0  0  0  0  0  0  0  0
  6  7  1  0  0  0
  7  8  2  0  0  0
  8  9  1  0  0  0
  9  1  1  0  0  0
  1  2  2  0  0  0
  2  3  1  0  0  0
  3 31  1  0  0  0
 31 32  1  0  0  0
 32 33  1  0  0  0
  3  4  1  0  0  0
  4 14  1  0  0  0
 14 15  1  0  0  0
 15 16  1  0  0  0
 16 17  1  0  0  0
 17 20  1  0  0  0
 20 21  2  0  0  0
 21 22  1  0  0  0
 22 23  2  0  0  0
 23 24  1  0  0  0
 24 25  1  0  0  0
 24 26  2  0  0  0
 26 29  1  0  0  0
 29 30  3  0  0  0
 17 18  1  0  0  0
 18 19  1  0  0  0
  4  5  2  0  0  0
  9 10  2  0  0  0
 10 11  1  0  0  0
 11 12  2  0  0  0
 12 13  1  0  0  0
 12  7  1  0  0  0
  5  1  1  0  0  0
 19 14  1  0  0  0
 26 20  1  0  0  0
 33 34  1  0  0  0
 25 27  1  0  0  0
 25 28  1  0  0  0
M  END
> <minimizedAffinity>
-6.95779

> <CNNscore>
0.1611187607

> <CNNaffinity>
6.4281373024

> <CNN_VS>
1.0356935263

> <CNNaffinity_variance>
0.0974057764

$$$$
[H]OC([H])([H])C([H])([H])n1c(C2([H])C([H])([H])C([H])([H])N(c3nc([H])nc(N([H])[H])c3C#N)C([H])([H])C2([H])[H])nc(-c2c([H])c([H])c(F)c(C([H])([H])[H])c2[H])c1[H]


 34 37  0  0  0  0  0  0  0  0999 V2000
  156.0323  139.4946  184.7388 C   0  0  0  0  0  0  0  0  0  0  0  0
  154.9835  138.9935  184.0042 C   0  0  0  0  0  0  0  0  0  0  0  0
  154.3152  138.1129  184.8146 N   0  0  0  0  0  0  0  0  0  0  0  0
  154.9227  138.0680  186.0029 C   0  0  0  0  0  0  0  0  0  0  0  0
  155.9623  138.9150  185.9336 N   0  0  0  0  0  0  0  0  0  0  0  0
  157.2730  143.5706  182.1203 C   0  0  0  0  0  0  0  0  0  0  0  0
  157.6262  142.4322  183.0036 C   0  0  0  0  0  0  0  0  0  0  0  0
  156.6706  141.5163  183.4450 C   0  0  0  0  0  0  0  0  0  0  0  0
  157.0046  140.4686  184.2599 C   0  0  0  0  0  0  0  0  0  0  0  0
  158.3162  140.3172  184.6522 C   0  0  0  0  0  0  0  0  0  0  0  0
  159.2836  141.2078  184.2314 C   0  0  0  0  0  0  0  0  0  0  0  0
  158.9352  142.2673  183.4049 C   0  0  0  0  0  0  0  0  0  0  0  0
  159.9265  143.1247  183.0128 F   0  0  0  0  0  0  0  0  0  0  0  0
  154.5552  137.2629  187.1654 C   0  0  0  0  0  0  0  0  0  0  0  0
  153.3017  137.7906  187.8364 C   0  0  0  0  0  0  0  0  0  0  0  0
  152.8097  136.6465  188.6871 C   0  0  0  0  0  0  0  0  0  0  0  0
  153.8307  136.3499  189.7181 N   0  0  0  0  0  0  0  0  0  0  0  0
  155.1947  136.2661  189.3260 C   0  0  0  0  0  0  0  0  0  0  0  0
  155.6055  137.2914  188.2556 C   0  0  0  0  0  0  0  0  0  0  0  0
  153.3000  136.2138  191.0253 C   0  0  0  0  0  0  0  0  0  0  0  0
  152.9038  137.3180  191.7345 N   0  0  0  0  0  0  0  0  0  0  0  0
  152.4357  137.2280  192.9818 C   0  0  0  0  0  0  0  0  0  0  0  0
  152.3280  136.0542  193.6062 N   0  0  0  0  0  0  0  0  0  0  0  0
  152.6949  134.9300  192.9767 C   0  0  0  0  0  0  0  0  0  0  0  0
  152.6002  133.6463  193.6002 N   0  0  0  0  0  0  0  0  0  0  0  0
  153.1890  135.0222  191.6595 C   0  0  0  0  0  0  0  0  0  0  0  0
  153.2437  133.4127  194.4066 H   0  0  0  0  0  0  0  0  0  0  0  0
  151.9248  132.9158  193.3030 H   0  0  0  0  0  0  0  0  0  0  0  0
  153.5301  133.7807  191.0075 C   0  0  0  0  0  0  0  0  0  0  0  0
  153.8344  132.7888  190.4875 N   0  0  0  0  0  0  0  0  0  0  0  0
  153.1529  137.4070  184.3633 C   0  0  0  0  0  0  0  0  0  0  0  0
  152.6189  138.0672  183.1271 C   0  0  0  0  0  0  0  0  0  0  0  0
  152.4393  137.2406  182.0483 O   0  0  0  0  0  0  0  0  0  0  0  0
  151.5553  137.3720  181.5926 H   0  0  0  0  0  0  0  0  0  0  0  0
  6  7  1  0  0  0
  7  8  2  0  0  0
  8  9  1  0  0  0
  9  1  1  0  0  0
  1  2  2  0  0  0
  2  3  1  0  0  0
  3 31  1  0  0  0
 31 32  1  0  0  0
 32 33  1  0  0  0
  3  4  1  0  0  0
  4 14  1  0  0  0
 14 15  1  0  0  0
 15 16  1  0  0  0
 16 17  1  0  0  0
 17 20  1  0  0  0
 20 21  2  0  0  0
 21 22  1  0  0  0
 22 23  2  0  0  0
 23 24  1  0  0  0
 24 25  1  0  0  0
 24 26  2  0  0  0
 26 29  1  0  0  0
 29 30  3  0  0  0
 17 18  1  0  0  0
 18 19  1  0  0  0
  4  5  2  0  0  0
  9 10  2  0  0  0
 10 11  1  0  0  0
 11 12  2  0  0  0
 12 13  1  0  0  0
 12  7  1  0  0  0
  5  1  1  0  0  0
 19 14  1  0  0  0
 26 20  1  0  0  0
 33 34  1  0  0  0
 25 27  1  0  0  0
 25 28  1  0  0  0
M  END
> <minimizedAffinity>
-6.64788

> <CNNscore>
0.1606124341

> <CNNaffinity>
5.9117045403

> <CNN_VS>
0.9494932294

> <CNNaffinity_variance>
0.0219012294

$$$$
[H]OC([H])([H])C([H])([H])n1c(C2([H])C([H])([H])C([H])([H])N(c3nc([H])nc(N([H])[H])c3C#N)C([H])([H])C2([H])[H])nc(-c2c([H])c([H])c(F)c(C([H])([H])[H])c2[H])c1[H]


 34 37  0  0  0  0  0  0  0  0999 V2000
  156.2393  139.1932  184.9217 C   0  0  0  0  0  0  0  0  0  0  0  0
  155.0610  138.7790  184.3466 C   0  0  0  0  0  0  0  0  0  0  0  0
  154.3182  138.1935  185.3388 N   0  0  0  0  0  0  0  0  0  0  0  0
  155.0055  138.2414  186.4826 C   0  0  0  0  0  0  0  0  0  0  0  0
  156.1685  138.8526  186.2053 N   0  0  0  0  0  0  0  0  0  0  0  0
  158.3954  140.9403  180.7614 C   0  0  0  0  0  0  0  0  0  0  0  0
  158.3832  140.7197  182.2284 C   0  0  0  0  0  0  0  0  0  0  0  0
  157.3280  140.0684  182.8682 C   0  0  0  0  0  0  0  0  0  0  0  0
  157.3243  139.8690  184.2223 C   0  0  0  0  0  0  0  0  0  0  0  0
  158.3890  140.3231  184.9688 C   0  0  0  0  0  0  0  0  0  0  0  0
  159.4472  140.9710  184.3635 C   0  0  0  0  0  0  0  0  0  0  0  0
  159.4420  141.1687  182.9894 C   0  0  0  0  0  0  0  0  0  0  0  0
  160.5113  141.8153  182.4328 F   0  0  0  0  0  0  0  0  0  0  0  0
  154.6005  137.7332  187.7912 C   0  0  0  0  0  0  0  0  0  0  0  0
  155.4821  136.5841  188.2412 C   0  0  0  0  0  0  0  0  0  0  0  0
  155.2524  136.4823  189.7284 C   0  0  0  0  0  0  0  0  0  0  0  0
  153.8326  136.1339  189.9654 N   0  0  0  0  0  0  0  0  0  0  0  0
  152.8266  136.8363  189.2471 C   0  0  0  0  0  0  0  0  0  0  0  0
  153.2012  137.1552  187.7897 C   0  0  0  0  0  0  0  0  0  0  0  0
  153.6506  135.0778  190.8930 C   0  0  0  0  0  0  0  0  0  0  0  0
  154.0082  133.7953  190.5670 N   0  0  0  0  0  0  0  0  0  0  0  0
  153.8149  132.7721  191.4029 C   0  0  0  0  0  0  0  0  0  0  0  0
  153.2615  132.9444  192.6043 N   0  0  0  0  0  0  0  0  0  0  0  0
  152.8865  134.1700  192.9940 C   0  0  0  0  0  0  0  0  0  0  0  0
  152.2885  134.4099  194.2710 N   0  0  0  0  0  0  0  0  0  0  0  0
  153.0901  135.2522  192.1136 C   0  0  0  0  0  0  0  0  0  0  0  0
  151.3155  134.0432  194.4650 H   0  0  0  0  0  0  0  0  0  0  0  0
  152.7612  134.9325  195.0335 H   0  0  0  0  0  0  0  0  0  0  0  0
  152.7104  136.5587  192.5948 C   0  0  0  0  0  0  0  0  0  0  0  0
  152.3870  137.6128  192.9569 N   0  0  0  0  0  0  0  0  0  0  0  0
  153.0163  137.6518  185.0851 C   0  0  0  0  0  0  0  0  0  0  0  0
  152.8635  137.3914  183.6161 C   0  0  0  0  0  0  0  0  0  0  0  0
  151.7979  138.0105  183.0157 O   0  0  0  0  0  0  0  0  0  0  0  0
  152.0363  138.4546  182.1483 H   0  0  0  0  0  0  0  0  0  0  0  0
  6  7  1  0  0  0
  7  8  2  0  0  0
  8  9  1  0  0  0
  9  1  1  0  0  0
  1  2  2  0  0  0
  2  3  1  0  0  0
  3 31  1  0  0  0
 31 32  1  0  0  0
 32 33  1  0  0  0
  3  4  1  0  0  0
  4 14  1  0  0  0
 14 15  1  0  0  0
 15 16  1  0  0  0
 16 17  1  0  0  0
 17 20  1  0  0  0
 20 21  2  0  0  0
 21 22  1  0  0  0
 22 23  2  0  0  0
 23 24  1  0  0  0
 24 25  1  0  0  0
 24 26  2  0  0  0
 26 29  1  0  0  0
 29 30  3  0  0  0
 17 18  1  0  0  0
 18 19  1  0  0  0
  4  5  2  0  0  0
  9 10  2  0  0  0
 10 11  1  0  0  0
 11 12  2  0  0  0
 12 13  1  0  0  0
 12  7  1  0  0  0
  5  1  1  0  0  0
 19 14  1  0  0  0
 26 20  1  0  0  0
 33 34  1  0  0  0
 25 27  1  0  0  0
 25 28  1  0  0  0
M  END
> <minimizedAffinity>
-6.64310

> <CNNscore>
0.1494020671

> <CNNaffinity>
5.7730817795

> <CNN_VS>
0.8625103235

> <CNNaffinity_variance>
0.0517724380

$$$$
[H]OC([H])([H])C([H])([H])n1c(C2([H])C([H])([H])C([H])([H])N(c3nc([H])nc(N([H])[H])c3C#N)C([H])([H])C2([H])[H])nc(-c2c([H])c([H])c(F)c(C([H])([H])[H])c2[H])c1[H]


 34 37  0  0  0  0  0  0  0  0999 V2000
  156.0039  139.5711  184.1380 C   0  0  0  0  0  0  0  0  0  0  0  0
  154.7696  139.1169  183.7369 C   0  0  0  0  0  0  0  0  0  0  0  0
  154.2443  138.4116  184.7883 N   0  0  0  0  0  0  0  0  0  0  0  0
  155.1150  138.4264  185.8006 C   0  0  0  0  0  0  0  0  0  0  0  0
  156.1756  139.1362  185.3830 N   0  0  0  0  0  0  0  0  0  0  0  0
  157.4535  143.9039  182.1047 C   0  0  0  0  0  0  0  0  0  0  0  0
  157.6293  142.4486  182.3330 C   0  0  0  0  0  0  0  0  0  0  0  0
  156.7419  141.7121  183.1183 C   0  0  0  0  0  0  0  0  0  0  0  0
  156.9113  140.3696  183.3242 C   0  0  0  0  0  0  0  0  0  0  0  0
  157.9843  139.7330  182.7408 C   0  0  0  0  0  0  0  0  0  0  0  0
  158.8790  140.4357  181.9586 C   0  0  0  0  0  0  0  0  0  0  0  0
  158.6989  141.7971  181.7557 C   0  0  0  0  0  0  0  0  0  0  0  0
  159.6100  142.4526  180.9735 F   0  0  0  0  0  0  0  0  0  0  0  0
  154.9720  137.7994  187.1125 C   0  0  0  0  0  0  0  0  0  0  0  0
  154.5434  136.3494  186.9947 C   0  0  0  0  0  0  0  0  0  0  0  0
  154.8766  135.7396  188.3333 C   0  0  0  0  0  0  0  0  0  0  0  0
  154.0631  136.4089  189.3742 N   0  0  0  0  0  0  0  0  0  0  0  0
  153.9723  137.8278  189.3643 C   0  0  0  0  0  0  0  0  0  0  0  0
  153.8926  138.4430  187.9568 C   0  0  0  0  0  0  0  0  0  0  0  0
  153.4250  135.5109  190.2660 C   0  0  0  0  0  0  0  0  0  0  0  0
  154.0963  135.0146  191.3533 N   0  0  0  0  0  0  0  0  0  0  0  0
  153.5372  134.1379  192.1910 C   0  0  0  0  0  0  0  0  0  0  0  0
  152.2909  133.6968  192.0136 N   0  0  0  0  0  0  0  0  0  0  0  0
  151.5714  134.1374  190.9730 C   0  0  0  0  0  0  0  0  0  0  0  0
  150.2314  133.6966  190.7365 N   0  0  0  0  0  0  0  0  0  0  0  0
  152.1592  135.0636  190.0874 C   0  0  0  0  0  0  0  0  0  0  0  0
  150.0594  132.6958  190.4404 H   0  0  0  0  0  0  0  0  0  0  0  0
  149.4016  134.3118  190.8401 H   0  0  0  0  0  0  0  0  0  0  0  0
  151.3305  135.5421  189.0070 C   0  0  0  0  0  0  0  0  0  0  0  0
  150.6703  135.9008  188.1225 N   0  0  0  0  0  0  0  0  0  0  0  0
  152.9513  137.7989  184.7134 C   0  0  0  0  0  0  0  0  0  0  0  0
  152.8951  136.9013  183.5132 C   0  0  0  0  0  0  0  0  0  0  0  0
  153.6874  135.7842  183.5753 O   0  0  0  0  0  0  0  0  0  0  0  0
  153.2141  134.9476  183.2881 H   0  0  0  0  0  0  0  0  0  0  0  0
  6  7  1  0  0  0
  7  8  2  0  0  0
  8  9  1  0  0  0
  9  1  1  0  0  0
  1  2  2  0  0  0
  2  3  1  0  0  0
  3 31  1  0  0  0
 31 32  1  0  0  0
 32 33  1  0  0  0
  3  4  1  0  0  0
  4 14  1  0  0  0
 14 15  1  0  0  0
 15 16  1  0  0  0
 16 17  1  0  0  0
 17 20  1  0  0  0
 20 21  2  0  0  0
 21 22  1  0  0  0
 22 23  2  0  0  0
 23 24  1  0  0  0
 24 25  1  0  0  0
 24 26  2  0  0  0
 26 29  1  0  0  0
 29 30  3  0  0  0
 17 18  1  0  0  0
 18 19  1  0  0  0
  4  5  2  0  0  0
  9 10  2  0  0  0
 10 11  1  0  0  0
 11 12  2  0  0  0
 12 13  1  0  0  0
 12  7  1  0  0  0
  5  1  1  0  0  0
 19 14  1  0  0  0
 26 20  1  0  0  0
 33 34  1  0  0  0
 25 27  1  0  0  0
 25 28  1  0  0  0
M  END
> <minimizedAffinity>
-6.49670

> <CNNscore>
0.1366248578

> <CNNaffinity>
5.7410149574

> <CNN_VS>
0.7843653560

> <CNNaffinity_variance>
0.0735175535

$$$$
[H]Cl.[H]O[C@]([H])(C(=O)N([H])[C@]([H])(C(=O)OC([H])([H])n1c([H])c(F)c(=O)n([H])c1=O)C([H])([H])C([H])(C([H])([H])[H])C([H])([H])[H])[C@]([H])(N([H])[H])C([H])([H])c1c([H])c([H])c([H])c([H])c1[H]


 37 38  0  0  0  0  0  0  0  0999 V2000
  154.6005  139.7466  184.2836 C   0  0  0  0  0  0  0  0  0  0  0  0
  155.8751  139.6173  183.5662 N   0  0  0  0  0  0  0  0  0  0  0  0
  156.8288  140.6716  183.5492 C   0  0  0  0  0  0  0  0  0  0  0  0
  156.5497  141.7232  184.1677 O   0  0  0  0  0  0  0  0  0  0  0  0
  156.1194  138.7462  183.0466 H   0  0  0  0  0  0  0  0  0  0  0  0
  158.1226  140.5610  182.8310 C   0  0  0  0  0  0  0  0  0  0  0  0
  157.8793  140.3222  181.4855 O   0  0  0  0  0  0  0  0  0  0  0  0
  157.7465  141.1797  181.0178 H   0  0  0  0  0  0  0  0  0  0  0  0
  158.9459  141.8360  182.9491 C   0  0  0  0  0  0  0  0  0  0  0  0
  158.9279  142.6015  181.7429 N   0  0  0  0  0  0  0  0  0  0  0  0
  158.8532  143.6262  181.8870 H   0  0  0  0  0  0  0  0  0  0  0  0
  159.5927  142.3231  181.0167 H   0  0  0  0  0  0  0  0  0  0  0  0
  160.3441  141.4206  183.3173 C   0  0  0  0  0  0  0  0  0  0  0  0
  160.7986  141.9657  184.6130 C   0  0  0  0  0  0  0  0  0  0  0  0
  162.1320  142.2087  184.8981 C   0  0  0  0  0  0  0  0  0  0  0  0
  162.5543  142.7199  186.1131 C   0  0  0  0  0  0  0  0  0  0  0  0
  161.6345  143.0015  187.0799 C   0  0  0  0  0  0  0  0  0  0  0  0
  160.3021  142.7770  186.8427 C   0  0  0  0  0  0  0  0  0  0  0  0
  159.8959  142.2705  185.6358 C   0  0  0  0  0  0  0  0  0  0  0  0
  154.5815  138.8013  185.4269 C   0  0  0  0  0  0  0  0  0  0  0  0
  153.4573  138.2467  185.6916 O   0  0  0  0  0  0  0  0  0  0  0  0
  155.6120  138.4497  186.2275 O   0  0  0  0  0  0  0  0  0  0  0  0
  155.9567  137.2672  186.8349 C   0  0  0  0  0  0  0  0  0  0  0  0
  156.0694  137.2514  188.2573 N   0  0  0  0  0  0  0  0  0  0  0  0
  155.6842  138.2166  189.1047 C   0  0  0  0  0  0  0  0  0  0  0  0
  155.8578  138.1063  190.4902 C   0  0  0  0  0  0  0  0  0  0  0  0
  155.4615  139.0907  191.3215 F   0  0  0  0  0  0  0  0  0  0  0  0
  156.4383  136.9832  191.0129 C   0  0  0  0  0  0  0  0  0  0  0  0
  156.6405  136.7820  192.2308 O   0  0  0  0  0  0  0  0  0  0  0  0
  156.8191  136.0226  190.1353 N   0  0  0  0  0  0  0  0  0  0  0  0
  156.6399  136.1579  188.8237 C   0  0  0  0  0  0  0  0  0  0  0  0
  157.0352  135.1922  188.0839 O   0  0  0  0  0  0  0  0  0  0  0  0
  157.2702  135.1458  190.5157 H   0  0  0  0  0  0  0  0  0  0  0  0
  153.4526  139.6409  183.3455 C   0  0  0  0  0  0  0  0  0  0  0  0
  152.4947  140.2102  181.1049 C   0  0  0  0  0  0  0  0  0  0  0  0
  153.6077  140.4822  182.1227 C   0  0  0  0  0  0  0  0  0  0  0  0
  153.5699  141.9738  182.5028 C   0  0  0  0  0  0  0  0  0  0  0  0
 35 36  1  0  0  0
 36 37  1  0  0  0
 36 34  1  0  0  0
 34  1  1  0  0  0
  1  2  1  0  0  0
  2  3  1  0  0  0
  3  4  2  0  0  0
  3  6  1  0  0  0
  6  7  1  0  0  0
  6  9  1  0  0  0
  9 10  1  0  0  0
  9 13  1  0  0  0
 13 14  1  0  0  0
 14 15  2  0  0  0
 15 16  1  0  0  0
 16 17  2  0  0  0
 17 18  1  0  0  0
 18 19  2  0  0  0
  1 20  1  0  0  0
 20 21  2  0  0  0
 20 22  1  0  0  0
 22 23  1  0  0  0
 23 24  1  0  0  0
 24 25  1  0  0  0
 25 26  2  0  0  0
 26 27  1  0  0  0
 26 28  1  0  0  0
 28 29  2  0  0  0
 28 30  1  0  0  0
 30 31  1  0  0  0
 31 32  2  0  0  0
 19 14  1  0  0  0
 31 24  1  0  0  0
  2  5  1  0  0  0
  7  8  1  0  0  0
 10 11  1  0  0  0
 10 12  1  0  0  0
 30 33  1  0  0  0
M  END
> <minimizedAffinity>
-8.72348

> <CNNscore>
0.6111846566

> <CNNaffinity>
6.4923143387

> <CNN_VS>
3.9680027962

> <CNNaffinity_variance>
0.1034087315

$$$$
[H]Cl.[H]O[C@]([H])(C(=O)N([H])[C@]([H])(C(=O)OC([H])([H])n1c([H])c(F)c(=O)n([H])c1=O)C([H])([H])C([H])(C([H])([H])[H])C([H])([H])[H])[C@]([H])(N([H])[H])C([H])([H])c1c([H])c([H])c([H])c([H])c1[H]


 37 38  0  0  0  0  0  0  0  0999 V2000
  156.0375  140.1377  183.2003 C   0  0  0  0  0  0  0  0  0  0  0  0
  155.2738  139.9834  184.4448 N   0  0  0  0  0  0  0  0  0  0  0  0
  154.5028  138.8174  184.7040 C   0  0  0  0  0  0  0  0  0  0  0  0
  154.4922  137.9175  183.8342 O   0  0  0  0  0  0  0  0  0  0  0  0
  155.2741  140.7262  185.1774 H   0  0  0  0  0  0  0  0  0  0  0  0
  153.7245  138.6413  185.9551 C   0  0  0  0  0  0  0  0  0  0  0  0
  152.6599  137.7838  185.7140 O   0  0  0  0  0  0  0  0  0  0  0  0
  152.9579  136.8505  185.8233 H   0  0  0  0  0  0  0  0  0  0  0  0
  154.5733  138.0478  187.0706 C   0  0  0  0  0  0  0  0  0  0  0  0
  154.7730  136.6428  186.9053 N   0  0  0  0  0  0  0  0  0  0  0  0
  155.7308  136.3165  187.1340 H   0  0  0  0  0  0  0  0  0  0  0  0
  154.0250  136.0333  187.2456 H   0  0  0  0  0  0  0  0  0  0  0  0
  153.8712  138.3561  188.3649 C   0  0  0  0  0  0  0  0  0  0  0  0
  154.5788  137.8426  189.5558 C   0  0  0  0  0  0  0  0  0  0  0  0
  155.8701  138.2221  189.8826 C   0  0  0  0  0  0  0  0  0  0  0  0
  156.5298  137.7392  190.9995 C   0  0  0  0  0  0  0  0  0  0  0  0
  155.8986  136.8535  191.8223 C   0  0  0  0  0  0  0  0  0  0  0  0
  154.6189  136.4486  191.5386 C   0  0  0  0  0  0  0  0  0  0  0  0
  153.9758  136.9335  190.4299 C   0  0  0  0  0  0  0  0  0  0  0  0
  157.4888  140.0884  183.5045 C   0  0  0  0  0  0  0  0  0  0  0  0
  158.2058  139.3400  182.7512 O   0  0  0  0  0  0  0  0  0  0  0  0
  158.1519  140.7419  184.4841 O   0  0  0  0  0  0  0  0  0  0  0  0
  158.6384  142.0223  184.5840 C   0  0  0  0  0  0  0  0  0  0  0  0
  159.9531  142.2015  185.1089 N   0  0  0  0  0  0  0  0  0  0  0  0
  161.1096  142.0591  184.4454 C   0  0  0  0  0  0  0  0  0  0  0  0
  162.3526  142.2428  185.0642 C   0  0  0  0  0  0  0  0  0  0  0  0
  163.5016  142.0943  184.3750 F   0  0  0  0  0  0  0  0  0  0  0  0
  162.4066  142.5785  186.3894 C   0  0  0  0  0  0  0  0  0  0  0  0
  163.4593  142.7656  187.0385 O   0  0  0  0  0  0  0  0  0  0  0  0
  161.2239  142.7160  187.0375 N   0  0  0  0  0  0  0  0  0  0  0  0
  160.0591  142.5346  186.4203 C   0  0  0  0  0  0  0  0  0  0  0  0
  159.0021  142.6889  187.1242 O   0  0  0  0  0  0  0  0  0  0  0  0
  161.2404  142.9747  188.0620 H   0  0  0  0  0  0  0  0  0  0  0  0
  155.5815  141.3335  182.4448 C   0  0  0  0  0  0  0  0  0  0  0  0
  154.0091  143.2679  182.6632 C   0  0  0  0  0  0  0  0  0  0  0  0
  154.1885  141.7504  182.7805 C   0  0  0  0  0  0  0  0  0  0  0  0
  153.1910  141.0643  181.8293 C   0  0  0  0  0  0  0  0  0  0  0  0
 35 36  1  0  0  0
 36 37  1  0  0  0
 36 34  1  0  0  0
 34  1  1  0  0  0
  1  2  1  0  0  0
  2  3  1  0  0  0
  3  4  2  0  0  0
  3  6  1  0  0  0
  6  7  1  0  0  0
  6  9  1  0  0  0
  9 10  1  0  0  0
  9 13  1  0  0  0
 13 14  1  0  0  0
 14 15  2  0  0  0
 15 16  1  0  0  0
 16 17  2  0  0  0
 17 18  1  0  0  0
 18 19  2  0  0  0
  1 20  1  0  0  0
 20 21  2  0  0  0
 20 22  1  0  0  0
 22 23  1  0  0  0
 23 24  1  0  0  0
 24 25  1  0  0  0
 25 26  2  0  0  0
 26 27  1  0  0  0
 26 28  1  0  0  0
 28 29  2  0  0  0
 28 30  1  0  0  0
 30 31  1  0  0  0
 31 32  2  0  0  0
 19 14  1  0  0  0
 31 24  1  0  0  0
  2  5  1  0  0  0
  7  8  1  0  0  0
 10 11  1  0  0  0
 10 12  1  0  0  0
 30 33  1  0  0  0
M  END
> <minimizedAffinity>
-8.43008

> <CNNscore>
0.5107554197

> <CNNaffinity>
6.1620168686

> <CNN_VS>
3.1472835541

> <CNNaffinity_variance>
0.1559943110

$$$$
[H]Cl.[H]O[C@]([H])(C(=O)N([H])[C@]([H])(C(=O)OC([H])([H])n1c([H])c(F)c(=O)n([H])c1=O)C([H])([H])C([H])(C([H])([H])[H])C([H])([H])[H])[C@]([H])(N([H])[H])C([H])([H])c1c([H])c([H])c([H])c([H])c1[H]


 37 38  0  0  0  0  0  0  0  0999 V2000
  154.4654  137.8538  185.4553 C   0  0  0  0  0  0  0  0  0  0  0  0
  154.9996  138.6381  184.3349 N   0  0  0  0  0  0  0  0  0  0  0  0
  156.2290  139.3441  184.4412 C   0  0  0  0  0  0  0  0  0  0  0  0
  156.8494  139.2788  185.5262 O   0  0  0  0  0  0  0  0  0  0  0  0
  154.4919  138.7008  183.4256 H   0  0  0  0  0  0  0  0  0  0  0  0
  156.7865  140.1419  183.3211 C   0  0  0  0  0  0  0  0  0  0  0  0
  155.7458  140.6059  182.5284 O   0  0  0  0  0  0  0  0  0  0  0  0
  155.4024  141.4525  182.8986 H   0  0  0  0  0  0  0  0  0  0  0  0
  157.5788  141.3419  183.8206 C   0  0  0  0  0  0  0  0  0  0  0  0
  157.3076  142.5202  183.0594 N   0  0  0  0  0  0  0  0  0  0  0  0
  157.2313  143.3869  183.6243 H   0  0  0  0  0  0  0  0  0  0  0  0
  157.8293  142.6282  182.1859 H   0  0  0  0  0  0  0  0  0  0  0  0
  159.0334  140.9642  183.7522 C   0  0  0  0  0  0  0  0  0  0  0  0
  159.8713  141.6645  184.7471 C   0  0  0  0  0  0  0  0  0  0  0  0
  161.1926  142.0044  184.5086 C   0  0  0  0  0  0  0  0  0  0  0  0
  161.9747  142.6610  185.4431 C   0  0  0  0  0  0  0  0  0  0  0  0
  161.4394  142.9944  186.6523 C   0  0  0  0  0  0  0  0  0  0  0  0
  160.1345  142.6779  186.9334 C   0  0  0  0  0  0  0  0  0  0  0  0
  159.3699  142.0277  186.0004 C   0  0  0  0  0  0  0  0  0  0  0  0
  154.0133  136.5310  184.9583 C   0  0  0  0  0  0  0  0  0  0  0  0
  152.9446  136.5203  184.2518 O   0  0  0  0  0  0  0  0  0  0  0  0
  154.5957  135.3281  185.1593 O   0  0  0  0  0  0  0  0  0  0  0  0
  154.3779  134.0864  184.6144 C   0  0  0  0  0  0  0  0  0  0  0  0
  155.1125  133.7288  183.4444 N   0  0  0  0  0  0  0  0  0  0  0  0
  154.9019  134.1723  182.1966 C   0  0  0  0  0  0  0  0  0  0  0  0
  155.6748  133.7412  181.1110 C   0  0  0  0  0  0  0  0  0  0  0  0
  155.4436  134.2025  179.8656 F   0  0  0  0  0  0  0  0  0  0  0  0
  156.6819  132.8375  181.3128 C   0  0  0  0  0  0  0  0  0  0  0  0
  157.4303  132.3872  180.4174 O   0  0  0  0  0  0  0  0  0  0  0  0
  156.8741  132.4045  182.5831 N   0  0  0  0  0  0  0  0  0  0  0  0
  156.1219  132.8340  183.5933 C   0  0  0  0  0  0  0  0  0  0  0  0
  156.3871  132.3621  184.7523 O   0  0  0  0  0  0  0  0  0  0  0  0
  157.6462  131.7059  182.7635 H   0  0  0  0  0  0  0  0  0  0  0  0
  153.4521  138.6345  186.2118 C   0  0  0  0  0  0  0  0  0  0  0  0
  152.5948  137.2846  188.1367 C   0  0  0  0  0  0  0  0  0  0  0  0
  153.5201  138.4206  187.6872 C   0  0  0  0  0  0  0  0  0  0  0  0
  154.9613  138.0714  188.1016 C   0  0  0  0  0  0  0  0  0  0  0  0
 35 36  1  0  0  0
 36 37  1  0  0  0
 36 34  1  0  0  0
 34  1  1  0  0  0
  1  2  1  0  0  0
  2  3  1  0  0  0
  3  4  2  0  0  0
  3  6  1  0  0  0
  6  7  1  0  0  0
  6  9  1  0  0  0
  9 10  1  0  0  0
  9 13  1  0  0  0
 13 14  1  0  0  0
 14 15  2  0  0  0
 15 16  1  0  0  0
 16 17  2  0  0  0
 17 18  1  0  0  0
 18 19  2  0  0  0
  1 20  1  0  0  0
 20 21  2  0  0  0
 20 22  1  0  0  0
 22 23  1  0  0  0
 23 24  1  0  0  0
 24 25  1  0  0  0
 25 26  2  0  0  0
 26 27  1  0  0  0
 26 28  1  0  0  0
 28 29  2  0  0  0
 28 30  1  0  0  0
 30 31  1  0  0  0
 31 32  2  0  0  0
 19 14  1  0  0  0
 31 24  1  0  0  0
  2  5  1  0  0  0
  7  8  1  0  0  0
 10 11  1  0  0  0
 10 12  1  0  0  0
 30 33  1  0  0  0
M  END
> <minimizedAffinity>
-7.26016

> <CNNscore>
0.4764858186

> <CNNaffinity>
6.0802936554

> <CNN_VS>
2.8971736431

> <CNNaffinity_variance>
0.0849450678

$$$$
[H]Cl.[H]O[C@]([H])(C(=O)N([H])[C@]([H])(C(=O)OC([H])([H])n1c([H])c(F)c(=O)n([H])c1=O)C([H])([H])C([H])(C([H])([H])[H])C([H])([H])[H])[C@]([H])(N([H])[H])C([H])([H])c1c([H])c([H])c([H])c([H])c1[H]


 37 38  0  0  0  0  0  0  0  0999 V2000
  155.7108  139.8601  183.9271 C   0  0  0  0  0  0  0  0  0  0  0  0
  154.5243  139.5625  184.7393 N   0  0  0  0  0  0  0  0  0  0  0  0
  153.9676  138.2554  184.7907 C   0  0  0  0  0  0  0  0  0  0  0  0
  154.5212  137.3566  184.1182 O   0  0  0  0  0  0  0  0  0  0  0  0
  154.0535  140.3028  185.3039 H   0  0  0  0  0  0  0  0  0  0  0  0
  152.7698  137.9334  185.6052 C   0  0  0  0  0  0  0  0  0  0  0  0
  152.0155  136.9712  184.9479 O   0  0  0  0  0  0  0  0  0  0  0  0
  152.3545  136.0743  185.1768 H   0  0  0  0  0  0  0  0  0  0  0  0
  153.1473  137.3905  186.9764 C   0  0  0  0  0  0  0  0  0  0  0  0
  152.1248  136.5569  187.5250 N   0  0  0  0  0  0  0  0  0  0  0  0
  152.4771  135.7125  188.0140 H   0  0  0  0  0  0  0  0  0  0  0  0
  151.3562  137.0337  188.0031 H   0  0  0  0  0  0  0  0  0  0  0  0
  153.4206  138.5793  187.8568 C   0  0  0  0  0  0  0  0  0  0  0  0
  154.4806  138.3398  188.8576 C   0  0  0  0  0  0  0  0  0  0  0  0
  154.3998  138.8021  190.1607 C   0  0  0  0  0  0  0  0  0  0  0  0
  155.3948  138.5755  191.0959 C   0  0  0  0  0  0  0  0  0  0  0  0
  156.5061  137.8708  190.7376 C   0  0  0  0  0  0  0  0  0  0  0  0
  156.6300  137.3932  189.4576 C   0  0  0  0  0  0  0  0  0  0  0  0
  155.6384  137.6238  188.5403 C   0  0  0  0  0  0  0  0  0  0  0  0
  156.9062  139.9141  184.8042 C   0  0  0  0  0  0  0  0  0  0  0  0
  156.9366  139.0858  185.7812 O   0  0  0  0  0  0  0  0  0  0  0  0
  157.9752  140.7341  184.6970 O   0  0  0  0  0  0  0  0  0  0  0  0
  159.0817  140.7186  183.8838 C   0  0  0  0  0  0  0  0  0  0  0  0
  158.9695  141.3027  182.5867 N   0  0  0  0  0  0  0  0  0  0  0  0
  159.0677  142.6045  182.2803 C   0  0  0  0  0  0  0  0  0  0  0  0
  158.9234  143.0756  180.9693 C   0  0  0  0  0  0  0  0  0  0  0  0
  159.0271  144.3896  180.6868 F   0  0  0  0  0  0  0  0  0  0  0  0
  158.6730  142.1917  179.9555 C   0  0  0  0  0  0  0  0  0  0  0  0
  158.5273  142.5036  178.7530 O   0  0  0  0  0  0  0  0  0  0  0  0
  158.5779  140.8817  180.2914 N   0  0  0  0  0  0  0  0  0  0  0  0
  158.7203  140.4662  181.5474 C   0  0  0  0  0  0  0  0  0  0  0  0
  158.6118  139.2087  181.7558 O   0  0  0  0  0  0  0  0  0  0  0  0
  158.3847  140.1801  179.5251 H   0  0  0  0  0  0  0  0  0  0  0  0
  155.4839  141.0591  183.0788 C   0  0  0  0  0  0  0  0  0  0  0  0
  153.9606  143.0423  182.9840 C   0  0  0  0  0  0  0  0  0  0  0  0
  154.0630  141.5154  183.0663 C   0  0  0  0  0  0  0  0  0  0  0  0
  153.3272  140.9092  181.8573 C   0  0  0  0  0  0  0  0  0  0  0  0
 35 36  1  0  0  0
 36 37  1  0  0  0
 36 34  1  0  0  0
 34  1  1  0  0  0
  1  2  1  0  0  0
  2  3  1  0  0  0
  3  4  2  0  0  0
  3  6  1  0  0  0
  6  7  1  0  0  0
  6  9  1  0  0  0
  9 10  1  0  0  0
  9 13  1  0  0  0
 13 14  1  0  0  0
 14 15  2  0  0  0
 15 16  1  0  0  0
 16 17  2  0  0  0
 17 18  1  0  0  0
 18 19  2  0  0  0
  1 20  1  0  0  0
 20 21  2  0  0  0
 20 22  1  0  0  0
 22 23  1  0  0  0
 23 24  1  0  0  0
 24 25  1  0  0  0
 25 26  2  0  0  0
 26 27  1  0  0  0
 26 28  1  0  0  0
 28 29  2  0  0  0
 28 30  1  0  0  0
 30 31  1  0  0  0
 31 32  2  0  0  0
 19 14  1  0  0  0
 31 24  1  0  0  0
  2  5  1  0  0  0
  7  8  1  0  0  0
 10 11  1  0  0  0
 10 12  1  0  0  0
 30 33  1  0  0  0
M  END
> <minimizedAffinity>
-8.70944

> <CNNscore>
0.4605664611

> <CNNaffinity>
5.8588914871

> <CNN_VS>
2.6984088421

> <CNNaffinity_variance>
0.4406856000

$$$$
[H]Cl.[H]O[C@]([H])(C(=O)N([H])[C@]([H])(C(=O)OC([H])([H])n1c([H])c(F)c(=O)n([H])c1=O)C([H])([H])C([H])(C([H])([H])[H])C([H])([H])[H])[C@]([H])(N([H])[H])C([H])([H])c1c([H])c([H])c([H])c([H])c1[H]


 37 38  0  0  0  0  0  0  0  0999 V2000
  154.0314  138.5284  184.6194 C   0  0  0  0  0  0  0  0  0  0  0  0
  154.8966  139.5767  184.0641 N   0  0  0  0  0  0  0  0  0  0  0  0
  156.2230  139.7733  184.5366 C   0  0  0  0  0  0  0  0  0  0  0  0
  156.6372  139.0218  185.4476 O   0  0  0  0  0  0  0  0  0  0  0  0
  154.5632  140.2098  183.3048 H   0  0  0  0  0  0  0  0  0  0  0  0
  157.1137  140.8262  183.9887 C   0  0  0  0  0  0  0  0  0  0  0  0
  156.6347  142.0726  184.3680 O   0  0  0  0  0  0  0  0  0  0  0  0
  156.9875  142.3035  185.2591 H   0  0  0  0  0  0  0  0  0  0  0  0
  158.5395  140.6851  184.5031 C   0  0  0  0  0  0  0  0  0  0  0  0
  158.9592  141.8310  185.2461 N   0  0  0  0  0  0  0  0  0  0  0  0
  159.5170  141.6118  186.0928 H   0  0  0  0  0  0  0  0  0  0  0  0
  159.3087  142.6238  184.7019 H   0  0  0  0  0  0  0  0  0  0  0  0
  159.4163  140.4553  183.3025 C   0  0  0  0  0  0  0  0  0  0  0  0
  159.0732  141.3132  182.1497 C   0  0  0  0  0  0  0  0  0  0  0  0
  159.3037  142.6789  182.1364 C   0  0  0  0  0  0  0  0  0  0  0  0
  158.9813  143.4796  181.0543 C   0  0  0  0  0  0  0  0  0  0  0  0
  158.4135  142.9185  179.9485 C   0  0  0  0  0  0  0  0  0  0  0  0
  158.1664  141.5695  179.9163 C   0  0  0  0  0  0  0  0  0  0  0  0
  158.4898  140.7868  180.9936 C   0  0  0  0  0  0  0  0  0  0  0  0
  153.0445  138.1105  183.5935 C   0  0  0  0  0  0  0  0  0  0  0  0
  152.5272  136.9474  183.7380 O   0  0  0  0  0  0  0  0  0  0  0  0
  152.6201  138.8120  182.5191 O   0  0  0  0  0  0  0  0  0  0  0  0
  152.5182  138.5001  181.1855 C   0  0  0  0  0  0  0  0  0  0  0  0
  151.2137  138.3178  180.6367 N   0  0  0  0  0  0  0  0  0  0  0  0
  150.3137  137.3905  180.9949 C   0  0  0  0  0  0  0  0  0  0  0  0
  149.0615  137.2876  180.3757 C   0  0  0  0  0  0  0  0  0  0  0  0
  148.1735  136.3467  180.7543 F   0  0  0  0  0  0  0  0  0  0  0  0
  148.7298  138.1538  179.3701 C   0  0  0  0  0  0  0  0  0  0  0  0
  147.6426  138.1505  178.7515 O   0  0  0  0  0  0  0  0  0  0  0  0
  149.6570  139.0813  179.0266 N   0  0  0  0  0  0  0  0  0  0  0  0
  150.8382  139.1529  179.6350 C   0  0  0  0  0  0  0  0  0  0  0  0
  151.6402  140.0653  179.2341 O   0  0  0  0  0  0  0  0  0  0  0  0
  149.4233  139.7613  178.2521 H   0  0  0  0  0  0  0  0  0  0  0  0
  153.4592  138.9512  185.9243 C   0  0  0  0  0  0  0  0  0  0  0  0
  154.5316  136.8128  186.6587 C   0  0  0  0  0  0  0  0  0  0  0  0
  153.4577  137.8667  186.9495 C   0  0  0  0  0  0  0  0  0  0  0  0
  153.7210  138.4622  188.3447 C   0  0  0  0  0  0  0  0  0  0  0  0
 35 36  1  0  0  0
 36 37  1  0  0  0
 36 34  1  0  0  0
 34  1  1  0  0  0
  1  2  1  0  0  0
  2  3  1  0  0  0
  3  4  2  0  0  0
  3  6  1  0  0  0
  6  7  1  0  0  0
  6  9  1  0  0  0
  9 10  1  0  0  0
  9 13  1  0  0  0
 13 14  1  0  0  0
 14 15  2  0  0  0
 15 16  1  0  0  0
 16 17  2  0  0  0
 17 18  1  0  0  0
 18 19  2  0  0  0
  1 20  1  0  0  0
 20 21  2  0  0  0
 20 22  1  0  0  0
 22 23  1  0  0  0
 23 24  1  0  0  0
 24 25  1  0  0  0
 25 26  2  0  0  0
 26 27  1  0  0  0
 26 28  1  0  0  0
 28 29  2  0  0  0
 28 30  1  0  0  0
 30 31  1  0  0  0
 31 32  2  0  0  0
 19 14  1  0  0  0
 31 24  1  0  0  0
  2  5  1  0  0  0
  7  8  1  0  0  0
 10 11  1  0  0  0
 10 12  1  0  0  0
 30 33  1  0  0  0
M  END
> <minimizedAffinity>
-7.13460

> <CNNscore>
0.4363575876

> <CNNaffinity>
6.0545015335

> <CNN_VS>
2.6419277191

> <CNNaffinity_variance>
0.0964750201

$$$$
[H]Cl.[H]O[C@]([H])(C(=O)N([H])[C@]([H])(C(=O)OC([H])([H])n1c([H])c(F)c(=O)n([H])c1=O)C([H])([H])C([H])(C([H])([H])[H])C([H])([H])[H])[C@]([H])(N([H])[H])C([H])([H])c1c([H])c([H])c([H])c([H])c1[H]


 37 38  0  0  0  0  0  0  0  0999 V2000
  154.1568  140.1113  182.6837 C   0  0  0  0  0  0  0  0  0  0  0  0
  153.8490  139.7505  184.0733 N   0  0  0  0  0  0  0  0  0  0  0  0
  153.7651  138.3931  184.4877 C   0  0  0  0  0  0  0  0  0  0  0  0
  153.9623  137.5055  183.6278 O   0  0  0  0  0  0  0  0  0  0  0  0
  153.6823  140.4809  184.7995 H   0  0  0  0  0  0  0  0  0  0  0  0
  153.4559  138.0072  185.8868 C   0  0  0  0  0  0  0  0  0  0  0  0
  153.1413  136.6559  185.9291 O   0  0  0  0  0  0  0  0  0  0  0  0
  153.9692  136.1278  186.0158 H   0  0  0  0  0  0  0  0  0  0  0  0
  154.6369  138.2524  186.8155 C   0  0  0  0  0  0  0  0  0  0  0  0
  155.8490  138.4826  186.0951 N   0  0  0  0  0  0  0  0  0  0  0  0
  156.4491  139.2291  186.4938 H   0  0  0  0  0  0  0  0  0  0  0  0
  156.3578  137.6519  185.7822 H   0  0  0  0  0  0  0  0  0  0  0  0
  154.7474  137.0472  187.7092 C   0  0  0  0  0  0  0  0  0  0  0  0
  154.5390  137.3533  189.1393 C   0  0  0  0  0  0  0  0  0  0  0  0
  153.5966  136.7003  189.9164 C   0  0  0  0  0  0  0  0  0  0  0  0
  153.4043  136.9894  191.2563 C   0  0  0  0  0  0  0  0  0  0  0  0
  154.1641  137.9528  191.8518 C   0  0  0  0  0  0  0  0  0  0  0  0
  155.1101  138.6263  191.1216 C   0  0  0  0  0  0  0  0  0  0  0  0
  155.2916  138.3315  189.7956 C   0  0  0  0  0  0  0  0  0  0  0  0
  155.2458  141.1186  182.6668 C   0  0  0  0  0  0  0  0  0  0  0  0
  155.5421  141.6595  183.7899 O   0  0  0  0  0  0  0  0  0  0  0  0
  155.9699  141.5371  181.6051 O   0  0  0  0  0  0  0  0  0  0  0  0
  157.2631  141.2989  181.2090 C   0  0  0  0  0  0  0  0  0  0  0  0
  158.3109  141.5730  182.1381 N   0  0  0  0  0  0  0  0  0  0  0  0
  158.6788  142.7760  182.6024 C   0  0  0  0  0  0  0  0  0  0  0  0
  159.7387  142.9357  183.5040 C   0  0  0  0  0  0  0  0  0  0  0  0
  160.0890  144.1561  183.9568 F   0  0  0  0  0  0  0  0  0  0  0  0
  160.4325  141.8382  183.9352 C   0  0  0  0  0  0  0  0  0  0  0  0
  161.3925  141.8671  184.7365 O   0  0  0  0  0  0  0  0  0  0  0  0
  160.0412  140.6340  183.4507 N   0  0  0  0  0  0  0  0  0  0  0  0
  159.0293  140.5160  182.5947 C   0  0  0  0  0  0  0  0  0  0  0  0
  158.7419  139.3339  182.1994 O   0  0  0  0  0  0  0  0  0  0  0  0
  160.5625  139.7717  183.7693 H   0  0  0  0  0  0  0  0  0  0  0  0
  152.9214  140.4908  181.9498 C   0  0  0  0  0  0  0  0  0  0  0  0
  151.0353  138.8479  181.8773 C   0  0  0  0  0  0  0  0  0  0  0  0
  152.3093  139.3581  181.1952 C   0  0  0  0  0  0  0  0  0  0  0  0
  151.9530  139.8098  179.7671 C   0  0  0  0  0  0  0  0  0  0  0  0
 35 36  1  0  0  0
 36 37  1  0  0  0
 36 34  1  0  0  0
 34  1  1  0  0  0
  1  2  1  0  0  0
  2  3  1  0  0  0
  3  4  2  0  0  0
  3  6  1  0  0  0
  6  7  1  0  0  0
  6  9  1  0  0  0
  9 10  1  0  0  0
  9 13  1  0  0  0
 13 14  1  0  0  0
 14 15  2  0  0  0
 15 16  1  0  0  0
 16 17  2  0  0  0
 17 18  1  0  0  0
 18 19  2  0  0  0
  1 20  1  0  0  0
 20 21  2  0  0  0
 20 22  1  0  0  0
 22 23  1  0  0  0
 23 24  1  0  0  0
 24 25  1  0  0  0
 25 26  2  0  0  0
 26 27  1  0  0  0
 26 28  1  0  0  0
 28 29  2  0  0  0
 28 30  1  0  0  0
 30 31  1  0  0  0
 31 32  2  0  0  0
 19 14  1  0  0  0
 31 24  1  0  0  0
  2  5  1  0  0  0
  7  8  1  0  0  0
 10 11  1  0  0  0
 10 12  1  0  0  0
 30 33  1  0  0  0
M  END
> <minimizedAffinity>
-7.92799

> <CNNscore>
0.4013320804

> <CNNaffinity>
6.0551805496

> <CNN_VS>
2.4301381111

> <CNNaffinity_variance>
0.1134371758

$$$$
[H]Cl.[H]O[C@]([H])(C(=O)N([H])[C@]([H])(C(=O)OC([H])([H])n1c([H])c(F)c(=O)n([H])c1=O)C([H])([H])C([H])(C([H])([H])[H])C([H])([H])[H])[C@]([H])(N([H])[H])C([H])([H])c1c([H])c([H])c([H])c([H])c1[H]


 37 38  0  0  0  0  0  0  0  0999 V2000
  153.5762  140.0100  182.3977 C   0  0  0  0  0  0  0  0  0  0  0  0
  153.3491  139.4992  183.7554 N   0  0  0  0  0  0  0  0  0  0  0  0
  153.5050  138.1208  184.0667 C   0  0  0  0  0  0  0  0  0  0  0  0
  153.8438  137.3470  183.1432 O   0  0  0  0  0  0  0  0  0  0  0  0
  153.0661  140.1338  184.5337 H   0  0  0  0  0  0  0  0  0  0  0  0
  153.2810  137.5843  185.4320 C   0  0  0  0  0  0  0  0  0  0  0  0
  153.3706  136.1995  185.3991 O   0  0  0  0  0  0  0  0  0  0  0  0
  154.3132  135.9283  185.4978 H   0  0  0  0  0  0  0  0  0  0  0  0
  154.3130  138.1068  186.4215 C   0  0  0  0  0  0  0  0  0  0  0  0
  155.4689  138.6319  185.7663 N   0  0  0  0  0  0  0  0  0  0  0  0
  155.8445  139.5007  186.1911 H   0  0  0  0  0  0  0  0  0  0  0  0
  156.1824  137.9535  185.4881 H   0  0  0  0  0  0  0  0  0  0  0  0
  154.6671  136.9607  187.3294 C   0  0  0  0  0  0  0  0  0  0  0  0
  155.1410  137.3890  188.6614 C   0  0  0  0  0  0  0  0  0  0  0  0
  154.4757  138.3327  189.4264 C   0  0  0  0  0  0  0  0  0  0  0  0
  154.9225  138.7314  190.6743 C   0  0  0  0  0  0  0  0  0  0  0  0
  156.0614  138.1838  191.1870 C   0  0  0  0  0  0  0  0  0  0  0  0
  156.7541  137.2451  190.4652 C   0  0  0  0  0  0  0  0  0  0  0  0
  156.3021  136.8582  189.2307 C   0  0  0  0  0  0  0  0  0  0  0  0
  154.4745  141.1891  182.4596 C   0  0  0  0  0  0  0  0  0  0  0  0
  154.1172  142.1398  183.2407 O   0  0  0  0  0  0  0  0  0  0  0  0
  155.6322  141.3838  181.7901 O   0  0  0  0  0  0  0  0  0  0  0  0
  156.9361  141.5084  182.2029 C   0  0  0  0  0  0  0  0  0  0  0  0
  157.8008  142.3564  181.4484 N   0  0  0  0  0  0  0  0  0  0  0  0
  158.1773  143.6044  181.7629 C   0  0  0  0  0  0  0  0  0  0  0  0
  159.0208  144.3596  180.9382 C   0  0  0  0  0  0  0  0  0  0  0  0
  159.3854  145.6124  181.2769 F   0  0  0  0  0  0  0  0  0  0  0  0
  159.4846  143.8213  179.7691 C   0  0  0  0  0  0  0  0  0  0  0  0
  160.2401  144.4059  178.9616 O   0  0  0  0  0  0  0  0  0  0  0  0
  159.0891  142.5586  179.4740 N   0  0  0  0  0  0  0  0  0  0  0  0
  158.2866  141.8672  180.2794 C   0  0  0  0  0  0  0  0  0  0  0  0
  157.9742  140.6840  179.9069 O   0  0  0  0  0  0  0  0  0  0  0  0
  159.4346  142.1217  178.5759 H   0  0  0  0  0  0  0  0  0  0  0  0
  152.2867  140.2234  181.6903 C   0  0  0  0  0  0  0  0  0  0  0  0
  151.1227  138.0892  181.0965 C   0  0  0  0  0  0  0  0  0  0  0  0
  152.0307  139.2245  180.6115 C   0  0  0  0  0  0  0  0  0  0  0  0
  151.3569  139.9108  179.4091 C   0  0  0  0  0  0  0  0  0  0  0  0
 35 36  1  0  0  0
 36 37  1  0  0  0
 36 34  1  0  0  0
 34  1  1  0  0  0
  1  2  1  0  0  0
  2  3  1  0  0  0
  3  4  2  0  0  0
  3  6  1  0  0  0
  6  7  1  0  0  0
  6  9  1  0  0  0
  9 10  1  0  0  0
  9 13  1  0  0  0
 13 14  1  0  0  0
 14 15  2  0  0  0
 15 16  1  0  0  0
 16 17  2  0  0  0
 17 18  1  0  0  0
 18 19  2  0  0  0
  1 20  1  0  0  0
 20 21  2  0  0  0
 20 22  1  0  0  0
 22 23  1  0  0  0
 23 24  1  0  0  0
 24 25  1  0  0  0
 25 26  2  0  0  0
 26 27  1  0  0  0
 26 28  1  0  0  0
 28 29  2  0  0  0
 28 30  1  0  0  0
 30 31  1  0  0  0
 31 32  2  0  0  0
 19 14  1  0  0  0
 31 24  1  0  0  0
  2  5  1  0  0  0
  7  8  1  0  0  0
 10 11  1  0  0  0
 10 12  1  0  0  0
 30 33  1  0  0  0
M  END
> <minimizedAffinity>
-7.55636

> <CNNscore>
0.3937025964

> <CNNaffinity>
5.8371925354

> <CNN_VS>
2.2981178761

> <CNNaffinity_variance>
0.1775878817

$$$$
[H]Cl.[H]O[C@]([H])(C(=O)N([H])[C@]([H])(C(=O)OC([H])([H])n1c([H])c(F)c(=O)n([H])c1=O)C([H])([H])C([H])(C([H])([H])[H])C([H])([H])[H])[C@]([H])(N([H])[H])C([H])([H])c1c([H])c([H])c([H])c([H])c1[H]


 37 38  0  0  0  0  0  0  0  0999 V2000
  155.3615  141.2466  182.8446 C   0  0  0  0  0  0  0  0  0  0  0  0
  154.4232  141.0979  181.7250 N   0  0  0  0  0  0  0  0  0  0  0  0
  153.1720  140.4423  181.8858 C   0  0  0  0  0  0  0  0  0  0  0  0
  152.8893  139.9905  183.0182 O   0  0  0  0  0  0  0  0  0  0  0  0
  154.6472  141.4697  180.7763 H   0  0  0  0  0  0  0  0  0  0  0  0
  152.2095  140.2820  180.7678 C   0  0  0  0  0  0  0  0  0  0  0  0
  152.8573  139.6990  179.6873 O   0  0  0  0  0  0  0  0  0  0  0  0
  152.8383  138.7181  179.7825 H   0  0  0  0  0  0  0  0  0  0  0  0
  151.0343  139.3955  181.1557 C   0  0  0  0  0  0  0  0  0  0  0  0
  151.4541  138.0888  181.5523 N   0  0  0  0  0  0  0  0  0  0  0  0
  150.9404  137.7027  182.3667 H   0  0  0  0  0  0  0  0  0  0  0  0
  151.6223  137.4164  180.7997 H   0  0  0  0  0  0  0  0  0  0  0  0
  150.1162  139.3418  179.9652 C   0  0  0  0  0  0  0  0  0  0  0  0
  148.9717  138.4252  180.1449 C   0  0  0  0  0  0  0  0  0  0  0  0
  147.8969  138.7197  180.9674 C   0  0  0  0  0  0  0  0  0  0  0  0
  146.8260  137.8586  181.1332 C   0  0  0  0  0  0  0  0  0  0  0  0
  146.8116  136.6682  180.4678 C   0  0  0  0  0  0  0  0  0  0  0  0
  147.8546  136.3334  179.6420 C   0  0  0  0  0  0  0  0  0  0  0  0
  148.9095  137.1940  179.4857 C   0  0  0  0  0  0  0  0  0  0  0  0
  155.8577  142.6441  182.8883 C   0  0  0  0  0  0  0  0  0  0  0  0
  155.0336  143.5551  182.5246 O   0  0  0  0  0  0  0  0  0  0  0  0
  157.0801  143.0769  183.2690 O   0  0  0  0  0  0  0  0  0  0  0  0
  158.2853  143.1529  182.6151 C   0  0  0  0  0  0  0  0  0  0  0  0
  159.4742  142.9249  183.3707 N   0  0  0  0  0  0  0  0  0  0  0  0
  159.9736  143.7070  184.3387 C   0  0  0  0  0  0  0  0  0  0  0  0
  161.1639  143.3973  185.0086 C   0  0  0  0  0  0  0  0  0  0  0  0
  161.6452  144.1998  185.9790 F   0  0  0  0  0  0  0  0  0  0  0  0
  161.8529  142.2629  184.6764 C   0  0  0  0  0  0  0  0  0  0  0  0
  162.9224  141.8927  185.2090 O   0  0  0  0  0  0  0  0  0  0  0  0
  161.3274  141.4897  183.6947 N   0  0  0  0  0  0  0  0  0  0  0  0
  160.1935  141.8120  183.0773 C   0  0  0  0  0  0  0  0  0  0  0  0
  159.7851  141.0134  182.1653 O   0  0  0  0  0  0  0  0  0  0  0  0
  161.8421  140.6084  183.4206 H   0  0  0  0  0  0  0  0  0  0  0  0
  156.4108  140.1951  182.7984 C   0  0  0  0  0  0  0  0  0  0  0  0
  157.6037  140.2357  184.9978 C   0  0  0  0  0  0  0  0  0  0  0  0
  156.6052  139.4948  184.1018 C   0  0  0  0  0  0  0  0  0  0  0  0
  155.2622  139.3899  184.8474 C   0  0  0  0  0  0  0  0  0  0  0  0
 35 36  1  0  0  0
 36 37  1  0  0  0
 36 34  1  0  0  0
 34  1  1  0  0  0
  1  2  1  0  0  0
  2  3  1  0  0  0
  3  4  2  0  0  0
  3  6  1  0  0  0
  6  7  1  0  0  0
  6  9  1  0  0  0
  9 10  1  0  0  0
  9 13  1  0  0  0
 13 14  1  0  0  0
 14 15  2  0  0  0
 15 16  1  0  0  0
 16 17  2  0  0  0
 17 18  1  0  0  0
 18 19  2  0  0  0
  1 20  1  0  0  0
 20 21  2  0  0  0
 20 22  1  0  0  0
 22 23  1  0  0  0
 23 24  1  0  0  0
 24 25  1  0  0  0
 25 26  2  0  0  0
 26 27  1  0  0  0
 26 28  1  0  0  0
 28 29  2  0  0  0
 28 30  1  0  0  0
 30 31  1  0  0  0
 31 32  2  0  0  0
 19 14  1  0  0  0
 31 24  1  0  0  0
  2  5  1  0  0  0
  7  8  1  0  0  0
 10 11  1  0  0  0
 10 12  1  0  0  0
 30 33  1  0  0  0
M  END
> <minimizedAffinity>
-7.42886

> <CNNscore>
0.3690058291

> <CNNaffinity>
5.8221879005

> <CNN_VS>
2.1484212875

> <CNNaffinity_variance>
0.1945275068

$$$$
[H]Cl.[H]O[C@]([H])(C(=O)N([H])[C@]([H])(C(=O)OC([H])([H])n1c([H])c(F)c(=O)n([H])c1=O)C([H])([H])C([H])(C([H])([H])[H])C([H])([H])[H])[C@]([H])(N([H])[H])C([H])([H])c1c([H])c([H])c([H])c([H])c1[H]


 37 38  0  0  0  0  0  0  0  0999 V2000
  155.5147  139.8489  183.6530 C   0  0  0  0  0  0  0  0  0  0  0  0
  154.3916  139.5532  184.5513 N   0  0  0  0  0  0  0  0  0  0  0  0
  153.9242  138.2245  184.7445 C   0  0  0  0  0  0  0  0  0  0  0  0
  154.5012  137.3048  184.1218 O   0  0  0  0  0  0  0  0  0  0  0  0
  153.9021  140.3108  185.0757 H   0  0  0  0  0  0  0  0  0  0  0  0
  152.7914  137.9041  185.6479 C   0  0  0  0  0  0  0  0  0  0  0  0
  151.9977  136.9302  185.0578 O   0  0  0  0  0  0  0  0  0  0  0  0
  152.3587  136.0380  185.2706 H   0  0  0  0  0  0  0  0  0  0  0  0
  153.2720  137.3786  186.9934 C   0  0  0  0  0  0  0  0  0  0  0  0
  152.3439  136.4614  187.5753 N   0  0  0  0  0  0  0  0  0  0  0  0
  152.7830  135.6424  188.0364 H   0  0  0  0  0  0  0  0  0  0  0  0
  151.5627  136.8712  188.0936 H   0  0  0  0  0  0  0  0  0  0  0  0
  153.4910  138.5761  187.8771 C   0  0  0  0  0  0  0  0  0  0  0  0
  154.5401  138.3716  188.8970 C   0  0  0  0  0  0  0  0  0  0  0  0
  155.7742  137.8161  188.6024 C   0  0  0  0  0  0  0  0  0  0  0  0
  156.7550  137.6263  189.5605 C   0  0  0  0  0  0  0  0  0  0  0  0
  156.5141  137.9952  190.8512 C   0  0  0  0  0  0  0  0  0  0  0  0
  155.3059  138.5495  191.1900 C   0  0  0  0  0  0  0  0  0  0  0  0
  154.3424  138.7326  190.2329 C   0  0  0  0  0  0  0  0  0  0  0  0
  156.6312  140.4320  184.4369 C   0  0  0  0  0  0  0  0  0  0  0  0
  157.2769  139.6283  185.1975 O   0  0  0  0  0  0  0  0  0  0  0  0
  157.0547  141.7154  184.4456 O   0  0  0  0  0  0  0  0  0  0  0  0
  157.9615  142.4011  183.6752 C   0  0  0  0  0  0  0  0  0  0  0  0
  159.3367  142.3509  184.0529 N   0  0  0  0  0  0  0  0  0  0  0  0
  159.9454  143.1124  184.9736 C   0  0  0  0  0  0  0  0  0  0  0  0
  161.3120  142.9924  185.2562 C   0  0  0  0  0  0  0  0  0  0  0  0
  161.9008  143.7696  186.1870 F   0  0  0  0  0  0  0  0  0  0  0  0
  162.0656  142.0728  184.5793 C   0  0  0  0  0  0  0  0  0  0  0  0
  163.2898  141.8831  184.7522 O   0  0  0  0  0  0  0  0  0  0  0  0
  161.4267  141.3159  183.6537 N   0  0  0  0  0  0  0  0  0  0  0  0
  160.1261  141.4544  183.4087 C   0  0  0  0  0  0  0  0  0  0  0  0
  159.6218  140.6902  182.5154 O   0  0  0  0  0  0  0  0  0  0  0  0
  161.9883  140.5987  183.1178 H   0  0  0  0  0  0  0  0  0  0  0  0
  155.0623  140.6520  182.4873 C   0  0  0  0  0  0  0  0  0  0  0  0
  153.8015  142.8107  182.5999 C   0  0  0  0  0  0  0  0  0  0  0  0
  153.7243  141.2825  182.6860 C   0  0  0  0  0  0  0  0  0  0  0  0
  152.7421  140.7804  181.6119 C   0  0  0  0  0  0  0  0  0  0  0  0
 35 36  1  0  0  0
 36 37  1  0  0  0
 36 34  1  0  0  0
 34  1  1  0  0  0
  1  2  1  0  0  0
  2  3  1  0  0  0
  3  4  2  0  0  0
  3  6  1  0  0  0
  6  7  1  0  0  0
  6  9  1  0  0  0
  9 10  1  0  0  0
  9 13  1  0  0  0
 13 14  1  0  0  0
 14 15  2  0  0  0
 15 16  1  0  0  0
 16 17  2  0  0  0
 17 18  1  0  0  0
 18 19  2  0  0  0
  1 20  1  0  0  0
 20 21  2  0  0  0
 20 22  1  0  0  0
 22 23  1  0  0  0
 23 24  1  0  0  0
 24 25  1  0  0  0
 25 26  2  0  0  0
 26 27  1  0  0  0
 26 28  1  0  0  0
 28 29  2  0  0  0
 28 30  1  0  0  0
 30 31  1  0  0  0
 31 32  2  0  0  0
 19 14  1  0  0  0
 31 24  1  0  0  0
  2  5  1  0  0  0
  7  8  1  0  0  0
 10 11  1  0  0  0
 10 12  1  0  0  0
 30 33  1  0  0  0
M  END
> <minimizedAffinity>
-8.51778

> <CNNscore>
0.3627039492

> <CNNaffinity>
5.9449882507

> <CNN_VS>
2.1562707424

> <CNNaffinity_variance>
0.2234139442

$$$$
