[H]c1sc(N([H])C(=O)n2nnc(OC([H])([H])c3c([H])c([H])c(Cl)c([H])c3[H])c2[H])c([H])c1C(=O)N([H])C([H])([H])C([H])([H])N1C([H])([H])C([H])([H])OC([H])([H])C1([H])[H]


 35 38  0  0  0  0  0  0  0  0999 V2000
  157.0084  141.5323  183.6087 C   0  0  0  0  0  0  0  0  0  0  0  0
  155.7805  141.8604  183.0592 C   0  0  0  0  0  0  0  0  0  0  0  0
  155.1291  140.7318  182.7552 N   0  0  0  0  0  0  0  0  0  0  0  0
  155.9227  139.7355  183.1023 N   0  0  0  0  0  0  0  0  0  0  0  0
  157.0368  140.1928  183.6084 N   0  0  0  0  0  0  0  0  0  0  0  0
  153.8436  140.6453  182.1900 C   0  0  0  0  0  0  0  0  0  0  0  0
  153.2049  141.7147  181.9391 O   0  0  0  0  0  0  0  0  0  0  0  0
  153.2863  139.3705  181.9122 N   0  0  0  0  0  0  0  0  0  0  0  0
  153.7857  138.4968  182.1017 H   0  0  0  0  0  0  0  0  0  0  0  0
  151.9606  139.3539  181.3405 C   0  0  0  0  0  0  0  0  0  0  0  0
  150.7643  139.2029  181.9911 C   0  0  0  0  0  0  0  0  0  0  0  0
  149.6497  139.2371  181.2388 C   0  0  0  0  0  0  0  0  0  0  0  0
  149.8140  139.4198  179.8895 C   0  0  0  0  0  0  0  0  0  0  0  0
  151.4970  139.5369  179.7127 S   0  0  0  0  0  0  0  0  0  0  0  0
  148.2899  139.0611  181.8275 C   0  0  0  0  0  0  0  0  0  0  0  0
  147.2449  139.3317  181.1893 O   0  0  0  0  0  0  0  0  0  0  0  0
  148.1562  138.5726  183.1509 N   0  0  0  0  0  0  0  0  0  0  0  0
  149.0061  138.3291  183.6974 H   0  0  0  0  0  0  0  0  0  0  0  0
  146.8786  138.3879  183.7952 C   0  0  0  0  0  0  0  0  0  0  0  0
  146.9214  138.7237  185.2601 C   0  0  0  0  0  0  0  0  0  0  0  0
  146.8427  137.5584  186.0996 N   0  0  0  0  0  0  0  0  0  0  0  0
  146.8115  136.3564  185.3010 C   0  0  0  0  0  0  0  0  0  0  0  0
  147.8944  135.3670  185.6321 C   0  0  0  0  0  0  0  0  0  0  0  0
  149.1385  135.9325  185.7655 O   0  0  0  0  0  0  0  0  0  0  0  0
  149.1841  137.1422  186.4123 C   0  0  0  0  0  0  0  0  0  0  0  0
  147.8848  137.4433  187.0773 C   0  0  0  0  0  0  0  0  0  0  0  0
  157.9338  142.4478  184.0324 O   0  0  0  0  0  0  0  0  0  0  0  0
  159.2608  142.5508  183.5719 C   0  0  0  0  0  0  0  0  0  0  0  0
  163.3585  142.5163  188.0088 Cl  0  0  0  0  0  0  0  0  0  0  0  0
  162.1748  142.5245  186.7256 C   0  0  0  0  0  0  0  0  0  0  0  0
  162.5513  142.4542  185.3824 C   0  0  0  0  0  0  0  0  0  0  0  0
  161.6040  142.4617  184.3862 C   0  0  0  0  0  0  0  0  0  0  0  0
  160.2546  142.5381  184.6613 C   0  0  0  0  0  0  0  0  0  0  0  0
  159.8844  142.6074  185.9897 C   0  0  0  0  0  0  0  0  0  0  0  0
  160.8264  142.6011  187.0094 C   0  0  0  0  0  0  0  0  0  0  0  0
 29 30  1  0  0  0
 30 31  2  0  0  0
 31 32  1  0  0  0
 32 33  2  0  0  0
 33 28  1  0  0  0
 28 27  1  0  0  0
 27  1  1  0  0  0
  1  2  2  0  0  0
  2  3  1  0  0  0
  3  4  1  0  0  0
  4  5  2  0  0  0
  3  6  1  0  0  0
  6  7  2  0  0  0
  6  8  1  0  0  0
  8 10  1  0  0  0
 10 11  2  0  0  0
 11 12  1  0  0  0
 12 13  2  0  0  0
 13 14  1  0  0  0
 12 15  1  0  0  0
 15 16  2  0  0  0
 15 17  1  0  0  0
 17 19  1  0  0  0
 19 20  1  0  0  0
 20 21  1  0  0  0
 21 22  1  0  0  0
 22 23  1  0  0  0
 23 24  1  0  0  0
 24 25  1  0  0  0
 25 26  1  0  0  0
 33 34  1  0  0  0
 34 35  2  0  0  0
 35 30  1  0  0  0
  5  1  1  0  0  0
 14 10  1  0  0  0
 26 21  1  0  0  0
  8  9  1  0  0  0
 17 18  1  0  0  0
M  END
> <minimizedAffinity>
-7.86600

> <CNNscore>
0.5206569433

> <CNNaffinity>
5.9436864853

> <CNN_VS>
3.0946216583

> <CNNaffinity_variance>
0.0729258358

$$$$
[H]c1sc(N([H])C(=O)n2nnc(OC([H])([H])c3c([H])c([H])c(Cl)c([H])c3[H])c2[H])c([H])c1C(=O)N([H])C([H])([H])C([H])([H])N1C([H])([H])C([H])([H])OC([H])([H])C1([H])[H]


 35 38  0  0  0  0  0  0  0  0999 V2000
  157.5303  142.2069  182.8841 C   0  0  0  0  0  0  0  0  0  0  0  0
  156.3256  141.7171  183.3598 C   0  0  0  0  0  0  0  0  0  0  0  0
  155.5852  141.3117  182.3217 N   0  0  0  0  0  0  0  0  0  0  0  0
  156.3024  141.5409  181.2372 N   0  0  0  0  0  0  0  0  0  0  0  0
  157.4544  142.0694  181.5535 N   0  0  0  0  0  0  0  0  0  0  0  0
  154.3012  140.7414  182.3941 C   0  0  0  0  0  0  0  0  0  0  0  0
  153.7639  140.5695  183.5327 O   0  0  0  0  0  0  0  0  0  0  0  0
  153.6326  140.3698  181.1991 N   0  0  0  0  0  0  0  0  0  0  0  0
  154.0451  140.5043  180.2715 H   0  0  0  0  0  0  0  0  0  0  0  0
  152.3217  139.7828  181.3461 C   0  0  0  0  0  0  0  0  0  0  0  0
  151.9247  138.8203  182.2366 C   0  0  0  0  0  0  0  0  0  0  0  0
  150.6350  138.4404  182.1929 C   0  0  0  0  0  0  0  0  0  0  0  0
  149.8366  139.0519  181.2603 C   0  0  0  0  0  0  0  0  0  0  0  0
  150.8953  140.1248  180.4822 S   0  0  0  0  0  0  0  0  0  0  0  0
  150.0880  137.3851  183.0949 C   0  0  0  0  0  0  0  0  0  0  0  0
  148.8559  137.2082  183.2468 O   0  0  0  0  0  0  0  0  0  0  0  0
  150.9763  136.5453  183.8115 N   0  0  0  0  0  0  0  0  0  0  0  0
  152.0024  136.6629  183.6941 H   0  0  0  0  0  0  0  0  0  0  0  0
  150.5266  135.5122  184.7125 C   0  0  0  0  0  0  0  0  0  0  0  0
  151.4958  135.2694  185.8360 C   0  0  0  0  0  0  0  0  0  0  0  0
  152.3246  136.4123  186.1113 N   0  0  0  0  0  0  0  0  0  0  0  0
  151.8695  137.0977  187.2974 C   0  0  0  0  0  0  0  0  0  0  0  0
  152.9210  137.2565  188.3605 C   0  0  0  0  0  0  0  0  0  0  0  0
  153.6405  136.1122  188.6021 O   0  0  0  0  0  0  0  0  0  0  0  0
  153.9804  135.3701  187.4987 C   0  0  0  0  0  0  0  0  0  0  0  0
  153.7238  136.1298  186.2425 C   0  0  0  0  0  0  0  0  0  0  0  0
  158.5275  142.7070  183.6775 O   0  0  0  0  0  0  0  0  0  0  0  0
  159.9062  142.6624  183.3935 C   0  0  0  0  0  0  0  0  0  0  0  0
  163.3777  142.4770  188.3324 Cl  0  0  0  0  0  0  0  0  0  0  0  0
  162.3748  142.5287  186.9043 C   0  0  0  0  0  0  0  0  0  0  0  0
  162.9054  142.3172  185.6297 C   0  0  0  0  0  0  0  0  0  0  0  0
  162.0991  142.3617  184.5172 C   0  0  0  0  0  0  0  0  0  0  0  0
  160.7460  142.6142  184.6048 C   0  0  0  0  0  0  0  0  0  0  0  0
  160.2234  142.8230  185.8657 C   0  0  0  0  0  0  0  0  0  0  0  0
  161.0217  142.7819  187.0006 C   0  0  0  0  0  0  0  0  0  0  0  0
 29 30  1  0  0  0
 30 31  2  0  0  0
 31 32  1  0  0  0
 32 33  2  0  0  0
 33 28  1  0  0  0
 28 27  1  0  0  0
 27  1  1  0  0  0
  1  2  2  0  0  0
  2  3  1  0  0  0
  3  4  1  0  0  0
  4  5  2  0  0  0
  3  6  1  0  0  0
  6  7  2  0  0  0
  6  8  1  0  0  0
  8 10  1  0  0  0
 10 11  2  0  0  0
 11 12  1  0  0  0
 12 13  2  0  0  0
 13 14  1  0  0  0
 12 15  1  0  0  0
 15 16  2  0  0  0
 15 17  1  0  0  0
 17 19  1  0  0  0
 19 20  1  0  0  0
 20 21  1  0  0  0
 21 22  1  0  0  0
 22 23  1  0  0  0
 23 24  1  0  0  0
 24 25  1  0  0  0
 25 26  1  0  0  0
 33 34  1  0  0  0
 34 35  2  0  0  0
 35 30  1  0  0  0
  5  1  1  0  0  0
 14 10  1  0  0  0
 26 21  1  0  0  0
  8  9  1  0  0  0
 17 18  1  0  0  0
M  END
> <minimizedAffinity>
-7.52581

> <CNNscore>
0.3736906648

> <CNNaffinity>
6.1658163071

> <CNN_VS>
2.3041079044

> <CNNaffinity_variance>
0.0826829895

$$$$
[H]c1sc(N([H])C(=O)n2nnc(OC([H])([H])c3c([H])c([H])c(Cl)c([H])c3[H])c2[H])c([H])c1C(=O)N([H])C([H])([H])C([H])([H])N1C([H])([H])C([H])([H])OC([H])([H])C1([H])[H]


 35 38  0  0  0  0  0  0  0  0999 V2000
  155.1185  139.9612  183.1939 C   0  0  0  0  0  0  0  0  0  0  0  0
  153.9042  139.2958  183.2068 C   0  0  0  0  0  0  0  0  0  0  0  0
  153.1478  139.7599  182.2055 N   0  0  0  0  0  0  0  0  0  0  0  0
  153.8646  140.6822  181.5903 N   0  0  0  0  0  0  0  0  0  0  0  0
  155.0316  140.8122  182.1627 N   0  0  0  0  0  0  0  0  0  0  0  0
  151.8498  139.3259  181.8795 C   0  0  0  0  0  0  0  0  0  0  0  0
  151.3146  138.4028  182.5694 O   0  0  0  0  0  0  0  0  0  0  0  0
  151.1653  139.9244  180.7903 N   0  0  0  0  0  0  0  0  0  0  0  0
  151.5760  140.6730  180.2249 H   0  0  0  0  0  0  0  0  0  0  0  0
  149.8405  139.4260  180.5054 C   0  0  0  0  0  0  0  0  0  0  0  0
  149.4384  138.6630  179.4409 C   0  0  0  0  0  0  0  0  0  0  0  0
  148.1425  138.3043  179.3997 C   0  0  0  0  0  0  0  0  0  0  0  0
  147.3434  138.7361  180.4273 C   0  0  0  0  0  0  0  0  0  0  0  0
  148.4100  139.6183  181.4080 S   0  0  0  0  0  0  0  0  0  0  0  0
  147.5791  137.4941  178.2804 C   0  0  0  0  0  0  0  0  0  0  0  0
  147.2823  138.0002  177.1721 O   0  0  0  0  0  0  0  0  0  0  0  0
  147.3659  136.1046  178.4583 N   0  0  0  0  0  0  0  0  0  0  0  0
  147.6149  135.6578  179.3631 H   0  0  0  0  0  0  0  0  0  0  0  0
  146.8130  135.2564  177.4306 C   0  0  0  0  0  0  0  0  0  0  0  0
  146.8660  133.7997  177.7994 C   0  0  0  0  0  0  0  0  0  0  0  0
  147.6351  133.5559  178.9902 N   0  0  0  0  0  0  0  0  0  0  0  0
  146.8418  132.8608  179.9756 C   0  0  0  0  0  0  0  0  0  0  0  0
  147.4434  131.5678  180.4522 C   0  0  0  0  0  0  0  0  0  0  0  0
  147.9213  130.7734  179.4393 O   0  0  0  0  0  0  0  0  0  0  0  0
  148.5728  131.4229  178.4207 C   0  0  0  0  0  0  0  0  0  0  0  0
  148.8596  132.8392  178.7856 C   0  0  0  0  0  0  0  0  0  0  0  0
  156.1326  139.7340  184.0849 O   0  0  0  0  0  0  0  0  0  0  0  0
  157.4652  139.4211  183.7534 C   0  0  0  0  0  0  0  0  0  0  0  0
  161.4368  143.4243  185.9165 Cl  0  0  0  0  0  0  0  0  0  0  0  0
  160.2872  142.2686  185.2916 C   0  0  0  0  0  0  0  0  0  0  0  0
  159.1945  141.8407  186.0491 C   0  0  0  0  0  0  0  0  0  0  0  0
  158.3001  140.9298  185.5391 C   0  0  0  0  0  0  0  0  0  0  0  0
  158.4368  140.4017  184.2723 C   0  0  0  0  0  0  0  0  0  0  0  0
  159.5175  140.8260  183.5250 C   0  0  0  0  0  0  0  0  0  0  0  0
  160.4312  141.7450  184.0229 C   0  0  0  0  0  0  0  0  0  0  0  0
 29 30  1  0  0  0
 30 31  2  0  0  0
 31 32  1  0  0  0
 32 33  2  0  0  0
 33 28  1  0  0  0
 28 27  1  0  0  0
 27  1  1  0  0  0
  1  2  2  0  0  0
  2  3  1  0  0  0
  3  4  1  0  0  0
  4  5  2  0  0  0
  3  6  1  0  0  0
  6  7  2  0  0  0
  6  8  1  0  0  0
  8 10  1  0  0  0
 10 11  2  0  0  0
 11 12  1  0  0  0
 12 13  2  0  0  0
 13 14  1  0  0  0
 12 15  1  0  0  0
 15 16  2  0  0  0
 15 17  1  0  0  0
 17 19  1  0  0  0
 19 20  1  0  0  0
 20 21  1  0  0  0
 21 22  1  0  0  0
 22 23  1  0  0  0
 23 24  1  0  0  0
 24 25  1  0  0  0
 25 26  1  0  0  0
 33 34  1  0  0  0
 34 35  2  0  0  0
 35 30  1  0  0  0
  5  1  1  0  0  0
 14 10  1  0  0  0
 26 21  1  0  0  0
  8  9  1  0  0  0
 17 18  1  0  0  0
M  END
> <minimizedAffinity>
-6.96617

> <CNNscore>
0.3483135700

> <CNNaffinity>
5.5176057816

> <CNN_VS>
1.9218569994

> <CNNaffinity_variance>
0.1398543864

$$$$
[H]c1sc(N([H])C(=O)n2nnc(OC([H])([H])c3c([H])c([H])c(Cl)c([H])c3[H])c2[H])c([H])c1C(=O)N([H])C([H])([H])C([H])([H])N1C([H])([H])C([H])([H])OC([H])([H])C1([H])[H]


 35 38  0  0  0  0  0  0  0  0999 V2000
  156.7476  141.3050  182.8496 C   0  0  0  0  0  0  0  0  0  0  0  0
  156.4067  140.3277  183.7694 C   0  0  0  0  0  0  0  0  0  0  0  0
  155.1957  139.8493  183.4611 N   0  0  0  0  0  0  0  0  0  0  0  0
  154.7955  140.5054  182.3876 N   0  0  0  0  0  0  0  0  0  0  0  0
  155.7019  141.3687  182.0144 N   0  0  0  0  0  0  0  0  0  0  0  0
  154.5070  138.8347  184.1507 C   0  0  0  0  0  0  0  0  0  0  0  0
  155.0556  138.2897  185.1589 O   0  0  0  0  0  0  0  0  0  0  0  0
  153.2178  138.4400  183.7089 N   0  0  0  0  0  0  0  0  0  0  0  0
  152.7555  138.8694  182.9023 H   0  0  0  0  0  0  0  0  0  0  0  0
  152.5710  137.3878  184.4566 C   0  0  0  0  0  0  0  0  0  0  0  0
  152.2568  137.3725  185.7901 C   0  0  0  0  0  0  0  0  0  0  0  0
  151.6355  136.2758  186.2601 C   0  0  0  0  0  0  0  0  0  0  0  0
  151.3744  135.2740  185.3607 C   0  0  0  0  0  0  0  0  0  0  0  0
  151.9952  135.8838  183.9046 S   0  0  0  0  0  0  0  0  0  0  0  0
  151.2629  136.1303  187.6977 C   0  0  0  0  0  0  0  0  0  0  0  0
  150.1124  135.7861  188.0587 O   0  0  0  0  0  0  0  0  0  0  0  0
  152.2293  136.3853  188.7021 N   0  0  0  0  0  0  0  0  0  0  0  0
  153.1940  136.6601  188.4297 H   0  0  0  0  0  0  0  0  0  0  0  0
  151.9438  136.2800  190.1124 C   0  0  0  0  0  0  0  0  0  0  0  0
  153.1649  136.4968  190.9623 C   0  0  0  0  0  0  0  0  0  0  0  0
  154.3492  136.7371  190.1822 N   0  0  0  0  0  0  0  0  0  0  0  0
  154.8836  138.0492  190.4585 C   0  0  0  0  0  0  0  0  0  0  0  0
  156.3177  138.0490  190.9107 C   0  0  0  0  0  0  0  0  0  0  0  0
  156.5956  137.1052  191.8686 O   0  0  0  0  0  0  0  0  0  0  0  0
  155.9979  135.8813  191.6996 C   0  0  0  0  0  0  0  0  0  0  0  0
  155.3901  135.7647  190.3439 C   0  0  0  0  0  0  0  0  0  0  0  0
  157.9232  142.0062  182.8684 O   0  0  0  0  0  0  0  0  0  0  0  0
  159.2142  141.4517  182.7733 C   0  0  0  0  0  0  0  0  0  0  0  0
  162.8033  142.9334  187.3994 Cl  0  0  0  0  0  0  0  0  0  0  0  0
  161.7668  142.5033  186.0620 C   0  0  0  0  0  0  0  0  0  0  0  0
  162.2881  142.1782  184.8076 C   0  0  0  0  0  0  0  0  0  0  0  0
  161.4553  141.8419  183.7669 C   0  0  0  0  0  0  0  0  0  0  0  0
  160.0837  141.8099  183.9092 C   0  0  0  0  0  0  0  0  0  0  0  0
  159.5704  142.1315  185.1500 C   0  0  0  0  0  0  0  0  0  0  0  0
  160.3954  142.4736  186.2128 C   0  0  0  0  0  0  0  0  0  0  0  0
 29 30  1  0  0  0
 30 31  2  0  0  0
 31 32  1  0  0  0
 32 33  2  0  0  0
 33 28  1  0  0  0
 28 27  1  0  0  0
 27  1  1  0  0  0
  1  2  2  0  0  0
  2  3  1  0  0  0
  3  4  1  0  0  0
  4  5  2  0  0  0
  3  6  1  0  0  0
  6  7  2  0  0  0
  6  8  1  0  0  0
  8 10  1  0  0  0
 10 11  2  0  0  0
 11 12  1  0  0  0
 12 13  2  0  0  0
 13 14  1  0  0  0
 12 15  1  0  0  0
 15 16  2  0  0  0
 15 17  1  0  0  0
 17 19  1  0  0  0
 19 20  1  0  0  0
 20 21  1  0  0  0
 21 22  1  0  0  0
 22 23  1  0  0  0
 23 24  1  0  0  0
 24 25  1  0  0  0
 25 26  1  0  0  0
 33 34  1  0  0  0
 34 35  2  0  0  0
 35 30  1  0  0  0
  5  1  1  0  0  0
 14 10  1  0  0  0
 26 21  1  0  0  0
  8  9  1  0  0  0
 17 18  1  0  0  0
M  END
> <minimizedAffinity>
-8.06941

> <CNNscore>
0.3266429305

> <CNNaffinity>
6.3246912956

> <CNN_VS>
2.0659155846

> <CNNaffinity_variance>
0.0794242173

$$$$
[H]c1sc(N([H])C(=O)n2nnc(OC([H])([H])c3c([H])c([H])c(Cl)c([H])c3[H])c2[H])c([H])c1C(=O)N([H])C([H])([H])C([H])([H])N1C([H])([H])C([H])([H])OC([H])([H])C1([H])[H]


 35 38  0  0  0  0  0  0  0  0999 V2000
  157.3301  140.2614  184.0472 C   0  0  0  0  0  0  0  0  0  0  0  0
  156.0367  139.9653  183.6513 C   0  0  0  0  0  0  0  0  0  0  0  0
  155.4784  139.1650  184.5668 N   0  0  0  0  0  0  0  0  0  0  0  0
  156.3913  138.9686  185.5000 N   0  0  0  0  0  0  0  0  0  0  0  0
  157.4907  139.6103  185.2070 N   0  0  0  0  0  0  0  0  0  0  0  0
  154.1677  138.6551  184.5306 C   0  0  0  0  0  0  0  0  0  0  0  0
  153.4086  138.9679  183.5608 O   0  0  0  0  0  0  0  0  0  0  0  0
  153.7192  137.8047  185.5740 N   0  0  0  0  0  0  0  0  0  0  0  0
  154.3159  137.5360  186.3618 H   0  0  0  0  0  0  0  0  0  0  0  0
  152.3611  137.3238  185.4790 C   0  0  0  0  0  0  0  0  0  0  0  0
  151.4258  137.2388  186.4766 C   0  0  0  0  0  0  0  0  0  0  0  0
  150.2117  136.7681  186.1389 C   0  0  0  0  0  0  0  0  0  0  0  0
  150.0226  136.4163  184.8268 C   0  0  0  0  0  0  0  0  0  0  0  0
  151.5249  136.7486  184.1124 S   0  0  0  0  0  0  0  0  0  0  0  0
  149.1171  136.6067  187.1401 C   0  0  0  0  0  0  0  0  0  0  0  0
  148.0300  137.2249  187.0477 O   0  0  0  0  0  0  0  0  0  0  0  0
  149.2948  135.7292  188.2384 N   0  0  0  0  0  0  0  0  0  0  0  0
  150.1817  135.1954  188.3318 H   0  0  0  0  0  0  0  0  0  0  0  0
  148.2908  135.5290  189.2549 C   0  0  0  0  0  0  0  0  0  0  0  0
  148.8785  135.0587  190.5565 C   0  0  0  0  0  0  0  0  0  0  0  0
  148.3880  133.7659  190.9525 N   0  0  0  0  0  0  0  0  0  0  0  0
  147.5134  133.2213  189.9416 C   0  0  0  0  0  0  0  0  0  0  0  0
  147.9259  131.8679  189.4323 C   0  0  0  0  0  0  0  0  0  0  0  0
  149.2646  131.7702  189.1430 O   0  0  0  0  0  0  0  0  0  0  0  0
  150.1177  132.3891  190.0222 C   0  0  0  0  0  0  0  0  0  0  0  0
  149.4018  132.8011  191.2628 C   0  0  0  0  0  0  0  0  0  0  0  0
  158.1906  141.0574  183.3400 O   0  0  0  0  0  0  0  0  0  0  0  0
  158.5586  142.3746  183.6765 C   0  0  0  0  0  0  0  0  0  0  0  0
  163.2556  142.6172  187.4657 Cl  0  0  0  0  0  0  0  0  0  0  0  0
  161.8972  142.5490  186.3711 C   0  0  0  0  0  0  0  0  0  0  0  0
  160.5821  142.6539  186.8297 C   0  0  0  0  0  0  0  0  0  0  0  0
  159.5257  142.5980  185.9517 C   0  0  0  0  0  0  0  0  0  0  0  0
  159.7111  142.4376  184.5944 C   0  0  0  0  0  0  0  0  0  0  0  0
  161.0119  142.3341  184.1430 C   0  0  0  0  0  0  0  0  0  0  0  0
  162.0913  142.3883  185.0143 C   0  0  0  0  0  0  0  0  0  0  0  0
 29 30  1  0  0  0
 30 31  2  0  0  0
 31 32  1  0  0  0
 32 33  2  0  0  0
 33 28  1  0  0  0
 28 27  1  0  0  0
 27  1  1  0  0  0
  1  2  2  0  0  0
  2  3  1  0  0  0
  3  4  1  0  0  0
  4  5  2  0  0  0
  3  6  1  0  0  0
  6  7  2  0  0  0
  6  8  1  0  0  0
  8 10  1  0  0  0
 10 11  2  0  0  0
 11 12  1  0  0  0
 12 13  2  0  0  0
 13 14  1  0  0  0
 12 15  1  0  0  0
 15 16  2  0  0  0
 15 17  1  0  0  0
 17 19  1  0  0  0
 19 20  1  0  0  0
 20 21  1  0  0  0
 21 22  1  0  0  0
 22 23  1  0  0  0
 23 24  1  0  0  0
 24 25  1  0  0  0
 25 26  1  0  0  0
 33 34  1  0  0  0
 34 35  2  0  0  0
 35 30  1  0  0  0
  5  1  1  0  0  0
 14 10  1  0  0  0
 26 21  1  0  0  0
  8  9  1  0  0  0
 17 18  1  0  0  0
M  END
> <minimizedAffinity>
-6.58134

> <CNNscore>
0.3186647892

> <CNNaffinity>
5.5591688156

> <CNN_VS>
1.7715113163

> <CNNaffinity_variance>
0.3333237767

$$$$
[H]c1sc(N([H])C(=O)n2nnc(OC([H])([H])c3c([H])c([H])c(Cl)c([H])c3[H])c2[H])c([H])c1C(=O)N([H])C([H])([H])C([H])([H])N1C([H])([H])C([H])([H])OC([H])([H])C1([H])[H]


 35 38  0  0  0  0  0  0  0  0999 V2000
  156.0308  141.1314  182.2826 C   0  0  0  0  0  0  0  0  0  0  0  0
  156.3727  140.5007  183.4670 C   0  0  0  0  0  0  0  0  0  0  0  0
  155.3016  139.8473  183.9320 N   0  0  0  0  0  0  0  0  0  0  0  0
  154.3264  140.0634  183.0687 N   0  0  0  0  0  0  0  0  0  0  0  0
  154.7422  140.8201  182.0886 N   0  0  0  0  0  0  0  0  0  0  0  0
  155.2497  139.0744  185.1065 C   0  0  0  0  0  0  0  0  0  0  0  0
  156.2982  138.9525  185.8137 O   0  0  0  0  0  0  0  0  0  0  0  0
  154.0323  138.4474  185.4777 N   0  0  0  0  0  0  0  0  0  0  0  0
  153.1747  138.5370  184.9251 H   0  0  0  0  0  0  0  0  0  0  0  0
  154.0511  137.6627  186.6894 C   0  0  0  0  0  0  0  0  0  0  0  0
  154.4702  136.3679  186.8481 C   0  0  0  0  0  0  0  0  0  0  0  0
  154.4068  135.8517  188.0887 C   0  0  0  0  0  0  0  0  0  0  0  0
  153.9280  136.6694  189.0802 C   0  0  0  0  0  0  0  0  0  0  0  0
  153.5850  138.1157  188.2628 S   0  0  0  0  0  0  0  0  0  0  0  0
  154.8121  134.4464  188.3847 C   0  0  0  0  0  0  0  0  0  0  0  0
  154.0875  133.4658  188.0917 O   0  0  0  0  0  0  0  0  0  0  0  0
  156.0544  134.1931  189.0174 N   0  0  0  0  0  0  0  0  0  0  0  0
  156.6795  134.9874  189.2597 H   0  0  0  0  0  0  0  0  0  0  0  0
  156.5113  132.8654  189.3489 C   0  0  0  0  0  0  0  0  0  0  0  0
  157.5547  132.3621  188.3905 C   0  0  0  0  0  0  0  0  0  0  0  0
  158.8940  132.6680  188.8165 N   0  0  0  0  0  0  0  0  0  0  0  0
  159.1336  132.1614  190.1467 C   0  0  0  0  0  0  0  0  0  0  0  0
  160.3157  131.2379  190.2520 C   0  0  0  0  0  0  0  0  0  0  0  0
  160.3661  130.2887  189.2612 O   0  0  0  0  0  0  0  0  0  0  0  0
  160.0199  130.7127  188.0026 C   0  0  0  0  0  0  0  0  0  0  0  0
  159.9304  132.1992  187.9440 C   0  0  0  0  0  0  0  0  0  0  0  0
  156.8908  141.8921  181.5371 O   0  0  0  0  0  0  0  0  0  0  0  0
  158.2510  141.6095  181.3060 C   0  0  0  0  0  0  0  0  0  0  0  0
  161.7979  143.2589  185.9079 Cl  0  0  0  0  0  0  0  0  0  0  0  0
  160.7736  142.7836  184.5764 C   0  0  0  0  0  0  0  0  0  0  0  0
  159.9512  143.7032  183.9216 C   0  0  0  0  0  0  0  0  0  0  0  0
  159.1517  143.3093  182.8749 C   0  0  0  0  0  0  0  0  0  0  0  0
  159.1234  142.0050  182.4272 C   0  0  0  0  0  0  0  0  0  0  0  0
  159.9372  141.0975  183.0759 C   0  0  0  0  0  0  0  0  0  0  0  0
  160.7512  141.4764  184.1346 C   0  0  0  0  0  0  0  0  0  0  0  0
 29 30  1  0  0  0
 30 31  2  0  0  0
 31 32  1  0  0  0
 32 33  2  0  0  0
 33 28  1  0  0  0
 28 27  1  0  0  0
 27  1  1  0  0  0
  1  2  2  0  0  0
  2  3  1  0  0  0
  3  4  1  0  0  0
  4  5  2  0  0  0
  3  6  1  0  0  0
  6  7  2  0  0  0
  6  8  1  0  0  0
  8 10  1  0  0  0
 10 11  2  0  0  0
 11 12  1  0  0  0
 12 13  2  0  0  0
 13 14  1  0  0  0
 12 15  1  0  0  0
 15 16  2  0  0  0
 15 17  1  0  0  0
 17 19  1  0  0  0
 19 20  1  0  0  0
 20 21  1  0  0  0
 21 22  1  0  0  0
 22 23  1  0  0  0
 23 24  1  0  0  0
 24 25  1  0  0  0
 25 26  1  0  0  0
 33 34  1  0  0  0
 34 35  2  0  0  0
 35 30  1  0  0  0
  5  1  1  0  0  0
 14 10  1  0  0  0
 26 21  1  0  0  0
  8  9  1  0  0  0
 17 18  1  0  0  0
M  END
> <minimizedAffinity>
-6.72866

> <CNNscore>
0.3170121312

> <CNNaffinity>
6.0654869080

> <CNN_VS>
1.9228329659

> <CNNaffinity_variance>
0.1273387372

$$$$
[H]c1sc(N([H])C(=O)n2nnc(OC([H])([H])c3c([H])c([H])c(Cl)c([H])c3[H])c2[H])c([H])c1C(=O)N([H])C([H])([H])C([H])([H])N1C([H])([H])C([H])([H])OC([H])([H])C1([H])[H]


 35 38  0  0  0  0  0  0  0  0999 V2000
  156.8038  141.8063  183.2808 C   0  0  0  0  0  0  0  0  0  0  0  0
  155.9176  140.8320  183.7086 C   0  0  0  0  0  0  0  0  0  0  0  0
  155.0473  140.5790  182.7243 N   0  0  0  0  0  0  0  0  0  0  0  0
  155.3786  141.3677  181.7188 N   0  0  0  0  0  0  0  0  0  0  0  0
  156.4148  142.0986  182.0325 N   0  0  0  0  0  0  0  0  0  0  0  0
  153.9997  139.6409  182.7674 C   0  0  0  0  0  0  0  0  0  0  0  0
  153.8375  138.9424  183.8163 O   0  0  0  0  0  0  0  0  0  0  0  0
  153.1473  139.4925  181.6429 N   0  0  0  0  0  0  0  0  0  0  0  0
  153.2572  140.0487  180.7901 H   0  0  0  0  0  0  0  0  0  0  0  0
  152.0982  138.5065  181.7511 C   0  0  0  0  0  0  0  0  0  0  0  0
  152.2178  137.1420  181.7180 C   0  0  0  0  0  0  0  0  0  0  0  0
  151.0880  136.4249  181.8559 C   0  0  0  0  0  0  0  0  0  0  0  0
  149.9205  137.1264  182.0166 C   0  0  0  0  0  0  0  0  0  0  0  0
  150.4270  138.7447  181.9713 S   0  0  0  0  0  0  0  0  0  0  0  0
  151.0852  134.9334  181.8134 C   0  0  0  0  0  0  0  0  0  0  0  0
  150.1849  134.2507  182.3573 O   0  0  0  0  0  0  0  0  0  0  0  0
  152.1272  134.2488  181.1398 N   0  0  0  0  0  0  0  0  0  0  0  0
  152.8792  134.7912  180.6701 H   0  0  0  0  0  0  0  0  0  0  0  0
  152.2029  132.8101  181.0658 C   0  0  0  0  0  0  0  0  0  0  0  0
  153.6022  132.3219  180.8125 C   0  0  0  0  0  0  0  0  0  0  0  0
  154.6001  133.1446  181.4422 N   0  0  0  0  0  0  0  0  0  0  0  0
  155.1665  132.4721  182.5869 C   0  0  0  0  0  0  0  0  0  0  0  0
  156.6627  132.3285  182.5406 C   0  0  0  0  0  0  0  0  0  0  0  0
  157.1395  131.8939  181.3285 O   0  0  0  0  0  0  0  0  0  0  0  0
  156.5320  132.4232  180.2174 C   0  0  0  0  0  0  0  0  0  0  0  0
  155.6616  133.5770  180.5812 C   0  0  0  0  0  0  0  0  0  0  0  0
  157.8275  142.3056  184.0402 O   0  0  0  0  0  0  0  0  0  0  0  0
  159.1228  142.6097  183.5783 C   0  0  0  0  0  0  0  0  0  0  0  0
  163.3095  142.5481  187.9310 Cl  0  0  0  0  0  0  0  0  0  0  0  0
  162.1000  142.5640  186.6722 C   0  0  0  0  0  0  0  0  0  0  0  0
  162.4435  142.4233  185.3257 C   0  0  0  0  0  0  0  0  0  0  0  0
  161.4762  142.4383  184.3490 C   0  0  0  0  0  0  0  0  0  0  0  0
  160.1383  142.5910  184.6475 C   0  0  0  0  0  0  0  0  0  0  0  0
  159.8007  142.7298  185.9792 C   0  0  0  0  0  0  0  0  0  0  0  0
  160.7633  142.7172  186.9794 C   0  0  0  0  0  0  0  0  0  0  0  0
 29 30  1  0  0  0
 30 31  2  0  0  0
 31 32  1  0  0  0
 32 33  2  0  0  0
 33 28  1  0  0  0
 28 27  1  0  0  0
 27  1  1  0  0  0
  1  2  2  0  0  0
  2  3  1  0  0  0
  3  4  1  0  0  0
  4  5  2  0  0  0
  3  6  1  0  0  0
  6  7  2  0  0  0
  6  8  1  0  0  0
  8 10  1  0  0  0
 10 11  2  0  0  0
 11 12  1  0  0  0
 12 13  2  0  0  0
 13 14  1  0  0  0
 12 15  1  0  0  0
 15 16  2  0  0  0
 15 17  1  0  0  0
 17 19  1  0  0  0
 19 20  1  0  0  0
 20 21  1  0  0  0
 21 22  1  0  0  0
 22 23  1  0  0  0
 23 24  1  0  0  0
 24 25  1  0  0  0
 25 26  1  0  0  0
 33 34  1  0  0  0
 34 35  2  0  0  0
 35 30  1  0  0  0
  5  1  1  0  0  0
 14 10  1  0  0  0
 26 21  1  0  0  0
  8  9  1  0  0  0
 17 18  1  0  0  0
M  END
> <minimizedAffinity>
-7.46235

> <CNNscore>
0.3157839477

> <CNNaffinity>
5.9796218872

> <CNN_VS>
1.8882685900

> <CNNaffinity_variance>
0.3566322029

$$$$
[H]c1sc(N([H])C(=O)n2nnc(OC([H])([H])c3c([H])c([H])c(Cl)c([H])c3[H])c2[H])c([H])c1C(=O)N([H])C([H])([H])C([H])([H])N1C([H])([H])C([H])([H])OC([H])([H])C1([H])[H]


 35 38  0  0  0  0  0  0  0  0999 V2000
  155.1649  140.4756  183.0751 C   0  0  0  0  0  0  0  0  0  0  0  0
  154.0690  139.6417  183.2211 C   0  0  0  0  0  0  0  0  0  0  0  0
  153.2147  139.8733  182.2178 N   0  0  0  0  0  0  0  0  0  0  0  0
  153.7581  140.8182  181.4729 N   0  0  0  0  0  0  0  0  0  0  0  0
  154.9108  141.1840  181.9667 N   0  0  0  0  0  0  0  0  0  0  0  0
  151.9884  139.2167  182.0074 C   0  0  0  0  0  0  0  0  0  0  0  0
  151.6271  138.3064  182.8171 O   0  0  0  0  0  0  0  0  0  0  0  0
  151.1811  139.5812  180.8991 N   0  0  0  0  0  0  0  0  0  0  0  0
  151.4507  140.3152  180.2378 H   0  0  0  0  0  0  0  0  0  0  0  0
  149.9397  138.8619  180.7376 C   0  0  0  0  0  0  0  0  0  0  0  0
  149.7428  137.6449  180.1398 C   0  0  0  0  0  0  0  0  0  0  0  0
  148.4856  137.1665  180.1247 C   0  0  0  0  0  0  0  0  0  0  0  0
  147.5169  137.9417  180.7091 C   0  0  0  0  0  0  0  0  0  0  0  0
  148.3776  139.2976  181.2554 S   0  0  0  0  0  0  0  0  0  0  0  0
  148.1402  135.8643  179.4832 C   0  0  0  0  0  0  0  0  0  0  0  0
  147.1302  135.7257  178.7530 O   0  0  0  0  0  0  0  0  0  0  0  0
  148.9706  134.7358  179.6952 N   0  0  0  0  0  0  0  0  0  0  0  0
  149.8207  134.8267  180.2863 H   0  0  0  0  0  0  0  0  0  0  0  0
  148.6975  133.4403  179.1220 C   0  0  0  0  0  0  0  0  0  0  0  0
  149.9097  132.8345  178.4706 C   0  0  0  0  0  0  0  0  0  0  0  0
  150.4173  131.6975  179.1906 N   0  0  0  0  0  0  0  0  0  0  0  0
  151.3459  130.9515  178.3753 C   0  0  0  0  0  0  0  0  0  0  0  0
  152.7029  130.7672  178.9965 C   0  0  0  0  0  0  0  0  0  0  0  0
  153.2194  131.9140  179.5475 O   0  0  0  0  0  0  0  0  0  0  0  0
  152.3300  132.7107  180.2242 C   0  0  0  0  0  0  0  0  0  0  0  0
  151.0378  132.0020  180.4465 C   0  0  0  0  0  0  0  0  0  0  0  0
  156.2333  140.5031  183.9306 O   0  0  0  0  0  0  0  0  0  0  0  0
  157.5090  139.9651  183.6723 C   0  0  0  0  0  0  0  0  0  0  0  0
  161.9681  143.1339  186.2323 Cl  0  0  0  0  0  0  0  0  0  0  0  0
  160.6778  142.2195  185.4926 C   0  0  0  0  0  0  0  0  0  0  0  0
  159.4740  141.9816  186.1598 C   0  0  0  0  0  0  0  0  0  0  0  0
  158.4697  141.2593  185.5601 C   0  0  0  0  0  0  0  0  0  0  0  0
  158.6008  140.7417  184.2884 C   0  0  0  0  0  0  0  0  0  0  0  0
  159.7915  140.9781  183.6305 C   0  0  0  0  0  0  0  0  0  0  0  0
  160.8169  141.7051  184.2197 C   0  0  0  0  0  0  0  0  0  0  0  0
 29 30  1  0  0  0
 30 31  2  0  0  0
 31 32  1  0  0  0
 32 33  2  0  0  0
 33 28  1  0  0  0
 28 27  1  0  0  0
 27  1  1  0  0  0
  1  2  2  0  0  0
  2  3  1  0  0  0
  3  4  1  0  0  0
  4  5  2  0  0  0
  3  6  1  0  0  0
  6  7  2  0  0  0
  6  8  1  0  0  0
  8 10  1  0  0  0
 10 11  2  0  0  0
 11 12  1  0  0  0
 12 13  2  0  0  0
 13 14  1  0  0  0
 12 15  1  0  0  0
 15 16  2  0  0  0
 15 17  1  0  0  0
 17 19  1  0  0  0
 19 20  1  0  0  0
 20 21  1  0  0  0
 21 22  1  0  0  0
 22 23  1  0  0  0
 23 24  1  0  0  0
 24 25  1  0  0  0
 25 26  1  0  0  0
 33 34  1  0  0  0
 34 35  2  0  0  0
 35 30  1  0  0  0
  5  1  1  0  0  0
 14 10  1  0  0  0
 26 21  1  0  0  0
  8  9  1  0  0  0
 17 18  1  0  0  0
M  END
> <minimizedAffinity>
-6.90198

> <CNNscore>
0.3114611208

> <CNNaffinity>
5.5721445084

> <CNN_VS>
1.7355064154

> <CNNaffinity_variance>
0.1677309722

$$$$
[H]c1sc(N([H])C(=O)n2nnc(OC([H])([H])c3c([H])c([H])c(Cl)c([H])c3[H])c2[H])c([H])c1C(=O)N([H])C([H])([H])C([H])([H])N1C([H])([H])C([H])([H])OC([H])([H])C1([H])[H]


 35 38  0  0  0  0  0  0  0  0999 V2000
  155.3358  140.5579  183.4103 C   0  0  0  0  0  0  0  0  0  0  0  0
  155.1050  139.6622  184.4408 C   0  0  0  0  0  0  0  0  0  0  0  0
  154.0723  138.8793  184.1080 N   0  0  0  0  0  0  0  0  0  0  0  0
  153.6729  139.2731  182.9128 N   0  0  0  0  0  0  0  0  0  0  0  0
  154.4101  140.2640  182.4874 N   0  0  0  0  0  0  0  0  0  0  0  0
  153.5404  137.8359  184.8876 C   0  0  0  0  0  0  0  0  0  0  0  0
  154.0674  137.5745  186.0139 O   0  0  0  0  0  0  0  0  0  0  0  0
  152.4299  137.0973  184.4033 N   0  0  0  0  0  0  0  0  0  0  0  0
  151.9870  137.2947  183.5013 H   0  0  0  0  0  0  0  0  0  0  0  0
  151.9397  136.0353  185.2497 C   0  0  0  0  0  0  0  0  0  0  0  0
  151.0704  136.1318  186.3044 C   0  0  0  0  0  0  0  0  0  0  0  0
  150.7462  134.9896  186.9369 C   0  0  0  0  0  0  0  0  0  0  0  0
  151.3164  133.8339  186.4676 C   0  0  0  0  0  0  0  0  0  0  0  0
  152.2754  134.3681  185.1743 S   0  0  0  0  0  0  0  0  0  0  0  0
  149.8284  134.9675  188.1132 C   0  0  0  0  0  0  0  0  0  0  0  0
  148.7271  134.3683  188.0909 O   0  0  0  0  0  0  0  0  0  0  0  0
  150.1979  135.6409  189.3040 N   0  0  0  0  0  0  0  0  0  0  0  0
  151.1110  136.1350  189.3531 H   0  0  0  0  0  0  0  0  0  0  0  0
  149.3607  135.6776  190.4783 C   0  0  0  0  0  0  0  0  0  0  0  0
  150.0265  135.0602  191.6767 C   0  0  0  0  0  0  0  0  0  0  0  0
  150.0437  135.9377  192.8162 N   0  0  0  0  0  0  0  0  0  0  0  0
  149.9329  135.1834  194.0419 C   0  0  0  0  0  0  0  0  0  0  0  0
  151.0497  135.4258  195.0191 C   0  0  0  0  0  0  0  0  0  0  0  0
  152.2982  135.4081  194.4479 O   0  0  0  0  0  0  0  0  0  0  0  0
  152.4071  136.0098  193.2192 C   0  0  0  0  0  0  0  0  0  0  0  0
  151.1850  136.8011  192.9001 C   0  0  0  0  0  0  0  0  0  0  0  0
  156.3212  141.5081  183.4198 O   0  0  0  0  0  0  0  0  0  0  0  0
  157.6538  141.3165  183.0061 C   0  0  0  0  0  0  0  0  0  0  0  0
  161.6901  143.4017  186.9859 Cl  0  0  0  0  0  0  0  0  0  0  0  0
  160.5218  142.7997  185.8367 C   0  0  0  0  0  0  0  0  0  0  0  0
  159.4974  141.9316  186.2213 C   0  0  0  0  0  0  0  0  0  0  0  0
  158.5869  141.4687  185.3013 C   0  0  0  0  0  0  0  0  0  0  0  0
  158.6404  141.8339  183.9724 C   0  0  0  0  0  0  0  0  0  0  0  0
  159.6537  142.6921  183.5941 C   0  0  0  0  0  0  0  0  0  0  0  0
  160.5823  143.1701  184.5087 C   0  0  0  0  0  0  0  0  0  0  0  0
 29 30  1  0  0  0
 30 31  2  0  0  0
 31 32  1  0  0  0
 32 33  2  0  0  0
 33 28  1  0  0  0
 28 27  1  0  0  0
 27  1  1  0  0  0
  1  2  2  0  0  0
  2  3  1  0  0  0
  3  4  1  0  0  0
  4  5  2  0  0  0
  3  6  1  0  0  0
  6  7  2  0  0  0
  6  8  1  0  0  0
  8 10  1  0  0  0
 10 11  2  0  0  0
 11 12  1  0  0  0
 12 13  2  0  0  0
 13 14  1  0  0  0
 12 15  1  0  0  0
 15 16  2  0  0  0
 15 17  1  0  0  0
 17 19  1  0  0  0
 19 20  1  0  0  0
 20 21  1  0  0  0
 21 22  1  0  0  0
 22 23  1  0  0  0
 23 24  1  0  0  0
 24 25  1  0  0  0
 25 26  1  0  0  0
 33 34  1  0  0  0
 34 35  2  0  0  0
 35 30  1  0  0  0
  5  1  1  0  0  0
 14 10  1  0  0  0
 26 21  1  0  0  0
  8  9  1  0  0  0
 17 18  1  0  0  0
M  END
> <minimizedAffinity>
-7.03815

> <CNNscore>
0.3052474558

> <CNNaffinity>
5.7755403519

> <CNN_VS>
1.7629690170

> <CNNaffinity_variance>
0.3036126792

$$$$
[H]c1nc(C([H])([H])C([H])([H])C([H])([H])N([H])C(=O)c2nc3c(C(C([H])([H])[H])(C([H])([H])[H])C([H])([H])[H])c([H])c([H])c([H])c3n2[H])c([H])c(N2C([H])([H])C([H])([H])OC([H])([H])C2([H])[H])c1[H]


 33 36  0  0  0  0  0  0  0  0999 V2000
  154.3546  140.9800  182.7967 C   0  0  0  0  0  0  0  0  0  0  0  0
  153.9485  140.4742  183.8684 O   0  0  0  0  0  0  0  0  0  0  0  0
  153.6239  140.7529  181.6139 N   0  0  0  0  0  0  0  0  0  0  0  0
  153.9961  141.2004  180.7204 H   0  0  0  0  0  0  0  0  0  0  0  0
  158.9705  142.6483  183.5526 C   0  0  0  0  0  0  0  0  0  0  0  0
  159.6600  143.7938  183.2152 C   0  0  0  0  0  0  0  0  0  0  0  0
  158.9807  144.7747  182.4861 C   0  0  0  0  0  0  0  0  0  0  0  0
  157.6647  144.6242  182.1055 C   0  0  0  0  0  0  0  0  0  0  0  0
  156.9837  143.4656  182.4524 C   0  0  0  0  0  0  0  0  0  0  0  0
  155.7450  143.0029  182.2562 N   0  0  0  0  0  0  0  0  0  0  0  0
  155.5741  141.7906  182.8075 C   0  0  0  0  0  0  0  0  0  0  0  0
  156.7634  141.4808  183.3756 N   0  0  0  0  0  0  0  0  0  0  0  0
  157.6398  142.4813  183.1753 C   0  0  0  0  0  0  0  0  0  0  0  0
  154.9982  143.5300  181.7309 H   0  0  0  0  0  0  0  0  0  0  0  0
  159.0885  141.6264  185.7465 C   0  0  0  0  0  0  0  0  0  0  0  0
  159.5844  141.5498  184.3185 C   0  0  0  0  0  0  0  0  0  0  0  0
  161.1087  141.7172  184.3857 C   0  0  0  0  0  0  0  0  0  0  0  0
  159.2698  140.1945  183.7628 C   0  0  0  0  0  0  0  0  0  0  0  0
  152.4252  139.9519  181.6053 C   0  0  0  0  0  0  0  0  0  0  0  0
  152.2249  139.1569  180.3559 C   0  0  0  0  0  0  0  0  0  0  0  0
  151.1647  139.8329  179.4780 C   0  0  0  0  0  0  0  0  0  0  0  0
  149.8524  139.1736  179.7037 C   0  0  0  0  0  0  0  0  0  0  0  0
  149.3205  139.0136  180.9663 C   0  0  0  0  0  0  0  0  0  0  0  0
  148.1055  138.4033  181.2147 C   0  0  0  0  0  0  0  0  0  0  0  0
  147.3777  137.9260  180.1558 C   0  0  0  0  0  0  0  0  0  0  0  0
  147.9255  138.0944  178.8937 C   0  0  0  0  0  0  0  0  0  0  0  0
  149.1098  138.6922  178.6854 N   0  0  0  0  0  0  0  0  0  0  0  0
  147.6107  138.2671  182.5327 N   0  0  0  0  0  0  0  0  0  0  0  0
  146.9874  137.0788  183.0097 C   0  0  0  0  0  0  0  0  0  0  0  0
  147.4440  136.8585  184.4571 C   0  0  0  0  0  0  0  0  0  0  0  0
  147.1488  137.9095  185.2859 O   0  0  0  0  0  0  0  0  0  0  0  0
  146.8118  139.0719  184.6366 C   0  0  0  0  0  0  0  0  0  0  0  0
  147.7234  139.3866  183.4815 C   0  0  0  0  0  0  0  0  0  0  0  0
 15 16  1  0  0  0
 16 17  1  0  0  0
 16 18  1  0  0  0
 16  5  1  0  0  0
  5  6  2  0  0  0
  6  7  1  0  0  0
  7  8  2  0  0  0
  8  9  1  0  0  0
  9 10  1  0  0  0
 10 11  1  0  0  0
 11 12  2  0  0  0
 12 13  1  0  0  0
 11  1  1  0  0  0
  1  2  2  0  0  0
  1  3  1  0  0  0
  3 19  1  0  0  0
 19 20  1  0  0  0
 20 21  1  0  0  0
 21 22  1  0  0  0
 22 23  2  0  0  0
 23 24  1  0  0  0
 24 25  2  0  0  0
 25 26  1  0  0  0
 26 27  2  0  0  0
 24 28  1  0  0  0
 28 29  1  0  0  0
 29 30  1  0  0  0
 30 31  1  0  0  0
 31 32  1  0  0  0
 32 33  1  0  0  0
 13  5  1  0  0  0
 27 22  1  0  0  0
 33 28  1  0  0  0
 13  9  2  0  0  0
 10 14  1  0  0  0
  3  4  1  0  0  0
M  END
> <minimizedAffinity>
-8.70060

> <CNNscore>
0.5010247231

> <CNNaffinity>
6.3771147728

> <CNN_VS>
3.1950922012

> <CNNaffinity_variance>
0.1832241714

$$$$
[H]c1nc(C([H])([H])C([H])([H])C([H])([H])N([H])C(=O)c2nc3c(C(C([H])([H])[H])(C([H])([H])[H])C([H])([H])[H])c([H])c([H])c([H])c3n2[H])c([H])c(N2C([H])([H])C([H])([H])OC([H])([H])C2([H])[H])c1[H]


 33 36  0  0  0  0  0  0  0  0999 V2000
  151.5081  136.6981  184.3765 C   0  0  0  0  0  0  0  0  0  0  0  0
  152.6640  136.4080  184.7624 O   0  0  0  0  0  0  0  0  0  0  0  0
  150.4059  136.2893  185.1528 N   0  0  0  0  0  0  0  0  0  0  0  0
  149.4366  136.5552  184.7966 H   0  0  0  0  0  0  0  0  0  0  0  0
  149.8062  138.4625  180.0577 C   0  0  0  0  0  0  0  0  0  0  0  0
  150.2329  139.4177  179.1595 C   0  0  0  0  0  0  0  0  0  0  0  0
  151.4151  140.1058  179.4494 C   0  0  0  0  0  0  0  0  0  0  0  0
  152.1473  139.8552  180.5898 C   0  0  0  0  0  0  0  0  0  0  0  0
  151.7052  138.8908  181.4848 C   0  0  0  0  0  0  0  0  0  0  0  0
  152.1505  138.4064  182.6485 N   0  0  0  0  0  0  0  0  0  0  0  0
  151.3394  137.4523  183.1327 C   0  0  0  0  0  0  0  0  0  0  0  0
  150.3390  137.3346  182.2280 N   0  0  0  0  0  0  0  0  0  0  0  0
  150.5353  138.1975  181.2150 C   0  0  0  0  0  0  0  0  0  0  0  0
  153.0314  138.7382  183.1234 H   0  0  0  0  0  0  0  0  0  0  0  0
  148.0083  138.0190  178.4950 C   0  0  0  0  0  0  0  0  0  0  0  0
  148.5767  137.6766  179.8553 C   0  0  0  0  0  0  0  0  0  0  0  0
  147.5030  138.0707  180.8789 C   0  0  0  0  0  0  0  0  0  0  0  0
  148.8016  136.1974  179.9340 C   0  0  0  0  0  0  0  0  0  0  0  0
  150.5744  135.5441  186.3755 C   0  0  0  0  0  0  0  0  0  0  0  0
  150.0255  136.2208  187.5895 C   0  0  0  0  0  0  0  0  0  0  0  0
  149.8557  135.1974  188.7189 C   0  0  0  0  0  0  0  0  0  0  0  0
  150.5304  135.7046  189.9418 C   0  0  0  0  0  0  0  0  0  0  0  0
  151.8758  136.0081  189.9638 C   0  0  0  0  0  0  0  0  0  0  0  0
  152.5373  136.4786  191.0824 C   0  0  0  0  0  0  0  0  0  0  0  0
  151.8286  136.6584  192.2417 C   0  0  0  0  0  0  0  0  0  0  0  0
  150.4780  136.3489  192.2036 C   0  0  0  0  0  0  0  0  0  0  0  0
  149.8641  135.8932  191.0996 N   0  0  0  0  0  0  0  0  0  0  0  0
  153.9203  136.7726  191.0452 N   0  0  0  0  0  0  0  0  0  0  0  0
  154.4716  137.8162  190.2483 C   0  0  0  0  0  0  0  0  0  0  0  0
  155.5891  138.4844  191.0585 C   0  0  0  0  0  0  0  0  0  0  0  0
  156.5764  137.6146  191.4427 O   0  0  0  0  0  0  0  0  0  0  0  0
  156.2430  136.2869  191.3316 C   0  0  0  0  0  0  0  0  0  0  0  0
  154.8640  135.9808  191.8506 C   0  0  0  0  0  0  0  0  0  0  0  0
 15 16  1  0  0  0
 16 17  1  0  0  0
 16 18  1  0  0  0
 16  5  1  0  0  0
  5  6  2  0  0  0
  6  7  1  0  0  0
  7  8  2  0  0  0
  8  9  1  0  0  0
  9 10  1  0  0  0
 10 11  1  0  0  0
 11 12  2  0  0  0
 12 13  1  0  0  0
 11  1  1  0  0  0
  1  2  2  0  0  0
  1  3  1  0  0  0
  3 19  1  0  0  0
 19 20  1  0  0  0
 20 21  1  0  0  0
 21 22  1  0  0  0
 22 23  2  0  0  0
 23 24  1  0  0  0
 24 25  2  0  0  0
 25 26  1  0  0  0
 26 27  2  0  0  0
 24 28  1  0  0  0
 28 29  1  0  0  0
 29 30  1  0  0  0
 30 31  1  0  0  0
 31 32  1  0  0  0
 32 33  1  0  0  0
 13  5  1  0  0  0
 27 22  1  0  0  0
 33 28  1  0  0  0
 13  9  2  0  0  0
 10 14  1  0  0  0
  3  4  1  0  0  0
M  END
> <minimizedAffinity>
-6.84159

> <CNNscore>
0.4581795931

> <CNNaffinity>
5.6385626793

> <CNN_VS>
2.5834743977

> <CNNaffinity_variance>
0.1758347303

$$$$
[H]c1nc(C([H])([H])C([H])([H])C([H])([H])N([H])C(=O)c2nc3c(C(C([H])([H])[H])(C([H])([H])[H])C([H])([H])[H])c([H])c([H])c([H])c3n2[H])c([H])c(N2C([H])([H])C([H])([H])OC([H])([H])C2([H])[H])c1[H]


 33 36  0  0  0  0  0  0  0  0999 V2000
  154.2480  139.5454  183.9336 C   0  0  0  0  0  0  0  0  0  0  0  0
  153.2529  139.3977  183.1872 O   0  0  0  0  0  0  0  0  0  0  0  0
  154.3660  138.7389  185.0826 N   0  0  0  0  0  0  0  0  0  0  0  0
  155.2266  138.8890  185.6941 H   0  0  0  0  0  0  0  0  0  0  0  0
  158.4609  142.1481  183.5609 C   0  0  0  0  0  0  0  0  0  0  0  0
  158.8363  143.3069  182.9146 C   0  0  0  0  0  0  0  0  0  0  0  0
  157.8689  143.9771  182.1597 C   0  0  0  0  0  0  0  0  0  0  0  0
  156.5755  143.5141  182.0501 C   0  0  0  0  0  0  0  0  0  0  0  0
  156.2123  142.3462  182.7062 C   0  0  0  0  0  0  0  0  0  0  0  0
  155.0858  141.6346  182.8153 N   0  0  0  0  0  0  0  0  0  0  0  0
  155.2559  140.5501  183.5884 C   0  0  0  0  0  0  0  0  0  0  0  0
  156.5510  140.5856  183.9814 N   0  0  0  0  0  0  0  0  0  0  0  0
  157.1572  141.6671  183.4599 C   0  0  0  0  0  0  0  0  0  0  0  0
  154.1781  141.8978  182.3479 H   0  0  0  0  0  0  0  0  0  0  0  0
  159.0805  141.6142  185.8418 C   0  0  0  0  0  0  0  0  0  0  0  0
  159.3954  141.3602  184.3832 C   0  0  0  0  0  0  0  0  0  0  0  0
  160.8404  141.8316  184.1695 C   0  0  0  0  0  0  0  0  0  0  0  0
  159.3211  139.8881  184.1152 C   0  0  0  0  0  0  0  0  0  0  0  0
  153.3708  137.7525  185.4220 C   0  0  0  0  0  0  0  0  0  0  0  0
  153.3460  137.3752  186.8676 C   0  0  0  0  0  0  0  0  0  0  0  0
  153.7453  138.5833  187.7237 C   0  0  0  0  0  0  0  0  0  0  0  0
  154.2730  138.1039  189.0274 C   0  0  0  0  0  0  0  0  0  0  0  0
  153.4627  137.5079  189.9713 C   0  0  0  0  0  0  0  0  0  0  0  0
  153.9174  137.0530  191.1947 C   0  0  0  0  0  0  0  0  0  0  0  0
  155.2459  137.1956  191.4999 C   0  0  0  0  0  0  0  0  0  0  0  0
  156.0470  137.7962  190.5413 C   0  0  0  0  0  0  0  0  0  0  0  0
  155.5743  138.2281  189.3609 N   0  0  0  0  0  0  0  0  0  0  0  0
  153.0381  136.4499  192.1240 N   0  0  0  0  0  0  0  0  0  0  0  0
  153.1574  135.0927  192.5385 C   0  0  0  0  0  0  0  0  0  0  0  0
  152.8371  135.0302  194.0370 C   0  0  0  0  0  0  0  0  0  0  0  0
  151.5905  135.5085  194.3466 O   0  0  0  0  0  0  0  0  0  0  0  0
  150.9966  136.2429  193.3495 C   0  0  0  0  0  0  0  0  0  0  0  0
  151.9339  137.2292  192.7067 C   0  0  0  0  0  0  0  0  0  0  0  0
 15 16  1  0  0  0
 16 17  1  0  0  0
 16 18  1  0  0  0
 16  5  1  0  0  0
  5  6  2  0  0  0
  6  7  1  0  0  0
  7  8  2  0  0  0
  8  9  1  0  0  0
  9 10  1  0  0  0
 10 11  1  0  0  0
 11 12  2  0  0  0
 12 13  1  0  0  0
 11  1  1  0  0  0
  1  2  2  0  0  0
  1  3  1  0  0  0
  3 19  1  0  0  0
 19 20  1  0  0  0
 20 21  1  0  0  0
 21 22  1  0  0  0
 22 23  2  0  0  0
 23 24  1  0  0  0
 24 25  2  0  0  0
 25 26  1  0  0  0
 26 27  2  0  0  0
 24 28  1  0  0  0
 28 29  1  0  0  0
 29 30  1  0  0  0
 30 31  1  0  0  0
 31 32  1  0  0  0
 32 33  1  0  0  0
 13  5  1  0  0  0
 27 22  1  0  0  0
 33 28  1  0  0  0
 13  9  2  0  0  0
 10 14  1  0  0  0
  3  4  1  0  0  0
M  END
> <minimizedAffinity>
-8.33806

> <CNNscore>
0.3750857413

> <CNNaffinity>
6.2321920395

> <CNN_VS>
2.3376064301

> <CNNaffinity_variance>
0.0991938934

$$$$
[H]c1nc(C([H])([H])C([H])([H])C([H])([H])N([H])C(=O)c2nc3c(C(C([H])([H])[H])(C([H])([H])[H])C([H])([H])[H])c([H])c([H])c([H])c3n2[H])c([H])c(N2C([H])([H])C([H])([H])OC([H])([H])C2([H])[H])c1[H]


 33 36  0  0  0  0  0  0  0  0999 V2000
  153.8614  139.0369  183.5800 C   0  0  0  0  0  0  0  0  0  0  0  0
  154.5668  140.0586  183.7461 O   0  0  0  0  0  0  0  0  0  0  0  0
  154.0242  137.9446  184.4546 N   0  0  0  0  0  0  0  0  0  0  0  0
  153.4059  137.0922  184.2864 H   0  0  0  0  0  0  0  0  0  0  0  0
  150.0807  137.8692  180.5793 C   0  0  0  0  0  0  0  0  0  0  0  0
  149.5866  138.3714  179.3940 C   0  0  0  0  0  0  0  0  0  0  0  0
  150.2390  139.4707  178.8274 C   0  0  0  0  0  0  0  0  0  0  0  0
  151.3419  140.0507  179.4159 C   0  0  0  0  0  0  0  0  0  0  0  0
  151.8279  139.5342  180.6091 C   0  0  0  0  0  0  0  0  0  0  0  0
  152.8411  139.8371  181.4269 N   0  0  0  0  0  0  0  0  0  0  0  0
  152.8908  139.0105  182.4838 C   0  0  0  0  0  0  0  0  0  0  0  0
  151.8590  138.1497  182.3186 N   0  0  0  0  0  0  0  0  0  0  0  0
  151.1949  138.4444  181.1866 C   0  0  0  0  0  0  0  0  0  0  0  0
  153.5148  140.6301  181.2574 H   0  0  0  0  0  0  0  0  0  0  0  0
  148.3436  136.1885  180.4087 C   0  0  0  0  0  0  0  0  0  0  0  0
  149.4746  136.7152  181.2657 C   0  0  0  0  0  0  0  0  0  0  0  0
  148.8393  137.1438  182.5956 C   0  0  0  0  0  0  0  0  0  0  0  0
  150.4473  135.6064  181.5283 C   0  0  0  0  0  0  0  0  0  0  0  0
  154.9827  137.9718  185.5313 C   0  0  0  0  0  0  0  0  0  0  0  0
  154.5005  137.3479  186.8007 C   0  0  0  0  0  0  0  0  0  0  0  0
  153.8205  138.4105  187.6726 C   0  0  0  0  0  0  0  0  0  0  0  0
  153.9604  138.0305  189.1022 C   0  0  0  0  0  0  0  0  0  0  0  0
  153.0340  137.2342  189.7427 C   0  0  0  0  0  0  0  0  0  0  0  0
  153.1295  136.8632  191.0707 C   0  0  0  0  0  0  0  0  0  0  0  0
  154.2002  137.3043  191.8041 C   0  0  0  0  0  0  0  0  0  0  0  0
  155.1222  138.1035  191.1463 C   0  0  0  0  0  0  0  0  0  0  0  0
  155.0007  138.4466  189.8537 N   0  0  0  0  0  0  0  0  0  0  0  0
  152.1471  136.0441  191.6743 N   0  0  0  0  0  0  0  0  0  0  0  0
  152.0126  134.6550  191.3909 C   0  0  0  0  0  0  0  0  0  0  0  0
  151.6738  133.9393  192.7043 C   0  0  0  0  0  0  0  0  0  0  0  0
  150.5332  134.4100  193.3011 O   0  0  0  0  0  0  0  0  0  0  0  0
  150.0920  135.6173  192.8175 C   0  0  0  0  0  0  0  0  0  0  0  0
  151.1992  136.6210  192.6412 C   0  0  0  0  0  0  0  0  0  0  0  0
 15 16  1  0  0  0
 16 17  1  0  0  0
 16 18  1  0  0  0
 16  5  1  0  0  0
  5  6  2  0  0  0
  6  7  1  0  0  0
  7  8  2  0  0  0
  8  9  1  0  0  0
  9 10  1  0  0  0
 10 11  1  0  0  0
 11 12  2  0  0  0
 12 13  1  0  0  0
 11  1  1  0  0  0
  1  2  2  0  0  0
  1  3  1  0  0  0
  3 19  1  0  0  0
 19 20  1  0  0  0
 20 21  1  0  0  0
 21 22  1  0  0  0
 22 23  2  0  0  0
 23 24  1  0  0  0
 24 25  2  0  0  0
 25 26  1  0  0  0
 26 27  2  0  0  0
 24 28  1  0  0  0
 28 29  1  0  0  0
 29 30  1  0  0  0
 30 31  1  0  0  0
 31 32  1  0  0  0
 32 33  1  0  0  0
 13  5  1  0  0  0
 27 22  1  0  0  0
 33 28  1  0  0  0
 13  9  2  0  0  0
 10 14  1  0  0  0
  3  4  1  0  0  0
M  END
> <minimizedAffinity>
-6.80195

> <CNNscore>
0.3745102882

> <CNNaffinity>
5.6135153770

> <CNN_VS>
2.1023192406

> <CNNaffinity_variance>
0.0968065709

$$$$
[H]c1nc(C([H])([H])C([H])([H])C([H])([H])N([H])C(=O)c2nc3c(C(C([H])([H])[H])(C([H])([H])[H])C([H])([H])[H])c([H])c([H])c([H])c3n2[H])c([H])c(N2C([H])([H])C([H])([H])OC([H])([H])C2([H])[H])c1[H]


 33 36  0  0  0  0  0  0  0  0999 V2000
  154.2555  139.8108  183.8401 C   0  0  0  0  0  0  0  0  0  0  0  0
  153.2951  139.6631  183.0497 O   0  0  0  0  0  0  0  0  0  0  0  0
  154.2888  139.0492  185.0248 N   0  0  0  0  0  0  0  0  0  0  0  0
  155.1220  139.1978  185.6736 H   0  0  0  0  0  0  0  0  0  0  0  0
  158.5835  142.2262  183.5299 C   0  0  0  0  0  0  0  0  0  0  0  0
  159.0204  143.3636  182.8844 C   0  0  0  0  0  0  0  0  0  0  0  0
  158.0966  144.0706  182.1086 C   0  0  0  0  0  0  0  0  0  0  0  0
  156.7864  143.6633  181.9780 C   0  0  0  0  0  0  0  0  0  0  0  0
  156.3612  142.5163  182.6336 C   0  0  0  0  0  0  0  0  0  0  0  0
  155.2032  141.8549  182.7261 N   0  0  0  0  0  0  0  0  0  0  0  0
  155.3121  140.7688  183.5079 C   0  0  0  0  0  0  0  0  0  0  0  0
  156.6003  140.7505  183.9241 N   0  0  0  0  0  0  0  0  0  0  0  0
  157.2621  141.8015  183.4079 C   0  0  0  0  0  0  0  0  0  0  0  0
  154.3163  142.1543  182.2410 H   0  0  0  0  0  0  0  0  0  0  0  0
  159.1145  141.6533  185.8236 C   0  0  0  0  0  0  0  0  0  0  0  0
  159.4680  141.4036  184.3732 C   0  0  0  0  0  0  0  0  0  0  0  0
  160.9322  141.8341  184.2099 C   0  0  0  0  0  0  0  0  0  0  0  0
  159.3595  139.9368  184.0881 C   0  0  0  0  0  0  0  0  0  0  0  0
  153.2458  138.1089  185.3512 C   0  0  0  0  0  0  0  0  0  0  0  0
  153.3638  137.5071  186.7139 C   0  0  0  0  0  0  0  0  0  0  0  0
  153.5737  138.6162  187.7519 C   0  0  0  0  0  0  0  0  0  0  0  0
  154.5646  138.1590  188.7603 C   0  0  0  0  0  0  0  0  0  0  0  0
  155.3849  137.0720  188.5408 C   0  0  0  0  0  0  0  0  0  0  0  0
  156.3151  136.6163  189.4559 C   0  0  0  0  0  0  0  0  0  0  0  0
  156.4400  137.2724  190.6528 C   0  0  0  0  0  0  0  0  0  0  0  0
  155.6088  138.3625  190.8583 C   0  0  0  0  0  0  0  0  0  0  0  0
  154.7142  138.7806  189.9483 N   0  0  0  0  0  0  0  0  0  0  0  0
  157.1293  135.4944  189.1751 N   0  0  0  0  0  0  0  0  0  0  0  0
  157.7004  135.2501  187.8937 C   0  0  0  0  0  0  0  0  0  0  0  0
  159.1146  134.6968  188.1084 C   0  0  0  0  0  0  0  0  0  0  0  0
  159.1415  133.5517  188.8612 O   0  0  0  0  0  0  0  0  0  0  0  0
  157.9813  133.2928  189.5490 C   0  0  0  0  0  0  0  0  0  0  0  0
  157.4169  134.5099  190.2307 C   0  0  0  0  0  0  0  0  0  0  0  0
 15 16  1  0  0  0
 16 17  1  0  0  0
 16 18  1  0  0  0
 16  5  1  0  0  0
  5  6  2  0  0  0
  6  7  1  0  0  0
  7  8  2  0  0  0
  8  9  1  0  0  0
  9 10  1  0  0  0
 10 11  1  0  0  0
 11 12  2  0  0  0
 12 13  1  0  0  0
 11  1  1  0  0  0
  1  2  2  0  0  0
  1  3  1  0  0  0
  3 19  1  0  0  0
 19 20  1  0  0  0
 20 21  1  0  0  0
 21 22  1  0  0  0
 22 23  2  0  0  0
 23 24  1  0  0  0
 24 25  2  0  0  0
 25 26  1  0  0  0
 26 27  2  0  0  0
 24 28  1  0  0  0
 28 29  1  0  0  0
 29 30  1  0  0  0
 30 31  1  0  0  0
 31 32  1  0  0  0
 32 33  1  0  0  0
 13  5  1  0  0  0
 27 22  1  0  0  0
 33 28  1  0  0  0
 13  9  2  0  0  0
 10 14  1  0  0  0
  3  4  1  0  0  0
M  END
> <minimizedAffinity>
-8.42068

> <CNNscore>
0.3521781266

> <CNNaffinity>
6.5441231728

> <CNN_VS>
2.3046970367

> <CNNaffinity_variance>
0.1315495670

$$$$
[H]c1nc(C([H])([H])C([H])([H])C([H])([H])N([H])C(=O)c2nc3c(C(C([H])([H])[H])(C([H])([H])[H])C([H])([H])[H])c([H])c([H])c([H])c3n2[H])c([H])c(N2C([H])([H])C([H])([H])OC([H])([H])C2([H])[H])c1[H]


 33 36  0  0  0  0  0  0  0  0999 V2000
  154.5888  138.3714  185.5647 C   0  0  0  0  0  0  0  0  0  0  0  0
  155.3720  137.6534  186.2281 O   0  0  0  0  0  0  0  0  0  0  0  0
  153.2134  138.0669  185.5688 N   0  0  0  0  0  0  0  0  0  0  0  0
  152.5748  138.7001  184.9957 H   0  0  0  0  0  0  0  0  0  0  0  0
  157.5891  141.8121  183.6100 C   0  0  0  0  0  0  0  0  0  0  0  0
  157.4229  142.8693  182.7404 C   0  0  0  0  0  0  0  0  0  0  0  0
  156.1402  143.1056  182.2364 C   0  0  0  0  0  0  0  0  0  0  0  0
  155.0614  142.3210  182.5827 C   0  0  0  0  0  0  0  0  0  0  0  0
  155.2442  141.2602  183.4590 C   0  0  0  0  0  0  0  0  0  0  0  0
  154.4491  140.3274  183.9925 N   0  0  0  0  0  0  0  0  0  0  0  0
  155.1270  139.5032  184.8073 C   0  0  0  0  0  0  0  0  0  0  0  0
  156.4075  139.9421  184.7817 N   0  0  0  0  0  0  0  0  0  0  0  0
  156.5085  141.0097  183.9698 C   0  0  0  0  0  0  0  0  0  0  0  0
  153.4165  140.2527  183.7930 H   0  0  0  0  0  0  0  0  0  0  0  0
  159.9381  142.4065  183.6334 C   0  0  0  0  0  0  0  0  0  0  0  0
  158.8938  141.4702  184.2025 C   0  0  0  0  0  0  0  0  0  0  0  0
  159.3228  140.0536  183.7961 C   0  0  0  0  0  0  0  0  0  0  0  0
  158.9082  141.5708  185.6973 C   0  0  0  0  0  0  0  0  0  0  0  0
  152.6863  136.9501  186.3128 C   0  0  0  0  0  0  0  0  0  0  0  0
  152.2997  137.2748  187.7193 C   0  0  0  0  0  0  0  0  0  0  0  0
  152.5749  136.0666  188.6227 C   0  0  0  0  0  0  0  0  0  0  0  0
  153.8332  136.2992  189.3779 C   0  0  0  0  0  0  0  0  0  0  0  0
  154.9772  135.5665  189.1390 C   0  0  0  0  0  0  0  0  0  0  0  0
  156.1637  135.7526  189.8232 C   0  0  0  0  0  0  0  0  0  0  0  0
  156.2207  136.7163  190.7961 C   0  0  0  0  0  0  0  0  0  0  0  0
  155.0631  137.4440  191.0243 C   0  0  0  0  0  0  0  0  0  0  0  0
  153.9249  137.2387  190.3419 N   0  0  0  0  0  0  0  0  0  0  0  0
  157.3055  134.9695  189.5346 N   0  0  0  0  0  0  0  0  0  0  0  0
  157.8844  134.0654  190.4703 C   0  0  0  0  0  0  0  0  0  0  0  0
  158.3328  132.8171  189.7004 C   0  0  0  0  0  0  0  0  0  0  0  0
  159.2250  133.0894  188.6961 O   0  0  0  0  0  0  0  0  0  0  0  0
  159.3035  134.4151  188.3457 C   0  0  0  0  0  0  0  0  0  0  0  0
  157.9553  135.0712  188.2179 C   0  0  0  0  0  0  0  0  0  0  0  0
 15 16  1  0  0  0
 16 17  1  0  0  0
 16 18  1  0  0  0
 16  5  1  0  0  0
  5  6  2  0  0  0
  6  7  1  0  0  0
  7  8  2  0  0  0
  8  9  1  0  0  0
  9 10  1  0  0  0
 10 11  1  0  0  0
 11 12  2  0  0  0
 12 13  1  0  0  0
 11  1  1  0  0  0
  1  2  2  0  0  0
  1  3  1  0  0  0
  3 19  1  0  0  0
 19 20  1  0  0  0
 20 21  1  0  0  0
 21 22  1  0  0  0
 22 23  2  0  0  0
 23 24  1  0  0  0
 24 25  2  0  0  0
 25 26  1  0  0  0
 26 27  2  0  0  0
 24 28  1  0  0  0
 28 29  1  0  0  0
 29 30  1  0  0  0
 30 31  1  0  0  0
 31 32  1  0  0  0
 32 33  1  0  0  0
 13  5  1  0  0  0
 27 22  1  0  0  0
 33 28  1  0  0  0
 13  9  2  0  0  0
 10 14  1  0  0  0
  3  4  1  0  0  0
M  END
> <minimizedAffinity>
-7.02742

> <CNNscore>
0.3261940777

> <CNNaffinity>
6.2911825180

> <CNN_VS>
2.0521464348

> <CNNaffinity_variance>
0.0580197647

$$$$
[H]c1nc(C([H])([H])C([H])([H])C([H])([H])N([H])C(=O)c2nc3c(C(C([H])([H])[H])(C([H])([H])[H])C([H])([H])[H])c([H])c([H])c([H])c3n2[H])c([H])c(N2C([H])([H])C([H])([H])OC([H])([H])C2([H])[H])c1[H]


 33 36  0  0  0  0  0  0  0  0999 V2000
  153.3850  138.4996  183.5028 C   0  0  0  0  0  0  0  0  0  0  0  0
  153.5585  139.7170  183.2643 O   0  0  0  0  0  0  0  0  0  0  0  0
  154.1525  137.8848  184.5115 N   0  0  0  0  0  0  0  0  0  0  0  0
  153.9773  136.8481  184.6903 H   0  0  0  0  0  0  0  0  0  0  0  0
  149.6771  137.2484  180.4455 C   0  0  0  0  0  0  0  0  0  0  0  0
  149.0824  136.0625  180.0695 C   0  0  0  0  0  0  0  0  0  0  0  0
  149.5732  134.8789  180.6291 C   0  0  0  0  0  0  0  0  0  0  0  0
  150.6168  134.8723  181.5293 C   0  0  0  0  0  0  0  0  0  0  0  0
  151.2056  136.0739  181.8981 C   0  0  0  0  0  0  0  0  0  0  0  0
  152.2019  136.4259  182.7169 N   0  0  0  0  0  0  0  0  0  0  0  0
  152.3908  137.7552  182.7270 C   0  0  0  0  0  0  0  0  0  0  0  0
  151.4680  138.2581  181.8735 N   0  0  0  0  0  0  0  0  0  0  0  0
  150.7330  137.2583  181.3544 C   0  0  0  0  0  0  0  0  0  0  0  0
  152.7673  135.7387  183.2822 H   0  0  0  0  0  0  0  0  0  0  0  0
  148.5632  139.3172  181.0378 C   0  0  0  0  0  0  0  0  0  0  0  0
  149.2429  138.5547  179.9208 C   0  0  0  0  0  0  0  0  0  0  0  0
  148.1873  138.3768  178.8207 C   0  0  0  0  0  0  0  0  0  0  0  0
  150.3714  139.3791  179.3810 C   0  0  0  0  0  0  0  0  0  0  0  0
  155.1329  138.6190  185.2719 C   0  0  0  0  0  0  0  0  0  0  0  0
  155.4204  138.0462  186.6218 C   0  0  0  0  0  0  0  0  0  0  0  0
  154.2616  138.3634  187.5750 C   0  0  0  0  0  0  0  0  0  0  0  0
  154.6593  138.0067  188.9615 C   0  0  0  0  0  0  0  0  0  0  0  0
  153.7810  137.4174  189.8469 C   0  0  0  0  0  0  0  0  0  0  0  0
  154.1142  137.0748  191.1438 C   0  0  0  0  0  0  0  0  0  0  0  0
  155.3857  137.3291  191.5879 C   0  0  0  0  0  0  0  0  0  0  0  0
  156.2564  137.9215  190.6865 C   0  0  0  0  0  0  0  0  0  0  0  0
  155.9016  138.2427  189.4318 N   0  0  0  0  0  0  0  0  0  0  0  0
  153.1698  136.4725  192.0073 N   0  0  0  0  0  0  0  0  0  0  0  0
  152.9753  135.0639  192.0848 C   0  0  0  0  0  0  0  0  0  0  0  0
  152.7383  134.7035  193.5565 C   0  0  0  0  0  0  0  0  0  0  0  0
  151.6682  135.3571  194.1104 O   0  0  0  0  0  0  0  0  0  0  0  0
  151.2159  136.4308  193.3833 C   0  0  0  0  0  0  0  0  0  0  0  0
  152.3278  137.3095  192.8771 C   0  0  0  0  0  0  0  0  0  0  0  0
 15 16  1  0  0  0
 16 17  1  0  0  0
 16 18  1  0  0  0
 16  5  1  0  0  0
  5  6  2  0  0  0
  6  7  1  0  0  0
  7  8  2  0  0  0
  8  9  1  0  0  0
  9 10  1  0  0  0
 10 11  1  0  0  0
 11 12  2  0  0  0
 12 13  1  0  0  0
 11  1  1  0  0  0
  1  2  2  0  0  0
  1  3  1  0  0  0
  3 19  1  0  0  0
 19 20  1  0  0  0
 20 21  1  0  0  0
 21 22  1  0  0  0
 22 23  2  0  0  0
 23 24  1  0  0  0
 24 25  2  0  0  0
 25 26  1  0  0  0
 26 27  2  0  0  0
 24 28  1  0  0  0
 28 29  1  0  0  0
 29 30  1  0  0  0
 30 31  1  0  0  0
 31 32  1  0  0  0
 32 33  1  0  0  0
 13  5  1  0  0  0
 27 22  1  0  0  0
 33 28  1  0  0  0
 13  9  2  0  0  0
 10 14  1  0  0  0
  3  4  1  0  0  0
M  END
> <minimizedAffinity>
-6.89266

> <CNNscore>
0.3083903790

> <CNNaffinity>
5.5203571320

> <CNN_VS>
1.7024250031

> <CNNaffinity_variance>
0.0379805267

$$$$
[H]c1nc(C([H])([H])C([H])([H])C([H])([H])N([H])C(=O)c2nc3c(C(C([H])([H])[H])(C([H])([H])[H])C([H])([H])[H])c([H])c([H])c([H])c3n2[H])c([H])c(N2C([H])([H])C([H])([H])OC([H])([H])C2([H])[H])c1[H]


 33 36  0  0  0  0  0  0  0  0999 V2000
  155.4809  139.4687  184.3516 C   0  0  0  0  0  0  0  0  0  0  0  0
  154.6376  139.5671  183.4305 O   0  0  0  0  0  0  0  0  0  0  0  0
  155.2942  138.4896  185.3471 N   0  0  0  0  0  0  0  0  0  0  0  0
  156.0323  138.4315  186.1146 H   0  0  0  0  0  0  0  0  0  0  0  0
  158.8168  142.9651  183.2079 C   0  0  0  0  0  0  0  0  0  0  0  0
  159.9729  143.4372  183.7927 C   0  0  0  0  0  0  0  0  0  0  0  0
  160.3815  142.8547  184.9964 C   0  0  0  0  0  0  0  0  0  0  0  0
  159.6685  141.8404  185.5981 C   0  0  0  0  0  0  0  0  0  0  0  0
  158.5066  141.3756  184.9977 C   0  0  0  0  0  0  0  0  0  0  0  0
  157.6001  140.4384  185.2927 N   0  0  0  0  0  0  0  0  0  0  0  0
  156.6327  140.3729  184.3640 C   0  0  0  0  0  0  0  0  0  0  0  0
  156.9499  141.3145  183.4442 N   0  0  0  0  0  0  0  0  0  0  0  0
  158.0850  141.9402  183.8038 C   0  0  0  0  0  0  0  0  0  0  0  0
  157.6446  139.8291  186.1519 H   0  0  0  0  0  0  0  0  0  0  0  0
  159.0358  144.7816  181.6193 C   0  0  0  0  0  0  0  0  0  0  0  0
  158.2921  143.5032  181.9410 C   0  0  0  0  0  0  0  0  0  0  0  0
  156.8144  143.8930  182.0845 C   0  0  0  0  0  0  0  0  0  0  0  0
  158.4330  142.5522  180.7919 C   0  0  0  0  0  0  0  0  0  0  0  0
  154.1577  137.6026  185.3345 C   0  0  0  0  0  0  0  0  0  0  0  0
  153.5963  137.3020  186.6863 C   0  0  0  0  0  0  0  0  0  0  0  0
  153.7322  138.5351  187.5879 C   0  0  0  0  0  0  0  0  0  0  0  0
  154.3440  138.1293  188.8797 C   0  0  0  0  0  0  0  0  0  0  0  0
  153.5975  137.5897  189.9065 C   0  0  0  0  0  0  0  0  0  0  0  0
  154.1311  137.2040  191.1217 C   0  0  0  0  0  0  0  0  0  0  0  0
  155.4765  137.3609  191.3317 C   0  0  0  0  0  0  0  0  0  0  0  0
  156.2129  137.9044  190.2906 C   0  0  0  0  0  0  0  0  0  0  0  0
  155.6640  138.2696  189.1207 N   0  0  0  0  0  0  0  0  0  0  0  0
  153.3149  136.6564  192.1388 N   0  0  0  0  0  0  0  0  0  0  0  0
  152.3644  137.4245  192.8699 C   0  0  0  0  0  0  0  0  0  0  0  0
  151.1225  136.5509  193.0861 C   0  0  0  0  0  0  0  0  0  0  0  0
  151.3899  135.3805  193.7474 O   0  0  0  0  0  0  0  0  0  0  0  0
  152.7210  135.0470  193.8030 C   0  0  0  0  0  0  0  0  0  0  0  0
  153.4295  135.2313  192.4882 C   0  0  0  0  0  0  0  0  0  0  0  0
 15 16  1  0  0  0
 16 17  1  0  0  0
 16 18  1  0  0  0
 16  5  1  0  0  0
  5  6  2  0  0  0
  6  7  1  0  0  0
  7  8  2  0  0  0
  8  9  1  0  0  0
  9 10  1  0  0  0
 10 11  1  0  0  0
 11 12  2  0  0  0
 12 13  1  0  0  0
 11  1  1  0  0  0
  1  2  2  0  0  0
  1  3  1  0  0  0
  3 19  1  0  0  0
 19 20  1  0  0  0
 20 21  1  0  0  0
 21 22  1  0  0  0
 22 23  2  0  0  0
 23 24  1  0  0  0
 24 25  2  0  0  0
 25 26  1  0  0  0
 26 27  2  0  0  0
 24 28  1  0  0  0
 28 29  1  0  0  0
 29 30  1  0  0  0
 30 31  1  0  0  0
 31 32  1  0  0  0
 32 33  1  0  0  0
 13  5  1  0  0  0
 27 22  1  0  0  0
 33 28  1  0  0  0
 13  9  2  0  0  0
 10 14  1  0  0  0
  3  4  1  0  0  0
M  END
> <minimizedAffinity>
-8.47555

> <CNNscore>
0.3050072789

> <CNNaffinity>
6.1935663223

> <CNN_VS>
1.8890827894

> <CNNaffinity_variance>
0.1018536314

$$$$
[H]c1nc(C([H])([H])C([H])([H])C([H])([H])N([H])C(=O)c2nc3c(C(C([H])([H])[H])(C([H])([H])[H])C([H])([H])[H])c([H])c([H])c([H])c3n2[H])c([H])c(N2C([H])([H])C([H])([H])OC([H])([H])C2([H])[H])c1[H]


 33 36  0  0  0  0  0  0  0  0999 V2000
  155.4241  139.9993  183.6474 C   0  0  0  0  0  0  0  0  0  0  0  0
  154.4874  139.7534  182.8529 O   0  0  0  0  0  0  0  0  0  0  0  0
  155.5747  139.1968  184.7954 N   0  0  0  0  0  0  0  0  0  0  0  0
  156.3840  139.4321  185.4488 H   0  0  0  0  0  0  0  0  0  0  0  0
  159.2790  143.1298  183.6158 C   0  0  0  0  0  0  0  0  0  0  0  0
  159.5865  144.2899  182.9368 C   0  0  0  0  0  0  0  0  0  0  0  0
  158.6522  144.7762  182.0173 C   0  0  0  0  0  0  0  0  0  0  0  0
  157.4559  144.1345  181.7800 C   0  0  0  0  0  0  0  0  0  0  0  0
  157.1602  142.9676  182.4710 C   0  0  0  0  0  0  0  0  0  0  0  0
  156.1303  142.1156  182.4900 N   0  0  0  0  0  0  0  0  0  0  0  0
  156.3319  141.1112  183.3578 C   0  0  0  0  0  0  0  0  0  0  0  0
  157.5464  141.3468  183.9078 N   0  0  0  0  0  0  0  0  0  0  0  0
  158.0737  142.4693  183.3872 C   0  0  0  0  0  0  0  0  0  0  0  0
  155.2680  142.2243  181.8930 H   0  0  0  0  0  0  0  0  0  0  0  0
  161.1777  143.5804  185.0522 C   0  0  0  0  0  0  0  0  0  0  0  0
  160.1868  142.5265  184.6068 C   0  0  0  0  0  0  0  0  0  0  0  0
  161.0160  141.4011  183.9727 C   0  0  0  0  0  0  0  0  0  0  0  0
  159.4741  141.9854  185.8084 C   0  0  0  0  0  0  0  0  0  0  0  0
  154.6777  138.1046  185.0800 C   0  0  0  0  0  0  0  0  0  0  0  0
  154.4986  137.8183  186.5356 C   0  0  0  0  0  0  0  0  0  0  0  0
  155.8283  138.0267  187.2705 C   0  0  0  0  0  0  0  0  0  0  0  0
  155.6226  137.7995  188.7244 C   0  0  0  0  0  0  0  0  0  0  0  0
  154.4204  137.3543  189.2335 C   0  0  0  0  0  0  0  0  0  0  0  0
  154.1917  137.1350  190.5788 C   0  0  0  0  0  0  0  0  0  0  0  0
  155.2081  137.3688  191.4681 C   0  0  0  0  0  0  0  0  0  0  0  0
  156.4098  137.8158  190.9411 C   0  0  0  0  0  0  0  0  0  0  0  0
  156.6004  138.0194  189.6275 N   0  0  0  0  0  0  0  0  0  0  0  0
  152.9361  136.6780  191.0428 N   0  0  0  0  0  0  0  0  0  0  0  0
  152.5990  136.6021  192.4242 C   0  0  0  0  0  0  0  0  0  0  0  0
  151.1343  137.0318  192.5737 C   0  0  0  0  0  0  0  0  0  0  0  0
  150.2665  136.2699  191.8354 O   0  0  0  0  0  0  0  0  0  0  0  0
  150.8636  135.5006  190.8670 C   0  0  0  0  0  0  0  0  0  0  0  0
  151.9075  136.2480  190.0819 C   0  0  0  0  0  0  0  0  0  0  0  0
 15 16  1  0  0  0
 16 17  1  0  0  0
 16 18  1  0  0  0
 16  5  1  0  0  0
  5  6  2  0  0  0
  6  7  1  0  0  0
  7  8  2  0  0  0
  8  9  1  0  0  0
  9 10  1  0  0  0
 10 11  1  0  0  0
 11 12  2  0  0  0
 12 13  1  0  0  0
 11  1  1  0  0  0
  1  2  2  0  0  0
  1  3  1  0  0  0
  3 19  1  0  0  0
 19 20  1  0  0  0
 20 21  1  0  0  0
 21 22  1  0  0  0
 22 23  2  0  0  0
 23 24  1  0  0  0
 24 25  2  0  0  0
 25 26  1  0  0  0
 26 27  2  0  0  0
 24 28  1  0  0  0
 28 29  1  0  0  0
 29 30  1  0  0  0
 30 31  1  0  0  0
 31 32  1  0  0  0
 32 33  1  0  0  0
 13  5  1  0  0  0
 27 22  1  0  0  0
 33 28  1  0  0  0
 13  9  2  0  0  0
 10 14  1  0  0  0
  3  4  1  0  0  0
M  END
> <minimizedAffinity>
-8.69205

> <CNNscore>
0.3037304878

> <CNNaffinity>
6.2955346107

> <CNN_VS>
1.9121458530

> <CNNaffinity_variance>
0.1081005186

$$$$
[H]c1nc(C(=O)N2C([H])([H])C([H])([H])C([H])(c3c([H])c(N([H])C(=O)C([H])([H])[H])nn3C([H])([H])[H])C2([H])[H])sc1-c1nn(C([H])([H])[H])c(N([H])S(=O)(=O)c2c([H])c([H])c(C([H])([H])[H])c([H])c2[H])c1[H]


 41 45  0  0  0  0  0  0  0  0999 V2000
  155.1947  138.0686  185.7028 C   0  0  0  0  0  0  0  0  0  0  0  0
  154.3705  136.9783  185.5542 C   0  0  0  0  0  0  0  0  0  0  0  0
  154.3947  136.0588  186.4503 N   0  0  0  0  0  0  0  0  0  0  0  0
  155.2070  136.1716  187.4982 C   0  0  0  0  0  0  0  0  0  0  0  0
  155.9717  137.6564  187.1921 S   0  0  0  0  0  0  0  0  0  0  0  0
  155.3511  135.2252  188.5716 C   0  0  0  0  0  0  0  0  0  0  0  0
  154.4342  135.1788  189.4618 O   0  0  0  0  0  0  0  0  0  0  0  0
  156.4556  134.3302  188.7070 N   0  0  0  0  0  0  0  0  0  0  0  0
  157.6008  134.2129  187.8467 C   0  0  0  0  0  0  0  0  0  0  0  0
  158.6641  133.4889  188.6009 C   0  0  0  0  0  0  0  0  0  0  0  0
  158.0681  133.3654  190.0106 C   0  0  0  0  0  0  0  0  0  0  0  0
  156.6102  133.3326  189.7645 C   0  0  0  0  0  0  0  0  0  0  0  0
  158.6883  132.2299  190.6682 C   0  0  0  0  0  0  0  0  0  0  0  0
  160.0072  131.8441  190.3558 C   0  0  0  0  0  0  0  0  0  0  0  0
  160.3625  130.7538  191.1157 C   0  0  0  0  0  0  0  0  0  0  0  0
  159.2943  130.4870  191.8647 N   0  0  0  0  0  0  0  0  0  0  0  0
  158.3085  131.3657  191.5932 N   0  0  0  0  0  0  0  0  0  0  0  0
  157.0179  131.3535  192.2457 C   0  0  0  0  0  0  0  0  0  0  0  0
  161.6266  130.0861  191.0707 N   0  0  0  0  0  0  0  0  0  0  0  0
  162.5035  130.0894  192.1832 C   0  0  0  0  0  0  0  0  0  0  0  0
  162.2044  130.7649  193.4575 C   0  0  0  0  0  0  0  0  0  0  0  0
  163.6024  129.4737  192.0611 O   0  0  0  0  0  0  0  0  0  0  0  0
  161.9008  129.5807  190.1799 H   0  0  0  0  0  0  0  0  0  0  0  0
  156.2498  140.9918  183.7745 C   0  0  0  0  0  0  0  0  0  0  0  0
  156.5084  139.9580  184.6760 C   0  0  0  0  0  0  0  0  0  0  0  0
  155.3593  139.2270  184.8498 C   0  0  0  0  0  0  0  0  0  0  0  0
  154.4368  139.7913  184.0860 N   0  0  0  0  0  0  0  0  0  0  0  0
  154.9605  140.8498  183.4373 N   0  0  0  0  0  0  0  0  0  0  0  0
  154.2089  141.6931  182.5147 C   0  0  0  0  0  0  0  0  0  0  0  0
  157.1496  141.9778  183.3109 N   0  0  0  0  0  0  0  0  0  0  0  0
  156.8466  142.9833  183.2238 H   0  0  0  0  0  0  0  0  0  0  0  0
  158.7755  141.5097  182.8834 S   0  0  0  0  0  0  0  0  0  0  0  0
  159.1634  142.2579  181.6233 O   0  0  0  0  0  0  0  0  0  0  0  0
  158.7769  140.0591  182.5488 O   0  0  0  0  0  0  0  0  0  0  0  0
  162.6303  142.8595  187.2464 C   0  0  0  0  0  0  0  0  0  0  0  0
  161.6343  142.5220  186.1779 C   0  0  0  0  0  0  0  0  0  0  0  0
  160.2822  142.3930  186.4611 C   0  0  0  0  0  0  0  0  0  0  0  0
  159.3960  142.0819  185.4560 C   0  0  0  0  0  0  0  0  0  0  0  0
  159.8631  141.9016  184.1763 C   0  0  0  0  0  0  0  0  0  0  0  0
  161.2112  142.0329  183.9088 C   0  0  0  0  0  0  0  0  0  0  0  0
  162.0827  142.3409  184.9075 C   0  0  0  0  0  0  0  0  0  0  0  0
 35 36  1  0  0  0
 36 37  2  0  0  0
 37 38  1  0  0  0
 38 39  2  0  0  0
 39 40  1  0  0  0
 40 41  2  0  0  0
 39 32  1  0  0  0
 32 33  2  0  0  0
 32 34  2  0  0  0
 32 30  1  0  0  0
 30 24  1  0  0  0
 24 25  2  0  0  0
 25 26  1  0  0  0
 26 27  2  0  0  0
 27 28  1  0  0  0
 28 29  1  0  0  0
 26  1  1  0  0  0
  1  2  2  0  0  0
  2  3  1  0  0  0
  3  4  2  0  0  0
  4  5  1  0  0  0
  4  6  1  0  0  0
  6  7  2  0  0  0
  6  8  1  0  0  0
  8  9  1  0  0  0
  9 10  1  0  0  0
 10 11  1  0  0  0
 11 12  1  0  0  0
 11 13  1  0  0  0
 13 14  2  0  0  0
 14 15  1  0  0  0
 15 19  1  0  0  0
 19 20  1  0  0  0
 20 21  1  0  0  0
 20 22  2  0  0  0
 15 16  2  0  0  0
 16 17  1  0  0  0
 17 18  1  0  0  0
 41 36  1  0  0  0
 28 24  1  0  0  0
  5  1  1  0  0  0
 12  8  1  0  0  0
 17 13  1  0  0  0
 30 31  1  0  0  0
 19 23  1  0  0  0
M  END
> <minimizedAffinity>
-9.41242

> <CNNscore>
0.4152139127

> <CNNaffinity>
6.9177122116

> <CNN_VS>
2.8723304272

> <CNNaffinity_variance>
0.0834920853

$$$$
[H]c1nc(C(=O)N2C([H])([H])C([H])([H])C([H])(c3c([H])c(N([H])C(=O)C([H])([H])[H])nn3C([H])([H])[H])C2([H])[H])sc1-c1nn(C([H])([H])[H])c(N([H])S(=O)(=O)c2c([H])c([H])c(C([H])([H])[H])c([H])c2[H])c1[H]


 41 45  0  0  0  0  0  0  0  0999 V2000
  155.5267  137.7518  186.6980 C   0  0  0  0  0  0  0  0  0  0  0  0
  155.7608  137.9707  188.0349 C   0  0  0  0  0  0  0  0  0  0  0  0
  155.7187  136.9721  188.8412 N   0  0  0  0  0  0  0  0  0  0  0  0
  155.4523  135.7533  188.3782 C   0  0  0  0  0  0  0  0  0  0  0  0
  155.2525  136.0441  186.7173 S   0  0  0  0  0  0  0  0  0  0  0  0
  155.3626  134.5464  189.1553 C   0  0  0  0  0  0  0  0  0  0  0  0
  154.2066  134.1674  189.5495 O   0  0  0  0  0  0  0  0  0  0  0  0
  156.4854  133.7407  189.5154 N   0  0  0  0  0  0  0  0  0  0  0  0
  157.8687  133.9729  189.2025 C   0  0  0  0  0  0  0  0  0  0  0  0
  158.6904  133.1439  190.1305 C   0  0  0  0  0  0  0  0  0  0  0  0
  157.6464  132.5633  191.0953 C   0  0  0  0  0  0  0  0  0  0  0  0
  156.4209  132.4906  190.2707 C   0  0  0  0  0  0  0  0  0  0  0  0
  158.1803  131.3364  191.6577 C   0  0  0  0  0  0  0  0  0  0  0  0
  158.6483  131.2928  192.9862 C   0  0  0  0  0  0  0  0  0  0  0  0
  159.0916  130.0238  193.2789 C   0  0  0  0  0  0  0  0  0  0  0  0
  158.8987  129.3207  192.1647 N   0  0  0  0  0  0  0  0  0  0  0  0
  158.3589  130.1056  191.2107 N   0  0  0  0  0  0  0  0  0  0  0  0
  158.0185  129.6409  189.8841 C   0  0  0  0  0  0  0  0  0  0  0  0
  159.6363  129.6026  194.5326 N   0  0  0  0  0  0  0  0  0  0  0  0
  161.0294  129.6479  194.7850 C   0  0  0  0  0  0  0  0  0  0  0  0
  162.0226  130.1194  193.8047 C   0  0  0  0  0  0  0  0  0  0  0  0
  161.4290  129.2581  195.9208 O   0  0  0  0  0  0  0  0  0  0  0  0
  158.9721  129.2518  195.2809 H   0  0  0  0  0  0  0  0  0  0  0  0
  156.1428  140.2323  184.0819 C   0  0  0  0  0  0  0  0  0  0  0  0
  156.5640  139.4662  185.1701 C   0  0  0  0  0  0  0  0  0  0  0  0
  155.5144  138.6900  185.5951 C   0  0  0  0  0  0  0  0  0  0  0  0
  154.4941  138.9706  184.7994 N   0  0  0  0  0  0  0  0  0  0  0  0
  154.8605  139.8938  183.8890 N   0  0  0  0  0  0  0  0  0  0  0  0
  153.9702  140.4238  182.8626 C   0  0  0  0  0  0  0  0  0  0  0  0
  156.9008  141.1643  183.3377 N   0  0  0  0  0  0  0  0  0  0  0  0
  156.4801  142.0835  183.0403 H   0  0  0  0  0  0  0  0  0  0  0  0
  158.5485  140.7743  182.9157 S   0  0  0  0  0  0  0  0  0  0  0  0
  158.8279  141.3439  181.5388 O   0  0  0  0  0  0  0  0  0  0  0  0
  158.6717  139.2945  182.8102 O   0  0  0  0  0  0  0  0  0  0  0  0
  162.1862  143.1373  187.0268 C   0  0  0  0  0  0  0  0  0  0  0  0
  161.3040  142.5412  185.9713 C   0  0  0  0  0  0  0  0  0  0  0  0
  161.8068  142.1613  184.7352 C   0  0  0  0  0  0  0  0  0  0  0  0
  160.9683  141.6179  183.7896 C   0  0  0  0  0  0  0  0  0  0  0  0
  159.6353  141.4569  184.0823 C   0  0  0  0  0  0  0  0  0  0  0  0
  159.1486  141.8394  185.3164 C   0  0  0  0  0  0  0  0  0  0  0  0
  159.9832  142.3763  186.2475 C   0  0  0  0  0  0  0  0  0  0  0  0
 35 36  1  0  0  0
 36 37  2  0  0  0
 37 38  1  0  0  0
 38 39  2  0  0  0
 39 40  1  0  0  0
 40 41  2  0  0  0
 39 32  1  0  0  0
 32 33  2  0  0  0
 32 34  2  0  0  0
 32 30  1  0  0  0
 30 24  1  0  0  0
 24 25  2  0  0  0
 25 26  1  0  0  0
 26 27  2  0  0  0
 27 28  1  0  0  0
 28 29  1  0  0  0
 26  1  1  0  0  0
  1  2  2  0  0  0
  2  3  1  0  0  0
  3  4  2  0  0  0
  4  5  1  0  0  0
  4  6  1  0  0  0
  6  7  2  0  0  0
  6  8  1  0  0  0
  8  9  1  0  0  0
  9 10  1  0  0  0
 10 11  1  0  0  0
 11 12  1  0  0  0
 11 13  1  0  0  0
 13 14  2  0  0  0
 14 15  1  0  0  0
 15 19  1  0  0  0
 19 20  1  0  0  0
 20 21  1  0  0  0
 20 22  2  0  0  0
 15 16  2  0  0  0
 16 17  1  0  0  0
 17 18  1  0  0  0
 41 36  1  0  0  0
 28 24  1  0  0  0
  5  1  1  0  0  0
 12  8  1  0  0  0
 17 13  1  0  0  0
 30 31  1  0  0  0
 19 23  1  0  0  0
M  END
> <minimizedAffinity>
-9.07129

> <CNNscore>
0.3837427795

> <CNNaffinity>
6.6688718796

> <CNN_VS>
2.5591313839

> <CNNaffinity_variance>
0.0464283898

$$$$
[H]c1nc(C(=O)N2C([H])([H])C([H])([H])C([H])(c3c([H])c(N([H])C(=O)C([H])([H])[H])nn3C([H])([H])[H])C2([H])[H])sc1-c1nn(C([H])([H])[H])c(N([H])S(=O)(=O)c2c([H])c([H])c(C([H])([H])[H])c([H])c2[H])c1[H]


 41 45  0  0  0  0  0  0  0  0999 V2000
  154.5763  138.4770  186.3796 C   0  0  0  0  0  0  0  0  0  0  0  0
  153.3970  138.1781  187.0199 C   0  0  0  0  0  0  0  0  0  0  0  0
  153.4436  137.5538  188.1411 N   0  0  0  0  0  0  0  0  0  0  0  0
  154.6182  137.2085  188.6625 C   0  0  0  0  0  0  0  0  0  0  0  0
  155.7061  137.8006  187.5011 S   0  0  0  0  0  0  0  0  0  0  0  0
  154.8287  136.5026  189.8978 C   0  0  0  0  0  0  0  0  0  0  0  0
  155.4735  137.0959  190.8292 O   0  0  0  0  0  0  0  0  0  0  0  0
  154.3615  135.1773  190.1523 N   0  0  0  0  0  0  0  0  0  0  0  0
  153.6353  134.3162  189.2597 C   0  0  0  0  0  0  0  0  0  0  0  0
  153.7508  132.9227  189.7777 C   0  0  0  0  0  0  0  0  0  0  0  0
  154.7448  133.0645  190.9395 C   0  0  0  0  0  0  0  0  0  0  0  0
  154.5269  134.4498  191.4095 C   0  0  0  0  0  0  0  0  0  0  0  0
  154.5185  131.9715  191.8671 C   0  0  0  0  0  0  0  0  0  0  0  0
  153.4957  132.0427  192.8339 C   0  0  0  0  0  0  0  0  0  0  0  0
  153.4818  130.8860  193.5785 C   0  0  0  0  0  0  0  0  0  0  0  0
  154.4637  130.1376  193.0796 N   0  0  0  0  0  0  0  0  0  0  0  0
  155.0716  130.7880  192.0672 N   0  0  0  0  0  0  0  0  0  0  0  0
  156.1741  130.2417  191.3070 C   0  0  0  0  0  0  0  0  0  0  0  0
  152.5806  130.5994  194.6516 N   0  0  0  0  0  0  0  0  0  0  0  0
  151.3595  129.9171  194.4283 C   0  0  0  0  0  0  0  0  0  0  0  0
  150.9137  129.4520  193.1036 C   0  0  0  0  0  0  0  0  0  0  0  0
  150.6197  129.7021  195.4323 O   0  0  0  0  0  0  0  0  0  0  0  0
  152.8446  130.9091  195.6307 H   0  0  0  0  0  0  0  0  0  0  0  0
  155.7691  140.3008  183.4424 C   0  0  0  0  0  0  0  0  0  0  0  0
  155.9695  139.7480  184.7083 C   0  0  0  0  0  0  0  0  0  0  0  0
  154.7993  139.1624  185.1238 C   0  0  0  0  0  0  0  0  0  0  0  0
  153.9203  139.3500  184.1517 N   0  0  0  0  0  0  0  0  0  0  0  0
  154.4917  140.0313  183.1393 N   0  0  0  0  0  0  0  0  0  0  0  0
  153.7957  140.4037  181.9129 C   0  0  0  0  0  0  0  0  0  0  0  0
  156.7073  140.9945  182.6452 N   0  0  0  0  0  0  0  0  0  0  0  0
  156.4162  141.8372  182.0836 H   0  0  0  0  0  0  0  0  0  0  0  0
  158.3606  140.4378  182.6019 S   0  0  0  0  0  0  0  0  0  0  0  0
  158.9439  140.8037  181.2512 O   0  0  0  0  0  0  0  0  0  0  0  0
  158.3613  138.9517  182.6906 O   0  0  0  0  0  0  0  0  0  0  0  0
  161.6056  143.0306  186.8989 C   0  0  0  0  0  0  0  0  0  0  0  0
  160.7616  142.3779  185.8457 C   0  0  0  0  0  0  0  0  0  0  0  0
  159.4510  141.9986  186.0983 C   0  0  0  0  0  0  0  0  0  0  0  0
  158.7053  141.4016  185.1084 C   0  0  0  0  0  0  0  0  0  0  0  0
  159.2705  141.1867  183.8744 C   0  0  0  0  0  0  0  0  0  0  0  0
  160.5756  141.5692  183.6370 C   0  0  0  0  0  0  0  0  0  0  0  0
  161.3081  142.1594  184.6204 C   0  0  0  0  0  0  0  0  0  0  0  0
 35 36  1  0  0  0
 36 37  2  0  0  0
 37 38  1  0  0  0
 38 39  2  0  0  0
 39 40  1  0  0  0
 40 41  2  0  0  0
 39 32  1  0  0  0
 32 33  2  0  0  0
 32 34  2  0  0  0
 32 30  1  0  0  0
 30 24  1  0  0  0
 24 25  2  0  0  0
 25 26  1  0  0  0
 26 27  2  0  0  0
 27 28  1  0  0  0
 28 29  1  0  0  0
 26  1  1  0  0  0
  1  2  2  0  0  0
  2  3  1  0  0  0
  3  4  2  0  0  0
  4  5  1  0  0  0
  4  6  1  0  0  0
  6  7  2  0  0  0
  6  8  1  0  0  0
  8  9  1  0  0  0
  9 10  1  0  0  0
 10 11  1  0  0  0
 11 12  1  0  0  0
 11 13  1  0  0  0
 13 14  2  0  0  0
 14 15  1  0  0  0
 15 19  1  0  0  0
 19 20  1  0  0  0
 20 21  1  0  0  0
 20 22  2  0  0  0
 15 16  2  0  0  0
 16 17  1  0  0  0
 17 18  1  0  0  0
 41 36  1  0  0  0
 28 24  1  0  0  0
  5  1  1  0  0  0
 12  8  1  0  0  0
 17 13  1  0  0  0
 30 31  1  0  0  0
 19 23  1  0  0  0
M  END
> <minimizedAffinity>
-7.56680

> <CNNscore>
0.3678350151

> <CNNaffinity>
6.5791845322

> <CNN_VS>
2.4200544357

> <CNNaffinity_variance>
0.0917989686

$$$$
[H]c1nc(C(=O)N2C([H])([H])C([H])([H])C([H])(c3c([H])c(N([H])C(=O)C([H])([H])[H])nn3C([H])([H])[H])C2([H])[H])sc1-c1nn(C([H])([H])[H])c(N([H])S(=O)(=O)c2c([H])c([H])c(C([H])([H])[H])c([H])c2[H])c1[H]


 41 45  0  0  0  0  0  0  0  0999 V2000
  155.1123  138.1443  185.8312 C   0  0  0  0  0  0  0  0  0  0  0  0
  154.2781  137.0533  185.7688 C   0  0  0  0  0  0  0  0  0  0  0  0
  154.2393  136.2471  186.7676 N   0  0  0  0  0  0  0  0  0  0  0  0
  154.9977  136.4752  187.8370 C   0  0  0  0  0  0  0  0  0  0  0  0
  155.8031  137.9042  187.3986 S   0  0  0  0  0  0  0  0  0  0  0  0
  155.0690  135.6621  189.0212 C   0  0  0  0  0  0  0  0  0  0  0  0
  156.0997  134.9229  189.1842 O   0  0  0  0  0  0  0  0  0  0  0  0
  154.0595  135.6276  190.0308 N   0  0  0  0  0  0  0  0  0  0  0  0
  152.8188  136.3524  190.0564 C   0  0  0  0  0  0  0  0  0  0  0  0
  151.9225  135.6853  191.0438 C   0  0  0  0  0  0  0  0  0  0  0  0
  152.7126  134.4288  191.4376 C   0  0  0  0  0  0  0  0  0  0  0  0
  154.1219  134.8413  191.2617 C   0  0  0  0  0  0  0  0  0  0  0  0
  152.2700  134.0079  192.7541 C   0  0  0  0  0  0  0  0  0  0  0  0
  152.0782  132.6438  193.0514 C   0  0  0  0  0  0  0  0  0  0  0  0
  151.6688  132.5083  194.3578 C   0  0  0  0  0  0  0  0  0  0  0  0
  151.6143  133.7494  194.8373 N   0  0  0  0  0  0  0  0  0  0  0  0
  151.9719  134.6301  193.8813 N   0  0  0  0  0  0  0  0  0  0  0  0
  152.0255  136.0610  194.0852 C   0  0  0  0  0  0  0  0  0  0  0  0
  151.3766  131.2708  195.0128 N   0  0  0  0  0  0  0  0  0  0  0  0
  150.1676  130.5739  194.7693 C   0  0  0  0  0  0  0  0  0  0  0  0
  149.1239  131.0469  193.8437 C   0  0  0  0  0  0  0  0  0  0  0  0
  149.9874  129.4852  195.3889 O   0  0  0  0  0  0  0  0  0  0  0  0
  152.0890  130.8770  195.6922 H   0  0  0  0  0  0  0  0  0  0  0  0
  156.3103  140.8202  183.6447 C   0  0  0  0  0  0  0  0  0  0  0  0
  156.4989  139.9085  184.6847 C   0  0  0  0  0  0  0  0  0  0  0  0
  155.3414  139.1907  184.8570 C   0  0  0  0  0  0  0  0  0  0  0  0
  154.4811  139.6454  183.9592 N   0  0  0  0  0  0  0  0  0  0  0  0
  155.0522  140.6222  183.2276 N   0  0  0  0  0  0  0  0  0  0  0  0
  154.3742  141.3363  182.1517 C   0  0  0  0  0  0  0  0  0  0  0  0
  157.2418  141.7524  183.1347 N   0  0  0  0  0  0  0  0  0  0  0  0
  156.9566  142.7493  182.9473 H   0  0  0  0  0  0  0  0  0  0  0  0
  158.8771  141.2319  182.8181 S   0  0  0  0  0  0  0  0  0  0  0  0
  159.3245  141.8581  181.5120 O   0  0  0  0  0  0  0  0  0  0  0  0
  158.8730  139.7568  182.6173 O   0  0  0  0  0  0  0  0  0  0  0  0
  162.5734  142.9367  187.1941 C   0  0  0  0  0  0  0  0  0  0  0  0
  161.6161  142.5134  186.1207 C   0  0  0  0  0  0  0  0  0  0  0  0
  160.2500  142.4435  186.3533 C   0  0  0  0  0  0  0  0  0  0  0  0
  159.4004  142.0506  185.3453 C   0  0  0  0  0  0  0  0  0  0  0  0
  159.9176  141.7302  184.1131 C   0  0  0  0  0  0  0  0  0  0  0  0
  161.2790  141.8042  183.8958 C   0  0  0  0  0  0  0  0  0  0  0  0
  162.1143  142.1937  184.8970 C   0  0  0  0  0  0  0  0  0  0  0  0
 35 36  1  0  0  0
 36 37  2  0  0  0
 37 38  1  0  0  0
 38 39  2  0  0  0
 39 40  1  0  0  0
 40 41  2  0  0  0
 39 32  1  0  0  0
 32 33  2  0  0  0
 32 34  2  0  0  0
 32 30  1  0  0  0
 30 24  1  0  0  0
 24 25  2  0  0  0
 25 26  1  0  0  0
 26 27  2  0  0  0
 27 28  1  0  0  0
 28 29  1  0  0  0
 26  1  1  0  0  0
  1  2  2  0  0  0
  2  3  1  0  0  0
  3  4  2  0  0  0
  4  5  1  0  0  0
  4  6  1  0  0  0
  6  7  2  0  0  0
  6  8  1  0  0  0
  8  9  1  0  0  0
  9 10  1  0  0  0
 10 11  1  0  0  0
 11 12  1  0  0  0
 11 13  1  0  0  0
 13 14  2  0  0  0
 14 15  1  0  0  0
 15 19  1  0  0  0
 19 20  1  0  0  0
 20 21  1  0  0  0
 20 22  2  0  0  0
 15 16  2  0  0  0
 16 17  1  0  0  0
 17 18  1  0  0  0
 41 36  1  0  0  0
 28 24  1  0  0  0
  5  1  1  0  0  0
 12  8  1  0  0  0
 17 13  1  0  0  0
 30 31  1  0  0  0
 19 23  1  0  0  0
M  END
> <minimizedAffinity>
-8.81391

> <CNNscore>
0.3337894678

> <CNNaffinity>
6.5868568420

> <CNN_VS>
2.1986234188

> <CNNaffinity_variance>
0.0968402922

$$$$
[H]c1nc(C(=O)N2C([H])([H])C([H])([H])C([H])(c3c([H])c(N([H])C(=O)C([H])([H])[H])nn3C([H])([H])[H])C2([H])[H])sc1-c1nn(C([H])([H])[H])c(N([H])S(=O)(=O)c2c([H])c([H])c(C([H])([H])[H])c([H])c2[H])c1[H]


 41 45  0  0  0  0  0  0  0  0999 V2000
  154.9552  138.6245  185.8489 C   0  0  0  0  0  0  0  0  0  0  0  0
  153.8326  138.1565  186.4898 C   0  0  0  0  0  0  0  0  0  0  0  0
  153.9749  137.4916  187.5793 N   0  0  0  0  0  0  0  0  0  0  0  0
  155.1920  137.2670  188.0678 C   0  0  0  0  0  0  0  0  0  0  0  0
  156.1790  138.0386  186.9217 S   0  0  0  0  0  0  0  0  0  0  0  0
  155.5090  136.5357  189.2651 C   0  0  0  0  0  0  0  0  0  0  0  0
  155.1167  137.0127  190.3848 O   0  0  0  0  0  0  0  0  0  0  0  0
  156.2354  135.3063  189.2837 N   0  0  0  0  0  0  0  0  0  0  0  0
  156.7851  134.5946  188.1627 C   0  0  0  0  0  0  0  0  0  0  0  0
  157.8027  133.6383  188.6856 C   0  0  0  0  0  0  0  0  0  0  0  0
  157.8895  134.0024  190.1748 C   0  0  0  0  0  0  0  0  0  0  0  0
  156.5389  134.5221  190.4797 C   0  0  0  0  0  0  0  0  0  0  0  0
  158.3673  132.8394  190.8997 C   0  0  0  0  0  0  0  0  0  0  0  0
  158.0567  132.6578  192.2622 C   0  0  0  0  0  0  0  0  0  0  0  0
  158.6155  131.4837  192.7115 C   0  0  0  0  0  0  0  0  0  0  0  0
  159.2443  130.9699  191.6562 N   0  0  0  0  0  0  0  0  0  0  0  0
  159.0919  131.7789  190.5885 N   0  0  0  0  0  0  0  0  0  0  0  0
  159.6470  131.5002  189.2824 C   0  0  0  0  0  0  0  0  0  0  0  0
  158.5119  130.9702  194.0425 N   0  0  0  0  0  0  0  0  0  0  0  0
  157.3638  130.2610  194.4731 C   0  0  0  0  0  0  0  0  0  0  0  0
  156.1980  129.9940  193.6133 C   0  0  0  0  0  0  0  0  0  0  0  0
  157.3528  129.8391  195.6662 O   0  0  0  0  0  0  0  0  0  0  0  0
  159.3193  131.1300  194.7109 H   0  0  0  0  0  0  0  0  0  0  0  0
  155.9135  140.4573  182.8326 C   0  0  0  0  0  0  0  0  0  0  0  0
  156.2328  139.7143  183.9702 C   0  0  0  0  0  0  0  0  0  0  0  0
  155.0706  139.3887  184.6245 C   0  0  0  0  0  0  0  0  0  0  0  0
  154.0821  139.9115  183.9157 N   0  0  0  0  0  0  0  0  0  0  0  0
  154.5768  140.5541  182.8396 N   0  0  0  0  0  0  0  0  0  0  0  0
  153.7532  141.2416  181.8517 C   0  0  0  0  0  0  0  0  0  0  0  0
  156.8029  140.9933  181.8741 N   0  0  0  0  0  0  0  0  0  0  0  0
  157.0763  140.4348  181.0234 H   0  0  0  0  0  0  0  0  0  0  0  0
  157.4453  142.5977  182.1159 S   0  0  0  0  0  0  0  0  0  0  0  0
  156.3871  143.4264  182.8172 O   0  0  0  0  0  0  0  0  0  0  0  0
  157.6763  143.2199  180.7834 O   0  0  0  0  0  0  0  0  0  0  0  0
  162.4001  142.4664  185.4552 C   0  0  0  0  0  0  0  0  0  0  0  0
  161.1599  142.4607  184.6129 C   0  0  0  0  0  0  0  0  0  0  0  0
  160.6559  141.2868  184.0715 C   0  0  0  0  0  0  0  0  0  0  0  0
  159.5155  141.3185  183.3028 C   0  0  0  0  0  0  0  0  0  0  0  0
  158.8857  142.5191  183.0789 C   0  0  0  0  0  0  0  0  0  0  0  0
  159.3983  143.6795  183.6238 C   0  0  0  0  0  0  0  0  0  0  0  0
  160.5267  143.6415  184.3834 C   0  0  0  0  0  0  0  0  0  0  0  0
 35 36  1  0  0  0
 36 37  2  0  0  0
 37 38  1  0  0  0
 38 39  2  0  0  0
 39 40  1  0  0  0
 40 41  2  0  0  0
 39 32  1  0  0  0
 32 33  2  0  0  0
 32 34  2  0  0  0
 32 30  1  0  0  0
 30 24  1  0  0  0
 24 25  2  0  0  0
 25 26  1  0  0  0
 26 27  2  0  0  0
 27 28  1  0  0  0
 28 29  1  0  0  0
 26  1  1  0  0  0
  1  2  2  0  0  0
  2  3  1  0  0  0
  3  4  2  0  0  0
  4  5  1  0  0  0
  4  6  1  0  0  0
  6  7  2  0  0  0
  6  8  1  0  0  0
  8  9  1  0  0  0
  9 10  1  0  0  0
 10 11  1  0  0  0
 11 12  1  0  0  0
 11 13  1  0  0  0
 13 14  2  0  0  0
 14 15  1  0  0  0
 15 19  1  0  0  0
 19 20  1  0  0  0
 20 21  1  0  0  0
 20 22  2  0  0  0
 15 16  2  0  0  0
 16 17  1  0  0  0
 17 18  1  0  0  0
 41 36  1  0  0  0
 28 24  1  0  0  0
  5  1  1  0  0  0
 12  8  1  0  0  0
 17 13  1  0  0  0
 30 31  1  0  0  0
 19 23  1  0  0  0
M  END
> <minimizedAffinity>
-8.39076

> <CNNscore>
0.3028792441

> <CNNaffinity>
6.6952629089

> <CNN_VS>
2.0278561115

> <CNNaffinity_variance>
0.0575999916

$$$$
[H]c1nc(C(=O)N2C([H])([H])C([H])([H])C([H])(c3c([H])c(N([H])C(=O)C([H])([H])[H])nn3C([H])([H])[H])C2([H])[H])sc1-c1nn(C([H])([H])[H])c(N([H])S(=O)(=O)c2c([H])c([H])c(C([H])([H])[H])c([H])c2[H])c1[H]


 41 45  0  0  0  0  0  0  0  0999 V2000
  154.8324  137.9898  186.4548 C   0  0  0  0  0  0  0  0  0  0  0  0
  153.7554  137.6186  187.2245 C   0  0  0  0  0  0  0  0  0  0  0  0
  153.9624  136.9144  188.2783 N   0  0  0  0  0  0  0  0  0  0  0  0
  155.2012  136.5573  188.6076 C   0  0  0  0  0  0  0  0  0  0  0  0
  156.1129  137.2573  187.3578 S   0  0  0  0  0  0  0  0  0  0  0  0
  155.5871  135.7668  189.7455 C   0  0  0  0  0  0  0  0  0  0  0  0
  155.2864  136.1999  190.9106 O   0  0  0  0  0  0  0  0  0  0  0  0
  156.2860  134.5246  189.6576 N   0  0  0  0  0  0  0  0  0  0  0  0
  156.7384  133.8543  188.4696 C   0  0  0  0  0  0  0  0  0  0  0  0
  157.7698  132.8566  188.8750 C   0  0  0  0  0  0  0  0  0  0  0  0
  157.9709  133.1512  190.3685 C   0  0  0  0  0  0  0  0  0  0  0  0
  156.6572  133.6816  190.7930 C   0  0  0  0  0  0  0  0  0  0  0  0
  158.4740  131.9480  191.0052 C   0  0  0  0  0  0  0  0  0  0  0  0
  159.8247  131.5689  190.8717 C   0  0  0  0  0  0  0  0  0  0  0  0
  160.0500  130.4059  191.5711 C   0  0  0  0  0  0  0  0  0  0  0  0
  158.8746  130.0899  192.1114 N   0  0  0  0  0  0  0  0  0  0  0  0
  157.9480  131.0082  191.7712 N   0  0  0  0  0  0  0  0  0  0  0  0
  156.5694  130.9588  192.2055 C   0  0  0  0  0  0  0  0  0  0  0  0
  161.3028  129.7222  191.6647 N   0  0  0  0  0  0  0  0  0  0  0  0
  162.1585  129.8980  192.7799 C   0  0  0  0  0  0  0  0  0  0  0  0
  161.8472  130.7800  193.9178 C   0  0  0  0  0  0  0  0  0  0  0  0
  163.2485  129.2550  192.7853 O   0  0  0  0  0  0  0  0  0  0  0  0
  161.5849  129.0720  190.8762 H   0  0  0  0  0  0  0  0  0  0  0  0
  155.6059  139.9735  183.4812 C   0  0  0  0  0  0  0  0  0  0  0  0
  155.9938  139.2840  184.6311 C   0  0  0  0  0  0  0  0  0  0  0  0
  154.8734  138.7708  185.2363 C   0  0  0  0  0  0  0  0  0  0  0  0
  153.8435  139.1321  184.4868 N   0  0  0  0  0  0  0  0  0  0  0  0
  154.2720  139.8533  183.4323 N   0  0  0  0  0  0  0  0  0  0  0  0
  153.3897  140.4057  182.4108 C   0  0  0  0  0  0  0  0  0  0  0  0
  156.4359  140.6523  182.5607 N   0  0  0  0  0  0  0  0  0  0  0  0
  156.8262  140.1524  181.7192 H   0  0  0  0  0  0  0  0  0  0  0  0
  156.8080  142.3352  182.8342 S   0  0  0  0  0  0  0  0  0  0  0  0
  155.6280  142.9672  183.5459 O   0  0  0  0  0  0  0  0  0  0  0  0
  156.9361  143.0113  181.5141 O   0  0  0  0  0  0  0  0  0  0  0  0
  161.6908  142.7216  186.2585 C   0  0  0  0  0  0  0  0  0  0  0  0
  160.4820  142.6501  185.3746 C   0  0  0  0  0  0  0  0  0  0  0  0
  160.3953  143.3879  184.2028 C   0  0  0  0  0  0  0  0  0  0  0  0
  159.2707  143.2983  183.4157 C   0  0  0  0  0  0  0  0  0  0  0  0
  158.2407  142.4745  183.8016 C   0  0  0  0  0  0  0  0  0  0  0  0
  158.3404  141.7460  184.9702 C   0  0  0  0  0  0  0  0  0  0  0  0
  159.4557  141.8390  185.7444 C   0  0  0  0  0  0  0  0  0  0  0  0
 35 36  1  0  0  0
 36 37  2  0  0  0
 37 38  1  0  0  0
 38 39  2  0  0  0
 39 40  1  0  0  0
 40 41  2  0  0  0
 39 32  1  0  0  0
 32 33  2  0  0  0
 32 34  2  0  0  0
 32 30  1  0  0  0
 30 24  1  0  0  0
 24 25  2  0  0  0
 25 26  1  0  0  0
 26 27  2  0  0  0
 27 28  1  0  0  0
 28 29  1  0  0  0
 26  1  1  0  0  0
  1  2  2  0  0  0
  2  3  1  0  0  0
  3  4  2  0  0  0
  4  5  1  0  0  0
  4  6  1  0  0  0
  6  7  2  0  0  0
  6  8  1  0  0  0
  8  9  1  0  0  0
  9 10  1  0  0  0
 10 11  1  0  0  0
 11 12  1  0  0  0
 11 13  1  0  0  0
 13 14  2  0  0  0
 14 15  1  0  0  0
 15 19  1  0  0  0
 19 20  1  0  0  0
 20 21  1  0  0  0
 20 22  2  0  0  0
 15 16  2  0  0  0
 16 17  1  0  0  0
 17 18  1  0  0  0
 41 36  1  0  0  0
 28 24  1  0  0  0
  5  1  1  0  0  0
 12  8  1  0  0  0
 17 13  1  0  0  0
 30 31  1  0  0  0
 19 23  1  0  0  0
M  END
> <minimizedAffinity>
-8.48002

> <CNNscore>
0.2801283896

> <CNNaffinity>
6.5336942673

> <CNN_VS>
1.8302732706

> <CNNaffinity_variance>
0.0806278661

$$$$
[H]c1nc(C(=O)N2C([H])([H])C([H])([H])C([H])(c3c([H])c(N([H])C(=O)C([H])([H])[H])nn3C([H])([H])[H])C2([H])[H])sc1-c1nn(C([H])([H])[H])c(N([H])S(=O)(=O)c2c([H])c([H])c(C([H])([H])[H])c([H])c2[H])c1[H]


 41 45  0  0  0  0  0  0  0  0999 V2000
  154.0607  137.9956  185.6884 C   0  0  0  0  0  0  0  0  0  0  0  0
  153.2926  137.4400  186.6841 C   0  0  0  0  0  0  0  0  0  0  0  0
  153.8735  137.0114  187.7462 N   0  0  0  0  0  0  0  0  0  0  0  0
  155.1950  137.1092  187.8679 C   0  0  0  0  0  0  0  0  0  0  0  0
  155.6296  137.8457  186.4010 S   0  0  0  0  0  0  0  0  0  0  0  0
  155.9835  136.6680  188.9869 C   0  0  0  0  0  0  0  0  0  0  0  0
  156.4103  137.5497  189.8089 O   0  0  0  0  0  0  0  0  0  0  0  0
  156.3208  135.3036  189.2404 N   0  0  0  0  0  0  0  0  0  0  0  0
  155.9705  134.1524  188.4547 C   0  0  0  0  0  0  0  0  0  0  0  0
  156.8834  133.0400  188.8454 C   0  0  0  0  0  0  0  0  0  0  0  0
  157.8793  133.7238  189.7932 C   0  0  0  0  0  0  0  0  0  0  0  0
  157.0872  134.8219  190.3884 C   0  0  0  0  0  0  0  0  0  0  0  0
  158.4373  132.7129  190.6724 C   0  0  0  0  0  0  0  0  0  0  0  0
  158.0536  132.6395  192.0264 C   0  0  0  0  0  0  0  0  0  0  0  0
  158.7128  131.5984  192.6382 C   0  0  0  0  0  0  0  0  0  0  0  0
  159.4712  131.0579  191.6865 N   0  0  0  0  0  0  0  0  0  0  0  0
  159.3016  131.7238  190.5266 N   0  0  0  0  0  0  0  0  0  0  0  0
  159.9773  131.3794  189.2952 C   0  0  0  0  0  0  0  0  0  0  0  0
  158.5754  131.2201  194.0107 N   0  0  0  0  0  0  0  0  0  0  0  0
  157.5319  130.3636  194.4398 C   0  0  0  0  0  0  0  0  0  0  0  0
  156.5154  129.7979  193.5363 C   0  0  0  0  0  0  0  0  0  0  0  0
  157.4823  130.0769  195.6714 O   0  0  0  0  0  0  0  0  0  0  0  0
  159.2769  131.5951  194.7118 H   0  0  0  0  0  0  0  0  0  0  0  0
  152.7730  138.7764  182.3555 C   0  0  0  0  0  0  0  0  0  0  0  0
  152.9507  137.9011  183.4281 C   0  0  0  0  0  0  0  0  0  0  0  0
  153.6614  138.5459  184.4100 C   0  0  0  0  0  0  0  0  0  0  0  0
  153.9077  139.7648  183.9556 N   0  0  0  0  0  0  0  0  0  0  0  0
  153.3794  139.9130  182.7250 N   0  0  0  0  0  0  0  0  0  0  0  0
  153.4726  141.1391  181.9408 C   0  0  0  0  0  0  0  0  0  0  0  0
  152.0981  138.5255  181.1396 N   0  0  0  0  0  0  0  0  0  0  0  0
  152.5596  137.9673  180.3742 H   0  0  0  0  0  0  0  0  0  0  0  0
  150.4845  139.1524  180.9194 S   0  0  0  0  0  0  0  0  0  0  0  0
  150.5768  140.3922  180.0518 O   0  0  0  0  0  0  0  0  0  0  0  0
  149.9602  139.5836  182.2443 O   0  0  0  0  0  0  0  0  0  0  0  0
  147.0893  134.9368  178.3856 C   0  0  0  0  0  0  0  0  0  0  0  0
  147.9258  136.0206  178.9968 C   0  0  0  0  0  0  0  0  0  0  0  0
  147.8598  137.3305  178.5440 C   0  0  0  0  0  0  0  0  0  0  0  0
  148.6421  138.2997  179.1279 C   0  0  0  0  0  0  0  0  0  0  0  0
  149.4843  137.9572  180.1583 C   0  0  0  0  0  0  0  0  0  0  0  0
  149.5397  136.6498  180.5987 C   0  0  0  0  0  0  0  0  0  0  0  0
  148.7633  135.6956  180.0170 C   0  0  0  0  0  0  0  0  0  0  0  0
 35 36  1  0  0  0
 36 37  2  0  0  0
 37 38  1  0  0  0
 38 39  2  0  0  0
 39 40  1  0  0  0
 40 41  2  0  0  0
 39 32  1  0  0  0
 32 33  2  0  0  0
 32 34  2  0  0  0
 32 30  1  0  0  0
 30 24  1  0  0  0
 24 25  2  0  0  0
 25 26  1  0  0  0
 26 27  2  0  0  0
 27 28  1  0  0  0
 28 29  1  0  0  0
 26  1  1  0  0  0
  1  2  2  0  0  0
  2  3  1  0  0  0
  3  4  2  0  0  0
  4  5  1  0  0  0
  4  6  1  0  0  0
  6  7  2  0  0  0
  6  8  1  0  0  0
  8  9  1  0  0  0
  9 10  1  0  0  0
 10 11  1  0  0  0
 11 12  1  0  0  0
 11 13  1  0  0  0
 13 14  2  0  0  0
 14 15  1  0  0  0
 15 19  1  0  0  0
 19 20  1  0  0  0
 20 21  1  0  0  0
 20 22  2  0  0  0
 15 16  2  0  0  0
 16 17  1  0  0  0
 17 18  1  0  0  0
 41 36  1  0  0  0
 28 24  1  0  0  0
  5  1  1  0  0  0
 12  8  1  0  0  0
 17 13  1  0  0  0
 30 31  1  0  0  0
 19 23  1  0  0  0
M  END
> <minimizedAffinity>
-6.34863

> <CNNscore>
0.2615874112

> <CNNaffinity>
5.6660914421

> <CNN_VS>
1.4821782112

> <CNNaffinity_variance>
0.0640831143

$$$$
[H]c1nc(C(=O)N2C([H])([H])C([H])([H])C([H])(c3c([H])c(N([H])C(=O)C([H])([H])[H])nn3C([H])([H])[H])C2([H])[H])sc1-c1nn(C([H])([H])[H])c(N([H])S(=O)(=O)c2c([H])c([H])c(C([H])([H])[H])c([H])c2[H])c1[H]


 41 45  0  0  0  0  0  0  0  0999 V2000
  153.9109  138.4847  185.9292 C   0  0  0  0  0  0  0  0  0  0  0  0
  153.0772  138.5559  187.0200 C   0  0  0  0  0  0  0  0  0  0  0  0
  153.4743  138.0575  188.1349 N   0  0  0  0  0  0  0  0  0  0  0  0
  154.6729  137.4856  188.2191 C   0  0  0  0  0  0  0  0  0  0  0  0
  155.2607  137.6664  186.6364 S   0  0  0  0  0  0  0  0  0  0  0  0
  155.2484  136.8794  189.3896 C   0  0  0  0  0  0  0  0  0  0  0  0
  155.5167  137.6316  190.3883 O   0  0  0  0  0  0  0  0  0  0  0  0
  155.5396  135.4864  189.5088 N   0  0  0  0  0  0  0  0  0  0  0  0
  155.3410  134.4607  188.5220 C   0  0  0  0  0  0  0  0  0  0  0  0
  156.1728  133.2864  188.9127 C   0  0  0  0  0  0  0  0  0  0  0  0
  156.9789  133.8134  190.1087 C   0  0  0  0  0  0  0  0  0  0  0  0
  156.0883  134.8366  190.6979 C   0  0  0  0  0  0  0  0  0  0  0  0
  157.3729  132.6804  190.9257 C   0  0  0  0  0  0  0  0  0  0  0  0
  158.7307  132.3353  191.0780 C   0  0  0  0  0  0  0  0  0  0  0  0
  158.8396  131.2385  191.9013 C   0  0  0  0  0  0  0  0  0  0  0  0
  157.5890  130.9286  192.2375 N   0  0  0  0  0  0  0  0  0  0  0  0
  156.7279  131.7873  191.6556 N   0  0  0  0  0  0  0  0  0  0  0  0
  155.2931  131.7283  191.8281 C   0  0  0  0  0  0  0  0  0  0  0  0
  160.0636  130.6045  192.2830 N   0  0  0  0  0  0  0  0  0  0  0  0
  160.5069  130.6045  193.6284 C   0  0  0  0  0  0  0  0  0  0  0  0
  159.7689  131.2425  194.7320 C   0  0  0  0  0  0  0  0  0  0  0  0
  161.6004  130.0200  193.8819 O   0  0  0  0  0  0  0  0  0  0  0  0
  160.6417  130.1271  191.5334 H   0  0  0  0  0  0  0  0  0  0  0  0
  153.1170  139.0799  182.4090 C   0  0  0  0  0  0  0  0  0  0  0  0
  153.1181  138.2714  183.5468 C   0  0  0  0  0  0  0  0  0  0  0  0
  153.7081  138.9611  184.5770 C   0  0  0  0  0  0  0  0  0  0  0  0
  154.0532  140.1422  184.0884 N   0  0  0  0  0  0  0  0  0  0  0  0
  153.7033  140.2234  182.7897 N   0  0  0  0  0  0  0  0  0  0  0  0
  153.9421  141.3941  181.9534 C   0  0  0  0  0  0  0  0  0  0  0  0
  152.6070  138.7673  181.1287 N   0  0  0  0  0  0  0  0  0  0  0  0
  153.1844  138.2171  180.4401 H   0  0  0  0  0  0  0  0  0  0  0  0
  151.0030  139.3044  180.6996 S   0  0  0  0  0  0  0  0  0  0  0  0
  150.7036  138.8143  179.2966 O   0  0  0  0  0  0  0  0  0  0  0  0
  150.9995  140.7923  180.6534 O   0  0  0  0  0  0  0  0  0  0  0  0
  146.9396  137.2204  184.5550 C   0  0  0  0  0  0  0  0  0  0  0  0
  147.9783  137.7095  183.5908 C   0  0  0  0  0  0  0  0  0  0  0  0
  149.0589  136.9193  183.2260 C   0  0  0  0  0  0  0  0  0  0  0  0
  149.9937  137.4003  182.3388 C   0  0  0  0  0  0  0  0  0  0  0  0
  149.8453  138.6648  181.8215 C   0  0  0  0  0  0  0  0  0  0  0  0
  148.7651  139.4401  182.1934 C   0  0  0  0  0  0  0  0  0  0  0  0
  147.8438  138.9585  183.0714 C   0  0  0  0  0  0  0  0  0  0  0  0
 35 36  1  0  0  0
 36 37  2  0  0  0
 37 38  1  0  0  0
 38 39  2  0  0  0
 39 40  1  0  0  0
 40 41  2  0  0  0
 39 32  1  0  0  0
 32 33  2  0  0  0
 32 34  2  0  0  0
 32 30  1  0  0  0
 30 24  1  0  0  0
 24 25  2  0  0  0
 25 26  1  0  0  0
 26 27  2  0  0  0
 27 28  1  0  0  0
 28 29  1  0  0  0
 26  1  1  0  0  0
  1  2  2  0  0  0
  2  3  1  0  0  0
  3  4  2  0  0  0
  4  5  1  0  0  0
  4  6  1  0  0  0
  6  7  2  0  0  0
  6  8  1  0  0  0
  8  9  1  0  0  0
  9 10  1  0  0  0
 10 11  1  0  0  0
 11 12  1  0  0  0
 11 13  1  0  0  0
 13 14  2  0  0  0
 14 15  1  0  0  0
 15 19  1  0  0  0
 19 20  1  0  0  0
 20 21  1  0  0  0
 20 22  2  0  0  0
 15 16  2  0  0  0
 16 17  1  0  0  0
 17 18  1  0  0  0
 41 36  1  0  0  0
 28 24  1  0  0  0
  5  1  1  0  0  0
 12  8  1  0  0  0
 17 13  1  0  0  0
 30 31  1  0  0  0
 19 23  1  0  0  0
M  END
> <minimizedAffinity>
-6.53394

> <CNNscore>
0.2377156913

> <CNNaffinity>
5.8736495972

> <CNN_VS>
1.3962587118

> <CNNaffinity_variance>
0.1531411856

$$$$
[H]c1nc(C(=O)N2C([H])([H])C([H])([H])C([H])(c3c([H])c(N([H])C(=O)C([H])([H])[H])nn3C([H])([H])[H])C2([H])[H])sc1-c1nn(C([H])([H])[H])c(N([H])S(=O)(=O)c2c([H])c([H])c(C([H])([H])[H])c([H])c2[H])c1[H]


 41 45  0  0  0  0  0  0  0  0999 V2000
  154.1537  138.4718  186.1920 C   0  0  0  0  0  0  0  0  0  0  0  0
  153.0708  138.4299  187.0378 C   0  0  0  0  0  0  0  0  0  0  0  0
  153.1958  137.8433  188.1733 N   0  0  0  0  0  0  0  0  0  0  0  0
  154.3576  137.2903  188.5125 C   0  0  0  0  0  0  0  0  0  0  0  0
  155.3157  137.6215  187.1504 S   0  0  0  0  0  0  0  0  0  0  0  0
  154.6458  136.5950  189.7381 C   0  0  0  0  0  0  0  0  0  0  0  0
  154.8497  137.2899  190.7921 O   0  0  0  0  0  0  0  0  0  0  0  0
  154.7182  135.1735  189.8543 N   0  0  0  0  0  0  0  0  0  0  0  0
  154.5426  134.1979  188.8138 C   0  0  0  0  0  0  0  0  0  0  0  0
  155.1291  132.9128  189.2914 C   0  0  0  0  0  0  0  0  0  0  0  0
  155.7952  133.3061  190.6178 C   0  0  0  0  0  0  0  0  0  0  0  0
  154.9710  134.4386  191.0925 C   0  0  0  0  0  0  0  0  0  0  0  0
  155.8906  132.1192  191.4477 C   0  0  0  0  0  0  0  0  0  0  0  0
  157.1389  131.5239  191.7187 C   0  0  0  0  0  0  0  0  0  0  0  0
  156.9617  130.4265  192.5291 C   0  0  0  0  0  0  0  0  0  0  0  0
  155.6492  130.3584  192.7429 N   0  0  0  0  0  0  0  0  0  0  0  0
  155.0234  131.3642  192.0992 N   0  0  0  0  0  0  0  0  0  0  0  0
  153.5934  131.5772  192.1374 C   0  0  0  0  0  0  0  0  0  0  0  0
  158.0032  129.5728  193.0111 N   0  0  0  0  0  0  0  0  0  0  0  0
  159.0647  130.0771  193.8020 C   0  0  0  0  0  0  0  0  0  0  0  0
  159.1932  131.4920  194.1911 C   0  0  0  0  0  0  0  0  0  0  0  0
  159.9451  129.2545  194.1889 O   0  0  0  0  0  0  0  0  0  0  0  0
  157.9677  128.5422  192.7646 H   0  0  0  0  0  0  0  0  0  0  0  0
  155.0743  140.1645  183.0834 C   0  0  0  0  0  0  0  0  0  0  0  0
  155.3509  139.7675  184.3926 C   0  0  0  0  0  0  0  0  0  0  0  0
  154.2770  139.0613  184.8752 C   0  0  0  0  0  0  0  0  0  0  0  0
  153.3812  139.0285  183.9008 N   0  0  0  0  0  0  0  0  0  0  0  0
  153.8496  139.6869  182.8225 N   0  0  0  0  0  0  0  0  0  0  0  0
  153.1086  139.8385  181.5755 C   0  0  0  0  0  0  0  0  0  0  0  0
  155.9035  140.9080  182.2136 N   0  0  0  0  0  0  0  0  0  0  0  0
  156.1567  140.5333  181.2618 H   0  0  0  0  0  0  0  0  0  0  0  0
  156.5053  142.4607  182.7354 S   0  0  0  0  0  0  0  0  0  0  0  0
  155.6082  142.9613  183.8503 O   0  0  0  0  0  0  0  0  0  0  0  0
  156.3765  143.4214  181.6055 O   0  0  0  0  0  0  0  0  0  0  0  0
  162.1457  142.0576  184.6697 C   0  0  0  0  0  0  0  0  0  0  0  0
  160.7271  142.1202  184.1885 C   0  0  0  0  0  0  0  0  0  0  0  0
  159.9468  140.9780  184.0799 C   0  0  0  0  0  0  0  0  0  0  0  0
  158.6488  141.0721  183.6342 C   0  0  0  0  0  0  0  0  0  0  0  0
  158.1376  142.3031  183.2999 C   0  0  0  0  0  0  0  0  0  0  0  0
  158.9254  143.4313  183.4128 C   0  0  0  0  0  0  0  0  0  0  0  0
  160.2087  143.3316  183.8544 C   0  0  0  0  0  0  0  0  0  0  0  0
 35 36  1  0  0  0
 36 37  2  0  0  0
 37 38  1  0  0  0
 38 39  2  0  0  0
 39 40  1  0  0  0
 40 41  2  0  0  0
 39 32  1  0  0  0
 32 33  2  0  0  0
 32 34  2  0  0  0
 32 30  1  0  0  0
 30 24  1  0  0  0
 24 25  2  0  0  0
 25 26  1  0  0  0
 26 27  2  0  0  0
 27 28  1  0  0  0
 28 29  1  0  0  0
 26  1  1  0  0  0
  1  2  2  0  0  0
  2  3  1  0  0  0
  3  4  2  0  0  0
  4  5  1  0  0  0
  4  6  1  0  0  0
  6  7  2  0  0  0
  6  8  1  0  0  0
  8  9  1  0  0  0
  9 10  1  0  0  0
 10 11  1  0  0  0
 11 12  1  0  0  0
 11 13  1  0  0  0
 13 14  2  0  0  0
 14 15  1  0  0  0
 15 19  1  0  0  0
 19 20  1  0  0  0
 20 21  1  0  0  0
 20 22  2  0  0  0
 15 16  2  0  0  0
 16 17  1  0  0  0
 17 18  1  0  0  0
 41 36  1  0  0  0
 28 24  1  0  0  0
  5  1  1  0  0  0
 12  8  1  0  0  0
 17 13  1  0  0  0
 30 31  1  0  0  0
 19 23  1  0  0  0
M  END
> <minimizedAffinity>
-7.38336

> <CNNscore>
0.2301335335

> <CNNaffinity>
6.5223608017

> <CNN_VS>
1.5010139942

> <CNNaffinity_variance>
0.2048964053

$$$$
[H]c1nc(C([H])(c2c([H])c([H])c(C([H])([H])N([H])C(=O)c3sc(N4C([H])([H])C([H])([H])OC([H])([H])C4([H])[H])nc3C([H])([H])[H])c([H])c2Cl)N([H])[H])c([H])c([H])c1C(F)(F)F


 38 41  0  0  0  0  0  0  0  0999 V2000
  156.6716  141.4198  183.2136 C   0  0  0  0  0  0  0  0  0  0  0  0
  157.0213  140.1530  183.7042 C   0  0  0  0  0  0  0  0  0  0  0  0
  156.0450  139.2119  184.0587 C   0  0  0  0  0  0  0  0  0  0  0  0
  154.7198  139.4781  183.9471 C   0  0  0  0  0  0  0  0  0  0  0  0
  154.3733  140.7608  183.4498 C   0  0  0  0  0  0  0  0  0  0  0  0
  155.3282  141.6896  183.1015 C   0  0  0  0  0  0  0  0  0  0  0  0
  154.7878  143.2840  182.5459 Cl  0  0  0  0  0  0  0  0  0  0  0  0
  158.2688  142.1221  181.4947 N   0  0  0  0  0  0  0  0  0  0  0  0
  157.7185  142.3884  182.8115 C   0  0  0  0  0  0  0  0  0  0  0  0
  159.2783  141.8867  181.4943 H   0  0  0  0  0  0  0  0  0  0  0  0
  157.6423  141.4494  181.0149 H   0  0  0  0  0  0  0  0  0  0  0  0
  158.7928  142.5693  183.8215 C   0  0  0  0  0  0  0  0  0  0  0  0
  159.8451  143.4265  183.6322 C   0  0  0  0  0  0  0  0  0  0  0  0
  160.8583  143.6021  184.5749 C   0  0  0  0  0  0  0  0  0  0  0  0
  160.8374  142.9042  185.7546 C   0  0  0  0  0  0  0  0  0  0  0  0
  159.7564  142.0343  185.9317 C   0  0  0  0  0  0  0  0  0  0  0  0
  158.8131  141.8988  185.0072 N   0  0  0  0  0  0  0  0  0  0  0  0
  161.8361  143.0243  186.8412 C   0  0  0  0  0  0  0  0  0  0  0  0
  161.5558  142.2115  187.9024 F   0  0  0  0  0  0  0  0  0  0  0  0
  163.0923  142.6391  186.3624 F   0  0  0  0  0  0  0  0  0  0  0  0
  161.9861  144.3135  187.3128 F   0  0  0  0  0  0  0  0  0  0  0  0
  153.5760  138.5824  184.2688 C   0  0  0  0  0  0  0  0  0  0  0  0
  153.3250  138.5363  185.7239 N   0  0  0  0  0  0  0  0  0  0  0  0
  153.7410  137.4830  186.5066 C   0  0  0  0  0  0  0  0  0  0  0  0
  154.3273  136.4917  185.8519 O   0  0  0  0  0  0  0  0  0  0  0  0
  152.7890  139.3686  186.1006 H   0  0  0  0  0  0  0  0  0  0  0  0
  153.6206  137.2717  187.9429 C   0  0  0  0  0  0  0  0  0  0  0  0
  152.2402  136.5138  188.7402 S   0  0  0  0  0  0  0  0  0  0  0  0
  152.8131  136.5295  190.3338 C   0  0  0  0  0  0  0  0  0  0  0  0
  153.9911  137.0862  190.2031 N   0  0  0  0  0  0  0  0  0  0  0  0
  154.4251  137.4666  189.0264 C   0  0  0  0  0  0  0  0  0  0  0  0
  155.8342  138.0473  188.9240 C   0  0  0  0  0  0  0  0  0  0  0  0
  152.2009  136.0845  191.5458 N   0  0  0  0  0  0  0  0  0  0  0  0
  151.1487  136.8430  192.1873 C   0  0  0  0  0  0  0  0  0  0  0  0
  151.7218  137.1860  193.5724 C   0  0  0  0  0  0  0  0  0  0  0  0
  152.0296  135.9851  194.1723 O   0  0  0  0  0  0  0  0  0  0  0  0
  153.0569  135.2795  193.5906 C   0  0  0  0  0  0  0  0  0  0  0  0
  152.6519  134.8702  192.1769 C   0  0  0  0  0  0  0  0  0  0  0  0
  8  9  1  0  0  0
  9  1  1  0  0  0
  1  2  2  0  0  0
  2  3  1  0  0  0
  3  4  2  0  0  0
  4 22  1  0  0  0
 22 23  1  0  0  0
 23 24  1  0  0  0
 24 25  2  0  0  0
 24 27  1  0  0  0
 27 28  1  0  0  0
 28 29  1  0  0  0
 29 30  2  0  0  0
 30 31  1  0  0  0
 31 32  1  0  0  0
 29 33  1  0  0  0
 33 34  1  0  0  0
 34 35  1  0  0  0
 35 36  1  0  0  0
 36 37  1  0  0  0
 37 38  1  0  0  0
  4  5  1  0  0  0
  5  6  2  0  0  0
  6  7  1  0  0  0
  9 12  1  0  0  0
 12 13  2  0  0  0
 13 14  1  0  0  0
 14 15  2  0  0  0
 15 16  1  0  0  0
 16 17  2  0  0  0
 15 18  1  0  0  0
 18 19  1  0  0  0
 18 20  1  0  0  0
 18 21  1  0  0  0
  6  1  1  0  0  0
 17 12  1  0  0  0
 31 27  2  0  0  0
 38 33  1  0  0  0
  8 10  1  0  0  0
  8 11  1  0  0  0
 23 26  1  0  0  0
M  END
> <minimizedAffinity>
-9.41229

> <CNNscore>
0.3455552161

> <CNNaffinity>
6.5866217613

> <CNN_VS>
2.2760415077

> <CNNaffinity_variance>
0.0800901875

$$$$
[H]c1nc(C([H])(c2c([H])c([H])c(C([H])([H])N([H])C(=O)c3sc(N4C([H])([H])C([H])([H])OC([H])([H])C4([H])[H])nc3C([H])([H])[H])c([H])c2Cl)N([H])[H])c([H])c([H])c1C(F)(F)F


 38 41  0  0  0  0  0  0  0  0999 V2000
  157.0009  140.9142  183.7089 C   0  0  0  0  0  0  0  0  0  0  0  0
  157.2206  139.7546  184.4670 C   0  0  0  0  0  0  0  0  0  0  0  0
  156.1536  138.9896  184.9578 C   0  0  0  0  0  0  0  0  0  0  0  0
  154.8615  139.3314  184.7266 C   0  0  0  0  0  0  0  0  0  0  0  0
  154.6467  140.5049  183.9588 C   0  0  0  0  0  0  0  0  0  0  0  0
  155.6911  141.2608  183.4756 C   0  0  0  0  0  0  0  0  0  0  0  0
  155.3127  142.7413  182.5768 Cl  0  0  0  0  0  0  0  0  0  0  0  0
  158.6933  141.1256  181.9510 N   0  0  0  0  0  0  0  0  0  0  0  0
  158.1422  141.6904  183.1697 C   0  0  0  0  0  0  0  0  0  0  0  0
  159.6761  140.8070  182.0354 H   0  0  0  0  0  0  0  0  0  0  0  0
  158.0170  140.4297  181.5852 H   0  0  0  0  0  0  0  0  0  0  0  0
  159.2068  141.9698  184.1674 C   0  0  0  0  0  0  0  0  0  0  0  0
  158.9433  142.1165  185.5043 C   0  0  0  0  0  0  0  0  0  0  0  0
  159.9366  142.3795  186.4478 C   0  0  0  0  0  0  0  0  0  0  0  0
  161.2458  142.5048  186.0610 C   0  0  0  0  0  0  0  0  0  0  0  0
  161.4969  142.3516  184.6935 C   0  0  0  0  0  0  0  0  0  0  0  0
  160.5201  142.1011  183.8300 N   0  0  0  0  0  0  0  0  0  0  0  0
  162.3890  142.7545  186.9682 C   0  0  0  0  0  0  0  0  0  0  0  0
  163.5942  142.5275  186.3669 F   0  0  0  0  0  0  0  0  0  0  0  0
  162.3847  144.0961  187.3629 F   0  0  0  0  0  0  0  0  0  0  0  0
  162.3416  142.0137  188.1327 F   0  0  0  0  0  0  0  0  0  0  0  0
  153.6330  138.6172  185.1674 C   0  0  0  0  0  0  0  0  0  0  0  0
  153.4948  138.6473  186.6380 N   0  0  0  0  0  0  0  0  0  0  0  0
  153.8489  137.5783  187.4297 C   0  0  0  0  0  0  0  0  0  0  0  0
  154.2646  136.5048  186.7740 O   0  0  0  0  0  0  0  0  0  0  0  0
  153.0886  139.5481  187.0194 H   0  0  0  0  0  0  0  0  0  0  0  0
  153.8197  137.4286  188.8784 C   0  0  0  0  0  0  0  0  0  0  0  0
  152.4967  136.7003  189.7923 S   0  0  0  0  0  0  0  0  0  0  0  0
  153.1678  136.7869  191.3447 C   0  0  0  0  0  0  0  0  0  0  0  0
  154.3317  137.3421  191.1169 N   0  0  0  0  0  0  0  0  0  0  0  0
  154.6889  137.6731  189.9001 C   0  0  0  0  0  0  0  0  0  0  0  0
  156.0849  138.2545  189.6850 C   0  0  0  0  0  0  0  0  0  0  0  0
  152.6354  136.3921  192.6105 N   0  0  0  0  0  0  0  0  0  0  0  0
  153.1895  135.2808  193.3534 C   0  0  0  0  0  0  0  0  0  0  0  0
  152.0192  134.2916  193.4812 C   0  0  0  0  0  0  0  0  0  0  0  0
  151.0035  134.9731  194.1142 O   0  0  0  0  0  0  0  0  0  0  0  0
  150.4455  136.0044  193.3955 C   0  0  0  0  0  0  0  0  0  0  0  0
  151.4982  137.0847  193.1613 C   0  0  0  0  0  0  0  0  0  0  0  0
  8  9  1  0  0  0
  9  1  1  0  0  0
  1  2  2  0  0  0
  2  3  1  0  0  0
  3  4  2  0  0  0
  4 22  1  0  0  0
 22 23  1  0  0  0
 23 24  1  0  0  0
 24 25  2  0  0  0
 24 27  1  0  0  0
 27 28  1  0  0  0
 28 29  1  0  0  0
 29 30  2  0  0  0
 30 31  1  0  0  0
 31 32  1  0  0  0
 29 33  1  0  0  0
 33 34  1  0  0  0
 34 35  1  0  0  0
 35 36  1  0  0  0
 36 37  1  0  0  0
 37 38  1  0  0  0
  4  5  1  0  0  0
  5  6  2  0  0  0
  6  7  1  0  0  0
  9 12  1  0  0  0
 12 13  2  0  0  0
 13 14  1  0  0  0
 14 15  2  0  0  0
 15 16  1  0  0  0
 16 17  2  0  0  0
 15 18  1  0  0  0
 18 19  1  0  0  0
 18 20  1  0  0  0
 18 21  1  0  0  0
  6  1  1  0  0  0
 17 12  1  0  0  0
 31 27  2  0  0  0
 38 33  1  0  0  0
  8 10  1  0  0  0
  8 11  1  0  0  0
 23 26  1  0  0  0
M  END
> <minimizedAffinity>
-9.77844

> <CNNscore>
0.3095769882

> <CNNaffinity>
6.5761575699

> <CNN_VS>
2.0358271599

> <CNNaffinity_variance>
0.1194434017

$$$$
[H]c1nc(C([H])(c2c([H])c([H])c(C([H])([H])N([H])C(=O)c3sc(N4C([H])([H])C([H])([H])OC([H])([H])C4([H])[H])nc3C([H])([H])[H])c([H])c2Cl)N([H])[H])c([H])c([H])c1C(F)(F)F


 38 41  0  0  0  0  0  0  0  0999 V2000
  151.8728  135.4171  183.3770 C   0  0  0  0  0  0  0  0  0  0  0  0
  153.2174  135.5705  183.0081 C   0  0  0  0  0  0  0  0  0  0  0  0
  154.1346  136.2220  183.8441 C   0  0  0  0  0  0  0  0  0  0  0  0
  153.7692  136.7356  185.0452 C   0  0  0  0  0  0  0  0  0  0  0  0
  152.4081  136.5764  185.4121 C   0  0  0  0  0  0  0  0  0  0  0  0
  151.5027  135.9386  184.5940 C   0  0  0  0  0  0  0  0  0  0  0  0
  149.8128  135.8450  185.1215 Cl  0  0  0  0  0  0  0  0  0  0  0  0
  151.5252  133.5545  181.8249 N   0  0  0  0  0  0  0  0  0  0  0  0
  150.9263  134.6948  182.4949 C   0  0  0  0  0  0  0  0  0  0  0  0
  151.5524  133.6332  180.7916 H   0  0  0  0  0  0  0  0  0  0  0  0
  152.4276  133.3457  182.2913 H   0  0  0  0  0  0  0  0  0  0  0  0
  150.2076  135.5715  181.5348 C   0  0  0  0  0  0  0  0  0  0  0  0
  150.3484  136.9348  181.5345 C   0  0  0  0  0  0  0  0  0  0  0  0
  149.6771  137.7655  180.6372 C   0  0  0  0  0  0  0  0  0  0  0  0
  148.8296  137.2340  179.6999 C   0  0  0  0  0  0  0  0  0  0  0  0
  148.6981  135.8414  179.7139 C   0  0  0  0  0  0  0  0  0  0  0  0
  149.3573  135.0885  180.5863 N   0  0  0  0  0  0  0  0  0  0  0  0
  148.0851  138.0062  178.6793 C   0  0  0  0  0  0  0  0  0  0  0  0
  147.1773  138.8646  179.2310 F   0  0  0  0  0  0  0  0  0  0  0  0
  148.9808  138.7888  177.9437 F   0  0  0  0  0  0  0  0  0  0  0  0
  147.4262  137.2139  177.7599 F   0  0  0  0  0  0  0  0  0  0  0  0
  154.6258  137.4366  186.0395 C   0  0  0  0  0  0  0  0  0  0  0  0
  154.4375  136.8801  187.3951 N   0  0  0  0  0  0  0  0  0  0  0  0
  153.8932  137.6184  188.4215 C   0  0  0  0  0  0  0  0  0  0  0  0
  153.6074  138.8766  188.1207 O   0  0  0  0  0  0  0  0  0  0  0  0
  154.7704  135.8808  187.5063 H   0  0  0  0  0  0  0  0  0  0  0  0
  153.5992  137.2439  189.7982 C   0  0  0  0  0  0  0  0  0  0  0  0
  152.1772  136.3353  190.3163 S   0  0  0  0  0  0  0  0  0  0  0  0
  152.5341  136.2028  191.9665 C   0  0  0  0  0  0  0  0  0  0  0  0
  153.6812  136.8279  192.0567 N   0  0  0  0  0  0  0  0  0  0  0  0
  154.2407  137.3570  190.9961 C   0  0  0  0  0  0  0  0  0  0  0  0
  155.6111  138.0142  191.1484 C   0  0  0  0  0  0  0  0  0  0  0  0
  151.7979  135.5968  193.0307 N   0  0  0  0  0  0  0  0  0  0  0  0
  152.3578  134.5262  193.8271 C   0  0  0  0  0  0  0  0  0  0  0  0
  151.4009  133.3448  193.5968 C   0  0  0  0  0  0  0  0  0  0  0  0
  150.1524  133.7760  193.9870 O   0  0  0  0  0  0  0  0  0  0  0  0
  149.5982  134.7651  193.2085 C   0  0  0  0  0  0  0  0  0  0  0  0
  150.4515  136.0266  193.3111 C   0  0  0  0  0  0  0  0  0  0  0  0
  8  9  1  0  0  0
  9  1  1  0  0  0
  1  2  2  0  0  0
  2  3  1  0  0  0
  3  4  2  0  0  0
  4 22  1  0  0  0
 22 23  1  0  0  0
 23 24  1  0  0  0
 24 25  2  0  0  0
 24 27  1  0  0  0
 27 28  1  0  0  0
 28 29  1  0  0  0
 29 30  2  0  0  0
 30 31  1  0  0  0
 31 32  1  0  0  0
 29 33  1  0  0  0
 33 34  1  0  0  0
 34 35  1  0  0  0
 35 36  1  0  0  0
 36 37  1  0  0  0
 37 38  1  0  0  0
  4  5  1  0  0  0
  5  6  2  0  0  0
  6  7  1  0  0  0
  9 12  1  0  0  0
 12 13  2  0  0  0
 13 14  1  0  0  0
 14 15  2  0  0  0
 15 16  1  0  0  0
 16 17  2  0  0  0
 15 18  1  0  0  0
 18 19  1  0  0  0
 18 20  1  0  0  0
 18 21  1  0  0  0
  6  1  1  0  0  0
 17 12  1  0  0  0
 31 27  2  0  0  0
 38 33  1  0  0  0
  8 10  1  0  0  0
  8 11  1  0  0  0
 23 26  1  0  0  0
M  END
> <minimizedAffinity>
-6.01428

> <CNNscore>
0.2184146345

> <CNNaffinity>
5.5696516037

> <CNN_VS>
1.2164933681

> <CNNaffinity_variance>
0.1145383939

$$$$
[H]c1nc(C([H])(c2c([H])c([H])c(C([H])([H])N([H])C(=O)c3sc(N4C([H])([H])C([H])([H])OC([H])([H])C4([H])[H])nc3C([H])([H])[H])c([H])c2Cl)N([H])[H])c([H])c([H])c1C(F)(F)F


 38 41  0  0  0  0  0  0  0  0999 V2000
  154.4896  138.3280  186.1512 C   0  0  0  0  0  0  0  0  0  0  0  0
  155.8398  138.3168  186.5313 C   0  0  0  0  0  0  0  0  0  0  0  0
  156.2218  138.1131  187.8643 C   0  0  0  0  0  0  0  0  0  0  0  0
  155.3094  137.9190  188.8490 C   0  0  0  0  0  0  0  0  0  0  0  0
  153.9459  137.9310  188.4575 C   0  0  0  0  0  0  0  0  0  0  0  0
  153.5651  138.1321  187.1497 C   0  0  0  0  0  0  0  0  0  0  0  0
  151.8328  138.1869  186.7769 Cl  0  0  0  0  0  0  0  0  0  0  0  0
  154.2712  137.3071  183.9355 N   0  0  0  0  0  0  0  0  0  0  0  0
  154.1071  138.5103  184.7312 C   0  0  0  0  0  0  0  0  0  0  0  0
  154.9698  137.3914  183.1744 H   0  0  0  0  0  0  0  0  0  0  0  0
  154.3961  136.5077  184.5842 H   0  0  0  0  0  0  0  0  0  0  0  0
  154.7469  139.6823  184.0800 C   0  0  0  0  0  0  0  0  0  0  0  0
  154.0940  140.8741  183.9030 C   0  0  0  0  0  0  0  0  0  0  0  0
  154.6868  141.9793  183.2921 C   0  0  0  0  0  0  0  0  0  0  0  0
  155.9771  141.9102  182.8340 C   0  0  0  0  0  0  0  0  0  0  0  0
  156.6287  140.6870  183.0232 C   0  0  0  0  0  0  0  0  0  0  0  0
  156.0257  139.6605  183.6109 N   0  0  0  0  0  0  0  0  0  0  0  0
  156.7224  143.0194  182.1964 C   0  0  0  0  0  0  0  0  0  0  0  0
  155.9748  144.1569  182.0848 F   0  0  0  0  0  0  0  0  0  0  0  0
  157.8327  143.3452  182.9818 F   0  0  0  0  0  0  0  0  0  0  0  0
  157.2180  142.7045  180.9465 F   0  0  0  0  0  0  0  0  0  0  0  0
  155.5613  137.6786  190.2956 C   0  0  0  0  0  0  0  0  0  0  0  0
  156.2943  136.4138  190.5085 N   0  0  0  0  0  0  0  0  0  0  0  0
  155.6590  135.2536  190.8899 C   0  0  0  0  0  0  0  0  0  0  0  0
  154.3575  135.3694  191.1083 O   0  0  0  0  0  0  0  0  0  0  0  0
  157.3404  136.4854  190.3586 H   0  0  0  0  0  0  0  0  0  0  0  0
  156.1934  133.9171  191.1141 C   0  0  0  0  0  0  0  0  0  0  0  0
  157.8769  133.5541  191.5016 S   0  0  0  0  0  0  0  0  0  0  0  0
  157.7477  131.8773  191.6998 C   0  0  0  0  0  0  0  0  0  0  0  0
  156.4749  131.6654  191.4761 N   0  0  0  0  0  0  0  0  0  0  0  0
  155.6721  132.6590  191.1832 C   0  0  0  0  0  0  0  0  0  0  0  0
  154.1850  132.3624  190.9996 C   0  0  0  0  0  0  0  0  0  0  0  0
  158.7421  130.8986  192.0082 N   0  0  0  0  0  0  0  0  0  0  0  0
  158.8959  130.3688  193.3460 C   0  0  0  0  0  0  0  0  0  0  0  0
  160.3320  130.7514  193.7404 C   0  0  0  0  0  0  0  0  0  0  0  0
  161.1567  130.1930  192.7891 O   0  0  0  0  0  0  0  0  0  0  0  0
  161.0435  130.7215  191.5244 C   0  0  0  0  0  0  0  0  0  0  0  0
  159.6444  130.4405  190.9826 C   0  0  0  0  0  0  0  0  0  0  0  0
  8  9  1  0  0  0
  9  1  1  0  0  0
  1  2  2  0  0  0
  2  3  1  0  0  0
  3  4  2  0  0  0
  4 22  1  0  0  0
 22 23  1  0  0  0
 23 24  1  0  0  0
 24 25  2  0  0  0
 24 27  1  0  0  0
 27 28  1  0  0  0
 28 29  1  0  0  0
 29 30  2  0  0  0
 30 31  1  0  0  0
 31 32  1  0  0  0
 29 33  1  0  0  0
 33 34  1  0  0  0
 34 35  1  0  0  0
 35 36  1  0  0  0
 36 37  1  0  0  0
 37 38  1  0  0  0
  4  5  1  0  0  0
  5  6  2  0  0  0
  6  7  1  0  0  0
  9 12  1  0  0  0
 12 13  2  0  0  0
 13 14  1  0  0  0
 14 15  2  0  0  0
 15 16  1  0  0  0
 16 17  2  0  0  0
 15 18  1  0  0  0
 18 19  1  0  0  0
 18 20  1  0  0  0
 18 21  1  0  0  0
  6  1  1  0  0  0
 17 12  1  0  0  0
 31 27  2  0  0  0
 38 33  1  0  0  0
  8 10  1  0  0  0
  8 11  1  0  0  0
 23 26  1  0  0  0
M  END
> <minimizedAffinity>
-6.94104

> <CNNscore>
0.2154786140

> <CNNaffinity>
5.8932557106

> <CNN_VS>
1.2698705196

> <CNNaffinity_variance>
0.0310675446

$$$$
[H]c1nc(C([H])(c2c([H])c([H])c(C([H])([H])N([H])C(=O)c3sc(N4C([H])([H])C([H])([H])OC([H])([H])C4([H])[H])nc3C([H])([H])[H])c([H])c2Cl)N([H])[H])c([H])c([H])c1C(F)(F)F


 38 41  0  0  0  0  0  0  0  0999 V2000
  153.6036  139.7660  183.1927 C   0  0  0  0  0  0  0  0  0  0  0  0
  154.5495  139.8026  184.2279 C   0  0  0  0  0  0  0  0  0  0  0  0
  154.6405  138.7700  185.1713 C   0  0  0  0  0  0  0  0  0  0  0  0
  153.8214  137.6897  185.1316 C   0  0  0  0  0  0  0  0  0  0  0  0
  152.8675  137.6589  184.0819 C   0  0  0  0  0  0  0  0  0  0  0  0
  152.7729  138.6713  183.1535 C   0  0  0  0  0  0  0  0  0  0  0  0
  151.5072  138.5630  181.9169 Cl  0  0  0  0  0  0  0  0  0  0  0  0
  153.1469  140.3872  180.8680 N   0  0  0  0  0  0  0  0  0  0  0  0
  153.5461  140.8506  182.1847 C   0  0  0  0  0  0  0  0  0  0  0  0
  153.8703  140.5093  180.1357 H   0  0  0  0  0  0  0  0  0  0  0  0
  152.7550  139.4324  180.9688 H   0  0  0  0  0  0  0  0  0  0  0  0
  154.7782  141.6777  182.1177 C   0  0  0  0  0  0  0  0  0  0  0  0
  154.8315  142.9603  182.5975 C   0  0  0  0  0  0  0  0  0  0  0  0
  155.9839  143.7442  182.5382 C   0  0  0  0  0  0  0  0  0  0  0  0
  157.1340  143.2467  181.9822 C   0  0  0  0  0  0  0  0  0  0  0  0
  157.0622  141.9363  181.4980 C   0  0  0  0  0  0  0  0  0  0  0  0
  155.9435  141.2256  181.5758 N   0  0  0  0  0  0  0  0  0  0  0  0
  158.4235  143.9681  181.8868 C   0  0  0  0  0  0  0  0  0  0  0  0
  159.3515  143.5015  182.7737 F   0  0  0  0  0  0  0  0  0  0  0  0
  158.9637  143.7875  180.6095 F   0  0  0  0  0  0  0  0  0  0  0  0
  158.3067  145.3328  182.0625 F   0  0  0  0  0  0  0  0  0  0  0  0
  153.8073  136.5176  186.0481 C   0  0  0  0  0  0  0  0  0  0  0  0
  154.8717  135.5537  185.7009 N   0  0  0  0  0  0  0  0  0  0  0  0
  154.6118  134.3920  185.0096 C   0  0  0  0  0  0  0  0  0  0  0  0
  153.3346  134.1750  184.7325 O   0  0  0  0  0  0  0  0  0  0  0  0
  155.8363  135.8275  186.0424 H   0  0  0  0  0  0  0  0  0  0  0  0
  155.5165  133.3468  184.5502 C   0  0  0  0  0  0  0  0  0  0  0  0
  155.6667  132.8043  182.8772 S   0  0  0  0  0  0  0  0  0  0  0  0
  156.9152  131.6774  183.0751 C   0  0  0  0  0  0  0  0  0  0  0  0
  157.1643  131.7567  184.3582 N   0  0  0  0  0  0  0  0  0  0  0  0
  156.4873  132.5789  185.1221 C   0  0  0  0  0  0  0  0  0  0  0  0
  156.8670  132.6790  186.5982 C   0  0  0  0  0  0  0  0  0  0  0  0
  157.5523  130.8200  182.1260 N   0  0  0  0  0  0  0  0  0  0  0  0
  158.8619  131.1222  181.5898 C   0  0  0  0  0  0  0  0  0  0  0  0
  158.6283  131.2539  180.0757 C   0  0  0  0  0  0  0  0  0  0  0  0
  158.0860  130.0574  179.6619 O   0  0  0  0  0  0  0  0  0  0  0  0
  156.8241  129.7846  180.1360 C   0  0  0  0  0  0  0  0  0  0  0  0
  156.8755  129.6385  181.6546 C   0  0  0  0  0  0  0  0  0  0  0  0
  8  9  1  0  0  0
  9  1  1  0  0  0
  1  2  2  0  0  0
  2  3  1  0  0  0
  3  4  2  0  0  0
  4 22  1  0  0  0
 22 23  1  0  0  0
 23 24  1  0  0  0
 24 25  2  0  0  0
 24 27  1  0  0  0
 27 28  1  0  0  0
 28 29  1  0  0  0
 29 30  2  0  0  0
 30 31  1  0  0  0
 31 32  1  0  0  0
 29 33  1  0  0  0
 33 34  1  0  0  0
 34 35  1  0  0  0
 35 36  1  0  0  0
 36 37  1  0  0  0
 37 38  1  0  0  0
  4  5  1  0  0  0
  5  6  2  0  0  0
  6  7  1  0  0  0
  9 12  1  0  0  0
 12 13  2  0  0  0
 13 14  1  0  0  0
 14 15  2  0  0  0
 15 16  1  0  0  0
 16 17  2  0  0  0
 15 18  1  0  0  0
 18 19  1  0  0  0
 18 20  1  0  0  0
 18 21  1  0  0  0
  6  1  1  0  0  0
 17 12  1  0  0  0
 31 27  2  0  0  0
 38 33  1  0  0  0
  8 10  1  0  0  0
  8 11  1  0  0  0
 23 26  1  0  0  0
M  END
> <minimizedAffinity>
-7.61776

> <CNNscore>
0.2056746185

> <CNNaffinity>
6.0993075371

> <CNN_VS>
1.2544727325

> <CNNaffinity_variance>
0.0404944569

$$$$
[H]c1nc(C([H])(c2c([H])c([H])c(C([H])([H])N([H])C(=O)c3sc(N4C([H])([H])C([H])([H])OC([H])([H])C4([H])[H])nc3C([H])([H])[H])c([H])c2Cl)N([H])[H])c([H])c([H])c1C(F)(F)F


 38 41  0  0  0  0  0  0  0  0999 V2000
  157.3968  141.9430  182.3859 C   0  0  0  0  0  0  0  0  0  0  0  0
  157.4460  140.5756  182.6952 C   0  0  0  0  0  0  0  0  0  0  0  0
  156.2780  139.8373  182.9303 C   0  0  0  0  0  0  0  0  0  0  0  0
  155.0478  140.4056  182.8723 C   0  0  0  0  0  0  0  0  0  0  0  0
  155.0054  141.7885  182.5584 C   0  0  0  0  0  0  0  0  0  0  0  0
  156.1497  142.5188  182.3281 C   0  0  0  0  0  0  0  0  0  0  0  0
  155.9888  144.2538  182.0012 Cl  0  0  0  0  0  0  0  0  0  0  0  0
  159.3636  142.2021  180.9495 N   0  0  0  0  0  0  0  0  0  0  0  0
  158.6406  142.6984  182.1065 C   0  0  0  0  0  0  0  0  0  0  0  0
  160.3059  141.8274  181.1643 H   0  0  0  0  0  0  0  0  0  0  0  0
  158.7310  141.5729  180.4211 H   0  0  0  0  0  0  0  0  0  0  0  0
  159.5353  142.8436  183.2835 C   0  0  0  0  0  0  0  0  0  0  0  0
  160.0215  144.0575  183.6939 C   0  0  0  0  0  0  0  0  0  0  0  0
  160.8624  144.2029  184.7974 C   0  0  0  0  0  0  0  0  0  0  0  0
  161.2433  143.1079  185.5291 C   0  0  0  0  0  0  0  0  0  0  0  0
  160.7376  141.8774  185.0968 C   0  0  0  0  0  0  0  0  0  0  0  0
  159.9388  141.7853  184.0404 N   0  0  0  0  0  0  0  0  0  0  0  0
  162.1056  143.1368  186.7323 C   0  0  0  0  0  0  0  0  0  0  0  0
  162.1508  144.3713  187.3149 F   0  0  0  0  0  0  0  0  0  0  0  0
  161.5928  142.2591  187.6928 F   0  0  0  0  0  0  0  0  0  0  0  0
  163.4018  142.7253  186.4923 F   0  0  0  0  0  0  0  0  0  0  0  0
  153.7273  139.7531  183.0831 C   0  0  0  0  0  0  0  0  0  0  0  0
  153.4707  139.5154  184.5185 N   0  0  0  0  0  0  0  0  0  0  0  0
  153.6829  138.2897  185.1080 C   0  0  0  0  0  0  0  0  0  0  0  0
  154.0752  137.3288  184.2847 O   0  0  0  0  0  0  0  0  0  0  0  0
  153.0985  140.3586  185.0404 H   0  0  0  0  0  0  0  0  0  0  0  0
  153.5240  137.8711  186.4942 C   0  0  0  0  0  0  0  0  0  0  0  0
  154.7594  138.0290  187.7451 S   0  0  0  0  0  0  0  0  0  0  0  0
  153.8770  137.4397  189.0650 C   0  0  0  0  0  0  0  0  0  0  0  0
  152.7175  137.1594  188.5249 N   0  0  0  0  0  0  0  0  0  0  0  0
  152.5070  137.3634  187.2474 C   0  0  0  0  0  0  0  0  0  0  0  0
  151.1145  137.0827  186.6861 C   0  0  0  0  0  0  0  0  0  0  0  0
  154.2584  137.2540  190.4295 N   0  0  0  0  0  0  0  0  0  0  0  0
  155.3712  137.9736  191.0108 C   0  0  0  0  0  0  0  0  0  0  0  0
  156.3470  136.8689  191.4491 C   0  0  0  0  0  0  0  0  0  0  0  0
  155.6508  136.0606  192.3202 O   0  0  0  0  0  0  0  0  0  0  0  0
  154.6178  135.3430  191.7639 C   0  0  0  0  0  0  0  0  0  0  0  0
  153.5503  136.3071  191.2529 C   0  0  0  0  0  0  0  0  0  0  0  0
  8  9  1  0  0  0
  9  1  1  0  0  0
  1  2  2  0  0  0
  2  3  1  0  0  0
  3  4  2  0  0  0
  4 22  1  0  0  0
 22 23  1  0  0  0
 23 24  1  0  0  0
 24 25  2  0  0  0
 24 27  1  0  0  0
 27 28  1  0  0  0
 28 29  1  0  0  0
 29 30  2  0  0  0
 30 31  1  0  0  0
 31 32  1  0  0  0
 29 33  1  0  0  0
 33 34  1  0  0  0
 34 35  1  0  0  0
 35 36  1  0  0  0
 36 37  1  0  0  0
 37 38  1  0  0  0
  4  5  1  0  0  0
  5  6  2  0  0  0
  6  7  1  0  0  0
  9 12  1  0  0  0
 12 13  2  0  0  0
 13 14  1  0  0  0
 14 15  2  0  0  0
 15 16  1  0  0  0
 16 17  2  0  0  0
 15 18  1  0  0  0
 18 19  1  0  0  0
 18 20  1  0  0  0
 18 21  1  0  0  0
  6  1  1  0  0  0
 17 12  1  0  0  0
 31 27  2  0  0  0
 38 33  1  0  0  0
  8 10  1  0  0  0
  8 11  1  0  0  0
 23 26  1  0  0  0
M  END
> <minimizedAffinity>
-9.05811

> <CNNscore>
0.2007938325

> <CNNaffinity>
6.8232002258

> <CNN_VS>
1.3700565100

> <CNNaffinity_variance>
0.0201892368

$$$$
[H]c1nc(C([H])(c2c([H])c([H])c(C([H])([H])N([H])C(=O)c3sc(N4C([H])([H])C([H])([H])OC([H])([H])C4([H])[H])nc3C([H])([H])[H])c([H])c2Cl)N([H])[H])c([H])c([H])c1C(F)(F)F


 38 41  0  0  0  0  0  0  0  0999 V2000
  153.8230  140.8933  182.8362 C   0  0  0  0  0  0  0  0  0  0  0  0
  152.8841  140.8759  181.7942 C   0  0  0  0  0  0  0  0  0  0  0  0
  152.2259  139.6952  181.4235 C   0  0  0  0  0  0  0  0  0  0  0  0
  152.4638  138.5159  182.0499 C   0  0  0  0  0  0  0  0  0  0  0  0
  153.4140  138.5409  183.1030 C   0  0  0  0  0  0  0  0  0  0  0  0
  154.0646  139.6975  183.4701 C   0  0  0  0  0  0  0  0  0  0  0  0
  155.2767  139.6075  184.7606 Cl  0  0  0  0  0  0  0  0  0  0  0  0
  153.5671  143.2826  183.3098 N   0  0  0  0  0  0  0  0  0  0  0  0
  154.4828  142.1584  183.2361 C   0  0  0  0  0  0  0  0  0  0  0  0
  153.7717  144.0439  182.6367 H   0  0  0  0  0  0  0  0  0  0  0  0
  152.5995  142.9099  183.2980 H   0  0  0  0  0  0  0  0  0  0  0  0
  155.6864  142.4915  182.4315 C   0  0  0  0  0  0  0  0  0  0  0  0
  156.2355  143.7470  182.4127 C   0  0  0  0  0  0  0  0  0  0  0  0
  157.3650  144.0687  181.6598 C   0  0  0  0  0  0  0  0  0  0  0  0
  157.9813  143.1156  180.8910 C   0  0  0  0  0  0  0  0  0  0  0  0
  157.4082  141.8399  180.9223 C   0  0  0  0  0  0  0  0  0  0  0  0
  156.3322  141.5778  181.6544 N   0  0  0  0  0  0  0  0  0  0  0  0
  159.1978  143.3264  180.0736 C   0  0  0  0  0  0  0  0  0  0  0  0
  159.6321  144.6209  180.1050 F   0  0  0  0  0  0  0  0  0  0  0  0
  160.2393  142.5420  180.5794 F   0  0  0  0  0  0  0  0  0  0  0  0
  159.0463  142.9541  178.7524 F   0  0  0  0  0  0  0  0  0  0  0  0
  151.8382  137.1933  181.7792 C   0  0  0  0  0  0  0  0  0  0  0  0
  152.8191  136.0979  181.9215 N   0  0  0  0  0  0  0  0  0  0  0  0
  152.5205  134.7976  181.5820 C   0  0  0  0  0  0  0  0  0  0  0  0
  151.2760  134.5928  181.1766 O   0  0  0  0  0  0  0  0  0  0  0  0
  153.7540  136.3985  182.3185 H   0  0  0  0  0  0  0  0  0  0  0  0
  153.3500  133.6007  181.6173 C   0  0  0  0  0  0  0  0  0  0  0  0
  154.9024  133.4228  180.7962 S   0  0  0  0  0  0  0  0  0  0  0  0
  155.3098  131.8693  181.3332 C   0  0  0  0  0  0  0  0  0  0  0  0
  154.2892  131.5579  182.0921 N   0  0  0  0  0  0  0  0  0  0  0  0
  153.2964  132.3976  182.2568 C   0  0  0  0  0  0  0  0  0  0  0  0
  152.1655  132.0090  183.2072 C   0  0  0  0  0  0  0  0  0  0  0  0
  156.4481  131.0552  181.0448 N   0  0  0  0  0  0  0  0  0  0  0  0
  157.4026  130.6946  182.0708 C   0  0  0  0  0  0  0  0  0  0  0  0
  158.7322  131.2860  181.5738 C   0  0  0  0  0  0  0  0  0  0  0  0
  158.9638  130.7307  180.3349 O   0  0  0  0  0  0  0  0  0  0  0  0
  158.0834  131.1027  179.3460 C   0  0  0  0  0  0  0  0  0  0  0  0
  156.6858  130.6001  179.6984 C   0  0  0  0  0  0  0  0  0  0  0  0
  8  9  1  0  0  0
  9  1  1  0  0  0
  1  2  2  0  0  0
  2  3  1  0  0  0
  3  4  2  0  0  0
  4 22  1  0  0  0
 22 23  1  0  0  0
 23 24  1  0  0  0
 24 25  2  0  0  0
 24 27  1  0  0  0
 27 28  1  0  0  0
 28 29  1  0  0  0
 29 30  2  0  0  0
 30 31  1  0  0  0
 31 32  1  0  0  0
 29 33  1  0  0  0
 33 34  1  0  0  0
 34 35  1  0  0  0
 35 36  1  0  0  0
 36 37  1  0  0  0
 37 38  1  0  0  0
  4  5  1  0  0  0
  5  6  2  0  0  0
  6  7  1  0  0  0
  9 12  1  0  0  0
 12 13  2  0  0  0
 13 14  1  0  0  0
 14 15  2  0  0  0
 15 16  1  0  0  0
 16 17  2  0  0  0
 15 18  1  0  0  0
 18 19  1  0  0  0
 18 20  1  0  0  0
 18 21  1  0  0  0
  6  1  1  0  0  0
 17 12  1  0  0  0
 31 27  2  0  0  0
 38 33  1  0  0  0
  8 10  1  0  0  0
  8 11  1  0  0  0
 23 26  1  0  0  0
M  END
> <minimizedAffinity>
-7.93041

> <CNNscore>
0.1614710838

> <CNNaffinity>
6.0171828270

> <CNN_VS>
0.9716010094

> <CNNaffinity_variance>
0.2076433152

$$$$
[H]c1nc(C([H])(c2c([H])c([H])c(C([H])([H])N([H])C(=O)c3sc(N4C([H])([H])C([H])([H])OC([H])([H])C4([H])[H])nc3C([H])([H])[H])c([H])c2Cl)N([H])[H])c([H])c([H])c1C(F)(F)F


 38 41  0  0  0  0  0  0  0  0999 V2000
  156.9751  141.2471  183.5716 C   0  0  0  0  0  0  0  0  0  0  0  0
  155.6412  141.6729  183.6548 C   0  0  0  0  0  0  0  0  0  0  0  0
  154.6214  140.8042  184.0672 C   0  0  0  0  0  0  0  0  0  0  0  0
  154.8720  139.5143  184.4034 C   0  0  0  0  0  0  0  0  0  0  0  0
  156.2232  139.0906  184.3175 C   0  0  0  0  0  0  0  0  0  0  0  0
  157.2285  139.9393  183.9115 C   0  0  0  0  0  0  0  0  0  0  0  0
  158.8742  139.2929  183.7826 Cl  0  0  0  0  0  0  0  0  0  0  0  0
  158.5757  141.9182  181.8434 N   0  0  0  0  0  0  0  0  0  0  0  0
  158.0441  142.1901  183.1667 C   0  0  0  0  0  0  0  0  0  0  0  0
  159.5785  141.6558  181.8326 H   0  0  0  0  0  0  0  0  0  0  0  0
  157.9274  141.2656  181.3647 H   0  0  0  0  0  0  0  0  0  0  0  0
  159.1315  142.3354  184.1684 C   0  0  0  0  0  0  0  0  0  0  0  0
  158.9110  142.2234  185.5164 C   0  0  0  0  0  0  0  0  0  0  0  0
  159.9259  142.3590  186.4638 C   0  0  0  0  0  0  0  0  0  0  0  0
  161.2135  142.6168  186.0699 C   0  0  0  0  0  0  0  0  0  0  0  0
  161.4207  142.7274  184.6909 C   0  0  0  0  0  0  0  0  0  0  0  0
  160.4246  142.5904  183.8240 N   0  0  0  0  0  0  0  0  0  0  0  0
  162.3773  142.7533  186.9749 C   0  0  0  0  0  0  0  0  0  0  0  0
  163.5612  142.4820  186.3503 F   0  0  0  0  0  0  0  0  0  0  0  0
  162.4585  144.0726  187.4318 F   0  0  0  0  0  0  0  0  0  0  0  0
  162.2941  141.9627  188.1041 F   0  0  0  0  0  0  0  0  0  0  0  0
  153.9034  138.4850  184.8685 C   0  0  0  0  0  0  0  0  0  0  0  0
  154.5736  137.4456  185.6766 N   0  0  0  0  0  0  0  0  0  0  0  0
  154.5235  137.4408  187.0523 C   0  0  0  0  0  0  0  0  0  0  0  0
  153.8834  138.4651  187.5964 O   0  0  0  0  0  0  0  0  0  0  0  0
  155.1019  136.7246  185.1082 H   0  0  0  0  0  0  0  0  0  0  0  0
  155.0822  136.4979  188.0119 C   0  0  0  0  0  0  0  0  0  0  0  0
  156.7761  136.0053  188.0751 S   0  0  0  0  0  0  0  0  0  0  0  0
  156.7096  135.0018  189.4377 C   0  0  0  0  0  0  0  0  0  0  0  0
  155.4488  135.0800  189.7827 N   0  0  0  0  0  0  0  0  0  0  0  0
  154.6110  135.8172  189.0953 C   0  0  0  0  0  0  0  0  0  0  0  0
  153.1678  135.9251  189.5838 C   0  0  0  0  0  0  0  0  0  0  0  0
  157.7297  134.2292  190.0735 N   0  0  0  0  0  0  0  0  0  0  0  0
  158.8860  133.7534  189.3451 C   0  0  0  0  0  0  0  0  0  0  0  0
  158.8038  132.2226  189.4655 C   0  0  0  0  0  0  0  0  0  0  0  0
  158.8014  131.9397  190.8133 O   0  0  0  0  0  0  0  0  0  0  0  0
  157.6855  132.3537  191.5026 C   0  0  0  0  0  0  0  0  0  0  0  0
  157.6049  133.8775  191.4652 C   0  0  0  0  0  0  0  0  0  0  0  0
  8  9  1  0  0  0
  9  1  1  0  0  0
  1  2  2  0  0  0
  2  3  1  0  0  0
  3  4  2  0  0  0
  4 22  1  0  0  0
 22 23  1  0  0  0
 23 24  1  0  0  0
 24 25  2  0  0  0
 24 27  1  0  0  0
 27 28  1  0  0  0
 28 29  1  0  0  0
 29 30  2  0  0  0
 30 31  1  0  0  0
 31 32  1  0  0  0
 29 33  1  0  0  0
 33 34  1  0  0  0
 34 35  1  0  0  0
 35 36  1  0  0  0
 36 37  1  0  0  0
 37 38  1  0  0  0
  4  5  1  0  0  0
  5  6  2  0  0  0
  6  7  1  0  0  0
  9 12  1  0  0  0
 12 13  2  0  0  0
 13 14  1  0  0  0
 14 15  2  0  0  0
 15 16  1  0  0  0
 16 17  2  0  0  0
 15 18  1  0  0  0
 18 19  1  0  0  0
 18 20  1  0  0  0
 18 21  1  0  0  0
  6  1  1  0  0  0
 17 12  1  0  0  0
 31 27  2  0  0  0
 38 33  1  0  0  0
  8 10  1  0  0  0
  8 11  1  0  0  0
 23 26  1  0  0  0
M  END
> <minimizedAffinity>
-8.76696

> <CNNscore>
0.1606571823

> <CNNaffinity>
6.6297011375

> <CNN_VS>
1.0651091337

> <CNNaffinity_variance>
0.0978781953

$$$$
[H]c1nc(C([H])(c2c([H])c([H])c(C([H])([H])N([H])C(=O)c3sc(N4C([H])([H])C([H])([H])OC([H])([H])C4([H])[H])nc3C([H])([H])[H])c([H])c2Cl)N([H])[H])c([H])c([H])c1C(F)(F)F


 38 41  0  0  0  0  0  0  0  0999 V2000
  153.9561  139.8806  183.2747 C   0  0  0  0  0  0  0  0  0  0  0  0
  154.9676  139.9075  184.2463 C   0  0  0  0  0  0  0  0  0  0  0  0
  155.1073  138.8754  185.1842 C   0  0  0  0  0  0  0  0  0  0  0  0
  154.2746  137.8049  185.2003 C   0  0  0  0  0  0  0  0  0  0  0  0
  153.2544  137.7838  184.2148 C   0  0  0  0  0  0  0  0  0  0  0  0
  153.1117  138.7958  183.2921 C   0  0  0  0  0  0  0  0  0  0  0  0
  151.7673  138.7006  182.1404 Cl  0  0  0  0  0  0  0  0  0  0  0  0
  153.3563  140.5035  180.9832 N   0  0  0  0  0  0  0  0  0  0  0  0
  153.8461  140.9641  182.2700 C   0  0  0  0  0  0  0  0  0  0  0  0
  154.0319  140.6155  180.2051 H   0  0  0  0  0  0  0  0  0  0  0  0
  152.9603  139.5537  181.1117 H   0  0  0  0  0  0  0  0  0  0  0  0
  155.0813  141.7759  182.1208 C   0  0  0  0  0  0  0  0  0  0  0  0
  155.1648  143.0754  182.5481 C   0  0  0  0  0  0  0  0  0  0  0  0
  156.3202  143.8451  182.4115 C   0  0  0  0  0  0  0  0  0  0  0  0
  157.4423  143.3154  181.8286 C   0  0  0  0  0  0  0  0  0  0  0  0
  157.3398  141.9882  181.3989 C   0  0  0  0  0  0  0  0  0  0  0  0
  156.2195  141.2920  181.5497 N   0  0  0  0  0  0  0  0  0  0  0  0
  158.7326  144.0199  181.6529 C   0  0  0  0  0  0  0  0  0  0  0  0
  159.6681  143.6365  182.5712 F   0  0  0  0  0  0  0  0  0  0  0  0
  159.2598  143.7170  180.3935 F   0  0  0  0  0  0  0  0  0  0  0  0
  158.6211  145.3956  181.6992 F   0  0  0  0  0  0  0  0  0  0  0  0
  154.3062  136.6346  186.1187 C   0  0  0  0  0  0  0  0  0  0  0  0
  153.2327  135.6721  185.7965 N   0  0  0  0  0  0  0  0  0  0  0  0
  152.0749  135.5905  186.5366 C   0  0  0  0  0  0  0  0  0  0  0  0
  152.0209  136.3935  187.5889 O   0  0  0  0  0  0  0  0  0  0  0  0
  153.4407  135.0490  184.9656 H   0  0  0  0  0  0  0  0  0  0  0  0
  150.9025  134.7438  186.3610 C   0  0  0  0  0  0  0  0  0  0  0  0
  149.9411  134.6433  184.8840 S   0  0  0  0  0  0  0  0  0  0  0  0
  148.8417  133.4481  185.3643 C   0  0  0  0  0  0  0  0  0  0  0  0
  149.2357  133.1777  186.5835 N   0  0  0  0  0  0  0  0  0  0  0  0
  150.2597  133.8034  187.1104 C   0  0  0  0  0  0  0  0  0  0  0  0
  150.7169  133.3989  188.5105 C   0  0  0  0  0  0  0  0  0  0  0  0
  147.7381  132.8665  184.6674 N   0  0  0  0  0  0  0  0  0  0  0  0
  147.7533  131.4836  184.2416 C   0  0  0  0  0  0  0  0  0  0  0  0
  147.6148  131.5584  182.7120 C   0  0  0  0  0  0  0  0  0  0  0  0
  146.4427  132.2370  182.4621 O   0  0  0  0  0  0  0  0  0  0  0  0
  146.4374  133.5629  182.8275 C   0  0  0  0  0  0  0  0  0  0  0  0
  146.5870  133.6701  184.3428 C   0  0  0  0  0  0  0  0  0  0  0  0
  8  9  1  0  0  0
  9  1  1  0  0  0
  1  2  2  0  0  0
  2  3  1  0  0  0
  3  4  2  0  0  0
  4 22  1  0  0  0
 22 23  1  0  0  0
 23 24  1  0  0  0
 24 25  2  0  0  0
 24 27  1  0  0  0
 27 28  1  0  0  0
 28 29  1  0  0  0
 29 30  2  0  0  0
 30 31  1  0  0  0
 31 32  1  0  0  0
 29 33  1  0  0  0
 33 34  1  0  0  0
 34 35  1  0  0  0
 35 36  1  0  0  0
 36 37  1  0  0  0
 37 38  1  0  0  0
  4  5  1  0  0  0
  5  6  2  0  0  0
  6  7  1  0  0  0
  9 12  1  0  0  0
 12 13  2  0  0  0
 13 14  1  0  0  0
 14 15  2  0  0  0
 15 16  1  0  0  0
 16 17  2  0  0  0
 15 18  1  0  0  0
 18 19  1  0  0  0
 18 20  1  0  0  0
 18 21  1  0  0  0
  6  1  1  0  0  0
 17 12  1  0  0  0
 31 27  2  0  0  0
 38 33  1  0  0  0
  8 10  1  0  0  0
  8 11  1  0  0  0
 23 26  1  0  0  0
M  END
> <minimizedAffinity>
-6.68116

> <CNNscore>
0.1394323707

> <CNNaffinity>
6.0758194923

> <CNN_VS>
0.8471659422

> <CNNaffinity_variance>
0.5279288888

$$$$
[H]c1c([H])c([H])c(N([H])C(=O)c2c([H])c([H])c([H])c([H])c2C([H])([H])C([H])([H])C([H])([H])[H])c([H])c1[H]


 19 20  0  0  0  0  0  0  0  0999 V2000
  157.8061  140.3732  182.5055 C   0  0  0  0  0  0  0  0  0  0  0  0
  158.3675  139.2849  182.6136 O   0  0  0  0  0  0  0  0  0  0  0  0
  156.6428  140.5745  183.2838 N   0  0  0  0  0  0  0  0  0  0  0  0
  156.2137  141.5561  183.1269 H   0  0  0  0  0  0  0  0  0  0  0  0
  158.9376  142.5063  182.1814 C   0  0  0  0  0  0  0  0  0  0  0  0
  159.3716  143.5168  181.3132 C   0  0  0  0  0  0  0  0  0  0  0  0
  159.1529  143.4808  179.9523 C   0  0  0  0  0  0  0  0  0  0  0  0
  158.4789  142.4078  179.4144 C   0  0  0  0  0  0  0  0  0  0  0  0
  158.0508  141.4126  180.2655 C   0  0  0  0  0  0  0  0  0  0  0  0
  158.2688  141.4453  181.6337 C   0  0  0  0  0  0  0  0  0  0  0  0
  159.1749  142.5607  183.6179 C   0  0  0  0  0  0  0  0  0  0  0  0
  161.1235  143.1654  184.9288 C   0  0  0  0  0  0  0  0  0  0  0  0
  160.5473  142.0715  184.0277 C   0  0  0  0  0  0  0  0  0  0  0  0
  155.9981  139.7328  184.1726 C   0  0  0  0  0  0  0  0  0  0  0  0
  156.4830  139.2480  185.3491 C   0  0  0  0  0  0  0  0  0  0  0  0
  155.7286  138.4115  186.1930 C   0  0  0  0  0  0  0  0  0  0  0  0
  154.4540  138.0457  185.8562 C   0  0  0  0  0  0  0  0  0  0  0  0
  153.9464  138.5220  184.6757 C   0  0  0  0  0  0  0  0  0  0  0  0
  154.6899  139.3393  183.8564 C   0  0  0  0  0  0  0  0  0  0  0  0
 12 13  1  0  0  0
 13 11  1  0  0  0
 11  5  1  0  0  0
  5  6  2  0  0  0
  6  7  1  0  0  0
  7  8  2  0  0  0
  8  9  1  0  0  0
  9 10  2  0  0  0
 10  1  1  0  0  0
  1  2  2  0  0  0
  1  3  1  0  0  0
  3 14  1  0  0  0
 14 15  2  0  0  0
 15 16  1  0  0  0
 16 17  2  0  0  0
 17 18  1  0  0  0
 18 19  2  0  0  0
 10  5  1  0  0  0
 19 14  1  0  0  0
  3  4  1  0  0  0
M  END
> <minimizedAffinity>
-7.37277

> <CNNscore>
0.7753417492

> <CNNaffinity>
5.5767316818

> <CNN_VS>
4.3238730431

> <CNNaffinity_variance>
0.1230885386

$$$$
[H]c1c([H])c([H])c(N([H])C(=O)c2c([H])c([H])c([H])c([H])c2C([H])([H])C([H])([H])C([H])([H])[H])c([H])c1[H]


 19 20  0  0  0  0  0  0  0  0999 V2000
  157.9625  140.7212  183.8153 C   0  0  0  0  0  0  0  0  0  0  0  0
  158.7896  139.8966  183.4315 O   0  0  0  0  0  0  0  0  0  0  0  0
  158.4386  141.7762  184.6275 N   0  0  0  0  0  0  0  0  0  0  0  0
  157.6459  142.4533  184.9202 H   0  0  0  0  0  0  0  0  0  0  0  0
  156.0734  141.4384  182.4545 C   0  0  0  0  0  0  0  0  0  0  0  0
  154.7058  141.3594  182.1597 C   0  0  0  0  0  0  0  0  0  0  0  0
  153.8347  140.5483  182.8557 C   0  0  0  0  0  0  0  0  0  0  0  0
  154.3220  139.7786  183.8877 C   0  0  0  0  0  0  0  0  0  0  0  0
  155.6662  139.8542  184.1801 C   0  0  0  0  0  0  0  0  0  0  0  0
  156.5448  140.6681  183.4827 C   0  0  0  0  0  0  0  0  0  0  0  0
  156.9802  142.3026  181.7105 C   0  0  0  0  0  0  0  0  0  0  0  0
  158.2138  144.3642  182.0417 C   0  0  0  0  0  0  0  0  0  0  0  0
  156.8020  143.7754  182.0108 C   0  0  0  0  0  0  0  0  0  0  0  0
  159.7136  142.0523  185.0880 C   0  0  0  0  0  0  0  0  0  0  0  0
  160.8701  142.0432  184.3691 C   0  0  0  0  0  0  0  0  0  0  0  0
  162.1178  142.3643  184.9358 C   0  0  0  0  0  0  0  0  0  0  0  0
  162.2182  142.7039  186.2573 C   0  0  0  0  0  0  0  0  0  0  0  0
  161.0664  142.7188  186.9997 C   0  0  0  0  0  0  0  0  0  0  0  0
  159.8506  142.4040  186.4385 C   0  0  0  0  0  0  0  0  0  0  0  0
 12 13  1  0  0  0
 13 11  1  0  0  0
 11  5  1  0  0  0
  5  6  2  0  0  0
  6  7  1  0  0  0
  7  8  2  0  0  0
  8  9  1  0  0  0
  9 10  2  0  0  0
 10  1  1  0  0  0
  1  2  2  0  0  0
  1  3  1  0  0  0
  3 14  1  0  0  0
 14 15  2  0  0  0
 15 16  1  0  0  0
 16 17  2  0  0  0
 17 18  1  0  0  0
 18 19  2  0  0  0
 10  5  1  0  0  0
 19 14  1  0  0  0
  3  4  1  0  0  0
M  END
> <minimizedAffinity>
-8.19570

> <CNNscore>
0.7736272812

> <CNNaffinity>
5.7608556747

> <CNN_VS>
4.4567551613

> <CNNaffinity_variance>
0.0373986289

$$$$
[H]c1c([H])c([H])c(N([H])C(=O)c2c([H])c([H])c([H])c([H])c2C([H])([H])C([H])([H])C([H])([H])[H])c([H])c1[H]


 19 20  0  0  0  0  0  0  0  0999 V2000
  158.8722  142.0540  183.9139 C   0  0  0  0  0  0  0  0  0  0  0  0
  159.3823  140.9686  183.6438 O   0  0  0  0  0  0  0  0  0  0  0  0
  159.6112  142.9179  184.7548 N   0  0  0  0  0  0  0  0  0  0  0  0
  159.0892  143.8482  184.9411 H   0  0  0  0  0  0  0  0  0  0  0  0
  157.5141  143.3396  182.3525 C   0  0  0  0  0  0  0  0  0  0  0  0
  156.2463  143.7323  181.9034 C   0  0  0  0  0  0  0  0  0  0  0  0
  155.0760  143.2988  182.4895 C   0  0  0  0  0  0  0  0  0  0  0  0
  155.1474  142.4418  183.5644 C   0  0  0  0  0  0  0  0  0  0  0  0
  156.3925  142.0538  184.0084 C   0  0  0  0  0  0  0  0  0  0  0  0
  157.5709  142.4874  183.4218 C   0  0  0  0  0  0  0  0  0  0  0  0
  158.7415  143.8088  181.7231 C   0  0  0  0  0  0  0  0  0  0  0  0
  158.8172  141.9929  180.1174 C   0  0  0  0  0  0  0  0  0  0  0  0
  158.8153  143.5180  180.2396 C   0  0  0  0  0  0  0  0  0  0  0  0
  160.8473  142.7509  185.3532 C   0  0  0  0  0  0  0  0  0  0  0  0
  162.0136  142.3901  184.7500 C   0  0  0  0  0  0  0  0  0  0  0  0
  163.2264  142.2711  185.4543 C   0  0  0  0  0  0  0  0  0  0  0  0
  163.2804  142.5176  186.7990 C   0  0  0  0  0  0  0  0  0  0  0  0
  162.1177  142.8816  187.4263 C   0  0  0  0  0  0  0  0  0  0  0  0
  160.9364  142.9961  186.7309 C   0  0  0  0  0  0  0  0  0  0  0  0
 12 13  1  0  0  0
 13 11  1  0  0  0
 11  5  1  0  0  0
  5  6  2  0  0  0
  6  7  1  0  0  0
  7  8  2  0  0  0
  8  9  1  0  0  0
  9 10  2  0  0  0
 10  1  1  0  0  0
  1  2  2  0  0  0
  1  3  1  0  0  0
  3 14  1  0  0  0
 14 15  2  0  0  0
 15 16  1  0  0  0
 16 17  2  0  0  0
 17 18  1  0  0  0
 18 19  2  0  0  0
 10  5  1  0  0  0
 19 14  1  0  0  0
  3  4  1  0  0  0
M  END
> <minimizedAffinity>
-8.27104

> <CNNscore>
0.6859528422

> <CNNaffinity>
5.8311548233

> <CNN_VS>
3.9998972416

> <CNNaffinity_variance>
0.0428918339

$$$$
[H]c1c([H])c([H])c(N([H])C(=O)c2c([H])c([H])c([H])c([H])c2C([H])([H])C([H])([H])C([H])([H])[H])c([H])c1[H]


 19 20  0  0  0  0  0  0  0  0999 V2000
  154.3616  141.1149  182.6339 C   0  0  0  0  0  0  0  0  0  0  0  0
  153.9511  140.6834  183.7094 O   0  0  0  0  0  0  0  0  0  0  0  0
  153.7156  140.6463  181.4667 N   0  0  0  0  0  0  0  0  0  0  0  0
  154.1397  141.0752  180.5674 H   0  0  0  0  0  0  0  0  0  0  0  0
  156.7463  141.6102  182.5806 C   0  0  0  0  0  0  0  0  0  0  0  0
  157.7757  142.5514  182.4463 C   0  0  0  0  0  0  0  0  0  0  0  0
  157.5410  143.8947  182.2425 C   0  0  0  0  0  0  0  0  0  0  0  0
  156.2406  144.3395  182.1663 C   0  0  0  0  0  0  0  0  0  0  0  0
  155.2262  143.4165  182.2981 C   0  0  0  0  0  0  0  0  0  0  0  0
  155.4581  142.0656  182.5030 C   0  0  0  0  0  0  0  0  0  0  0  0
  157.0114  140.1942  182.7980 C   0  0  0  0  0  0  0  0  0  0  0  0
  159.0835  139.5649  183.8898 C   0  0  0  0  0  0  0  0  0  0  0  0
  158.4438  139.7925  182.5188 C   0  0  0  0  0  0  0  0  0  0  0  0
  152.6705  139.7528  181.3138 C   0  0  0  0  0  0  0  0  0  0  0  0
  152.5450  138.5243  181.8877 C   0  0  0  0  0  0  0  0  0  0  0  0
  151.4218  137.7018  181.6807 C   0  0  0  0  0  0  0  0  0  0  0  0
  150.3929  138.1133  180.8783 C   0  0  0  0  0  0  0  0  0  0  0  0
  150.4990  139.3465  180.2900 C   0  0  0  0  0  0  0  0  0  0  0  0
  151.5999  140.1447  180.4974 C   0  0  0  0  0  0  0  0  0  0  0  0
 12 13  1  0  0  0
 13 11  1  0  0  0
 11  5  1  0  0  0
  5  6  2  0  0  0
  6  7  1  0  0  0
  7  8  2  0  0  0
  8  9  1  0  0  0
  9 10  2  0  0  0
 10  1  1  0  0  0
  1  2  2  0  0  0
  1  3  1  0  0  0
  3 14  1  0  0  0
 14 15  2  0  0  0
 15 16  1  0  0  0
 16 17  2  0  0  0
 17 18  1  0  0  0
 18 19  2  0  0  0
 10  5  1  0  0  0
 19 14  1  0  0  0
  3  4  1  0  0  0
M  END
> <minimizedAffinity>
-6.85770

> <CNNscore>
0.6721909642

> <CNNaffinity>
5.1510376930

> <CNN_VS>
3.4624810219

> <CNNaffinity_variance>
0.0824113488

$$$$
[H]c1c([H])c([H])c(N([H])C(=O)c2c([H])c([H])c([H])c([H])c2C([H])([H])C([H])([H])C([H])([H])[H])c([H])c1[H]


 19 20  0  0  0  0  0  0  0  0999 V2000
  154.2103  140.7070  182.5638 C   0  0  0  0  0  0  0  0  0  0  0  0
  153.6710  141.8092  182.4888 O   0  0  0  0  0  0  0  0  0  0  0  0
  153.5500  139.6263  181.9348 N   0  0  0  0  0  0  0  0  0  0  0  0
  154.0919  138.6960  182.0506 H   0  0  0  0  0  0  0  0  0  0  0  0
  156.6273  140.9657  182.7255 C   0  0  0  0  0  0  0  0  0  0  0  0
  157.8193  140.7142  183.4178 C   0  0  0  0  0  0  0  0  0  0  0  0
  157.8666  139.9907  184.5906 C   0  0  0  0  0  0  0  0  0  0  0  0
  156.6951  139.4896  185.1115 C   0  0  0  0  0  0  0  0  0  0  0  0
  155.5214  139.7351  184.4331 C   0  0  0  0  0  0  0  0  0  0  0  0
  155.4699  140.4618  183.2542 C   0  0  0  0  0  0  0  0  0  0  0  0
  156.5949  141.7303  181.4858 C   0  0  0  0  0  0  0  0  0  0  0  0
  156.4149  144.0350  182.2190 C   0  0  0  0  0  0  0  0  0  0  0  0
  157.3613  143.0338  181.5536 C   0  0  0  0  0  0  0  0  0  0  0  0
  152.3604  139.5862  181.2296 C   0  0  0  0  0  0  0  0  0  0  0  0
  152.1649  139.9145  179.9226 C   0  0  0  0  0  0  0  0  0  0  0  0
  150.9090  139.8144  179.2953 C   0  0  0  0  0  0  0  0  0  0  0  0
  149.8146  139.3753  179.9890 C   0  0  0  0  0  0  0  0  0  0  0  0
  149.9888  139.0401  181.3063 C   0  0  0  0  0  0  0  0  0  0  0  0
  151.2196  139.1404  181.9123 C   0  0  0  0  0  0  0  0  0  0  0  0
 12 13  1  0  0  0
 13 11  1  0  0  0
 11  5  1  0  0  0
  5  6  2  0  0  0
  6  7  1  0  0  0
  7  8  2  0  0  0
  8  9  1  0  0  0
  9 10  2  0  0  0
 10  1  1  0  0  0
  1  2  2  0  0  0
  1  3  1  0  0  0
  3 14  1  0  0  0
 14 15  2  0  0  0
 15 16  1  0  0  0
 16 17  2  0  0  0
 17 18  1  0  0  0
 18 19  2  0  0  0
 10  5  1  0  0  0
 19 14  1  0  0  0
  3  4  1  0  0  0
M  END
> <minimizedAffinity>
-6.93512

> <CNNscore>
0.6692238450

> <CNNaffinity>
5.1051187515

> <CNN_VS>
3.4164671898

> <CNNaffinity_variance>
0.0835078806

$$$$
[H]c1c([H])c([H])c(N([H])C(=O)c2c([H])c([H])c([H])c([H])c2C([H])([H])C([H])([H])C([H])([H])[H])c([H])c1[H]


 19 20  0  0  0  0  0  0  0  0999 V2000
  159.6037  141.5351  183.4977 C   0  0  0  0  0  0  0  0  0  0  0  0
  159.6986  140.4557  184.0784 O   0  0  0  0  0  0  0  0  0  0  0  0
  160.3182  142.6241  184.0482 N   0  0  0  0  0  0  0  0  0  0  0  0
  160.1780  143.5329  183.4765 H   0  0  0  0  0  0  0  0  0  0  0  0
  157.4469  141.8324  182.4046 C   0  0  0  0  0  0  0  0  0  0  0  0
  156.7140  142.0393  181.2283 C   0  0  0  0  0  0  0  0  0  0  0  0
  157.3047  142.1565  179.9880 C   0  0  0  0  0  0  0  0  0  0  0  0
  158.6750  142.0674  179.8920 C   0  0  0  0  0  0  0  0  0  0  0  0
  159.3985  141.8639  181.0466 C   0  0  0  0  0  0  0  0  0  0  0  0
  158.8083  141.7458  182.2950 C   0  0  0  0  0  0  0  0  0  0  0  0
  156.8070  141.7085  183.7076 C   0  0  0  0  0  0  0  0  0  0  0  0
  156.2655  139.5766  184.7292 C   0  0  0  0  0  0  0  0  0  0  0  0
  155.7380  140.6382  183.7620 C   0  0  0  0  0  0  0  0  0  0  0  0
  161.1294  142.6948  185.1667 C   0  0  0  0  0  0  0  0  0  0  0  0
  160.7621  143.0416  186.4313 C   0  0  0  0  0  0  0  0  0  0  0  0
  161.6698  143.0585  187.5068 C   0  0  0  0  0  0  0  0  0  0  0  0
  162.9823  142.7210  187.3186 C   0  0  0  0  0  0  0  0  0  0  0  0
  163.3736  142.3693  186.0533 C   0  0  0  0  0  0  0  0  0  0  0  0
  162.4804  142.3549  185.0073 C   0  0  0  0  0  0  0  0  0  0  0  0
 12 13  1  0  0  0
 13 11  1  0  0  0
 11  5  1  0  0  0
  5  6  2  0  0  0
  6  7  1  0  0  0
  7  8  2  0  0  0
  8  9  1  0  0  0
  9 10  2  0  0  0
 10  1  1  0  0  0
  1  2  2  0  0  0
  1  3  1  0  0  0
  3 14  1  0  0  0
 14 15  2  0  0  0
 15 16  1  0  0  0
 16 17  2  0  0  0
 17 18  1  0  0  0
 18 19  2  0  0  0
 10  5  1  0  0  0
 19 14  1  0  0  0
  3  4  1  0  0  0
M  END
> <minimizedAffinity>
-7.36236

> <CNNscore>
0.6514252424

> <CNNaffinity>
5.8334717751

> <CNN_VS>
3.8000707626

> <CNNaffinity_variance>
0.0985054523

$$$$
[H]c1c([H])c([H])c(N([H])C(=O)c2c([H])c([H])c([H])c([H])c2C([H])([H])C([H])([H])C([H])([H])[H])c([H])c1[H]


 19 20  0  0  0  0  0  0  0  0999 V2000
  155.0185  141.2813  182.3935 C   0  0  0  0  0  0  0  0  0  0  0  0
  154.5519  142.4129  182.2792 O   0  0  0  0  0  0  0  0  0  0  0  0
  156.3525  141.0918  181.9645 N   0  0  0  0  0  0  0  0  0  0  0  0
  156.6815  140.0691  182.0997 H   0  0  0  0  0  0  0  0  0  0  0  0
  153.1942  139.6726  182.2562 C   0  0  0  0  0  0  0  0  0  0  0  0
  152.5123  138.5789  182.8061 C   0  0  0  0  0  0  0  0  0  0  0  0
  152.8912  137.9760  183.9868 C   0  0  0  0  0  0  0  0  0  0  0  0
  153.9871  138.4639  184.6618 C   0  0  0  0  0  0  0  0  0  0  0  0
  154.6597  139.5392  184.1238 C   0  0  0  0  0  0  0  0  0  0  0  0
  154.2820  140.1477  182.9374 C   0  0  0  0  0  0  0  0  0  0  0  0
  152.7793  140.2998  181.0084 C   0  0  0  0  0  0  0  0  0  0  0  0
  151.0133  140.1362  179.3543 C   0  0  0  0  0  0  0  0  0  0  0  0
  152.1327  139.3423  180.0306 C   0  0  0  0  0  0  0  0  0  0  0  0
  157.2562  141.9835  181.4146 C   0  0  0  0  0  0  0  0  0  0  0  0
  157.7423  143.1212  181.9834 C   0  0  0  0  0  0  0  0  0  0  0  0
  158.6818  143.9488  181.3405 C   0  0  0  0  0  0  0  0  0  0  0  0
  159.1512  143.6357  180.0941 C   0  0  0  0  0  0  0  0  0  0  0  0
  158.6745  142.4951  179.5028 C   0  0  0  0  0  0  0  0  0  0  0  0
  157.7566  141.6912  180.1378 C   0  0  0  0  0  0  0  0  0  0  0  0
 12 13  1  0  0  0
 13 11  1  0  0  0
 11  5  1  0  0  0
  5  6  2  0  0  0
  6  7  1  0  0  0
  7  8  2  0  0  0
  8  9  1  0  0  0
  9 10  2  0  0  0
 10  1  1  0  0  0
  1  2  2  0  0  0
  1  3  1  0  0  0
  3 14  1  0  0  0
 14 15  2  0  0  0
 15 16  1  0  0  0
 16 17  2  0  0  0
 17 18  1  0  0  0
 18 19  2  0  0  0
 10  5  1  0  0  0
 19 14  1  0  0  0
  3  4  1  0  0  0
M  END
> <minimizedAffinity>
-7.77573

> <CNNscore>
0.6342600584

> <CNNaffinity>
5.1926784515

> <CNN_VS>
3.2935085297

> <CNNaffinity_variance>
0.1016313806

$$$$
[H]c1c([H])c([H])c(N([H])C(=O)c2c([H])c([H])c([H])c([H])c2C([H])([H])C([H])([H])C([H])([H])[H])c([H])c1[H]


 19 20  0  0  0  0  0  0  0  0999 V2000
  152.6397  136.1589  190.3063 C   0  0  0  0  0  0  0  0  0  0  0  0
  153.1965  135.0872  190.5361 O   0  0  0  0  0  0  0  0  0  0  0  0
  151.7320  136.6317  191.2820 N   0  0  0  0  0  0  0  0  0  0  0  0
  151.2880  137.5780  190.9994 H   0  0  0  0  0  0  0  0  0  0  0  0
  153.8639  137.8842  189.0982 C   0  0  0  0  0  0  0  0  0  0  0  0
  154.0527  138.6251  187.9239 C   0  0  0  0  0  0  0  0  0  0  0  0
  153.2801  138.4507  186.7953 C   0  0  0  0  0  0  0  0  0  0  0  0
  152.2764  137.5088  186.8145 C   0  0  0  0  0  0  0  0  0  0  0  0
  152.0881  136.7788  187.9677 C   0  0  0  0  0  0  0  0  0  0  0  0
  152.8627  136.9513  189.1039 C   0  0  0  0  0  0  0  0  0  0  0  0
  154.6879  138.0825  190.2833 C   0  0  0  0  0  0  0  0  0  0  0  0
  156.5537  136.5888  189.8721 C   0  0  0  0  0  0  0  0  0  0  0  0
  156.1749  138.0655  190.0013 C   0  0  0  0  0  0  0  0  0  0  0  0
  151.3410  136.0806  192.4893 C   0  0  0  0  0  0  0  0  0  0  0  0
  152.0386  136.0773  193.6588 C   0  0  0  0  0  0  0  0  0  0  0  0
  151.5337  135.5047  194.8412 C   0  0  0  0  0  0  0  0  0  0  0  0
  150.2983  134.9171  194.8607 C   0  0  0  0  0  0  0  0  0  0  0  0
  149.5793  134.9088  193.6942 C   0  0  0  0  0  0  0  0  0  0  0  0
  150.0795  135.4708  192.5426 C   0  0  0  0  0  0  0  0  0  0  0  0
 12 13  1  0  0  0
 13 11  1  0  0  0
 11  5  1  0  0  0
  5  6  2  0  0  0
  6  7  1  0  0  0
  7  8  2  0  0  0
  8  9  1  0  0  0
  9 10  2  0  0  0
 10  1  1  0  0  0
  1  2  2  0  0  0
  1  3  1  0  0  0
  3 14  1  0  0  0
 14 15  2  0  0  0
 15 16  1  0  0  0
 16 17  2  0  0  0
 17 18  1  0  0  0
 18 19  2  0  0  0
 10  5  1  0  0  0
 19 14  1  0  0  0
  3  4  1  0  0  0
M  END
> <minimizedAffinity>
-5.64699

> <CNNscore>
0.6149715185

> <CNNaffinity>
4.3560304642

> <CNN_VS>
2.6788346767

> <CNNaffinity_variance>
0.1856023222

$$$$
[H]c1c([H])c([H])c(N([H])C(=O)c2c([H])c([H])c([H])c([H])c2C([H])([H])C([H])([H])C([H])([H])[H])c([H])c1[H]


 19 20  0  0  0  0  0  0  0  0999 V2000
  158.9969  142.0948  183.4625 C   0  0  0  0  0  0  0  0  0  0  0  0
  159.8406  141.5143  182.7825 O   0  0  0  0  0  0  0  0  0  0  0  0
  159.4230  142.6137  184.7070 N   0  0  0  0  0  0  0  0  0  0  0  0
  158.6186  143.1064  185.2387 H   0  0  0  0  0  0  0  0  0  0  0  0
  156.7459  141.2135  183.1602 C   0  0  0  0  0  0  0  0  0  0  0  0
  155.4166  141.4207  182.7682 C   0  0  0  0  0  0  0  0  0  0  0  0
  154.9549  142.6303  182.2940 C   0  0  0  0  0  0  0  0  0  0  0  0
  155.8323  143.6866  182.1982 C   0  0  0  0  0  0  0  0  0  0  0  0
  157.1399  143.4861  182.5828 C   0  0  0  0  0  0  0  0  0  0  0  0
  157.6076  142.2719  183.0599 C   0  0  0  0  0  0  0  0  0  0  0  0
  157.2184  139.9280  183.6572 C   0  0  0  0  0  0  0  0  0  0  0  0
  155.7118  138.8801  185.2426 C   0  0  0  0  0  0  0  0  0  0  0  0
  156.9838  139.7239  185.1385 C   0  0  0  0  0  0  0  0  0  0  0  0
  160.6629  142.5784  185.3195 C   0  0  0  0  0  0  0  0  0  0  0  0
  161.8627  142.3017  184.7378 C   0  0  0  0  0  0  0  0  0  0  0  0
  163.0740  142.3159  185.4543 C   0  0  0  0  0  0  0  0  0  0  0  0
  163.0925  142.6134  186.7896 C   0  0  0  0  0  0  0  0  0  0  0  0
  161.8958  142.8945  187.3953 C   0  0  0  0  0  0  0  0  0  0  0  0
  160.7160  142.8789  186.6882 C   0  0  0  0  0  0  0  0  0  0  0  0
 12 13  1  0  0  0
 13 11  1  0  0  0
 11  5  1  0  0  0
  5  6  2  0  0  0
  6  7  1  0  0  0
  7  8  2  0  0  0
  8  9  1  0  0  0
  9 10  2  0  0  0
 10  1  1  0  0  0
  1  2  2  0  0  0
  1  3  1  0  0  0
  3 14  1  0  0  0
 14 15  2  0  0  0
 15 16  1  0  0  0
 16 17  2  0  0  0
 17 18  1  0  0  0
 18 19  2  0  0  0
 10  5  1  0  0  0
 19 14  1  0  0  0
  3  4  1  0  0  0
M  END
> <minimizedAffinity>
-7.73594

> <CNNscore>
0.6107601523

> <CNNaffinity>
5.5812478065

> <CNN_VS>
3.4088037014

> <CNNaffinity_variance>
0.0580496192

$$$$
[H]c1c([H])c([H])c(-c2c([H])c([H])c3c(c2[H])c([H])c(C(=O)N([H])C2([H])C([H])([H])C([H])([H])C4(C([H])([H])C([H])([H])N(C([H])([H])c5c([H])c([H])c(C(=O)N([H])[H])c([H])c5[H])C([H])([H])C4([H])[H])C2([H])[H])n3[H])c([H])c1[H]


 42 47  0  0  0  0  0  0  0  0999 V2000
  159.0480  131.2471  188.2287 N   0  0  0  0  0  0  0  0  0  0  0  0
  158.5543  132.4445  187.6931 C   0  0  0  0  0  0  0  0  0  0  0  0
  157.3239  132.3060  186.8364 C   0  0  0  0  0  0  0  0  0  0  0  0
  156.2809  131.4206  187.4955 C   0  0  0  0  0  0  0  0  0  0  0  0
  155.7739  132.0467  188.7478 C   0  0  0  0  0  0  0  0  0  0  0  0
  154.3728  132.5001  188.5063 C   0  0  0  0  0  0  0  0  0  0  0  0
  153.9092  131.8424  187.2187 C   0  0  0  0  0  0  0  0  0  0  0  0
  155.1156  131.2331  186.5743 C   0  0  0  0  0  0  0  0  0  0  0  0
  156.9307  130.0688  187.7209 C   0  0  0  0  0  0  0  0  0  0  0  0
  158.0864  130.2745  188.6388 C   0  0  0  0  0  0  0  0  0  0  0  0
  153.3332  132.8217  186.3110 N   0  0  0  0  0  0  0  0  0  0  0  0
  152.3161  132.4228  185.4192 C   0  0  0  0  0  0  0  0  0  0  0  0
  151.8944  131.2140  185.4115 O   0  0  0  0  0  0  0  0  0  0  0  0
  153.6650  133.7939  186.3190 H   0  0  0  0  0  0  0  0  0  0  0  0
  151.7490  133.3995  184.5042 C   0  0  0  0  0  0  0  0  0  0  0  0
  152.3989  134.4216  183.8682 C   0  0  0  0  0  0  0  0  0  0  0  0
  151.4992  135.1181  183.1050 C   0  0  0  0  0  0  0  0  0  0  0  0
  151.5931  136.2294  182.2656 C   0  0  0  0  0  0  0  0  0  0  0  0
  150.5150  136.7618  181.5897 C   0  0  0  0  0  0  0  0  0  0  0  0
  149.2904  136.1517  181.7648 C   0  0  0  0  0  0  0  0  0  0  0  0
  149.1879  135.0391  182.6019 C   0  0  0  0  0  0  0  0  0  0  0  0
  150.2756  134.5150  183.2733 C   0  0  0  0  0  0  0  0  0  0  0  0
  150.4510  133.4841  184.1181 N   0  0  0  0  0  0  0  0  0  0  0  0
  149.7037  132.8334  184.4403 H   0  0  0  0  0  0  0  0  0  0  0  0
  150.6490  137.9140  180.7186 C   0  0  0  0  0  0  0  0  0  0  0  0
  149.6598  138.2572  179.8226 C   0  0  0  0  0  0  0  0  0  0  0  0
  149.7689  139.3498  178.9810 C   0  0  0  0  0  0  0  0  0  0  0  0
  150.9053  140.1315  179.0333 C   0  0  0  0  0  0  0  0  0  0  0  0
  151.8958  139.7998  179.9187 C   0  0  0  0  0  0  0  0  0  0  0  0
  151.7829  138.6954  180.7677 C   0  0  0  0  0  0  0  0  0  0  0  0
  160.2424  131.2803  188.9770 C   0  0  0  0  0  0  0  0  0  0  0  0
  159.2531  130.9160  193.1672 C   0  0  0  0  0  0  0  0  0  0  0  0
  160.1859  130.0865  192.5858 C   0  0  0  0  0  0  0  0  0  0  0  0
  160.5022  130.1995  191.2503 C   0  0  0  0  0  0  0  0  0  0  0  0
  159.9145  131.1346  190.4307 C   0  0  0  0  0  0  0  0  0  0  0  0
  158.9780  131.9655  191.0188 C   0  0  0  0  0  0  0  0  0  0  0  0
  158.6531  131.8641  192.3463 C   0  0  0  0  0  0  0  0  0  0  0  0
  157.6860  130.2413  194.9521 N   0  0  0  0  0  0  0  0  0  0  0  0
  158.9083  130.8155  194.5702 C   0  0  0  0  0  0  0  0  0  0  0  0
  159.7074  131.2444  195.4255 O   0  0  0  0  0  0  0  0  0  0  0  0
  156.8144  130.7686  194.8096 H   0  0  0  0  0  0  0  0  0  0  0  0
  157.6618  129.2894  195.3759 H   0  0  0  0  0  0  0  0  0  0  0  0
 38 39  1  0  0  0
 39 40  2  0  0  0
 39 32  1  0  0  0
 32 33  2  0  0  0
 33 34  1  0  0  0
 34 35  2  0  0  0
 35 31  1  0  0  0
 31  1  1  0  0  0
  1  2  1  0  0  0
  2  3  1  0  0  0
  3  4  1  0  0  0
  4  5  1  0  0  0
  5  6  1  0  0  0
  6  7  1  0  0  0
  7  8  1  0  0  0
  7 11  1  0  0  0
 11 12  1  0  0  0
 12 13  2  0  0  0
 12 15  1  0  0  0
 15 16  2  0  0  0
 16 17  1  0  0  0
 17 18  2  0  0  0
 18 19  1  0  0  0
 19 20  2  0  0  0
 20 21  1  0  0  0
 21 22  2  0  0  0
 22 23  1  0  0  0
 19 25  1  0  0  0
 25 26  2  0  0  0
 26 27  1  0  0  0
 27 28  2  0  0  0
 28 29  1  0  0  0
 29 30  2  0  0  0
  4  9  1  0  0  0
  9 10  1  0  0  0
 35 36  1  0  0  0
 36 37  2  0  0  0
 37 32  1  0  0  0
 10  1  1  0  0  0
  8  4  1  0  0  0
 23 15  1  0  0  0
 30 25  1  0  0  0
 22 17  1  0  0  0
 38 41  1  0  0  0
 38 42  1  0  0  0
 11 14  1  0  0  0
 23 24  1  0  0  0
M  END
> <minimizedAffinity>
-5.43768

> <CNNscore>
0.5920736790

> <CNNaffinity>
5.4714326859

> <CNN_VS>
3.2394912243

> <CNNaffinity_variance>
0.7903135419

$$$$
[H]c1c([H])c([H])c(-c2c([H])c([H])c3c(c2[H])c([H])c(C(=O)N([H])C2([H])C([H])([H])C([H])([H])C4(C([H])([H])C([H])([H])N(C([H])([H])c5c([H])c([H])c(C(=O)N([H])[H])c([H])c5[H])C([H])([H])C4([H])[H])C2([H])[H])n3[H])c([H])c1[H]


 42 47  0  0  0  0  0  0  0  0999 V2000
  155.9765  136.0874  190.0470 N   0  0  0  0  0  0  0  0  0  0  0  0
  154.8459  135.8958  189.2412 C   0  0  0  0  0  0  0  0  0  0  0  0
  155.1295  135.4425  187.8337 C   0  0  0  0  0  0  0  0  0  0  0  0
  156.1371  134.3067  187.8047 C   0  0  0  0  0  0  0  0  0  0  0  0
  155.5815  133.0928  188.4644 C   0  0  0  0  0  0  0  0  0  0  0  0
  155.3004  132.0773  187.4076 C   0  0  0  0  0  0  0  0  0  0  0  0
  156.0049  132.5431  186.1459 C   0  0  0  0  0  0  0  0  0  0  0  0
  156.4612  133.9485  186.3876 C   0  0  0  0  0  0  0  0  0  0  0  0
  157.4010  134.8232  188.4652 C   0  0  0  0  0  0  0  0  0  0  0  0
  157.0599  135.1739  189.8729 C   0  0  0  0  0  0  0  0  0  0  0  0
  155.0995  132.5301  185.0080 N   0  0  0  0  0  0  0  0  0  0  0  0
  155.5947  132.1793  183.7349 C   0  0  0  0  0  0  0  0  0  0  0  0
  156.8262  131.8658  183.5793 O   0  0  0  0  0  0  0  0  0  0  0  0
  154.1094  132.7750  185.1307 H   0  0  0  0  0  0  0  0  0  0  0  0
  154.6915  132.1777  182.5961 C   0  0  0  0  0  0  0  0  0  0  0  0
  153.4364  132.7173  182.5268 C   0  0  0  0  0  0  0  0  0  0  0  0
  152.9186  132.4881  181.2792 C   0  0  0  0  0  0  0  0  0  0  0  0
  151.7084  132.8005  180.6578 C   0  0  0  0  0  0  0  0  0  0  0  0
  151.4115  132.4494  179.3574 C   0  0  0  0  0  0  0  0  0  0  0  0
  152.3712  131.7545  178.6514 C   0  0  0  0  0  0  0  0  0  0  0  0
  153.5848  131.4389  179.2651 C   0  0  0  0  0  0  0  0  0  0  0  0
  153.8705  131.7967  180.5685 C   0  0  0  0  0  0  0  0  0  0  0  0
  154.9274  131.6224  181.3807 N   0  0  0  0  0  0  0  0  0  0  0  0
  155.8104  131.1311  181.1261 H   0  0  0  0  0  0  0  0  0  0  0  0
  150.1459  132.7966  178.7393 C   0  0  0  0  0  0  0  0  0  0  0  0
  149.7681  132.2640  177.5257 C   0  0  0  0  0  0  0  0  0  0  0  0
  148.5673  132.5842  176.9176 C   0  0  0  0  0  0  0  0  0  0  0  0
  147.7091  133.4673  177.5411 C   0  0  0  0  0  0  0  0  0  0  0  0
  148.0740  134.0041  178.7467 C   0  0  0  0  0  0  0  0  0  0  0  0
  149.2877  133.6790  179.3587 C   0  0  0  0  0  0  0  0  0  0  0  0
  155.8014  136.5873  191.3535 C   0  0  0  0  0  0  0  0  0  0  0  0
  151.8252  135.5872  192.7169 C   0  0  0  0  0  0  0  0  0  0  0  0
  152.0979  136.8247  192.1781 C   0  0  0  0  0  0  0  0  0  0  0  0
  153.3645  137.1467  191.7441 C   0  0  0  0  0  0  0  0  0  0  0  0
  154.4162  136.2636  191.8208 C   0  0  0  0  0  0  0  0  0  0  0  0
  154.1377  135.0218  192.3628 C   0  0  0  0  0  0  0  0  0  0  0  0
  152.8823  134.6880  192.7993 C   0  0  0  0  0  0  0  0  0  0  0  0
  149.9428  133.9919  192.8130 N   0  0  0  0  0  0  0  0  0  0  0  0
  150.4997  135.2278  193.1767 C   0  0  0  0  0  0  0  0  0  0  0  0
  149.8667  136.0273  193.8936 O   0  0  0  0  0  0  0  0  0  0  0  0
  149.6107  133.8521  191.8496 H   0  0  0  0  0  0  0  0  0  0  0  0
  149.8669  133.2231  193.5125 H   0  0  0  0  0  0  0  0  0  0  0  0
 38 39  1  0  0  0
 39 40  2  0  0  0
 39 32  1  0  0  0
 32 33  2  0  0  0
 33 34  1  0  0  0
 34 35  2  0  0  0
 35 31  1  0  0  0
 31  1  1  0  0  0
  1  2  1  0  0  0
  2  3  1  0  0  0
  3  4  1  0  0  0
  4  5  1  0  0  0
  5  6  1  0  0  0
  6  7  1  0  0  0
  7  8  1  0  0  0
  7 11  1  0  0  0
 11 12  1  0  0  0
 12 13  2  0  0  0
 12 15  1  0  0  0
 15 16  2  0  0  0
 16 17  1  0  0  0
 17 18  2  0  0  0
 18 19  1  0  0  0
 19 20  2  0  0  0
 20 21  1  0  0  0
 21 22  2  0  0  0
 22 23  1  0  0  0
 19 25  1  0  0  0
 25 26  2  0  0  0
 26 27  1  0  0  0
 27 28  2  0  0  0
 28 29  1  0  0  0
 29 30  2  0  0  0
  4  9  1  0  0  0
  9 10  1  0  0  0
 35 36  1  0  0  0
 36 37  2  0  0  0
 37 32  1  0  0  0
 10  1  1  0  0  0
  8  4  1  0  0  0
 23 15  1  0  0  0
 30 25  1  0  0  0
 22 17  1  0  0  0
 38 41  1  0  0  0
 38 42  1  0  0  0
 11 14  1  0  0  0
 23 24  1  0  0  0
M  END
> <minimizedAffinity>
-5.29628

> <CNNscore>
0.5056743026

> <CNNaffinity>
5.4645361900

> <CNN_VS>
2.7632756233

> <CNNaffinity_variance>
0.5167352557

$$$$
[H]c1c([H])c([H])c(-c2c([H])c([H])c3c(c2[H])c([H])c(C(=O)N([H])C2([H])C([H])([H])C([H])([H])C4(C([H])([H])C([H])([H])N(C([H])([H])c5c([H])c([H])c(C(=O)N([H])[H])c([H])c5[H])C([H])([H])C4([H])[H])C2([H])[H])n3[H])c([H])c1[H]


 42 47  0  0  0  0  0  0  0  0999 V2000
  148.4817  131.5129  188.4159 N   0  0  0  0  0  0  0  0  0  0  0  0
  149.2990  132.6075  188.7293 C   0  0  0  0  0  0  0  0  0  0  0  0
  149.9854  133.2536  187.5553 C   0  0  0  0  0  0  0  0  0  0  0  0
  149.0242  133.4810  186.4018 C   0  0  0  0  0  0  0  0  0  0  0  0
  147.9692  134.4610  186.7807 C   0  0  0  0  0  0  0  0  0  0  0  0
  148.2245  135.7294  186.0370 C   0  0  0  0  0  0  0  0  0  0  0  0
  149.2314  135.4094  184.9465 C   0  0  0  0  0  0  0  0  0  0  0  0
  149.7631  134.0376  185.2245 C   0  0  0  0  0  0  0  0  0  0  0  0
  148.4708  132.1225  186.0164 C   0  0  0  0  0  0  0  0  0  0  0  0
  147.7395  131.5847  187.1982 C   0  0  0  0  0  0  0  0  0  0  0  0
  150.3356  136.3556  184.9625 N   0  0  0  0  0  0  0  0  0  0  0  0
  151.1281  136.5122  183.8064 C   0  0  0  0  0  0  0  0  0  0  0  0
  150.8761  135.8370  182.7482 O   0  0  0  0  0  0  0  0  0  0  0  0
  150.5366  136.9035  185.8079 H   0  0  0  0  0  0  0  0  0  0  0  0
  152.2386  137.4497  183.8269 C   0  0  0  0  0  0  0  0  0  0  0  0
  152.3705  138.6019  183.1013 C   0  0  0  0  0  0  0  0  0  0  0  0
  153.5714  139.1874  183.4050 C   0  0  0  0  0  0  0  0  0  0  0  0
  154.2215  140.3468  182.9789 C   0  0  0  0  0  0  0  0  0  0  0  0
  155.4621  140.7334  183.4415 C   0  0  0  0  0  0  0  0  0  0  0  0
  156.0757  139.9203  184.3714 C   0  0  0  0  0  0  0  0  0  0  0  0
  155.4319  138.7593  184.8036 C   0  0  0  0  0  0  0  0  0  0  0  0
  154.1888  138.3831  184.3329 C   0  0  0  0  0  0  0  0  0  0  0  0
  153.3683  137.3452  184.5712 N   0  0  0  0  0  0  0  0  0  0  0  0
  153.5604  136.5627  185.2319 H   0  0  0  0  0  0  0  0  0  0  0  0
  156.1068  141.9492  182.9829 C   0  0  0  0  0  0  0  0  0  0  0  0
  157.4714  142.1185  183.0745 C   0  0  0  0  0  0  0  0  0  0  0  0
  158.1056  143.2710  182.6461 C   0  0  0  0  0  0  0  0  0  0  0  0
  157.3535  144.2942  182.1050 C   0  0  0  0  0  0  0  0  0  0  0  0
  155.9964  144.1383  182.0099 C   0  0  0  0  0  0  0  0  0  0  0  0
  155.3584  142.9730  182.4436 C   0  0  0  0  0  0  0  0  0  0  0  0
  147.8660  130.8031  189.4670 C   0  0  0  0  0  0  0  0  0  0  0  0
  149.3746  132.2397  193.2524 C   0  0  0  0  0  0  0  0  0  0  0  0
  148.5270  133.0118  192.4897 C   0  0  0  0  0  0  0  0  0  0  0  0
  148.0458  132.5571  191.2823 C   0  0  0  0  0  0  0  0  0  0  0  0
  148.3775  131.3224  190.7749 C   0  0  0  0  0  0  0  0  0  0  0  0
  149.2291  130.5504  191.5443 C   0  0  0  0  0  0  0  0  0  0  0  0
  149.7161  130.9904  192.7474 C   0  0  0  0  0  0  0  0  0  0  0  0
  149.4202  133.8990  195.0806 N   0  0  0  0  0  0  0  0  0  0  0  0
  149.8895  132.6982  194.5261 C   0  0  0  0  0  0  0  0  0  0  0  0
  150.7494  132.0153  195.1161 O   0  0  0  0  0  0  0  0  0  0  0  0
  149.7216  134.7943  194.6737 H   0  0  0  0  0  0  0  0  0  0  0  0
  148.7722  133.8835  195.8967 H   0  0  0  0  0  0  0  0  0  0  0  0
 38 39  1  0  0  0
 39 40  2  0  0  0
 39 32  1  0  0  0
 32 33  2  0  0  0
 33 34  1  0  0  0
 34 35  2  0  0  0
 35 31  1  0  0  0
 31  1  1  0  0  0
  1  2  1  0  0  0
  2  3  1  0  0  0
  3  4  1  0  0  0
  4  5  1  0  0  0
  5  6  1  0  0  0
  6  7  1  0  0  0
  7  8  1  0  0  0
  7 11  1  0  0  0
 11 12  1  0  0  0
 12 13  2  0  0  0
 12 15  1  0  0  0
 15 16  2  0  0  0
 16 17  1  0  0  0
 17 18  2  0  0  0
 18 19  1  0  0  0
 19 20  2  0  0  0
 20 21  1  0  0  0
 21 22  2  0  0  0
 22 23  1  0  0  0
 19 25  1  0  0  0
 25 26  2  0  0  0
 26 27  1  0  0  0
 27 28  2  0  0  0
 28 29  1  0  0  0
 29 30  2  0  0  0
  4  9  1  0  0  0
  9 10  1  0  0  0
 35 36  1  0  0  0
 36 37  2  0  0  0
 37 32  1  0  0  0
 10  1  1  0  0  0
  8  4  1  0  0  0
 23 15  1  0  0  0
 30 25  1  0  0  0
 22 17  1  0  0  0
 38 41  1  0  0  0
 38 42  1  0  0  0
 11 14  1  0  0  0
 23 24  1  0  0  0
M  END
> <minimizedAffinity>
-6.01117

> <CNNscore>
0.4814215899

> <CNNaffinity>
5.7025265694

> <CNN_VS>
2.7453193665

> <CNNaffinity_variance>
0.9294155240

$$$$
[H]c1c([H])c([H])c(-c2c([H])c([H])c3c(c2[H])c([H])c(C(=O)N([H])C2([H])C([H])([H])C([H])([H])C4(C([H])([H])C([H])([H])N(C([H])([H])c5c([H])c([H])c(C(=O)N([H])[H])c([H])c5[H])C([H])([H])C4([H])[H])C2([H])[H])n3[H])c([H])c1[H]


 42 47  0  0  0  0  0  0  0  0999 V2000
  153.8843  136.6203  191.4537 N   0  0  0  0  0  0  0  0  0  0  0  0
  153.0875  136.1944  190.3823 C   0  0  0  0  0  0  0  0  0  0  0  0
  153.0088  137.1493  189.2208 C   0  0  0  0  0  0  0  0  0  0  0  0
  154.3812  137.6700  188.8315 C   0  0  0  0  0  0  0  0  0  0  0  0
  155.2400  136.5639  188.3253 C   0  0  0  0  0  0  0  0  0  0  0  0
  155.4105  136.7444  186.8537 C   0  0  0  0  0  0  0  0  0  0  0  0
  154.9415  138.1497  186.5217 C   0  0  0  0  0  0  0  0  0  0  0  0
  154.2505  138.6840  187.7378 C   0  0  0  0  0  0  0  0  0  0  0  0
  154.9524  138.3614  190.0547 C   0  0  0  0  0  0  0  0  0  0  0  0
  155.0756  137.3384  191.1312 C   0  0  0  0  0  0  0  0  0  0  0  0
  154.0015  138.1372  185.4121 N   0  0  0  0  0  0  0  0  0  0  0  0
  154.2449  138.9577  184.2911 C   0  0  0  0  0  0  0  0  0  0  0  0
  155.2862  139.7009  184.2423 O   0  0  0  0  0  0  0  0  0  0  0  0
  153.1682  137.5373  185.4455 H   0  0  0  0  0  0  0  0  0  0  0  0
  153.2989  138.9532  183.1876 C   0  0  0  0  0  0  0  0  0  0  0  0
  152.2792  138.0683  182.9673 C   0  0  0  0  0  0  0  0  0  0  0  0
  151.6325  138.4095  181.8087 C   0  0  0  0  0  0  0  0  0  0  0  0
  150.5482  137.8773  181.1090 C   0  0  0  0  0  0  0  0  0  0  0  0
  150.0711  138.4116  179.9303 C   0  0  0  0  0  0  0  0  0  0  0  0
  150.7108  139.5280  179.4332 C   0  0  0  0  0  0  0  0  0  0  0  0
  151.7954  140.0672  180.1274 C   0  0  0  0  0  0  0  0  0  0  0  0
  152.2637  139.5229  181.3076 C   0  0  0  0  0  0  0  0  0  0  0  0
  153.2617  139.8314  182.1539 N   0  0  0  0  0  0  0  0  0  0  0  0
  153.9221  140.6297  182.0436 H   0  0  0  0  0  0  0  0  0  0  0  0
  148.9366  137.8376  179.2320 C   0  0  0  0  0  0  0  0  0  0  0  0
  148.3019  136.7068  179.6986 C   0  0  0  0  0  0  0  0  0  0  0  0
  147.2206  136.1416  179.0464 C   0  0  0  0  0  0  0  0  0  0  0  0
  146.7521  136.7241  177.8860 C   0  0  0  0  0  0  0  0  0  0  0  0
  147.3753  137.8473  177.4118 C   0  0  0  0  0  0  0  0  0  0  0  0
  148.4676  138.4161  178.0726 C   0  0  0  0  0  0  0  0  0  0  0  0
  153.9469  135.8199  192.6126 C   0  0  0  0  0  0  0  0  0  0  0  0
  150.2159  133.6826  193.0374 C   0  0  0  0  0  0  0  0  0  0  0  0
  151.3738  133.0226  192.6911 C   0  0  0  0  0  0  0  0  0  0  0  0
  152.5640  133.7014  192.5537 C   0  0  0  0  0  0  0  0  0  0  0  0
  152.6651  135.0586  192.7525 C   0  0  0  0  0  0  0  0  0  0  0  0
  151.4996  135.7175  193.1000 C   0  0  0  0  0  0  0  0  0  0  0  0
  150.3081  135.0549  193.2397 C   0  0  0  0  0  0  0  0  0  0  0  0
  147.7639  133.7169  193.3273 N   0  0  0  0  0  0  0  0  0  0  0  0
  148.9547  132.9870  193.1897 C   0  0  0  0  0  0  0  0  0  0  0  0
  148.9443  131.7405  193.1973 O   0  0  0  0  0  0  0  0  0  0  0  0
  147.5674  134.1991  194.2143 H   0  0  0  0  0  0  0  0  0  0  0  0
  147.0854  133.7700  192.5379 H   0  0  0  0  0  0  0  0  0  0  0  0
 38 39  1  0  0  0
 39 40  2  0  0  0
 39 32  1  0  0  0
 32 33  2  0  0  0
 33 34  1  0  0  0
 34 35  2  0  0  0
 35 31  1  0  0  0
 31  1  1  0  0  0
  1  2  1  0  0  0
  2  3  1  0  0  0
  3  4  1  0  0  0
  4  5  1  0  0  0
  5  6  1  0  0  0
  6  7  1  0  0  0
  7  8  1  0  0  0
  7 11  1  0  0  0
 11 12  1  0  0  0
 12 13  2  0  0  0
 12 15  1  0  0  0
 15 16  2  0  0  0
 16 17  1  0  0  0
 17 18  2  0  0  0
 18 19  1  0  0  0
 19 20  2  0  0  0
 20 21  1  0  0  0
 21 22  2  0  0  0
 22 23  1  0  0  0
 19 25  1  0  0  0
 25 26  2  0  0  0
 26 27  1  0  0  0
 27 28  2  0  0  0
 28 29  1  0  0  0
 29 30  2  0  0  0
  4  9  1  0  0  0
  9 10  1  0  0  0
 35 36  1  0  0  0
 36 37  2  0  0  0
 37 32  1  0  0  0
 10  1  1  0  0  0
  8  4  1  0  0  0
 23 15  1  0  0  0
 30 25  1  0  0  0
 22 17  1  0  0  0
 38 41  1  0  0  0
 38 42  1  0  0  0
 11 14  1  0  0  0
 23 24  1  0  0  0
M  END
> <minimizedAffinity>
-8.97544

> <CNNscore>
0.4261715412

> <CNNaffinity>
5.6762900352

> <CNN_VS>
2.4190733433

> <CNNaffinity_variance>
0.0830307454

$$$$
[H]c1c([H])c([H])c(-c2c([H])c([H])c3c(c2[H])c([H])c(C(=O)N([H])C2([H])C([H])([H])C([H])([H])C4(C([H])([H])C([H])([H])N(C([H])([H])c5c([H])c([H])c(C(=O)N([H])[H])c([H])c5[H])C([H])([H])C4([H])[H])C2([H])[H])n3[H])c([H])c1[H]


 42 47  0  0  0  0  0  0  0  0999 V2000
  154.2918  137.5063  191.1965 N   0  0  0  0  0  0  0  0  0  0  0  0
  153.5540  137.0845  190.0820 C   0  0  0  0  0  0  0  0  0  0  0  0
  154.3712  136.7184  188.8716 C   0  0  0  0  0  0  0  0  0  0  0  0
  155.5444  135.8266  189.2384 C   0  0  0  0  0  0  0  0  0  0  0  0
  155.0670  134.5145  189.7556 C   0  0  0  0  0  0  0  0  0  0  0  0
  155.3651  133.4738  188.7284 C   0  0  0  0  0  0  0  0  0  0  0  0
  156.3321  134.0943  187.7357 C   0  0  0  0  0  0  0  0  0  0  0  0
  156.3824  135.5622  188.0262 C   0  0  0  0  0  0  0  0  0  0  0  0
  156.3856  136.5960  190.2389 C   0  0  0  0  0  0  0  0  0  0  0  0
  155.5366  136.8495  191.4371 C   0  0  0  0  0  0  0  0  0  0  0  0
  155.8738  133.8990  186.3695 N   0  0  0  0  0  0  0  0  0  0  0  0
  156.5672  133.0030  185.5296 C   0  0  0  0  0  0  0  0  0  0  0  0
  157.5849  132.3589  185.9639 O   0  0  0  0  0  0  0  0  0  0  0  0
  155.0538  134.4095  186.0199 H   0  0  0  0  0  0  0  0  0  0  0  0
  156.1154  132.8170  184.1607 C   0  0  0  0  0  0  0  0  0  0  0  0
  154.8530  133.0019  183.6671 C   0  0  0  0  0  0  0  0  0  0  0  0
  154.8475  132.7064  182.3292 C   0  0  0  0  0  0  0  0  0  0  0  0
  153.8653  132.7133  181.3375 C   0  0  0  0  0  0  0  0  0  0  0  0
  154.1101  132.3626  180.0261 C   0  0  0  0  0  0  0  0  0  0  0  0
  155.3965  131.9888  179.6974 C   0  0  0  0  0  0  0  0  0  0  0  0
  156.3851  131.9802  180.6831 C   0  0  0  0  0  0  0  0  0  0  0  0
  156.1273  132.3341  181.9934 C   0  0  0  0  0  0  0  0  0  0  0  0
  156.8714  132.4090  183.1104 N   0  0  0  0  0  0  0  0  0  0  0  0
  157.8875  132.1871  183.1753 H   0  0  0  0  0  0  0  0  0  0  0  0
  153.0673  132.3878  179.0181 C   0  0  0  0  0  0  0  0  0  0  0  0
  153.3669  132.3858  177.6729 C   0  0  0  0  0  0  0  0  0  0  0  0
  152.3880  132.4127  176.6957 C   0  0  0  0  0  0  0  0  0  0  0  0
  151.0599  132.4420  177.0710 C   0  0  0  0  0  0  0  0  0  0  0  0
  150.7497  132.4456  178.4046 C   0  0  0  0  0  0  0  0  0  0  0  0
  151.7407  132.4185  179.3897 C   0  0  0  0  0  0  0  0  0  0  0  0
  153.5981  137.9424  192.3437 C   0  0  0  0  0  0  0  0  0  0  0  0
  150.7847  134.9031  193.5752 C   0  0  0  0  0  0  0  0  0  0  0  0
  152.1416  134.6758  193.6320 C   0  0  0  0  0  0  0  0  0  0  0  0
  153.0405  135.6421  193.2389 C   0  0  0  0  0  0  0  0  0  0  0  0
  152.6418  136.8737  192.7743 C   0  0  0  0  0  0  0  0  0  0  0  0
  151.2780  137.0976  192.7187 C   0  0  0  0  0  0  0  0  0  0  0  0
  150.3721  136.1450  193.1060 C   0  0  0  0  0  0  0  0  0  0  0  0
  148.5164  133.9326  193.4749 N   0  0  0  0  0  0  0  0  0  0  0  0
  149.8229  133.9014  193.9863 C   0  0  0  0  0  0  0  0  0  0  0  0
  150.1712  133.0192  194.7953 O   0  0  0  0  0  0  0  0  0  0  0  0
  147.8609  134.6516  193.8089 H   0  0  0  0  0  0  0  0  0  0  0  0
  148.2133  133.2341  192.7632 H   0  0  0  0  0  0  0  0  0  0  0  0
 38 39  1  0  0  0
 39 40  2  0  0  0
 39 32  1  0  0  0
 32 33  2  0  0  0
 33 34  1  0  0  0
 34 35  2  0  0  0
 35 31  1  0  0  0
 31  1  1  0  0  0
  1  2  1  0  0  0
  2  3  1  0  0  0
  3  4  1  0  0  0
  4  5  1  0  0  0
  5  6  1  0  0  0
  6  7  1  0  0  0
  7  8  1  0  0  0
  7 11  1  0  0  0
 11 12  1  0  0  0
 12 13  2  0  0  0
 12 15  1  0  0  0
 15 16  2  0  0  0
 16 17  1  0  0  0
 17 18  2  0  0  0
 18 19  1  0  0  0
 19 20  2  0  0  0
 20 21  1  0  0  0
 21 22  2  0  0  0
 22 23  1  0  0  0
 19 25  1  0  0  0
 25 26  2  0  0  0
 26 27  1  0  0  0
 27 28  2  0  0  0
 28 29  1  0  0  0
 29 30  2  0  0  0
  4  9  1  0  0  0
  9 10  1  0  0  0
 35 36  1  0  0  0
 36 37  2  0  0  0
 37 32  1  0  0  0
 10  1  1  0  0  0
  8  4  1  0  0  0
 23 15  1  0  0  0
 30 25  1  0  0  0
 22 17  1  0  0  0
 38 41  1  0  0  0
 38 42  1  0  0  0
 11 14  1  0  0  0
 23 24  1  0  0  0
M  END
> <minimizedAffinity>
-6.66885

> <CNNscore>
0.3904608786

> <CNNaffinity>
5.1789135933

> <CNN_VS>
2.0221631527

> <CNNaffinity_variance>
0.1312839538

$$$$
[H]c1c([H])c([H])c(-c2c([H])c([H])c3c(c2[H])c([H])c(C(=O)N([H])C2([H])C([H])([H])C([H])([H])C4(C([H])([H])C([H])([H])N(C([H])([H])c5c([H])c([H])c(C(=O)N([H])[H])c([H])c5[H])C([H])([H])C4([H])[H])C2([H])[H])n3[H])c([H])c1[H]


 42 47  0  0  0  0  0  0  0  0999 V2000
  155.4999  134.3685  189.8679 N   0  0  0  0  0  0  0  0  0  0  0  0
  155.3702  135.2665  188.7997 C   0  0  0  0  0  0  0  0  0  0  0  0
  154.3596  134.8784  187.7533 C   0  0  0  0  0  0  0  0  0  0  0  0
  153.0494  134.4337  188.3795 C   0  0  0  0  0  0  0  0  0  0  0  0
  152.3999  135.5634  189.0999 C   0  0  0  0  0  0  0  0  0  0  0  0
  151.1978  135.9816  188.3206 C   0  0  0  0  0  0  0  0  0  0  0  0
  150.9210  134.8838  187.3088 C   0  0  0  0  0  0  0  0  0  0  0  0
  152.1064  133.9692  187.3134 C   0  0  0  0  0  0  0  0  0  0  0  0
  153.3694  133.2541  189.2776 C   0  0  0  0  0  0  0  0  0  0  0  0
  154.3074  133.7344  190.3312 C   0  0  0  0  0  0  0  0  0  0  0  0
  150.7555  135.4352  185.9734 N   0  0  0  0  0  0  0  0  0  0  0  0
  149.5054  135.9681  185.5959 C   0  0  0  0  0  0  0  0  0  0  0  0
  148.5259  135.9769  186.4203 O   0  0  0  0  0  0  0  0  0  0  0  0
  151.5412  135.4353  185.3116 H   0  0  0  0  0  0  0  0  0  0  0  0
  149.3376  136.5085  184.2571 C   0  0  0  0  0  0  0  0  0  0  0  0
  148.6543  135.9496  183.2121 C   0  0  0  0  0  0  0  0  0  0  0  0
  148.7502  136.7741  182.1221 C   0  0  0  0  0  0  0  0  0  0  0  0
  148.2654  136.7151  180.8144 C   0  0  0  0  0  0  0  0  0  0  0  0
  148.5047  137.6942  179.8727 C   0  0  0  0  0  0  0  0  0  0  0  0
  149.2633  138.7785  180.2614 C   0  0  0  0  0  0  0  0  0  0  0  0
  149.7512  138.8458  181.5678 C   0  0  0  0  0  0  0  0  0  0  0  0
  149.5043  137.8586  182.5021 C   0  0  0  0  0  0  0  0  0  0  0  0
  149.8454  137.6767  183.7896 N   0  0  0  0  0  0  0  0  0  0  0  0
  150.4194  138.3325  184.3608 H   0  0  0  0  0  0  0  0  0  0  0  0
  147.9793  137.6051  178.5235 C   0  0  0  0  0  0  0  0  0  0  0  0
  147.1385  136.5809  178.1452 C   0  0  0  0  0  0  0  0  0  0  0  0
  146.6291  136.4757  176.8632 C   0  0  0  0  0  0  0  0  0  0  0  0
  146.9684  137.4263  175.9217 C   0  0  0  0  0  0  0  0  0  0  0  0
  147.8042  138.4481  176.2854 C   0  0  0  0  0  0  0  0  0  0  0  0
  148.3175  138.5519  177.5811 C   0  0  0  0  0  0  0  0  0  0  0  0
  156.4809  134.6187  190.8491 C   0  0  0  0  0  0  0  0  0  0  0  0
  159.6512  131.7051  190.4898 C   0  0  0  0  0  0  0  0  0  0  0  0
  159.5127  132.7174  189.5666 C   0  0  0  0  0  0  0  0  0  0  0  0
  158.5025  133.6465  189.6779 C   0  0  0  0  0  0  0  0  0  0  0  0
  157.5863  133.6194  190.7034 C   0  0  0  0  0  0  0  0  0  0  0  0
  157.7291  132.6008  191.6283 C   0  0  0  0  0  0  0  0  0  0  0  0
  158.7292  131.6691  191.5297 C   0  0  0  0  0  0  0  0  0  0  0  0
  160.7679  129.8634  189.2822 N   0  0  0  0  0  0  0  0  0  0  0  0
  160.7082  130.7198  190.3925 C   0  0  0  0  0  0  0  0  0  0  0  0
  161.5559  130.6448  191.3033 O   0  0  0  0  0  0  0  0  0  0  0  0
  160.0890  129.0950  189.2005 H   0  0  0  0  0  0  0  0  0  0  0  0
  161.4933  130.0050  188.5472 H   0  0  0  0  0  0  0  0  0  0  0  0
 38 39  1  0  0  0
 39 40  2  0  0  0
 39 32  1  0  0  0
 32 33  2  0  0  0
 33 34  1  0  0  0
 34 35  2  0  0  0
 35 31  1  0  0  0
 31  1  1  0  0  0
  1  2  1  0  0  0
  2  3  1  0  0  0
  3  4  1  0  0  0
  4  5  1  0  0  0
  5  6  1  0  0  0
  6  7  1  0  0  0
  7  8  1  0  0  0
  7 11  1  0  0  0
 11 12  1  0  0  0
 12 13  2  0  0  0
 12 15  1  0  0  0
 15 16  2  0  0  0
 16 17  1  0  0  0
 17 18  2  0  0  0
 18 19  1  0  0  0
 19 20  2  0  0  0
 20 21  1  0  0  0
 21 22  2  0  0  0
 22 23  1  0  0  0
 19 25  1  0  0  0
 25 26  2  0  0  0
 26 27  1  0  0  0
 27 28  2  0  0  0
 28 29  1  0  0  0
 29 30  2  0  0  0
  4  9  1  0  0  0
  9 10  1  0  0  0
 35 36  1  0  0  0
 36 37  2  0  0  0
 37 32  1  0  0  0
 10  1  1  0  0  0
  8  4  1  0  0  0
 23 15  1  0  0  0
 30 25  1  0  0  0
 22 17  1  0  0  0
 38 41  1  0  0  0
 38 42  1  0  0  0
 11 14  1  0  0  0
 23 24  1  0  0  0
M  END
> <minimizedAffinity>
-6.07175

> <CNNscore>
0.3531058133

> <CNNaffinity>
5.3627433777

> <CNN_VS>
1.8936158419

> <CNNaffinity_variance>
0.7682439089

$$$$
[H]c1c([H])c([H])c(-c2c([H])c([H])c3c(c2[H])c([H])c(C(=O)N([H])C2([H])C([H])([H])C([H])([H])C4(C([H])([H])C([H])([H])N(C([H])([H])c5c([H])c([H])c(C(=O)N([H])[H])c([H])c5[H])C([H])([H])C4([H])[H])C2([H])[H])n3[H])c([H])c1[H]


 42 47  0  0  0  0  0  0  0  0999 V2000
  154.1678  136.1741  190.9798 N   0  0  0  0  0  0  0  0  0  0  0  0
  153.4389  135.7498  189.8604 C   0  0  0  0  0  0  0  0  0  0  0  0
  153.0976  136.8302  188.8689 C   0  0  0  0  0  0  0  0  0  0  0  0
  154.3007  137.7030  188.5572 C   0  0  0  0  0  0  0  0  0  0  0  0
  155.3609  136.9133  187.8721 C   0  0  0  0  0  0  0  0  0  0  0  0
  155.4211  137.3539  186.4476 C   0  0  0  0  0  0  0  0  0  0  0  0
  154.6362  138.6500  186.3503 C   0  0  0  0  0  0  0  0  0  0  0  0
  153.8985  138.8180  187.6424 C   0  0  0  0  0  0  0  0  0  0  0  0
  154.7573  138.3078  189.8711 C   0  0  0  0  0  0  0  0  0  0  0  0
  155.1534  137.1851  190.7675 C   0  0  0  0  0  0  0  0  0  0  0  0
  153.6741  138.5965  185.2612 N   0  0  0  0  0  0  0  0  0  0  0  0
  154.0016  139.1821  184.0206 C   0  0  0  0  0  0  0  0  0  0  0  0
  155.1369  139.7482  183.8476 O   0  0  0  0  0  0  0  0  0  0  0  0
  152.7648  138.1376  185.3948 H   0  0  0  0  0  0  0  0  0  0  0  0
  153.0349  139.1384  182.9361 C   0  0  0  0  0  0  0  0  0  0  0  0
  152.1229  138.1537  182.6716 C   0  0  0  0  0  0  0  0  0  0  0  0
  151.4106  138.4923  181.5513 C   0  0  0  0  0  0  0  0  0  0  0  0
  150.3800  137.8817  180.8347 C   0  0  0  0  0  0  0  0  0  0  0  0
  149.8123  138.4334  179.7050 C   0  0  0  0  0  0  0  0  0  0  0  0
  150.3011  139.6501  179.2771 C   0  0  0  0  0  0  0  0  0  0  0  0
  151.3311  140.2681  179.9887 C   0  0  0  0  0  0  0  0  0  0  0  0
  151.8912  139.7054  181.1193 C   0  0  0  0  0  0  0  0  0  0  0  0
  152.8666  140.0739  181.9678 N   0  0  0  0  0  0  0  0  0  0  0  0
  153.4239  140.9519  181.9028 H   0  0  0  0  0  0  0  0  0  0  0  0
  148.7369  137.7753  178.9877 C   0  0  0  0  0  0  0  0  0  0  0  0
  148.1025  136.6654  179.5025 C   0  0  0  0  0  0  0  0  0  0  0  0
  147.0771  136.0211  178.8335 C   0  0  0  0  0  0  0  0  0  0  0  0
  146.6665  136.4997  177.6057 C   0  0  0  0  0  0  0  0  0  0  0  0
  147.2901  137.6010  177.0831 C   0  0  0  0  0  0  0  0  0  0  0  0
  148.3258  138.2499  177.7611 C   0  0  0  0  0  0  0  0  0  0  0  0
  154.4589  135.2390  191.9940 C   0  0  0  0  0  0  0  0  0  0  0  0
  157.5665  132.5907  190.5802 C   0  0  0  0  0  0  0  0  0  0  0  0
  156.3110  132.1114  190.8804 C   0  0  0  0  0  0  0  0  0  0  0  0
  155.3191  132.9529  191.3324 C   0  0  0  0  0  0  0  0  0  0  0  0
  155.5206  134.3022  191.5070 C   0  0  0  0  0  0  0  0  0  0  0  0
  156.7832  134.7792  191.2045 C   0  0  0  0  0  0  0  0  0  0  0  0
  157.7800  133.9534  190.7543 C   0  0  0  0  0  0  0  0  0  0  0  0
  158.3179  130.4268  189.6583 N   0  0  0  0  0  0  0  0  0  0  0  0
  158.6226  131.7233  190.1010 C   0  0  0  0  0  0  0  0  0  0  0  0
  159.7963  132.1429  190.0889 O   0  0  0  0  0  0  0  0  0  0  0  0
  158.0797  129.7013  190.3475 H   0  0  0  0  0  0  0  0  0  0  0  0
  158.3326  130.2014  188.6409 H   0  0  0  0  0  0  0  0  0  0  0  0
 38 39  1  0  0  0
 39 40  2  0  0  0
 39 32  1  0  0  0
 32 33  2  0  0  0
 33 34  1  0  0  0
 34 35  2  0  0  0
 35 31  1  0  0  0
 31  1  1  0  0  0
  1  2  1  0  0  0
  2  3  1  0  0  0
  3  4  1  0  0  0
  4  5  1  0  0  0
  5  6  1  0  0  0
  6  7  1  0  0  0
  7  8  1  0  0  0
  7 11  1  0  0  0
 11 12  1  0  0  0
 12 13  2  0  0  0
 12 15  1  0  0  0
 15 16  2  0  0  0
 16 17  1  0  0  0
 17 18  2  0  0  0
 18 19  1  0  0  0
 19 20  2  0  0  0
 20 21  1  0  0  0
 21 22  2  0  0  0
 22 23  1  0  0  0
 19 25  1  0  0  0
 25 26  2  0  0  0
 26 27  1  0  0  0
 27 28  2  0  0  0
 28 29  1  0  0  0
 29 30  2  0  0  0
  4  9  1  0  0  0
  9 10  1  0  0  0
 35 36  1  0  0  0
 36 37  2  0  0  0
 37 32  1  0  0  0
 10  1  1  0  0  0
  8  4  1  0  0  0
 23 15  1  0  0  0
 30 25  1  0  0  0
 22 17  1  0  0  0
 38 41  1  0  0  0
 38 42  1  0  0  0
 11 14  1  0  0  0
 23 24  1  0  0  0
M  END
> <minimizedAffinity>
-8.33150

> <CNNscore>
0.3398642838

> <CNNaffinity>
5.6888074875

> <CNN_VS>
1.9334224463

> <CNNaffinity_variance>
0.0568847358

$$$$
[H]c1c([H])c([H])c(-c2c([H])c([H])c3c(c2[H])c([H])c(C(=O)N([H])C2([H])C([H])([H])C([H])([H])C4(C([H])([H])C([H])([H])N(C([H])([H])c5c([H])c([H])c(C(=O)N([H])[H])c([H])c5[H])C([H])([H])C4([H])[H])C2([H])[H])n3[H])c([H])c1[H]


 42 47  0  0  0  0  0  0  0  0999 V2000
  154.2621  137.4456  190.9945 N   0  0  0  0  0  0  0  0  0  0  0  0
  153.7711  136.8058  189.8482 C   0  0  0  0  0  0  0  0  0  0  0  0
  154.8174  136.3775  188.8537 C   0  0  0  0  0  0  0  0  0  0  0  0
  155.9788  135.6732  189.5330 C   0  0  0  0  0  0  0  0  0  0  0  0
  155.5307  134.3948  190.1511 C   0  0  0  0  0  0  0  0  0  0  0  0
  156.0928  133.2688  189.3489 C   0  0  0  0  0  0  0  0  0  0  0  0
  157.1637  133.8573  188.4477 C   0  0  0  0  0  0  0  0  0  0  0  0
  157.0372  135.3472  188.5254 C   0  0  0  0  0  0  0  0  0  0  0  0
  156.5616  136.6520  190.5343 C   0  0  0  0  0  0  0  0  0  0  0  0
  155.4959  136.9644  191.5281 C   0  0  0  0  0  0  0  0  0  0  0  0
  156.9722  133.4387  187.0683 N   0  0  0  0  0  0  0  0  0  0  0  0
  157.7231  132.3566  186.5640 C   0  0  0  0  0  0  0  0  0  0  0  0
  158.5594  131.7401  187.3121 O   0  0  0  0  0  0  0  0  0  0  0  0
  156.2974  133.9273  186.4673 H   0  0  0  0  0  0  0  0  0  0  0  0
  157.5394  131.9462  185.1818 C   0  0  0  0  0  0  0  0  0  0  0  0
  156.4456  132.1574  184.3879 C   0  0  0  0  0  0  0  0  0  0  0  0
  156.6716  131.6003  183.1567 C   0  0  0  0  0  0  0  0  0  0  0  0
  155.9252  131.5088  181.9807 C   0  0  0  0  0  0  0  0  0  0  0  0
  156.3801  130.8774  180.8418 C   0  0  0  0  0  0  0  0  0  0  0  0
  157.6383  130.3140  180.8865 C   0  0  0  0  0  0  0  0  0  0  0  0
  158.3918  130.4021  182.0585 C   0  0  0  0  0  0  0  0  0  0  0  0
  157.9251  131.0376  183.1928 C   0  0  0  0  0  0  0  0  0  0  0  0
  158.4272  131.2588  184.4200 N   0  0  0  0  0  0  0  0  0  0  0  0
  159.3651  130.9506  184.7534 H   0  0  0  0  0  0  0  0  0  0  0  0
  155.5811  130.8067  179.6331 C   0  0  0  0  0  0  0  0  0  0  0  0
  154.5181  131.6581  179.4228 C   0  0  0  0  0  0  0  0  0  0  0  0
  153.7415  131.6054  178.2790 C   0  0  0  0  0  0  0  0  0  0  0  0
  154.0342  130.6703  177.3067 C   0  0  0  0  0  0  0  0  0  0  0  0
  155.0873  129.8179  177.5049 C   0  0  0  0  0  0  0  0  0  0  0  0
  155.8700  129.8733  178.6614 C   0  0  0  0  0  0  0  0  0  0  0  0
  153.3421  137.9482  191.9372 C   0  0  0  0  0  0  0  0  0  0  0  0
  151.4865  134.6865  194.0791 C   0  0  0  0  0  0  0  0  0  0  0  0
  152.6350  134.4886  193.3456 C   0  0  0  0  0  0  0  0  0  0  0  0
  153.2278  135.5260  192.6609 C   0  0  0  0  0  0  0  0  0  0  0  0
  152.7158  136.8025  192.6702 C   0  0  0  0  0  0  0  0  0  0  0  0
  151.5621  136.9966  193.4081 C   0  0  0  0  0  0  0  0  0  0  0  0
  150.9611  135.9735  194.0938 C   0  0  0  0  0  0  0  0  0  0  0  0
  149.4492  133.5154  194.8373 N   0  0  0  0  0  0  0  0  0  0  0  0
  150.8491  133.6098  194.8084 C   0  0  0  0  0  0  0  0  0  0  0  0
  151.5579  132.7761  195.4055 O   0  0  0  0  0  0  0  0  0  0  0  0
  148.9105  134.1784  195.4104 H   0  0  0  0  0  0  0  0  0  0  0  0
  148.9600  132.7807  194.2830 H   0  0  0  0  0  0  0  0  0  0  0  0
 38 39  1  0  0  0
 39 40  2  0  0  0
 39 32  1  0  0  0
 32 33  2  0  0  0
 33 34  1  0  0  0
 34 35  2  0  0  0
 35 31  1  0  0  0
 31  1  1  0  0  0
  1  2  1  0  0  0
  2  3  1  0  0  0
  3  4  1  0  0  0
  4  5  1  0  0  0
  5  6  1  0  0  0
  6  7  1  0  0  0
  7  8  1  0  0  0
  7 11  1  0  0  0
 11 12  1  0  0  0
 12 13  2  0  0  0
 12 15  1  0  0  0
 15 16  2  0  0  0
 16 17  1  0  0  0
 17 18  2  0  0  0
 18 19  1  0  0  0
 19 20  2  0  0  0
 20 21  1  0  0  0
 21 22  2  0  0  0
 22 23  1  0  0  0
 19 25  1  0  0  0
 25 26  2  0  0  0
 26 27  1  0  0  0
 27 28  2  0  0  0
 28 29  1  0  0  0
 29 30  2  0  0  0
  4  9  1  0  0  0
  9 10  1  0  0  0
 35 36  1  0  0  0
 36 37  2  0  0  0
 37 32  1  0  0  0
 10  1  1  0  0  0
  8  4  1  0  0  0
 23 15  1  0  0  0
 30 25  1  0  0  0
 22 17  1  0  0  0
 38 41  1  0  0  0
 38 42  1  0  0  0
 11 14  1  0  0  0
 23 24  1  0  0  0
M  END
> <minimizedAffinity>
-5.92303

> <CNNscore>
0.3393717110

> <CNNaffinity>
5.2497859001

> <CNN_VS>
1.7816288471

> <CNNaffinity_variance>
0.1327792704

$$$$
[H]c1c([H])c([H])c(-c2c([H])c([H])c3c(c2[H])c([H])c(C(=O)N([H])C2([H])C([H])([H])C([H])([H])C4(C([H])([H])C([H])([H])N(C([H])([H])c5c([H])c([H])c(C(=O)N([H])[H])c([H])c5[H])C([H])([H])C4([H])[H])C2([H])[H])n3[H])c([H])c1[H]


 42 47  0  0  0  0  0  0  0  0999 V2000
  155.1012  136.4232  190.5773 N   0  0  0  0  0  0  0  0  0  0  0  0
  154.4011  135.7150  189.5911 C   0  0  0  0  0  0  0  0  0  0  0  0
  153.5504  136.5568  188.6775 C   0  0  0  0  0  0  0  0  0  0  0  0
  154.3052  137.7759  188.1771 C   0  0  0  0  0  0  0  0  0  0  0  0
  155.4531  137.3695  187.3202 C   0  0  0  0  0  0  0  0  0  0  0  0
  155.1295  137.7294  185.9085 C   0  0  0  0  0  0  0  0  0  0  0  0
  153.9346  138.6652  185.9519 C   0  0  0  0  0  0  0  0  0  0  0  0
  153.3983  138.6329  187.3495 C   0  0  0  0  0  0  0  0  0  0  0  0
  154.7213  138.5685  189.4014 C   0  0  0  0  0  0  0  0  0  0  0  0
  155.6224  137.7013  190.2118 C   0  0  0  0  0  0  0  0  0  0  0  0
  152.8938  138.2248  185.0368 N   0  0  0  0  0  0  0  0  0  0  0  0
  152.8768  138.7241  183.7179 C   0  0  0  0  0  0  0  0  0  0  0  0
  153.7719  139.5499  183.3230 O   0  0  0  0  0  0  0  0  0  0  0  0
  152.1778  137.5574  185.3487 H   0  0  0  0  0  0  0  0  0  0  0  0
  151.8294  138.2922  182.8073 C   0  0  0  0  0  0  0  0  0  0  0  0
  151.6344  138.6889  181.5128 C   0  0  0  0  0  0  0  0  0  0  0  0
  150.5279  138.0549  181.0119 C   0  0  0  0  0  0  0  0  0  0  0  0
  149.8715  138.0754  179.7802 C   0  0  0  0  0  0  0  0  0  0  0  0
  148.7426  137.3300  179.5107 C   0  0  0  0  0  0  0  0  0  0  0  0
  148.2523  136.5303  180.5218 C   0  0  0  0  0  0  0  0  0  0  0  0
  148.9034  136.5032  181.7565 C   0  0  0  0  0  0  0  0  0  0  0  0
  150.0340  137.2543  182.0140 C   0  0  0  0  0  0  0  0  0  0  0  0
  150.8332  137.4133  183.0832 N   0  0  0  0  0  0  0  0  0  0  0  0
  150.7155  136.9354  184.0016 H   0  0  0  0  0  0  0  0  0  0  0  0
  148.0889  137.3692  178.2163 C   0  0  0  0  0  0  0  0  0  0  0  0
  148.2834  138.4179  177.3437 C   0  0  0  0  0  0  0  0  0  0  0  0
  147.6674  138.4762  176.1062 C   0  0  0  0  0  0  0  0  0  0  0  0
  146.8262  137.4515  175.7218 C   0  0  0  0  0  0  0  0  0  0  0  0
  146.6240  136.4046  176.5809 C   0  0  0  0  0  0  0  0  0  0  0  0
  147.2475  136.3483  177.8304 C   0  0  0  0  0  0  0  0  0  0  0  0
  155.8580  135.7011  191.5225 C   0  0  0  0  0  0  0  0  0  0  0  0
  158.5770  133.0275  189.4907 C   0  0  0  0  0  0  0  0  0  0  0  0
  158.3946  134.3196  189.0508 C   0  0  0  0  0  0  0  0  0  0  0  0
  157.5276  135.1734  189.6956 C   0  0  0  0  0  0  0  0  0  0  0  0
  156.8044  134.7919  190.8015 C   0  0  0  0  0  0  0  0  0  0  0  0
  156.9906  133.4933  191.2397 C   0  0  0  0  0  0  0  0  0  0  0  0
  157.8495  132.6326  190.6076 C   0  0  0  0  0  0  0  0  0  0  0  0
  159.4765  132.0085  187.4292 N   0  0  0  0  0  0  0  0  0  0  0  0
  159.4858  132.1147  188.8286 C   0  0  0  0  0  0  0  0  0  0  0  0
  160.2689  131.4304  189.5159 O   0  0  0  0  0  0  0  0  0  0  0  0
  158.6995  131.5192  186.9655 H   0  0  0  0  0  0  0  0  0  0  0  0
  160.2494  132.4217  186.8652 H   0  0  0  0  0  0  0  0  0  0  0  0
 38 39  1  0  0  0
 39 40  2  0  0  0
 39 32  1  0  0  0
 32 33  2  0  0  0
 33 34  1  0  0  0
 34 35  2  0  0  0
 35 31  1  0  0  0
 31  1  1  0  0  0
  1  2  1  0  0  0
  2  3  1  0  0  0
  3  4  1  0  0  0
  4  5  1  0  0  0
  5  6  1  0  0  0
  6  7  1  0  0  0
  7  8  1  0  0  0
  7 11  1  0  0  0
 11 12  1  0  0  0
 12 13  2  0  0  0
 12 15  1  0  0  0
 15 16  2  0  0  0
 16 17  1  0  0  0
 17 18  2  0  0  0
 18 19  1  0  0  0
 19 20  2  0  0  0
 20 21  1  0  0  0
 21 22  2  0  0  0
 22 23  1  0  0  0
 19 25  1  0  0  0
 25 26  2  0  0  0
 26 27  1  0  0  0
 27 28  2  0  0  0
 28 29  1  0  0  0
 29 30  2  0  0  0
  4  9  1  0  0  0
  9 10  1  0  0  0
 35 36  1  0  0  0
 36 37  2  0  0  0
 37 32  1  0  0  0
 10  1  1  0  0  0
  8  4  1  0  0  0
 23 15  1  0  0  0
 30 25  1  0  0  0
 22 17  1  0  0  0
 38 41  1  0  0  0
 38 42  1  0  0  0
 11 14  1  0  0  0
 23 24  1  0  0  0
M  END
> <minimizedAffinity>
-7.54544

> <CNNscore>
0.3386561573

> <CNNaffinity>
5.7303214073

> <CNN_VS>
1.9406086206

> <CNNaffinity_variance>
0.2632291913

$$$$
[H]OC([H])([H])C([H])(OC(=O)C([H])([H])c1c([H])c([H])c(C(=O)N2C([H])([H])C([H])([H])C([H])(N(c3nc([H])c(C(C([H])([H])[H])(C([H])([H])[H])C([H])([H])[H])n3[H])C([H])([H])c3oc(C#N)c([H])c3[H])C([H])([H])C2([H])[H])c([H])c1F)C([H])([H])[H]


 43 46  0  0  0  0  0  0  0  0999 V2000
  154.6139  137.3062  186.0240 C   0  0  0  0  0  0  0  0  0  0  0  0
  154.4913  136.1597  185.4035 O   0  0  0  0  0  0  0  0  0  0  0  0
  154.6239  137.2177  187.3890 N   0  0  0  0  0  0  0  0  0  0  0  0
  154.7320  138.2125  188.3823 C   0  0  0  0  0  0  0  0  0  0  0  0
  155.0580  137.6860  189.7749 C   0  0  0  0  0  0  0  0  0  0  0  0
  156.0399  136.5692  189.7716 C   0  0  0  0  0  0  0  0  0  0  0  0
  156.0039  135.7230  188.5309 C   0  0  0  0  0  0  0  0  0  0  0  0
  154.5719  135.8242  187.9501 C   0  0  0  0  0  0  0  0  0  0  0  0
  154.7732  140.5888  183.2417 C   0  0  0  0  0  0  0  0  0  0  0  0
  155.8190  140.3449  184.0679 C   0  0  0  0  0  0  0  0  0  0  0  0
  155.8085  139.3034  185.0260 C   0  0  0  0  0  0  0  0  0  0  0  0
  154.7353  138.4791  185.1689 C   0  0  0  0  0  0  0  0  0  0  0  0
  153.6558  138.7481  184.3032 C   0  0  0  0  0  0  0  0  0  0  0  0
  153.6470  139.7441  183.3761 C   0  0  0  0  0  0  0  0  0  0  0  0
  152.6129  139.9948  182.5471 F   0  0  0  0  0  0  0  0  0  0  0  0
  154.7443  141.6146  182.1734 C   0  0  0  0  0  0  0  0  0  0  0  0
  155.9840  142.3847  182.0815 C   0  0  0  0  0  0  0  0  0  0  0  0
  155.9323  143.6096  182.5739 O   0  0  0  0  0  0  0  0  0  0  0  0
  157.1359  142.1248  181.6102 O   0  0  0  0  0  0  0  0  0  0  0  0
  158.6275  140.2354  181.4088 C   0  0  0  0  0  0  0  0  0  0  0  0
  158.2843  141.7065  181.1777 C   0  0  0  0  0  0  0  0  0  0  0  0
  158.5210  141.9743  179.6789 C   0  0  0  0  0  0  0  0  0  0  0  0
  157.5008  141.4417  178.9250 O   0  0  0  0  0  0  0  0  0  0  0  0
  157.8932  141.2830  178.0089 H   0  0  0  0  0  0  0  0  0  0  0  0
  155.9476  135.7351  190.9458 N   0  0  0  0  0  0  0  0  0  0  0  0
  154.6852  135.3370  191.4430 C   0  0  0  0  0  0  0  0  0  0  0  0
  153.9518  134.2697  191.1975 N   0  0  0  0  0  0  0  0  0  0  0  0
  152.7874  134.2981  191.8634 C   0  0  0  0  0  0  0  0  0  0  0  0
  152.7811  135.4821  192.5944 C   0  0  0  0  0  0  0  0  0  0  0  0
  153.9595  136.0947  192.3165 N   0  0  0  0  0  0  0  0  0  0  0  0
  154.2215  137.0024  192.7342 H   0  0  0  0  0  0  0  0  0  0  0  0
  151.7180  136.0008  193.4894 C   0  0  0  0  0  0  0  0  0  0  0  0
  150.3941  135.7035  192.7970 C   0  0  0  0  0  0  0  0  0  0  0  0
  151.8714  137.5112  193.5562 C   0  0  0  0  0  0  0  0  0  0  0  0
  151.7775  135.4463  194.8833 C   0  0  0  0  0  0  0  0  0  0  0  0
  157.1235  135.2845  191.6262 C   0  0  0  0  0  0  0  0  0  0  0  0
  157.7215  134.0405  191.0987 C   0  0  0  0  0  0  0  0  0  0  0  0
  157.7074  132.8225  191.6755 C   0  0  0  0  0  0  0  0  0  0  0  0
  158.3614  131.9460  190.8714 C   0  0  0  0  0  0  0  0  0  0  0  0
  158.7814  132.7014  189.7542 C   0  0  0  0  0  0  0  0  0  0  0  0
  158.3852  133.9171  189.9320 O   0  0  0  0  0  0  0  0  0  0  0  0
  159.5112  132.0708  188.7007 C   0  0  0  0  0  0  0  0  0  0  0  0
  160.1261  131.5717  187.8362 N   0  0  0  0  0  0  0  0  0  0  0  0
 20 21  1  0  0  0
 21 22  1  0  0  0
 22 23  1  0  0  0
 21 19  1  0  0  0
 19 17  1  0  0  0
 17 18  2  0  0  0
 17 16  1  0  0  0
 16  9  1  0  0  0
  9 10  2  0  0  0
 10 11  1  0  0  0
 11 12  2  0  0  0
 12 13  1  0  0  0
 13 14  2  0  0  0
 14 15  1  0  0  0
 12  1  1  0  0  0
  1  2  2  0  0  0
  1  3  1  0  0  0
  3  4  1  0  0  0
  4  5  1  0  0  0
  5  6  1  0  0  0
  6  7  1  0  0  0
  7  8  1  0  0  0
  6 25  1  0  0  0
 25 36  1  0  0  0
 36 37  1  0  0  0
 37 38  2  0  0  0
 38 39  1  0  0  0
 39 40  2  0  0  0
 40 41  1  0  0  0
 40 42  1  0  0  0
 42 43  3  0  0  0
 25 26  1  0  0  0
 26 27  2  0  0  0
 27 28  1  0  0  0
 28 29  2  0  0  0
 29 30  1  0  0  0
 29 32  1  0  0  0
 32 33  1  0  0  0
 32 34  1  0  0  0
 32 35  1  0  0  0
 14  9  1  0  0  0
  8  3  1  0  0  0
 41 37  1  0  0  0
 30 26  1  0  0  0
 23 24  1  0  0  0
 30 31  1  0  0  0
M  END
> <minimizedAffinity>
-8.15260

> <CNNscore>
0.2537510693

> <CNNaffinity>
6.5074014664

> <CNN_VS>
1.6512601376

> <CNNaffinity_variance>
0.0337782204

$$$$
[H]OC([H])([H])C([H])(OC(=O)C([H])([H])c1c([H])c([H])c(C(=O)N2C([H])([H])C([H])([H])C([H])(N(c3nc([H])c(C(C([H])([H])[H])(C([H])([H])[H])C([H])([H])[H])n3[H])C([H])([H])c3oc(C#N)c([H])c3[H])C([H])([H])C2([H])[H])c([H])c1F)C([H])([H])[H]


 43 46  0  0  0  0  0  0  0  0999 V2000
  153.8997  138.5261  184.4062 C   0  0  0  0  0  0  0  0  0  0  0  0
  153.5518  137.8213  183.3591 O   0  0  0  0  0  0  0  0  0  0  0  0
  153.2995  138.1456  185.5750 N   0  0  0  0  0  0  0  0  0  0  0  0
  153.4132  138.6549  186.8849 C   0  0  0  0  0  0  0  0  0  0  0  0
  152.8574  137.7417  187.9712 C   0  0  0  0  0  0  0  0  0  0  0  0
  153.1412  136.3009  187.7370 C   0  0  0  0  0  0  0  0  0  0  0  0
  153.2538  135.9245  186.2870 C   0  0  0  0  0  0  0  0  0  0  0  0
  152.4052  136.9409  185.4839 C   0  0  0  0  0  0  0  0  0  0  0  0
  156.6116  141.7035  183.3610 C   0  0  0  0  0  0  0  0  0  0  0  0
  157.0451  140.6534  184.0994 C   0  0  0  0  0  0  0  0  0  0  0  0
  156.1914  139.5991  184.5024 C   0  0  0  0  0  0  0  0  0  0  0  0
  154.8736  139.5819  184.1637 C   0  0  0  0  0  0  0  0  0  0  0  0
  154.4391  140.6826  183.3975 C   0  0  0  0  0  0  0  0  0  0  0  0
  155.2442  141.7052  183.0005 C   0  0  0  0  0  0  0  0  0  0  0  0
  154.8243  142.7542  182.2638 F   0  0  0  0  0  0  0  0  0  0  0  0
  157.4629  142.8023  182.8485 C   0  0  0  0  0  0  0  0  0  0  0  0
  158.8868  142.5966  183.1101 C   0  0  0  0  0  0  0  0  0  0  0  0
  159.5757  142.0547  182.1216 O   0  0  0  0  0  0  0  0  0  0  0  0
  159.6282  142.8283  184.1167 O   0  0  0  0  0  0  0  0  0  0  0  0
  160.0474  142.3934  186.4556 C   0  0  0  0  0  0  0  0  0  0  0  0
  160.4740  142.9382  185.0931 C   0  0  0  0  0  0  0  0  0  0  0  0
  161.8540  142.3211  184.7946 C   0  0  0  0  0  0  0  0  0  0  0  0
  161.7257  141.2194  183.9804 O   0  0  0  0  0  0  0  0  0  0  0  0
  162.5424  140.6534  184.1572 H   0  0  0  0  0  0  0  0  0  0  0  0
  152.2080  135.4273  188.4069 N   0  0  0  0  0  0  0  0  0  0  0  0
  152.3436  135.1604  189.7889 C   0  0  0  0  0  0  0  0  0  0  0  0
  152.9744  134.1970  190.4301 N   0  0  0  0  0  0  0  0  0  0  0  0
  152.8222  134.2967  191.7592 C   0  0  0  0  0  0  0  0  0  0  0  0
  152.0293  135.4184  191.9813 C   0  0  0  0  0  0  0  0  0  0  0  0
  151.7548  135.9264  190.7534 N   0  0  0  0  0  0  0  0  0  0  0  0
  151.1795  136.7744  190.6231 H   0  0  0  0  0  0  0  0  0  0  0  0
  151.5550  135.9635  193.2768 C   0  0  0  0  0  0  0  0  0  0  0  0
  151.9635  137.4309  193.2981 C   0  0  0  0  0  0  0  0  0  0  0  0
  152.3247  135.2574  194.3807 C   0  0  0  0  0  0  0  0  0  0  0  0
  150.0849  135.7702  193.5121 C   0  0  0  0  0  0  0  0  0  0  0  0
  151.1232  134.8208  187.6967 C   0  0  0  0  0  0  0  0  0  0  0  0
  149.8766  135.6128  187.6505 C   0  0  0  0  0  0  0  0  0  0  0  0
  148.8842  135.6221  188.5623 C   0  0  0  0  0  0  0  0  0  0  0  0
  147.9185  136.4845  188.1543 C   0  0  0  0  0  0  0  0  0  0  0  0
  148.3790  137.0124  186.9277 C   0  0  0  0  0  0  0  0  0  0  0  0
  149.5249  136.4743  186.6752 O   0  0  0  0  0  0  0  0  0  0  0  0
  147.5860  137.9661  186.2194 C   0  0  0  0  0  0  0  0  0  0  0  0
  146.9545  138.7634  185.6360 N   0  0  0  0  0  0  0  0  0  0  0  0
 20 21  1  0  0  0
 21 22  1  0  0  0
 22 23  1  0  0  0
 21 19  1  0  0  0
 19 17  1  0  0  0
 17 18  2  0  0  0
 17 16  1  0  0  0
 16  9  1  0  0  0
  9 10  2  0  0  0
 10 11  1  0  0  0
 11 12  2  0  0  0
 12 13  1  0  0  0
 13 14  2  0  0  0
 14 15  1  0  0  0
 12  1  1  0  0  0
  1  2  2  0  0  0
  1  3  1  0  0  0
  3  4  1  0  0  0
  4  5  1  0  0  0
  5  6  1  0  0  0
  6  7  1  0  0  0
  7  8  1  0  0  0
  6 25  1  0  0  0
 25 36  1  0  0  0
 36 37  1  0  0  0
 37 38  2  0  0  0
 38 39  1  0  0  0
 39 40  2  0  0  0
 40 41  1  0  0  0
 40 42  1  0  0  0
 42 43  3  0  0  0
 25 26  1  0  0  0
 26 27  2  0  0  0
 27 28  1  0  0  0
 28 29  2  0  0  0
 29 30  1  0  0  0
 29 32  1  0  0  0
 32 33  1  0  0  0
 32 34  1  0  0  0
 32 35  1  0  0  0
 14  9  1  0  0  0
  8  3  1  0  0  0
 41 37  1  0  0  0
 30 26  1  0  0  0
 23 24  1  0  0  0
 30 31  1  0  0  0
M  END
> <minimizedAffinity>
-8.11703

> <CNNscore>
0.2117332071

> <CNNaffinity>
6.4019956589

> <CNN_VS>
1.3555151224

> <CNNaffinity_variance>
0.1386305988

$$$$
[H]OC([H])([H])C([H])(OC(=O)C([H])([H])c1c([H])c([H])c(C(=O)N2C([H])([H])C([H])([H])C([H])(N(c3nc([H])c(C(C([H])([H])[H])(C([H])([H])[H])C([H])([H])[H])n3[H])C([H])([H])c3oc(C#N)c([H])c3[H])C([H])([H])C2([H])[H])c([H])c1F)C([H])([H])[H]


 43 46  0  0  0  0  0  0  0  0999 V2000
  154.1998  138.1558  184.5300 C   0  0  0  0  0  0  0  0  0  0  0  0
  154.3818  137.0881  183.7944 O   0  0  0  0  0  0  0  0  0  0  0  0
  153.8607  137.9014  185.8306 N   0  0  0  0  0  0  0  0  0  0  0  0
  153.5846  138.7722  186.9046 C   0  0  0  0  0  0  0  0  0  0  0  0
  153.5928  138.1095  188.2771 C   0  0  0  0  0  0  0  0  0  0  0  0
  154.6664  137.0932  188.4382 C   0  0  0  0  0  0  0  0  0  0  0  0
  155.0589  136.4062  187.1613 C   0  0  0  0  0  0  0  0  0  0  0  0
  153.8287  136.4505  186.2218 C   0  0  0  0  0  0  0  0  0  0  0  0
  154.9194  142.0600  182.8620 C   0  0  0  0  0  0  0  0  0  0  0  0
  153.8867  141.3070  182.4123 C   0  0  0  0  0  0  0  0  0  0  0  0
  153.6235  140.0040  182.8977 C   0  0  0  0  0  0  0  0  0  0  0  0
  154.4017  139.4312  183.8558 C   0  0  0  0  0  0  0  0  0  0  0  0
  155.4725  140.2272  184.3108 C   0  0  0  0  0  0  0  0  0  0  0  0
  155.7415  141.4814  183.8567 C   0  0  0  0  0  0  0  0  0  0  0  0
  156.7651  142.2408  184.2984 F   0  0  0  0  0  0  0  0  0  0  0  0
  155.2105  143.4524  182.4487 C   0  0  0  0  0  0  0  0  0  0  0  0
  156.5975  143.6502  182.0299 C   0  0  0  0  0  0  0  0  0  0  0  0
  157.1218  144.8251  182.3301 O   0  0  0  0  0  0  0  0  0  0  0  0
  157.4331  142.9154  181.4147 O   0  0  0  0  0  0  0  0  0  0  0  0
  158.5174  140.7583  181.3332 C   0  0  0  0  0  0  0  0  0  0  0  0
  158.3949  142.2176  180.8963 C   0  0  0  0  0  0  0  0  0  0  0  0
  158.3977  142.2082  179.3555 C   0  0  0  0  0  0  0  0  0  0  0  0
  157.3324  141.4829  178.8739 O   0  0  0  0  0  0  0  0  0  0  0  0
  157.6063  141.1757  177.9524 H   0  0  0  0  0  0  0  0  0  0  0  0
  154.3681  136.1163  189.4577 N   0  0  0  0  0  0  0  0  0  0  0  0
  155.4135  135.4662  190.1534 C   0  0  0  0  0  0  0  0  0  0  0  0
  156.0977  135.8208  191.2227 N   0  0  0  0  0  0  0  0  0  0  0  0
  157.0378  134.9172  191.5382 C   0  0  0  0  0  0  0  0  0  0  0  0
  156.9420  133.9026  190.5906 C   0  0  0  0  0  0  0  0  0  0  0  0
  155.9354  134.2684  189.7576 N   0  0  0  0  0  0  0  0  0  0  0  0
  155.6443  133.6866  188.9551 H   0  0  0  0  0  0  0  0  0  0  0  0
  157.7626  132.6720  190.4796 C   0  0  0  0  0  0  0  0  0  0  0  0
  158.2298  132.3412  191.8913 C   0  0  0  0  0  0  0  0  0  0  0  0
  158.9940  133.0146  189.6577 C   0  0  0  0  0  0  0  0  0  0  0  0
  157.0476  131.5257  189.8250 C   0  0  0  0  0  0  0  0  0  0  0  0
  153.0158  135.7900  189.7952 C   0  0  0  0  0  0  0  0  0  0  0  0
  152.6923  135.8482  191.2359 C   0  0  0  0  0  0  0  0  0  0  0  0
  152.5256  136.9538  191.9885 C   0  0  0  0  0  0  0  0  0  0  0  0
  152.2349  136.5813  193.2610 C   0  0  0  0  0  0  0  0  0  0  0  0
  152.2301  135.1689  193.2480 C   0  0  0  0  0  0  0  0  0  0  0  0
  152.5021  134.7872  192.0452 O   0  0  0  0  0  0  0  0  0  0  0  0
  151.9548  134.4458  194.4487 C   0  0  0  0  0  0  0  0  0  0  0  0
  151.7068  133.8463  195.4253 N   0  0  0  0  0  0  0  0  0  0  0  0
 20 21  1  0  0  0
 21 22  1  0  0  0
 22 23  1  0  0  0
 21 19  1  0  0  0
 19 17  1  0  0  0
 17 18  2  0  0  0
 17 16  1  0  0  0
 16  9  1  0  0  0
  9 10  2  0  0  0
 10 11  1  0  0  0
 11 12  2  0  0  0
 12 13  1  0  0  0
 13 14  2  0  0  0
 14 15  1  0  0  0
 12  1  1  0  0  0
  1  2  2  0  0  0
  1  3  1  0  0  0
  3  4  1  0  0  0
  4  5  1  0  0  0
  5  6  1  0  0  0
  6  7  1  0  0  0
  7  8  1  0  0  0
  6 25  1  0  0  0
 25 36  1  0  0  0
 36 37  1  0  0  0
 37 38  2  0  0  0
 38 39  1  0  0  0
 39 40  2  0  0  0
 40 41  1  0  0  0
 40 42  1  0  0  0
 42 43  3  0  0  0
 25 26  1  0  0  0
 26 27  2  0  0  0
 27 28  1  0  0  0
 28 29  2  0  0  0
 29 30  1  0  0  0
 29 32  1  0  0  0
 32 33  1  0  0  0
 32 34  1  0  0  0
 32 35  1  0  0  0
 14  9  1  0  0  0
  8  3  1  0  0  0
 41 37  1  0  0  0
 30 26  1  0  0  0
 23 24  1  0  0  0
 30 31  1  0  0  0
M  END
> <minimizedAffinity>
-8.09815

> <CNNscore>
0.1933119595

> <CNNaffinity>
6.3372216225

> <CNN_VS>
1.2250607014

> <CNNaffinity_variance>
0.1429828107

$$$$
[H]OC([H])([H])C([H])(OC(=O)C([H])([H])c1c([H])c([H])c(C(=O)N2C([H])([H])C([H])([H])C([H])(N(c3nc([H])c(C(C([H])([H])[H])(C([H])([H])[H])C([H])([H])[H])n3[H])C([H])([H])c3oc(C#N)c([H])c3[H])C([H])([H])C2([H])[H])c([H])c1F)C([H])([H])[H]


 43 46  0  0  0  0  0  0  0  0999 V2000
  153.1987  136.5467  185.8329 C   0  0  0  0  0  0  0  0  0  0  0  0
  152.3494  136.3816  184.8501 O   0  0  0  0  0  0  0  0  0  0  0  0
  154.3062  137.2828  185.5121 N   0  0  0  0  0  0  0  0  0  0  0  0
  155.4228  137.6633  186.2844 C   0  0  0  0  0  0  0  0  0  0  0  0
  156.2695  138.7728  185.6720 C   0  0  0  0  0  0  0  0  0  0  0  0
  155.4664  139.8322  185.0056 C   0  0  0  0  0  0  0  0  0  0  0  0
  154.1613  139.3494  184.4396 C   0  0  0  0  0  0  0  0  0  0  0  0
  154.3316  137.8442  184.1180 C   0  0  0  0  0  0  0  0  0  0  0  0
  152.2870  135.0196  189.7545 C   0  0  0  0  0  0  0  0  0  0  0  0
  152.4328  134.1695  188.7095 C   0  0  0  0  0  0  0  0  0  0  0  0
  152.6973  134.6162  187.3930 C   0  0  0  0  0  0  0  0  0  0  0  0
  152.8234  135.9396  187.1027 C   0  0  0  0  0  0  0  0  0  0  0  0
  152.6669  136.8098  188.2007 C   0  0  0  0  0  0  0  0  0  0  0  0
  152.4124  136.3997  189.4730 C   0  0  0  0  0  0  0  0  0  0  0  0
  152.2676  137.2363  190.5210 F   0  0  0  0  0  0  0  0  0  0  0  0
  152.0780  134.6180  191.1650 C   0  0  0  0  0  0  0  0  0  0  0  0
  153.3268  134.4616  191.9096 C   0  0  0  0  0  0  0  0  0  0  0  0
  153.3894  133.4069  192.7029 O   0  0  0  0  0  0  0  0  0  0  0  0
  154.3973  135.1454  191.9654 O   0  0  0  0  0  0  0  0  0  0  0  0
  156.7132  134.9426  191.3092 C   0  0  0  0  0  0  0  0  0  0  0  0
  155.5606  135.7173  191.9468 C   0  0  0  0  0  0  0  0  0  0  0  0
  155.5600  137.1099  191.2874 C   0  0  0  0  0  0  0  0  0  0  0  0
  156.1473  137.0571  190.0443 O   0  0  0  0  0  0  0  0  0  0  0  0
  156.4794  137.9921  189.8600 H   0  0  0  0  0  0  0  0  0  0  0  0
  156.2092  140.5525  183.9996 N   0  0  0  0  0  0  0  0  0  0  0  0
  157.6175  140.6488  184.0821 C   0  0  0  0  0  0  0  0  0  0  0  0
  158.5660  139.7784  183.7993 N   0  0  0  0  0  0  0  0  0  0  0  0
  159.7883  140.2689  184.0546 C   0  0  0  0  0  0  0  0  0  0  0  0
  159.6007  141.5598  184.5391 C   0  0  0  0  0  0  0  0  0  0  0  0
  158.2591  141.7628  184.5414 N   0  0  0  0  0  0  0  0  0  0  0  0
  157.8361  142.6519  184.8539 H   0  0  0  0  0  0  0  0  0  0  0  0
  160.6308  142.5313  184.9812 C   0  0  0  0  0  0  0  0  0  0  0  0
  161.9777  141.9252  184.6083 C   0  0  0  0  0  0  0  0  0  0  0  0
  160.5671  142.6089  186.4976 C   0  0  0  0  0  0  0  0  0  0  0  0
  160.4427  143.9102  184.4179 C   0  0  0  0  0  0  0  0  0  0  0  0
  155.5448  141.1750  182.8949 C   0  0  0  0  0  0  0  0  0  0  0  0
  156.2947  142.2669  182.2401 C   0  0  0  0  0  0  0  0  0  0  0  0
  156.0396  143.5882  182.3149 C   0  0  0  0  0  0  0  0  0  0  0  0
  156.9597  144.2576  181.5748 C   0  0  0  0  0  0  0  0  0  0  0  0
  157.8057  143.2629  181.0364 C   0  0  0  0  0  0  0  0  0  0  0  0
  157.3782  142.1180  181.4522 O   0  0  0  0  0  0  0  0  0  0  0  0
  158.8976  143.6350  180.1941 C   0  0  0  0  0  0  0  0  0  0  0  0
  159.7984  143.9169  179.4986 N   0  0  0  0  0  0  0  0  0  0  0  0
 20 21  1  0  0  0
 21 22  1  0  0  0
 22 23  1  0  0  0
 21 19  1  0  0  0
 19 17  1  0  0  0
 17 18  2  0  0  0
 17 16  1  0  0  0
 16  9  1  0  0  0
  9 10  2  0  0  0
 10 11  1  0  0  0
 11 12  2  0  0  0
 12 13  1  0  0  0
 13 14  2  0  0  0
 14 15  1  0  0  0
 12  1  1  0  0  0
  1  2  2  0  0  0
  1  3  1  0  0  0
  3  4  1  0  0  0
  4  5  1  0  0  0
  5  6  1  0  0  0
  6  7  1  0  0  0
  7  8  1  0  0  0
  6 25  1  0  0  0
 25 36  1  0  0  0
 36 37  1  0  0  0
 37 38  2  0  0  0
 38 39  1  0  0  0
 39 40  2  0  0  0
 40 41  1  0  0  0
 40 42  1  0  0  0
 42 43  3  0  0  0
 25 26  1  0  0  0
 26 27  2  0  0  0
 27 28  1  0  0  0
 28 29  2  0  0  0
 29 30  1  0  0  0
 29 32  1  0  0  0
 32 33  1  0  0  0
 32 34  1  0  0  0
 32 35  1  0  0  0
 14  9  1  0  0  0
  8  3  1  0  0  0
 41 37  1  0  0  0
 30 26  1  0  0  0
 23 24  1  0  0  0
 30 31  1  0  0  0
M  END
> <minimizedAffinity>
-7.19658

> <CNNscore>
0.1611052454

> <CNNaffinity>
6.5850191116

> <CNN_VS>
1.0608811378

> <CNNaffinity_variance>
0.2930127084

$$$$
[H]OC([H])([H])C([H])(OC(=O)C([H])([H])c1c([H])c([H])c(C(=O)N2C([H])([H])C([H])([H])C([H])(N(c3nc([H])c(C(C([H])([H])[H])(C([H])([H])[H])C([H])([H])[H])n3[H])C([H])([H])c3oc(C#N)c([H])c3[H])C([H])([H])C2([H])[H])c([H])c1F)C([H])([H])[H]


 43 46  0  0  0  0  0  0  0  0999 V2000
  154.6108  137.9078  185.2506 C   0  0  0  0  0  0  0  0  0  0  0  0
  154.1235  136.9653  184.4833 O   0  0  0  0  0  0  0  0  0  0  0  0
  154.6503  137.5959  186.5819 N   0  0  0  0  0  0  0  0  0  0  0  0
  155.0936  138.3382  187.6957 C   0  0  0  0  0  0  0  0  0  0  0  0
  155.3036  137.5172  188.9625 C   0  0  0  0  0  0  0  0  0  0  0  0
  155.9031  136.1800  188.7097 C   0  0  0  0  0  0  0  0  0  0  0  0
  155.5630  135.5979  187.3673 C   0  0  0  0  0  0  0  0  0  0  0  0
  154.2049  136.2050  186.9368 C   0  0  0  0  0  0  0  0  0  0  0  0
  155.6299  141.4190  182.9756 C   0  0  0  0  0  0  0  0  0  0  0  0
  156.5917  140.7372  183.6433 C   0  0  0  0  0  0  0  0  0  0  0  0
  156.3105  139.5983  184.4349 C   0  0  0  0  0  0  0  0  0  0  0  0
  155.0437  139.1195  184.5677 C   0  0  0  0  0  0  0  0  0  0  0  0
  154.0555  139.8417  183.8684 C   0  0  0  0  0  0  0  0  0  0  0  0
  154.3060  140.9383  183.1027 C   0  0  0  0  0  0  0  0  0  0  0  0
  153.3572  141.6234  182.4320 F   0  0  0  0  0  0  0  0  0  0  0  0
  155.8627  142.5737  182.0773 C   0  0  0  0  0  0  0  0  0  0  0  0
  157.2765  142.9218  181.9426 C   0  0  0  0  0  0  0  0  0  0  0  0
  157.7713  142.8344  180.7207 O   0  0  0  0  0  0  0  0  0  0  0  0
  158.1627  143.2966  182.7737 O   0  0  0  0  0  0  0  0  0  0  0  0
  160.2146  142.6530  183.8741 C   0  0  0  0  0  0  0  0  0  0  0  0
  159.1649  143.6960  183.4927 C   0  0  0  0  0  0  0  0  0  0  0  0
  159.9368  144.8815  182.8820 C   0  0  0  0  0  0  0  0  0  0  0  0
  160.3994  145.7189  183.8709 O   0  0  0  0  0  0  0  0  0  0  0  0
  160.5111  146.6214  183.4334 H   0  0  0  0  0  0  0  0  0  0  0  0
  155.6130  135.2266  189.7536 N   0  0  0  0  0  0  0  0  0  0  0  0
  154.3207  135.1611  190.3237 C   0  0  0  0  0  0  0  0  0  0  0  0
  153.1921  134.6598  189.8629 N   0  0  0  0  0  0  0  0  0  0  0  0
  152.1773  134.8379  190.7221 C   0  0  0  0  0  0  0  0  0  0  0  0
  152.7056  135.5074  191.8216 C   0  0  0  0  0  0  0  0  0  0  0  0
  154.0220  135.6885  191.5469 N   0  0  0  0  0  0  0  0  0  0  0  0
  154.6628  136.1621  192.2043 H   0  0  0  0  0  0  0  0  0  0  0  0
  152.0007  135.9550  193.0476 C   0  0  0  0  0  0  0  0  0  0  0  0
  152.5831  135.1416  194.1964 C   0  0  0  0  0  0  0  0  0  0  0  0
  150.5390  135.5647  192.9044 C   0  0  0  0  0  0  0  0  0  0  0  0
  152.0852  137.4346  193.2873 C   0  0  0  0  0  0  0  0  0  0  0  0
  156.6163  134.3226  190.2281 C   0  0  0  0  0  0  0  0  0  0  0  0
  157.5699  133.8435  189.2061 C   0  0  0  0  0  0  0  0  0  0  0  0
  158.7923  134.3428  188.9361 C   0  0  0  0  0  0  0  0  0  0  0  0
  159.3512  133.6214  187.9313 C   0  0  0  0  0  0  0  0  0  0  0  0
  158.3941  132.6382  187.5962 C   0  0  0  0  0  0  0  0  0  0  0  0
  157.3722  132.8077  188.3665 O   0  0  0  0  0  0  0  0  0  0  0  0
  158.6713  131.6982  186.5570 C   0  0  0  0  0  0  0  0  0  0  0  0
  158.8802  130.9130  185.7118 N   0  0  0  0  0  0  0  0  0  0  0  0
 20 21  1  0  0  0
 21 22  1  0  0  0
 22 23  1  0  0  0
 21 19  1  0  0  0
 19 17  1  0  0  0
 17 18  2  0  0  0
 17 16  1  0  0  0
 16  9  1  0  0  0
  9 10  2  0  0  0
 10 11  1  0  0  0
 11 12  2  0  0  0
 12 13  1  0  0  0
 13 14  2  0  0  0
 14 15  1  0  0  0
 12  1  1  0  0  0
  1  2  2  0  0  0
  1  3  1  0  0  0
  3  4  1  0  0  0
  4  5  1  0  0  0
  5  6  1  0  0  0
  6  7  1  0  0  0
  7  8  1  0  0  0
  6 25  1  0  0  0
 25 36  1  0  0  0
 36 37  1  0  0  0
 37 38  2  0  0  0
 38 39  1  0  0  0
 39 40  2  0  0  0
 40 41  1  0  0  0
 40 42  1  0  0  0
 42 43  3  0  0  0
 25 26  1  0  0  0
 26 27  2  0  0  0
 27 28  1  0  0  0
 28 29  2  0  0  0
 29 30  1  0  0  0
 29 32  1  0  0  0
 32 33  1  0  0  0
 32 34  1  0  0  0
 32 35  1  0  0  0
 14  9  1  0  0  0
  8  3  1  0  0  0
 41 37  1  0  0  0
 30 26  1  0  0  0
 23 24  1  0  0  0
 30 31  1  0  0  0
M  END
> <minimizedAffinity>
-7.31862

> <CNNscore>
0.1541053802

> <CNNaffinity>
6.4555578232

> <CNN_VS>
0.9948362112

> <CNNaffinity_variance>
0.1281110197

$$$$
[H]OC([H])([H])C([H])(OC(=O)C([H])([H])c1c([H])c([H])c(C(=O)N2C([H])([H])C([H])([H])C([H])(N(c3nc([H])c(C(C([H])([H])[H])(C([H])([H])[H])C([H])([H])[H])n3[H])C([H])([H])c3oc(C#N)c([H])c3[H])C([H])([H])C2([H])[H])c([H])c1F)C([H])([H])[H]


 43 46  0  0  0  0  0  0  0  0999 V2000
  154.6794  137.0161  188.5586 C   0  0  0  0  0  0  0  0  0  0  0  0
  154.4721  138.0770  189.2975 O   0  0  0  0  0  0  0  0  0  0  0  0
  154.2565  137.1320  187.2629 N   0  0  0  0  0  0  0  0  0  0  0  0
  154.3012  136.2211  186.1876 C   0  0  0  0  0  0  0  0  0  0  0  0
  154.0540  136.8431  184.8183 C   0  0  0  0  0  0  0  0  0  0  0  0
  154.6865  138.1785  184.6510 C   0  0  0  0  0  0  0  0  0  0  0  0
  154.8191  138.9599  185.9271 C   0  0  0  0  0  0  0  0  0  0  0  0
  153.6986  138.4738  186.8791 C   0  0  0  0  0  0  0  0  0  0  0  0
  156.8487  133.6951  190.2343 C   0  0  0  0  0  0  0  0  0  0  0  0
  155.5193  133.8247  190.4619 C   0  0  0  0  0  0  0  0  0  0  0  0
  154.7624  134.9132  189.9669 C   0  0  0  0  0  0  0  0  0  0  0  0
  155.3356  135.8991  189.2246 C   0  0  0  0  0  0  0  0  0  0  0  0
  156.7192  135.7498  188.9993 C   0  0  0  0  0  0  0  0  0  0  0  0
  157.4637  134.7110  189.4664 C   0  0  0  0  0  0  0  0  0  0  0  0
  158.7867  134.5706  189.2444 F   0  0  0  0  0  0  0  0  0  0  0  0
  157.6854  132.5502  190.6628 C   0  0  0  0  0  0  0  0  0  0  0  0
  157.7637  131.4881  189.6608 C   0  0  0  0  0  0  0  0  0  0  0  0
  157.8335  130.2581  190.1379 O   0  0  0  0  0  0  0  0  0  0  0  0
  157.7859  131.4921  188.3895 O   0  0  0  0  0  0  0  0  0  0  0  0
  157.3581  132.6240  186.2988 C   0  0  0  0  0  0  0  0  0  0  0  0
  157.9700  131.4799  187.1063 C   0  0  0  0  0  0  0  0  0  0  0  0
  159.4515  131.4022  186.6899 C   0  0  0  0  0  0  0  0  0  0  0  0
  160.1660  132.4372  187.2478 O   0  0  0  0  0  0  0  0  0  0  0  0
  160.9647  132.5724  186.6459 H   0  0  0  0  0  0  0  0  0  0  0  0
  154.0441  138.9828  183.6394 N   0  0  0  0  0  0  0  0  0  0  0  0
  153.0370  138.4274  182.8168 C   0  0  0  0  0  0  0  0  0  0  0  0
  152.7430  137.1754  182.5284 N   0  0  0  0  0  0  0  0  0  0  0  0
  151.7174  137.0871  181.6680 C   0  0  0  0  0  0  0  0  0  0  0  0
  151.3260  138.3926  181.3874 C   0  0  0  0  0  0  0  0  0  0  0  0
  152.1532  139.1901  182.1090 N   0  0  0  0  0  0  0  0  0  0  0  0
  152.0807  140.2204  182.0910 H   0  0  0  0  0  0  0  0  0  0  0  0
  150.2431  138.8501  180.4827 C   0  0  0  0  0  0  0  0  0  0  0  0
  150.8609  139.9088  179.5782 C   0  0  0  0  0  0  0  0  0  0  0  0
  149.1902  139.5354  181.3377 C   0  0  0  0  0  0  0  0  0  0  0  0
  149.5915  137.7400  179.7101 C   0  0  0  0  0  0  0  0  0  0  0  0
  154.4006  140.3563  183.4510 C   0  0  0  0  0  0  0  0  0  0  0  0
  155.7021  140.5867  182.7902 C   0  0  0  0  0  0  0  0  0  0  0  0
  156.9182  140.2139  183.2358 C   0  0  0  0  0  0  0  0  0  0  0  0
  157.8568  140.6086  182.3380 C   0  0  0  0  0  0  0  0  0  0  0  0
  157.1413  141.2503  181.3029 C   0  0  0  0  0  0  0  0  0  0  0  0
  155.8884  141.2128  181.6112 O   0  0  0  0  0  0  0  0  0  0  0  0
  157.8415  141.7930  180.1824 C   0  0  0  0  0  0  0  0  0  0  0  0
  158.4096  142.2608  179.2697 N   0  0  0  0  0  0  0  0  0  0  0  0
 20 21  1  0  0  0
 21 22  1  0  0  0
 22 23  1  0  0  0
 21 19  1  0  0  0
 19 17  1  0  0  0
 17 18  2  0  0  0
 17 16  1  0  0  0
 16  9  1  0  0  0
  9 10  2  0  0  0
 10 11  1  0  0  0
 11 12  2  0  0  0
 12 13  1  0  0  0
 13 14  2  0  0  0
 14 15  1  0  0  0
 12  1  1  0  0  0
  1  2  2  0  0  0
  1  3  1  0  0  0
  3  4  1  0  0  0
  4  5  1  0  0  0
  5  6  1  0  0  0
  6  7  1  0  0  0
  7  8  1  0  0  0
  6 25  1  0  0  0
 25 36  1  0  0  0
 36 37  1  0  0  0
 37 38  2  0  0  0
 38 39  1  0  0  0
 39 40  2  0  0  0
 40 41  1  0  0  0
 40 42  1  0  0  0
 42 43  3  0  0  0
 25 26  1  0  0  0
 26 27  2  0  0  0
 27 28  1  0  0  0
 28 29  2  0  0  0
 29 30  1  0  0  0
 29 32  1  0  0  0
 32 33  1  0  0  0
 32 34  1  0  0  0
 32 35  1  0  0  0
 14  9  1  0  0  0
  8  3  1  0  0  0
 41 37  1  0  0  0
 30 26  1  0  0  0
 23 24  1  0  0  0
 30 31  1  0  0  0
M  END
> <minimizedAffinity>
-6.72049

> <CNNscore>
0.1347191781

> <CNNaffinity>
6.1840572357

> <CNN_VS>
0.8331111073

> <CNNaffinity_variance>
0.1574720442

$$$$
[H]OC([H])([H])C([H])(OC(=O)C([H])([H])c1c([H])c([H])c(C(=O)N2C([H])([H])C([H])([H])C([H])(N(c3nc([H])c(C(C([H])([H])[H])(C([H])([H])[H])C([H])([H])[H])n3[H])C([H])([H])c3oc(C#N)c([H])c3[H])C([H])([H])C2([H])[H])c([H])c1F)C([H])([H])[H]


 43 46  0  0  0  0  0  0  0  0999 V2000
  153.1132  137.3699  185.9163 C   0  0  0  0  0  0  0  0  0  0  0  0
  152.2208  137.3118  184.9599 O   0  0  0  0  0  0  0  0  0  0  0  0
  154.3231  137.8832  185.5371 N   0  0  0  0  0  0  0  0  0  0  0  0
  155.5103  138.0961  186.2673 C   0  0  0  0  0  0  0  0  0  0  0  0
  156.5210  139.0091  185.5832 C   0  0  0  0  0  0  0  0  0  0  0  0
  155.8977  140.1615  184.8797 C   0  0  0  0  0  0  0  0  0  0  0  0
  154.5129  139.8909  184.3643 C   0  0  0  0  0  0  0  0  0  0  0  0
  154.4075  138.3659  184.1162 C   0  0  0  0  0  0  0  0  0  0  0  0
  152.1556  136.0488  189.9013 C   0  0  0  0  0  0  0  0  0  0  0  0
  151.5818  135.4510  188.8293 C   0  0  0  0  0  0  0  0  0  0  0  0
  151.8312  135.8658  187.4994 C   0  0  0  0  0  0  0  0  0  0  0  0
  152.6730  136.8983  187.2224 C   0  0  0  0  0  0  0  0  0  0  0  0
  153.2595  137.5100  188.3489 C   0  0  0  0  0  0  0  0  0  0  0  0
  153.0323  137.1258  189.6344 C   0  0  0  0  0  0  0  0  0  0  0  0
  153.5994  137.7119  190.7088 F   0  0  0  0  0  0  0  0  0  0  0  0
  151.9928  135.6232  191.3109 C   0  0  0  0  0  0  0  0  0  0  0  0
  150.6006  135.6346  191.7580 C   0  0  0  0  0  0  0  0  0  0  0  0
  150.2178  136.7221  192.4033 O   0  0  0  0  0  0  0  0  0  0  0  0
  149.6499  134.7957  191.6627 O   0  0  0  0  0  0  0  0  0  0  0  0
  149.3349  132.4686  191.0964 C   0  0  0  0  0  0  0  0  0  0  0  0
  148.7958  133.8282  191.5394 C   0  0  0  0  0  0  0  0  0  0  0  0
  147.9606  133.5686  192.8079 C   0  0  0  0  0  0  0  0  0  0  0  0
  148.7571  133.6113  193.9290 O   0  0  0  0  0  0  0  0  0  0  0  0
  148.2802  133.0555  194.6233 H   0  0  0  0  0  0  0  0  0  0  0  0
  156.7268  140.6918  183.8241 N   0  0  0  0  0  0  0  0  0  0  0  0
  158.1221  140.8267  184.0097 C   0  0  0  0  0  0  0  0  0  0  0  0
  159.1231  140.0354  183.6792 N   0  0  0  0  0  0  0  0  0  0  0  0
  160.3052  140.5315  184.0746 C   0  0  0  0  0  0  0  0  0  0  0  0
  160.0326  141.7401  184.7082 C   0  0  0  0  0  0  0  0  0  0  0  0
  158.6856  141.8929  184.6495 N   0  0  0  0  0  0  0  0  0  0  0  0
  158.2061  142.7175  185.0459 H   0  0  0  0  0  0  0  0  0  0  0  0
  160.9907  142.6812  185.3379 C   0  0  0  0  0  0  0  0  0  0  0  0
  160.5908  142.7803  186.8045 C   0  0  0  0  0  0  0  0  0  0  0  0
  160.7715  144.0474  184.7097 C   0  0  0  0  0  0  0  0  0  0  0  0
  162.4290  142.2906  185.1571 C   0  0  0  0  0  0  0  0  0  0  0  0
  156.1632  141.0827  182.5677 C   0  0  0  0  0  0  0  0  0  0  0  0
  156.8441  142.2065  181.8917 C   0  0  0  0  0  0  0  0  0  0  0  0
  156.5674  143.5195  182.0171 C   0  0  0  0  0  0  0  0  0  0  0  0
  157.4211  144.2269  181.2338 C   0  0  0  0  0  0  0  0  0  0  0  0
  158.2488  143.2644  180.6144 C   0  0  0  0  0  0  0  0  0  0  0  0
  157.8743  142.1007  181.0289 O   0  0  0  0  0  0  0  0  0  0  0  0
  159.2730  143.6809  179.7101 C   0  0  0  0  0  0  0  0  0  0  0  0
  160.1055  144.0456  178.9694 N   0  0  0  0  0  0  0  0  0  0  0  0
 20 21  1  0  0  0
 21 22  1  0  0  0
 22 23  1  0  0  0
 21 19  1  0  0  0
 19 17  1  0  0  0
 17 18  2  0  0  0
 17 16  1  0  0  0
 16  9  1  0  0  0
  9 10  2  0  0  0
 10 11  1  0  0  0
 11 12  2  0  0  0
 12 13  1  0  0  0
 13 14  2  0  0  0
 14 15  1  0  0  0
 12  1  1  0  0  0
  1  2  2  0  0  0
  1  3  1  0  0  0
  3  4  1  0  0  0
  4  5  1  0  0  0
  5  6  1  0  0  0
  6  7  1  0  0  0
  7  8  1  0  0  0
  6 25  1  0  0  0
 25 36  1  0  0  0
 36 37  1  0  0  0
 37 38  2  0  0  0
 38 39  1  0  0  0
 39 40  2  0  0  0
 40 41  1  0  0  0
 40 42  1  0  0  0
 42 43  3  0  0  0
 25 26  1  0  0  0
 26 27  2  0  0  0
 27 28  1  0  0  0
 28 29  2  0  0  0
 29 30  1  0  0  0
 29 32  1  0  0  0
 32 33  1  0  0  0
 32 34  1  0  0  0
 32 35  1  0  0  0
 14  9  1  0  0  0
  8  3  1  0  0  0
 41 37  1  0  0  0
 30 26  1  0  0  0
 23 24  1  0  0  0
 30 31  1  0  0  0
M  END
> <minimizedAffinity>
-7.49773

> <CNNscore>
0.1311752051

> <CNNaffinity>
6.6384344101

> <CNN_VS>
0.8707979918

> <CNNaffinity_variance>
0.0416924618

$$$$
[H]OC([H])([H])C([H])(OC(=O)C([H])([H])c1c([H])c([H])c(C(=O)N2C([H])([H])C([H])([H])C([H])(N(c3nc([H])c(C(C([H])([H])[H])(C([H])([H])[H])C([H])([H])[H])n3[H])C([H])([H])c3oc(C#N)c([H])c3[H])C([H])([H])C2([H])[H])c([H])c1F)C([H])([H])[H]


 43 46  0  0  0  0  0  0  0  0999 V2000
  153.4616  138.1184  184.0148 C   0  0  0  0  0  0  0  0  0  0  0  0
  153.3058  137.1607  183.1356 O   0  0  0  0  0  0  0  0  0  0  0  0
  153.2647  137.7377  185.3138 N   0  0  0  0  0  0  0  0  0  0  0  0
  153.3358  138.4707  186.5162 C   0  0  0  0  0  0  0  0  0  0  0  0
  153.3980  137.6169  187.7772 C   0  0  0  0  0  0  0  0  0  0  0  0
  154.2426  136.4019  187.6293 C   0  0  0  0  0  0  0  0  0  0  0  0
  154.2943  135.8559  186.2308 C   0  0  0  0  0  0  0  0  0  0  0  0
  152.9808  136.2772  185.5269 C   0  0  0  0  0  0  0  0  0  0  0  0
  154.6397  142.0676  182.7666 C   0  0  0  0  0  0  0  0  0  0  0  0
  153.6391  141.4199  182.1223 C   0  0  0  0  0  0  0  0  0  0  0  0
  153.2333  140.1082  182.4654 C   0  0  0  0  0  0  0  0  0  0  0  0
  153.8321  139.4195  183.4747 C   0  0  0  0  0  0  0  0  0  0  0  0
  154.8721  140.1072  184.1327 C   0  0  0  0  0  0  0  0  0  0  0  0
  155.2763  141.3677  183.8176 C   0  0  0  0  0  0  0  0  0  0  0  0
  156.2693  142.0230  184.4532 F   0  0  0  0  0  0  0  0  0  0  0  0
  155.0680  143.4615  182.5054 C   0  0  0  0  0  0  0  0  0  0  0  0
  156.4650  143.5650  182.0859 C   0  0  0  0  0  0  0  0  0  0  0  0
  157.0171  144.7565  182.2306 O   0  0  0  0  0  0  0  0  0  0  0  0
  157.2881  142.7319  181.5908 O   0  0  0  0  0  0  0  0  0  0  0  0
  158.1908  140.4928  181.5075 C   0  0  0  0  0  0  0  0  0  0  0  0
  158.2446  141.9771  181.1478 C   0  0  0  0  0  0  0  0  0  0  0  0
  158.4350  142.0443  179.6203 C   0  0  0  0  0  0  0  0  0  0  0  0
  157.3900  141.4246  178.9745 O   0  0  0  0  0  0  0  0  0  0  0  0
  157.7530  141.1442  178.0757 H   0  0  0  0  0  0  0  0  0  0  0  0
  153.8915  135.3558  188.5594 N   0  0  0  0  0  0  0  0  0  0  0  0
  152.8555  135.5538  189.5011 C   0  0  0  0  0  0  0  0  0  0  0  0
  151.5490  135.6410  189.3502 N   0  0  0  0  0  0  0  0  0  0  0  0
  150.9241  135.8677  190.5155 C   0  0  0  0  0  0  0  0  0  0  0  0
  151.9168  135.9283  191.4888 C   0  0  0  0  0  0  0  0  0  0  0  0
  153.0889  135.7297  190.8346 N   0  0  0  0  0  0  0  0  0  0  0  0
  153.9989  135.7205  191.3234 H   0  0  0  0  0  0  0  0  0  0  0  0
  151.7600  136.1707  192.9438 C   0  0  0  0  0  0  0  0  0  0  0  0
  150.2937  135.9106  193.2646 C   0  0  0  0  0  0  0  0  0  0  0  0
  152.0296  137.6450  193.1947 C   0  0  0  0  0  0  0  0  0  0  0  0
  152.6903  135.3568  193.7959 C   0  0  0  0  0  0  0  0  0  0  0  0
  154.5715  134.0962  188.5458 C   0  0  0  0  0  0  0  0  0  0  0  0
  156.0157  134.1542  188.8532 C   0  0  0  0  0  0  0  0  0  0  0  0
  156.6076  133.8869  190.0341 C   0  0  0  0  0  0  0  0  0  0  0  0
  157.9485  134.0518  189.9026 C   0  0  0  0  0  0  0  0  0  0  0  0
  158.1503  134.4378  188.5589 C   0  0  0  0  0  0  0  0  0  0  0  0
  156.9941  134.4839  187.9868 O   0  0  0  0  0  0  0  0  0  0  0  0
  159.4718  134.6960  188.0821 C   0  0  0  0  0  0  0  0  0  0  0  0
  160.5472  134.9234  187.6741 N   0  0  0  0  0  0  0  0  0  0  0  0
 20 21  1  0  0  0
 21 22  1  0  0  0
 22 23  1  0  0  0
 21 19  1  0  0  0
 19 17  1  0  0  0
 17 18  2  0  0  0
 17 16  1  0  0  0
 16  9  1  0  0  0
  9 10  2  0  0  0
 10 11  1  0  0  0
 11 12  2  0  0  0
 12 13  1  0  0  0
 13 14  2  0  0  0
 14 15  1  0  0  0
 12  1  1  0  0  0
  1  2  2  0  0  0
  1  3  1  0  0  0
  3  4  1  0  0  0
  4  5  1  0  0  0
  5  6  1  0  0  0
  6  7  1  0  0  0
  7  8  1  0  0  0
  6 25  1  0  0  0
 25 36  1  0  0  0
 36 37  1  0  0  0
 37 38  2  0  0  0
 38 39  1  0  0  0
 39 40  2  0  0  0
 40 41  1  0  0  0
 40 42  1  0  0  0
 42 43  3  0  0  0
 25 26  1  0  0  0
 26 27  2  0  0  0
 27 28  1  0  0  0
 28 29  2  0  0  0
 29 30  1  0  0  0
 29 32  1  0  0  0
 32 33  1  0  0  0
 32 34  1  0  0  0
 32 35  1  0  0  0
 14  9  1  0  0  0
  8  3  1  0  0  0
 41 37  1  0  0  0
 30 26  1  0  0  0
 23 24  1  0  0  0
 30 31  1  0  0  0
M  END
> <minimizedAffinity>
-8.44986

> <CNNscore>
0.1289542615

> <CNNaffinity>
6.3420467377

> <CNN_VS>
0.8178339601

> <CNNaffinity_variance>
0.1412018687

$$$$
[H]OC([H])([H])C([H])(OC(=O)C([H])([H])c1c([H])c([H])c(C(=O)N2C([H])([H])C([H])([H])C([H])(N(c3nc([H])c(C(C([H])([H])[H])(C([H])([H])[H])C([H])([H])[H])n3[H])C([H])([H])c3oc(C#N)c([H])c3[H])C([H])([H])C2([H])[H])c([H])c1F)C([H])([H])[H]


 43 46  0  0  0  0  0  0  0  0999 V2000
  154.2617  138.9964  184.3864 C   0  0  0  0  0  0  0  0  0  0  0  0
  153.2024  138.7796  183.6480 O   0  0  0  0  0  0  0  0  0  0  0  0
  154.3077  138.2708  185.5451 N   0  0  0  0  0  0  0  0  0  0  0  0
  155.2655  138.2341  186.5791 C   0  0  0  0  0  0  0  0  0  0  0  0
  155.1348  137.0446  187.5231 C   0  0  0  0  0  0  0  0  0  0  0  0
  154.7786  135.7764  186.8329 C   0  0  0  0  0  0  0  0  0  0  0  0
  153.9630  135.9639  185.5854 C   0  0  0  0  0  0  0  0  0  0  0  0
  153.1839  137.2928  185.7442 C   0  0  0  0  0  0  0  0  0  0  0  0
  156.8095  141.9940  182.6354 C   0  0  0  0  0  0  0  0  0  0  0  0
  157.2726  140.7355  182.8297 C   0  0  0  0  0  0  0  0  0  0  0  0
  156.4931  139.7197  183.4326 C   0  0  0  0  0  0  0  0  0  0  0  0
  155.2203  139.9545  183.8524 C   0  0  0  0  0  0  0  0  0  0  0  0
  154.7554  141.2690  183.6446 C   0  0  0  0  0  0  0  0  0  0  0  0
  155.4891  142.2588  183.0670 C   0  0  0  0  0  0  0  0  0  0  0  0
  155.0381  143.5141  182.8666 F   0  0  0  0  0  0  0  0  0  0  0  0
  157.5445  143.0831  181.9511 C   0  0  0  0  0  0  0  0  0  0  0  0
  158.6730  143.5927  182.7290 C   0  0  0  0  0  0  0  0  0  0  0  0
  158.9766  144.8628  182.5286 O   0  0  0  0  0  0  0  0  0  0  0  0
  159.4541  143.0600  183.5791 O   0  0  0  0  0  0  0  0  0  0  0  0
  159.4280  141.9058  185.7011 C   0  0  0  0  0  0  0  0  0  0  0  0
  160.1495  142.3891  184.4436 C   0  0  0  0  0  0  0  0  0  0  0  0
  160.8574  141.1553  183.8513 C   0  0  0  0  0  0  0  0  0  0  0  0
  162.2224  141.3273  183.8654 O   0  0  0  0  0  0  0  0  0  0  0  0
  162.5799  140.7291  183.1354 H   0  0  0  0  0  0  0  0  0  0  0  0
  154.1403  134.8207  187.7058 N   0  0  0  0  0  0  0  0  0  0  0  0
  153.1959  135.2490  188.6671 C   0  0  0  0  0  0  0  0  0  0  0  0
  151.9681  135.7097  188.5337 N   0  0  0  0  0  0  0  0  0  0  0  0
  151.4248  136.0368  189.7159 C   0  0  0  0  0  0  0  0  0  0  0  0
  152.3875  135.7594  190.6816 C   0  0  0  0  0  0  0  0  0  0  0  0
  153.4604  135.2758  190.0061 N   0  0  0  0  0  0  0  0  0  0  0  0
  154.3275  134.9825  190.4849 H   0  0  0  0  0  0  0  0  0  0  0  0
  152.2956  135.9530  192.1494 C   0  0  0  0  0  0  0  0  0  0  0  0
  153.1665  134.8728  192.7781 C   0  0  0  0  0  0  0  0  0  0  0  0
  150.8581  135.6789  192.5589 C   0  0  0  0  0  0  0  0  0  0  0  0
  152.6726  137.3340  192.6017 C   0  0  0  0  0  0  0  0  0  0  0  0
  154.4375  133.4234  187.6147 C   0  0  0  0  0  0  0  0  0  0  0  0
  155.5469  133.0712  186.7044 C   0  0  0  0  0  0  0  0  0  0  0  0
  156.8532  132.9621  187.0177 C   0  0  0  0  0  0  0  0  0  0  0  0
  157.5468  132.6175  185.9029 C   0  0  0  0  0  0  0  0  0  0  0  0
  156.5826  132.5177  184.8755 C   0  0  0  0  0  0  0  0  0  0  0  0
  155.4312  132.7912  185.3910 O   0  0  0  0  0  0  0  0  0  0  0  0
  156.9858  132.1664  183.5510 C   0  0  0  0  0  0  0  0  0  0  0  0
  157.3085  131.8555  182.4676 N   0  0  0  0  0  0  0  0  0  0  0  0
 20 21  1  0  0  0
 21 22  1  0  0  0
 22 23  1  0  0  0
 21 19  1  0  0  0
 19 17  1  0  0  0
 17 18  2  0  0  0
 17 16  1  0  0  0
 16  9  1  0  0  0
  9 10  2  0  0  0
 10 11  1  0  0  0
 11 12  2  0  0  0
 12 13  1  0  0  0
 13 14  2  0  0  0
 14 15  1  0  0  0
 12  1  1  0  0  0
  1  2  2  0  0  0
  1  3  1  0  0  0
  3  4  1  0  0  0
  4  5  1  0  0  0
  5  6  1  0  0  0
  6  7  1  0  0  0
  7  8  1  0  0  0
  6 25  1  0  0  0
 25 36  1  0  0  0
 36 37  1  0  0  0
 37 38  2  0  0  0
 38 39  1  0  0  0
 39 40  2  0  0  0
 40 41  1  0  0  0
 40 42  1  0  0  0
 42 43  3  0  0  0
 25 26  1  0  0  0
 26 27  2  0  0  0
 27 28  1  0  0  0
 28 29  2  0  0  0
 29 30  1  0  0  0
 29 32  1  0  0  0
 32 33  1  0  0  0
 32 34  1  0  0  0
 32 35  1  0  0  0
 14  9  1  0  0  0
  8  3  1  0  0  0
 41 37  1  0  0  0
 30 26  1  0  0  0
 23 24  1  0  0  0
 30 31  1  0  0  0
M  END
> <minimizedAffinity>
-7.13080

> <CNNscore>
0.1253983080

> <CNNaffinity>
6.4245748520

> <CNN_VS>
0.8056308031

> <CNNaffinity_variance>
0.2148086578

$$$$
[H]Oc1c([H])c([H])c([H])c([H])c1-c1c([H])c(N([H])C(=O)c2noc(C([H])([H])n3nc([H])nc3[H])c2[H])c([H])c([H])c1Cl


 30 33  0  0  0  0  0  0  0  0999 V2000
  156.3986  137.2543  191.4526 Cl  0  0  0  0  0  0  0  0  0  0  0  0
  155.6775  137.3384  189.8488 C   0  0  0  0  0  0  0  0  0  0  0  0
  154.8230  138.3656  189.5101 C   0  0  0  0  0  0  0  0  0  0  0  0
  154.2283  138.4718  188.2930 C   0  0  0  0  0  0  0  0  0  0  0  0
  154.4697  137.5089  187.3030 C   0  0  0  0  0  0  0  0  0  0  0  0
  155.3214  136.4878  187.6411 C   0  0  0  0  0  0  0  0  0  0  0  0
  155.9291  136.3838  188.8931 C   0  0  0  0  0  0  0  0  0  0  0  0
  156.8763  135.3231  189.2299 C   0  0  0  0  0  0  0  0  0  0  0  0
  158.1767  135.3975  188.6983 C   0  0  0  0  0  0  0  0  0  0  0  0
  159.1307  134.4365  188.9187 C   0  0  0  0  0  0  0  0  0  0  0  0
  158.7506  133.3689  189.7017 C   0  0  0  0  0  0  0  0  0  0  0  0
  157.5020  133.2550  190.2380 C   0  0  0  0  0  0  0  0  0  0  0  0
  156.5322  134.2535  190.0026 C   0  0  0  0  0  0  0  0  0  0  0  0
  155.2810  134.1029  190.5678 O   0  0  0  0  0  0  0  0  0  0  0  0
  154.5641  134.7728  190.4651 H   0  0  0  0  0  0  0  0  0  0  0  0
  153.8695  137.6244  186.0348 N   0  0  0  0  0  0  0  0  0  0  0  0
  154.3911  138.2555  184.9102 C   0  0  0  0  0  0  0  0  0  0  0  0
  155.4887  138.8131  184.8694 O   0  0  0  0  0  0  0  0  0  0  0  0
  152.8896  137.1594  185.9667 H   0  0  0  0  0  0  0  0  0  0  0  0
  153.5863  138.2670  183.6660 C   0  0  0  0  0  0  0  0  0  0  0  0
  153.1854  139.3764  182.9671 C   0  0  0  0  0  0  0  0  0  0  0  0
  152.4529  138.9393  181.8759 C   0  0  0  0  0  0  0  0  0  0  0  0
  152.4389  137.6511  181.9512 O   0  0  0  0  0  0  0  0  0  0  0  0
  153.0901  137.1990  182.9848 N   0  0  0  0  0  0  0  0  0  0  0  0
  151.8370  139.8578  180.8621 C   0  0  0  0  0  0  0  0  0  0  0  0
  150.4816  139.4921  180.5435 N   0  0  0  0  0  0  0  0  0  0  0  0
  150.0694  139.0651  179.3448 C   0  0  0  0  0  0  0  0  0  0  0  0
  148.7514  138.8191  179.4175 N   0  0  0  0  0  0  0  0  0  0  0  0
  148.3222  139.0863  180.6538 C   0  0  0  0  0  0  0  0  0  0  0  0
  149.4061  139.5020  181.3391 N   0  0  0  0  0  0  0  0  0  0  0  0
  1  2  1  0  0  0
  2  3  2  0  0  0
  3  4  1  0  0  0
  4  5  2  0  0  0
  5 16  1  0  0  0
 16 17  1  0  0  0
 17 18  2  0  0  0
 17 20  1  0  0  0
 20 21  1  0  0  0
 21 22  2  0  0  0
 22 25  1  0  0  0
 25 26  1  0  0  0
 26 27  1  0  0  0
 27 28  2  0  0  0
 28 29  1  0  0  0
 29 30  2  0  0  0
 22 23  1  0  0  0
 23 24  1  0  0  0
  5  6  1  0  0  0
  6  7  2  0  0  0
  7  8  1  0  0  0
  8  9  2  0  0  0
  9 10  1  0  0  0
 10 11  2  0  0  0
 11 12  1  0  0  0
 12 13  2  0  0  0
 13 14  1  0  0  0
  7  2  1  0  0  0
 13  8  1  0  0  0
 24 20  2  0  0  0
 30 26  1  0  0  0
 16 19  1  0  0  0
 14 15  1  0  0  0
M  END
> <minimizedAffinity>
-6.47793

> <CNNscore>
0.5793738961

> <CNNaffinity>
5.2683963776

> <CNN_VS>
3.0523712635

> <CNNaffinity_variance>
0.1691871881

$$$$
[H]Oc1c([H])c([H])c([H])c([H])c1-c1c([H])c(N([H])C(=O)c2noc(C([H])([H])n3nc([H])nc3[H])c2[H])c([H])c([H])c1Cl


 30 33  0  0  0  0  0  0  0  0999 V2000
  156.4377  136.5263  192.2005 Cl  0  0  0  0  0  0  0  0  0  0  0  0
  155.6372  136.5544  190.6329 C   0  0  0  0  0  0  0  0  0  0  0  0
  156.3530  136.7801  189.4767 C   0  0  0  0  0  0  0  0  0  0  0  0
  155.7846  136.8262  188.2434 C   0  0  0  0  0  0  0  0  0  0  0  0
  154.4030  136.6394  188.0954 C   0  0  0  0  0  0  0  0  0  0  0  0
  153.6920  136.4136  189.2469 C   0  0  0  0  0  0  0  0  0  0  0  0
  154.2813  136.3677  190.5110 C   0  0  0  0  0  0  0  0  0  0  0  0
  153.5272  136.0745  191.7281 C   0  0  0  0  0  0  0  0  0  0  0  0
  152.8304  137.1268  192.3499 C   0  0  0  0  0  0  0  0  0  0  0  0
  152.1246  136.9701  193.5159 C   0  0  0  0  0  0  0  0  0  0  0  0
  152.1284  135.7070  194.0653 C   0  0  0  0  0  0  0  0  0  0  0  0
  152.7891  134.6576  193.4979 C   0  0  0  0  0  0  0  0  0  0  0  0
  153.5098  134.8354  192.2971 C   0  0  0  0  0  0  0  0  0  0  0  0
  154.1613  133.7462  191.7523 O   0  0  0  0  0  0  0  0  0  0  0  0
  154.6625  133.7927  190.9039 H   0  0  0  0  0  0  0  0  0  0  0  0
  153.8125  136.6689  186.8178 N   0  0  0  0  0  0  0  0  0  0  0  0
  152.8934  137.5952  186.3357 C   0  0  0  0  0  0  0  0  0  0  0  0
  152.4612  138.5505  186.9822 O   0  0  0  0  0  0  0  0  0  0  0  0
  154.1325  135.8609  186.1653 H   0  0  0  0  0  0  0  0  0  0  0  0
  152.3891  137.4393  184.9510 C   0  0  0  0  0  0  0  0  0  0  0  0
  153.0762  137.7223  183.7987 C   0  0  0  0  0  0  0  0  0  0  0  0
  152.2375  137.4394  182.7333 C   0  0  0  0  0  0  0  0  0  0  0  0
  151.1339  137.0182  183.2529 O   0  0  0  0  0  0  0  0  0  0  0  0
  151.1650  136.9968  184.5550 N   0  0  0  0  0  0  0  0  0  0  0  0
  152.6252  137.6196  181.2953 C   0  0  0  0  0  0  0  0  0  0  0  0
  151.7244  138.4936  180.5904 N   0  0  0  0  0  0  0  0  0  0  0  0
  152.0919  139.6041  179.9418 C   0  0  0  0  0  0  0  0  0  0  0  0
  150.9932  140.1609  179.4072 N   0  0  0  0  0  0  0  0  0  0  0  0
  149.9294  139.4124  179.7107 C   0  0  0  0  0  0  0  0  0  0  0  0
  150.3992  138.3833  180.4439 N   0  0  0  0  0  0  0  0  0  0  0  0
  1  2  1  0  0  0
  2  3  2  0  0  0
  3  4  1  0  0  0
  4  5  2  0  0  0
  5 16  1  0  0  0
 16 17  1  0  0  0
 17 18  2  0  0  0
 17 20  1  0  0  0
 20 21  1  0  0  0
 21 22  2  0  0  0
 22 25  1  0  0  0
 25 26  1  0  0  0
 26 27  1  0  0  0
 27 28  2  0  0  0
 28 29  1  0  0  0
 29 30  2  0  0  0
 22 23  1  0  0  0
 23 24  1  0  0  0
  5  6  1  0  0  0
  6  7  2  0  0  0
  7  8  1  0  0  0
  8  9  2  0  0  0
  9 10  1  0  0  0
 10 11  2  0  0  0
 11 12  1  0  0  0
 12 13  2  0  0  0
 13 14  1  0  0  0
  7  2  1  0  0  0
 13  8  1  0  0  0
 24 20  2  0  0  0
 30 26  1  0  0  0
 16 19  1  0  0  0
 14 15  1  0  0  0
M  END
> <minimizedAffinity>
-6.10196

> <CNNscore>
0.5685884953

> <CNNaffinity>
5.2223968506

> <CNN_VS>
2.9693946838

> <CNNaffinity_variance>
0.0188151021

$$$$
[H]Oc1c([H])c([H])c([H])c([H])c1-c1c([H])c(N([H])C(=O)c2noc(C([H])([H])n3nc([H])nc3[H])c2[H])c([H])c([H])c1Cl


 30 33  0  0  0  0  0  0  0  0999 V2000
  158.7505  140.8319  184.1903 Cl  0  0  0  0  0  0  0  0  0  0  0  0
  157.0714  140.6979  183.6788 C   0  0  0  0  0  0  0  0  0  0  0  0
  156.1923  139.8714  184.3453 C   0  0  0  0  0  0  0  0  0  0  0  0
  154.8910  139.7195  183.9852 C   0  0  0  0  0  0  0  0  0  0  0  0
  154.3762  140.4212  182.8860 C   0  0  0  0  0  0  0  0  0  0  0  0
  155.2519  141.2444  182.2244 C   0  0  0  0  0  0  0  0  0  0  0  0
  156.5877  141.3961  182.5987 C   0  0  0  0  0  0  0  0  0  0  0  0
  157.5020  142.3142  181.9227 C   0  0  0  0  0  0  0  0  0  0  0  0
  157.6282  143.6212  182.4279 C   0  0  0  0  0  0  0  0  0  0  0  0
  158.4271  144.5734  181.8472 C   0  0  0  0  0  0  0  0  0  0  0  0
  159.1168  144.1850  180.7199 C   0  0  0  0  0  0  0  0  0  0  0  0
  159.0255  142.9298  180.1950 C   0  0  0  0  0  0  0  0  0  0  0  0
  158.1996  141.9611  180.8055 C   0  0  0  0  0  0  0  0  0  0  0  0
  158.1385  140.7001  180.2454 O   0  0  0  0  0  0  0  0  0  0  0  0
  157.6019  139.9686  180.6331 H   0  0  0  0  0  0  0  0  0  0  0  0
  153.0241  140.2802  182.5201 N   0  0  0  0  0  0  0  0  0  0  0  0
  152.4519  139.2410  181.7936 C   0  0  0  0  0  0  0  0  0  0  0  0
  153.0715  138.2678  181.3620 O   0  0  0  0  0  0  0  0  0  0  0  0
  152.3886  141.0945  182.8579 H   0  0  0  0  0  0  0  0  0  0  0  0
  150.9981  139.2898  181.5107 C   0  0  0  0  0  0  0  0  0  0  0  0
  150.0029  138.7281  182.2684 C   0  0  0  0  0  0  0  0  0  0  0  0
  148.7976  139.0060  181.6452 C   0  0  0  0  0  0  0  0  0  0  0  0
  149.0926  139.6889  180.5907 O   0  0  0  0  0  0  0  0  0  0  0  0
  150.3734  139.8867  180.4598 N   0  0  0  0  0  0  0  0  0  0  0  0
  147.4647  138.5586  182.1689 C   0  0  0  0  0  0  0  0  0  0  0  0
  147.4642  138.3980  183.5995 N   0  0  0  0  0  0  0  0  0  0  0  0
  147.2299  139.3806  184.4763 C   0  0  0  0  0  0  0  0  0  0  0  0
  147.3107  138.8665  185.7141 N   0  0  0  0  0  0  0  0  0  0  0  0
  147.5945  137.5639  185.6310 C   0  0  0  0  0  0  0  0  0  0  0  0
  147.6862  137.2893  184.3144 N   0  0  0  0  0  0  0  0  0  0  0  0
  1  2  1  0  0  0
  2  3  2  0  0  0
  3  4  1  0  0  0
  4  5  2  0  0  0
  5 16  1  0  0  0
 16 17  1  0  0  0
 17 18  2  0  0  0
 17 20  1  0  0  0
 20 21  1  0  0  0
 21 22  2  0  0  0
 22 25  1  0  0  0
 25 26  1  0  0  0
 26 27  1  0  0  0
 27 28  2  0  0  0
 28 29  1  0  0  0
 29 30  2  0  0  0
 22 23  1  0  0  0
 23 24  1  0  0  0
  5  6  1  0  0  0
  6  7  2  0  0  0
  7  8  1  0  0  0
  8  9  2  0  0  0
  9 10  1  0  0  0
 10 11  2  0  0  0
 11 12  1  0  0  0
 12 13  2  0  0  0
 13 14  1  0  0  0
  7  2  1  0  0  0
 13  8  1  0  0  0
 24 20  2  0  0  0
 30 26  1  0  0  0
 16 19  1  0  0  0
 14 15  1  0  0  0
M  END
> <minimizedAffinity>
-8.31590

> <CNNscore>
0.5476407409

> <CNNaffinity>
6.1270008087

> <CNN_VS>
3.3553953171

> <CNNaffinity_variance>
0.1169434413

$$$$
[H]Oc1c([H])c([H])c([H])c([H])c1-c1c([H])c(N([H])C(=O)c2noc(C([H])([H])n3nc([H])nc3[H])c2[H])c([H])c([H])c1Cl


 30 33  0  0  0  0  0  0  0  0999 V2000
  148.1789  138.6567  179.5063 Cl  0  0  0  0  0  0  0  0  0  0  0  0
  149.7457  139.0589  180.2010 C   0  0  0  0  0  0  0  0  0  0  0  0
  150.7644  139.5500  179.4128 C   0  0  0  0  0  0  0  0  0  0  0  0
  151.9960  139.8632  179.8936 C   0  0  0  0  0  0  0  0  0  0  0  0
  152.2867  139.6934  181.2547 C   0  0  0  0  0  0  0  0  0  0  0  0
  151.2715  139.2057  182.0381 C   0  0  0  0  0  0  0  0  0  0  0  0
  150.0084  138.8855  181.5386 C   0  0  0  0  0  0  0  0  0  0  0  0
  148.9148  138.4164  182.3870 C   0  0  0  0  0  0  0  0  0  0  0  0
  148.0489  139.3730  182.9477 C   0  0  0  0  0  0  0  0  0  0  0  0
  147.0159  139.0448  183.7886 C   0  0  0  0  0  0  0  0  0  0  0  0
  146.8598  137.7050  184.0678 C   0  0  0  0  0  0  0  0  0  0  0  0
  147.6744  136.7431  183.5474 C   0  0  0  0  0  0  0  0  0  0  0  0
  148.7323  137.0977  182.6824 C   0  0  0  0  0  0  0  0  0  0  0  0
  149.5314  136.0930  182.1728 O   0  0  0  0  0  0  0  0  0  0  0  0
  150.2720  136.2662  181.5445 H   0  0  0  0  0  0  0  0  0  0  0  0
  153.5559  140.0331  181.7603 N   0  0  0  0  0  0  0  0  0  0  0  0
  154.0637  139.7470  183.0234 C   0  0  0  0  0  0  0  0  0  0  0  0
  153.4522  139.1321  183.8982 O   0  0  0  0  0  0  0  0  0  0  0  0
  154.1779  140.5816  181.0580 H   0  0  0  0  0  0  0  0  0  0  0  0
  155.4332  140.2041  183.3574 C   0  0  0  0  0  0  0  0  0  0  0  0
  156.0154  141.3821  182.9658 C   0  0  0  0  0  0  0  0  0  0  0  0
  157.2970  141.4081  183.4904 C   0  0  0  0  0  0  0  0  0  0  0  0
  157.4348  140.3044  184.1448 O   0  0  0  0  0  0  0  0  0  0  0  0
  156.3697  139.5558  184.1015 N   0  0  0  0  0  0  0  0  0  0  0  0
  158.2605  142.5393  183.2838 C   0  0  0  0  0  0  0  0  0  0  0  0
  158.5742  142.7448  181.8939 N   0  0  0  0  0  0  0  0  0  0  0  0
  158.8504  143.9317  181.3426 C   0  0  0  0  0  0  0  0  0  0  0  0
  159.0925  143.7412  180.0357 N   0  0  0  0  0  0  0  0  0  0  0  0
  158.9726  142.4416  179.7516 C   0  0  0  0  0  0  0  0  0  0  0  0
  158.6513  141.8380  180.9134 N   0  0  0  0  0  0  0  0  0  0  0  0
  1  2  1  0  0  0
  2  3  2  0  0  0
  3  4  1  0  0  0
  4  5  2  0  0  0
  5 16  1  0  0  0
 16 17  1  0  0  0
 17 18  2  0  0  0
 17 20  1  0  0  0
 20 21  1  0  0  0
 21 22  2  0  0  0
 22 25  1  0  0  0
 25 26  1  0  0  0
 26 27  1  0  0  0
 27 28  2  0  0  0
 28 29  1  0  0  0
 29 30  2  0  0  0
 22 23  1  0  0  0
 23 24  1  0  0  0
  5  6  1  0  0  0
  6  7  2  0  0  0
  7  8  1  0  0  0
  8  9  2  0  0  0
  9 10  1  0  0  0
 10 11  2  0  0  0
 11 12  1  0  0  0
 12 13  2  0  0  0
 13 14  1  0  0  0
  7  2  1  0  0  0
 13  8  1  0  0  0
 24 20  2  0  0  0
 30 26  1  0  0  0
 16 19  1  0  0  0
 14 15  1  0  0  0
M  END
> <minimizedAffinity>
-7.89250

> <CNNscore>
0.4190231860

> <CNNaffinity>
5.9813876152

> <CNN_VS>
2.5063400269

> <CNNaffinity_variance>
0.0406579077

$$$$
[H]Oc1c([H])c([H])c([H])c([H])c1-c1c([H])c(N([H])C(=O)c2noc(C([H])([H])n3nc([H])nc3[H])c2[H])c([H])c([H])c1Cl


 30 33  0  0  0  0  0  0  0  0999 V2000
  160.7235  145.1797  183.5693 Cl  0  0  0  0  0  0  0  0  0  0  0  0
  159.5739  143.8466  183.5505 C   0  0  0  0  0  0  0  0  0  0  0  0
  158.5028  143.8479  182.6827 C   0  0  0  0  0  0  0  0  0  0  0  0
  157.5786  142.8531  182.6356 C   0  0  0  0  0  0  0  0  0  0  0  0
  157.6831  141.7511  183.4960 C   0  0  0  0  0  0  0  0  0  0  0  0
  158.7503  141.7505  184.3583 C   0  0  0  0  0  0  0  0  0  0  0  0
  159.6963  142.7754  184.4023 C   0  0  0  0  0  0  0  0  0  0  0  0
  160.8599  142.7440  185.2861 C   0  0  0  0  0  0  0  0  0  0  0  0
  160.7689  143.3934  186.5308 C   0  0  0  0  0  0  0  0  0  0  0  0
  161.8131  143.4585  187.4184 C   0  0  0  0  0  0  0  0  0  0  0  0
  162.9835  142.8460  187.0280 C   0  0  0  0  0  0  0  0  0  0  0  0
  163.1174  142.2050  185.8319 C   0  0  0  0  0  0  0  0  0  0  0  0
  162.0326  142.1460  184.9303 C   0  0  0  0  0  0  0  0  0  0  0  0
  162.2078  141.4832  183.7313 O   0  0  0  0  0  0  0  0  0  0  0  0
  161.4863  141.3824  183.0661 H   0  0  0  0  0  0  0  0  0  0  0  0
  156.7376  140.7096  183.4385 N   0  0  0  0  0  0  0  0  0  0  0  0
  155.3714  140.7976  183.6854 C   0  0  0  0  0  0  0  0  0  0  0  0
  154.7836  141.8354  183.9933 O   0  0  0  0  0  0  0  0  0  0  0  0
  157.1601  139.7447  183.1714 H   0  0  0  0  0  0  0  0  0  0  0  0
  154.5500  139.5692  183.5741 C   0  0  0  0  0  0  0  0  0  0  0  0
  153.3984  139.4245  182.8441 C   0  0  0  0  0  0  0  0  0  0  0  0
  152.9537  138.1247  183.0208 C   0  0  0  0  0  0  0  0  0  0  0  0
  153.8071  137.5619  183.8084 O   0  0  0  0  0  0  0  0  0  0  0  0
  154.7686  138.3642  184.1667 N   0  0  0  0  0  0  0  0  0  0  0  0
  151.7137  137.5727  182.3815 C   0  0  0  0  0  0  0  0  0  0  0  0
  151.1922  138.4407  181.3583 N   0  0  0  0  0  0  0  0  0  0  0  0
  150.0203  139.0817  181.4277 C   0  0  0  0  0  0  0  0  0  0  0  0
  149.8648  139.7949  180.3007 N   0  0  0  0  0  0  0  0  0  0  0  0
  150.9294  139.6124  179.5149 C   0  0  0  0  0  0  0  0  0  0  0  0
  151.7424  138.7710  180.1846 N   0  0  0  0  0  0  0  0  0  0  0  0
  1  2  1  0  0  0
  2  3  2  0  0  0
  3  4  1  0  0  0
  4  5  2  0  0  0
  5 16  1  0  0  0
 16 17  1  0  0  0
 17 18  2  0  0  0
 17 20  1  0  0  0
 20 21  1  0  0  0
 21 22  2  0  0  0
 22 25  1  0  0  0
 25 26  1  0  0  0
 26 27  1  0  0  0
 27 28  2  0  0  0
 28 29  1  0  0  0
 29 30  2  0  0  0
 22 23  1  0  0  0
 23 24  1  0  0  0
  5  6  1  0  0  0
  6  7  2  0  0  0
  7  8  1  0  0  0
  8  9  2  0  0  0
  9 10  1  0  0  0
 10 11  2  0  0  0
 11 12  1  0  0  0
 12 13  2  0  0  0
 13 14  1  0  0  0
  7  2  1  0  0  0
 13  8  1  0  0  0
 24 20  2  0  0  0
 30 26  1  0  0  0
 16 19  1  0  0  0
 14 15  1  0  0  0
M  END
> <minimizedAffinity>
-8.80221

> <CNNscore>
0.3935104012

> <CNNaffinity>
6.4040250778

> <CNN_VS>
2.5200505257

> <CNNaffinity_variance>
0.1670545489

$$$$
[H]Oc1c([H])c([H])c([H])c([H])c1-c1c([H])c(N([H])C(=O)c2noc(C([H])([H])n3nc([H])nc3[H])c2[H])c([H])c([H])c1Cl


 30 33  0  0  0  0  0  0  0  0999 V2000
  160.7389  145.1377  183.6490 Cl  0  0  0  0  0  0  0  0  0  0  0  0
  159.6011  143.7943  183.6548 C   0  0  0  0  0  0  0  0  0  0  0  0
  158.5125  143.7853  182.8092 C   0  0  0  0  0  0  0  0  0  0  0  0
  157.5964  142.7822  182.7817 C   0  0  0  0  0  0  0  0  0  0  0  0
  157.7286  141.6818  183.6405 C   0  0  0  0  0  0  0  0  0  0  0  0
  158.8132  141.6916  184.4806 C   0  0  0  0  0  0  0  0  0  0  0  0
  159.7507  142.7250  184.5046 C   0  0  0  0  0  0  0  0  0  0  0  0
  160.9325  142.7048  185.3642 C   0  0  0  0  0  0  0  0  0  0  0  0
  162.1734  142.3852  184.7835 C   0  0  0  0  0  0  0  0  0  0  0  0
  163.3369  142.2996  185.5054 C   0  0  0  0  0  0  0  0  0  0  0  0
  163.2348  142.5455  186.8569 C   0  0  0  0  0  0  0  0  0  0  0  0
  162.0539  142.8589  187.4626 C   0  0  0  0  0  0  0  0  0  0  0  0
  160.8657  142.9442  186.7050 C   0  0  0  0  0  0  0  0  0  0  0  0
  159.6915  143.2690  187.3556 O   0  0  0  0  0  0  0  0  0  0  0  0
  158.8302  143.3696  186.8851 H   0  0  0  0  0  0  0  0  0  0  0  0
  156.7915  140.6319  183.6032 N   0  0  0  0  0  0  0  0  0  0  0  0
  155.4116  140.7286  183.7515 C   0  0  0  0  0  0  0  0  0  0  0  0
  154.8022  141.7829  183.9368 O   0  0  0  0  0  0  0  0  0  0  0  0
  157.2331  139.6522  183.4418 H   0  0  0  0  0  0  0  0  0  0  0  0
  154.6025  139.4890  183.6836 C   0  0  0  0  0  0  0  0  0  0  0  0
  153.4021  139.3358  183.0389 C   0  0  0  0  0  0  0  0  0  0  0  0
  152.9909  138.0269  183.2293 C   0  0  0  0  0  0  0  0  0  0  0  0
  153.9086  137.4673  183.9434 O   0  0  0  0  0  0  0  0  0  0  0  0
  154.8822  138.2798  184.2410 N   0  0  0  0  0  0  0  0  0  0  0  0
  151.7152  137.4641  182.6756 C   0  0  0  0  0  0  0  0  0  0  0  0
  151.1580  138.2894  181.6362 N   0  0  0  0  0  0  0  0  0  0  0  0
  151.6325  138.3664  180.3880 C   0  0  0  0  0  0  0  0  0  0  0  0
  150.8672  139.2295  179.7007 N   0  0  0  0  0  0  0  0  0  0  0  0
  149.9091  139.7020  180.5026 C   0  0  0  0  0  0  0  0  0  0  0  0
  150.1030  139.1097  181.6980 N   0  0  0  0  0  0  0  0  0  0  0  0
  1  2  1  0  0  0
  2  3  2  0  0  0
  3  4  1  0  0  0
  4  5  2  0  0  0
  5 16  1  0  0  0
 16 17  1  0  0  0
 17 18  2  0  0  0
 17 20  1  0  0  0
 20 21  1  0  0  0
 21 22  2  0  0  0
 22 25  1  0  0  0
 25 26  1  0  0  0
 26 27  1  0  0  0
 27 28  2  0  0  0
 28 29  1  0  0  0
 29 30  2  0  0  0
 22 23  1  0  0  0
 23 24  1  0  0  0
  5  6  1  0  0  0
  6  7  2  0  0  0
  7  8  1  0  0  0
  8  9  2  0  0  0
  9 10  1  0  0  0
 10 11  2  0  0  0
 11 12  1  0  0  0
 12 13  2  0  0  0
 13 14  1  0  0  0
  7  2  1  0  0  0
 13  8  1  0  0  0
 24 20  2  0  0  0
 30 26  1  0  0  0
 16 19  1  0  0  0
 14 15  1  0  0  0
M  END
> <minimizedAffinity>
-8.46912

> <CNNscore>
0.3912066519

> <CNNaffinity>
6.2740736008

> <CNN_VS>
2.4544594288

> <CNNaffinity_variance>
0.0457071662

$$$$
[H]Oc1c([H])c([H])c([H])c([H])c1-c1c([H])c(N([H])C(=O)c2noc(C([H])([H])n3nc([H])nc3[H])c2[H])c([H])c([H])c1Cl


 30 33  0  0  0  0  0  0  0  0999 V2000
  158.0712  140.6252  184.3595 Cl  0  0  0  0  0  0  0  0  0  0  0  0
  156.4317  140.3562  183.7774 C   0  0  0  0  0  0  0  0  0  0  0  0
  155.5513  139.5641  184.4827 C   0  0  0  0  0  0  0  0  0  0  0  0
  154.2806  139.3118  184.0729 C   0  0  0  0  0  0  0  0  0  0  0  0
  153.8012  139.8662  182.8777 C   0  0  0  0  0  0  0  0  0  0  0  0
  154.6782  140.6554  182.1774 C   0  0  0  0  0  0  0  0  0  0  0  0
  155.9823  140.9107  182.6032 C   0  0  0  0  0  0  0  0  0  0  0  0
  156.8946  141.7945  181.8803 C   0  0  0  0  0  0  0  0  0  0  0  0
  157.8322  141.2139  181.0067 C   0  0  0  0  0  0  0  0  0  0  0  0
  158.7592  141.9472  180.3102 C   0  0  0  0  0  0  0  0  0  0  0  0
  158.7321  143.3100  180.5088 C   0  0  0  0  0  0  0  0  0  0  0  0
  157.8417  143.9161  181.3451 C   0  0  0  0  0  0  0  0  0  0  0  0
  156.8932  143.1471  182.0536 C   0  0  0  0  0  0  0  0  0  0  0  0
  156.0060  143.7998  182.8869 O   0  0  0  0  0  0  0  0  0  0  0  0
  155.3023  143.3283  183.3926 H   0  0  0  0  0  0  0  0  0  0  0  0
  152.4798  139.6216  182.4582 N   0  0  0  0  0  0  0  0  0  0  0  0
  152.0548  139.2492  181.1870 C   0  0  0  0  0  0  0  0  0  0  0  0
  152.8036  139.0720  180.2252 O   0  0  0  0  0  0  0  0  0  0  0  0
  151.7374  139.7513  183.2412 H   0  0  0  0  0  0  0  0  0  0  0  0
  150.6054  139.0457  180.9551 C   0  0  0  0  0  0  0  0  0  0  0  0
  150.0080  138.7425  179.7587 C   0  0  0  0  0  0  0  0  0  0  0  0
  148.6453  138.6449  179.9864 C   0  0  0  0  0  0  0  0  0  0  0  0
  148.4781  138.8798  181.2442 O   0  0  0  0  0  0  0  0  0  0  0  0
  149.5971  139.1224  181.8653 N   0  0  0  0  0  0  0  0  0  0  0  0
  147.6415  138.3251  178.9181 C   0  0  0  0  0  0  0  0  0  0  0  0
  147.4303  136.9088  178.7713 N   0  0  0  0  0  0  0  0  0  0  0  0
  146.8432  136.3313  177.7173 C   0  0  0  0  0  0  0  0  0  0  0  0
  146.8192  135.0050  177.9249 N   0  0  0  0  0  0  0  0  0  0  0  0
  147.3871  134.7344  179.1032 C   0  0  0  0  0  0  0  0  0  0  0  0
  147.7605  135.9244  179.6149 N   0  0  0  0  0  0  0  0  0  0  0  0
  1  2  1  0  0  0
  2  3  2  0  0  0
  3  4  1  0  0  0
  4  5  2  0  0  0
  5 16  1  0  0  0
 16 17  1  0  0  0
 17 18  2  0  0  0
 17 20  1  0  0  0
 20 21  1  0  0  0
 21 22  2  0  0  0
 22 25  1  0  0  0
 25 26  1  0  0  0
 26 27  1  0  0  0
 27 28  2  0  0  0
 28 29  1  0  0  0
 29 30  2  0  0  0
 22 23  1  0  0  0
 23 24  1  0  0  0
  5  6  1  0  0  0
  6  7  2  0  0  0
  7  8  1  0  0  0
  8  9  2  0  0  0
  9 10  1  0  0  0
 10 11  2  0  0  0
 11 12  1  0  0  0
 12 13  2  0  0  0
 13 14  1  0  0  0
  7  2  1  0  0  0
 13  8  1  0  0  0
 24 20  2  0  0  0
 30 26  1  0  0  0
 16 19  1  0  0  0
 14 15  1  0  0  0
M  END
> <minimizedAffinity>
-7.64189

> <CNNscore>
0.3825888634

> <CNNaffinity>
5.6258535385

> <CNN_VS>
2.1523888111

> <CNNaffinity_variance>
0.1398124993

$$$$
[H]Oc1c([H])c([H])c([H])c([H])c1-c1c([H])c(N([H])C(=O)c2noc(C([H])([H])n3nc([H])nc3[H])c2[H])c([H])c([H])c1Cl


 30 33  0  0  0  0  0  0  0  0999 V2000
  159.0601  140.8711  184.6335 Cl  0  0  0  0  0  0  0  0  0  0  0  0
  157.4086  140.4472  184.1951 C   0  0  0  0  0  0  0  0  0  0  0  0
  156.6639  139.5953  184.9824 C   0  0  0  0  0  0  0  0  0  0  0  0
  155.3913  139.2239  184.6844 C   0  0  0  0  0  0  0  0  0  0  0  0
  154.7669  139.7096  183.5269 C   0  0  0  0  0  0  0  0  0  0  0  0
  155.5089  140.5584  182.7449 C   0  0  0  0  0  0  0  0  0  0  0  0
  156.8158  140.9361  183.0560 C   0  0  0  0  0  0  0  0  0  0  0  0
  157.5825  141.8817  182.2474 C   0  0  0  0  0  0  0  0  0  0  0  0
  157.5145  143.2479  182.5763 C   0  0  0  0  0  0  0  0  0  0  0  0
  158.1622  144.2225  181.8602 C   0  0  0  0  0  0  0  0  0  0  0  0
  158.8995  143.7950  180.7782 C   0  0  0  0  0  0  0  0  0  0  0  0
  158.9944  142.4821  180.4223 C   0  0  0  0  0  0  0  0  0  0  0  0
  158.3226  141.4912  181.1707 C   0  0  0  0  0  0  0  0  0  0  0  0
  158.4481  140.1725  180.7800 O   0  0  0  0  0  0  0  0  0  0  0  0
  158.0267  139.4274  181.2705 H   0  0  0  0  0  0  0  0  0  0  0  0
  153.4425  139.3414  183.2234 N   0  0  0  0  0  0  0  0  0  0  0  0
  152.7813  139.4988  182.0096 C   0  0  0  0  0  0  0  0  0  0  0  0
  153.2846  139.9940  181.0003 O   0  0  0  0  0  0  0  0  0  0  0  0
  152.9086  138.8902  184.0555 H   0  0  0  0  0  0  0  0  0  0  0  0
  151.3749  139.0442  181.9039 C   0  0  0  0  0  0  0  0  0  0  0  0
  150.4147  139.5582  181.0709 C   0  0  0  0  0  0  0  0  0  0  0  0
  149.2458  138.8497  181.2953 C   0  0  0  0  0  0  0  0  0  0  0  0
  149.5275  137.9802  182.2063 O   0  0  0  0  0  0  0  0  0  0  0  0
  150.7664  138.0480  182.6027 N   0  0  0  0  0  0  0  0  0  0  0  0
  147.9578  139.1143  180.5729 C   0  0  0  0  0  0  0  0  0  0  0  0
  147.5639  138.0127  179.7341 N   0  0  0  0  0  0  0  0  0  0  0  0
  147.6206  138.0144  178.3978 C   0  0  0  0  0  0  0  0  0  0  0  0
  147.1762  136.8262  177.9575 N   0  0  0  0  0  0  0  0  0  0  0  0
  146.8376  136.0686  179.0041 C   0  0  0  0  0  0  0  0  0  0  0  0
  147.0838  136.8180  180.0973 N   0  0  0  0  0  0  0  0  0  0  0  0
  1  2  1  0  0  0
  2  3  2  0  0  0
  3  4  1  0  0  0
  4  5  2  0  0  0
  5 16  1  0  0  0
 16 17  1  0  0  0
 17 18  2  0  0  0
 17 20  1  0  0  0
 20 21  1  0  0  0
 21 22  2  0  0  0
 22 25  1  0  0  0
 25 26  1  0  0  0
 26 27  1  0  0  0
 27 28  2  0  0  0
 28 29  1  0  0  0
 29 30  2  0  0  0
 22 23  1  0  0  0
 23 24  1  0  0  0
  5  6  1  0  0  0
  6  7  2  0  0  0
  7  8  1  0  0  0
  8  9  2  0  0  0
  9 10  1  0  0  0
 10 11  2  0  0  0
 11 12  1  0  0  0
 12 13  2  0  0  0
 13 14  1  0  0  0
  7  2  1  0  0  0
 13  8  1  0  0  0
 24 20  2  0  0  0
 30 26  1  0  0  0
 16 19  1  0  0  0
 14 15  1  0  0  0
M  END
> <minimizedAffinity>
-8.00552

> <CNNscore>
0.3625016809

> <CNNaffinity>
5.6985497475

> <CNN_VS>
2.0657339096

> <CNNaffinity_variance>
0.2318689525

$$$$
[H]Oc1c([H])c([H])c([H])c([H])c1-c1c([H])c(N([H])C(=O)c2noc(C([H])([H])n3nc([H])nc3[H])c2[H])c([H])c([H])c1Cl


 30 33  0  0  0  0  0  0  0  0999 V2000
  148.3406  138.5593  179.6091 Cl  0  0  0  0  0  0  0  0  0  0  0  0
  149.9060  139.0135  180.2743 C   0  0  0  0  0  0  0  0  0  0  0  0
  150.9030  139.5098  179.4620 C   0  0  0  0  0  0  0  0  0  0  0  0
  152.1329  139.8625  179.9196 C   0  0  0  0  0  0  0  0  0  0  0  0
  152.4443  139.7307  181.2802 C   0  0  0  0  0  0  0  0  0  0  0  0
  151.4507  139.2377  182.0876 C   0  0  0  0  0  0  0  0  0  0  0  0
  150.1894  138.8769  181.6119 C   0  0  0  0  0  0  0  0  0  0  0  0
  149.1177  138.4022  182.4848 C   0  0  0  0  0  0  0  0  0  0  0  0
  148.2067  139.3452  182.9948 C   0  0  0  0  0  0  0  0  0  0  0  0
  147.1888  139.0134  183.8528 C   0  0  0  0  0  0  0  0  0  0  0  0
  147.0958  137.6843  184.2025 C   0  0  0  0  0  0  0  0  0  0  0  0
  147.9557  136.7359  183.7330 C   0  0  0  0  0  0  0  0  0  0  0  0
  148.9971  137.0938  182.8496 C   0  0  0  0  0  0  0  0  0  0  0  0
  149.8437  136.1025  182.3932 O   0  0  0  0  0  0  0  0  0  0  0  0
  150.5763  136.2770  181.7560 H   0  0  0  0  0  0  0  0  0  0  0  0
  153.7114  140.1112  181.7615 N   0  0  0  0  0  0  0  0  0  0  0  0
  154.0931  141.3642  182.2302 C   0  0  0  0  0  0  0  0  0  0  0  0
  153.3467  142.3420  182.2944 O   0  0  0  0  0  0  0  0  0  0  0  0
  154.4471  139.3115  181.7469 H   0  0  0  0  0  0  0  0  0  0  0  0
  155.4890  141.5545  182.6894 C   0  0  0  0  0  0  0  0  0  0  0  0
  156.2908  140.6054  183.2695 C   0  0  0  0  0  0  0  0  0  0  0  0
  157.5094  141.2025  183.5470 C   0  0  0  0  0  0  0  0  0  0  0  0
  157.4051  142.4246  183.1458 O   0  0  0  0  0  0  0  0  0  0  0  0
  156.2376  142.6891  182.6322 N   0  0  0  0  0  0  0  0  0  0  0  0
  158.6619  140.4879  184.1888 C   0  0  0  0  0  0  0  0  0  0  0  0
  159.4892  141.3717  184.9677 N   0  0  0  0  0  0  0  0  0  0  0  0
  159.1955  141.8015  186.1998 C   0  0  0  0  0  0  0  0  0  0  0  0
  160.1892  142.6052  186.6118 N   0  0  0  0  0  0  0  0  0  0  0  0
  161.1130  142.6895  185.6508 C   0  0  0  0  0  0  0  0  0  0  0  0
  160.6646  141.9196  184.6391 N   0  0  0  0  0  0  0  0  0  0  0  0
  1  2  1  0  0  0
  2  3  2  0  0  0
  3  4  1  0  0  0
  4  5  2  0  0  0
  5 16  1  0  0  0
 16 17  1  0  0  0
 17 18  2  0  0  0
 17 20  1  0  0  0
 20 21  1  0  0  0
 21 22  2  0  0  0
 22 25  1  0  0  0
 25 26  1  0  0  0
 26 27  1  0  0  0
 27 28  2  0  0  0
 28 29  1  0  0  0
 29 30  2  0  0  0
 22 23  1  0  0  0
 23 24  1  0  0  0
  5  6  1  0  0  0
  6  7  2  0  0  0
  7  8  1  0  0  0
  8  9  2  0  0  0
  9 10  1  0  0  0
 10 11  2  0  0  0
 11 12  1  0  0  0
 12 13  2  0  0  0
 13 14  1  0  0  0
  7  2  1  0  0  0
 13  8  1  0  0  0
 24 20  2  0  0  0
 30 26  1  0  0  0
 16 19  1  0  0  0
 14 15  1  0  0  0
M  END
> <minimizedAffinity>
-8.29013

> <CNNscore>
0.3466786742

> <CNNaffinity>
5.7040481567

> <CNN_VS>
1.9774718285

> <CNNaffinity_variance>
0.0535652712

$$$$
[H]c1nc2nc(N([H])C([H])([H])[H])oc2c([H])c1C(=O)N([H])C([H])([H])c1c([H])c([H])c(C([H])([H])[H])c(C(=O)N2Oc3c(N([H])[H])c([H])c([H])c([H])c3C([H])([H])C2([H])[H])c1[H]


 39 43  0  0  0  0  0  0  0  0999 V2000
  153.4728  137.0347  187.8928 C   0  0  0  0  0  0  0  0  0  0  0  0
  153.6612  138.3355  188.3029 C   0  0  0  0  0  0  0  0  0  0  0  0
  154.5475  138.6334  189.3376 C   0  0  0  0  0  0  0  0  0  0  0  0
  155.2449  137.6256  189.9607 C   0  0  0  0  0  0  0  0  0  0  0  0
  156.1889  137.9650  191.0639 C   0  0  0  0  0  0  0  0  0  0  0  0
  155.0386  136.3326  189.5318 C   0  0  0  0  0  0  0  0  0  0  0  0
  154.1618  136.0287  188.5071 C   0  0  0  0  0  0  0  0  0  0  0  0
  155.7659  135.2555  190.1723 C   0  0  0  0  0  0  0  0  0  0  0  0
  155.2137  134.7230  191.1744 O   0  0  0  0  0  0  0  0  0  0  0  0
  157.0453  134.8072  189.7041 N   0  0  0  0  0  0  0  0  0  0  0  0
  157.6951  135.4062  188.5573 C   0  0  0  0  0  0  0  0  0  0  0  0
  157.8907  134.3160  187.5401 C   0  0  0  0  0  0  0  0  0  0  0  0
  158.6297  133.2021  188.2084 C   0  0  0  0  0  0  0  0  0  0  0  0
  159.4447  132.3825  187.4216 C   0  0  0  0  0  0  0  0  0  0  0  0
  160.1260  131.3533  188.0308 C   0  0  0  0  0  0  0  0  0  0  0  0
  160.0236  131.1134  189.3906 C   0  0  0  0  0  0  0  0  0  0  0  0
  159.2206  131.9227  190.1597 C   0  0  0  0  0  0  0  0  0  0  0  0
  159.0724  131.7296  191.5539 N   0  0  0  0  0  0  0  0  0  0  0  0
  158.5459  132.9416  189.5593 C   0  0  0  0  0  0  0  0  0  0  0  0
  157.7194  133.7831  190.3232 O   0  0  0  0  0  0  0  0  0  0  0  0
  158.1764  131.8984  192.0532 H   0  0  0  0  0  0  0  0  0  0  0  0
  159.8917  131.4059  192.1072 H   0  0  0  0  0  0  0  0  0  0  0  0
  152.5277  136.7022  186.7748 C   0  0  0  0  0  0  0  0  0  0  0  0
  152.6603  135.4906  184.5946 C   0  0  0  0  0  0  0  0  0  0  0  0
  151.4195  135.2883  184.6920 O   0  0  0  0  0  0  0  0  0  0  0  0
  153.2849  136.2172  185.6424 N   0  0  0  0  0  0  0  0  0  0  0  0
  154.3091  136.3943  185.5751 H   0  0  0  0  0  0  0  0  0  0  0  0
  156.5142  132.8917  180.8952 C   0  0  0  0  0  0  0  0  0  0  0  0
  155.4961  133.4817  180.2348 N   0  0  0  0  0  0  0  0  0  0  0  0
  154.6648  134.0495  181.1258 C   0  0  0  0  0  0  0  0  0  0  0  0
  153.5134  134.7572  181.0525 N   0  0  0  0  0  0  0  0  0  0  0  0
  152.8927  135.2080  182.1659 C   0  0  0  0  0  0  0  0  0  0  0  0
  153.3835  134.9807  183.4374 C   0  0  0  0  0  0  0  0  0  0  0  0
  154.5551  134.2613  183.5203 C   0  0  0  0  0  0  0  0  0  0  0  0
  155.1989  133.7941  182.3709 C   0  0  0  0  0  0  0  0  0  0  0  0
  156.2957  133.1034  182.1665 O   0  0  0  0  0  0  0  0  0  0  0  0
  158.9002  132.1989  180.8933 C   0  0  0  0  0  0  0  0  0  0  0  0
  157.6055  132.1800  180.2901 N   0  0  0  0  0  0  0  0  0  0  0  0
  157.4396  131.6544  179.4106 H   0  0  0  0  0  0  0  0  0  0  0  0
 37 38  1  0  0  0
 38 28  1  0  0  0
 28 29  2  0  0  0
 29 30  1  0  0  0
 30 31  2  0  0  0
 31 32  1  0  0  0
 32 33  2  0  0  0
 33 34  1  0  0  0
 34 35  2  0  0  0
 35 36  1  0  0  0
 33 24  1  0  0  0
 24 25  2  0  0  0
 24 26  1  0  0  0
 26 23  1  0  0  0
 23  1  1  0  0  0
  1  2  2  0  0  0
  2  3  1  0  0  0
  3  4  2  0  0  0
  4  5  1  0  0  0
  4  6  1  0  0  0
  6  7  2  0  0  0
  6  8  1  0  0  0
  8  9  2  0  0  0
  8 10  1  0  0  0
 10 11  1  0  0  0
 11 12  1  0  0  0
 12 13  1  0  0  0
 13 14  2  0  0  0
 14 15  1  0  0  0
 15 16  2  0  0  0
 16 17  1  0  0  0
 17 18  1  0  0  0
 17 19  2  0  0  0
 19 20  1  0  0  0
 36 28  1  0  0  0
  7  1  1  0  0  0
 20 10  1  0  0  0
 35 30  1  0  0  0
 19 13  1  0  0  0
 38 39  1  0  0  0
 26 27  1  0  0  0
 18 21  1  0  0  0
 18 22  1  0  0  0
M  END
> <minimizedAffinity>
-6.99381

> <CNNscore>
0.3866997361

> <CNNaffinity>
5.7124185562

> <CNN_VS>
2.2089908123

> <CNNaffinity_variance>
0.0941042528

$$$$
[H]c1nc2nc(N([H])C([H])([H])[H])oc2c([H])c1C(=O)N([H])C([H])([H])c1c([H])c([H])c(C([H])([H])[H])c(C(=O)N2Oc3c(N([H])[H])c([H])c([H])c([H])c3C([H])([H])C2([H])[H])c1[H]


 39 43  0  0  0  0  0  0  0  0999 V2000
  154.0054  138.6756  184.4351 C   0  0  0  0  0  0  0  0  0  0  0  0
  153.2414  137.7042  183.8282 C   0  0  0  0  0  0  0  0  0  0  0  0
  152.8156  136.5849  184.5430 C   0  0  0  0  0  0  0  0  0  0  0  0
  153.1568  136.4406  185.8671 C   0  0  0  0  0  0  0  0  0  0  0  0
  152.6905  135.2374  186.6141 C   0  0  0  0  0  0  0  0  0  0  0  0
  153.9219  137.4265  186.4509 C   0  0  0  0  0  0  0  0  0  0  0  0
  154.3481  138.5390  185.7496 C   0  0  0  0  0  0  0  0  0  0  0  0
  154.2899  137.2962  187.8463 C   0  0  0  0  0  0  0  0  0  0  0  0
  153.4768  137.7684  188.6880 O   0  0  0  0  0  0  0  0  0  0  0  0
  155.5091  136.6668  188.2641 N   0  0  0  0  0  0  0  0  0  0  0  0
  156.4547  136.1204  187.3135 C   0  0  0  0  0  0  0  0  0  0  0  0
  156.5901  134.6537  187.6174 C   0  0  0  0  0  0  0  0  0  0  0  0
  156.9570  134.5236  189.0603 C   0  0  0  0  0  0  0  0  0  0  0  0
  157.7060  133.4109  189.4552 C   0  0  0  0  0  0  0  0  0  0  0  0
  158.0449  133.2840  190.7832 C   0  0  0  0  0  0  0  0  0  0  0  0
  157.6649  134.2230  191.7271 C   0  0  0  0  0  0  0  0  0  0  0  0
  156.9283  135.3155  191.3331 C   0  0  0  0  0  0  0  0  0  0  0  0
  156.5079  136.3096  192.2486 N   0  0  0  0  0  0  0  0  0  0  0  0
  156.5921  135.4432  190.0200 C   0  0  0  0  0  0  0  0  0  0  0  0
  155.8404  136.5507  189.5918 O   0  0  0  0  0  0  0  0  0  0  0  0
  155.5948  136.7996  192.1671 H   0  0  0  0  0  0  0  0  0  0  0  0
  157.1358  136.5650  193.0378 H   0  0  0  0  0  0  0  0  0  0  0  0
  154.4628  139.8889  183.6786 C   0  0  0  0  0  0  0  0  0  0  0  0
  156.7583  140.7956  183.2943 C   0  0  0  0  0  0  0  0  0  0  0  0
  156.4641  140.8762  182.0707 O   0  0  0  0  0  0  0  0  0  0  0  0
  155.7608  140.2932  184.1711 N   0  0  0  0  0  0  0  0  0  0  0  0
  155.9881  140.2228  185.1851 H   0  0  0  0  0  0  0  0  0  0  0  0
  161.4425  142.7405  186.3874 C   0  0  0  0  0  0  0  0  0  0  0  0
  161.7752  142.3958  185.1259 N   0  0  0  0  0  0  0  0  0  0  0  0
  160.6750  141.9677  184.4827 C   0  0  0  0  0  0  0  0  0  0  0  0
  160.4053  141.5087  183.2383 N   0  0  0  0  0  0  0  0  0  0  0  0
  159.1540  141.1431  182.8793 C   0  0  0  0  0  0  0  0  0  0  0  0
  158.0795  141.2115  183.7454 C   0  0  0  0  0  0  0  0  0  0  0  0
  158.3460  141.6778  185.0137 C   0  0  0  0  0  0  0  0  0  0  0  0
  159.6385  142.0565  185.3875 C   0  0  0  0  0  0  0  0  0  0  0  0
  160.1586  142.5218  186.4987 O   0  0  0  0  0  0  0  0  0  0  0  0
  163.2979  142.3749  187.9988 C   0  0  0  0  0  0  0  0  0  0  0  0
  162.3455  143.2444  187.3845 N   0  0  0  0  0  0  0  0  0  0  0  0
  162.2950  144.2462  187.6514 H   0  0  0  0  0  0  0  0  0  0  0  0
 37 38  1  0  0  0
 38 28  1  0  0  0
 28 29  2  0  0  0
 29 30  1  0  0  0
 30 31  2  0  0  0
 31 32  1  0  0  0
 32 33  2  0  0  0
 33 34  1  0  0  0
 34 35  2  0  0  0
 35 36  1  0  0  0
 33 24  1  0  0  0
 24 25  2  0  0  0
 24 26  1  0  0  0
 26 23  1  0  0  0
 23  1  1  0  0  0
  1  2  2  0  0  0
  2  3  1  0  0  0
  3  4  2  0  0  0
  4  5  1  0  0  0
  4  6  1  0  0  0
  6  7  2  0  0  0
  6  8  1  0  0  0
  8  9  2  0  0  0
  8 10  1  0  0  0
 10 11  1  0  0  0
 11 12  1  0  0  0
 12 13  1  0  0  0
 13 14  2  0  0  0
 14 15  1  0  0  0
 15 16  2  0  0  0
 16 17  1  0  0  0
 17 18  1  0  0  0
 17 19  2  0  0  0
 19 20  1  0  0  0
 36 28  1  0  0  0
  7  1  1  0  0  0
 20 10  1  0  0  0
 35 30  1  0  0  0
 19 13  1  0  0  0
 38 39  1  0  0  0
 26 27  1  0  0  0
 18 21  1  0  0  0
 18 22  1  0  0  0
M  END
> <minimizedAffinity>
-9.22880

> <CNNscore>
0.2237502933

> <CNNaffinity>
6.4966864586

> <CNN_VS>
1.4536354542

> <CNNaffinity_variance>
0.0268461611

$$$$
[H]c1nc2nc(N([H])C([H])([H])[H])oc2c([H])c1C(=O)N([H])C([H])([H])c1c([H])c([H])c(C([H])([H])[H])c(C(=O)N2Oc3c(N([H])[H])c([H])c([H])c([H])c3C([H])([H])C2([H])[H])c1[H]


 39 43  0  0  0  0  0  0  0  0999 V2000
  152.5288  139.6243  181.7644 C   0  0  0  0  0  0  0  0  0  0  0  0
  152.3677  140.0648  180.4699 C   0  0  0  0  0  0  0  0  0  0  0  0
  151.2247  139.7327  179.7430 C   0  0  0  0  0  0  0  0  0  0  0  0
  150.2434  138.9584  180.3155 C   0  0  0  0  0  0  0  0  0  0  0  0
  149.0284  138.6156  179.5220 C   0  0  0  0  0  0  0  0  0  0  0  0
  150.4285  138.5304  181.6119 C   0  0  0  0  0  0  0  0  0  0  0  0
  151.5584  138.8550  182.3394 C   0  0  0  0  0  0  0  0  0  0  0  0
  149.4051  137.7163  182.2358 C   0  0  0  0  0  0  0  0  0  0  0  0
  148.5276  138.3309  182.9028 O   0  0  0  0  0  0  0  0  0  0  0  0
  149.3773  136.2877  182.1110 N   0  0  0  0  0  0  0  0  0  0  0  0
  150.3756  135.5649  181.3513 C   0  0  0  0  0  0  0  0  0  0  0  0
  149.6513  134.8236  180.2616 C   0  0  0  0  0  0  0  0  0  0  0  0
  148.5886  133.9953  180.9083 C   0  0  0  0  0  0  0  0  0  0  0  0
  148.1930  132.8134  180.2745 C   0  0  0  0  0  0  0  0  0  0  0  0
  147.2129  132.0475  180.8638 C   0  0  0  0  0  0  0  0  0  0  0  0
  146.6158  132.4168  182.0572 C   0  0  0  0  0  0  0  0  0  0  0  0
  147.0088  133.5803  182.6763 C   0  0  0  0  0  0  0  0  0  0  0  0
  146.4371  134.0139  183.8962 N   0  0  0  0  0  0  0  0  0  0  0  0
  147.9783  134.3395  182.0953 C   0  0  0  0  0  0  0  0  0  0  0  0
  148.3980  135.5324  182.7082 O   0  0  0  0  0  0  0  0  0  0  0  0
  146.2757  135.0168  184.1170 H   0  0  0  0  0  0  0  0  0  0  0  0
  146.1658  133.3031  184.6058 H   0  0  0  0  0  0  0  0  0  0  0  0
  153.7506  139.9820  182.5598 C   0  0  0  0  0  0  0  0  0  0  0  0
  154.8075  139.1833  184.6775 C   0  0  0  0  0  0  0  0  0  0  0  0
  155.9148  139.5562  184.2031 O   0  0  0  0  0  0  0  0  0  0  0  0
  153.6553  139.3805  183.8713 N   0  0  0  0  0  0  0  0  0  0  0  0
  152.7330  139.0796  184.2504 H   0  0  0  0  0  0  0  0  0  0  0  0
  156.0062  136.4075  189.7911 C   0  0  0  0  0  0  0  0  0  0  0  0
  154.7342  136.8553  189.7430 N   0  0  0  0  0  0  0  0  0  0  0  0
  154.5288  137.4695  188.5649 C   0  0  0  0  0  0  0  0  0  0  0  0
  153.4828  138.0931  187.9742 N   0  0  0  0  0  0  0  0  0  0  0  0
  153.5906  138.6295  186.7378 C   0  0  0  0  0  0  0  0  0  0  0  0
  154.7592  138.5792  186.0021 C   0  0  0  0  0  0  0  0  0  0  0  0
  155.8283  137.9461  186.5964 C   0  0  0  0  0  0  0  0  0  0  0  0
  155.7196  137.3906  187.8745 C   0  0  0  0  0  0  0  0  0  0  0  0
  156.5563  136.7490  188.6556 O   0  0  0  0  0  0  0  0  0  0  0  0
  156.5310  136.2290  192.2130 C   0  0  0  0  0  0  0  0  0  0  0  0
  156.6047  135.6994  190.8884 N   0  0  0  0  0  0  0  0  0  0  0  0
  157.0904  134.8008  190.7046 H   0  0  0  0  0  0  0  0  0  0  0  0
 37 38  1  0  0  0
 38 28  1  0  0  0
 28 29  2  0  0  0
 29 30  1  0  0  0
 30 31  2  0  0  0
 31 32  1  0  0  0
 32 33  2  0  0  0
 33 34  1  0  0  0
 34 35  2  0  0  0
 35 36  1  0  0  0
 33 24  1  0  0  0
 24 25  2  0  0  0
 24 26  1  0  0  0
 26 23  1  0  0  0
 23  1  1  0  0  0
  1  2  2  0  0  0
  2  3  1  0  0  0
  3  4  2  0  0  0
  4  5  1  0  0  0
  4  6  1  0  0  0
  6  7  2  0  0  0
  6  8  1  0  0  0
  8  9  2  0  0  0
  8 10  1  0  0  0
 10 11  1  0  0  0
 11 12  1  0  0  0
 12 13  1  0  0  0
 13 14  2  0  0  0
 14 15  1  0  0  0
 15 16  2  0  0  0
 16 17  1  0  0  0
 17 18  1  0  0  0
 17 19  2  0  0  0
 19 20  1  0  0  0
 36 28  1  0  0  0
  7  1  1  0  0  0
 20 10  1  0  0  0
 35 30  1  0  0  0
 19 13  1  0  0  0
 38 39  1  0  0  0
 26 27  1  0  0  0
 18 21  1  0  0  0
 18 22  1  0  0  0
M  END
> <minimizedAffinity>
-6.70760

> <CNNscore>
0.2089454234

> <CNNaffinity>
5.5721340179

> <CNN_VS>
1.1642719507

> <CNNaffinity_variance>
0.0940914676

$$$$
[H]c1nc2nc(N([H])C([H])([H])[H])oc2c([H])c1C(=O)N([H])C([H])([H])c1c([H])c([H])c(C([H])([H])[H])c(C(=O)N2Oc3c(N([H])[H])c([H])c([H])c([H])c3C([H])([H])C2([H])[H])c1[H]


 39 43  0  0  0  0  0  0  0  0999 V2000
  153.9874  139.5293  183.4937 C   0  0  0  0  0  0  0  0  0  0  0  0
  154.1769  139.2904  184.8364 C   0  0  0  0  0  0  0  0  0  0  0  0
  153.5380  138.2222  185.4655 C   0  0  0  0  0  0  0  0  0  0  0  0
  152.7089  137.3937  184.7469 C   0  0  0  0  0  0  0  0  0  0  0  0
  152.0363  136.2563  185.4377 C   0  0  0  0  0  0  0  0  0  0  0  0
  152.5360  137.6541  183.4050 C   0  0  0  0  0  0  0  0  0  0  0  0
  153.1653  138.7108  182.7738 C   0  0  0  0  0  0  0  0  0  0  0  0
  151.6693  136.7913  182.6280 C   0  0  0  0  0  0  0  0  0  0  0  0
  151.6949  135.5629  182.9161 O   0  0  0  0  0  0  0  0  0  0  0  0
  150.8218  137.2916  181.5846 N   0  0  0  0  0  0  0  0  0  0  0  0
  150.7795  138.6969  181.2388 C   0  0  0  0  0  0  0  0  0  0  0  0
  149.3642  139.1612  181.4463 C   0  0  0  0  0  0  0  0  0  0  0  0
  148.4728  138.2609  180.6536 C   0  0  0  0  0  0  0  0  0  0  0  0
  147.2632  138.7773  180.1792 C   0  0  0  0  0  0  0  0  0  0  0  0
  146.4366  137.9522  179.4505 C   0  0  0  0  0  0  0  0  0  0  0  0
  146.7721  136.6365  179.1798 C   0  0  0  0  0  0  0  0  0  0  0  0
  147.9632  136.1338  179.6488 C   0  0  0  0  0  0  0  0  0  0  0  0
  148.3633  134.7979  179.4076 N   0  0  0  0  0  0  0  0  0  0  0  0
  148.7824  136.9481  180.3696 C   0  0  0  0  0  0  0  0  0  0  0  0
  150.0052  136.4587  180.8596 O   0  0  0  0  0  0  0  0  0  0  0  0
  148.8933  134.2350  180.1026 H   0  0  0  0  0  0  0  0  0  0  0  0
  148.1202  134.3560  178.4977 H   0  0  0  0  0  0  0  0  0  0  0  0
  154.6758  140.6709  182.8035 C   0  0  0  0  0  0  0  0  0  0  0  0
  157.1090  141.2306  182.7293 C   0  0  0  0  0  0  0  0  0  0  0  0
  157.0121  141.2493  181.4722 O   0  0  0  0  0  0  0  0  0  0  0  0
  155.9321  140.9383  183.4678 N   0  0  0  0  0  0  0  0  0  0  0  0
  155.9956  140.9214  184.5074 H   0  0  0  0  0  0  0  0  0  0  0  0
  161.5208  142.7167  186.4197 C   0  0  0  0  0  0  0  0  0  0  0  0
  161.9807  142.2899  185.2251 N   0  0  0  0  0  0  0  0  0  0  0  0
  160.9365  141.9723  184.4401 C   0  0  0  0  0  0  0  0  0  0  0  0
  160.7880  141.5041  183.1790 N   0  0  0  0  0  0  0  0  0  0  0  0
  159.5635  141.2766  182.6527 C   0  0  0  0  0  0  0  0  0  0  0  0
  158.3957  141.5030  183.3557 C   0  0  0  0  0  0  0  0  0  0  0  0
  158.5385  141.9797  184.6400 C   0  0  0  0  0  0  0  0  0  0  0  0
  159.8031  142.2158  185.1866 C   0  0  0  0  0  0  0  0  0  0  0  0
  160.2169  142.6558  186.3514 O   0  0  0  0  0  0  0  0  0  0  0  0
  163.4651  142.3758  187.9284 C   0  0  0  0  0  0  0  0  0  0  0  0
  162.3314  143.1457  187.5254 N   0  0  0  0  0  0  0  0  0  0  0  0
  162.0812  144.0200  188.0256 H   0  0  0  0  0  0  0  0  0  0  0  0
 37 38  1  0  0  0
 38 28  1  0  0  0
 28 29  2  0  0  0
 29 30  1  0  0  0
 30 31  2  0  0  0
 31 32  1  0  0  0
 32 33  2  0  0  0
 33 34  1  0  0  0
 34 35  2  0  0  0
 35 36  1  0  0  0
 33 24  1  0  0  0
 24 25  2  0  0  0
 24 26  1  0  0  0
 26 23  1  0  0  0
 23  1  1  0  0  0
  1  2  2  0  0  0
  2  3  1  0  0  0
  3  4  2  0  0  0
  4  5  1  0  0  0
  4  6  1  0  0  0
  6  7  2  0  0  0
  6  8  1  0  0  0
  8  9  2  0  0  0
  8 10  1  0  0  0
 10 11  1  0  0  0
 11 12  1  0  0  0
 12 13  1  0  0  0
 13 14  2  0  0  0
 14 15  1  0  0  0
 15 16  2  0  0  0
 16 17  1  0  0  0
 17 18  1  0  0  0
 17 19  2  0  0  0
 19 20  1  0  0  0
 36 28  1  0  0  0
  7  1  1  0  0  0
 20 10  1  0  0  0
 35 30  1  0  0  0
 19 13  1  0  0  0
 38 39  1  0  0  0
 26 27  1  0  0  0
 18 21  1  0  0  0
 18 22  1  0  0  0
M  END
> <minimizedAffinity>
-9.15063

> <CNNscore>
0.2075917721

> <CNNaffinity>
6.1398420334

> <CNN_VS>
1.2745807171

> <CNNaffinity_variance>
0.0711492598

$$$$
[H]c1nc2nc(N([H])C([H])([H])[H])oc2c([H])c1C(=O)N([H])C([H])([H])c1c([H])c([H])c(C([H])([H])[H])c(C(=O)N2Oc3c(N([H])[H])c([H])c([H])c([H])c3C([H])([H])C2([H])[H])c1[H]


 39 43  0  0  0  0  0  0  0  0999 V2000
  152.4985  139.7825  181.5272 C   0  0  0  0  0  0  0  0  0  0  0  0
  152.3543  140.1188  180.1998 C   0  0  0  0  0  0  0  0  0  0  0  0
  151.2237  139.7240  179.4852 C   0  0  0  0  0  0  0  0  0  0  0  0
  150.2377  138.9915  180.1028 C   0  0  0  0  0  0  0  0  0  0  0  0
  149.0360  138.5804  179.3217 C   0  0  0  0  0  0  0  0  0  0  0  0
  150.4058  138.6680  181.4315 C   0  0  0  0  0  0  0  0  0  0  0  0
  151.5234  139.0552  182.1471 C   0  0  0  0  0  0  0  0  0  0  0  0
  149.3771  137.8996  182.1030 C   0  0  0  0  0  0  0  0  0  0  0  0
  148.4527  138.5592  182.6535 O   0  0  0  0  0  0  0  0  0  0  0  0
  149.3945  136.4661  182.1479 N   0  0  0  0  0  0  0  0  0  0  0  0
  150.4469  135.6922  181.5235 C   0  0  0  0  0  0  0  0  0  0  0  0
  149.7951  134.8045  180.4993 C   0  0  0  0  0  0  0  0  0  0  0  0
  148.7265  134.0235  181.1934 C   0  0  0  0  0  0  0  0  0  0  0  0
  148.3938  132.7629  180.6882 C   0  0  0  0  0  0  0  0  0  0  0  0
  147.4086  132.0397  181.3215 C   0  0  0  0  0  0  0  0  0  0  0  0
  146.7464  132.5270  182.4355 C   0  0  0  0  0  0  0  0  0  0  0  0
  147.0777  133.7675  182.9282 C   0  0  0  0  0  0  0  0  0  0  0  0
  146.4378  134.3224  184.0620 N   0  0  0  0  0  0  0  0  0  0  0  0
  148.0521  134.4845  182.3035 C   0  0  0  0  0  0  0  0  0  0  0  0
  148.4095  135.7544  182.7877 O   0  0  0  0  0  0  0  0  0  0  0  0
  146.2386  135.3385  184.1547 H   0  0  0  0  0  0  0  0  0  0  0  0
  146.1533  133.6915  184.8387 H   0  0  0  0  0  0  0  0  0  0  0  0
  153.7070  140.2086  182.3092 C   0  0  0  0  0  0  0  0  0  0  0  0
  154.8085  139.2729  184.3465 C   0  0  0  0  0  0  0  0  0  0  0  0
  155.9141  139.4588  183.7693 O   0  0  0  0  0  0  0  0  0  0  0  0
  153.6349  139.6436  183.6384 N   0  0  0  0  0  0  0  0  0  0  0  0
  152.7141  139.4982  184.1029 H   0  0  0  0  0  0  0  0  0  0  0  0
  153.2666  137.1202  189.6644 C   0  0  0  0  0  0  0  0  0  0  0  0
  154.5999  137.0682  189.4632 N   0  0  0  0  0  0  0  0  0  0  0  0
  154.8807  137.5693  188.2477 C   0  0  0  0  0  0  0  0  0  0  0  0
  156.0080  137.7664  187.5251 N   0  0  0  0  0  0  0  0  0  0  0  0
  155.9645  138.3108  186.2882 C   0  0  0  0  0  0  0  0  0  0  0  0
  154.7834  138.6980  185.6847 C   0  0  0  0  0  0  0  0  0  0  0  0
  153.6317  138.5007  186.4139 C   0  0  0  0  0  0  0  0  0  0  0  0
  153.6737  137.9382  187.6928 C   0  0  0  0  0  0  0  0  0  0  0  0
  152.7547  137.6462  188.5827 O   0  0  0  0  0  0  0  0  0  0  0  0
  151.3107  136.0281  190.7390 C   0  0  0  0  0  0  0  0  0  0  0  0
  152.5790  136.6766  190.8451 N   0  0  0  0  0  0  0  0  0  0  0  0
  153.0160  136.8346  191.7732 H   0  0  0  0  0  0  0  0  0  0  0  0
 37 38  1  0  0  0
 38 28  1  0  0  0
 28 29  2  0  0  0
 29 30  1  0  0  0
 30 31  2  0  0  0
 31 32  1  0  0  0
 32 33  2  0  0  0
 33 34  1  0  0  0
 34 35  2  0  0  0
 35 36  1  0  0  0
 33 24  1  0  0  0
 24 25  2  0  0  0
 24 26  1  0  0  0
 26 23  1  0  0  0
 23  1  1  0  0  0
  1  2  2  0  0  0
  2  3  1  0  0  0
  3  4  2  0  0  0
  4  5  1  0  0  0
  4  6  1  0  0  0
  6  7  2  0  0  0
  6  8  1  0  0  0
  8  9  2  0  0  0
  8 10  1  0  0  0
 10 11  1  0  0  0
 11 12  1  0  0  0
 12 13  1  0  0  0
 13 14  2  0  0  0
 14 15  1  0  0  0
 15 16  2  0  0  0
 16 17  1  0  0  0
 17 18  1  0  0  0
 17 19  2  0  0  0
 19 20  1  0  0  0
 36 28  1  0  0  0
  7  1  1  0  0  0
 20 10  1  0  0  0
 35 30  1  0  0  0
 19 13  1  0  0  0
 38 39  1  0  0  0
 26 27  1  0  0  0
 18 21  1  0  0  0
 18 22  1  0  0  0
M  END
> <minimizedAffinity>
-6.77986

> <CNNscore>
0.2029310912

> <CNNaffinity>
5.6896958351

> <CNN_VS>
1.1546162367

> <CNNaffinity_variance>
0.0702648610

$$$$
[H]c1nc2nc(N([H])C([H])([H])[H])oc2c([H])c1C(=O)N([H])C([H])([H])c1c([H])c([H])c(C([H])([H])[H])c(C(=O)N2Oc3c(N([H])[H])c([H])c([H])c([H])c3C([H])([H])C2([H])[H])c1[H]


 39 43  0  0  0  0  0  0  0  0999 V2000
  155.3956  137.6231  188.6082 C   0  0  0  0  0  0  0  0  0  0  0  0
  155.2070  138.6295  189.5288 C   0  0  0  0  0  0  0  0  0  0  0  0
  154.4833  138.3969  190.6981 C   0  0  0  0  0  0  0  0  0  0  0  0
  153.9489  137.1541  190.9433 C   0  0  0  0  0  0  0  0  0  0  0  0
  153.1796  136.9255  192.2000 C   0  0  0  0  0  0  0  0  0  0  0  0
  154.1517  136.1644  190.0066 C   0  0  0  0  0  0  0  0  0  0  0  0
  154.8677  136.3865  188.8451 C   0  0  0  0  0  0  0  0  0  0  0  0
  153.6002  134.8462  190.2468 C   0  0  0  0  0  0  0  0  0  0  0  0
  154.3711  134.0043  190.7849 O   0  0  0  0  0  0  0  0  0  0  0  0
  152.2524  134.5017  189.8976 N   0  0  0  0  0  0  0  0  0  0  0  0
  151.3536  135.4532  189.2786 C   0  0  0  0  0  0  0  0  0  0  0  0
  150.1738  135.6099  190.1978 C   0  0  0  0  0  0  0  0  0  0  0  0
  149.6161  134.2471  190.4531 C   0  0  0  0  0  0  0  0  0  0  0  0
  148.2519  134.1326  190.7378 C   0  0  0  0  0  0  0  0  0  0  0  0
  147.7327  132.8803  190.9763 C   0  0  0  0  0  0  0  0  0  0  0  0
  148.5221  131.7434  190.9413 C   0  0  0  0  0  0  0  0  0  0  0  0
  149.8632  131.8618  190.6607 C   0  0  0  0  0  0  0  0  0  0  0  0
  150.7238  130.7392  190.6113 N   0  0  0  0  0  0  0  0  0  0  0  0
  150.3790  133.0995  190.4242 C   0  0  0  0  0  0  0  0  0  0  0  0
  151.7462  133.2472  190.1346 O   0  0  0  0  0  0  0  0  0  0  0  0
  151.7123  130.7735  190.9309 H   0  0  0  0  0  0  0  0  0  0  0  0
  150.3568  129.8396  190.2394 H   0  0  0  0  0  0  0  0  0  0  0  0
  156.1797  137.8589  187.3500 C   0  0  0  0  0  0  0  0  0  0  0  0
  155.6826  138.9862  185.1771 C   0  0  0  0  0  0  0  0  0  0  0  0
  156.8784  139.3863  185.1719 O   0  0  0  0  0  0  0  0  0  0  0  0
  155.2676  138.1919  186.2785 N   0  0  0  0  0  0  0  0  0  0  0  0
  154.2832  137.8519  186.2960 H   0  0  0  0  0  0  0  0  0  0  0  0
  151.2597  139.3795  181.2306 C   0  0  0  0  0  0  0  0  0  0  0  0
  152.2191  140.3027  181.0112 N   0  0  0  0  0  0  0  0  0  0  0  0
  153.1865  140.1590  181.9335 C   0  0  0  0  0  0  0  0  0  0  0  0
  154.3580  140.7803  182.2042 N   0  0  0  0  0  0  0  0  0  0  0  0
  155.1379  140.3918  183.2380 C   0  0  0  0  0  0  0  0  0  0  0  0
  154.7980  139.3486  184.0779 C   0  0  0  0  0  0  0  0  0  0  0  0
  153.6071  138.7110  183.8089 C   0  0  0  0  0  0  0  0  0  0  0  0
  152.7989  139.1106  182.7408 C   0  0  0  0  0  0  0  0  0  0  0  0
  151.6476  138.6908  182.2717 O   0  0  0  0  0  0  0  0  0  0  0  0
  148.7807  139.3727  181.0654 C   0  0  0  0  0  0  0  0  0  0  0  0
  150.0622  139.2141  180.4546 N   0  0  0  0  0  0  0  0  0  0  0  0
  150.1420  138.9778  179.4471 H   0  0  0  0  0  0  0  0  0  0  0  0
 37 38  1  0  0  0
 38 28  1  0  0  0
 28 29  2  0  0  0
 29 30  1  0  0  0
 30 31  2  0  0  0
 31 32  1  0  0  0
 32 33  2  0  0  0
 33 34  1  0  0  0
 34 35  2  0  0  0
 35 36  1  0  0  0
 33 24  1  0  0  0
 24 25  2  0  0  0
 24 26  1  0  0  0
 26 23  1  0  0  0
 23  1  1  0  0  0
  1  2  2  0  0  0
  2  3  1  0  0  0
  3  4  2  0  0  0
  4  5  1  0  0  0
  4  6  1  0  0  0
  6  7  2  0  0  0
  6  8  1  0  0  0
  8  9  2  0  0  0
  8 10  1  0  0  0
 10 11  1  0  0  0
 11 12  1  0  0  0
 12 13  1  0  0  0
 13 14  2  0  0  0
 14 15  1  0  0  0
 15 16  2  0  0  0
 16 17  1  0  0  0
 17 18  1  0  0  0
 17 19  2  0  0  0
 19 20  1  0  0  0
 36 28  1  0  0  0
  7  1  1  0  0  0
 20 10  1  0  0  0
 35 30  1  0  0  0
 19 13  1  0  0  0
 38 39  1  0  0  0
 26 27  1  0  0  0
 18 21  1  0  0  0
 18 22  1  0  0  0
M  END
> <minimizedAffinity>
-6.93221

> <CNNscore>
0.1982317567

> <CNNaffinity>
5.5610594749

> <CNN_VS>
1.1023786068

> <CNNaffinity_variance>
0.0437830612

$$$$
[H]c1nc2nc(N([H])C([H])([H])[H])oc2c([H])c1C(=O)N([H])C([H])([H])c1c([H])c([H])c(C([H])([H])[H])c(C(=O)N2Oc3c(N([H])[H])c([H])c([H])c([H])c3C([H])([H])C2([H])[H])c1[H]


 39 43  0  0  0  0  0  0  0  0999 V2000
  155.1875  137.2488  187.5059 C   0  0  0  0  0  0  0  0  0  0  0  0
  156.0084  138.2075  188.0560 C   0  0  0  0  0  0  0  0  0  0  0  0
  156.4500  138.0941  189.3741 C   0  0  0  0  0  0  0  0  0  0  0  0
  156.0675  137.0182  190.1399 C   0  0  0  0  0  0  0  0  0  0  0  0
  156.5516  136.9146  191.5464 C   0  0  0  0  0  0  0  0  0  0  0  0
  155.2459  136.0728  189.5661 C   0  0  0  0  0  0  0  0  0  0  0  0
  154.8036  136.1777  188.2605 C   0  0  0  0  0  0  0  0  0  0  0  0
  154.8336  134.9290  190.3542 C   0  0  0  0  0  0  0  0  0  0  0  0
  155.5381  133.8877  190.2442 O   0  0  0  0  0  0  0  0  0  0  0  0
  153.6890  134.9630  191.2179 N   0  0  0  0  0  0  0  0  0  0  0  0
  152.8680  136.1475  191.3564 C   0  0  0  0  0  0  0  0  0  0  0  0
  152.9113  136.5488  192.8051 C   0  0  0  0  0  0  0  0  0  0  0  0
  152.4979  135.3626  193.6148 C   0  0  0  0  0  0  0  0  0  0  0  0
  151.8831  135.5863  194.8505 C   0  0  0  0  0  0  0  0  0  0  0  0
  151.5023  134.4978  195.6021 C   0  0  0  0  0  0  0  0  0  0  0  0
  151.7122  133.2002  195.1672 C   0  0  0  0  0  0  0  0  0  0  0  0
  152.3173  132.9861  193.9509 C   0  0  0  0  0  0  0  0  0  0  0  0
  152.5614  131.6849  193.4504 N   0  0  0  0  0  0  0  0  0  0  0  0
  152.6947  134.0612  193.2056 C   0  0  0  0  0  0  0  0  0  0  0  0
  153.3143  133.8691  191.9590 O   0  0  0  0  0  0  0  0  0  0  0  0
  153.4055  131.4455  192.8929 H   0  0  0  0  0  0  0  0  0  0  0  0
  151.8696  130.9327  193.6451 H   0  0  0  0  0  0  0  0  0  0  0  0
  154.7123  137.3555  186.0859 C   0  0  0  0  0  0  0  0  0  0  0  0
  154.6071  139.2011  184.4061 C   0  0  0  0  0  0  0  0  0  0  0  0
  153.5395  138.6818  183.9809 O   0  0  0  0  0  0  0  0  0  0  0  0
  155.2549  138.5579  185.4935 N   0  0  0  0  0  0  0  0  0  0  0  0
  156.1367  138.9762  185.8574 H   0  0  0  0  0  0  0  0  0  0  0  0
  157.9514  143.6981  182.4351 C   0  0  0  0  0  0  0  0  0  0  0  0
  156.6699  143.8012  182.0252 N   0  0  0  0  0  0  0  0  0  0  0  0
  155.9699  142.7582  182.5043 C   0  0  0  0  0  0  0  0  0  0  0  0
  154.6839  142.3439  182.4240 N   0  0  0  0  0  0  0  0  0  0  0  0
  154.2700  141.2120  183.0367 C   0  0  0  0  0  0  0  0  0  0  0  0
  155.1187  140.4112  183.7767 C   0  0  0  0  0  0  0  0  0  0  0  0
  156.4291  140.8262  183.8634 C   0  0  0  0  0  0  0  0  0  0  0  0
  156.8598  141.9959  183.2310 C   0  0  0  0  0  0  0  0  0  0  0  0
  158.0184  142.6067  183.1514 O   0  0  0  0  0  0  0  0  0  0  0  0
  159.8012  145.1832  183.1737 C   0  0  0  0  0  0  0  0  0  0  0  0
  159.0070  144.6223  182.1271 N   0  0  0  0  0  0  0  0  0  0  0  0
  159.1828  144.8760  181.1362 H   0  0  0  0  0  0  0  0  0  0  0  0
 37 38  1  0  0  0
 38 28  1  0  0  0
 28 29  2  0  0  0
 29 30  1  0  0  0
 30 31  2  0  0  0
 31 32  1  0  0  0
 32 33  2  0  0  0
 33 34  1  0  0  0
 34 35  2  0  0  0
 35 36  1  0  0  0
 33 24  1  0  0  0
 24 25  2  0  0  0
 24 26  1  0  0  0
 26 23  1  0  0  0
 23  1  1  0  0  0
  1  2  2  0  0  0
  2  3  1  0  0  0
  3  4  2  0  0  0
  4  5  1  0  0  0
  4  6  1  0  0  0
  6  7  2  0  0  0
  6  8  1  0  0  0
  8  9  2  0  0  0
  8 10  1  0  0  0
 10 11  1  0  0  0
 11 12  1  0  0  0
 12 13  1  0  0  0
 13 14  2  0  0  0
 14 15  1  0  0  0
 15 16  2  0  0  0
 16 17  1  0  0  0
 17 18  1  0  0  0
 17 19  2  0  0  0
 19 20  1  0  0  0
 36 28  1  0  0  0
  7  1  1  0  0  0
 20 10  1  0  0  0
 35 30  1  0  0  0
 19 13  1  0  0  0
 38 39  1  0  0  0
 26 27  1  0  0  0
 18 21  1  0  0  0
 18 22  1  0  0  0
M  END
> <minimizedAffinity>
-8.74258

> <CNNscore>
0.1936797798

> <CNNaffinity>
5.7500524521

> <CNN_VS>
1.1136689186

> <CNNaffinity_variance>
0.0414486267

$$$$
[H]c1nc2nc(N([H])C([H])([H])[H])oc2c([H])c1C(=O)N([H])C([H])([H])c1c([H])c([H])c(C([H])([H])[H])c(C(=O)N2Oc3c(N([H])[H])c([H])c([H])c([H])c3C([H])([H])C2([H])[H])c1[H]


 39 43  0  0  0  0  0  0  0  0999 V2000
  153.2266  138.8533  183.1075 C   0  0  0  0  0  0  0  0  0  0  0  0
  152.0236  138.3697  182.6441 C   0  0  0  0  0  0  0  0  0  0  0  0
  151.4776  137.1994  183.1706 C   0  0  0  0  0  0  0  0  0  0  0  0
  152.1391  136.5144  184.1624 C   0  0  0  0  0  0  0  0  0  0  0  0
  151.5378  135.2660  184.7131 C   0  0  0  0  0  0  0  0  0  0  0  0
  153.3409  137.0191  184.6087 C   0  0  0  0  0  0  0  0  0  0  0  0
  153.8891  138.1783  184.0922 C   0  0  0  0  0  0  0  0  0  0  0  0
  154.0530  136.3150  185.6558 C   0  0  0  0  0  0  0  0  0  0  0  0
  154.8243  135.3875  185.2848 O   0  0  0  0  0  0  0  0  0  0  0  0
  153.9003  136.6429  187.0438 N   0  0  0  0  0  0  0  0  0  0  0  0
  153.0195  137.7023  187.4888 C   0  0  0  0  0  0  0  0  0  0  0  0
  153.8683  138.7050  188.2209 C   0  0  0  0  0  0  0  0  0  0  0  0
  154.6105  137.9724  189.2913 C   0  0  0  0  0  0  0  0  0  0  0  0
  154.9694  138.6735  190.4466 C   0  0  0  0  0  0  0  0  0  0  0  0
  155.6555  138.0049  191.4351 C   0  0  0  0  0  0  0  0  0  0  0  0
  155.9949  136.6682  191.3127 C   0  0  0  0  0  0  0  0  0  0  0  0
  155.6393  135.9835  190.1743 C   0  0  0  0  0  0  0  0  0  0  0  0
  155.9575  134.6171  189.9876 N   0  0  0  0  0  0  0  0  0  0  0  0
  154.9605  136.6427  189.1953 C   0  0  0  0  0  0  0  0  0  0  0  0
  154.5852  135.9654  188.0226 O   0  0  0  0  0  0  0  0  0  0  0  0
  156.2062  134.2189  189.0601 H   0  0  0  0  0  0  0  0  0  0  0  0
  155.9425  133.9798  190.8098 H   0  0  0  0  0  0  0  0  0  0  0  0
  153.8205  140.1162  182.5546 C   0  0  0  0  0  0  0  0  0  0  0  0
  156.1559  141.0015  182.5150 C   0  0  0  0  0  0  0  0  0  0  0  0
  155.9519  141.3369  181.3166 O   0  0  0  0  0  0  0  0  0  0  0  0
  155.0880  140.3679  183.2036 N   0  0  0  0  0  0  0  0  0  0  0  0
  155.2404  140.0869  184.1949 H   0  0  0  0  0  0  0  0  0  0  0  0
  160.6150  142.3854  186.1882 C   0  0  0  0  0  0  0  0  0  0  0  0
  161.0568  142.0460  184.9592 N   0  0  0  0  0  0  0  0  0  0  0  0
  160.0026  141.7471  184.1803 C   0  0  0  0  0  0  0  0  0  0  0  0
  159.8360  141.3529  182.8962 N   0  0  0  0  0  0  0  0  0  0  0  0
  158.6055  141.1229  182.3851 C   0  0  0  0  0  0  0  0  0  0  0  0
  157.4496  141.2720  183.1274 C   0  0  0  0  0  0  0  0  0  0  0  0
  157.6110  141.6731  184.4351 C   0  0  0  0  0  0  0  0  0  0  0  0
  158.8818  141.9116  184.9661 C   0  0  0  0  0  0  0  0  0  0  0  0
  159.3120  142.2912  186.1462 O   0  0  0  0  0  0  0  0  0  0  0  0
  162.8638  142.7080  187.1940 C   0  0  0  0  0  0  0  0  0  0  0  0
  161.4406  142.7690  187.2994 N   0  0  0  0  0  0  0  0  0  0  0  0
  160.9887  143.0893  188.1772 H   0  0  0  0  0  0  0  0  0  0  0  0
 37 38  1  0  0  0
 38 28  1  0  0  0
 28 29  2  0  0  0
 29 30  1  0  0  0
 30 31  2  0  0  0
 31 32  1  0  0  0
 32 33  2  0  0  0
 33 34  1  0  0  0
 34 35  2  0  0  0
 35 36  1  0  0  0
 33 24  1  0  0  0
 24 25  2  0  0  0
 24 26  1  0  0  0
 26 23  1  0  0  0
 23  1  1  0  0  0
  1  2  2  0  0  0
  2  3  1  0  0  0
  3  4  2  0  0  0
  4  5  1  0  0  0
  4  6  1  0  0  0
  6  7  2  0  0  0
  6  8  1  0  0  0
  8  9  2  0  0  0
  8 10  1  0  0  0
 10 11  1  0  0  0
 11 12  1  0  0  0
 12 13  1  0  0  0
 13 14  2  0  0  0
 14 15  1  0  0  0
 15 16  2  0  0  0
 16 17  1  0  0  0
 17 18  1  0  0  0
 17 19  2  0  0  0
 19 20  1  0  0  0
 36 28  1  0  0  0
  7  1  1  0  0  0
 20 10  1  0  0  0
 35 30  1  0  0  0
 19 13  1  0  0  0
 38 39  1  0  0  0
 26 27  1  0  0  0
 18 21  1  0  0  0
 18 22  1  0  0  0
M  END
> <minimizedAffinity>
-9.73766

> <CNNscore>
0.1717559546

> <CNNaffinity>
6.4446015358

> <CNN_VS>
1.1068986654

> <CNNaffinity_variance>
0.0696287379

$$$$
[H]c1nc2nc(N([H])C([H])([H])[H])oc2c([H])c1C(=O)N([H])C([H])([H])c1c([H])c([H])c(C([H])([H])[H])c(C(=O)N2Oc3c(N([H])[H])c([H])c([H])c([H])c3C([H])([H])C2([H])[H])c1[H]


 39 43  0  0  0  0  0  0  0  0999 V2000
  154.4650  140.5747  183.0164 C   0  0  0  0  0  0  0  0  0  0  0  0
  153.7556  141.7386  182.8215 C   0  0  0  0  0  0  0  0  0  0  0  0
  154.4164  142.9382  182.5581 C   0  0  0  0  0  0  0  0  0  0  0  0
  155.7893  142.9695  182.4902 C   0  0  0  0  0  0  0  0  0  0  0  0
  156.4767  144.2618  182.2060 C   0  0  0  0  0  0  0  0  0  0  0  0
  156.4756  141.7915  182.6888 C   0  0  0  0  0  0  0  0  0  0  0  0
  155.8285  140.5983  182.9506 C   0  0  0  0  0  0  0  0  0  0  0  0
  157.9228  141.8012  182.6182 C   0  0  0  0  0  0  0  0  0  0  0  0
  158.4283  142.0232  181.4833 O   0  0  0  0  0  0  0  0  0  0  0  0
  158.7500  141.5729  183.7674 N   0  0  0  0  0  0  0  0  0  0  0  0
  158.1888  141.3155  185.0770 C   0  0  0  0  0  0  0  0  0  0  0  0
  158.6857  142.4004  185.9923 C   0  0  0  0  0  0  0  0  0  0  0  0
  160.1776  142.4154  185.9065 C   0  0  0  0  0  0  0  0  0  0  0  0
  160.9005  142.8526  187.0207 C   0  0  0  0  0  0  0  0  0  0  0  0
  162.2749  142.8712  186.9470 C   0  0  0  0  0  0  0  0  0  0  0  0
  162.9508  142.4712  185.8067 C   0  0  0  0  0  0  0  0  0  0  0  0
  162.2348  142.0420  184.7139 C   0  0  0  0  0  0  0  0  0  0  0  0
  162.8655  141.6215  183.5187 N   0  0  0  0  0  0  0  0  0  0  0  0
  160.8752  142.0226  184.7845 C   0  0  0  0  0  0  0  0  0  0  0  0
  160.1206  141.5877  183.6816 O   0  0  0  0  0  0  0  0  0  0  0  0
  162.4634  141.8009  182.5770 H   0  0  0  0  0  0  0  0  0  0  0  0
  163.7695  141.1103  183.5795 H   0  0  0  0  0  0  0  0  0  0  0  0
  153.7648  139.2758  183.2925 C   0  0  0  0  0  0  0  0  0  0  0  0
  151.8633  137.9803  182.3205 C   0  0  0  0  0  0  0  0  0  0  0  0
  152.3258  136.9638  182.9062 O   0  0  0  0  0  0  0  0  0  0  0  0
  152.5664  139.2026  182.4866 N   0  0  0  0  0  0  0  0  0  0  0  0
  152.1954  140.0516  182.0108 H   0  0  0  0  0  0  0  0  0  0  0  0
  147.3618  136.0958  178.9327 C   0  0  0  0  0  0  0  0  0  0  0  0
  147.2523  137.4053  179.2395 N   0  0  0  0  0  0  0  0  0  0  0  0
  148.2981  137.7668  180.0029 C   0  0  0  0  0  0  0  0  0  0  0  0
  148.7089  138.9143  180.5915 N   0  0  0  0  0  0  0  0  0  0  0  0
  149.8454  138.9623  181.3222 C   0  0  0  0  0  0  0  0  0  0  0  0
  150.6547  137.8593  181.5162 C   0  0  0  0  0  0  0  0  0  0  0  0
  150.2435  136.6876  180.9202 C   0  0  0  0  0  0  0  0  0  0  0  0
  149.0690  136.6351  180.1642 C   0  0  0  0  0  0  0  0  0  0  0  0
  148.4600  135.6777  179.5052 O   0  0  0  0  0  0  0  0  0  0  0  0
  146.8931  134.6328  176.9801 C   0  0  0  0  0  0  0  0  0  0  0  0
  146.4367  135.3419  178.1331 N   0  0  0  0  0  0  0  0  0  0  0  0
  145.4351  135.3210  178.4045 H   0  0  0  0  0  0  0  0  0  0  0  0
 37 38  1  0  0  0
 38 28  1  0  0  0
 28 29  2  0  0  0
 29 30  1  0  0  0
 30 31  2  0  0  0
 31 32  1  0  0  0
 32 33  2  0  0  0
 33 34  1  0  0  0
 34 35  2  0  0  0
 35 36  1  0  0  0
 33 24  1  0  0  0
 24 25  2  0  0  0
 24 26  1  0  0  0
 26 23  1  0  0  0
 23  1  1  0  0  0
  1  2  2  0  0  0
  2  3  1  0  0  0
  3  4  2  0  0  0
  4  5  1  0  0  0
  4  6  1  0  0  0
  6  7  2  0  0  0
  6  8  1  0  0  0
  8  9  2  0  0  0
  8 10  1  0  0  0
 10 11  1  0  0  0
 11 12  1  0  0  0
 12 13  1  0  0  0
 13 14  2  0  0  0
 14 15  1  0  0  0
 15 16  2  0  0  0
 16 17  1  0  0  0
 17 18  1  0  0  0
 17 19  2  0  0  0
 19 20  1  0  0  0
 36 28  1  0  0  0
  7  1  1  0  0  0
 20 10  1  0  0  0
 35 30  1  0  0  0
 19 13  1  0  0  0
 38 39  1  0  0  0
 26 27  1  0  0  0
 18 21  1  0  0  0
 18 22  1  0  0  0
M  END
> <minimizedAffinity>
-9.72985

> <CNNscore>
0.1690425277

> <CNNaffinity>
6.0047898293

> <CNN_VS>
1.0150648355

> <CNNaffinity_variance>
0.0483100452

$$$$
[H]O[C@@]([H])(C(=O)N([H])c1nc(-c2c([H])c([H])c(C(=O)N=C(C([H])([H])[H])C([H])([H])[H])c([H])c2[H])nc(N2C([H])([H])C([H])([H])[C@]3([H])C(=O)OC([H])([H])[C@]23[H])c1[H])C([H])([H])[H]


 35 38  0  0  0  0  0  0  0  0999 V2000
  153.4214  137.5854  184.8347 C   0  0  0  0  0  0  0  0  0  0  0  0
  152.3311  137.5431  183.9076 C   0  0  0  0  0  0  0  0  0  0  0  0
  152.4053  138.4628  182.8916 C   0  0  0  0  0  0  0  0  0  0  0  0
  153.4220  139.2697  182.8448 N   0  0  0  0  0  0  0  0  0  0  0  0
  154.4795  139.3246  183.7254 C   0  0  0  0  0  0  0  0  0  0  0  0
  154.4075  138.4099  184.7340 N   0  0  0  0  0  0  0  0  0  0  0  0
  151.3625  138.4692  181.8952 N   0  0  0  0  0  0  0  0  0  0  0  0
  150.5642  137.3291  181.5555 C   0  0  0  0  0  0  0  0  0  0  0  0
  149.1822  137.9784  181.4618 C   0  0  0  0  0  0  0  0  0  0  0  0
  149.5362  139.2658  180.7076 C   0  0  0  0  0  0  0  0  0  0  0  0
  150.9433  139.5871  181.1156 C   0  0  0  0  0  0  0  0  0  0  0  0
  151.7390  139.8628  179.8830 C   0  0  0  0  0  0  0  0  0  0  0  0
  150.8417  139.7050  178.8208 O   0  0  0  0  0  0  0  0  0  0  0  0
  149.7055  139.0225  179.2540 C   0  0  0  0  0  0  0  0  0  0  0  0
  148.9601  138.3203  178.5433 O   0  0  0  0  0  0  0  0  0  0  0  0
  155.4914  140.3059  183.5253 C   0  0  0  0  0  0  0  0  0  0  0  0
  156.8113  139.8274  183.3729 C   0  0  0  0  0  0  0  0  0  0  0  0
  157.9007  140.6419  183.1488 C   0  0  0  0  0  0  0  0  0  0  0  0
  157.6682  141.9730  183.0753 C   0  0  0  0  0  0  0  0  0  0  0  0
  156.4487  142.5448  183.2116 C   0  0  0  0  0  0  0  0  0  0  0  0
  155.3836  141.6682  183.4342 C   0  0  0  0  0  0  0  0  0  0  0  0
  158.8589  142.8728  182.7887 C   0  0  0  0  0  0  0  0  0  0  0  0
  159.5307  143.2805  183.7712 O   0  0  0  0  0  0  0  0  0  0  0  0
  159.1330  143.1831  181.4957 N   0  0  0  0  0  0  0  0  0  0  0  0
  159.0526  143.0600  180.3085 C   0  0  0  0  0  0  0  0  0  0  0  0
  159.8652  144.0156  179.4218 C   0  0  0  0  0  0  0  0  0  0  0  0
  158.2213  142.0685  179.5986 C   0  0  0  0  0  0  0  0  0  0  0  0
  153.3624  137.1342  187.2557 C   0  0  0  0  0  0  0  0  0  0  0  0
  152.6822  136.7075  188.2465 O   0  0  0  0  0  0  0  0  0  0  0  0
  153.1012  136.6656  185.9462 N   0  0  0  0  0  0  0  0  0  0  0  0
  152.4564  135.9785  185.6598 H   0  0  0  0  0  0  0  0  0  0  0  0
  154.2441  138.4966  189.0608 C   0  0  0  0  0  0  0  0  0  0  0  0
  154.4314  138.1178  187.5786 C   0  0  0  0  0  0  0  0  0  0  0  0
  155.7010  137.5842  187.4024 O   0  0  0  0  0  0  0  0  0  0  0  0
  156.2737  137.8685  188.1644 H   0  0  0  0  0  0  0  0  0  0  0  0
 32 33  1  0  0  0
 33 34  1  0  0  0
 33 28  1  0  0  0
 28 29  2  0  0  0
 28 30  1  0  0  0
 30  1  1  0  0  0
  1  2  2  0  0  0
  2  3  1  0  0  0
  3  4  2  0  0  0
  4  5  1  0  0  0
  5  6  2  0  0  0
  5 16  1  0  0  0
 16 17  2  0  0  0
 17 18  1  0  0  0
 18 19  2  0  0  0
 19 20  1  0  0  0
 20 21  2  0  0  0
 19 22  1  0  0  0
 22 23  2  0  0  0
 22 24  1  0  0  0
 24 25  2  0  0  0
 25 26  1  0  0  0
 25 27  1  0  0  0
  3  7  1  0  0  0
  7  8  1  0  0  0
  8  9  1  0  0  0
  9 10  1  0  0  0
 10 11  1  0  0  0
 11 12  1  0  0  0
 12 13  1  0  0  0
 13 14  1  0  0  0
 14 15  2  0  0  0
  6  1  1  0  0  0
 21 16  1  0  0  0
 11  7  1  0  0  0
 14 10  1  0  0  0
 34 35  1  0  0  0
 30 31  1  0  0  0
M  END
> <minimizedAffinity>
-8.51404

> <CNNscore>
0.4414893985

> <CNNaffinity>
6.2259402275

> <CNN_VS>
2.7486865520

> <CNNaffinity_variance>
0.0876178369

$$$$
[H]O[C@@]([H])(C(=O)N([H])c1nc(-c2c([H])c([H])c(C(=O)N=C(C([H])([H])[H])C([H])([H])[H])c([H])c2[H])nc(N2C([H])([H])C([H])([H])[C@]3([H])C(=O)OC([H])([H])[C@]23[H])c1[H])C([H])([H])[H]


 35 38  0  0  0  0  0  0  0  0999 V2000
  153.2424  137.0050  185.1544 C   0  0  0  0  0  0  0  0  0  0  0  0
  153.7997  136.6331  186.4197 C   0  0  0  0  0  0  0  0  0  0  0  0
  154.8284  137.4326  186.8513 C   0  0  0  0  0  0  0  0  0  0  0  0
  155.2033  138.4319  186.1112 N   0  0  0  0  0  0  0  0  0  0  0  0
  154.6794  138.8056  184.8936 C   0  0  0  0  0  0  0  0  0  0  0  0
  153.6561  138.0130  184.4650 N   0  0  0  0  0  0  0  0  0  0  0  0
  155.4279  137.1469  188.1317 N   0  0  0  0  0  0  0  0  0  0  0  0
  155.7153  135.8280  188.6117 C   0  0  0  0  0  0  0  0  0  0  0  0
  157.1045  136.0501  189.2126 C   0  0  0  0  0  0  0  0  0  0  0  0
  156.8841  137.3925  189.9205 C   0  0  0  0  0  0  0  0  0  0  0  0
  155.8470  138.1033  189.1026 C   0  0  0  0  0  0  0  0  0  0  0  0
  154.7877  138.6103  190.0242 C   0  0  0  0  0  0  0  0  0  0  0  0
  155.1886  138.2102  191.3039 O   0  0  0  0  0  0  0  0  0  0  0  0
  156.1694  137.2235  191.2094 C   0  0  0  0  0  0  0  0  0  0  0  0
  156.4035  136.3429  192.0599 O   0  0  0  0  0  0  0  0  0  0  0  0
  155.2475  139.9193  184.2126 C   0  0  0  0  0  0  0  0  0  0  0  0
  154.4142  140.5824  183.2851 C   0  0  0  0  0  0  0  0  0  0  0  0
  154.8020  141.6896  182.5613 C   0  0  0  0  0  0  0  0  0  0  0  0
  156.0580  142.1495  182.7669 C   0  0  0  0  0  0  0  0  0  0  0  0
  156.9452  141.5925  183.6246 C   0  0  0  0  0  0  0  0  0  0  0  0
  156.4937  140.4749  184.3313 C   0  0  0  0  0  0  0  0  0  0  0  0
  156.4778  143.3935  182.0018 C   0  0  0  0  0  0  0  0  0  0  0  0
  155.8024  144.4404  182.1766 O   0  0  0  0  0  0  0  0  0  0  0  0
  157.5544  143.3087  181.1788 N   0  0  0  0  0  0  0  0  0  0  0  0
  158.3461  142.7463  180.4803 C   0  0  0  0  0  0  0  0  0  0  0  0
  159.4565  143.5796  179.8228 C   0  0  0  0  0  0  0  0  0  0  0  0
  158.3515  141.3032  180.1714 C   0  0  0  0  0  0  0  0  0  0  0  0
  152.7991  134.8620  184.0234 C   0  0  0  0  0  0  0  0  0  0  0  0
  152.2477  133.7139  184.0884 O   0  0  0  0  0  0  0  0  0  0  0  0
  152.2816  135.9534  184.7607 N   0  0  0  0  0  0  0  0  0  0  0  0
  151.4769  135.9817  185.3278 H   0  0  0  0  0  0  0  0  0  0  0  0
  154.8168  133.6903  183.3544 C   0  0  0  0  0  0  0  0  0  0  0  0
  153.9801  134.9641  183.1240 C   0  0  0  0  0  0  0  0  0  0  0  0
  153.6127  135.0312  181.7867 O   0  0  0  0  0  0  0  0  0  0  0  0
  154.2247  134.4509  181.2595 H   0  0  0  0  0  0  0  0  0  0  0  0
 32 33  1  0  0  0
 33 34  1  0  0  0
 33 28  1  0  0  0
 28 29  2  0  0  0
 28 30  1  0  0  0
 30  1  1  0  0  0
  1  2  2  0  0  0
  2  3  1  0  0  0
  3  4  2  0  0  0
  4  5  1  0  0  0
  5  6  2  0  0  0
  5 16  1  0  0  0
 16 17  2  0  0  0
 17 18  1  0  0  0
 18 19  2  0  0  0
 19 20  1  0  0  0
 20 21  2  0  0  0
 19 22  1  0  0  0
 22 23  2  0  0  0
 22 24  1  0  0  0
 24 25  2  0  0  0
 25 26  1  0  0  0
 25 27  1  0  0  0
  3  7  1  0  0  0
  7  8  1  0  0  0
  8  9  1  0  0  0
  9 10  1  0  0  0
 10 11  1  0  0  0
 11 12  1  0  0  0
 12 13  1  0  0  0
 13 14  1  0  0  0
 14 15  2  0  0  0
  6  1  1  0  0  0
 21 16  1  0  0  0
 11  7  1  0  0  0
 14 10  1  0  0  0
 34 35  1  0  0  0
 30 31  1  0  0  0
M  END
> <minimizedAffinity>
-8.17978

> <CNNscore>
0.3129726052

> <CNNaffinity>
5.8720130920

> <CNN_VS>
1.8377792835

> <CNNaffinity_variance>
0.0409489311

$$$$
[H]O[C@@]([H])(C(=O)N([H])c1nc(-c2c([H])c([H])c(C(=O)N=C(C([H])([H])[H])C([H])([H])[H])c([H])c2[H])nc(N2C([H])([H])C([H])([H])[C@]3([H])C(=O)OC([H])([H])[C@]23[H])c1[H])C([H])([H])[H]


 35 38  0  0  0  0  0  0  0  0999 V2000
  154.0429  137.5106  185.0392 C   0  0  0  0  0  0  0  0  0  0  0  0
  152.9373  137.5344  184.1296 C   0  0  0  0  0  0  0  0  0  0  0  0
  152.9898  138.5317  183.1881 C   0  0  0  0  0  0  0  0  0  0  0  0
  154.0014  139.3463  183.1884 N   0  0  0  0  0  0  0  0  0  0  0  0
  155.0733  139.3384  184.0532 C   0  0  0  0  0  0  0  0  0  0  0  0
  155.0229  138.3468  184.9876 N   0  0  0  0  0  0  0  0  0  0  0  0
  151.9303  138.6098  182.2125 N   0  0  0  0  0  0  0  0  0  0  0  0
  151.0281  137.5379  181.9137 C   0  0  0  0  0  0  0  0  0  0  0  0
  149.7066  138.3044  181.8330 C   0  0  0  0  0  0  0  0  0  0  0  0
  150.1558  139.5401  181.0437 C   0  0  0  0  0  0  0  0  0  0  0  0
  151.5941  139.7443  181.4168 C   0  0  0  0  0  0  0  0  0  0  0  0
  152.3842  139.9238  180.1630 C   0  0  0  0  0  0  0  0  0  0  0  0
  151.4539  139.8242  179.1224 O   0  0  0  0  0  0  0  0  0  0  0  0
  150.2718  139.2534  179.5928 C   0  0  0  0  0  0  0  0  0  0  0  0
  149.4526  138.6054  178.9126 O   0  0  0  0  0  0  0  0  0  0  0  0
  156.0767  140.3388  183.9144 C   0  0  0  0  0  0  0  0  0  0  0  0
  157.2355  140.1826  184.7063 C   0  0  0  0  0  0  0  0  0  0  0  0
  158.3081  141.0480  184.6742 C   0  0  0  0  0  0  0  0  0  0  0  0
  158.2233  142.1011  183.8286 C   0  0  0  0  0  0  0  0  0  0  0  0
  157.1617  142.3548  183.0276 C   0  0  0  0  0  0  0  0  0  0  0  0
  156.1070  141.4414  183.1024 C   0  0  0  0  0  0  0  0  0  0  0  0
  159.4190  143.0364  183.7594 C   0  0  0  0  0  0  0  0  0  0  0  0
  159.4998  143.8059  182.7673 O   0  0  0  0  0  0  0  0  0  0  0  0
  160.3276  142.9930  184.7673 N   0  0  0  0  0  0  0  0  0  0  0  0
  161.3857  142.7425  185.2661 C   0  0  0  0  0  0  0  0  0  0  0  0
  161.5905  143.0876  186.7488 C   0  0  0  0  0  0  0  0  0  0  0  0
  162.5411  142.1348  184.5778 C   0  0  0  0  0  0  0  0  0  0  0  0
  153.8206  136.9381  187.4248 C   0  0  0  0  0  0  0  0  0  0  0  0
  153.1143  136.3797  188.3280 O   0  0  0  0  0  0  0  0  0  0  0  0
  153.7460  136.5042  186.0799 N   0  0  0  0  0  0  0  0  0  0  0  0
  153.2272  135.7547  185.7069 H   0  0  0  0  0  0  0  0  0  0  0  0
  154.3002  138.3565  189.3352 C   0  0  0  0  0  0  0  0  0  0  0  0
  154.7153  138.0339  187.8863 C   0  0  0  0  0  0  0  0  0  0  0  0
  156.0517  137.6578  187.8690 O   0  0  0  0  0  0  0  0  0  0  0  0
  156.4864  137.9916  188.6991 H   0  0  0  0  0  0  0  0  0  0  0  0
 32 33  1  0  0  0
 33 34  1  0  0  0
 33 28  1  0  0  0
 28 29  2  0  0  0
 28 30  1  0  0  0
 30  1  1  0  0  0
  1  2  2  0  0  0
  2  3  1  0  0  0
  3  4  2  0  0  0
  4  5  1  0  0  0
  5  6  2  0  0  0
  5 16  1  0  0  0
 16 17  2  0  0  0
 17 18  1  0  0  0
 18 19  2  0  0  0
 19 20  1  0  0  0
 20 21  2  0  0  0
 19 22  1  0  0  0
 22 23  2  0  0  0
 22 24  1  0  0  0
 24 25  2  0  0  0
 25 26  1  0  0  0
 25 27  1  0  0  0
  3  7  1  0  0  0
  7  8  1  0  0  0
  8  9  1  0  0  0
  9 10  1  0  0  0
 10 11  1  0  0  0
 11 12  1  0  0  0
 12 13  1  0  0  0
 13 14  1  0  0  0
 14 15  2  0  0  0
  6  1  1  0  0  0
 21 16  1  0  0  0
 11  7  1  0  0  0
 14 10  1  0  0  0
 34 35  1  0  0  0
 30 31  1  0  0  0
M  END
> <minimizedAffinity>
-9.03463

> <CNNscore>
0.3083373010

> <CNNaffinity>
6.0202240944

> <CNN_VS>
1.8562597036

> <CNNaffinity_variance>
0.0718334541

$$$$
[H]O[C@@]([H])(C(=O)N([H])c1nc(-c2c([H])c([H])c(C(=O)N=C(C([H])([H])[H])C([H])([H])[H])c([H])c2[H])nc(N2C([H])([H])C([H])([H])[C@]3([H])C(=O)OC([H])([H])[C@]23[H])c1[H])C([H])([H])[H]


 35 38  0  0  0  0  0  0  0  0999 V2000
  153.2314  136.9368  185.2274 C   0  0  0  0  0  0  0  0  0  0  0  0
  153.8047  136.5691  186.4869 C   0  0  0  0  0  0  0  0  0  0  0  0
  154.8340  137.3745  186.9062 C   0  0  0  0  0  0  0  0  0  0  0  0
  155.1953  138.3750  186.1609 N   0  0  0  0  0  0  0  0  0  0  0  0
  154.6558  138.7446  184.9489 C   0  0  0  0  0  0  0  0  0  0  0  0
  153.6321  137.9462  184.5325 N   0  0  0  0  0  0  0  0  0  0  0  0
  155.4491  137.0932  188.1801 N   0  0  0  0  0  0  0  0  0  0  0  0
  155.6995  135.7748  188.6816 C   0  0  0  0  0  0  0  0  0  0  0  0
  157.1078  135.9592  189.2501 C   0  0  0  0  0  0  0  0  0  0  0  0
  156.9496  137.3225  189.9341 C   0  0  0  0  0  0  0  0  0  0  0  0
  155.9217  138.0534  189.1224 C   0  0  0  0  0  0  0  0  0  0  0  0
  154.9001  138.6163  190.0540 C   0  0  0  0  0  0  0  0  0  0  0  0
  155.3129  138.2279  191.3336 O   0  0  0  0  0  0  0  0  0  0  0  0
  156.2560  137.2051  191.2402 C   0  0  0  0  0  0  0  0  0  0  0  0
  156.4763  136.3338  192.1040 O   0  0  0  0  0  0  0  0  0  0  0  0
  155.2105  139.8606  184.2605 C   0  0  0  0  0  0  0  0  0  0  0  0
  154.3786  140.4907  183.3091 C   0  0  0  0  0  0  0  0  0  0  0  0
  154.7538  141.5955  182.5750 C   0  0  0  0  0  0  0  0  0  0  0  0
  155.9955  142.0867  182.7946 C   0  0  0  0  0  0  0  0  0  0  0  0
  156.8801  141.5630  183.6755 C   0  0  0  0  0  0  0  0  0  0  0  0
  156.4417  140.4461  184.3917 C   0  0  0  0  0  0  0  0  0  0  0  0
  156.4004  143.3283  182.0176 C   0  0  0  0  0  0  0  0  0  0  0  0
  155.6905  144.3580  182.1540 O   0  0  0  0  0  0  0  0  0  0  0  0
  157.5014  143.2601  181.2260 N   0  0  0  0  0  0  0  0  0  0  0  0
  158.3186  142.7107  180.5467 C   0  0  0  0  0  0  0  0  0  0  0  0
  159.4398  143.5595  179.9287 C   0  0  0  0  0  0  0  0  0  0  0  0
  158.3467  141.2702  180.2269 C   0  0  0  0  0  0  0  0  0  0  0  0
  150.9032  136.1440  185.0892 C   0  0  0  0  0  0  0  0  0  0  0  0
  149.9990  135.6060  184.3685 O   0  0  0  0  0  0  0  0  0  0  0  0
  152.2719  135.8797  184.8455 N   0  0  0  0  0  0  0  0  0  0  0  0
  152.6682  135.2669  184.1841 H   0  0  0  0  0  0  0  0  0  0  0  0
  148.9782  137.4321  185.8151 C   0  0  0  0  0  0  0  0  0  0  0  0
  150.4191  137.0279  186.1840 C   0  0  0  0  0  0  0  0  0  0  0  0
  150.4095  136.3795  187.4117 O   0  0  0  0  0  0  0  0  0  0  0  0
  149.5693  136.6153  187.8890 H   0  0  0  0  0  0  0  0  0  0  0  0
 32 33  1  0  0  0
 33 34  1  0  0  0
 33 28  1  0  0  0
 28 29  2  0  0  0
 28 30  1  0  0  0
 30  1  1  0  0  0
  1  2  2  0  0  0
  2  3  1  0  0  0
  3  4  2  0  0  0
  4  5  1  0  0  0
  5  6  2  0  0  0
  5 16  1  0  0  0
 16 17  2  0  0  0
 17 18  1  0  0  0
 18 19  2  0  0  0
 19 20  1  0  0  0
 20 21  2  0  0  0
 19 22  1  0  0  0
 22 23  2  0  0  0
 22 24  1  0  0  0
 24 25  2  0  0  0
 25 26  1  0  0  0
 25 27  1  0  0  0
  3  7  1  0  0  0
  7  8  1  0  0  0
  8  9  1  0  0  0
  9 10  1  0  0  0
 10 11  1  0  0  0
 11 12  1  0  0  0
 12 13  1  0  0  0
 13 14  1  0  0  0
 14 15  2  0  0  0
  6  1  1  0  0  0
 21 16  1  0  0  0
 11  7  1  0  0  0
 14 10  1  0  0  0
 34 35  1  0  0  0
 30 31  1  0  0  0
M  END
> <minimizedAffinity>
-8.21579

> <CNNscore>
0.2915235758

> <CNNaffinity>
5.8341455460

> <CNN_VS>
1.7007910013

> <CNNaffinity_variance>
0.1329711378

$$$$
[H]O[C@@]([H])(C(=O)N([H])c1nc(-c2c([H])c([H])c(C(=O)N=C(C([H])([H])[H])C([H])([H])[H])c([H])c2[H])nc(N2C([H])([H])C([H])([H])[C@]3([H])C(=O)OC([H])([H])[C@]23[H])c1[H])C([H])([H])[H]


 35 38  0  0  0  0  0  0  0  0999 V2000
  154.8432  141.2236  182.9845 C   0  0  0  0  0  0  0  0  0  0  0  0
  153.7936  140.9341  182.0546 C   0  0  0  0  0  0  0  0  0  0  0  0
  152.9784  139.8906  182.4156 C   0  0  0  0  0  0  0  0  0  0  0  0
  153.2071  139.2694  183.5331 N   0  0  0  0  0  0  0  0  0  0  0  0
  154.2095  139.5338  184.4398 C   0  0  0  0  0  0  0  0  0  0  0  0
  155.0187  140.5715  184.0828 N   0  0  0  0  0  0  0  0  0  0  0  0
  151.8760  139.5508  181.5499 N   0  0  0  0  0  0  0  0  0  0  0  0
  151.2706  140.4576  180.6205 C   0  0  0  0  0  0  0  0  0  0  0  0
  151.1114  139.5415  179.4057 C   0  0  0  0  0  0  0  0  0  0  0  0
  150.6127  138.2636  180.0912 C   0  0  0  0  0  0  0  0  0  0  0  0
  151.2327  138.2816  181.4568 C   0  0  0  0  0  0  0  0  0  0  0  0
  150.1628  138.0129  182.4625 C   0  0  0  0  0  0  0  0  0  0  0  0
  148.9882  137.8529  181.7188 O   0  0  0  0  0  0  0  0  0  0  0  0
  149.1704  138.3473  180.4278 C   0  0  0  0  0  0  0  0  0  0  0  0
  148.2751  138.7914  179.6828 O   0  0  0  0  0  0  0  0  0  0  0  0
  154.3197  138.7178  185.6012 C   0  0  0  0  0  0  0  0  0  0  0  0
  153.1327  138.5049  186.3362 C   0  0  0  0  0  0  0  0  0  0  0  0
  153.0627  137.7230  187.4693 C   0  0  0  0  0  0  0  0  0  0  0  0
  154.2098  137.1363  187.8831 C   0  0  0  0  0  0  0  0  0  0  0  0
  155.4055  137.2732  187.2631 C   0  0  0  0  0  0  0  0  0  0  0  0
  155.4128  138.0754  186.1190 C   0  0  0  0  0  0  0  0  0  0  0  0
  154.1310  136.2409  189.1085 C   0  0  0  0  0  0  0  0  0  0  0  0
  153.2931  135.3026  189.0912 O   0  0  0  0  0  0  0  0  0  0  0  0
  154.9662  136.4989  190.1473 N   0  0  0  0  0  0  0  0  0  0  0  0
  155.5184  137.1918  190.9511 C   0  0  0  0  0  0  0  0  0  0  0  0
  156.4991  136.5296  191.9305 C   0  0  0  0  0  0  0  0  0  0  0  0
  155.3345  138.6480  191.1054 C   0  0  0  0  0  0  0  0  0  0  0  0
  156.9134  141.7730  181.7675 C   0  0  0  0  0  0  0  0  0  0  0  0
  157.4465  142.4095  180.7995 O   0  0  0  0  0  0  0  0  0  0  0  0
  155.7205  142.2408  182.3683 N   0  0  0  0  0  0  0  0  0  0  0  0
  155.2192  143.0653  182.1714 H   0  0  0  0  0  0  0  0  0  0  0  0
  158.7452  140.2938  181.1774 C   0  0  0  0  0  0  0  0  0  0  0  0
  157.6331  140.5494  182.2136 C   0  0  0  0  0  0  0  0  0  0  0  0
  158.2079  140.7107  183.4672 O   0  0  0  0  0  0  0  0  0  0  0  0
  159.1188  140.3114  183.4529 H   0  0  0  0  0  0  0  0  0  0  0  0
 32 33  1  0  0  0
 33 34  1  0  0  0
 33 28  1  0  0  0
 28 29  2  0  0  0
 28 30  1  0  0  0
 30  1  1  0  0  0
  1  2  2  0  0  0
  2  3  1  0  0  0
  3  4  2  0  0  0
  4  5  1  0  0  0
  5  6  2  0  0  0
  5 16  1  0  0  0
 16 17  2  0  0  0
 17 18  1  0  0  0
 18 19  2  0  0  0
 19 20  1  0  0  0
 20 21  2  0  0  0
 19 22  1  0  0  0
 22 23  2  0  0  0
 22 24  1  0  0  0
 24 25  2  0  0  0
 25 26  1  0  0  0
 25 27  1  0  0  0
  3  7  1  0  0  0
  7  8  1  0  0  0
  8  9  1  0  0  0
  9 10  1  0  0  0
 10 11  1  0  0  0
 11 12  1  0  0  0
 12 13  1  0  0  0
 13 14  1  0  0  0
 14 15  2  0  0  0
  6  1  1  0  0  0
 21 16  1  0  0  0
 11  7  1  0  0  0
 14 10  1  0  0  0
 34 35  1  0  0  0
 30 31  1  0  0  0
M  END
> <minimizedAffinity>
-8.24017

> <CNNscore>
0.2909237444

> <CNNaffinity>
5.8146872520

> <CNN_VS>
1.6916306019

> <CNNaffinity_variance>
0.1104238480

$$$$
[H]O[C@@]([H])(C(=O)N([H])c1nc(-c2c([H])c([H])c(C(=O)N=C(C([H])([H])[H])C([H])([H])[H])c([H])c2[H])nc(N2C([H])([H])C([H])([H])[C@]3([H])C(=O)OC([H])([H])[C@]23[H])c1[H])C([H])([H])[H]


 35 38  0  0  0  0  0  0  0  0999 V2000
  154.6279  140.3598  182.5125 C   0  0  0  0  0  0  0  0  0  0  0  0
  153.3700  140.1455  181.8631 C   0  0  0  0  0  0  0  0  0  0  0  0
  152.5800  139.1855  182.4444 C   0  0  0  0  0  0  0  0  0  0  0  0
  153.0126  138.5690  183.5026 N   0  0  0  0  0  0  0  0  0  0  0  0
  154.2173  138.7620  184.1414 C   0  0  0  0  0  0  0  0  0  0  0  0
  155.0020  139.7169  183.5656 N   0  0  0  0  0  0  0  0  0  0  0  0
  151.2817  138.9269  181.8715 N   0  0  0  0  0  0  0  0  0  0  0  0
  150.4558  137.8084  182.2167 C   0  0  0  0  0  0  0  0  0  0  0  0
  149.0912  138.4932  182.3139 C   0  0  0  0  0  0  0  0  0  0  0  0
  149.1536  139.4022  181.0805 C   0  0  0  0  0  0  0  0  0  0  0  0
  150.6066  139.7312  180.9069 C   0  0  0  0  0  0  0  0  0  0  0  0
  150.9755  139.4930  179.4801 C   0  0  0  0  0  0  0  0  0  0  0  0
  149.8009  139.0465  178.8643 O   0  0  0  0  0  0  0  0  0  0  0  0
  148.8760  138.6528  179.8307 C   0  0  0  0  0  0  0  0  0  0  0  0
  147.9719  137.8090  179.6752 O   0  0  0  0  0  0  0  0  0  0  0  0
  154.5295  137.9629  185.2776 C   0  0  0  0  0  0  0  0  0  0  0  0
  155.5129  138.4715  186.1543 C   0  0  0  0  0  0  0  0  0  0  0  0
  155.9132  137.8345  187.3094 C   0  0  0  0  0  0  0  0  0  0  0  0
  155.3167  136.6549  187.5992 C   0  0  0  0  0  0  0  0  0  0  0  0
  154.3678  136.0691  186.8316 C   0  0  0  0  0  0  0  0  0  0  0  0
  154.0018  136.7633  185.6756 C   0  0  0  0  0  0  0  0  0  0  0  0
  155.7249  135.9675  188.8916 C   0  0  0  0  0  0  0  0  0  0  0  0
  156.6467  135.1134  188.8310 O   0  0  0  0  0  0  0  0  0  0  0  0
  155.0787  136.3128  190.0347 N   0  0  0  0  0  0  0  0  0  0  0  0
  154.7332  137.0576  190.9047 C   0  0  0  0  0  0  0  0  0  0  0  0
  153.8454  136.5013  192.0281 C   0  0  0  0  0  0  0  0  0  0  0  0
  155.0723  138.4909  190.9980 C   0  0  0  0  0  0  0  0  0  0  0  0
  155.7876  142.5177  182.2534 C   0  0  0  0  0  0  0  0  0  0  0  0
  156.8436  143.1241  181.8747 O   0  0  0  0  0  0  0  0  0  0  0  0
  155.4163  141.2831  181.6699 N   0  0  0  0  0  0  0  0  0  0  0  0
  155.8537  140.7994  180.9318 H   0  0  0  0  0  0  0  0  0  0  0  0
  153.6424  143.5754  182.6671 C   0  0  0  0  0  0  0  0  0  0  0  0
  154.9919  143.1995  183.3099 C   0  0  0  0  0  0  0  0  0  0  0  0
  154.7611  142.3745  184.4025 O   0  0  0  0  0  0  0  0  0  0  0  0
  153.8171  142.4899  184.6940 H   0  0  0  0  0  0  0  0  0  0  0  0
 32 33  1  0  0  0
 33 34  1  0  0  0
 33 28  1  0  0  0
 28 29  2  0  0  0
 28 30  1  0  0  0
 30  1  1  0  0  0
  1  2  2  0  0  0
  2  3  1  0  0  0
  3  4  2  0  0  0
  4  5  1  0  0  0
  5  6  2  0  0  0
  5 16  1  0  0  0
 16 17  2  0  0  0
 17 18  1  0  0  0
 18 19  2  0  0  0
 19 20  1  0  0  0
 20 21  2  0  0  0
 19 22  1  0  0  0
 22 23  2  0  0  0
 22 24  1  0  0  0
 24 25  2  0  0  0
 25 26  1  0  0  0
 25 27  1  0  0  0
  3  7  1  0  0  0
  7  8  1  0  0  0
  8  9  1  0  0  0
  9 10  1  0  0  0
 10 11  1  0  0  0
 11 12  1  0  0  0
 12 13  1  0  0  0
 13 14  1  0  0  0
 14 15  2  0  0  0
  6  1  1  0  0  0
 21 16  1  0  0  0
 11  7  1  0  0  0
 14 10  1  0  0  0
 34 35  1  0  0  0
 30 31  1  0  0  0
M  END
> <minimizedAffinity>
-7.89479

> <CNNscore>
0.2548756301

> <CNNaffinity>
5.6460537910

> <CNN_VS>
1.4390414953

> <CNNaffinity_variance>
0.2236701250

$$$$
[H]O[C@@]([H])(C(=O)N([H])c1nc(-c2c([H])c([H])c(C(=O)N=C(C([H])([H])[H])C([H])([H])[H])c([H])c2[H])nc(N2C([H])([H])C([H])([H])[C@]3([H])C(=O)OC([H])([H])[C@]23[H])c1[H])C([H])([H])[H]


 35 38  0  0  0  0  0  0  0  0999 V2000
  155.5840  139.1892  184.2060 C   0  0  0  0  0  0  0  0  0  0  0  0
  155.7959  138.9593  185.6033 C   0  0  0  0  0  0  0  0  0  0  0  0
  154.7906  138.2663  186.2300 C   0  0  0  0  0  0  0  0  0  0  0  0
  153.7628  137.8808  185.5358 N   0  0  0  0  0  0  0  0  0  0  0  0
  153.5422  138.0912  184.1927 C   0  0  0  0  0  0  0  0  0  0  0  0
  154.5413  138.7779  183.5689 N   0  0  0  0  0  0  0  0  0  0  0  0
  154.9373  137.9646  187.6328 N   0  0  0  0  0  0  0  0  0  0  0  0
  156.0680  137.2915  188.1994 C   0  0  0  0  0  0  0  0  0  0  0  0
  156.2914  138.1369  189.4547 C   0  0  0  0  0  0  0  0  0  0  0  0
  154.8425  138.3174  189.9235 C   0  0  0  0  0  0  0  0  0  0  0  0
  154.0178  138.2966  188.6709 C   0  0  0  0  0  0  0  0  0  0  0  0
  152.8831  137.3473  188.8706 C   0  0  0  0  0  0  0  0  0  0  0  0
  153.0461  136.8439  190.1662 O   0  0  0  0  0  0  0  0  0  0  0  0
  154.3365  137.1106  190.6224 C   0  0  0  0  0  0  0  0  0  0  0  0
  154.9637  136.4451  191.4694 O   0  0  0  0  0  0  0  0  0  0  0  0
  152.3322  137.6167  183.6116 C   0  0  0  0  0  0  0  0  0  0  0  0
  152.2338  137.7002  182.2053 C   0  0  0  0  0  0  0  0  0  0  0  0
  151.1417  137.2640  181.4861 C   0  0  0  0  0  0  0  0  0  0  0  0
  150.1163  136.7294  182.1892 C   0  0  0  0  0  0  0  0  0  0  0  0
  150.0970  136.6037  183.5370 C   0  0  0  0  0  0  0  0  0  0  0  0
  151.2328  137.0610  184.2102 C   0  0  0  0  0  0  0  0  0  0  0  0
  148.9266  136.2101  181.3991 C   0  0  0  0  0  0  0  0  0  0  0  0
  148.4792  135.0733  181.6997 O   0  0  0  0  0  0  0  0  0  0  0  0
  148.4124  136.9979  180.4201 N   0  0  0  0  0  0  0  0  0  0  0  0
  147.8846  137.9762  179.9780 C   0  0  0  0  0  0  0  0  0  0  0  0
  147.6208  138.0396  178.4660 C   0  0  0  0  0  0  0  0  0  0  0  0
  147.4666  139.1575  180.7576 C   0  0  0  0  0  0  0  0  0  0  0  0
  156.2753  141.3999  183.3673 C   0  0  0  0  0  0  0  0  0  0  0  0
  157.1018  142.3667  183.4594 O   0  0  0  0  0  0  0  0  0  0  0  0
  156.6576  140.0868  183.7311 N   0  0  0  0  0  0  0  0  0  0  0  0
  157.5407  139.7670  184.0276 H   0  0  0  0  0  0  0  0  0  0  0  0
  154.8773  143.2854  182.7491 C   0  0  0  0  0  0  0  0  0  0  0  0
  154.9261  141.7479  182.8450 C   0  0  0  0  0  0  0  0  0  0  0  0
  154.6985  141.2063  181.5870 O   0  0  0  0  0  0  0  0  0  0  0  0
  154.2507  141.8917  181.0222 H   0  0  0  0  0  0  0  0  0  0  0  0
 32 33  1  0  0  0
 33 34  1  0  0  0
 33 28  1  0  0  0
 28 29  2  0  0  0
 28 30  1  0  0  0
 30  1  1  0  0  0
  1  2  2  0  0  0
  2  3  1  0  0  0
  3  4  2  0  0  0
  4  5  1  0  0  0
  5  6  2  0  0  0
  5 16  1  0  0  0
 16 17  2  0  0  0
 17 18  1  0  0  0
 18 19  2  0  0  0
 19 20  1  0  0  0
 20 21  2  0  0  0
 19 22  1  0  0  0
 22 23  2  0  0  0
 22 24  1  0  0  0
 24 25  2  0  0  0
 25 26  1  0  0  0
 25 27  1  0  0  0
  3  7  1  0  0  0
  7  8  1  0  0  0
  8  9  1  0  0  0
  9 10  1  0  0  0
 10 11  1  0  0  0
 11 12  1  0  0  0
 12 13  1  0  0  0
 13 14  1  0  0  0
 14 15  2  0  0  0
  6  1  1  0  0  0
 21 16  1  0  0  0
 11  7  1  0  0  0
 14 10  1  0  0  0
 34 35  1  0  0  0
 30 31  1  0  0  0
M  END
> <minimizedAffinity>
-7.37610

> <CNNscore>
0.2339762747

> <CNNaffinity>
5.6588249207

> <CNN_VS>
1.3240307570

> <CNNaffinity_variance>
0.1675673723

$$$$
[H]O[C@@]([H])(C(=O)N([H])c1nc(-c2c([H])c([H])c(C(=O)N=C(C([H])([H])[H])C([H])([H])[H])c([H])c2[H])nc(N2C([H])([H])C([H])([H])[C@]3([H])C(=O)OC([H])([H])[C@]23[H])c1[H])C([H])([H])[H]


 35 38  0  0  0  0  0  0  0  0999 V2000
  152.4048  137.8006  183.1013 C   0  0  0  0  0  0  0  0  0  0  0  0
  152.1718  137.2357  184.3962 C   0  0  0  0  0  0  0  0  0  0  0  0
  152.9582  137.7496  185.3968 C   0  0  0  0  0  0  0  0  0  0  0  0
  153.8194  138.6779  185.1078 N   0  0  0  0  0  0  0  0  0  0  0  0
  154.0568  139.2339  183.8703 C   0  0  0  0  0  0  0  0  0  0  0  0
  153.2746  138.7252  182.8761 N   0  0  0  0  0  0  0  0  0  0  0  0
  152.7677  137.2579  186.7393 N   0  0  0  0  0  0  0  0  0  0  0  0
  151.4967  136.8988  187.2943 C   0  0  0  0  0  0  0  0  0  0  0  0
  151.8684  135.6037  188.0188 C   0  0  0  0  0  0  0  0  0  0  0  0
  153.2028  136.0180  188.6508 C   0  0  0  0  0  0  0  0  0  0  0  0
  153.7871  137.0292  187.7097 C   0  0  0  0  0  0  0  0  0  0  0  0
  154.2156  138.2183  188.5040 C   0  0  0  0  0  0  0  0  0  0  0  0
  153.8922  137.9125  189.8308 O   0  0  0  0  0  0  0  0  0  0  0  0
  153.0022  136.8397  189.8695 C   0  0  0  0  0  0  0  0  0  0  0  0
  152.1726  136.6114  190.7712 O   0  0  0  0  0  0  0  0  0  0  0  0
  155.0708  140.2252  183.7444 C   0  0  0  0  0  0  0  0  0  0  0  0
  156.4058  139.7645  183.7470 C   0  0  0  0  0  0  0  0  0  0  0  0
  157.5016  140.5896  183.6111 C   0  0  0  0  0  0  0  0  0  0  0  0
  157.2604  141.9137  183.4692 C   0  0  0  0  0  0  0  0  0  0  0  0
  156.0257  142.4689  183.4579 C   0  0  0  0  0  0  0  0  0  0  0  0
  154.9550  141.5820  183.5971 C   0  0  0  0  0  0  0  0  0  0  0  0
  158.4624  142.8238  183.2788 C   0  0  0  0  0  0  0  0  0  0  0  0
  158.3723  143.7346  182.4155 O   0  0  0  0  0  0  0  0  0  0  0  0
  159.5599  142.6077  184.0482 N   0  0  0  0  0  0  0  0  0  0  0  0
  160.1446  142.3727  185.0650 C   0  0  0  0  0  0  0  0  0  0  0  0
  161.6788  142.3074  185.0232 C   0  0  0  0  0  0  0  0  0  0  0  0
  159.5221  142.1204  186.3792 C   0  0  0  0  0  0  0  0  0  0  0  0
  150.4942  137.6727  181.5516 C   0  0  0  0  0  0  0  0  0  0  0  0
  150.0823  137.3529  180.3878 O   0  0  0  0  0  0  0  0  0  0  0  0
  151.6140  137.0238  182.1240 N   0  0  0  0  0  0  0  0  0  0  0  0
  152.1423  136.2780  181.7570 H   0  0  0  0  0  0  0  0  0  0  0  0
  148.9133  139.4716  181.1557 C   0  0  0  0  0  0  0  0  0  0  0  0
  149.7165  138.7348  182.2455 C   0  0  0  0  0  0  0  0  0  0  0  0
  148.8365  138.2089  183.1819 O   0  0  0  0  0  0  0  0  0  0  0  0
  147.9702  138.6925  183.1105 H   0  0  0  0  0  0  0  0  0  0  0  0
 32 33  1  0  0  0
 33 34  1  0  0  0
 33 28  1  0  0  0
 28 29  2  0  0  0
 28 30  1  0  0  0
 30  1  1  0  0  0
  1  2  2  0  0  0
  2  3  1  0  0  0
  3  4  2  0  0  0
  4  5  1  0  0  0
  5  6  2  0  0  0
  5 16  1  0  0  0
 16 17  2  0  0  0
 17 18  1  0  0  0
 18 19  2  0  0  0
 19 20  1  0  0  0
 20 21  2  0  0  0
 19 22  1  0  0  0
 22 23  2  0  0  0
 22 24  1  0  0  0
 24 25  2  0  0  0
 25 26  1  0  0  0
 25 27  1  0  0  0
  3  7  1  0  0  0
  7  8  1  0  0  0
  8  9  1  0  0  0
  9 10  1  0  0  0
 10 11  1  0  0  0
 11 12  1  0  0  0
 12 13  1  0  0  0
 13 14  1  0  0  0
 14 15  2  0  0  0
  6  1  1  0  0  0
 21 16  1  0  0  0
 11  7  1  0  0  0
 14 10  1  0  0  0
 34 35  1  0  0  0
 30 31  1  0  0  0
M  END
> <minimizedAffinity>
-7.95053

> <CNNscore>
0.2275303453

> <CNNaffinity>
5.8611803055

> <CNN_VS>
1.3335963488

> <CNNaffinity_variance>
0.0860525146

$$$$
[H]O[C@@]([H])(C(=O)N([H])c1nc(-c2c([H])c([H])c(C(=O)N=C(C([H])([H])[H])C([H])([H])[H])c([H])c2[H])nc(N2C([H])([H])C([H])([H])[C@]3([H])C(=O)OC([H])([H])[C@]23[H])c1[H])C([H])([H])[H]


 35 38  0  0  0  0  0  0  0  0999 V2000
  154.8403  141.3072  183.0721 C   0  0  0  0  0  0  0  0  0  0  0  0
  153.7575  141.0859  182.1618 C   0  0  0  0  0  0  0  0  0  0  0  0
  153.0772  139.9094  182.3539 C   0  0  0  0  0  0  0  0  0  0  0  0
  153.4482  139.1161  183.3130 N   0  0  0  0  0  0  0  0  0  0  0  0
  154.4849  139.3121  184.1983 C   0  0  0  0  0  0  0  0  0  0  0  0
  155.1600  140.4815  184.0093 N   0  0  0  0  0  0  0  0  0  0  0  0
  151.9517  139.6210  181.4992 N   0  0  0  0  0  0  0  0  0  0  0  0
  151.3192  140.5825  180.6461 C   0  0  0  0  0  0  0  0  0  0  0  0
  151.1277  139.7442  179.3807 C   0  0  0  0  0  0  0  0  0  0  0  0
  150.6505  138.4239  179.9977 C   0  0  0  0  0  0  0  0  0  0  0  0
  151.3083  138.3580  181.3441 C   0  0  0  0  0  0  0  0  0  0  0  0
  150.2672  138.0227  182.3601 C   0  0  0  0  0  0  0  0  0  0  0  0
  149.0726  137.9059  181.6406 O   0  0  0  0  0  0  0  0  0  0  0  0
  149.2180  138.4812  180.3787 C   0  0  0  0  0  0  0  0  0  0  0  0
  148.3016  138.9683  179.6884 O   0  0  0  0  0  0  0  0  0  0  0  0
  154.7605  138.3074  185.1685 C   0  0  0  0  0  0  0  0  0  0  0  0
  155.8236  138.5682  186.0608 C   0  0  0  0  0  0  0  0  0  0  0  0
  156.2038  137.7112  187.0714 C   0  0  0  0  0  0  0  0  0  0  0  0
  155.5044  136.5594  187.1963 C   0  0  0  0  0  0  0  0  0  0  0  0
  154.4722  136.2012  186.3969 C   0  0  0  0  0  0  0  0  0  0  0  0
  154.1319  137.1113  185.3928 C   0  0  0  0  0  0  0  0  0  0  0  0
  155.8928  135.6290  188.3334 C   0  0  0  0  0  0  0  0  0  0  0  0
  155.0109  135.3533  189.1873 O   0  0  0  0  0  0  0  0  0  0  0  0
  157.1615  135.1465  188.3637 N   0  0  0  0  0  0  0  0  0  0  0  0
  158.0100  134.3354  188.5943 C   0  0  0  0  0  0  0  0  0  0  0  0
  159.4658  134.6896  188.2552 C   0  0  0  0  0  0  0  0  0  0  0  0
  157.7880  132.9954  189.1714 C   0  0  0  0  0  0  0  0  0  0  0  0
  156.7002  142.3050  181.8019 C   0  0  0  0  0  0  0  0  0  0  0  0
  157.0647  143.1901  180.9592 O   0  0  0  0  0  0  0  0  0  0  0  0
  155.5657  142.5134  182.6217 N   0  0  0  0  0  0  0  0  0  0  0  0
  154.9918  143.3116  182.6802 H   0  0  0  0  0  0  0  0  0  0  0  0
  158.4976  141.1455  180.6543 C   0  0  0  0  0  0  0  0  0  0  0  0
  157.5473  141.0833  181.8663 C   0  0  0  0  0  0  0  0  0  0  0  0
  158.2998  141.0317  183.0320 O   0  0  0  0  0  0  0  0  0  0  0  0
  159.2182  140.7252  182.8041 H   0  0  0  0  0  0  0  0  0  0  0  0
 32 33  1  0  0  0
 33 34  1  0  0  0
 33 28  1  0  0  0
 28 29  2  0  0  0
 28 30  1  0  0  0
 30  1  1  0  0  0
  1  2  2  0  0  0
  2  3  1  0  0  0
  3  4  2  0  0  0
  4  5  1  0  0  0
  5  6  2  0  0  0
  5 16  1  0  0  0
 16 17  2  0  0  0
 17 18  1  0  0  0
 18 19  2  0  0  0
 19 20  1  0  0  0
 20 21  2  0  0  0
 19 22  1  0  0  0
 22 23  2  0  0  0
 22 24  1  0  0  0
 24 25  2  0  0  0
 25 26  1  0  0  0
 25 27  1  0  0  0
  3  7  1  0  0  0
  7  8  1  0  0  0
  8  9  1  0  0  0
  9 10  1  0  0  0
 10 11  1  0  0  0
 11 12  1  0  0  0
 12 13  1  0  0  0
 13 14  1  0  0  0
 14 15  2  0  0  0
  6  1  1  0  0  0
 21 16  1  0  0  0
 11  7  1  0  0  0
 14 10  1  0  0  0
 34 35  1  0  0  0
 30 31  1  0  0  0
M  END
> <minimizedAffinity>
-7.61724

> <CNNscore>
0.2240248173

> <CNNaffinity>
5.6948704720

> <CNN_VS>
1.2757923603

> <CNNaffinity_variance>
0.0853585079

$$$$
[H]O[C@@]1(C([H])([H])[H])C(=O)N([H])C(=O)[C@@]([H])(c2c([H])c([H])c([H])c(OC([H])([H])[H])c2[H])N([H])C(=O)C1([H])[H]


 24 25  0  0  0  0  0  0  0  0999 V2000
  154.7682  137.5129  187.1075 C   0  0  0  0  0  0  0  0  0  0  0  0
  154.9229  136.1477  186.6831 N   0  0  0  0  0  0  0  0  0  0  0  0
  154.2142  134.9431  186.8695 C   0  0  0  0  0  0  0  0  0  0  0  0
  154.7413  133.9551  186.3017 O   0  0  0  0  0  0  0  0  0  0  0  0
  152.9863  134.5737  187.5837 C   0  0  0  0  0  0  0  0  0  0  0  0
  151.7332  134.9862  186.8454 C   0  0  0  0  0  0  0  0  0  0  0  0
  151.8836  134.5147  185.4176 C   0  0  0  0  0  0  0  0  0  0  0  0
  150.6902  134.2530  187.4063 O   0  0  0  0  0  0  0  0  0  0  0  0
  151.4138  136.4110  186.9486 C   0  0  0  0  0  0  0  0  0  0  0  0
  150.1601  136.5878  187.1378 O   0  0  0  0  0  0  0  0  0  0  0  0
  152.1342  137.6516  186.8932 N   0  0  0  0  0  0  0  0  0  0  0  0
  153.4739  138.0714  186.6967 C   0  0  0  0  0  0  0  0  0  0  0  0
  153.5001  139.1392  186.0331 O   0  0  0  0  0  0  0  0  0  0  0  0
  155.7670  136.0203  186.0939 H   0  0  0  0  0  0  0  0  0  0  0  0
  150.2057  134.7836  188.0740 H   0  0  0  0  0  0  0  0  0  0  0  0
  151.4518  138.4573  187.0429 H   0  0  0  0  0  0  0  0  0  0  0  0
  154.4176  137.6323  190.8717 C   0  0  0  0  0  0  0  0  0  0  0  0
  155.7158  137.9337  191.2251 C   0  0  0  0  0  0  0  0  0  0  0  0
  156.6790  138.0936  190.2613 C   0  0  0  0  0  0  0  0  0  0  0  0
  156.3229  137.9468  188.9323 C   0  0  0  0  0  0  0  0  0  0  0  0
  155.0332  137.6458  188.5502 C   0  0  0  0  0  0  0  0  0  0  0  0
  154.0862  137.4907  189.5369 C   0  0  0  0  0  0  0  0  0  0  0  0
  152.3077  136.6591  191.4578 C   0  0  0  0  0  0  0  0  0  0  0  0
  153.4143  137.4626  191.8136 O   0  0  0  0  0  0  0  0  0  0  0  0
 23 24  1  0  0  0
 24 17  1  0  0  0
 17 18  2  0  0  0
 18 19  1  0  0  0
 19 20  2  0  0  0
 20 21  1  0  0  0
 21 22  2  0  0  0
 21  1  1  0  0  0
  1  2  1  0  0  0
  2  3  1  0  0  0
  3  4  2  0  0  0
  3  5  1  0  0  0
  5  6  1  0  0  0
  6  7  1  0  0  0
  6  8  1  0  0  0
  6  9  1  0  0  0
  9 10  2  0  0  0
  9 11  1  0  0  0
 11 12  1  0  0  0
 12 13  2  0  0  0
 22 17  1  0  0  0
 12  1  1  0  0  0
  2 14  1  0  0  0
  8 15  1  0  0  0
 11 16  1  0  0  0
M  END
> <minimizedAffinity>
-4.58230

> <CNNscore>
0.3858222961

> <CNNaffinity>
3.9711482525

> <CNN_VS>
1.5321575403

> <CNNaffinity_variance>
0.1577909142

$$$$
[H]O[C@@]1(C([H])([H])[H])C(=O)N([H])C(=O)[C@@]([H])(c2c([H])c([H])c([H])c(OC([H])([H])[H])c2[H])N([H])C(=O)C1([H])[H]


 24 25  0  0  0  0  0  0  0  0999 V2000
  152.3490  138.8192  180.7889 C   0  0  0  0  0  0  0  0  0  0  0  0
  151.9995  137.5217  181.3009 N   0  0  0  0  0  0  0  0  0  0  0  0
  151.0661  137.0176  182.2299 C   0  0  0  0  0  0  0  0  0  0  0  0
  151.1241  135.7722  182.3775 O   0  0  0  0  0  0  0  0  0  0  0  0
  150.0291  137.6217  183.0748 C   0  0  0  0  0  0  0  0  0  0  0  0
  148.7854  137.9928  182.2995 C   0  0  0  0  0  0  0  0  0  0  0  0
  148.4024  136.7882  181.4714 C   0  0  0  0  0  0  0  0  0  0  0  0
  147.7765  138.1731  183.2428 O   0  0  0  0  0  0  0  0  0  0  0  0
  148.9114  139.2172  181.5073 C   0  0  0  0  0  0  0  0  0  0  0  0
  147.8568  139.9365  181.6031 O   0  0  0  0  0  0  0  0  0  0  0  0
  149.9013  139.8167  180.6576 N   0  0  0  0  0  0  0  0  0  0  0  0
  151.1973  139.4969  180.1803 C   0  0  0  0  0  0  0  0  0  0  0  0
  151.3332  139.8962  178.9957 O   0  0  0  0  0  0  0  0  0  0  0  0
  152.5804  136.7720  180.8809 H   0  0  0  0  0  0  0  0  0  0  0  0
  147.6592  139.1234  183.4561 H   0  0  0  0  0  0  0  0  0  0  0  0
  149.5353  140.7539  180.3043 H   0  0  0  0  0  0  0  0  0  0  0  0
  153.9083  141.6592  182.7405 C   0  0  0  0  0  0  0  0  0  0  0  0
  154.3177  140.9802  183.8686 C   0  0  0  0  0  0  0  0  0  0  0  0
  154.0910  139.6324  183.9887 C   0  0  0  0  0  0  0  0  0  0  0  0
  153.4457  138.9706  182.9591 C   0  0  0  0  0  0  0  0  0  0  0  0
  153.0255  139.6239  181.8203 C   0  0  0  0  0  0  0  0  0  0  0  0
  153.2653  140.9759  181.7251 C   0  0  0  0  0  0  0  0  0  0  0  0
  155.4532  143.4753  182.5006 C   0  0  0  0  0  0  0  0  0  0  0  0
  154.1176  143.0204  182.5791 O   0  0  0  0  0  0  0  0  0  0  0  0
 23 24  1  0  0  0
 24 17  1  0  0  0
 17 18  2  0  0  0
 18 19  1  0  0  0
 19 20  2  0  0  0
 20 21  1  0  0  0
 21 22  2  0  0  0
 21  1  1  0  0  0
  1  2  1  0  0  0
  2  3  1  0  0  0
  3  4  2  0  0  0
  3  5  1  0  0  0
  5  6  1  0  0  0
  6  7  1  0  0  0
  6  8  1  0  0  0
  6  9  1  0  0  0
  9 10  2  0  0  0
  9 11  1  0  0  0
 11 12  1  0  0  0
 12 13  2  0  0  0
 22 17  1  0  0  0
 12  1  1  0  0  0
  2 14  1  0  0  0
  8 15  1  0  0  0
 11 16  1  0  0  0
M  END
> <minimizedAffinity>
-6.04267

> <CNNscore>
0.3633201718

> <CNNaffinity>
4.3159761429

> <CNN_VS>
1.5680811405

> <CNNaffinity_variance>
0.4761799276

$$$$
[H]O[C@@]1(C([H])([H])[H])C(=O)N([H])C(=O)[C@@]([H])(c2c([H])c([H])c([H])c(OC([H])([H])[H])c2[H])N([H])C(=O)C1([H])[H]


 24 25  0  0  0  0  0  0  0  0999 V2000
  156.3060  137.2806  189.6376 C   0  0  0  0  0  0  0  0  0  0  0  0
  156.2351  137.8724  188.3289 N   0  0  0  0  0  0  0  0  0  0  0  0
  155.4621  137.6706  187.1671 C   0  0  0  0  0  0  0  0  0  0  0  0
  155.7627  138.4400  186.2217 O   0  0  0  0  0  0  0  0  0  0  0  0
  154.3730  136.7561  186.8040 C   0  0  0  0  0  0  0  0  0  0  0  0
  153.0442  137.1632  187.3991 C   0  0  0  0  0  0  0  0  0  0  0  0
  152.8557  138.6326  187.1011 C   0  0  0  0  0  0  0  0  0  0  0  0
  152.0680  136.4760  186.6815 O   0  0  0  0  0  0  0  0  0  0  0  0
  152.8957  136.8421  188.8194 C   0  0  0  0  0  0  0  0  0  0  0  0
  151.7299  136.3735  189.0647 O   0  0  0  0  0  0  0  0  0  0  0  0
  153.7101  136.9153  189.9996 N   0  0  0  0  0  0  0  0  0  0  0  0
  155.0176  137.3452  190.3390 C   0  0  0  0  0  0  0  0  0  0  0  0
  155.0157  137.8805  191.4768 O   0  0  0  0  0  0  0  0  0  0  0  0
  156.9260  138.6375  188.2137 H   0  0  0  0  0  0  0  0  0  0  0  0
  151.7834  135.6677  187.1588 H   0  0  0  0  0  0  0  0  0  0  0  0
  153.1556  136.5386  190.8290 H   0  0  0  0  0  0  0  0  0  0  0  0
  157.1667  133.6630  190.3290 C   0  0  0  0  0  0  0  0  0  0  0  0
  158.0224  133.4136  189.2770 C   0  0  0  0  0  0  0  0  0  0  0  0
  158.3105  134.3992  188.3671 C   0  0  0  0  0  0  0  0  0  0  0  0
  157.7273  135.6439  188.5257 C   0  0  0  0  0  0  0  0  0  0  0  0
  156.8684  135.9212  189.5675 C   0  0  0  0  0  0  0  0  0  0  0  0
  156.5962  134.9149  190.4662 C   0  0  0  0  0  0  0  0  0  0  0  0
  155.4935  132.3151  191.3901 C   0  0  0  0  0  0  0  0  0  0  0  0
  156.8491  132.6956  191.2702 O   0  0  0  0  0  0  0  0  0  0  0  0
 23 24  1  0  0  0
 24 17  1  0  0  0
 17 18  2  0  0  0
 18 19  1  0  0  0
 19 20  2  0  0  0
 20 21  1  0  0  0
 21 22  2  0  0  0
 21  1  1  0  0  0
  1  2  1  0  0  0
  2  3  1  0  0  0
  3  4  2  0  0  0
  3  5  1  0  0  0
  5  6  1  0  0  0
  6  7  1  0  0  0
  6  8  1  0  0  0
  6  9  1  0  0  0
  9 10  2  0  0  0
  9 11  1  0  0  0
 11 12  1  0  0  0
 12 13  2  0  0  0
 22 17  1  0  0  0
 12  1  1  0  0  0
  2 14  1  0  0  0
  8 15  1  0  0  0
 11 16  1  0  0  0
M  END
> <minimizedAffinity>
-4.77802

> <CNNscore>
0.3615404069

> <CNNaffinity>
4.0592861176

> <CNN_VS>
1.4675959349

> <CNNaffinity_variance>
0.1616124958

$$$$
[H]O[C@@]1(C([H])([H])[H])C(=O)N([H])C(=O)[C@@]([H])(c2c([H])c([H])c([H])c(OC([H])([H])[H])c2[H])N([H])C(=O)C1([H])[H]


 24 25  0  0  0  0  0  0  0  0999 V2000
  156.6103  133.9119  191.0482 C   0  0  0  0  0  0  0  0  0  0  0  0
  156.7030  135.2855  191.4635 N   0  0  0  0  0  0  0  0  0  0  0  0
  156.2089  136.5203  190.9951 C   0  0  0  0  0  0  0  0  0  0  0  0
  156.5643  137.5024  191.6919 O   0  0  0  0  0  0  0  0  0  0  0  0
  155.3638  136.9268  189.8661 C   0  0  0  0  0  0  0  0  0  0  0  0
  153.8988  136.6331  190.0961 C   0  0  0  0  0  0  0  0  0  0  0  0
  153.5478  137.1698  191.4644 C   0  0  0  0  0  0  0  0  0  0  0  0
  153.1966  137.3989  189.1684 O   0  0  0  0  0  0  0  0  0  0  0  0
  153.5304  135.2275  189.9193 C   0  0  0  0  0  0  0  0  0  0  0  0
  152.4253  135.1193  189.2822 O   0  0  0  0  0  0  0  0  0  0  0  0
  154.0808  133.9491  190.2713 N   0  0  0  0  0  0  0  0  0  0  0  0
  155.2166  133.4578  190.9630 C   0  0  0  0  0  0  0  0  0  0  0  0
  154.9131  132.4274  191.6167 O   0  0  0  0  0  0  0  0  0  0  0  0
  157.2773  135.3914  192.3207 H   0  0  0  0  0  0  0  0  0  0  0  0
  152.9529  136.8646  188.3827 H   0  0  0  0  0  0  0  0  0  0  0  0
  153.4415  133.1807  189.9000 H   0  0  0  0  0  0  0  0  0  0  0  0
  157.6202  133.4022  187.4390 C   0  0  0  0  0  0  0  0  0  0  0  0
  158.9827  133.2526  187.5889 C   0  0  0  0  0  0  0  0  0  0  0  0
  159.5559  133.3163  188.8338 C   0  0  0  0  0  0  0  0  0  0  0  0
  158.7423  133.5330  189.9319 C   0  0  0  0  0  0  0  0  0  0  0  0
  157.3777  133.6860  189.8116 C   0  0  0  0  0  0  0  0  0  0  0  0
  156.8282  133.6178  188.5516 C   0  0  0  0  0  0  0  0  0  0  0  0
  155.5962  133.4919  186.1592 C   0  0  0  0  0  0  0  0  0  0  0  0
  157.0011  133.3447  186.1997 O   0  0  0  0  0  0  0  0  0  0  0  0
 23 24  1  0  0  0
 24 17  1  0  0  0
 17 18  2  0  0  0
 18 19  1  0  0  0
 19 20  2  0  0  0
 20 21  1  0  0  0
 21 22  2  0  0  0
 21  1  1  0  0  0
  1  2  1  0  0  0
  2  3  1  0  0  0
  3  4  2  0  0  0
  3  5  1  0  0  0
  5  6  1  0  0  0
  6  7  1  0  0  0
  6  8  1  0  0  0
  6  9  1  0  0  0
  9 10  2  0  0  0
  9 11  1  0  0  0
 11 12  1  0  0  0
 12 13  2  0  0  0
 22 17  1  0  0  0
 12  1  1  0  0  0
  2 14  1  0  0  0
  8 15  1  0  0  0
 11 16  1  0  0  0
M  END
> <minimizedAffinity>
-4.52494

> <CNNscore>
0.3596926033

> <CNNaffinity>
3.9103672504

> <CNN_VS>
1.4065301418

> <CNNaffinity_variance>
0.1055034772

$$$$
[H]O[C@@]1(C([H])([H])[H])C(=O)N([H])C(=O)[C@@]([H])(c2c([H])c([H])c([H])c(OC([H])([H])[H])c2[H])N([H])C(=O)C1([H])[H]


 24 25  0  0  0  0  0  0  0  0999 V2000
  154.6381  137.6248  187.4627 C   0  0  0  0  0  0  0  0  0  0  0  0
  154.9441  136.4713  186.6606 N   0  0  0  0  0  0  0  0  0  0  0  0
  154.5219  135.1266  186.6184 C   0  0  0  0  0  0  0  0  0  0  0  0
  155.0864  134.4488  185.7250 O   0  0  0  0  0  0  0  0  0  0  0  0
  153.5620  134.3268  187.3885 C   0  0  0  0  0  0  0  0  0  0  0  0
  152.1270  134.6010  187.0000 C   0  0  0  0  0  0  0  0  0  0  0  0
  152.0531  134.5262  185.4925 C   0  0  0  0  0  0  0  0  0  0  0  0
  151.3780  133.5362  187.4955 O   0  0  0  0  0  0  0  0  0  0  0  0
  151.5837  135.8483  187.5399 C   0  0  0  0  0  0  0  0  0  0  0  0
  150.3882  135.6817  187.9663 O   0  0  0  0  0  0  0  0  0  0  0  0
  152.0384  137.1989  187.7144 N   0  0  0  0  0  0  0  0  0  0  0  0
  153.2067  137.9504  187.4314 C   0  0  0  0  0  0  0  0  0  0  0  0
  152.8969  139.1207  187.0913 O   0  0  0  0  0  0  0  0  0  0  0  0
  155.6522  136.6842  185.9331 H   0  0  0  0  0  0  0  0  0  0  0  0
  150.9585  133.7686  188.3512 H   0  0  0  0  0  0  0  0  0  0  0  0
  151.2689  137.7671  188.1858 H   0  0  0  0  0  0  0  0  0  0  0  0
  156.3780  136.3252  190.5594 C   0  0  0  0  0  0  0  0  0  0  0  0
  156.1095  137.3546  191.4366 C   0  0  0  0  0  0  0  0  0  0  0  0
  155.3806  138.4429  191.0284 C   0  0  0  0  0  0  0  0  0  0  0  0
  154.9220  138.4867  189.7237 C   0  0  0  0  0  0  0  0  0  0  0  0
  155.1754  137.4722  188.8255 C   0  0  0  0  0  0  0  0  0  0  0  0
  155.9088  136.3919  189.2606 C   0  0  0  0  0  0  0  0  0  0  0  0
  157.4156  134.2591  189.9295 C   0  0  0  0  0  0  0  0  0  0  0  0
  157.1104  135.2081  190.9311 O   0  0  0  0  0  0  0  0  0  0  0  0
 23 24  1  0  0  0
 24 17  1  0  0  0
 17 18  2  0  0  0
 18 19  1  0  0  0
 19 20  2  0  0  0
 20 21  1  0  0  0
 21 22  2  0  0  0
 21  1  1  0  0  0
  1  2  1  0  0  0
  2  3  1  0  0  0
  3  4  2  0  0  0
  3  5  1  0  0  0
  5  6  1  0  0  0
  6  7  1  0  0  0
  6  8  1  0  0  0
  6  9  1  0  0  0
  9 10  2  0  0  0
  9 11  1  0  0  0
 11 12  1  0  0  0
 12 13  2  0  0  0
 22 17  1  0  0  0
 12  1  1  0  0  0
  2 14  1  0  0  0
  8 15  1  0  0  0
 11 16  1  0  0  0
M  END
> <minimizedAffinity>
-4.53823

> <CNNscore>
0.3351972699

> <CNNaffinity>
3.9100387096

> <CNN_VS>
1.3106342554

> <CNNaffinity_variance>
0.0566289946

$$$$
[H]O[C@@]1(C([H])([H])[H])C(=O)N([H])C(=O)[C@@]([H])(c2c([H])c([H])c([H])c(OC([H])([H])[H])c2[H])N([H])C(=O)C1([H])[H]


 24 25  0  0  0  0  0  0  0  0999 V2000
  158.6600  141.8048  184.6981 C   0  0  0  0  0  0  0  0  0  0  0  0
  158.1082  142.9007  183.9483 N   0  0  0  0  0  0  0  0  0  0  0  0
  158.1999  143.3670  182.6208 C   0  0  0  0  0  0  0  0  0  0  0  0
  157.5310  144.4072  182.4046 O   0  0  0  0  0  0  0  0  0  0  0  0
  158.9063  142.9101  181.4181 C   0  0  0  0  0  0  0  0  0  0  0  0
  158.2394  141.7216  180.7636 C   0  0  0  0  0  0  0  0  0  0  0  0
  156.7711  142.0534  180.6317 C   0  0  0  0  0  0  0  0  0  0  0  0
  158.7554  141.6467  179.4720 O   0  0  0  0  0  0  0  0  0  0  0  0
  158.4810  140.4463  181.4402 C   0  0  0  0  0  0  0  0  0  0  0  0
  158.7157  139.5149  180.5939 O   0  0  0  0  0  0  0  0  0  0  0  0
  158.5228  139.9716  182.7945 N   0  0  0  0  0  0  0  0  0  0  0  0
  158.3336  140.5072  184.0933 C   0  0  0  0  0  0  0  0  0  0  0  0
  157.7707  139.6605  184.8331 O   0  0  0  0  0  0  0  0  0  0  0  0
  157.4896  143.4946  184.5319 H   0  0  0  0  0  0  0  0  0  0  0  0
  159.4805  140.9881  179.4199 H   0  0  0  0  0  0  0  0  0  0  0  0
  158.7623  138.9324  182.7918 H   0  0  0  0  0  0  0  0  0  0  0  0
  162.0163  142.6766  186.2086 C   0  0  0  0  0  0  0  0  0  0  0  0
  162.8503  142.2946  185.1792 C   0  0  0  0  0  0  0  0  0  0  0  0
  162.3314  141.7671  184.0239 C   0  0  0  0  0  0  0  0  0  0  0  0
  160.9594  141.6265  183.9128 C   0  0  0  0  0  0  0  0  0  0  0  0
  160.1021  141.9998  184.9257 C   0  0  0  0  0  0  0  0  0  0  0  0
  160.6485  142.5262  186.0739 C   0  0  0  0  0  0  0  0  0  0  0  0
  163.3512  142.4076  188.1804 C   0  0  0  0  0  0  0  0  0  0  0  0
  162.4993  143.2137  187.3922 O   0  0  0  0  0  0  0  0  0  0  0  0
 23 24  1  0  0  0
 24 17  1  0  0  0
 17 18  2  0  0  0
 18 19  1  0  0  0
 19 20  2  0  0  0
 20 21  1  0  0  0
 21 22  2  0  0  0
 21  1  1  0  0  0
  1  2  1  0  0  0
  2  3  1  0  0  0
  3  4  2  0  0  0
  3  5  1  0  0  0
  5  6  1  0  0  0
  6  7  1  0  0  0
  6  8  1  0  0  0
  6  9  1  0  0  0
  9 10  2  0  0  0
  9 11  1  0  0  0
 11 12  1  0  0  0
 12 13  2  0  0  0
 22 17  1  0  0  0
 12  1  1  0  0  0
  2 14  1  0  0  0
  8 15  1  0  0  0
 11 16  1  0  0  0
M  END
> <minimizedAffinity>
-7.60635

> <CNNscore>
0.3292365670

> <CNNaffinity>
5.4032983780

> <CNN_VS>
1.7789634466

> <CNNaffinity_variance>
0.1261344254

$$$$
[H]O[C@@]1(C([H])([H])[H])C(=O)N([H])C(=O)[C@@]([H])(c2c([H])c([H])c([H])c(OC([H])([H])[H])c2[H])N([H])C(=O)C1([H])[H]


 24 25  0  0  0  0  0  0  0  0999 V2000
  155.4461  137.1409  187.5696 C   0  0  0  0  0  0  0  0  0  0  0  0
  156.7210  136.4759  187.5703 N   0  0  0  0  0  0  0  0  0  0  0  0
  157.1922  135.1904  187.9074 C   0  0  0  0  0  0  0  0  0  0  0  0
  158.4308  135.0519  187.7565 O   0  0  0  0  0  0  0  0  0  0  0  0
  156.5596  133.9612  188.4005 C   0  0  0  0  0  0  0  0  0  0  0  0
  155.8197  133.2089  187.3179 C   0  0  0  0  0  0  0  0  0  0  0  0
  156.7574  133.0913  186.1387 C   0  0  0  0  0  0  0  0  0  0  0  0
  155.6189  131.9197  187.8056 O   0  0  0  0  0  0  0  0  0  0  0  0
  154.5212  133.7841  186.9633 C   0  0  0  0  0  0  0  0  0  0  0  0
  153.6393  132.8685  186.8128 O   0  0  0  0  0  0  0  0  0  0  0  0
  153.9834  135.0967  186.7420 N   0  0  0  0  0  0  0  0  0  0  0  0
  154.4586  136.4323  186.7457 C   0  0  0  0  0  0  0  0  0  0  0  0
  153.8869  137.0978  185.8449 O   0  0  0  0  0  0  0  0  0  0  0  0
  157.4816  137.0996  187.2408 H   0  0  0  0  0  0  0  0  0  0  0  0
  154.7182  131.8216  188.1816 H   0  0  0  0  0  0  0  0  0  0  0  0
  152.9448  135.0135  186.5147 H   0  0  0  0  0  0  0  0  0  0  0  0
  153.4654  137.1839  190.7915 C   0  0  0  0  0  0  0  0  0  0  0  0
  154.2819  137.9809  191.5657 C   0  0  0  0  0  0  0  0  0  0  0  0
  155.4468  138.4902  191.0501 C   0  0  0  0  0  0  0  0  0  0  0  0
  155.7847  138.1892  189.7425 C   0  0  0  0  0  0  0  0  0  0  0  0
  154.9877  137.3953  188.9459 C   0  0  0  0  0  0  0  0  0  0  0  0
  153.8246  136.8972  189.4876 C   0  0  0  0  0  0  0  0  0  0  0  0
  151.8933  136.9886  192.5896 C   0  0  0  0  0  0  0  0  0  0  0  0
  152.2803  136.6493  191.2734 O   0  0  0  0  0  0  0  0  0  0  0  0
 23 24  1  0  0  0
 24 17  1  0  0  0
 17 18  2  0  0  0
 18 19  1  0  0  0
 19 20  2  0  0  0
 20 21  1  0  0  0
 21 22  2  0  0  0
 21  1  1  0  0  0
  1  2  1  0  0  0
  2  3  1  0  0  0
  3  4  2  0  0  0
  3  5  1  0  0  0
  5  6  1  0  0  0
  6  7  1  0  0  0
  6  8  1  0  0  0
  6  9  1  0  0  0
  9 10  2  0  0  0
  9 11  1  0  0  0
 11 12  1  0  0  0
 12 13  2  0  0  0
 22 17  1  0  0  0
 12  1  1  0  0  0
  2 14  1  0  0  0
  8 15  1  0  0  0
 11 16  1  0  0  0
M  END
> <minimizedAffinity>
-4.62674

> <CNNscore>
0.3163458407

> <CNNaffinity>
4.1226606369

> <CNN_VS>
1.3041865826

> <CNNaffinity_variance>
0.2104664743

$$$$
[H]O[C@@]1(C([H])([H])[H])C(=O)N([H])C(=O)[C@@]([H])(c2c([H])c([H])c([H])c(OC([H])([H])[H])c2[H])N([H])C(=O)C1([H])[H]


 24 25  0  0  0  0  0  0  0  0999 V2000
  154.5788  135.1797  189.9832 C   0  0  0  0  0  0  0  0  0  0  0  0
  154.5975  136.5985  190.2163 N   0  0  0  0  0  0  0  0  0  0  0  0
  154.9840  137.7398  189.4841 C   0  0  0  0  0  0  0  0  0  0  0  0
  154.8298  138.8168  190.1105 O   0  0  0  0  0  0  0  0  0  0  0  0
  155.5321  137.9612  188.1406 C   0  0  0  0  0  0  0  0  0  0  0  0
  154.4869  137.8407  187.0550 C   0  0  0  0  0  0  0  0  0  0  0  0
  153.3067  138.6837  187.4792 C   0  0  0  0  0  0  0  0  0  0  0  0
  155.0289  138.4436  185.9224 O   0  0  0  0  0  0  0  0  0  0  0  0
  154.1185  136.4636  186.7227 C   0  0  0  0  0  0  0  0  0  0  0  0
  154.0124  136.3096  185.4562 O   0  0  0  0  0  0  0  0  0  0  0  0
  153.8471  135.2505  187.4410 N   0  0  0  0  0  0  0  0  0  0  0  0
  153.7922  134.8299  188.7937 C   0  0  0  0  0  0  0  0  0  0  0  0
  152.8690  133.9905  188.9490 O   0  0  0  0  0  0  0  0  0  0  0  0
  154.2370  136.8394  191.1587 H   0  0  0  0  0  0  0  0  0  0  0  0
  155.4153  137.7747  185.3178 H   0  0  0  0  0  0  0  0  0  0  0  0
  153.6312  134.4736  186.7431 H   0  0  0  0  0  0  0  0  0  0  0  0
  157.9658  133.8996  188.8899 C   0  0  0  0  0  0  0  0  0  0  0  0
  158.5168  133.5974  190.1173 C   0  0  0  0  0  0  0  0  0  0  0  0
  157.8024  133.8058  191.2699 C   0  0  0  0  0  0  0  0  0  0  0  0
  156.5226  134.3233  191.1764 C   0  0  0  0  0  0  0  0  0  0  0  0
  155.9468  134.6344  189.9632 C   0  0  0  0  0  0  0  0  0  0  0  0
  156.6850  134.4158  188.8224 C   0  0  0  0  0  0  0  0  0  0  0  0
  159.9518  133.1522  187.7766 C   0  0  0  0  0  0  0  0  0  0  0  0
  158.6532  133.7044  187.7017 O   0  0  0  0  0  0  0  0  0  0  0  0
 23 24  1  0  0  0
 24 17  1  0  0  0
 17 18  2  0  0  0
 18 19  1  0  0  0
 19 20  2  0  0  0
 20 21  1  0  0  0
 21 22  2  0  0  0
 21  1  1  0  0  0
  1  2  1  0  0  0
  2  3  1  0  0  0
  3  4  2  0  0  0
  3  5  1  0  0  0
  5  6  1  0  0  0
  6  7  1  0  0  0
  6  8  1  0  0  0
  6  9  1  0  0  0
  9 10  2  0  0  0
  9 11  1  0  0  0
 11 12  1  0  0  0
 12 13  2  0  0  0
 22 17  1  0  0  0
 12  1  1  0  0  0
  2 14  1  0  0  0
  8 15  1  0  0  0
 11 16  1  0  0  0
M  END
> <minimizedAffinity>
-4.79068

> <CNNscore>
0.3158494830

> <CNNaffinity>
4.0793175697

> <CNN_VS>
1.2884503603

> <CNNaffinity_variance>
0.2394902408

$$$$
[H]O[C@@]1(C([H])([H])[H])C(=O)N([H])C(=O)[C@@]([H])(c2c([H])c([H])c([H])c(OC([H])([H])[H])c2[H])N([H])C(=O)C1([H])[H]


 24 25  0  0  0  0  0  0  0  0999 V2000
  154.5354  137.3063  190.0406 C   0  0  0  0  0  0  0  0  0  0  0  0
  153.7265  136.1640  190.3701 N   0  0  0  0  0  0  0  0  0  0  0  0
  153.7051  134.8009  190.0101 C   0  0  0  0  0  0  0  0  0  0  0  0
  152.7790  134.1504  190.5535 O   0  0  0  0  0  0  0  0  0  0  0  0
  154.5272  133.9566  189.1350 C   0  0  0  0  0  0  0  0  0  0  0  0
  155.8538  133.5853  189.7578 C   0  0  0  0  0  0  0  0  0  0  0  0
  155.5637  133.0785  191.1515 C   0  0  0  0  0  0  0  0  0  0  0  0
  156.3394  132.5039  189.0265 O   0  0  0  0  0  0  0  0  0  0  0  0
  156.8524  134.6553  189.7326 C   0  0  0  0  0  0  0  0  0  0  0  0
  158.0063  134.1989  189.4179 O   0  0  0  0  0  0  0  0  0  0  0  0
  156.8748  136.0715  189.9670 N   0  0  0  0  0  0  0  0  0  0  0  0
  155.9537  137.0803  190.3459 C   0  0  0  0  0  0  0  0  0  0  0  0
  156.5164  137.9227  191.0908 O   0  0  0  0  0  0  0  0  0  0  0  0
  152.9714  136.4060  191.0388 H   0  0  0  0  0  0  0  0  0  0  0  0
  156.9890  132.7974  188.3526 H   0  0  0  0  0  0  0  0  0  0  0  0
  157.8642  136.4353  189.8057 H   0  0  0  0  0  0  0  0  0  0  0  0
  154.9746  138.4224  186.4535 C   0  0  0  0  0  0  0  0  0  0  0  0
  153.6542  138.5292  186.0710 C   0  0  0  0  0  0  0  0  0  0  0  0
  152.6483  138.2448  186.9595 C   0  0  0  0  0  0  0  0  0  0  0  0
  152.9841  137.8500  188.2425 C   0  0  0  0  0  0  0  0  0  0  0  0
  154.2952  137.7347  188.6521 C   0  0  0  0  0  0  0  0  0  0  0  0
  155.2849  138.0260  187.7411 C   0  0  0  0  0  0  0  0  0  0  0  0
  155.7120  139.3472  184.3694 C   0  0  0  0  0  0  0  0  0  0  0  0
  156.0210  138.7004  185.5872 O   0  0  0  0  0  0  0  0  0  0  0  0
 23 24  1  0  0  0
 24 17  1  0  0  0
 17 18  2  0  0  0
 18 19  1  0  0  0
 19 20  2  0  0  0
 20 21  1  0  0  0
 21 22  2  0  0  0
 21  1  1  0  0  0
  1  2  1  0  0  0
  2  3  1  0  0  0
  3  4  2  0  0  0
  3  5  1  0  0  0
  5  6  1  0  0  0
  6  7  1  0  0  0
  6  8  1  0  0  0
  6  9  1  0  0  0
  9 10  2  0  0  0
  9 11  1  0  0  0
 11 12  1  0  0  0
 12 13  2  0  0  0
 22 17  1  0  0  0
 12  1  1  0  0  0
  2 14  1  0  0  0
  8 15  1  0  0  0
 11 16  1  0  0  0
M  END
> <minimizedAffinity>
-4.86283

> <CNNscore>
0.3140153587

> <CNNaffinity>
4.1666097641

> <CNN_VS>
1.3083794117

> <CNNaffinity_variance>
0.3051060140

$$$$
[H]c1c([H])c(C([H])([H])C([H])([H])c2nc([H])c3c([H])c([H])c(=O)n(-c4c([H])c([H])c(SC([H])([H])[H])c([H])c4[H])c3c2[H])c([H])c2c1OC([H])([H])O2


 30 34  0  0  0  0  0  0  0  0999 V2000
  155.7037  140.1885  183.5411 N   0  0  0  0  0  0  0  0  0  0  0  0
  155.1927  139.2976  184.4242 C   0  0  0  0  0  0  0  0  0  0  0  0
  155.9379  138.7778  185.4812 C   0  0  0  0  0  0  0  0  0  0  0  0
  155.3731  137.8878  186.3352 C   0  0  0  0  0  0  0  0  0  0  0  0
  154.1013  137.4769  186.2048 N   0  0  0  0  0  0  0  0  0  0  0  0
  153.3348  137.9556  185.1898 C   0  0  0  0  0  0  0  0  0  0  0  0
  153.8819  138.8615  184.3060 C   0  0  0  0  0  0  0  0  0  0  0  0
  153.1017  139.3603  183.2581 C   0  0  0  0  0  0  0  0  0  0  0  0
  153.6826  140.2661  182.3921 C   0  0  0  0  0  0  0  0  0  0  0  0
  154.9827  140.6900  182.5204 C   0  0  0  0  0  0  0  0  0  0  0  0
  155.5565  141.5103  181.7607 O   0  0  0  0  0  0  0  0  0  0  0  0
  159.7396  141.2955  184.1286 C   0  0  0  0  0  0  0  0  0  0  0  0
  159.3777  140.2654  183.2870 C   0  0  0  0  0  0  0  0  0  0  0  0
  158.0582  139.9107  183.1011 C   0  0  0  0  0  0  0  0  0  0  0  0
  157.0354  140.5662  183.7455 C   0  0  0  0  0  0  0  0  0  0  0  0
  157.3818  141.5947  184.5869 C   0  0  0  0  0  0  0  0  0  0  0  0
  158.7025  141.9481  184.7716 C   0  0  0  0  0  0  0  0  0  0  0  0
  161.6838  142.8040  185.8030 C   0  0  0  0  0  0  0  0  0  0  0  0
  161.4511  141.7552  184.3695 S   0  0  0  0  0  0  0  0  0  0  0  0
  156.1754  137.3427  187.4543 C   0  0  0  0  0  0  0  0  0  0  0  0
  155.9487  138.2411  188.6485 C   0  0  0  0  0  0  0  0  0  0  0  0
  155.3880  137.5474  189.8078 C   0  0  0  0  0  0  0  0  0  0  0  0
  156.2245  136.8441  190.6459 C   0  0  0  0  0  0  0  0  0  0  0  0
  155.7370  136.1663  191.7644 C   0  0  0  0  0  0  0  0  0  0  0  0
  154.3904  136.2025  192.0343 C   0  0  0  0  0  0  0  0  0  0  0  0
  153.6283  135.6346  193.0562 O   0  0  0  0  0  0  0  0  0  0  0  0
  152.3100  136.1411  193.0091 C   0  0  0  0  0  0  0  0  0  0  0  0
  152.2457  136.7523  191.7369 O   0  0  0  0  0  0  0  0  0  0  0  0
  153.5408  136.8941  191.2165 C   0  0  0  0  0  0  0  0  0  0  0  0
  154.0469  137.5558  190.1174 C   0  0  0  0  0  0  0  0  0  0  0  0
 18 19  1  0  0  0
 19 12  1  0  0  0
 12 13  2  0  0  0
 13 14  1  0  0  0
 14 15  2  0  0  0
 15 16  1  0  0  0
 16 17  2  0  0  0
 15  1  1  0  0  0
  1  2  1  0  0  0
  2  3  2  0  0  0
  3  4  1  0  0  0
  4 20  1  0  0  0
 20 21  1  0  0  0
 21 22  1  0  0  0
 22 23  2  0  0  0
 23 24  1  0  0  0
 24 25  2  0  0  0
 25 26  1  0  0  0
 26 27  1  0  0  0
 27 28  1  0  0  0
 28 29  1  0  0  0
 29 30  2  0  0  0
  4  5  2  0  0  0
  5  6  1  0  0  0
  6  7  2  0  0  0
  7  8  1  0  0  0
  8  9  2  0  0  0
  9 10  1  0  0  0
 10 11  2  0  0  0
 17 12  1  0  0  0
 10  1  1  0  0  0
  7  2  1  0  0  0
 30 22  1  0  0  0
 29 25  1  0  0  0
M  END
> <minimizedAffinity>
-8.62707

> <CNNscore>
0.5655122399

> <CNNaffinity>
6.5368041992

> <CNN_VS>
3.6966428757

> <CNNaffinity_variance>
0.0844192281

$$$$
[H]c1c([H])c(C([H])([H])C([H])([H])c2nc([H])c3c([H])c([H])c(=O)n(-c4c([H])c([H])c(SC([H])([H])[H])c([H])c4[H])c3c2[H])c([H])c2c1OC([H])([H])O2


 30 34  0  0  0  0  0  0  0  0999 V2000
  153.1576  137.6939  185.6067 N   0  0  0  0  0  0  0  0  0  0  0  0
  153.5796  138.4758  184.5843 C   0  0  0  0  0  0  0  0  0  0  0  0
  154.7166  139.2772  184.6730 C   0  0  0  0  0  0  0  0  0  0  0  0
  155.0919  140.0404  183.6161 C   0  0  0  0  0  0  0  0  0  0  0  0
  154.4022  140.0584  182.4641 N   0  0  0  0  0  0  0  0  0  0  0  0
  153.2867  139.2939  182.3296 C   0  0  0  0  0  0  0  0  0  0  0  0
  152.8809  138.5079  183.3873 C   0  0  0  0  0  0  0  0  0  0  0  0
  151.7343  137.7175  183.2593 C   0  0  0  0  0  0  0  0  0  0  0  0
  151.3576  136.9427  184.3389 C   0  0  0  0  0  0  0  0  0  0  0  0
  152.0590  136.9201  185.5197 C   0  0  0  0  0  0  0  0  0  0  0  0
  151.7585  136.2342  186.5289 O   0  0  0  0  0  0  0  0  0  0  0  0
  155.4610  137.8362  189.1468 C   0  0  0  0  0  0  0  0  0  0  0  0
  154.2918  138.5523  189.0045 C   0  0  0  0  0  0  0  0  0  0  0  0
  153.5462  138.5001  187.8457 C   0  0  0  0  0  0  0  0  0  0  0  0
  153.9305  137.7311  186.7724 C   0  0  0  0  0  0  0  0  0  0  0  0
  155.0936  137.0123  186.9008 C   0  0  0  0  0  0  0  0  0  0  0  0
  155.8382  137.0658  188.0609 C   0  0  0  0  0  0  0  0  0  0  0  0
  156.2927  136.4043  191.6201 C   0  0  0  0  0  0  0  0  0  0  0  0
  156.4279  137.9041  190.6500 S   0  0  0  0  0  0  0  0  0  0  0  0
  156.3019  140.8876  183.7230 C   0  0  0  0  0  0  0  0  0  0  0  0
  157.3524  140.0800  184.4501 C   0  0  0  0  0  0  0  0  0  0  0  0
  158.5931  140.8149  184.6956 C   0  0  0  0  0  0  0  0  0  0  0  0
  159.5673  140.8430  183.7225 C   0  0  0  0  0  0  0  0  0  0  0  0
  160.7675  141.5304  183.9098 C   0  0  0  0  0  0  0  0  0  0  0  0
  160.9806  142.1943  185.0936 C   0  0  0  0  0  0  0  0  0  0  0  0
  162.0575  142.9507  185.5582 O   0  0  0  0  0  0  0  0  0  0  0  0
  161.7032  143.6000  186.7622 C   0  0  0  0  0  0  0  0  0  0  0  0
  160.5198  142.9332  187.1509 O   0  0  0  0  0  0  0  0  0  0  0  0
  160.0279  142.1805  186.0740 C   0  0  0  0  0  0  0  0  0  0  0  0
  158.8502  141.4940  185.8649 C   0  0  0  0  0  0  0  0  0  0  0  0
 18 19  1  0  0  0
 19 12  1  0  0  0
 12 13  2  0  0  0
 13 14  1  0  0  0
 14 15  2  0  0  0
 15 16  1  0  0  0
 16 17  2  0  0  0
 15  1  1  0  0  0
  1  2  1  0  0  0
  2  3  2  0  0  0
  3  4  1  0  0  0
  4 20  1  0  0  0
 20 21  1  0  0  0
 21 22  1  0  0  0
 22 23  2  0  0  0
 23 24  1  0  0  0
 24 25  2  0  0  0
 25 26  1  0  0  0
 26 27  1  0  0  0
 27 28  1  0  0  0
 28 29  1  0  0  0
 29 30  2  0  0  0
  4  5  2  0  0  0
  5  6  1  0  0  0
  6  7  2  0  0  0
  7  8  1  0  0  0
  8  9  2  0  0  0
  9 10  1  0  0  0
 10 11  2  0  0  0
 17 12  1  0  0  0
 10  1  1  0  0  0
  7  2  1  0  0  0
 30 22  1  0  0  0
 29 25  1  0  0  0
M  END
> <minimizedAffinity>
-9.48031

> <CNNscore>
0.5132716298

> <CNNaffinity>
6.6391344070

> <CNN_VS>
3.4076793194

> <CNNaffinity_variance>
0.0991931111

$$$$
[H]c1c([H])c(C([H])([H])C([H])([H])c2nc([H])c3c([H])c([H])c(=O)n(-c4c([H])c([H])c(SC([H])([H])[H])c([H])c4[H])c3c2[H])c([H])c2c1OC([H])([H])O2


 30 34  0  0  0  0  0  0  0  0999 V2000
  153.1769  138.1677  184.4920 N   0  0  0  0  0  0  0  0  0  0  0  0
  153.3909  139.2675  183.7308 C   0  0  0  0  0  0  0  0  0  0  0  0
  154.2014  140.3221  184.1477 C   0  0  0  0  0  0  0  0  0  0  0  0
  154.3795  141.3992  183.3426 C   0  0  0  0  0  0  0  0  0  0  0  0
  153.7975  141.4966  182.1363 N   0  0  0  0  0  0  0  0  0  0  0  0
  152.9985  140.4938  181.6860 C   0  0  0  0  0  0  0  0  0  0  0  0
  152.7989  139.3863  182.4828 C   0  0  0  0  0  0  0  0  0  0  0  0
  151.9784  138.3487  182.0288 C   0  0  0  0  0  0  0  0  0  0  0  0
  151.8012  137.2549  182.8533 C   0  0  0  0  0  0  0  0  0  0  0  0
  152.3938  137.1496  184.0880 C   0  0  0  0  0  0  0  0  0  0  0  0
  152.2646  136.1777  184.8741 O   0  0  0  0  0  0  0  0  0  0  0  0
  155.1551  138.0762  188.2253 C   0  0  0  0  0  0  0  0  0  0  0  0
  155.7827  137.7077  187.0546 C   0  0  0  0  0  0  0  0  0  0  0  0
  155.1297  137.7406  185.8406 C   0  0  0  0  0  0  0  0  0  0  0  0
  153.8189  138.1426  185.7350 C   0  0  0  0  0  0  0  0  0  0  0  0
  153.1814  138.5126  186.8937 C   0  0  0  0  0  0  0  0  0  0  0  0
  153.8365  138.4790  188.1074 C   0  0  0  0  0  0  0  0  0  0  0  0
  154.9844  138.6414  191.1426 C   0  0  0  0  0  0  0  0  0  0  0  0
  156.0024  138.0335  189.7998 S   0  0  0  0  0  0  0  0  0  0  0  0
  155.2429  142.5133  183.7971 C   0  0  0  0  0  0  0  0  0  0  0  0
  156.6536  141.9784  183.8905 C   0  0  0  0  0  0  0  0  0  0  0  0
  157.4216  142.1275  182.6546 C   0  0  0  0  0  0  0  0  0  0  0  0
  157.5717  141.0455  181.8159 C   0  0  0  0  0  0  0  0  0  0  0  0
  158.2952  141.1382  180.6259 C   0  0  0  0  0  0  0  0  0  0  0  0
  158.8707  142.3381  180.2846 C   0  0  0  0  0  0  0  0  0  0  0  0
  159.6351  142.7262  179.1833 O   0  0  0  0  0  0  0  0  0  0  0  0
  159.8127  144.1281  179.1933 C   0  0  0  0  0  0  0  0  0  0  0  0
  159.4204  144.4926  180.5007 O   0  0  0  0  0  0  0  0  0  0  0  0
  158.7352  143.4259  181.1014 C   0  0  0  0  0  0  0  0  0  0  0  0
  158.0154  143.3089  182.2720 C   0  0  0  0  0  0  0  0  0  0  0  0
 18 19  1  0  0  0
 19 12  1  0  0  0
 12 13  2  0  0  0
 13 14  1  0  0  0
 14 15  2  0  0  0
 15 16  1  0  0  0
 16 17  2  0  0  0
 15  1  1  0  0  0
  1  2  1  0  0  0
  2  3  2  0  0  0
  3  4  1  0  0  0
  4 20  1  0  0  0
 20 21  1  0  0  0
 21 22  1  0  0  0
 22 23  2  0  0  0
 23 24  1  0  0  0
 24 25  2  0  0  0
 25 26  1  0  0  0
 26 27  1  0  0  0
 27 28  1  0  0  0
 28 29  1  0  0  0
 29 30  2  0  0  0
  4  5  2  0  0  0
  5  6  1  0  0  0
  6  7  2  0  0  0
  7  8  1  0  0  0
  8  9  2  0  0  0
  9 10  1  0  0  0
 10 11  2  0  0  0
 17 12  1  0  0  0
 10  1  1  0  0  0
  7  2  1  0  0  0
 30 22  1  0  0  0
 29 25  1  0  0  0
M  END
> <minimizedAffinity>
-8.44094

> <CNNscore>
0.5094665885

> <CNNaffinity>
6.6200804710

> <CNN_VS>
3.3727097511

> <CNNaffinity_variance>
0.1116212010

$$$$
[H]c1c([H])c(C([H])([H])C([H])([H])c2nc([H])c3c([H])c([H])c(=O)n(-c4c([H])c([H])c(SC([H])([H])[H])c([H])c4[H])c3c2[H])c([H])c2c1OC([H])([H])O2


 30 34  0  0  0  0  0  0  0  0999 V2000
  155.8087  139.5254  184.3452 N   0  0  0  0  0  0  0  0  0  0  0  0
  154.6375  139.0932  183.8198 C   0  0  0  0  0  0  0  0  0  0  0  0
  154.1279  139.5838  182.6188 C   0  0  0  0  0  0  0  0  0  0  0  0
  152.9488  139.1134  182.1405 C   0  0  0  0  0  0  0  0  0  0  0  0
  152.2359  138.1764  182.7862 N   0  0  0  0  0  0  0  0  0  0  0  0
  152.6917  137.6674  183.9610 C   0  0  0  0  0  0  0  0  0  0  0  0
  153.8873  138.1265  184.4717 C   0  0  0  0  0  0  0  0  0  0  0  0
  154.3654  137.6093  185.6799 C   0  0  0  0  0  0  0  0  0  0  0  0
  155.5664  138.0924  186.1615 C   0  0  0  0  0  0  0  0  0  0  0  0
  156.3000  139.0506  185.5056 C   0  0  0  0  0  0  0  0  0  0  0  0
  157.3957  139.5221  185.9009 O   0  0  0  0  0  0  0  0  0  0  0  0
  157.8401  142.5093  182.1476 C   0  0  0  0  0  0  0  0  0  0  0  0
  156.7485  142.7976  182.9386 C   0  0  0  0  0  0  0  0  0  0  0  0
  156.0915  141.8177  183.6525 C   0  0  0  0  0  0  0  0  0  0  0  0
  156.4911  140.5025  183.6122 C   0  0  0  0  0  0  0  0  0  0  0  0
  157.5775  140.2013  182.8280 C   0  0  0  0  0  0  0  0  0  0  0  0
  158.2336  141.1830  182.1145 C   0  0  0  0  0  0  0  0  0  0  0  0
  159.1200  143.2511  179.5649 C   0  0  0  0  0  0  0  0  0  0  0  0
  158.6920  143.7805  181.2219 S   0  0  0  0  0  0  0  0  0  0  0  0
  152.4179  139.6428  180.8633 C   0  0  0  0  0  0  0  0  0  0  0  0
  151.0734  140.2665  181.1602 C   0  0  0  0  0  0  0  0  0  0  0  0
  149.9471  139.5432  180.5706 C   0  0  0  0  0  0  0  0  0  0  0  0
  148.9612  139.0406  181.3905 C   0  0  0  0  0  0  0  0  0  0  0  0
  147.8671  138.3438  180.8752 C   0  0  0  0  0  0  0  0  0  0  0  0
  147.7729  138.1556  179.5176 C   0  0  0  0  0  0  0  0  0  0  0  0
  146.8169  137.5137  178.7290 O   0  0  0  0  0  0  0  0  0  0  0  0
  147.0669  137.7772  177.3633 C   0  0  0  0  0  0  0  0  0  0  0  0
  148.3779  138.3038  177.3722 O   0  0  0  0  0  0  0  0  0  0  0  0
  148.7394  138.6455  178.6840 C   0  0  0  0  0  0  0  0  0  0  0  0
  149.8108  139.3307  179.2175 C   0  0  0  0  0  0  0  0  0  0  0  0
 18 19  1  0  0  0
 19 12  1  0  0  0
 12 13  2  0  0  0
 13 14  1  0  0  0
 14 15  2  0  0  0
 15 16  1  0  0  0
 16 17  2  0  0  0
 15  1  1  0  0  0
  1  2  1  0  0  0
  2  3  2  0  0  0
  3  4  1  0  0  0
  4 20  1  0  0  0
 20 21  1  0  0  0
 21 22  1  0  0  0
 22 23  2  0  0  0
 23 24  1  0  0  0
 24 25  2  0  0  0
 25 26  1  0  0  0
 26 27  1  0  0  0
 27 28  1  0  0  0
 28 29  1  0  0  0
 29 30  2  0  0  0
  4  5  2  0  0  0
  5  6  1  0  0  0
  6  7  2  0  0  0
  7  8  1  0  0  0
  8  9  2  0  0  0
  9 10  1  0  0  0
 10 11  2  0  0  0
 17 12  1  0  0  0
 10  1  1  0  0  0
  7  2  1  0  0  0
 30 22  1  0  0  0
 29 25  1  0  0  0
M  END
> <minimizedAffinity>
-7.13786

> <CNNscore>
0.4635598361

> <CNNaffinity>
6.3265113831

> <CNN_VS>
2.9327166080

> <CNNaffinity_variance>
0.0587903261

$$$$
[H]c1c([H])c(C([H])([H])C([H])([H])c2nc([H])c3c([H])c([H])c(=O)n(-c4c([H])c([H])c(SC([H])([H])[H])c([H])c4[H])c3c2[H])c([H])c2c1OC([H])([H])O2


 30 34  0  0  0  0  0  0  0  0999 V2000
  156.2731  140.8114  183.4376 N   0  0  0  0  0  0  0  0  0  0  0  0
  155.6761  139.8957  184.2375 C   0  0  0  0  0  0  0  0  0  0  0  0
  156.3389  139.2809  185.2984 C   0  0  0  0  0  0  0  0  0  0  0  0
  155.6899  138.3704  186.0665 C   0  0  0  0  0  0  0  0  0  0  0  0
  154.4103  138.0280  185.8456 N   0  0  0  0  0  0  0  0  0  0  0  0
  153.7221  138.6004  184.8230 C   0  0  0  0  0  0  0  0  0  0  0  0
  154.3559  139.5294  184.0253 C   0  0  0  0  0  0  0  0  0  0  0  0
  153.6567  140.1243  182.9703 C   0  0  0  0  0  0  0  0  0  0  0  0
  154.3231  141.0505  182.1920 C   0  0  0  0  0  0  0  0  0  0  0  0
  155.6317  141.4047  182.4131 C   0  0  0  0  0  0  0  0  0  0  0  0
  156.2815  142.2399  181.7353 O   0  0  0  0  0  0  0  0  0  0  0  0
  160.2876  141.7463  184.3700 C   0  0  0  0  0  0  0  0  0  0  0  0
  159.2388  142.1361  185.1751 C   0  0  0  0  0  0  0  0  0  0  0  0
  157.9317  141.8268  184.8634 C   0  0  0  0  0  0  0  0  0  0  0  0
  157.6069  141.1136  183.7333 C   0  0  0  0  0  0  0  0  0  0  0  0
  158.6423  140.7188  182.9222 C   0  0  0  0  0  0  0  0  0  0  0  0
  159.9494  141.0293  183.2358 C   0  0  0  0  0  0  0  0  0  0  0  0
  162.1559  142.7954  186.4358 C   0  0  0  0  0  0  0  0  0  0  0  0
  161.9828  142.1478  184.7746 S   0  0  0  0  0  0  0  0  0  0  0  0
  156.4052  137.7240  187.1907 C   0  0  0  0  0  0  0  0  0  0  0  0
  155.7682  136.3708  187.4092 C   0  0  0  0  0  0  0  0  0  0  0  0
  156.5897  135.4555  188.2009 C   0  0  0  0  0  0  0  0  0  0  0  0
  157.8774  135.1801  187.7975 C   0  0  0  0  0  0  0  0  0  0  0  0
  158.6998  134.3137  188.5194 C   0  0  0  0  0  0  0  0  0  0  0  0
  158.2116  133.7224  189.6593 C   0  0  0  0  0  0  0  0  0  0  0  0
  158.7861  132.8322  190.5678 O   0  0  0  0  0  0  0  0  0  0  0  0
  157.9428  132.6838  191.6919 C   0  0  0  0  0  0  0  0  0  0  0  0
  156.7223  133.2452  191.2546 O   0  0  0  0  0  0  0  0  0  0  0  0
  156.9365  133.9807  190.0793 C   0  0  0  0  0  0  0  0  0  0  0  0
  156.1435  134.8405  189.3486 C   0  0  0  0  0  0  0  0  0  0  0  0
 18 19  1  0  0  0
 19 12  1  0  0  0
 12 13  2  0  0  0
 13 14  1  0  0  0
 14 15  2  0  0  0
 15 16  1  0  0  0
 16 17  2  0  0  0
 15  1  1  0  0  0
  1  2  1  0  0  0
  2  3  2  0  0  0
  3  4  1  0  0  0
  4 20  1  0  0  0
 20 21  1  0  0  0
 21 22  1  0  0  0
 22 23  2  0  0  0
 23 24  1  0  0  0
 24 25  2  0  0  0
 25 26  1  0  0  0
 26 27  1  0  0  0
 27 28  1  0  0  0
 28 29  1  0  0  0
 29 30  2  0  0  0
  4  5  2  0  0  0
  5  6  1  0  0  0
  6  7  2  0  0  0
  7  8  1  0  0  0
  8  9  2  0  0  0
  9 10  1  0  0  0
 10 11  2  0  0  0
 17 12  1  0  0  0
 10  1  1  0  0  0
  7  2  1  0  0  0
 30 22  1  0  0  0
 29 25  1  0  0  0
M  END
> <minimizedAffinity>
-8.17285

> <CNNscore>
0.3901646137

> <CNNaffinity>
6.4031333923

> <CNN_VS>
2.4982759953

> <CNNaffinity_variance>
0.1281482428

$$$$
[H]c1c([H])c(C([H])([H])C([H])([H])c2nc([H])c3c([H])c([H])c(=O)n(-c4c([H])c([H])c(SC([H])([H])[H])c([H])c4[H])c3c2[H])c([H])c2c1OC([H])([H])O2


 30 34  0  0  0  0  0  0  0  0999 V2000
  153.0955  137.6853  184.2338 N   0  0  0  0  0  0  0  0  0  0  0  0
  153.2386  138.7512  183.4103 C   0  0  0  0  0  0  0  0  0  0  0  0
  153.8030  139.9540  183.8317 C   0  0  0  0  0  0  0  0  0  0  0  0
  153.9209  140.9885  182.9621 C   0  0  0  0  0  0  0  0  0  0  0  0
  153.5095  140.9035  181.6867 N   0  0  0  0  0  0  0  0  0  0  0  0
  152.9528  139.7512  181.2293 C   0  0  0  0  0  0  0  0  0  0  0  0
  152.8198  138.6827  182.0904 C   0  0  0  0  0  0  0  0  0  0  0  0
  152.2483  137.4923  181.6298 C   0  0  0  0  0  0  0  0  0  0  0  0
  152.1311  136.4428  182.5200 C   0  0  0  0  0  0  0  0  0  0  0  0
  152.5501  136.5239  183.8255 C   0  0  0  0  0  0  0  0  0  0  0  0
  152.4659  135.5999  184.6731 O   0  0  0  0  0  0  0  0  0  0  0  0
  154.5080  138.1830  188.1856 C   0  0  0  0  0  0  0  0  0  0  0  0
  155.3374  137.7965  187.1545 C   0  0  0  0  0  0  0  0  0  0  0  0
  154.8681  137.6365  185.8678 C   0  0  0  0  0  0  0  0  0  0  0  0
  153.5488  137.8541  185.5468 C   0  0  0  0  0  0  0  0  0  0  0  0
  152.7113  138.2397  186.5646 C   0  0  0  0  0  0  0  0  0  0  0  0
  153.1827  138.3992  187.8513 C   0  0  0  0  0  0  0  0  0  0  0  0
  156.8212  137.8678  190.0319 C   0  0  0  0  0  0  0  0  0  0  0  0
  155.1170  138.3905  189.8544 S   0  0  0  0  0  0  0  0  0  0  0  0
  154.5223  142.2614  183.4221 C   0  0  0  0  0  0  0  0  0  0  0  0
  155.4815  142.7188  182.3472 C   0  0  0  0  0  0  0  0  0  0  0  0
  156.8687  142.8168  182.8004 C   0  0  0  0  0  0  0  0  0  0  0  0
  157.6993  143.7615  182.2394 C   0  0  0  0  0  0  0  0  0  0  0  0
  159.0302  143.8936  182.6386 C   0  0  0  0  0  0  0  0  0  0  0  0
  159.5219  143.0608  183.6143 C   0  0  0  0  0  0  0  0  0  0  0  0
  160.7820  142.9588  184.2056 O   0  0  0  0  0  0  0  0  0  0  0  0
  160.7227  142.0813  185.3116 C   0  0  0  0  0  0  0  0  0  0  0  0
  159.4838  141.4254  185.1357 O   0  0  0  0  0  0  0  0  0  0  0  0
  158.7162  142.1156  184.1856 C   0  0  0  0  0  0  0  0  0  0  0  0
  157.4046  142.0047  183.7740 C   0  0  0  0  0  0  0  0  0  0  0  0
 18 19  1  0  0  0
 19 12  1  0  0  0
 12 13  2  0  0  0
 13 14  1  0  0  0
 14 15  2  0  0  0
 15 16  1  0  0  0
 16 17  2  0  0  0
 15  1  1  0  0  0
  1  2  1  0  0  0
  2  3  2  0  0  0
  3  4  1  0  0  0
  4 20  1  0  0  0
 20 21  1  0  0  0
 21 22  1  0  0  0
 22 23  2  0  0  0
 23 24  1  0  0  0
 24 25  2  0  0  0
 25 26  1  0  0  0
 26 27  1  0  0  0
 27 28  1  0  0  0
 28 29  1  0  0  0
 29 30  2  0  0  0
  4  5  2  0  0  0
  5  6  1  0  0  0
  6  7  2  0  0  0
  7  8  1  0  0  0
  8  9  2  0  0  0
  9 10  1  0  0  0
 10 11  2  0  0  0
 17 12  1  0  0  0
 10  1  1  0  0  0
  7  2  1  0  0  0
 30 22  1  0  0  0
 29 25  1  0  0  0
M  END
> <minimizedAffinity>
-8.39214

> <CNNscore>
0.3763438165

> <CNNaffinity>
6.4760942459

> <CNN_VS>
2.4372379780

> <CNNaffinity_variance>
0.2116729319

$$$$
[H]c1c([H])c(C([H])([H])C([H])([H])c2nc([H])c3c([H])c([H])c(=O)n(-c4c([H])c([H])c(SC([H])([H])[H])c([H])c4[H])c3c2[H])c([H])c2c1OC([H])([H])O2


 30 34  0  0  0  0  0  0  0  0999 V2000
  154.2369  136.7185  190.3864 N   0  0  0  0  0  0  0  0  0  0  0  0
  154.0611  137.1675  189.1205 C   0  0  0  0  0  0  0  0  0  0  0  0
  152.8406  137.0733  188.4541 C   0  0  0  0  0  0  0  0  0  0  0  0
  152.7232  137.5403  187.1859 C   0  0  0  0  0  0  0  0  0  0  0  0
  153.7522  138.1012  186.5303 N   0  0  0  0  0  0  0  0  0  0  0  0
  154.9621  138.2155  187.1385 C   0  0  0  0  0  0  0  0  0  0  0  0
  155.1114  137.7495  188.4275 C   0  0  0  0  0  0  0  0  0  0  0  0
  156.3524  137.8622  189.0625 C   0  0  0  0  0  0  0  0  0  0  0  0
  156.4653  137.3849  190.3536 C   0  0  0  0  0  0  0  0  0  0  0  0
  155.4165  136.8102  191.0292 C   0  0  0  0  0  0  0  0  0  0  0  0
  155.4677  136.3615  192.2018 O   0  0  0  0  0  0  0  0  0  0  0  0
  150.8671  134.9512  192.2249 C   0  0  0  0  0  0  0  0  0  0  0  0
  151.7934  134.2081  191.5248 C   0  0  0  0  0  0  0  0  0  0  0  0
  152.8902  134.7930  190.9279 C   0  0  0  0  0  0  0  0  0  0  0  0
  153.1166  136.1474  191.0002 C   0  0  0  0  0  0  0  0  0  0  0  0
  152.2015  136.8997  191.6948 C   0  0  0  0  0  0  0  0  0  0  0  0
  151.1048  136.3128  192.2913 C   0  0  0  0  0  0  0  0  0  0  0  0
  149.7294  133.8030  194.7242 C   0  0  0  0  0  0  0  0  0  0  0  0
  149.4446  134.1923  192.9990 S   0  0  0  0  0  0  0  0  0  0  0  0
  151.4210  137.4342  186.4885 C   0  0  0  0  0  0  0  0  0  0  0  0
  151.6287  136.5471  185.2824 C   0  0  0  0  0  0  0  0  0  0  0  0
  151.3231  137.2027  184.0111 C   0  0  0  0  0  0  0  0  0  0  0  0
  150.0090  137.4104  183.6550 C   0  0  0  0  0  0  0  0  0  0  0  0
  149.6672  138.0315  182.4526 C   0  0  0  0  0  0  0  0  0  0  0  0
  150.6666  138.4449  181.6054 C   0  0  0  0  0  0  0  0  0  0  0  0
  150.6331  139.0802  180.3632 O   0  0  0  0  0  0  0  0  0  0  0  0
  151.9368  139.4826  179.9953 C   0  0  0  0  0  0  0  0  0  0  0  0
  152.7596  138.7673  180.8939 O   0  0  0  0  0  0  0  0  0  0  0  0
  151.9782  138.2493  181.9377 C   0  0  0  0  0  0  0  0  0  0  0  0
  152.2903  137.6332  183.1314 C   0  0  0  0  0  0  0  0  0  0  0  0
 18 19  1  0  0  0
 19 12  1  0  0  0
 12 13  2  0  0  0
 13 14  1  0  0  0
 14 15  2  0  0  0
 15 16  1  0  0  0
 16 17  2  0  0  0
 15  1  1  0  0  0
  1  2  1  0  0  0
  2  3  2  0  0  0
  3  4  1  0  0  0
  4 20  1  0  0  0
 20 21  1  0  0  0
 21 22  1  0  0  0
 22 23  2  0  0  0
 23 24  1  0  0  0
 24 25  2  0  0  0
 25 26  1  0  0  0
 26 27  1  0  0  0
 27 28  1  0  0  0
 28 29  1  0  0  0
 29 30  2  0  0  0
  4  5  2  0  0  0
  5  6  1  0  0  0
  6  7  2  0  0  0
  7  8  1  0  0  0
  8  9  2  0  0  0
  9 10  1  0  0  0
 10 11  2  0  0  0
 17 12  1  0  0  0
 10  1  1  0  0  0
  7  2  1  0  0  0
 30 22  1  0  0  0
 29 25  1  0  0  0
M  END
> <minimizedAffinity>
-6.35064

> <CNNscore>
0.3595304191

> <CNNaffinity>
5.7128171921

> <CNN_VS>
2.0539314747

> <CNNaffinity_variance>
0.0921208635

$$$$
[H]c1c([H])c(C([H])([H])C([H])([H])c2nc([H])c3c([H])c([H])c(=O)n(-c4c([H])c([H])c(SC([H])([H])[H])c([H])c4[H])c3c2[H])c([H])c2c1OC([H])([H])O2


 30 34  0  0  0  0  0  0  0  0999 V2000
  155.9149  136.4021  189.6140 N   0  0  0  0  0  0  0  0  0  0  0  0
  155.1213  137.1403  188.8016 C   0  0  0  0  0  0  0  0  0  0  0  0
  154.9289  136.8294  187.4565 C   0  0  0  0  0  0  0  0  0  0  0  0
  154.1222  137.6055  186.6903 C   0  0  0  0  0  0  0  0  0  0  0  0
  153.4872  138.6824  187.1804 N   0  0  0  0  0  0  0  0  0  0  0  0
  153.6434  139.0258  188.4860 C   0  0  0  0  0  0  0  0  0  0  0  0
  154.4575  138.2556  189.2892 C   0  0  0  0  0  0  0  0  0  0  0  0
  154.6251  138.6003  190.6341 C   0  0  0  0  0  0  0  0  0  0  0  0
  155.4477  137.8062  191.4089 C   0  0  0  0  0  0  0  0  0  0  0  0
  156.0998  136.7035  190.9133 C   0  0  0  0  0  0  0  0  0  0  0  0
  156.8573  135.9504  191.5752 O   0  0  0  0  0  0  0  0  0  0  0  0
  157.8410  133.0905  187.8302 C   0  0  0  0  0  0  0  0  0  0  0  0
  158.3961  134.3522  187.8224 C   0  0  0  0  0  0  0  0  0  0  0  0
  157.7607  135.4274  188.4069 C   0  0  0  0  0  0  0  0  0  0  0  0
  156.5407  135.2965  189.0277 C   0  0  0  0  0  0  0  0  0  0  0  0
  155.9762  134.0447  189.0429 C   0  0  0  0  0  0  0  0  0  0  0  0
  156.6135  132.9702  188.4576 C   0  0  0  0  0  0  0  0  0  0  0  0
  160.4368  131.9322  186.9474 C   0  0  0  0  0  0  0  0  0  0  0  0
  158.6655  131.6961  187.0721 S   0  0  0  0  0  0  0  0  0  0  0  0
  153.9261  137.2646  185.2625 C   0  0  0  0  0  0  0  0  0  0  0  0
  154.6412  138.3176  184.4473 C   0  0  0  0  0  0  0  0  0  0  0  0
  153.8237  138.8876  183.3767 C   0  0  0  0  0  0  0  0  0  0  0  0
  154.0040  140.2041  183.0146 C   0  0  0  0  0  0  0  0  0  0  0  0
  153.2485  140.7928  181.9994 C   0  0  0  0  0  0  0  0  0  0  0  0
  152.3028  140.0397  181.3467 C   0  0  0  0  0  0  0  0  0  0  0  0
  151.4158  140.3470  180.3139 O   0  0  0  0  0  0  0  0  0  0  0  0
  150.7929  139.1665  179.8501 C   0  0  0  0  0  0  0  0  0  0  0  0
  151.0909  138.2267  180.8620 O   0  0  0  0  0  0  0  0  0  0  0  0
  152.1061  138.7308  181.6888 C   0  0  0  0  0  0  0  0  0  0  0  0
  152.8653  138.1720  182.6954 C   0  0  0  0  0  0  0  0  0  0  0  0
 18 19  1  0  0  0
 19 12  1  0  0  0
 12 13  2  0  0  0
 13 14  1  0  0  0
 14 15  2  0  0  0
 15 16  1  0  0  0
 16 17  2  0  0  0
 15  1  1  0  0  0
  1  2  1  0  0  0
  2  3  2  0  0  0
  3  4  1  0  0  0
  4 20  1  0  0  0
 20 21  1  0  0  0
 21 22  1  0  0  0
 22 23  2  0  0  0
 23 24  1  0  0  0
 24 25  2  0  0  0
 25 26  1  0  0  0
 26 27  1  0  0  0
 27 28  1  0  0  0
 28 29  1  0  0  0
 29 30  2  0  0  0
  4  5  2  0  0  0
  5  6  1  0  0  0
  6  7  2  0  0  0
  7  8  1  0  0  0
  8  9  2  0  0  0
  9 10  1  0  0  0
 10 11  2  0  0  0
 17 12  1  0  0  0
 10  1  1  0  0  0
  7  2  1  0  0  0
 30 22  1  0  0  0
 29 25  1  0  0  0
M  END
> <minimizedAffinity>
-6.83005

> <CNNscore>
0.3312790692

> <CNNaffinity>
5.7638902664

> <CNN_VS>
1.9094562531

> <CNNaffinity_variance>
0.1146639436

$$$$
[H]c1c([H])c(C([H])([H])C([H])([H])c2nc([H])c3c([H])c([H])c(=O)n(-c4c([H])c([H])c(SC([H])([H])[H])c([H])c4[H])c3c2[H])c([H])c2c1OC([H])([H])O2


 30 34  0  0  0  0  0  0  0  0999 V2000
  153.6363  138.1510  185.4240 N   0  0  0  0  0  0  0  0  0  0  0  0
  152.5778  137.3266  185.2374 C   0  0  0  0  0  0  0  0  0  0  0  0
  152.0846  136.4994  186.2450 C   0  0  0  0  0  0  0  0  0  0  0  0
  151.0209  135.6939  186.0004 C   0  0  0  0  0  0  0  0  0  0  0  0
  150.4089  135.6575  184.8056 N   0  0  0  0  0  0  0  0  0  0  0  0
  150.8534  136.4459  183.7919 C   0  0  0  0  0  0  0  0  0  0  0  0
  151.9330  137.2750  184.0111 C   0  0  0  0  0  0  0  0  0  0  0  0
  152.3983  138.0904  182.9745 C   0  0  0  0  0  0  0  0  0  0  0  0
  153.4817  138.9082  183.2300 C   0  0  0  0  0  0  0  0  0  0  0  0
  154.1117  138.9498  184.4498 C   0  0  0  0  0  0  0  0  0  0  0  0
  155.0987  139.6746  184.7321 O   0  0  0  0  0  0  0  0  0  0  0  0
  155.4313  138.0672  189.2489 C   0  0  0  0  0  0  0  0  0  0  0  0
  156.0510  137.5376  188.1373 C   0  0  0  0  0  0  0  0  0  0  0  0
  155.4580  137.5692  186.8928 C   0  0  0  0  0  0  0  0  0  0  0  0
  154.2181  138.1305  186.6964 C   0  0  0  0  0  0  0  0  0  0  0  0
  153.5894  138.6620  187.7955 C   0  0  0  0  0  0  0  0  0  0  0  0
  154.1843  138.6295  189.0399 C   0  0  0  0  0  0  0  0  0  0  0  0
  156.0835  136.4148  191.6371 C   0  0  0  0  0  0  0  0  0  0  0  0
  156.2006  138.0260  190.8630 S   0  0  0  0  0  0  0  0  0  0  0  0
  150.5064  134.8195  187.0793 C   0  0  0  0  0  0  0  0  0  0  0  0
  149.7347  135.6968  188.0383 C   0  0  0  0  0  0  0  0  0  0  0  0
  150.2642  135.6846  189.4018 C   0  0  0  0  0  0  0  0  0  0  0  0
  151.6055  135.9180  189.6094 C   0  0  0  0  0  0  0  0  0  0  0  0
  152.1575  135.9167  190.8914 C   0  0  0  0  0  0  0  0  0  0  0  0
  151.3421  135.6767  191.9707 C   0  0  0  0  0  0  0  0  0  0  0  0
  151.6020  135.6138  193.3405 O   0  0  0  0  0  0  0  0  0  0  0  0
  150.3856  135.5465  194.0565 C   0  0  0  0  0  0  0  0  0  0  0  0
  149.4397  135.2334  193.0548 O   0  0  0  0  0  0  0  0  0  0  0  0
  150.0075  135.4424  191.7890 C   0  0  0  0  0  0  0  0  0  0  0  0
  149.4859  135.4490  190.5123 C   0  0  0  0  0  0  0  0  0  0  0  0
 18 19  1  0  0  0
 19 12  1  0  0  0
 12 13  2  0  0  0
 13 14  1  0  0  0
 14 15  2  0  0  0
 15 16  1  0  0  0
 16 17  2  0  0  0
 15  1  1  0  0  0
  1  2  1  0  0  0
  2  3  2  0  0  0
  3  4  1  0  0  0
  4 20  1  0  0  0
 20 21  1  0  0  0
 21 22  1  0  0  0
 22 23  2  0  0  0
 23 24  1  0  0  0
 24 25  2  0  0  0
 25 26  1  0  0  0
 26 27  1  0  0  0
 27 28  1  0  0  0
 28 29  1  0  0  0
 29 30  2  0  0  0
  4  5  2  0  0  0
  5  6  1  0  0  0
  6  7  2  0  0  0
  7  8  1  0  0  0
  8  9  2  0  0  0
  9 10  1  0  0  0
 10 11  2  0  0  0
 17 12  1  0  0  0
 10  1  1  0  0  0
  7  2  1  0  0  0
 30 22  1  0  0  0
 29 25  1  0  0  0
M  END
> <minimizedAffinity>
-6.52722

> <CNNscore>
0.3234792352

> <CNNaffinity>
5.8612852097

> <CNN_VS>
1.8960040808

> <CNNaffinity_variance>
0.0916657522

$$$$
[H]c1nc(-c2nn([H])c(=O)n2C([H])([H])[H])c2nc(-c3c([H])c([H])c([H])c([H])c3[H])c([H])c(N([H])C(=O)C3([H])C([H])([H])C([H])([H])C(C([H])([H])[H])(C([H])([H])[H])C3([H])[H])c2c1[H]


 35 39  0  0  0  0  0  0  0  0999 V2000
  154.9501  138.4095  185.3222 C   0  0  0  0  0  0  0  0  0  0  0  0
  155.3543  139.6253  184.8054 C   0  0  0  0  0  0  0  0  0  0  0  0
  154.7931  140.1598  183.6662 C   0  0  0  0  0  0  0  0  0  0  0  0
  153.8174  139.5109  183.0045 N   0  0  0  0  0  0  0  0  0  0  0  0
  153.3916  138.3177  183.4759 C   0  0  0  0  0  0  0  0  0  0  0  0
  152.3835  137.6891  182.7575 C   0  0  0  0  0  0  0  0  0  0  0  0
  151.9512  136.4984  183.2193 N   0  0  0  0  0  0  0  0  0  0  0  0
  152.4155  135.9002  184.2919 C   0  0  0  0  0  0  0  0  0  0  0  0
  153.4301  136.5274  185.0195 C   0  0  0  0  0  0  0  0  0  0  0  0
  153.9319  137.7482  184.6184 C   0  0  0  0  0  0  0  0  0  0  0  0
  151.7904  138.2654  181.5440 C   0  0  0  0  0  0  0  0  0  0  0  0
  152.3513  138.7037  180.4156 N   0  0  0  0  0  0  0  0  0  0  0  0
  151.4602  139.1539  179.5544 N   0  0  0  0  0  0  0  0  0  0  0  0
  150.2662  139.0010  180.1503 C   0  0  0  0  0  0  0  0  0  0  0  0
  149.1404  139.3096  179.6646 O   0  0  0  0  0  0  0  0  0  0  0  0
  150.4549  138.4533  181.3799 N   0  0  0  0  0  0  0  0  0  0  0  0
  149.4317  138.1254  182.3463 C   0  0  0  0  0  0  0  0  0  0  0  0
  151.6080  139.5549  178.5962 H   0  0  0  0  0  0  0  0  0  0  0  0
  155.2836  141.4683  183.1783 C   0  0  0  0  0  0  0  0  0  0  0  0
  156.6107  141.7524  183.0144 C   0  0  0  0  0  0  0  0  0  0  0  0
  157.0629  142.9894  182.5537 C   0  0  0  0  0  0  0  0  0  0  0  0
  156.1735  143.9751  182.2459 C   0  0  0  0  0  0  0  0  0  0  0  0
  154.8335  143.7205  182.3999 C   0  0  0  0  0  0  0  0  0  0  0  0
  154.3938  142.4780  182.8621 C   0  0  0  0  0  0  0  0  0  0  0  0
  154.9882  137.9196  187.7783 C   0  0  0  0  0  0  0  0  0  0  0  0
  153.9882  138.5461  188.1593 O   0  0  0  0  0  0  0  0  0  0  0  0
  155.4823  137.8214  186.4682 N   0  0  0  0  0  0  0  0  0  0  0  0
  156.3632  137.2275  186.3570 H   0  0  0  0  0  0  0  0  0  0  0  0
  155.9222  135.9546  191.8035 C   0  0  0  0  0  0  0  0  0  0  0  0
  155.0035  136.9984  191.1870 C   0  0  0  0  0  0  0  0  0  0  0  0
  153.7299  137.1393  191.9868 C   0  0  0  0  0  0  0  0  0  0  0  0
  155.7592  138.2786  191.0620 C   0  0  0  0  0  0  0  0  0  0  0  0
  156.4830  138.1508  189.7602 C   0  0  0  0  0  0  0  0  0  0  0  0
  155.7078  137.2030  188.9132 C   0  0  0  0  0  0  0  0  0  0  0  0
  154.6099  136.6161  189.7768 C   0  0  0  0  0  0  0  0  0  0  0  0
 29 30  1  0  0  0
 30 31  1  0  0  0
 30 32  1  0  0  0
 32 33  1  0  0  0
 33 34  1  0  0  0
 34 35  1  0  0  0
 34 25  1  0  0  0
 25 26  2  0  0  0
 25 27  1  0  0  0
 27  1  1  0  0  0
  1  2  2  0  0  0
  2  3  1  0  0  0
  3  4  2  0  0  0
  4  5  1  0  0  0
  5  6  2  0  0  0
  6  7  1  0  0  0
  7  8  2  0  0  0
  8  9  1  0  0  0
  9 10  2  0  0  0
  6 11  1  0  0  0
 11 12  2  0  0  0
 12 13  1  0  0  0
 13 14  1  0  0  0
 14 15  2  0  0  0
 14 16  1  0  0  0
 16 17  1  0  0  0
  3 19  1  0  0  0
 19 20  2  0  0  0
 20 21  1  0  0  0
 21 22  2  0  0  0
 22 23  1  0  0  0
 23 24  2  0  0  0
 35 30  1  0  0  0
 10  1  1  0  0  0
 16 11  1  0  0  0
 24 19  1  0  0  0
 10  5  1  0  0  0
 27 28  1  0  0  0
 13 18  1  0  0  0
M  END
> <minimizedAffinity>
-9.32798

> <CNNscore>
0.3572157025

> <CNNaffinity>
6.1364583969

> <CNN_VS>
2.1920392513

> <CNNaffinity_variance>
0.2130350769

$$$$
[H]c1nc(-c2nn([H])c(=O)n2C([H])([H])[H])c2nc(-c3c([H])c([H])c([H])c([H])c3[H])c([H])c(N([H])C(=O)C3([H])C([H])([H])C([H])([H])C(C([H])([H])[H])(C([H])([H])[H])C3([H])[H])c2c1[H]


 35 39  0  0  0  0  0  0  0  0999 V2000
  154.2000  136.8591  184.8759 C   0  0  0  0  0  0  0  0  0  0  0  0
  153.6396  135.7397  184.2917 C   0  0  0  0  0  0  0  0  0  0  0  0
  152.8868  135.8138  183.1400 C   0  0  0  0  0  0  0  0  0  0  0  0
  152.6654  136.9936  182.5319 N   0  0  0  0  0  0  0  0  0  0  0  0
  153.1955  138.1145  183.0700 C   0  0  0  0  0  0  0  0  0  0  0  0
  152.9382  139.3057  182.4048 C   0  0  0  0  0  0  0  0  0  0  0  0
  153.4626  140.4298  182.9332 N   0  0  0  0  0  0  0  0  0  0  0  0
  154.1927  140.4724  184.0235 C   0  0  0  0  0  0  0  0  0  0  0  0
  154.4555  139.2773  184.6979 C   0  0  0  0  0  0  0  0  0  0  0  0
  153.9580  138.0798  184.2272 C   0  0  0  0  0  0  0  0  0  0  0  0
  152.1346  139.3765  181.1777 C   0  0  0  0  0  0  0  0  0  0  0  0
  152.4783  139.6488  179.9176 N   0  0  0  0  0  0  0  0  0  0  0  0
  151.4469  139.6119  179.0971 N   0  0  0  0  0  0  0  0  0  0  0  0
  150.3850  139.3013  179.8587 C   0  0  0  0  0  0  0  0  0  0  0  0
  149.1921  139.1649  179.4626 O   0  0  0  0  0  0  0  0  0  0  0  0
  150.7949  139.1531  181.1462 N   0  0  0  0  0  0  0  0  0  0  0  0
  149.9683  138.8190  182.2834 C   0  0  0  0  0  0  0  0  0  0  0  0
  151.4167  139.7821  178.0623 H   0  0  0  0  0  0  0  0  0  0  0  0
  152.3215  134.5665  182.5784 C   0  0  0  0  0  0  0  0  0  0  0  0
  151.0008  134.4268  182.2544 C   0  0  0  0  0  0  0  0  0  0  0  0
  150.4777  133.2464  181.7254 C   0  0  0  0  0  0  0  0  0  0  0  0
  151.2875  132.1715  181.5106 C   0  0  0  0  0  0  0  0  0  0  0  0
  152.6189  132.2804  181.8258 C   0  0  0  0  0  0  0  0  0  0  0  0
  153.1301  133.4676  182.3549 C   0  0  0  0  0  0  0  0  0  0  0  0
  154.5114  136.6579  187.3531 C   0  0  0  0  0  0  0  0  0  0  0  0
  153.3424  136.4738  187.7236 O   0  0  0  0  0  0  0  0  0  0  0  0
  154.9680  136.8432  186.0388 N   0  0  0  0  0  0  0  0  0  0  0  0
  156.0217  136.9867  185.9387 H   0  0  0  0  0  0  0  0  0  0  0  0
  156.3201  136.7095  191.5557 C   0  0  0  0  0  0  0  0  0  0  0  0
  155.0555  137.1116  190.8123 C   0  0  0  0  0  0  0  0  0  0  0  0
  153.8649  137.1344  191.7415 C   0  0  0  0  0  0  0  0  0  0  0  0
  155.2978  138.4220  190.1415 C   0  0  0  0  0  0  0  0  0  0  0  0
  155.9411  138.0550  188.8430 C   0  0  0  0  0  0  0  0  0  0  0  0
  155.5047  136.6717  188.5074 C   0  0  0  0  0  0  0  0  0  0  0  0
  154.7406  136.1348  189.7004 C   0  0  0  0  0  0  0  0  0  0  0  0
 29 30  1  0  0  0
 30 31  1  0  0  0
 30 32  1  0  0  0
 32 33  1  0  0  0
 33 34  1  0  0  0
 34 35  1  0  0  0
 34 25  1  0  0  0
 25 26  2  0  0  0
 25 27  1  0  0  0
 27  1  1  0  0  0
  1  2  2  0  0  0
  2  3  1  0  0  0
  3  4  2  0  0  0
  4  5  1  0  0  0
  5  6  2  0  0  0
  6  7  1  0  0  0
  7  8  2  0  0  0
  8  9  1  0  0  0
  9 10  2  0  0  0
  6 11  1  0  0  0
 11 12  2  0  0  0
 12 13  1  0  0  0
 13 14  1  0  0  0
 14 15  2  0  0  0
 14 16  1  0  0  0
 16 17  1  0  0  0
  3 19  1  0  0  0
 19 20  2  0  0  0
 20 21  1  0  0  0
 21 22  2  0  0  0
 22 23  1  0  0  0
 23 24  2  0  0  0
 35 30  1  0  0  0
 10  1  1  0  0  0
 16 11  1  0  0  0
 24 19  1  0  0  0
 10  5  1  0  0  0
 27 28  1  0  0  0
 13 18  1  0  0  0
M  END
> <minimizedAffinity>
-6.89692

> <CNNscore>
0.3546920121

> <CNNaffinity>
5.9285798073

> <CNN_VS>
2.1028199196

> <CNNaffinity_variance>
0.1720452309

$$$$
[H]c1nc(-c2nn([H])c(=O)n2C([H])([H])[H])c2nc(-c3c([H])c([H])c([H])c([H])c3[H])c([H])c(N([H])C(=O)C3([H])C([H])([H])C([H])([H])C(C([H])([H])[H])(C([H])([H])[H])C3([H])[H])c2c1[H]


 35 39  0  0  0  0  0  0  0  0999 V2000
  154.2380  138.9058  183.9648 C   0  0  0  0  0  0  0  0  0  0  0  0
  154.5631  138.2214  185.1200 C   0  0  0  0  0  0  0  0  0  0  0  0
  155.6842  138.5261  185.8608 C   0  0  0  0  0  0  0  0  0  0  0  0
  156.5162  139.5143  185.4838 N   0  0  0  0  0  0  0  0  0  0  0  0
  156.2356  140.2098  184.3593 C   0  0  0  0  0  0  0  0  0  0  0  0
  157.1246  141.2187  184.0138 C   0  0  0  0  0  0  0  0  0  0  0  0
  156.8538  141.9189  182.8938 N   0  0  0  0  0  0  0  0  0  0  0  0
  155.8162  141.7122  182.1165 C   0  0  0  0  0  0  0  0  0  0  0  0
  154.9175  140.6984  182.4583 C   0  0  0  0  0  0  0  0  0  0  0  0
  155.1176  139.9324  183.5881 C   0  0  0  0  0  0  0  0  0  0  0  0
  158.3175  141.5374  184.8087 C   0  0  0  0  0  0  0  0  0  0  0  0
  158.4613  141.8039  186.1081 N   0  0  0  0  0  0  0  0  0  0  0  0
  159.7160  142.0427  186.4354 N   0  0  0  0  0  0  0  0  0  0  0  0
  160.4192  141.9260  185.2970 C   0  0  0  0  0  0  0  0  0  0  0  0
  161.6678  142.0774  185.1678 O   0  0  0  0  0  0  0  0  0  0  0  0
  159.5683  141.6142  184.2839 N   0  0  0  0  0  0  0  0  0  0  0  0
  159.9163  141.4004  182.8978 C   0  0  0  0  0  0  0  0  0  0  0  0
  160.1232  142.2778  187.3733 H   0  0  0  0  0  0  0  0  0  0  0  0
  155.9608  137.7440  187.0866 C   0  0  0  0  0  0  0  0  0  0  0  0
  156.1419  138.3201  188.3130 C   0  0  0  0  0  0  0  0  0  0  0  0
  156.4023  137.5736  189.4627 C   0  0  0  0  0  0  0  0  0  0  0  0
  156.4859  136.2150  189.3957 C   0  0  0  0  0  0  0  0  0  0  0  0
  156.3086  135.6065  188.1781 C   0  0  0  0  0  0  0  0  0  0  0  0
  156.0486  136.3652  187.0347 C   0  0  0  0  0  0  0  0  0  0  0  0
  152.6892  137.3879  182.7115 C   0  0  0  0  0  0  0  0  0  0  0  0
  153.2225  136.2869  182.9144 O   0  0  0  0  0  0  0  0  0  0  0  0
  153.1195  138.6402  183.1769 N   0  0  0  0  0  0  0  0  0  0  0  0
  152.5112  139.4683  182.8849 H   0  0  0  0  0  0  0  0  0  0  0  0
  149.4604  138.2444  179.5846 C   0  0  0  0  0  0  0  0  0  0  0  0
  150.5265  138.9568  180.4029 C   0  0  0  0  0  0  0  0  0  0  0  0
  150.9882  140.2175  179.7109 C   0  0  0  0  0  0  0  0  0  0  0  0
  149.9847  139.2062  181.7704 C   0  0  0  0  0  0  0  0  0  0  0  0
  150.2659  137.9391  182.5122 C   0  0  0  0  0  0  0  0  0  0  0  0
  151.4337  137.2905  181.8549 C   0  0  0  0  0  0  0  0  0  0  0  0
  151.7433  138.0788  180.5986 C   0  0  0  0  0  0  0  0  0  0  0  0
 29 30  1  0  0  0
 30 31  1  0  0  0
 30 32  1  0  0  0
 32 33  1  0  0  0
 33 34  1  0  0  0
 34 35  1  0  0  0
 34 25  1  0  0  0
 25 26  2  0  0  0
 25 27  1  0  0  0
 27  1  1  0  0  0
  1  2  2  0  0  0
  2  3  1  0  0  0
  3  4  2  0  0  0
  4  5  1  0  0  0
  5  6  2  0  0  0
  6  7  1  0  0  0
  7  8  2  0  0  0
  8  9  1  0  0  0
  9 10  2  0  0  0
  6 11  1  0  0  0
 11 12  2  0  0  0
 12 13  1  0  0  0
 13 14  1  0  0  0
 14 15  2  0  0  0
 14 16  1  0  0  0
 16 17  1  0  0  0
  3 19  1  0  0  0
 19 20  2  0  0  0
 20 21  1  0  0  0
 21 22  2  0  0  0
 22 23  1  0  0  0
 23 24  2  0  0  0
 35 30  1  0  0  0
 10  1  1  0  0  0
 16 11  1  0  0  0
 24 19  1  0  0  0
 10  5  1  0  0  0
 27 28  1  0  0  0
 13 18  1  0  0  0
M  END
> <minimizedAffinity>
-9.23436

> <CNNscore>
0.1978989094

> <CNNaffinity>
6.3828191757

> <CNN_VS>
1.2631529570

> <CNNaffinity_variance>
0.1776933372

$$$$
[H]c1nc(-c2nn([H])c(=O)n2C([H])([H])[H])c2nc(-c3c([H])c([H])c([H])c([H])c3[H])c([H])c(N([H])C(=O)C3([H])C([H])([H])C([H])([H])C(C([H])([H])[H])(C([H])([H])[H])C3([H])[H])c2c1[H]


 35 39  0  0  0  0  0  0  0  0999 V2000
  154.8317  138.8651  185.3176 C   0  0  0  0  0  0  0  0  0  0  0  0
  153.8634  138.8591  184.3323 C   0  0  0  0  0  0  0  0  0  0  0  0
  154.1005  139.3567  183.0695 C   0  0  0  0  0  0  0  0  0  0  0  0
  155.2989  139.8740  182.7425 N   0  0  0  0  0  0  0  0  0  0  0  0
  156.2754  139.8995  183.6768 C   0  0  0  0  0  0  0  0  0  0  0  0
  157.4928  140.4430  183.2895 C   0  0  0  0  0  0  0  0  0  0  0  0
  158.4738  140.4730  184.2140 N   0  0  0  0  0  0  0  0  0  0  0  0
  158.3555  140.0271  185.4432 C   0  0  0  0  0  0  0  0  0  0  0  0
  157.1329  139.4789  185.8396 C   0  0  0  0  0  0  0  0  0  0  0  0
  156.0745  139.4085  184.9575 C   0  0  0  0  0  0  0  0  0  0  0  0
  157.7377  140.9715  181.9415 C   0  0  0  0  0  0  0  0  0  0  0  0
  158.0701  140.3573  180.8047 N   0  0  0  0  0  0  0  0  0  0  0  0
  158.1996  141.1997  179.7987 N   0  0  0  0  0  0  0  0  0  0  0  0
  157.9396  142.4163  180.3050 C   0  0  0  0  0  0  0  0  0  0  0  0
  157.9541  143.5109  179.6722 O   0  0  0  0  0  0  0  0  0  0  0  0
  157.6528  142.2906  181.6277 N   0  0  0  0  0  0  0  0  0  0  0  0
  157.3169  143.3560  182.5444 C   0  0  0  0  0  0  0  0  0  0  0  0
  158.4509  141.0047  178.7989 H   0  0  0  0  0  0  0  0  0  0  0  0
  153.0085  139.3129  182.0713 C   0  0  0  0  0  0  0  0  0  0  0  0
  152.2531  138.1969  181.8419 C   0  0  0  0  0  0  0  0  0  0  0  0
  151.2257  138.1660  180.8983 C   0  0  0  0  0  0  0  0  0  0  0  0
  150.9377  139.2743  180.1594 C   0  0  0  0  0  0  0  0  0  0  0  0
  151.6785  140.4111  180.3665 C   0  0  0  0  0  0  0  0  0  0  0  0
  152.7044  140.4290  181.3141 C   0  0  0  0  0  0  0  0  0  0  0  0
  154.6308  137.0328  187.0136 C   0  0  0  0  0  0  0  0  0  0  0  0
  154.7768  136.0312  186.2972 O   0  0  0  0  0  0  0  0  0  0  0  0
  154.6475  138.3770  186.6100 N   0  0  0  0  0  0  0  0  0  0  0  0
  154.5009  139.0894  187.3925 H   0  0  0  0  0  0  0  0  0  0  0  0
  154.4590  134.7674  190.9853 C   0  0  0  0  0  0  0  0  0  0  0  0
  154.4288  134.5189  189.4850 C   0  0  0  0  0  0  0  0  0  0  0  0
  154.9239  133.1304  189.1557 C   0  0  0  0  0  0  0  0  0  0  0  0
  153.0453  134.7780  188.9905 C   0  0  0  0  0  0  0  0  0  0  0  0
  153.0148  136.2522  188.7442 C   0  0  0  0  0  0  0  0  0  0  0  0
  154.4142  136.6867  188.4808 C   0  0  0  0  0  0  0  0  0  0  0  0
  155.3164  135.4997  188.7502 C   0  0  0  0  0  0  0  0  0  0  0  0
 29 30  1  0  0  0
 30 31  1  0  0  0
 30 32  1  0  0  0
 32 33  1  0  0  0
 33 34  1  0  0  0
 34 35  1  0  0  0
 34 25  1  0  0  0
 25 26  2  0  0  0
 25 27  1  0  0  0
 27  1  1  0  0  0
  1  2  2  0  0  0
  2  3  1  0  0  0
  3  4  2  0  0  0
  4  5  1  0  0  0
  5  6  2  0  0  0
  6  7  1  0  0  0
  7  8  2  0  0  0
  8  9  1  0  0  0
  9 10  2  0  0  0
  6 11  1  0  0  0
 11 12  2  0  0  0
 12 13  1  0  0  0
 13 14  1  0  0  0
 14 15  2  0  0  0
 14 16  1  0  0  0
 16 17  1  0  0  0
  3 19  1  0  0  0
 19 20  2  0  0  0
 20 21  1  0  0  0
 21 22  2  0  0  0
 22 23  1  0  0  0
 23 24  2  0  0  0
 35 30  1  0  0  0
 10  1  1  0  0  0
 16 11  1  0  0  0
 24 19  1  0  0  0
 10  5  1  0  0  0
 27 28  1  0  0  0
 13 18  1  0  0  0
M  END
> <minimizedAffinity>
-7.58174

> <CNNscore>
0.1902296990

> <CNNaffinity>
6.3377404213

> <CNN_VS>
1.2056264877

> <CNNaffinity_variance>
0.1259515584

$$$$
[H]c1nc(-c2nn([H])c(=O)n2C([H])([H])[H])c2nc(-c3c([H])c([H])c([H])c([H])c3[H])c([H])c(N([H])C(=O)C3([H])C([H])([H])C([H])([H])C(C([H])([H])[H])(C([H])([H])[H])C3([H])[H])c2c1[H]


 35 39  0  0  0  0  0  0  0  0999 V2000
  155.8131  138.7265  184.6826 C   0  0  0  0  0  0  0  0  0  0  0  0
  157.0479  139.2707  184.9787 C   0  0  0  0  0  0  0  0  0  0  0  0
  157.4232  140.5198  184.5345 C   0  0  0  0  0  0  0  0  0  0  0  0
  156.5917  141.2676  183.7861 N   0  0  0  0  0  0  0  0  0  0  0  0
  155.3732  140.7734  183.4730 C   0  0  0  0  0  0  0  0  0  0  0  0
  154.5533  141.5837  182.6993 C   0  0  0  0  0  0  0  0  0  0  0  0
  153.3355  141.1001  182.3815 N   0  0  0  0  0  0  0  0  0  0  0  0
  152.8783  139.9262  182.7511 C   0  0  0  0  0  0  0  0  0  0  0  0
  153.6983  139.1057  183.5299 C   0  0  0  0  0  0  0  0  0  0  0  0
  154.9603  139.5213  183.9013 C   0  0  0  0  0  0  0  0  0  0  0  0
  154.9607  142.9140  182.2295 C   0  0  0  0  0  0  0  0  0  0  0  0
  154.7055  143.5589  181.0897 N   0  0  0  0  0  0  0  0  0  0  0  0
  155.2627  144.7533  181.0535 N   0  0  0  0  0  0  0  0  0  0  0  0
  155.9091  144.8906  182.2228 C   0  0  0  0  0  0  0  0  0  0  0  0
  156.5786  145.8961  182.5962 O   0  0  0  0  0  0  0  0  0  0  0  0
  155.7313  143.7621  182.9593 N   0  0  0  0  0  0  0  0  0  0  0  0
  156.2592  143.4988  184.2786 C   0  0  0  0  0  0  0  0  0  0  0  0
  155.2332  145.4757  180.2933 H   0  0  0  0  0  0  0  0  0  0  0  0
  158.7648  141.0297  184.8961 C   0  0  0  0  0  0  0  0  0  0  0  0
  159.8677  140.8491  184.1088 C   0  0  0  0  0  0  0  0  0  0  0  0
  161.1284  141.3338  184.4588 C   0  0  0  0  0  0  0  0  0  0  0  0
  161.3020  142.0186  185.6243 C   0  0  0  0  0  0  0  0  0  0  0  0
  160.2136  142.2165  186.4368 C   0  0  0  0  0  0  0  0  0  0  0  0
  158.9569  141.7260  186.0749 C   0  0  0  0  0  0  0  0  0  0  0  0
  154.9035  137.1207  186.3761 C   0  0  0  0  0  0  0  0  0  0  0  0
  154.7760  137.8635  187.3609 O   0  0  0  0  0  0  0  0  0  0  0  0
  155.3816  137.4698  185.1035 N   0  0  0  0  0  0  0  0  0  0  0  0
  155.4111  136.6724  184.3934 H   0  0  0  0  0  0  0  0  0  0  0  0
  152.4877  133.4648  187.6930 C   0  0  0  0  0  0  0  0  0  0  0  0
  152.6371  134.9485  187.9927 C   0  0  0  0  0  0  0  0  0  0  0  0
  151.3580  135.5183  188.5590 C   0  0  0  0  0  0  0  0  0  0  0  0
  153.8091  135.1326  188.8972 C   0  0  0  0  0  0  0  0  0  0  0  0
  154.9794  135.2048  187.9698 C   0  0  0  0  0  0  0  0  0  0  0  0
  154.4738  135.6864  186.6548 C   0  0  0  0  0  0  0  0  0  0  0  0
  152.9616  135.7299  186.7381 C   0  0  0  0  0  0  0  0  0  0  0  0
 29 30  1  0  0  0
 30 31  1  0  0  0
 30 32  1  0  0  0
 32 33  1  0  0  0
 33 34  1  0  0  0
 34 35  1  0  0  0
 34 25  1  0  0  0
 25 26  2  0  0  0
 25 27  1  0  0  0
 27  1  1  0  0  0
  1  2  2  0  0  0
  2  3  1  0  0  0
  3  4  2  0  0  0
  4  5  1  0  0  0
  5  6  2  0  0  0
  6  7  1  0  0  0
  7  8  2  0  0  0
  8  9  1  0  0  0
  9 10  2  0  0  0
  6 11  1  0  0  0
 11 12  2  0  0  0
 12 13  1  0  0  0
 13 14  1  0  0  0
 14 15  2  0  0  0
 14 16  1  0  0  0
 16 17  1  0  0  0
  3 19  1  0  0  0
 19 20  2  0  0  0
 20 21  1  0  0  0
 21 22  2  0  0  0
 22 23  1  0  0  0
 23 24  2  0  0  0
 35 30  1  0  0  0
 10  1  1  0  0  0
 16 11  1  0  0  0
 24 19  1  0  0  0
 10  5  1  0  0  0
 27 28  1  0  0  0
 13 18  1  0  0  0
M  END
> <minimizedAffinity>
-0.15033

> <CNNscore>
0.1836136281

> <CNNaffinity>
6.2908959389

> <CNN_VS>
1.1550942659

> <CNNaffinity_variance>
0.1924494952

$$$$
[H]c1nc(-c2nn([H])c(=O)n2C([H])([H])[H])c2nc(-c3c([H])c([H])c([H])c([H])c3[H])c([H])c(N([H])C(=O)C3([H])C([H])([H])C([H])([H])C(C([H])([H])[H])(C([H])([H])[H])C3([H])[H])c2c1[H]


 35 39  0  0  0  0  0  0  0  0999 V2000
  153.8263  139.0117  184.4230 C   0  0  0  0  0  0  0  0  0  0  0  0
  153.7879  140.2032  183.7250 C   0  0  0  0  0  0  0  0  0  0  0  0
  154.8495  141.0816  183.7166 C   0  0  0  0  0  0  0  0  0  0  0  0
  155.9788  140.8098  184.3961 N   0  0  0  0  0  0  0  0  0  0  0  0
  156.0589  139.6543  185.0929 C   0  0  0  0  0  0  0  0  0  0  0  0
  157.2446  139.4210  185.7764 C   0  0  0  0  0  0  0  0  0  0  0  0
  157.3349  138.2710  186.4745 N   0  0  0  0  0  0  0  0  0  0  0  0
  156.3861  137.3668  186.5500 C   0  0  0  0  0  0  0  0  0  0  0  0
  155.1902  137.5952  185.8645 C   0  0  0  0  0  0  0  0  0  0  0  0
  155.0120  138.7462  185.1251 C   0  0  0  0  0  0  0  0  0  0  0  0
  158.3717  140.3623  185.7627 C   0  0  0  0  0  0  0  0  0  0  0  0
  158.7882  141.2464  186.6710 N   0  0  0  0  0  0  0  0  0  0  0  0
  159.8549  141.9107  186.2720 N   0  0  0  0  0  0  0  0  0  0  0  0
  160.1445  141.4367  185.0491 C   0  0  0  0  0  0  0  0  0  0  0  0
  161.0999  141.8065  184.3081 O   0  0  0  0  0  0  0  0  0  0  0  0
  159.2365  140.4797  184.7216 N   0  0  0  0  0  0  0  0  0  0  0  0
  159.1878  139.7181  183.4944 C   0  0  0  0  0  0  0  0  0  0  0  0
  160.3952  142.6588  186.7713 H   0  0  0  0  0  0  0  0  0  0  0  0
  154.7273  142.3375  182.9431 C   0  0  0  0  0  0  0  0  0  0  0  0
  155.7956  142.9607  182.3606 C   0  0  0  0  0  0  0  0  0  0  0  0
  155.6697  144.1448  181.6333 C   0  0  0  0  0  0  0  0  0  0  0  0
  154.4484  144.7294  181.4780 C   0  0  0  0  0  0  0  0  0  0  0  0
  153.3560  144.1277  182.0510 C   0  0  0  0  0  0  0  0  0  0  0  0
  153.4954  142.9425  182.7768 C   0  0  0  0  0  0  0  0  0  0  0  0
  152.2230  137.3903  183.3862 C   0  0  0  0  0  0  0  0  0  0  0  0
  152.5501  137.4659  182.1925 O   0  0  0  0  0  0  0  0  0  0  0  0
  152.7837  138.0877  184.4676 N   0  0  0  0  0  0  0  0  0  0  0  0
  152.3511  137.8745  185.4207 H   0  0  0  0  0  0  0  0  0  0  0  0
  148.0465  135.5471  183.6945 C   0  0  0  0  0  0  0  0  0  0  0  0
  148.7433  136.8987  183.7295 C   0  0  0  0  0  0  0  0  0  0  0  0
  147.8048  138.0032  183.3043 C   0  0  0  0  0  0  0  0  0  0  0  0
  149.3069  137.1049  185.0953 C   0  0  0  0  0  0  0  0  0  0  0  0
  150.6368  136.4236  185.0491 C   0  0  0  0  0  0  0  0  0  0  0  0
  151.0803  136.4130  183.6280 C   0  0  0  0  0  0  0  0  0  0  0  0
  149.9284  136.9276  182.7890 C   0  0  0  0  0  0  0  0  0  0  0  0
 29 30  1  0  0  0
 30 31  1  0  0  0
 30 32  1  0  0  0
 32 33  1  0  0  0
 33 34  1  0  0  0
 34 35  1  0  0  0
 34 25  1  0  0  0
 25 26  2  0  0  0
 25 27  1  0  0  0
 27  1  1  0  0  0
  1  2  2  0  0  0
  2  3  1  0  0  0
  3  4  2  0  0  0
  4  5  1  0  0  0
  5  6  2  0  0  0
  6  7  1  0  0  0
  7  8  2  0  0  0
  8  9  1  0  0  0
  9 10  2  0  0  0
  6 11  1  0  0  0
 11 12  2  0  0  0
 12 13  1  0  0  0
 13 14  1  0  0  0
 14 15  2  0  0  0
 14 16  1  0  0  0
 16 17  1  0  0  0
  3 19  1  0  0  0
 19 20  2  0  0  0
 20 21  1  0  0  0
 21 22  2  0  0  0
 22 23  1  0  0  0
 23 24  2  0  0  0
 35 30  1  0  0  0
 10  1  1  0  0  0
 16 11  1  0  0  0
 24 19  1  0  0  0
 10  5  1  0  0  0
 27 28  1  0  0  0
 13 18  1  0  0  0
M  END
> <minimizedAffinity>
-1.39305

> <CNNscore>
0.1778108329

> <CNNaffinity>
6.2535295486

> <CNN_VS>
1.1119452715

> <CNNaffinity_variance>
0.2940315604

$$$$
[H]c1nc(-c2nn([H])c(=O)n2C([H])([H])[H])c2nc(-c3c([H])c([H])c([H])c([H])c3[H])c([H])c(N([H])C(=O)C3([H])C([H])([H])C([H])([H])C(C([H])([H])[H])(C([H])([H])[H])C3([H])[H])c2c1[H]


 35 39  0  0  0  0  0  0  0  0999 V2000
  154.7702  138.9491  184.5038 C   0  0  0  0  0  0  0  0  0  0  0  0
  155.2177  138.8264  185.8050 C   0  0  0  0  0  0  0  0  0  0  0  0
  154.5023  138.1433  186.7641 C   0  0  0  0  0  0  0  0  0  0  0  0
  153.3255  137.5618  186.4674 N   0  0  0  0  0  0  0  0  0  0  0  0
  152.8504  137.6575  185.2056 C   0  0  0  0  0  0  0  0  0  0  0  0
  151.6330  137.0406  184.9508 C   0  0  0  0  0  0  0  0  0  0  0  0
  151.1502  137.1298  183.6951 N   0  0  0  0  0  0  0  0  0  0  0  0
  151.7486  137.7548  182.7076 C   0  0  0  0  0  0  0  0  0  0  0  0
  152.9742  138.3777  182.9571 C   0  0  0  0  0  0  0  0  0  0  0  0
  153.5415  138.3362  184.2139 C   0  0  0  0  0  0  0  0  0  0  0  0
  150.8763  136.3144  185.9787 C   0  0  0  0  0  0  0  0  0  0  0  0
  149.9578  136.7319  186.8518 N   0  0  0  0  0  0  0  0  0  0  0  0
  149.5116  135.7547  187.6162 N   0  0  0  0  0  0  0  0  0  0  0  0
  150.1700  134.6524  187.2218 C   0  0  0  0  0  0  0  0  0  0  0  0
  150.0387  133.4891  187.6993 O   0  0  0  0  0  0  0  0  0  0  0  0
  151.0164  134.9832  186.2110 N   0  0  0  0  0  0  0  0  0  0  0  0
  151.9078  134.0925  185.5035 C   0  0  0  0  0  0  0  0  0  0  0  0
  148.7951  135.7864  188.3819 H   0  0  0  0  0  0  0  0  0  0  0  0
  155.0522  138.0584  188.1356 C   0  0  0  0  0  0  0  0  0  0  0  0
  156.2482  137.4619  188.4232 C   0  0  0  0  0  0  0  0  0  0  0  0
  156.7579  137.3872  189.7199 C   0  0  0  0  0  0  0  0  0  0  0  0
  156.0619  137.9196  190.7637 C   0  0  0  0  0  0  0  0  0  0  0  0
  154.8573  138.5256  190.5073 C   0  0  0  0  0  0  0  0  0  0  0  0
  154.3580  138.5938  189.2047 C   0  0  0  0  0  0  0  0  0  0  0  0
  155.3783  140.9980  183.1976 C   0  0  0  0  0  0  0  0  0  0  0  0
  154.6974  141.8576  183.7766 O   0  0  0  0  0  0  0  0  0  0  0  0
  155.4506  139.6281  183.4946 N   0  0  0  0  0  0  0  0  0  0  0  0
  156.1030  139.0600  182.8679 H   0  0  0  0  0  0  0  0  0  0  0  0
  158.8823  142.1807  180.5033 C   0  0  0  0  0  0  0  0  0  0  0  0
  158.5690  141.8644  181.9577 C   0  0  0  0  0  0  0  0  0  0  0  0
  159.7949  141.3537  182.6773 C   0  0  0  0  0  0  0  0  0  0  0  0
  157.9850  143.0822  182.5913 C   0  0  0  0  0  0  0  0  0  0  0  0
  156.5287  143.0029  182.2632 C   0  0  0  0  0  0  0  0  0  0  0  0
  156.2002  141.5667  182.0485 C   0  0  0  0  0  0  0  0  0  0  0  0
  157.5040  140.7951  182.0677 C   0  0  0  0  0  0  0  0  0  0  0  0
 29 30  1  0  0  0
 30 31  1  0  0  0
 30 32  1  0  0  0
 32 33  1  0  0  0
 33 34  1  0  0  0
 34 35  1  0  0  0
 34 25  1  0  0  0
 25 26  2  0  0  0
 25 27  1  0  0  0
 27  1  1  0  0  0
  1  2  2  0  0  0
  2  3  1  0  0  0
  3  4  2  0  0  0
  4  5  1  0  0  0
  5  6  2  0  0  0
  6  7  1  0  0  0
  7  8  2  0  0  0
  8  9  1  0  0  0
  9 10  2  0  0  0
  6 11  1  0  0  0
 11 12  2  0  0  0
 12 13  1  0  0  0
 13 14  1  0  0  0
 14 15  2  0  0  0
 14 16  1  0  0  0
 16 17  1  0  0  0
  3 19  1  0  0  0
 19 20  2  0  0  0
 20 21  1  0  0  0
 21 22  2  0  0  0
 22 23  1  0  0  0
 23 24  2  0  0  0
 35 30  1  0  0  0
 10  1  1  0  0  0
 16 11  1  0  0  0
 24 19  1  0  0  0
 10  5  1  0  0  0
 27 28  1  0  0  0
 13 18  1  0  0  0
M  END
> <minimizedAffinity>
-8.86431

> <CNNscore>
0.1774898469

> <CNNaffinity>
6.3439989090

> <CNN_VS>
1.1259953976

> <CNNaffinity_variance>
0.0599586740

$$$$
[H]c1nc(-c2nn([H])c(=O)n2C([H])([H])[H])c2nc(-c3c([H])c([H])c([H])c([H])c3[H])c([H])c(N([H])C(=O)C3([H])C([H])([H])C([H])([H])C(C([H])([H])[H])(C([H])([H])[H])C3([H])[H])c2c1[H]


 35 39  0  0  0  0  0  0  0  0999 V2000
  155.8235  138.0757  186.5689 C   0  0  0  0  0  0  0  0  0  0  0  0
  156.8041  138.7848  185.9026 C   0  0  0  0  0  0  0  0  0  0  0  0
  156.5876  139.3463  184.6631 C   0  0  0  0  0  0  0  0  0  0  0  0
  155.3982  139.2246  184.0457 N   0  0  0  0  0  0  0  0  0  0  0  0
  154.4102  138.5385  184.6624 C   0  0  0  0  0  0  0  0  0  0  0  0
  153.2028  138.4419  183.9840 C   0  0  0  0  0  0  0  0  0  0  0  0
  152.2104  137.7597  184.5905 N   0  0  0  0  0  0  0  0  0  0  0  0
  152.3092  137.1868  185.7677 C   0  0  0  0  0  0  0  0  0  0  0  0
  153.5216  137.2801  186.4559 C   0  0  0  0  0  0  0  0  0  0  0  0
  154.5904  137.9597  185.9091 C   0  0  0  0  0  0  0  0  0  0  0  0
  152.9798  139.0431  182.6629 C   0  0  0  0  0  0  0  0  0  0  0  0
  153.4519  140.1659  182.1182 N   0  0  0  0  0  0  0  0  0  0  0  0
  153.0065  140.3543  180.8917 N   0  0  0  0  0  0  0  0  0  0  0  0
  152.2089  139.3064  180.6275 C   0  0  0  0  0  0  0  0  0  0  0  0
  151.5770  139.0969  179.5526 O   0  0  0  0  0  0  0  0  0  0  0  0
  152.1830  138.4883  181.7127 N   0  0  0  0  0  0  0  0  0  0  0  0
  151.4472  137.2516  181.8455 C   0  0  0  0  0  0  0  0  0  0  0  0
  153.2068  141.1412  180.2272 H   0  0  0  0  0  0  0  0  0  0  0  0
  157.6917  140.0907  184.0169 C   0  0  0  0  0  0  0  0  0  0  0  0
  158.7789  140.5553  184.7031 C   0  0  0  0  0  0  0  0  0  0  0  0
  159.8146  141.2563  184.0844 C   0  0  0  0  0  0  0  0  0  0  0  0
  159.7723  141.5045  182.7450 C   0  0  0  0  0  0  0  0  0  0  0  0
  158.6935  141.0507  182.0280 C   0  0  0  0  0  0  0  0  0  0  0  0
  157.6631  140.3503  182.6593 C   0  0  0  0  0  0  0  0  0  0  0  0
  156.4626  136.1944  188.0942 C   0  0  0  0  0  0  0  0  0  0  0  0
  156.8255  135.3384  187.2736 O   0  0  0  0  0  0  0  0  0  0  0  0
  155.9869  137.4865  187.8214 N   0  0  0  0  0  0  0  0  0  0  0  0
  155.7263  138.0665  188.6797 H   0  0  0  0  0  0  0  0  0  0  0  0
  157.7267  133.9129  191.8535 C   0  0  0  0  0  0  0  0  0  0  0  0
  157.6592  133.7491  190.3428 C   0  0  0  0  0  0  0  0  0  0  0  0
  158.6876  132.7539  189.8594 C   0  0  0  0  0  0  0  0  0  0  0  0
  156.2641  133.3749  189.9696 C   0  0  0  0  0  0  0  0  0  0  0  0
  155.5518  134.6844  189.8566 C   0  0  0  0  0  0  0  0  0  0  0  0
  156.5737  135.7187  189.5366 C   0  0  0  0  0  0  0  0  0  0  0  0
  157.9341  135.0594  189.6377 C   0  0  0  0  0  0  0  0  0  0  0  0
 29 30  1  0  0  0
 30 31  1  0  0  0
 30 32  1  0  0  0
 32 33  1  0  0  0
 33 34  1  0  0  0
 34 35  1  0  0  0
 34 25  1  0  0  0
 25 26  2  0  0  0
 25 27  1  0  0  0
 27  1  1  0  0  0
  1  2  2  0  0  0
  2  3  1  0  0  0
  3  4  2  0  0  0
  4  5  1  0  0  0
  5  6  2  0  0  0
  6  7  1  0  0  0
  7  8  2  0  0  0
  8  9  1  0  0  0
  9 10  2  0  0  0
  6 11  1  0  0  0
 11 12  2  0  0  0
 12 13  1  0  0  0
 13 14  1  0  0  0
 14 15  2  0  0  0
 14 16  1  0  0  0
 16 17  1  0  0  0
  3 19  1  0  0  0
 19 20  2  0  0  0
 20 21  1  0  0  0
 21 22  2  0  0  0
 22 23  1  0  0  0
 23 24  2  0  0  0
 35 30  1  0  0  0
 10  1  1  0  0  0
 16 11  1  0  0  0
 24 19  1  0  0  0
 10  5  1  0  0  0
 27 28  1  0  0  0
 13 18  1  0  0  0
M  END
> <minimizedAffinity>
-7.96449

> <CNNscore>
0.1586687416

> <CNNaffinity>
6.0551781654

> <CNN_VS>
0.9607675076

> <CNNaffinity_variance>
0.0887388662

$$$$
[H]c1nc(-c2nn([H])c(=O)n2C([H])([H])[H])c2nc(-c3c([H])c([H])c([H])c([H])c3[H])c([H])c(N([H])C(=O)C3([H])C([H])([H])C([H])([H])C(C([H])([H])[H])(C([H])([H])[H])C3([H])[H])c2c1[H]


 35 39  0  0  0  0  0  0  0  0999 V2000
  154.6618  134.4781  184.4389 C   0  0  0  0  0  0  0  0  0  0  0  0
  154.3808  133.8395  183.2466 C   0  0  0  0  0  0  0  0  0  0  0  0
  153.4620  134.3367  182.3482 C   0  0  0  0  0  0  0  0  0  0  0  0
  152.7946  135.4778  182.6000 N   0  0  0  0  0  0  0  0  0  0  0  0
  153.0391  136.1353  183.7554 C   0  0  0  0  0  0  0  0  0  0  0  0
  152.3251  137.3069  183.9675 C   0  0  0  0  0  0  0  0  0  0  0  0
  152.5618  137.9707  185.1170 N   0  0  0  0  0  0  0  0  0  0  0  0
  153.4136  137.5867  186.0393 C   0  0  0  0  0  0  0  0  0  0  0  0
  154.1355  136.4085  185.8322 C   0  0  0  0  0  0  0  0  0  0  0  0
  153.9559  135.6662  184.6833 C   0  0  0  0  0  0  0  0  0  0  0  0
  151.3473  137.8305  183.0051 C   0  0  0  0  0  0  0  0  0  0  0  0
  150.0707  137.5093  182.7878 N   0  0  0  0  0  0  0  0  0  0  0  0
  149.5321  138.2223  181.8183 N   0  0  0  0  0  0  0  0  0  0  0  0
  150.5028  139.0439  181.3862 C   0  0  0  0  0  0  0  0  0  0  0  0
  150.4048  139.8987  180.4597 O   0  0  0  0  0  0  0  0  0  0  0  0
  151.6297  138.8129  182.1102 N   0  0  0  0  0  0  0  0  0  0  0  0
  152.9023  139.4823  181.9658 C   0  0  0  0  0  0  0  0  0  0  0  0
  148.5565  138.1882  181.4337 H   0  0  0  0  0  0  0  0  0  0  0  0
  153.2191  133.5909  181.0931 C   0  0  0  0  0  0  0  0  0  0  0  0
  151.9679  133.2564  180.6554 C   0  0  0  0  0  0  0  0  0  0  0  0
  151.7496  132.5529  179.4704 C   0  0  0  0  0  0  0  0  0  0  0  0
  152.8026  132.1690  178.6951 C   0  0  0  0  0  0  0  0  0  0  0  0
  154.0718  132.4901  179.1076 C   0  0  0  0  0  0  0  0  0  0  0  0
  154.2769  133.1946  180.2960 C   0  0  0  0  0  0  0  0  0  0  0  0
  155.3360  133.1232  186.4348 C   0  0  0  0  0  0  0  0  0  0  0  0
  154.2626  132.5705  186.7181 O   0  0  0  0  0  0  0  0  0  0  0  0
  155.5789  134.0210  185.3836 N   0  0  0  0  0  0  0  0  0  0  0  0
  156.5817  134.3830  185.3163 H   0  0  0  0  0  0  0  0  0  0  0  0
  158.2709  133.0710  189.9446 C   0  0  0  0  0  0  0  0  0  0  0  0
  157.3887  134.0305  189.1608 C   0  0  0  0  0  0  0  0  0  0  0  0
  156.9957  135.2188  190.0065 C   0  0  0  0  0  0  0  0  0  0  0  0
  158.1039  134.4155  187.9094 C   0  0  0  0  0  0  0  0  0  0  0  0
  157.7681  133.3235  186.9453 C   0  0  0  0  0  0  0  0  0  0  0  0
  156.4694  132.7362  187.3754 C   0  0  0  0  0  0  0  0  0  0  0  0
  156.1112  133.3556  188.7110 C   0  0  0  0  0  0  0  0  0  0  0  0
 29 30  1  0  0  0
 30 31  1  0  0  0
 30 32  1  0  0  0
 32 33  1  0  0  0
 33 34  1  0  0  0
 34 35  1  0  0  0
 34 25  1  0  0  0
 25 26  2  0  0  0
 25 27  1  0  0  0
 27  1  1  0  0  0
  1  2  2  0  0  0
  2  3  1  0  0  0
  3  4  2  0  0  0
  4  5  1  0  0  0
  5  6  2  0  0  0
  6  7  1  0  0  0
  7  8  2  0  0  0
  8  9  1  0  0  0
  9 10  2  0  0  0
  6 11  1  0  0  0
 11 12  2  0  0  0
 12 13  1  0  0  0
 13 14  1  0  0  0
 14 15  2  0  0  0
 14 16  1  0  0  0
 16 17  1  0  0  0
  3 19  1  0  0  0
 19 20  2  0  0  0
 20 21  1  0  0  0
 21 22  2  0  0  0
 22 23  1  0  0  0
 23 24  2  0  0  0
 35 30  1  0  0  0
 10  1  1  0  0  0
 16 11  1  0  0  0
 24 19  1  0  0  0
 10  5  1  0  0  0
 27 28  1  0  0  0
 13 18  1  0  0  0
M  END
> <minimizedAffinity>
-4.98654

> <CNNscore>
0.1584864557

> <CNNaffinity>
5.7231326103

> <CNN_VS>
0.9070389867

> <CNNaffinity_variance>
0.1503788531

$$$$
[H]c1nc(C([H])([H])C([H])([H])[H])c(Oc2c([H])c(C(=O)N([H])c3c([H])c([H])c4oc(C(C([H])([H])[H])(C([H])([H])[H])C([H])([H])[H])nc4c3[H])c([H])c(N(C([H])([H])[H])C([H])([H])[H])c2[H])c([H])c1[H]


 35 38  0  0  0  0  0  0  0  0999 V2000
  155.0227  140.8419  182.9461 C   0  0  0  0  0  0  0  0  0  0  0  0
  153.9161  140.6407  182.1210 C   0  0  0  0  0  0  0  0  0  0  0  0
  152.9849  139.6524  182.3231 C   0  0  0  0  0  0  0  0  0  0  0  0
  153.1778  138.8117  183.4278 C   0  0  0  0  0  0  0  0  0  0  0  0
  154.2507  138.9797  184.2561 C   0  0  0  0  0  0  0  0  0  0  0  0
  155.1476  139.9573  184.0307 C   0  0  0  0  0  0  0  0  0  0  0  0
  154.3546  138.0872  185.4059 C   0  0  0  0  0  0  0  0  0  0  0  0
  153.4755  137.2128  185.5158 O   0  0  0  0  0  0  0  0  0  0  0  0
  155.4393  138.3094  186.2691 N   0  0  0  0  0  0  0  0  0  0  0  0
  156.0926  139.1252  185.9711 H   0  0  0  0  0  0  0  0  0  0  0  0
  155.7856  137.6125  187.4468 C   0  0  0  0  0  0  0  0  0  0  0  0
  155.6912  138.1099  188.7093 C   0  0  0  0  0  0  0  0  0  0  0  0
  156.0683  137.3832  189.8413 C   0  0  0  0  0  0  0  0  0  0  0  0
  156.5554  136.1173  189.7061 C   0  0  0  0  0  0  0  0  0  0  0  0
  156.9876  135.1951  190.5562 O   0  0  0  0  0  0  0  0  0  0  0  0
  157.3698  134.1087  189.9356 C   0  0  0  0  0  0  0  0  0  0  0  0
  157.1754  134.3383  188.6277 N   0  0  0  0  0  0  0  0  0  0  0  0
  156.6669  135.5784  188.4413 C   0  0  0  0  0  0  0  0  0  0  0  0
  156.2886  136.3137  187.3469 C   0  0  0  0  0  0  0  0  0  0  0  0
  157.9189  132.8502  190.5572 C   0  0  0  0  0  0  0  0  0  0  0  0
  159.2988  132.6275  189.9182 C   0  0  0  0  0  0  0  0  0  0  0  0
  158.1165  133.0623  192.0200 C   0  0  0  0  0  0  0  0  0  0  0  0
  157.0374  131.6808  190.2285 C   0  0  0  0  0  0  0  0  0  0  0  0
  151.8951  139.4530  181.4542 N   0  0  0  0  0  0  0  0  0  0  0  0
  150.7145  138.7659  181.8834 C   0  0  0  0  0  0  0  0  0  0  0  0
  152.0069  139.9482  180.1086 C   0  0  0  0  0  0  0  0  0  0  0  0
  155.9481  141.8388  182.7376 O   0  0  0  0  0  0  0  0  0  0  0  0
  158.1971  141.7075  182.0131 C   0  0  0  0  0  0  0  0  0  0  0  0
  159.5021  141.6280  182.2131 N   0  0  0  0  0  0  0  0  0  0  0  0
  160.0259  141.5970  183.4557 C   0  0  0  0  0  0  0  0  0  0  0  0
  159.1700  141.6488  184.5328 C   0  0  0  0  0  0  0  0  0  0  0  0
  157.8052  141.7315  184.3294 C   0  0  0  0  0  0  0  0  0  0  0  0
  157.2779  141.7633  183.0526 C   0  0  0  0  0  0  0  0  0  0  0  0
  158.7594  142.5562  179.8300 C   0  0  0  0  0  0  0  0  0  0  0  0
  157.6999  141.7693  180.6111 C   0  0  0  0  0  0  0  0  0  0  0  0
 34 35  1  0  0  0
 35 28  1  0  0  0
 28 29  2  0  0  0
 29 30  1  0  0  0
 30 31  2  0  0  0
 31 32  1  0  0  0
 32 33  2  0  0  0
 33 27  1  0  0  0
 27  1  1  0  0  0
  1  2  2  0  0  0
  2  3  1  0  0  0
  3  4  2  0  0  0
  4  5  1  0  0  0
  5  6  2  0  0  0
  5  7  1  0  0  0
  7  8  2  0  0  0
  7  9  1  0  0  0
  9 11  1  0  0  0
 11 12  2  0  0  0
 12 13  1  0  0  0
 13 14  2  0  0  0
 14 15  1  0  0  0
 15 16  1  0  0  0
 16 17  2  0  0  0
 17 18  1  0  0  0
 18 19  2  0  0  0
 16 20  1  0  0  0
 20 21  1  0  0  0
 20 22  1  0  0  0
 20 23  1  0  0  0
  3 24  1  0  0  0
 24 25  1  0  0  0
 24 26  1  0  0  0
 33 28  1  0  0  0
  6  1  1  0  0  0
 19 11  1  0  0  0
 18 14  1  0  0  0
  9 10  1  0  0  0
M  END
> <minimizedAffinity>
-8.50386

> <CNNscore>
0.3056711555

> <CNNaffinity>
6.3682260513

> <CNN_VS>
1.9465830326

> <CNNaffinity_variance>
0.1696563214

$$$$
[H]c1nc(C([H])([H])C([H])([H])[H])c(Oc2c([H])c(C(=O)N([H])c3c([H])c([H])c4oc(C(C([H])([H])[H])(C([H])([H])[H])C([H])([H])[H])nc4c3[H])c([H])c(N(C([H])([H])[H])C([H])([H])[H])c2[H])c([H])c1[H]


 35 38  0  0  0  0  0  0  0  0999 V2000
  155.2097  140.5210  183.1924 C   0  0  0  0  0  0  0  0  0  0  0  0
  154.1129  140.2901  182.3619 C   0  0  0  0  0  0  0  0  0  0  0  0
  153.1413  139.3566  182.6251 C   0  0  0  0  0  0  0  0  0  0  0  0
  153.2804  138.6066  183.8009 C   0  0  0  0  0  0  0  0  0  0  0  0
  154.3422  138.8058  184.6366 C   0  0  0  0  0  0  0  0  0  0  0  0
  155.2795  139.7279  184.3503 C   0  0  0  0  0  0  0  0  0  0  0  0
  154.3895  138.0112  185.8596 C   0  0  0  0  0  0  0  0  0  0  0  0
  154.6658  136.8043  185.7314 O   0  0  0  0  0  0  0  0  0  0  0  0
  154.1182  138.6946  187.0555 N   0  0  0  0  0  0  0  0  0  0  0  0
  153.9123  139.7546  186.9322 H   0  0  0  0  0  0  0  0  0  0  0  0
  154.0901  138.1884  188.3730 C   0  0  0  0  0  0  0  0  0  0  0  0
  155.0808  138.3395  189.2928 C   0  0  0  0  0  0  0  0  0  0  0  0
  155.0108  137.7989  190.5791 C   0  0  0  0  0  0  0  0  0  0  0  0
  153.9137  137.0840  190.9578 C   0  0  0  0  0  0  0  0  0  0  0  0
  153.5538  136.4600  192.0719 O   0  0  0  0  0  0  0  0  0  0  0  0
  152.3795  135.8962  191.9506 C   0  0  0  0  0  0  0  0  0  0  0  0
  151.9621  136.1681  190.7044 N   0  0  0  0  0  0  0  0  0  0  0  0
  152.8883  136.9083  190.0522 C   0  0  0  0  0  0  0  0  0  0  0  0
  152.9826  137.4507  188.7959 C   0  0  0  0  0  0  0  0  0  0  0  0
  151.6393  135.1001  192.9947 C   0  0  0  0  0  0  0  0  0  0  0  0
  152.5712  135.0287  194.2147 C   0  0  0  0  0  0  0  0  0  0  0  0
  150.4055  135.8338  193.3986 C   0  0  0  0  0  0  0  0  0  0  0  0
  151.3806  133.7071  192.4993 C   0  0  0  0  0  0  0  0  0  0  0  0
  152.0623  139.1232  181.7513 N   0  0  0  0  0  0  0  0  0  0  0  0
  150.9659  138.2824  182.1271 C   0  0  0  0  0  0  0  0  0  0  0  0
  152.0989  139.7443  180.4546 C   0  0  0  0  0  0  0  0  0  0  0  0
  156.1759  141.4627  182.9220 O   0  0  0  0  0  0  0  0  0  0  0  0
  158.4709  141.2179  182.3994 C   0  0  0  0  0  0  0  0  0  0  0  0
  159.7544  141.1468  182.7106 N   0  0  0  0  0  0  0  0  0  0  0  0
  160.1796  141.2582  183.9858 C   0  0  0  0  0  0  0  0  0  0  0  0
  159.2440  141.4490  184.9777 C   0  0  0  0  0  0  0  0  0  0  0  0
  157.9012  141.5236  184.6580 C   0  0  0  0  0  0  0  0  0  0  0  0
  157.4753  141.4090  183.3486 C   0  0  0  0  0  0  0  0  0  0  0  0
  158.8504  142.2388  180.2508 C   0  0  0  0  0  0  0  0  0  0  0  0
  158.0853  141.1177  180.9648 C   0  0  0  0  0  0  0  0  0  0  0  0
 34 35  1  0  0  0
 35 28  1  0  0  0
 28 29  2  0  0  0
 29 30  1  0  0  0
 30 31  2  0  0  0
 31 32  1  0  0  0
 32 33  2  0  0  0
 33 27  1  0  0  0
 27  1  1  0  0  0
  1  2  2  0  0  0
  2  3  1  0  0  0
  3  4  2  0  0  0
  4  5  1  0  0  0
  5  6  2  0  0  0
  5  7  1  0  0  0
  7  8  2  0  0  0
  7  9  1  0  0  0
  9 11  1  0  0  0
 11 12  2  0  0  0
 12 13  1  0  0  0
 13 14  2  0  0  0
 14 15  1  0  0  0
 15 16  1  0  0  0
 16 17  2  0  0  0
 17 18  1  0  0  0
 18 19  2  0  0  0
 16 20  1  0  0  0
 20 21  1  0  0  0
 20 22  1  0  0  0
 20 23  1  0  0  0
  3 24  1  0  0  0
 24 25  1  0  0  0
 24 26  1  0  0  0
 33 28  1  0  0  0
  6  1  1  0  0  0
 19 11  1  0  0  0
 18 14  1  0  0  0
  9 10  1  0  0  0
M  END
> <minimizedAffinity>
-8.82768

> <CNNscore>
0.2900409102

> <CNNaffinity>
6.3092594147

> <CNN_VS>
1.8299432993

> <CNNaffinity_variance>
0.0851937011

$$$$
[H]c1nc(C([H])([H])C([H])([H])[H])c(Oc2c([H])c(C(=O)N([H])c3c([H])c([H])c4oc(C(C([H])([H])[H])(C([H])([H])[H])C([H])([H])[H])nc4c3[H])c([H])c(N(C([H])([H])[H])C([H])([H])[H])c2[H])c([H])c1[H]


 35 38  0  0  0  0  0  0  0  0999 V2000
  155.1868  135.8389  190.9651 C   0  0  0  0  0  0  0  0  0  0  0  0
  156.3514  135.1763  190.5771 C   0  0  0  0  0  0  0  0  0  0  0  0
  156.9077  135.2827  189.3265 C   0  0  0  0  0  0  0  0  0  0  0  0
  156.2510  136.1104  188.4055 C   0  0  0  0  0  0  0  0  0  0  0  0
  155.1081  136.7735  188.7514 C   0  0  0  0  0  0  0  0  0  0  0  0
  154.5863  136.6476  189.9854 C   0  0  0  0  0  0  0  0  0  0  0  0
  154.5105  137.6461  187.7460 C   0  0  0  0  0  0  0  0  0  0  0  0
  153.9052  138.6495  188.1659 O   0  0  0  0  0  0  0  0  0  0  0  0
  154.6829  137.2609  186.4071 N   0  0  0  0  0  0  0  0  0  0  0  0
  155.2596  136.3498  186.2710 H   0  0  0  0  0  0  0  0  0  0  0  0
  154.2182  137.9022  185.2386 C   0  0  0  0  0  0  0  0  0  0  0  0
  154.8138  138.9680  184.6390 C   0  0  0  0  0  0  0  0  0  0  0  0
  154.2991  139.5793  183.4931 C   0  0  0  0  0  0  0  0  0  0  0  0
  153.1512  139.1088  182.9282 C   0  0  0  0  0  0  0  0  0  0  0  0
  152.4273  139.4578  181.8727 O   0  0  0  0  0  0  0  0  0  0  0  0
  151.3783  138.6888  181.7321 C   0  0  0  0  0  0  0  0  0  0  0  0
  151.4266  137.8040  182.7400 N   0  0  0  0  0  0  0  0  0  0  0  0
  152.5175  138.0296  183.5082 C   0  0  0  0  0  0  0  0  0  0  0  0
  153.0451  137.4478  184.6328 C   0  0  0  0  0  0  0  0  0  0  0  0
  150.3241  138.7740  180.6582 C   0  0  0  0  0  0  0  0  0  0  0  0
  149.1604  139.5724  181.2670 C   0  0  0  0  0  0  0  0  0  0  0  0
  150.8559  139.5454  179.4981 C   0  0  0  0  0  0  0  0  0  0  0  0
  149.8354  137.4010  180.2996 C   0  0  0  0  0  0  0  0  0  0  0  0
  158.0668  134.5759  188.9534 N   0  0  0  0  0  0  0  0  0  0  0  0
  158.6755  133.6234  189.8322 C   0  0  0  0  0  0  0  0  0  0  0  0
  158.6365  134.8502  187.6617 C   0  0  0  0  0  0  0  0  0  0  0  0
  154.6398  135.7295  192.2230 O   0  0  0  0  0  0  0  0  0  0  0  0
  152.5600  134.7208  192.7301 C   0  0  0  0  0  0  0  0  0  0  0  0
  151.2699  134.7504  193.0206 N   0  0  0  0  0  0  0  0  0  0  0  0
  150.5983  135.9143  193.1367 C   0  0  0  0  0  0  0  0  0  0  0  0
  151.2841  137.0926  192.9444 C   0  0  0  0  0  0  0  0  0  0  0  0
  152.6323  137.0673  192.6403 C   0  0  0  0  0  0  0  0  0  0  0  0
  153.3120  135.8700  192.5240 C   0  0  0  0  0  0  0  0  0  0  0  0
  152.2125  132.3775  193.1666 C   0  0  0  0  0  0  0  0  0  0  0  0
  153.2361  133.3967  192.6513 C   0  0  0  0  0  0  0  0  0  0  0  0
 34 35  1  0  0  0
 35 28  1  0  0  0
 28 29  2  0  0  0
 29 30  1  0  0  0
 30 31  2  0  0  0
 31 32  1  0  0  0
 32 33  2  0  0  0
 33 27  1  0  0  0
 27  1  1  0  0  0
  1  2  2  0  0  0
  2  3  1  0  0  0
  3  4  2  0  0  0
  4  5  1  0  0  0
  5  6  2  0  0  0
  5  7  1  0  0  0
  7  8  2  0  0  0
  7  9  1  0  0  0
  9 11  1  0  0  0
 11 12  2  0  0  0
 12 13  1  0  0  0
 13 14  2  0  0  0
 14 15  1  0  0  0
 15 16  1  0  0  0
 16 17  2  0  0  0
 17 18  1  0  0  0
 18 19  2  0  0  0
 16 20  1  0  0  0
 20 21  1  0  0  0
 20 22  1  0  0  0
 20 23  1  0  0  0
  3 24  1  0  0  0
 24 25  1  0  0  0
 24 26  1  0  0  0
 33 28  1  0  0  0
  6  1  1  0  0  0
 19 11  1  0  0  0
 18 14  1  0  0  0
  9 10  1  0  0  0
M  END
> <minimizedAffinity>
-7.21449

> <CNNscore>
0.2659245431

> <CNNaffinity>
5.7104725838

> <CNN_VS>
1.5185548067

> <CNNaffinity_variance>
0.2543606162

$$$$
[H]c1nc(C([H])([H])C([H])([H])[H])c(Oc2c([H])c(C(=O)N([H])c3c([H])c([H])c4oc(C(C([H])([H])[H])(C([H])([H])[H])C([H])([H])[H])nc4c3[H])c([H])c(N(C([H])([H])[H])C([H])([H])[H])c2[H])c([H])c1[H]


 35 38  0  0  0  0  0  0  0  0999 V2000
  157.2712  135.4067  189.1494 C   0  0  0  0  0  0  0  0  0  0  0  0
  156.5542  136.1629  190.0767 C   0  0  0  0  0  0  0  0  0  0  0  0
  155.2896  136.6468  189.8501 C   0  0  0  0  0  0  0  0  0  0  0  0
  154.7067  136.3502  188.6105 C   0  0  0  0  0  0  0  0  0  0  0  0
  155.3804  135.6130  187.6788 C   0  0  0  0  0  0  0  0  0  0  0  0
  156.6201  135.1537  187.9301 C   0  0  0  0  0  0  0  0  0  0  0  0
  154.6854  135.3154  186.4307 C   0  0  0  0  0  0  0  0  0  0  0  0
  154.5728  134.1136  186.1267 O   0  0  0  0  0  0  0  0  0  0  0  0
  154.2150  136.4198  185.7027 N   0  0  0  0  0  0  0  0  0  0  0  0
  154.4156  137.3827  186.1649 H   0  0  0  0  0  0  0  0  0  0  0  0
  153.5189  136.4342  184.4748 C   0  0  0  0  0  0  0  0  0  0  0  0
  153.5972  135.4714  183.5171 C   0  0  0  0  0  0  0  0  0  0  0  0
  152.9016  135.5456  182.3079 C   0  0  0  0  0  0  0  0  0  0  0  0
  152.1011  136.6179  182.0482 C   0  0  0  0  0  0  0  0  0  0  0  0
  151.3333  136.9752  181.0270 O   0  0  0  0  0  0  0  0  0  0  0  0
  150.7471  138.1245  181.2437 C   0  0  0  0  0  0  0  0  0  0  0  0
  151.1529  138.5272  182.4579 N   0  0  0  0  0  0  0  0  0  0  0  0
  151.9966  137.6156  182.9949 C   0  0  0  0  0  0  0  0  0  0  0  0
  152.6901  137.5170  184.1742 C   0  0  0  0  0  0  0  0  0  0  0  0
  149.8056  138.8549  180.3207 C   0  0  0  0  0  0  0  0  0  0  0  0
  150.6667  139.8680  179.5497 C   0  0  0  0  0  0  0  0  0  0  0  0
  149.2290  137.8952  179.3358 C   0  0  0  0  0  0  0  0  0  0  0  0
  148.7734  139.6006  181.1151 C   0  0  0  0  0  0  0  0  0  0  0  0
  154.6029  137.4352  190.7930 N   0  0  0  0  0  0  0  0  0  0  0  0
  153.4311  136.9513  191.4586 C   0  0  0  0  0  0  0  0  0  0  0  0
  155.1050  138.7561  191.0602 C   0  0  0  0  0  0  0  0  0  0  0  0
  158.5368  134.9220  189.3880 O   0  0  0  0  0  0  0  0  0  0  0  0
  158.9510  132.6512  189.9093 C   0  0  0  0  0  0  0  0  0  0  0  0
  159.3800  131.4318  189.6289 N   0  0  0  0  0  0  0  0  0  0  0  0
  159.8990  131.1253  188.4222 C   0  0  0  0  0  0  0  0  0  0  0  0
  159.9793  132.1155  187.4691 C   0  0  0  0  0  0  0  0  0  0  0  0
  159.5328  133.3917  187.7570 C   0  0  0  0  0  0  0  0  0  0  0  0
  159.0021  133.6960  188.9959 C   0  0  0  0  0  0  0  0  0  0  0  0
  157.8822  131.5338  191.7564 C   0  0  0  0  0  0  0  0  0  0  0  0
  158.3620  132.9010  191.2536 C   0  0  0  0  0  0  0  0  0  0  0  0
 34 35  1  0  0  0
 35 28  1  0  0  0
 28 29  2  0  0  0
 29 30  1  0  0  0
 30 31  2  0  0  0
 31 32  1  0  0  0
 32 33  2  0  0  0
 33 27  1  0  0  0
 27  1  1  0  0  0
  1  2  2  0  0  0
  2  3  1  0  0  0
  3  4  2  0  0  0
  4  5  1  0  0  0
  5  6  2  0  0  0
  5  7  1  0  0  0
  7  8  2  0  0  0
  7  9  1  0  0  0
  9 11  1  0  0  0
 11 12  2  0  0  0
 12 13  1  0  0  0
 13 14  2  0  0  0
 14 15  1  0  0  0
 15 16  1  0  0  0
 16 17  2  0  0  0
 17 18  1  0  0  0
 18 19  2  0  0  0
 16 20  1  0  0  0
 20 21  1  0  0  0
 20 22  1  0  0  0
 20 23  1  0  0  0
  3 24  1  0  0  0
 24 25  1  0  0  0
 24 26  1  0  0  0
 33 28  1  0  0  0
  6  1  1  0  0  0
 19 11  1  0  0  0
 18 14  1  0  0  0
  9 10  1  0  0  0
M  END
> <minimizedAffinity>
-6.28153

> <CNNscore>
0.2302723229

> <CNNaffinity>
5.6891455650

> <CNN_VS>
1.3100527525

> <CNNaffinity_variance>
0.0562147200

$$$$
[H]c1nc(C([H])([H])C([H])([H])[H])c(Oc2c([H])c(C(=O)N([H])c3c([H])c([H])c4oc(C(C([H])([H])[H])(C([H])([H])[H])C([H])([H])[H])nc4c3[H])c([H])c(N(C([H])([H])[H])C([H])([H])[H])c2[H])c([H])c1[H]


 35 38  0  0  0  0  0  0  0  0999 V2000
  157.0087  135.8593  189.0736 C   0  0  0  0  0  0  0  0  0  0  0  0
  156.3043  136.4235  190.1373 C   0  0  0  0  0  0  0  0  0  0  0  0
  155.2263  137.2588  189.9794 C   0  0  0  0  0  0  0  0  0  0  0  0
  154.8292  137.5450  188.6660 C   0  0  0  0  0  0  0  0  0  0  0  0
  155.4966  137.0105  187.6009 C   0  0  0  0  0  0  0  0  0  0  0  0
  156.5512  136.1958  187.7883 C   0  0  0  0  0  0  0  0  0  0  0  0
  154.9930  137.3270  186.2684 C   0  0  0  0  0  0  0  0  0  0  0  0
  155.3971  138.3868  185.7556 O   0  0  0  0  0  0  0  0  0  0  0  0
  154.1038  136.3991  185.7036 N   0  0  0  0  0  0  0  0  0  0  0  0
  153.8985  135.5337  186.3282 H   0  0  0  0  0  0  0  0  0  0  0  0
  153.4637  136.4445  184.4462 C   0  0  0  0  0  0  0  0  0  0  0  0
  153.6203  135.5288  183.4526 C   0  0  0  0  0  0  0  0  0  0  0  0
  152.9776  135.6329  182.2166 C   0  0  0  0  0  0  0  0  0  0  0  0
  152.1508  136.6874  181.9664 C   0  0  0  0  0  0  0  0  0  0  0  0
  151.4172  137.0633  180.9268 O   0  0  0  0  0  0  0  0  0  0  0  0
  150.7801  138.1807  181.1654 C   0  0  0  0  0  0  0  0  0  0  0  0
  151.1158  138.5424  182.4135 N   0  0  0  0  0  0  0  0  0  0  0  0
  151.9673  137.6375  182.9494 C   0  0  0  0  0  0  0  0  0  0  0  0
  152.6101  137.5103  184.1544 C   0  0  0  0  0  0  0  0  0  0  0  0
  149.8550  138.9187  180.2319 C   0  0  0  0  0  0  0  0  0  0  0  0
  149.1514  137.8417  179.3912 C   0  0  0  0  0  0  0  0  0  0  0  0
  148.8163  139.6371  181.0249 C   0  0  0  0  0  0  0  0  0  0  0  0
  150.6429  139.8106  179.3173 C   0  0  0  0  0  0  0  0  0  0  0  0
  154.5548  137.8394  191.0722 N   0  0  0  0  0  0  0  0  0  0  0  0
  153.5218  137.1370  191.7722 C   0  0  0  0  0  0  0  0  0  0  0  0
  154.9263  139.1736  191.4596 C   0  0  0  0  0  0  0  0  0  0  0  0
  158.0853  135.0191  189.2426 O   0  0  0  0  0  0  0  0  0  0  0  0
  158.2548  132.6601  189.1627 C   0  0  0  0  0  0  0  0  0  0  0  0
  158.2418  131.4537  189.7048 N   0  0  0  0  0  0  0  0  0  0  0  0
  158.0346  131.2746  191.0255 C   0  0  0  0  0  0  0  0  0  0  0  0
  157.8320  132.3830  191.8167 C   0  0  0  0  0  0  0  0  0  0  0  0
  157.8442  133.6461  191.2552 C   0  0  0  0  0  0  0  0  0  0  0  0
  158.0578  133.8196  189.9012 C   0  0  0  0  0  0  0  0  0  0  0  0
  159.9971  133.1782  187.5819 C   0  0  0  0  0  0  0  0  0  0  0  0
  158.5221  132.7756  187.7027 C   0  0  0  0  0  0  0  0  0  0  0  0
 34 35  1  0  0  0
 35 28  1  0  0  0
 28 29  2  0  0  0
 29 30  1  0  0  0
 30 31  2  0  0  0
 31 32  1  0  0  0
 32 33  2  0  0  0
 33 27  1  0  0  0
 27  1  1  0  0  0
  1  2  2  0  0  0
  2  3  1  0  0  0
  3  4  2  0  0  0
  4  5  1  0  0  0
  5  6  2  0  0  0
  5  7  1  0  0  0
  7  8  2  0  0  0
  7  9  1  0  0  0
  9 11  1  0  0  0
 11 12  2  0  0  0
 12 13  1  0  0  0
 13 14  2  0  0  0
 14 15  1  0  0  0
 15 16  1  0  0  0
 16 17  2  0  0  0
 17 18  1  0  0  0
 18 19  2  0  0  0
 16 20  1  0  0  0
 20 21  1  0  0  0
 20 22  1  0  0  0
 20 23  1  0  0  0
  3 24  1  0  0  0
 24 25  1  0  0  0
 24 26  1  0  0  0
 33 28  1  0  0  0
  6  1  1  0  0  0
 19 11  1  0  0  0
 18 14  1  0  0  0
  9 10  1  0  0  0
M  END
> <minimizedAffinity>
-6.57841

> <CNNscore>
0.2248706371

> <CNNaffinity>
5.6777625084

> <CNN_VS>
1.2767621279

> <CNNaffinity_variance>
0.1017692462

$$$$
[H]c1nc(C([H])([H])C([H])([H])[H])c(Oc2c([H])c(C(=O)N([H])c3c([H])c([H])c4oc(C(C([H])([H])[H])(C([H])([H])[H])C([H])([H])[H])nc4c3[H])c([H])c(N(C([H])([H])[H])C([H])([H])[H])c2[H])c([H])c1[H]


 35 38  0  0  0  0  0  0  0  0999 V2000
  154.9015  140.5410  183.5953 C   0  0  0  0  0  0  0  0  0  0  0  0
  153.9920  140.1034  182.6323 C   0  0  0  0  0  0  0  0  0  0  0  0
  153.1953  138.9958  182.7846 C   0  0  0  0  0  0  0  0  0  0  0  0
  153.3198  138.2816  183.9842 C   0  0  0  0  0  0  0  0  0  0  0  0
  154.2008  138.6812  184.9483 C   0  0  0  0  0  0  0  0  0  0  0  0
  154.9696  139.7710  184.7688 C   0  0  0  0  0  0  0  0  0  0  0  0
  154.2386  137.9051  186.1834 C   0  0  0  0  0  0  0  0  0  0  0  0
  154.5063  136.6943  186.0745 O   0  0  0  0  0  0  0  0  0  0  0  0
  153.9690  138.6086  187.3680 N   0  0  0  0  0  0  0  0  0  0  0  0
  153.7713  139.6680  187.2279 H   0  0  0  0  0  0  0  0  0  0  0  0
  153.9333  138.1228  188.6929 C   0  0  0  0  0  0  0  0  0  0  0  0
  154.8684  138.3774  189.6474 C   0  0  0  0  0  0  0  0  0  0  0  0
  154.7954  137.8530  190.9402 C   0  0  0  0  0  0  0  0  0  0  0  0
  153.7525  137.0478  191.2899 C   0  0  0  0  0  0  0  0  0  0  0  0
  153.4053  136.4114  192.4009 O   0  0  0  0  0  0  0  0  0  0  0  0
  152.2923  135.7417  192.2451 C   0  0  0  0  0  0  0  0  0  0  0  0
  151.9029  135.9551  190.9786 N   0  0  0  0  0  0  0  0  0  0  0  0
  152.7845  136.7657  190.3487 C   0  0  0  0  0  0  0  0  0  0  0  0
  152.8804  137.2946  189.0867 C   0  0  0  0  0  0  0  0  0  0  0  0
  151.5851  134.8985  193.2749 C   0  0  0  0  0  0  0  0  0  0  0  0
  152.4224  135.0047  194.5593 C   0  0  0  0  0  0  0  0  0  0  0  0
  150.2387  135.4763  193.5525 C   0  0  0  0  0  0  0  0  0  0  0  0
  151.5495  133.4636  192.8360 C   0  0  0  0  0  0  0  0  0  0  0  0
  152.3093  138.5595  181.7811 N   0  0  0  0  0  0  0  0  0  0  0  0
  152.1960  139.2520  180.5329 C   0  0  0  0  0  0  0  0  0  0  0  0
  151.5034  137.3996  182.0517 C   0  0  0  0  0  0  0  0  0  0  0  0
  155.6923  141.6556  183.4350 O   0  0  0  0  0  0  0  0  0  0  0  0
  158.0583  141.6152  183.4455 C   0  0  0  0  0  0  0  0  0  0  0  0
  159.2452  141.6525  182.8628 N   0  0  0  0  0  0  0  0  0  0  0  0
  159.3723  141.7742  181.5255 C   0  0  0  0  0  0  0  0  0  0  0  0
  158.2309  141.8620  180.7607 C   0  0  0  0  0  0  0  0  0  0  0  0
  156.9881  141.8240  181.3646 C   0  0  0  0  0  0  0  0  0  0  0  0
  156.8678  141.6985  182.7354 C   0  0  0  0  0  0  0  0  0  0  0  0
  159.3988  141.8194  185.4365 C   0  0  0  0  0  0  0  0  0  0  0  0
  158.0022  141.4469  184.9237 C   0  0  0  0  0  0  0  0  0  0  0  0
 34 35  1  0  0  0
 35 28  1  0  0  0
 28 29  2  0  0  0
 29 30  1  0  0  0
 30 31  2  0  0  0
 31 32  1  0  0  0
 32 33  2  0  0  0
 33 27  1  0  0  0
 27  1  1  0  0  0
  1  2  2  0  0  0
  2  3  1  0  0  0
  3  4  2  0  0  0
  4  5  1  0  0  0
  5  6  2  0  0  0
  5  7  1  0  0  0
  7  8  2  0  0  0
  7  9  1  0  0  0
  9 11  1  0  0  0
 11 12  2  0  0  0
 12 13  1  0  0  0
 13 14  2  0  0  0
 14 15  1  0  0  0
 15 16  1  0  0  0
 16 17  2  0  0  0
 17 18  1  0  0  0
 18 19  2  0  0  0
 16 20  1  0  0  0
 20 21  1  0  0  0
 20 22  1  0  0  0
 20 23  1  0  0  0
  3 24  1  0  0  0
 24 25  1  0  0  0
 24 26  1  0  0  0
 33 28  1  0  0  0
  6  1  1  0  0  0
 19 11  1  0  0  0
 18 14  1  0  0  0
  9 10  1  0  0  0
M  END
> <minimizedAffinity>
-8.45017

> <CNNscore>
0.2117996514

> <CNNaffinity>
6.1839303970

> <CNN_VS>
1.3097542524

> <CNNaffinity_variance>
0.1046952456

$$$$
[H]c1nc(C([H])([H])C([H])([H])[H])c(Oc2c([H])c(C(=O)N([H])c3c([H])c([H])c4oc(C(C([H])([H])[H])(C([H])([H])[H])C([H])([H])[H])nc4c3[H])c([H])c(N(C([H])([H])[H])C([H])([H])[H])c2[H])c([H])c1[H]


 35 38  0  0  0  0  0  0  0  0999 V2000
  155.9471  140.2724  183.7921 C   0  0  0  0  0  0  0  0  0  0  0  0
  154.8631  140.1391  182.9243 C   0  0  0  0  0  0  0  0  0  0  0  0
  153.7949  139.3101  183.1615 C   0  0  0  0  0  0  0  0  0  0  0  0
  153.8168  138.5670  184.3496 C   0  0  0  0  0  0  0  0  0  0  0  0
  154.8626  138.6723  185.2217 C   0  0  0  0  0  0  0  0  0  0  0  0
  155.8965  139.4930  184.9603 C   0  0  0  0  0  0  0  0  0  0  0  0
  154.7872  137.8945  186.4541 C   0  0  0  0  0  0  0  0  0  0  0  0
  155.0625  136.6836  186.3684 O   0  0  0  0  0  0  0  0  0  0  0  0
  154.4117  138.5969  187.6102 N   0  0  0  0  0  0  0  0  0  0  0  0
  154.2287  139.6568  187.4541 H   0  0  0  0  0  0  0  0  0  0  0  0
  154.2552  138.1096  188.9257 C   0  0  0  0  0  0  0  0  0  0  0  0
  155.1176  138.3340  189.9534 C   0  0  0  0  0  0  0  0  0  0  0  0
  154.9254  137.8092  191.2337 C   0  0  0  0  0  0  0  0  0  0  0  0
  153.8344  137.0348  191.4948 C   0  0  0  0  0  0  0  0  0  0  0  0
  153.3802  136.4068  192.5715 O   0  0  0  0  0  0  0  0  0  0  0  0
  152.2639  135.7711  192.3238 C   0  0  0  0  0  0  0  0  0  0  0  0
  151.9841  135.9987  191.0311 N   0  0  0  0  0  0  0  0  0  0  0  0
  152.9372  136.7839  190.4777 C   0  0  0  0  0  0  0  0  0  0  0  0
  153.1499  137.3124  189.2299 C   0  0  0  0  0  0  0  0  0  0  0  0
  151.4515  134.9472  193.2896 C   0  0  0  0  0  0  0  0  0  0  0  0
  150.0416  135.5588  193.2890 C   0  0  0  0  0  0  0  0  0  0  0  0
  151.3476  133.5475  192.7856 C   0  0  0  0  0  0  0  0  0  0  0  0
  152.0254  135.0518  194.6725 C   0  0  0  0  0  0  0  0  0  0  0  0
  152.7299  139.1720  182.2510 N   0  0  0  0  0  0  0  0  0  0  0  0
  152.4302  140.1927  181.2925 C   0  0  0  0  0  0  0  0  0  0  0  0
  151.9349  137.9756  182.3206 C   0  0  0  0  0  0  0  0  0  0  0  0
  157.0111  141.1100  183.5475 O   0  0  0  0  0  0  0  0  0  0  0  0
  157.2310  142.7500  181.8557 C   0  0  0  0  0  0  0  0  0  0  0  0
  157.6329  143.1829  180.6723 N   0  0  0  0  0  0  0  0  0  0  0  0
  158.3139  142.3869  179.8226 C   0  0  0  0  0  0  0  0  0  0  0  0
  158.5895  141.0945  180.2087 C   0  0  0  0  0  0  0  0  0  0  0  0
  158.1714  140.6368  181.4442 C   0  0  0  0  0  0  0  0  0  0  0  0
  157.4748  141.4599  182.3082 C   0  0  0  0  0  0  0  0  0  0  0  0
  155.0529  143.6881  182.2783 C   0  0  0  0  0  0  0  0  0  0  0  0
  156.5126  143.7002  182.7488 C   0  0  0  0  0  0  0  0  0  0  0  0
 34 35  1  0  0  0
 35 28  1  0  0  0
 28 29  2  0  0  0
 29 30  1  0  0  0
 30 31  2  0  0  0
 31 32  1  0  0  0
 32 33  2  0  0  0
 33 27  1  0  0  0
 27  1  1  0  0  0
  1  2  2  0  0  0
  2  3  1  0  0  0
  3  4  2  0  0  0
  4  5  1  0  0  0
  5  6  2  0  0  0
  5  7  1  0  0  0
  7  8  2  0  0  0
  7  9  1  0  0  0
  9 11  1  0  0  0
 11 12  2  0  0  0
 12 13  1  0  0  0
 13 14  2  0  0  0
 14 15  1  0  0  0
 15 16  1  0  0  0
 16 17  2  0  0  0
 17 18  1  0  0  0
 18 19  2  0  0  0
 16 20  1  0  0  0
 20 21  1  0  0  0
 20 22  1  0  0  0
 20 23  1  0  0  0
  3 24  1  0  0  0
 24 25  1  0  0  0
 24 26  1  0  0  0
 33 28  1  0  0  0
  6  1  1  0  0  0
 19 11  1  0  0  0
 18 14  1  0  0  0
  9 10  1  0  0  0
M  END
> <minimizedAffinity>
-8.57643

> <CNNscore>
0.2102768719

> <CNNaffinity>
6.0707445145

> <CNN_VS>
1.2765371799

> <CNNaffinity_variance>
0.1629610956

$$$$
[H]c1nc(C([H])([H])C([H])([H])[H])c(Oc2c([H])c(C(=O)N([H])c3c([H])c([H])c4oc(C(C([H])([H])[H])(C([H])([H])[H])C([H])([H])[H])nc4c3[H])c([H])c(N(C([H])([H])[H])C([H])([H])[H])c2[H])c([H])c1[H]


 35 38  0  0  0  0  0  0  0  0999 V2000
  154.7477  140.9624  183.0272 C   0  0  0  0  0  0  0  0  0  0  0  0
  153.7048  140.7169  182.1340 C   0  0  0  0  0  0  0  0  0  0  0  0
  152.8399  139.6566  182.2457 C   0  0  0  0  0  0  0  0  0  0  0  0
  153.0352  138.7864  183.3270 C   0  0  0  0  0  0  0  0  0  0  0  0
  154.0469  138.9962  184.2202 C   0  0  0  0  0  0  0  0  0  0  0  0
  154.8797  140.0444  184.0829 C   0  0  0  0  0  0  0  0  0  0  0  0
  154.1551  138.0661  185.3394 C   0  0  0  0  0  0  0  0  0  0  0  0
  153.3267  137.1378  185.3764 O   0  0  0  0  0  0  0  0  0  0  0  0
  155.1861  138.3171  186.2586 N   0  0  0  0  0  0  0  0  0  0  0  0
  155.8010  139.1813  186.0213 H   0  0  0  0  0  0  0  0  0  0  0  0
  155.5229  137.5953  187.4240 C   0  0  0  0  0  0  0  0  0  0  0  0
  155.2997  138.0145  188.6986 C   0  0  0  0  0  0  0  0  0  0  0  0
  155.6728  137.2684  189.8192 C   0  0  0  0  0  0  0  0  0  0  0  0
  156.2892  136.0631  189.6596 C   0  0  0  0  0  0  0  0  0  0  0  0
  156.7545  135.1427  190.4940 O   0  0  0  0  0  0  0  0  0  0  0  0
  157.2801  134.1314  189.8518 C   0  0  0  0  0  0  0  0  0  0  0  0
  157.1483  134.4099  188.5456 N   0  0  0  0  0  0  0  0  0  0  0  0
  156.5337  135.6044  188.3820 C   0  0  0  0  0  0  0  0  0  0  0  0
  156.1560  136.3570  187.2992 C   0  0  0  0  0  0  0  0  0  0  0  0
  157.9090  132.8997  190.4510 C   0  0  0  0  0  0  0  0  0  0  0  0
  159.3231  132.8117  189.8556 C   0  0  0  0  0  0  0  0  0  0  0  0
  158.0394  133.0743  191.9262 C   0  0  0  0  0  0  0  0  0  0  0  0
  157.1373  131.6757  190.0520 C   0  0  0  0  0  0  0  0  0  0  0  0
  151.8159  139.4160  181.3099 N   0  0  0  0  0  0  0  0  0  0  0  0
  152.0000  139.6868  179.9160 C   0  0  0  0  0  0  0  0  0  0  0  0
  150.5646  138.9015  181.7978 C   0  0  0  0  0  0  0  0  0  0  0  0
  155.6065  142.0311  182.9092 O   0  0  0  0  0  0  0  0  0  0  0  0
  157.9495  141.9223  183.2234 C   0  0  0  0  0  0  0  0  0  0  0  0
  159.2001  141.8772  182.7951 N   0  0  0  0  0  0  0  0  0  0  0  0
  159.4972  141.8862  181.4794 C   0  0  0  0  0  0  0  0  0  0  0  0
  158.4641  141.9452  180.5713 C   0  0  0  0  0  0  0  0  0  0  0  0
  157.1553  141.9928  181.0135 C   0  0  0  0  0  0  0  0  0  0  0  0
  156.8607  141.9826  182.3634 C   0  0  0  0  0  0  0  0  0  0  0  0
  159.0555  141.5313  185.3273 C   0  0  0  0  0  0  0  0  0  0  0  0
  157.7034  141.8761  184.6909 C   0  0  0  0  0  0  0  0  0  0  0  0
 34 35  1  0  0  0
 35 28  1  0  0  0
 28 29  2  0  0  0
 29 30  1  0  0  0
 30 31  2  0  0  0
 31 32  1  0  0  0
 32 33  2  0  0  0
 33 27  1  0  0  0
 27  1  1  0  0  0
  1  2  2  0  0  0
  2  3  1  0  0  0
  3  4  2  0  0  0
  4  5  1  0  0  0
  5  6  2  0  0  0
  5  7  1  0  0  0
  7  8  2  0  0  0
  7  9  1  0  0  0
  9 11  1  0  0  0
 11 12  2  0  0  0
 12 13  1  0  0  0
 13 14  2  0  0  0
 14 15  1  0  0  0
 15 16  1  0  0  0
 16 17  2  0  0  0
 17 18  1  0  0  0
 18 19  2  0  0  0
 16 20  1  0  0  0
 20 21  1  0  0  0
 20 22  1  0  0  0
 20 23  1  0  0  0
  3 24  1  0  0  0
 24 25  1  0  0  0
 24 26  1  0  0  0
 33 28  1  0  0  0
  6  1  1  0  0  0
 19 11  1  0  0  0
 18 14  1  0  0  0
  9 10  1  0  0  0
M  END
> <minimizedAffinity>
-8.15932

> <CNNscore>
0.2096869200

> <CNNaffinity>
6.2271881104

> <CNN_VS>
1.3057599068

> <CNNaffinity_variance>
0.2481277734

$$$$
[H]c1nc(C([H])([H])C([H])([H])[H])c(Oc2c([H])c(C(=O)N([H])c3c([H])c([H])c4oc(C(C([H])([H])[H])(C([H])([H])[H])C([H])([H])[H])nc4c3[H])c([H])c(N(C([H])([H])[H])C([H])([H])[H])c2[H])c([H])c1[H]


 35 38  0  0  0  0  0  0  0  0999 V2000
  155.1939  140.8918  182.7647 C   0  0  0  0  0  0  0  0  0  0  0  0
  154.1052  140.7066  181.9125 C   0  0  0  0  0  0  0  0  0  0  0  0
  153.0951  139.8081  182.1513 C   0  0  0  0  0  0  0  0  0  0  0  0
  153.1843  139.0464  183.3245 C   0  0  0  0  0  0  0  0  0  0  0  0
  154.2368  139.2012  184.1811 C   0  0  0  0  0  0  0  0  0  0  0  0
  155.2127  140.0897  183.9183 C   0  0  0  0  0  0  0  0  0  0  0  0
  154.2318  138.3981  185.3994 C   0  0  0  0  0  0  0  0  0  0  0  0
  155.3175  138.2831  185.9972 O   0  0  0  0  0  0  0  0  0  0  0  0
  152.9986  137.8390  185.7701 N   0  0  0  0  0  0  0  0  0  0  0  0
  152.1752  138.0814  185.1034 H   0  0  0  0  0  0  0  0  0  0  0  0
  152.6989  137.0256  186.8842 C   0  0  0  0  0  0  0  0  0  0  0  0
  152.2775  135.7338  186.8218 C   0  0  0  0  0  0  0  0  0  0  0  0
  151.9738  134.9790  187.9575 C   0  0  0  0  0  0  0  0  0  0  0  0
  152.0961  135.5345  189.1963 C   0  0  0  0  0  0  0  0  0  0  0  0
  151.8911  135.0975  190.4320 O   0  0  0  0  0  0  0  0  0  0  0  0
  152.1477  136.0238  191.3196 C   0  0  0  0  0  0  0  0  0  0  0  0
  152.5362  137.1061  190.6276 N   0  0  0  0  0  0  0  0  0  0  0  0
  152.5199  136.8430  189.3003 C   0  0  0  0  0  0  0  0  0  0  0  0
  152.8122  137.5611  188.1688 C   0  0  0  0  0  0  0  0  0  0  0  0
  152.0321  135.9064  192.8177 C   0  0  0  0  0  0  0  0  0  0  0  0
  152.0429  137.3447  193.3591 C   0  0  0  0  0  0  0  0  0  0  0  0
  150.7202  135.2907  193.1694 C   0  0  0  0  0  0  0  0  0  0  0  0
  153.2153  135.1694  193.3741 C   0  0  0  0  0  0  0  0  0  0  0  0
  152.0248  139.6200  181.2561 N   0  0  0  0  0  0  0  0  0  0  0  0
  152.1496  139.9397  179.8660 C   0  0  0  0  0  0  0  0  0  0  0  0
  150.7879  139.1089  181.7826 C   0  0  0  0  0  0  0  0  0  0  0  0
  156.1992  141.7987  182.5186 O   0  0  0  0  0  0  0  0  0  0  0  0
  158.5130  141.5209  182.1074 C   0  0  0  0  0  0  0  0  0  0  0  0
  159.7782  141.4253  182.4809 N   0  0  0  0  0  0  0  0  0  0  0  0
  160.1413  141.5170  183.7767 C   0  0  0  0  0  0  0  0  0  0  0  0
  159.1610  141.7136  184.7231 C   0  0  0  0  0  0  0  0  0  0  0  0
  157.8371  141.8137  184.3382 C   0  0  0  0  0  0  0  0  0  0  0  0
  157.4748  141.7191  183.0082 C   0  0  0  0  0  0  0  0  0  0  0  0
  158.7663  142.7242  180.0361 C   0  0  0  0  0  0  0  0  0  0  0  0
  158.1974  141.4413  180.6546 C   0  0  0  0  0  0  0  0  0  0  0  0
 34 35  1  0  0  0
 35 28  1  0  0  0
 28 29  2  0  0  0
 29 30  1  0  0  0
 30 31  2  0  0  0
 31 32  1  0  0  0
 32 33  2  0  0  0
 33 27  1  0  0  0
 27  1  1  0  0  0
  1  2  2  0  0  0
  2  3  1  0  0  0
  3  4  2  0  0  0
  4  5  1  0  0  0
  5  6  2  0  0  0
  5  7  1  0  0  0
  7  8  2  0  0  0
  7  9  1  0  0  0
  9 11  1  0  0  0
 11 12  2  0  0  0
 12 13  1  0  0  0
 13 14  2  0  0  0
 14 15  1  0  0  0
 15 16  1  0  0  0
 16 17  2  0  0  0
 17 18  1  0  0  0
 18 19  2  0  0  0
 16 20  1  0  0  0
 20 21  1  0  0  0
 20 22  1  0  0  0
 20 23  1  0  0  0
  3 24  1  0  0  0
 24 25  1  0  0  0
 24 26  1  0  0  0
 33 28  1  0  0  0
  6  1  1  0  0  0
 19 11  1  0  0  0
 18 14  1  0  0  0
  9 10  1  0  0  0
M  END
> <minimizedAffinity>
-8.21851

> <CNNscore>
0.1716341376

> <CNNaffinity>
6.1708154678

> <CNN_VS>
1.0591225624

> <CNNaffinity_variance>
0.0411017574

$$$$
[H]c1c(C(=O)N2C([H])([H])C([H])([H])N(C([H])([H])[H])C([H])([H])C2([H])[H])nc(-c2c([H])c(F)c(F)c(N([H])c3c([H])c([H])c(C(F)(F)F)c([H])c3[H])c2[H])nc1N1C([H])([H])C([H])([H])OC([H])([H])C1([H])[H]


 41 45  0  0  0  0  0  0  0  0999 V2000
  154.9494  137.3124  186.7374 C   0  0  0  0  0  0  0  0  0  0  0  0
  153.7394  136.6468  186.4047 C   0  0  0  0  0  0  0  0  0  0  0  0
  152.9653  137.0500  185.3434 C   0  0  0  0  0  0  0  0  0  0  0  0
  153.4118  138.1197  184.6227 N   0  0  0  0  0  0  0  0  0  0  0  0
  154.5328  138.7765  184.8978 C   0  0  0  0  0  0  0  0  0  0  0  0
  155.2520  138.3328  185.9558 N   0  0  0  0  0  0  0  0  0  0  0  0
  154.3202  135.2520  191.3026 C   0  0  0  0  0  0  0  0  0  0  0  0
  154.6503  136.6599  191.4538 N   0  0  0  0  0  0  0  0  0  0  0  0
  153.9317  137.4876  190.5347 C   0  0  0  0  0  0  0  0  0  0  0  0
  154.8962  138.2759  189.6485 C   0  0  0  0  0  0  0  0  0  0  0  0
  155.7437  137.2846  189.0955 N   0  0  0  0  0  0  0  0  0  0  0  0
  156.6942  136.7270  190.0928 C   0  0  0  0  0  0  0  0  0  0  0  0
  156.0747  136.8641  191.4612 C   0  0  0  0  0  0  0  0  0  0  0  0
  155.7949  136.8198  187.8022 C   0  0  0  0  0  0  0  0  0  0  0  0
  156.6278  135.9004  187.4516 O   0  0  0  0  0  0  0  0  0  0  0  0
  155.1327  139.8351  184.0998 C   0  0  0  0  0  0  0  0  0  0  0  0
  154.3110  140.8093  183.5771 C   0  0  0  0  0  0  0  0  0  0  0  0
  154.7973  141.9002  182.9059 C   0  0  0  0  0  0  0  0  0  0  0  0
  153.9379  142.8430  182.4031 F   0  0  0  0  0  0  0  0  0  0  0  0
  156.1365  142.0344  182.7466 C   0  0  0  0  0  0  0  0  0  0  0  0
  156.6216  143.1194  182.0735 F   0  0  0  0  0  0  0  0  0  0  0  0
  156.9926  141.0708  183.2680 C   0  0  0  0  0  0  0  0  0  0  0  0
  156.4979  139.9753  183.9364 C   0  0  0  0  0  0  0  0  0  0  0  0
  158.3763  141.3563  183.1483 N   0  0  0  0  0  0  0  0  0  0  0  0
  158.8119  141.3516  182.1995 H   0  0  0  0  0  0  0  0  0  0  0  0
  159.2456  141.6610  184.2246 C   0  0  0  0  0  0  0  0  0  0  0  0
  158.9420  141.8628  185.5200 C   0  0  0  0  0  0  0  0  0  0  0  0
  159.9292  142.2513  186.4299 C   0  0  0  0  0  0  0  0  0  0  0  0
  161.2385  142.4445  186.0597 C   0  0  0  0  0  0  0  0  0  0  0  0
  161.5418  142.2294  184.7237 C   0  0  0  0  0  0  0  0  0  0  0  0
  160.5796  141.8536  183.8400 C   0  0  0  0  0  0  0  0  0  0  0  0
  162.3305  142.8665  186.9374 C   0  0  0  0  0  0  0  0  0  0  0  0
  163.5701  142.6006  186.4234 F   0  0  0  0  0  0  0  0  0  0  0  0
  162.1934  144.2140  187.1940 F   0  0  0  0  0  0  0  0  0  0  0  0
  162.2367  142.2236  188.1851 F   0  0  0  0  0  0  0  0  0  0  0  0
  151.7317  136.4342  185.0323 N   0  0  0  0  0  0  0  0  0  0  0  0
  151.6254  135.5165  183.8618 C   0  0  0  0  0  0  0  0  0  0  0  0
  150.7827  136.2895  182.8565 C   0  0  0  0  0  0  0  0  0  0  0  0
  150.1610  137.3663  183.4317 O   0  0  0  0  0  0  0  0  0  0  0  0
  149.5104  137.1136  184.6280 C   0  0  0  0  0  0  0  0  0  0  0  0
  150.4763  136.6076  185.7140 C   0  0  0  0  0  0  0  0  0  0  0  0
  7  8  1  0  0  0
  8  9  1  0  0  0
  9 10  1  0  0  0
 10 11  1  0  0  0
 11 12  1  0  0  0
 12 13  1  0  0  0
 11 14  1  0  0  0
 14 15  2  0  0  0
 14  1  1  0  0  0
  1  2  2  0  0  0
  2  3  1  0  0  0
  3  4  2  0  0  0
  4  5  1  0  0  0
  5  6  2  0  0  0
  5 16  1  0  0  0
 16 17  2  0  0  0
 17 18  1  0  0  0
 18 19  1  0  0  0
 18 20  2  0  0  0
 20 21  1  0  0  0
 20 22  1  0  0  0
 22 24  1  0  0  0
 24 26  1  0  0  0
 26 27  2  0  0  0
 27 28  1  0  0  0
 28 29  2  0  0  0
 29 30  1  0  0  0
 30 31  2  0  0  0
 29 32  1  0  0  0
 32 33  1  0  0  0
 32 34  1  0  0  0
 32 35  1  0  0  0
 22 23  2  0  0  0
  3 36  1  0  0  0
 36 37  1  0  0  0
 37 38  1  0  0  0
 38 39  1  0  0  0
 39 40  1  0  0  0
 40 41  1  0  0  0
 13  8  1  0  0  0
  6  1  1  0  0  0
 23 16  1  0  0  0
 41 36  1  0  0  0
 31 26  1  0  0  0
 24 25  1  0  0  0
M  END
> <minimizedAffinity>
-10.68458

> <CNNscore>
0.4752902687

> <CNNaffinity>
7.2268342972

> <CNN_VS>
3.4348440170

> <CNNaffinity_variance>
0.0935195535

$$$$
[H]c1c(C(=O)N2C([H])([H])C([H])([H])N(C([H])([H])[H])C([H])([H])C2([H])[H])nc(-c2c([H])c(F)c(F)c(N([H])c3c([H])c([H])c(C(F)(F)F)c([H])c3[H])c2[H])nc1N1C([H])([H])C([H])([H])OC([H])([H])C1([H])[H]


 41 45  0  0  0  0  0  0  0  0999 V2000
  152.3095  137.8016  183.8744 C   0  0  0  0  0  0  0  0  0  0  0  0
  152.5864  137.2429  185.1507 C   0  0  0  0  0  0  0  0  0  0  0  0
  153.6905  137.6200  185.8765 C   0  0  0  0  0  0  0  0  0  0  0  0
  154.5099  138.5565  185.3154 N   0  0  0  0  0  0  0  0  0  0  0  0
  154.2954  139.1035  184.1245 C   0  0  0  0  0  0  0  0  0  0  0  0
  153.1918  138.6909  183.4570 N   0  0  0  0  0  0  0  0  0  0  0  0
  147.3936  138.8980  184.2119 C   0  0  0  0  0  0  0  0  0  0  0  0
  147.6332  137.5874  184.7941 N   0  0  0  0  0  0  0  0  0  0  0  0
  148.7948  137.5685  185.6288 C   0  0  0  0  0  0  0  0  0  0  0  0
  149.8077  136.5414  185.1229 C   0  0  0  0  0  0  0  0  0  0  0  0
  149.9979  136.8869  183.7623 N   0  0  0  0  0  0  0  0  0  0  0  0
  148.8248  136.5418  182.9176 C   0  0  0  0  0  0  0  0  0  0  0  0
  147.5953  136.5561  183.7914 C   0  0  0  0  0  0  0  0  0  0  0  0
  151.0971  137.4581  183.1648 C   0  0  0  0  0  0  0  0  0  0  0  0
  151.1154  137.7189  181.9026 O   0  0  0  0  0  0  0  0  0  0  0  0
  155.0493  140.1946  183.5258 C   0  0  0  0  0  0  0  0  0  0  0  0
  154.3676  141.3249  183.1315 C   0  0  0  0  0  0  0  0  0  0  0  0
  155.0052  142.4415  182.6585 C   0  0  0  0  0  0  0  0  0  0  0  0
  154.2816  143.5423  182.2775 F   0  0  0  0  0  0  0  0  0  0  0  0
  156.3578  142.4431  182.5732 C   0  0  0  0  0  0  0  0  0  0  0  0
  156.9936  143.5545  182.0975 F   0  0  0  0  0  0  0  0  0  0  0  0
  157.0747  141.3196  182.9692 C   0  0  0  0  0  0  0  0  0  0  0  0
  156.4286  140.1998  183.4383 C   0  0  0  0  0  0  0  0  0  0  0  0
  158.4857  141.4587  182.9484 N   0  0  0  0  0  0  0  0  0  0  0  0
  158.9884  141.3636  182.0383 H   0  0  0  0  0  0  0  0  0  0  0  0
  159.2987  141.7273  184.0770 C   0  0  0  0  0  0  0  0  0  0  0  0
  158.9353  141.8411  185.3677 C   0  0  0  0  0  0  0  0  0  0  0  0
  159.8699  142.2073  186.3402 C   0  0  0  0  0  0  0  0  0  0  0  0
  161.1855  142.4657  186.0385 C   0  0  0  0  0  0  0  0  0  0  0  0
  161.5508  142.3412  184.7066 C   0  0  0  0  0  0  0  0  0  0  0  0
  160.6396  141.9870  183.7619 C   0  0  0  0  0  0  0  0  0  0  0  0
  162.2249  142.8707  186.9855 C   0  0  0  0  0  0  0  0  0  0  0  0
  162.1754  142.1844  188.1679 F   0  0  0  0  0  0  0  0  0  0  0  0
  163.4551  142.7087  186.3847 F   0  0  0  0  0  0  0  0  0  0  0  0
  162.1160  144.2418  187.2805 F   0  0  0  0  0  0  0  0  0  0  0  0
  154.0105  137.0343  187.1225 N   0  0  0  0  0  0  0  0  0  0  0  0
  153.2319  137.3936  188.3423 C   0  0  0  0  0  0  0  0  0  0  0  0
  154.2059  138.2111  189.1798 C   0  0  0  0  0  0  0  0  0  0  0  0
  155.4943  138.0879  188.7306 O   0  0  0  0  0  0  0  0  0  0  0  0
  155.9210  136.7937  188.4831 C   0  0  0  0  0  0  0  0  0  0  0  0
  155.0732  136.1044  187.3994 C   0  0  0  0  0  0  0  0  0  0  0  0
  7  8  1  0  0  0
  8  9  1  0  0  0
  9 10  1  0  0  0
 10 11  1  0  0  0
 11 12  1  0  0  0
 12 13  1  0  0  0
 11 14  1  0  0  0
 14 15  2  0  0  0
 14  1  1  0  0  0
  1  2  2  0  0  0
  2  3  1  0  0  0
  3  4  2  0  0  0
  4  5  1  0  0  0
  5  6  2  0  0  0
  5 16  1  0  0  0
 16 17  2  0  0  0
 17 18  1  0  0  0
 18 19  1  0  0  0
 18 20  2  0  0  0
 20 21  1  0  0  0
 20 22  1  0  0  0
 22 24  1  0  0  0
 24 26  1  0  0  0
 26 27  2  0  0  0
 27 28  1  0  0  0
 28 29  2  0  0  0
 29 30  1  0  0  0
 30 31  2  0  0  0
 29 32  1  0  0  0
 32 33  1  0  0  0
 32 34  1  0  0  0
 32 35  1  0  0  0
 22 23  2  0  0  0
  3 36  1  0  0  0
 36 37  1  0  0  0
 37 38  1  0  0  0
 38 39  1  0  0  0
 39 40  1  0  0  0
 40 41  1  0  0  0
 13  8  1  0  0  0
  6  1  1  0  0  0
 23 16  1  0  0  0
 41 36  1  0  0  0
 31 26  1  0  0  0
 24 25  1  0  0  0
M  END
> <minimizedAffinity>
-10.40376

> <CNNscore>
0.4324452579

> <CNNaffinity>
7.0823249817

> <CNN_VS>
3.0627179146

> <CNNaffinity_variance>
0.1033926457

$$$$
[H]c1c(C(=O)N2C([H])([H])C([H])([H])N(C([H])([H])[H])C([H])([H])C2([H])[H])nc(-c2c([H])c(F)c(F)c(N([H])c3c([H])c([H])c(C(F)(F)F)c([H])c3[H])c2[H])nc1N1C([H])([H])C([H])([H])OC([H])([H])C1([H])[H]


 41 45  0  0  0  0  0  0  0  0999 V2000
  154.9633  140.9716  183.1384 C   0  0  0  0  0  0  0  0  0  0  0  0
  155.3365  140.0199  184.1247 C   0  0  0  0  0  0  0  0  0  0  0  0
  154.5733  138.9046  184.3729 C   0  0  0  0  0  0  0  0  0  0  0  0
  153.4395  138.7521  183.6284 N   0  0  0  0  0  0  0  0  0  0  0  0
  153.0471  139.6162  182.6995 C   0  0  0  0  0  0  0  0  0  0  0  0
  153.8401  140.6959  182.5012 N   0  0  0  0  0  0  0  0  0  0  0  0
  158.2025  142.2467  179.4828 C   0  0  0  0  0  0  0  0  0  0  0  0
  158.9464  141.7667  180.6361 N   0  0  0  0  0  0  0  0  0  0  0  0
  158.3678  140.5875  181.2027 C   0  0  0  0  0  0  0  0  0  0  0  0
  157.9897  140.8198  182.6656 C   0  0  0  0  0  0  0  0  0  0  0  0
  157.1802  141.9819  182.6315 N   0  0  0  0  0  0  0  0  0  0  0  0
  157.9648  143.2147  182.3606 C   0  0  0  0  0  0  0  0  0  0  0  0
  159.1937  142.8276  181.5762 C   0  0  0  0  0  0  0  0  0  0  0  0
  155.8238  142.0921  182.8300 C   0  0  0  0  0  0  0  0  0  0  0  0
  155.2256  143.2319  182.7604 O   0  0  0  0  0  0  0  0  0  0  0  0
  151.9281  139.4526  181.7839 C   0  0  0  0  0  0  0  0  0  0  0  0
  151.9683  140.1095  180.5738 C   0  0  0  0  0  0  0  0  0  0  0  0
  151.0140  139.9307  179.6071 C   0  0  0  0  0  0  0  0  0  0  0  0
  151.0980  140.6088  178.4181 F   0  0  0  0  0  0  0  0  0  0  0  0
  149.9887  139.0760  179.8416 C   0  0  0  0  0  0  0  0  0  0  0  0
  149.0347  138.9009  178.8799 F   0  0  0  0  0  0  0  0  0  0  0  0
  149.9233  138.3934  181.0510 C   0  0  0  0  0  0  0  0  0  0  0  0
  150.8816  138.5810  182.0196 C   0  0  0  0  0  0  0  0  0  0  0  0
  148.8785  137.4407  181.1572 N   0  0  0  0  0  0  0  0  0  0  0  0
  148.0147  137.6963  181.6849 H   0  0  0  0  0  0  0  0  0  0  0  0
  148.8954  136.1409  180.5941 C   0  0  0  0  0  0  0  0  0  0  0  0
  149.7888  135.1528  180.7850 C   0  0  0  0  0  0  0  0  0  0  0  0
  149.6947  133.9593  180.0639 C   0  0  0  0  0  0  0  0  0  0  0  0
  148.7039  133.7329  179.1387 C   0  0  0  0  0  0  0  0  0  0  0  0
  147.7857  134.7553  178.9528 C   0  0  0  0  0  0  0  0  0  0  0  0
  147.8805  135.9162  179.6538 C   0  0  0  0  0  0  0  0  0  0  0  0
  148.5392  132.5258  178.3282 C   0  0  0  0  0  0  0  0  0  0  0  0
  147.5562  131.6946  178.7909 F   0  0  0  0  0  0  0  0  0  0  0  0
  148.2809  132.9012  177.0271 F   0  0  0  0  0  0  0  0  0  0  0  0
  149.7383  131.7914  178.2882 F   0  0  0  0  0  0  0  0  0  0  0  0
  154.9006  137.9768  185.3878 N   0  0  0  0  0  0  0  0  0  0  0  0
  154.3163  136.6052  185.3673 C   0  0  0  0  0  0  0  0  0  0  0  0
  153.3419  136.5967  186.5373 C   0  0  0  0  0  0  0  0  0  0  0  0
  153.5394  137.6632  187.3743 O   0  0  0  0  0  0  0  0  0  0  0  0
  154.8532  137.8992  187.7439 C   0  0  0  0  0  0  0  0  0  0  0  0
  155.7489  138.1988  186.5289 C   0  0  0  0  0  0  0  0  0  0  0  0
  7  8  1  0  0  0
  8  9  1  0  0  0
  9 10  1  0  0  0
 10 11  1  0  0  0
 11 12  1  0  0  0
 12 13  1  0  0  0
 11 14  1  0  0  0
 14 15  2  0  0  0
 14  1  1  0  0  0
  1  2  2  0  0  0
  2  3  1  0  0  0
  3  4  2  0  0  0
  4  5  1  0  0  0
  5  6  2  0  0  0
  5 16  1  0  0  0
 16 17  2  0  0  0
 17 18  1  0  0  0
 18 19  1  0  0  0
 18 20  2  0  0  0
 20 21  1  0  0  0
 20 22  1  0  0  0
 22 24  1  0  0  0
 24 26  1  0  0  0
 26 27  2  0  0  0
 27 28  1  0  0  0
 28 29  2  0  0  0
 29 30  1  0  0  0
 30 31  2  0  0  0
 29 32  1  0  0  0
 32 33  1  0  0  0
 32 34  1  0  0  0
 32 35  1  0  0  0
 22 23  2  0  0  0
  3 36  1  0  0  0
 36 37  1  0  0  0
 37 38  1  0  0  0
 38 39  1  0  0  0
 39 40  1  0  0  0
 40 41  1  0  0  0
 13  8  1  0  0  0
  6  1  1  0  0  0
 23 16  1  0  0  0
 41 36  1  0  0  0
 31 26  1  0  0  0
 24 25  1  0  0  0
M  END
> <minimizedAffinity>
-8.63266

> <CNNscore>
0.4292874634

> <CNNaffinity>
6.7323203087

> <CNN_VS>
2.8901007175

> <CNNaffinity_variance>
0.2337443531

$$$$
[H]c1c(C(=O)N2C([H])([H])C([H])([H])N(C([H])([H])[H])C([H])([H])C2([H])[H])nc(-c2c([H])c(F)c(F)c(N([H])c3c([H])c([H])c(C(F)(F)F)c([H])c3[H])c2[H])nc1N1C([H])([H])C([H])([H])OC([H])([H])C1([H])[H]


 41 45  0  0  0  0  0  0  0  0999 V2000
  155.0582  139.9711  183.7859 C   0  0  0  0  0  0  0  0  0  0  0  0
  154.0002  139.5477  182.9378 C   0  0  0  0  0  0  0  0  0  0  0  0
  153.2329  138.4485  183.2393 C   0  0  0  0  0  0  0  0  0  0  0  0
  153.5333  137.7810  184.3915 N   0  0  0  0  0  0  0  0  0  0  0  0
  154.5146  138.1355  185.2130 C   0  0  0  0  0  0  0  0  0  0  0  0
  155.2360  139.2263  184.8617 N   0  0  0  0  0  0  0  0  0  0  0  0
  158.0848  141.6680  180.1196 C   0  0  0  0  0  0  0  0  0  0  0  0
  158.8945  141.2319  181.2458 N   0  0  0  0  0  0  0  0  0  0  0  0
  158.4468  139.9850  181.7853 C   0  0  0  0  0  0  0  0  0  0  0  0
  158.0751  140.1362  183.2605 C   0  0  0  0  0  0  0  0  0  0  0  0
  157.1536  141.2120  183.2747 N   0  0  0  0  0  0  0  0  0  0  0  0
  157.8065  142.5244  183.0290 C   0  0  0  0  0  0  0  0  0  0  0  0
  159.0527  142.2848  182.2137 C   0  0  0  0  0  0  0  0  0  0  0  0
  155.7970  141.1804  183.4981 C   0  0  0  0  0  0  0  0  0  0  0  0
  155.0872  142.2562  183.4728 O   0  0  0  0  0  0  0  0  0  0  0  0
  154.8055  137.5532  186.5144 C   0  0  0  0  0  0  0  0  0  0  0  0
  155.7659  138.1502  187.3010 C   0  0  0  0  0  0  0  0  0  0  0  0
  156.0302  137.7376  188.5805 C   0  0  0  0  0  0  0  0  0  0  0  0
  156.9975  138.3642  189.3237 F   0  0  0  0  0  0  0  0  0  0  0  0
  155.3236  136.7045  189.1003 C   0  0  0  0  0  0  0  0  0  0  0  0
  155.5899  136.2899  190.3742 F   0  0  0  0  0  0  0  0  0  0  0  0
  154.3432  136.0851  188.3334 C   0  0  0  0  0  0  0  0  0  0  0  0
  154.0861  136.5004  187.0477 C   0  0  0  0  0  0  0  0  0  0  0  0
  153.5841  135.0914  189.0020 N   0  0  0  0  0  0  0  0  0  0  0  0
  153.5751  134.1205  188.6182 H   0  0  0  0  0  0  0  0  0  0  0  0
  152.8202  135.2973  190.1772 C   0  0  0  0  0  0  0  0  0  0  0  0
  151.9880  136.3127  190.4725 C   0  0  0  0  0  0  0  0  0  0  0  0
  151.3881  136.3975  191.7320 C   0  0  0  0  0  0  0  0  0  0  0  0
  151.6100  135.4670  192.7187 C   0  0  0  0  0  0  0  0  0  0  0  0
  152.4653  134.4222  192.4028 C   0  0  0  0  0  0  0  0  0  0  0  0
  153.0494  134.3429  191.1778 C   0  0  0  0  0  0  0  0  0  0  0  0
  151.0409  135.4856  194.0667 C   0  0  0  0  0  0  0  0  0  0  0  0
  149.7017  135.7647  194.0837 F   0  0  0  0  0  0  0  0  0  0  0  0
  151.2878  134.2688  194.6656 F   0  0  0  0  0  0  0  0  0  0  0  0
  151.6896  136.4473  194.8624 F   0  0  0  0  0  0  0  0  0  0  0  0
  152.2130  137.9813  182.3794 N   0  0  0  0  0  0  0  0  0  0  0  0
  152.1495  138.4518  180.9659 C   0  0  0  0  0  0  0  0  0  0  0  0
  150.9165  139.3442  180.9243 C   0  0  0  0  0  0  0  0  0  0  0  0
  150.1298  139.1806  182.0339 O   0  0  0  0  0  0  0  0  0  0  0  0
  149.8579  137.8693  182.3872 C   0  0  0  0  0  0  0  0  0  0  0  0
  151.1398  137.0817  182.7108 C   0  0  0  0  0  0  0  0  0  0  0  0
  7  8  1  0  0  0
  8  9  1  0  0  0
  9 10  1  0  0  0
 10 11  1  0  0  0
 11 12  1  0  0  0
 12 13  1  0  0  0
 11 14  1  0  0  0
 14 15  2  0  0  0
 14  1  1  0  0  0
  1  2  2  0  0  0
  2  3  1  0  0  0
  3  4  2  0  0  0
  4  5  1  0  0  0
  5  6  2  0  0  0
  5 16  1  0  0  0
 16 17  2  0  0  0
 17 18  1  0  0  0
 18 19  1  0  0  0
 18 20  2  0  0  0
 20 21  1  0  0  0
 20 22  1  0  0  0
 22 24  1  0  0  0
 24 26  1  0  0  0
 26 27  2  0  0  0
 27 28  1  0  0  0
 28 29  2  0  0  0
 29 30  1  0  0  0
 30 31  2  0  0  0
 29 32  1  0  0  0
 32 33  1  0  0  0
 32 34  1  0  0  0
 32 35  1  0  0  0
 22 23  2  0  0  0
  3 36  1  0  0  0
 36 37  1  0  0  0
 37 38  1  0  0  0
 38 39  1  0  0  0
 39 40  1  0  0  0
 40 41  1  0  0  0
 13  8  1  0  0  0
  6  1  1  0  0  0
 23 16  1  0  0  0
 41 36  1  0  0  0
 31 26  1  0  0  0
 24 25  1  0  0  0
M  END
> <minimizedAffinity>
-8.77947

> <CNNscore>
0.3268482983

> <CNNaffinity>
6.6485891342

> <CNN_VS>
2.1730799675

> <CNNaffinity_variance>
0.0378718935

$$$$
[H]c1c(C(=O)N2C([H])([H])C([H])([H])N(C([H])([H])[H])C([H])([H])C2([H])[H])nc(-c2c([H])c(F)c(F)c(N([H])c3c([H])c([H])c(C(F)(F)F)c([H])c3[H])c2[H])nc1N1C([H])([H])C([H])([H])OC([H])([H])C1([H])[H]


 41 45  0  0  0  0  0  0  0  0999 V2000
  153.5003  138.0792  183.8129 C   0  0  0  0  0  0  0  0  0  0  0  0
  152.2837  138.1759  183.0861 C   0  0  0  0  0  0  0  0  0  0  0  0
  152.0461  139.2126  182.2162 C   0  0  0  0  0  0  0  0  0  0  0  0
  153.0328  140.1462  182.0816 N   0  0  0  0  0  0  0  0  0  0  0  0
  154.1839  140.1012  182.7424 C   0  0  0  0  0  0  0  0  0  0  0  0
  154.3591  139.0562  183.5856 N   0  0  0  0  0  0  0  0  0  0  0  0
  151.7869  136.2298  188.1862 C   0  0  0  0  0  0  0  0  0  0  0  0
  153.0470  136.9173  188.4176 N   0  0  0  0  0  0  0  0  0  0  0  0
  153.1170  138.1688  187.7283 C   0  0  0  0  0  0  0  0  0  0  0  0
  154.3074  138.1923  186.7694 C   0  0  0  0  0  0  0  0  0  0  0  0
  154.1350  137.0300  185.9782 N   0  0  0  0  0  0  0  0  0  0  0  0
  154.4239  135.7810  186.7302 C   0  0  0  0  0  0  0  0  0  0  0  0
  154.1675  136.0428  188.1934 C   0  0  0  0  0  0  0  0  0  0  0  0
  153.7684  136.9353  184.6560 C   0  0  0  0  0  0  0  0  0  0  0  0
  153.6482  135.7920  184.0729 O   0  0  0  0  0  0  0  0  0  0  0  0
  155.3251  140.9836  182.5522 C   0  0  0  0  0  0  0  0  0  0  0  0
  155.0894  142.3191  182.3104 C   0  0  0  0  0  0  0  0  0  0  0  0
  156.0992  143.2412  182.2256 C   0  0  0  0  0  0  0  0  0  0  0  0
  155.8132  144.5601  181.9823 F   0  0  0  0  0  0  0  0  0  0  0  0
  157.3815  142.8327  182.3857 C   0  0  0  0  0  0  0  0  0  0  0  0
  158.3888  143.7509  182.2968 F   0  0  0  0  0  0  0  0  0  0  0  0
  157.6515  141.4922  182.6371 C   0  0  0  0  0  0  0  0  0  0  0  0
  156.6338  140.5704  182.7159 C   0  0  0  0  0  0  0  0  0  0  0  0
  159.0101  141.1834  182.9006 N   0  0  0  0  0  0  0  0  0  0  0  0
  159.5502  140.6395  182.1918 H   0  0  0  0  0  0  0  0  0  0  0  0
  159.7241  141.5588  184.0652 C   0  0  0  0  0  0  0  0  0  0  0  0
  159.2482  141.8167  185.2972 C   0  0  0  0  0  0  0  0  0  0  0  0
  160.0998  142.2704  186.3083 C   0  0  0  0  0  0  0  0  0  0  0  0
  161.4436  142.4737  186.1046 C   0  0  0  0  0  0  0  0  0  0  0  0
  161.9248  142.2006  184.8330 C   0  0  0  0  0  0  0  0  0  0  0  0
  161.0943  141.7615  183.8505 C   0  0  0  0  0  0  0  0  0  0  0  0
  162.4030  142.9615  187.0960 C   0  0  0  0  0  0  0  0  0  0  0  0
  163.7020  142.8842  186.6741 F   0  0  0  0  0  0  0  0  0  0  0  0
  162.0777  144.2611  187.4210 F   0  0  0  0  0  0  0  0  0  0  0  0
  162.2953  142.2255  188.2900 F   0  0  0  0  0  0  0  0  0  0  0  0
  150.8200  139.3538  181.5273 N   0  0  0  0  0  0  0  0  0  0  0  0
  149.5566  138.8426  182.1320 C   0  0  0  0  0  0  0  0  0  0  0  0
  149.1883  137.6431  181.2695 C   0  0  0  0  0  0  0  0  0  0  0  0
  149.9030  137.6153  180.1010 O   0  0  0  0  0  0  0  0  0  0  0  0
  149.9550  138.8101  179.4024 C   0  0  0  0  0  0  0  0  0  0  0  0
  150.6151  139.9307  180.2250 C   0  0  0  0  0  0  0  0  0  0  0  0
  7  8  1  0  0  0
  8  9  1  0  0  0
  9 10  1  0  0  0
 10 11  1  0  0  0
 11 12  1  0  0  0
 12 13  1  0  0  0
 11 14  1  0  0  0
 14 15  2  0  0  0
 14  1  1  0  0  0
  1  2  2  0  0  0
  2  3  1  0  0  0
  3  4  2  0  0  0
  4  5  1  0  0  0
  5  6  2  0  0  0
  5 16  1  0  0  0
 16 17  2  0  0  0
 17 18  1  0  0  0
 18 19  1  0  0  0
 18 20  2  0  0  0
 20 21  1  0  0  0
 20 22  1  0  0  0
 22 24  1  0  0  0
 24 26  1  0  0  0
 26 27  2  0  0  0
 27 28  1  0  0  0
 28 29  2  0  0  0
 29 30  1  0  0  0
 30 31  2  0  0  0
 29 32  1  0  0  0
 32 33  1  0  0  0
 32 34  1  0  0  0
 32 35  1  0  0  0
 22 23  2  0  0  0
  3 36  1  0  0  0
 36 37  1  0  0  0
 37 38  1  0  0  0
 38 39  1  0  0  0
 39 40  1  0  0  0
 40 41  1  0  0  0
 13  8  1  0  0  0
  6  1  1  0  0  0
 23 16  1  0  0  0
 41 36  1  0  0  0
 31 26  1  0  0  0
 24 25  1  0  0  0
M  END
> <minimizedAffinity>
-11.10833

> <CNNscore>
0.3028483391

> <CNNaffinity>
7.0661339760

> <CNN_VS>
2.1399669647

> <CNNaffinity_variance>
0.2216251791

$$$$
[H]c1c(C(=O)N2C([H])([H])C([H])([H])N(C([H])([H])[H])C([H])([H])C2([H])[H])nc(-c2c([H])c(F)c(F)c(N([H])c3c([H])c([H])c(C(F)(F)F)c([H])c3[H])c2[H])nc1N1C([H])([H])C([H])([H])OC([H])([H])C1([H])[H]


 41 45  0  0  0  0  0  0  0  0999 V2000
  152.5417  137.5005  183.9043 C   0  0  0  0  0  0  0  0  0  0  0  0
  152.7435  137.0578  185.2388 C   0  0  0  0  0  0  0  0  0  0  0  0
  153.7419  137.5788  186.0261 C   0  0  0  0  0  0  0  0  0  0  0  0
  154.5316  138.5420  185.4676 N   0  0  0  0  0  0  0  0  0  0  0  0
  154.3848  138.9845  184.2241 C   0  0  0  0  0  0  0  0  0  0  0  0
  153.3844  138.4322  183.4975 N   0  0  0  0  0  0  0  0  0  0  0  0
  150.2512  133.0686  183.1340 C   0  0  0  0  0  0  0  0  0  0  0  0
  151.1413  133.3480  182.0189 N   0  0  0  0  0  0  0  0  0  0  0  0
  152.4111  133.8463  182.4498 C   0  0  0  0  0  0  0  0  0  0  0  0
  152.6819  135.2267  181.8511 C   0  0  0  0  0  0  0  0  0  0  0  0
  151.5388  135.9852  182.2042 N   0  0  0  0  0  0  0  0  0  0  0  0
  150.3326  135.5916  181.4301 C   0  0  0  0  0  0  0  0  0  0  0  0
  150.4883  134.1490  181.0177 C   0  0  0  0  0  0  0  0  0  0  0  0
  151.4317  137.0045  183.1212 C   0  0  0  0  0  0  0  0  0  0  0  0
  150.3085  137.5997  183.3353 O   0  0  0  0  0  0  0  0  0  0  0  0
  155.1006  140.0930  183.6107 C   0  0  0  0  0  0  0  0  0  0  0  0
  154.3835  141.2035  183.2234 C   0  0  0  0  0  0  0  0  0  0  0  0
  154.9843  142.3349  182.7374 C   0  0  0  0  0  0  0  0  0  0  0  0
  154.2263  143.4150  182.3641 F   0  0  0  0  0  0  0  0  0  0  0  0
  156.3349  142.3718  182.6315 C   0  0  0  0  0  0  0  0  0  0  0  0
  156.9340  143.4978  182.1428 F   0  0  0  0  0  0  0  0  0  0  0  0
  157.0871  141.2689  183.0200 C   0  0  0  0  0  0  0  0  0  0  0  0
  156.4778  140.1340  183.5022 C   0  0  0  0  0  0  0  0  0  0  0  0
  158.4934  141.4449  182.9773 N   0  0  0  0  0  0  0  0  0  0  0  0
  158.9835  141.3682  182.0586 H   0  0  0  0  0  0  0  0  0  0  0  0
  159.3174  141.7282  184.0942 C   0  0  0  0  0  0  0  0  0  0  0  0
  158.9605  141.9055  185.3796 C   0  0  0  0  0  0  0  0  0  0  0  0
  159.9092  142.2758  186.3368 C   0  0  0  0  0  0  0  0  0  0  0  0
  161.2328  142.4747  186.0248 C   0  0  0  0  0  0  0  0  0  0  0  0
  161.5911  142.2849  184.6987 C   0  0  0  0  0  0  0  0  0  0  0  0
  160.6662  141.9269  183.7689 C   0  0  0  0  0  0  0  0  0  0  0  0
  162.2876  142.8788  186.9549 C   0  0  0  0  0  0  0  0  0  0  0  0
  162.2135  144.1962  187.3163 F   0  0  0  0  0  0  0  0  0  0  0  0
  162.2265  142.0688  188.0688 F   0  0  0  0  0  0  0  0  0  0  0  0
  163.5560  142.6606  186.3870 F   0  0  0  0  0  0  0  0  0  0  0  0
  153.9914  137.1110  187.3363 N   0  0  0  0  0  0  0  0  0  0  0  0
  153.3233  137.7556  188.5031 C   0  0  0  0  0  0  0  0  0  0  0  0
  154.4489  138.4892  189.2196 C   0  0  0  0  0  0  0  0  0  0  0  0
  155.6824  138.0840  188.7825 O   0  0  0  0  0  0  0  0  0  0  0  0
  155.8699  136.7139  188.7048 C   0  0  0  0  0  0  0  0  0  0  0  0
  154.8836  136.0515  187.7266 C   0  0  0  0  0  0  0  0  0  0  0  0
  7  8  1  0  0  0
  8  9  1  0  0  0
  9 10  1  0  0  0
 10 11  1  0  0  0
 11 12  1  0  0  0
 12 13  1  0  0  0
 11 14  1  0  0  0
 14 15  2  0  0  0
 14  1  1  0  0  0
  1  2  2  0  0  0
  2  3  1  0  0  0
  3  4  2  0  0  0
  4  5  1  0  0  0
  5  6  2  0  0  0
  5 16  1  0  0  0
 16 17  2  0  0  0
 17 18  1  0  0  0
 18 19  1  0  0  0
 18 20  2  0  0  0
 20 21  1  0  0  0
 20 22  1  0  0  0
 22 24  1  0  0  0
 24 26  1  0  0  0
 26 27  2  0  0  0
 27 28  1  0  0  0
 28 29  2  0  0  0
 29 30  1  0  0  0
 30 31  2  0  0  0
 29 32  1  0  0  0
 32 33  1  0  0  0
 32 34  1  0  0  0
 32 35  1  0  0  0
 22 23  2  0  0  0
  3 36  1  0  0  0
 36 37  1  0  0  0
 37 38  1  0  0  0
 38 39  1  0  0  0
 39 40  1  0  0  0
 40 41  1  0  0  0
 13  8  1  0  0  0
  6  1  1  0  0  0
 23 16  1  0  0  0
 41 36  1  0  0  0
 31 26  1  0  0  0
 24 25  1  0  0  0
M  END
> <minimizedAffinity>
-10.18379

> <CNNscore>
0.2846620977

> <CNNaffinity>
6.9162740707

> <CNN_VS>
1.9688011408

> <CNNaffinity_variance>
0.2242948264

$$$$
[H]c1c(C(=O)N2C([H])([H])C([H])([H])N(C([H])([H])[H])C([H])([H])C2([H])[H])nc(-c2c([H])c(F)c(F)c(N([H])c3c([H])c([H])c(C(F)(F)F)c([H])c3[H])c2[H])nc1N1C([H])([H])C([H])([H])OC([H])([H])C1([H])[H]


 41 45  0  0  0  0  0  0  0  0999 V2000
  155.1681  140.9333  183.3720 C   0  0  0  0  0  0  0  0  0  0  0  0
  155.5325  139.9729  184.3531 C   0  0  0  0  0  0  0  0  0  0  0  0
  154.7517  138.8707  184.6053 C   0  0  0  0  0  0  0  0  0  0  0  0
  153.6092  138.7401  183.8698 N   0  0  0  0  0  0  0  0  0  0  0  0
  153.2246  139.6131  182.9460 C   0  0  0  0  0  0  0  0  0  0  0  0
  154.0349  140.6790  182.7436 N   0  0  0  0  0  0  0  0  0  0  0  0
  158.2483  142.2518  179.5963 C   0  0  0  0  0  0  0  0  0  0  0  0
  159.0366  141.7065  180.6896 N   0  0  0  0  0  0  0  0  0  0  0  0
  158.4521  140.5240  181.2430 C   0  0  0  0  0  0  0  0  0  0  0  0
  158.1591  140.7112  182.7316 C   0  0  0  0  0  0  0  0  0  0  0  0
  157.3857  141.8969  182.7837 N   0  0  0  0  0  0  0  0  0  0  0  0
  158.1930  143.1157  182.5163 C   0  0  0  0  0  0  0  0  0  0  0  0
  159.3661  142.7231  181.6532 C   0  0  0  0  0  0  0  0  0  0  0  0
  156.0457  142.0392  183.0589 C   0  0  0  0  0  0  0  0  0  0  0  0
  155.4806  143.1978  183.0634 O   0  0  0  0  0  0  0  0  0  0  0  0
  152.0954  139.4714  182.0394 C   0  0  0  0  0  0  0  0  0  0  0  0
  152.2014  139.9986  180.7712 C   0  0  0  0  0  0  0  0  0  0  0  0
  151.2345  139.8206  179.8168 C   0  0  0  0  0  0  0  0  0  0  0  0
  151.3861  140.3666  178.5681 F   0  0  0  0  0  0  0  0  0  0  0  0
  150.1292  139.0988  180.1234 C   0  0  0  0  0  0  0  0  0  0  0  0
  149.1630  138.9249  179.1737 F   0  0  0  0  0  0  0  0  0  0  0  0
  149.9957  138.5485  181.3932 C   0  0  0  0  0  0  0  0  0  0  0  0
  150.9673  138.7351  182.3486 C   0  0  0  0  0  0  0  0  0  0  0  0
  148.8613  137.7188  181.5815 N   0  0  0  0  0  0  0  0  0  0  0  0
  148.3292  137.3946  180.7438 H   0  0  0  0  0  0  0  0  0  0  0  0
  148.3723  137.2722  182.8338 C   0  0  0  0  0  0  0  0  0  0  0  0
  147.5951  137.9273  183.7157 C   0  0  0  0  0  0  0  0  0  0  0  0
  147.2885  137.3574  184.9544 C   0  0  0  0  0  0  0  0  0  0  0  0
  147.7540  136.1209  185.3328 C   0  0  0  0  0  0  0  0  0  0  0  0
  148.5501  135.4522  184.4152 C   0  0  0  0  0  0  0  0  0  0  0  0
  148.8488  136.0094  183.2117 C   0  0  0  0  0  0  0  0  0  0  0  0
  147.4992  135.4569  186.6116 C   0  0  0  0  0  0  0  0  0  0  0  0
  146.8138  136.2398  187.4996 F   0  0  0  0  0  0  0  0  0  0  0  0
  146.8125  134.2861  186.3705 F   0  0  0  0  0  0  0  0  0  0  0  0
  148.7095  135.0773  187.2198 F   0  0  0  0  0  0  0  0  0  0  0  0
  155.0709  137.9350  185.6154 N   0  0  0  0  0  0  0  0  0  0  0  0
  154.3358  136.6403  185.6981 C   0  0  0  0  0  0  0  0  0  0  0  0
  153.4876  136.7720  186.9557 C   0  0  0  0  0  0  0  0  0  0  0  0
  153.8866  137.8274  187.7328 O   0  0  0  0  0  0  0  0  0  0  0  0
  155.2488  137.9179  187.9664 C   0  0  0  0  0  0  0  0  0  0  0  0
  156.0478  138.0833  186.6616 C   0  0  0  0  0  0  0  0  0  0  0  0
  7  8  1  0  0  0
  8  9  1  0  0  0
  9 10  1  0  0  0
 10 11  1  0  0  0
 11 12  1  0  0  0
 12 13  1  0  0  0
 11 14  1  0  0  0
 14 15  2  0  0  0
 14  1  1  0  0  0
  1  2  2  0  0  0
  2  3  1  0  0  0
  3  4  2  0  0  0
  4  5  1  0  0  0
  5  6  2  0  0  0
  5 16  1  0  0  0
 16 17  2  0  0  0
 17 18  1  0  0  0
 18 19  1  0  0  0
 18 20  2  0  0  0
 20 21  1  0  0  0
 20 22  1  0  0  0
 22 24  1  0  0  0
 24 26  1  0  0  0
 26 27  2  0  0  0
 27 28  1  0  0  0
 28 29  2  0  0  0
 29 30  1  0  0  0
 30 31  2  0  0  0
 29 32  1  0  0  0
 32 33  1  0  0  0
 32 34  1  0  0  0
 32 35  1  0  0  0
 22 23  2  0  0  0
  3 36  1  0  0  0
 36 37  1  0  0  0
 37 38  1  0  0  0
 38 39  1  0  0  0
 39 40  1  0  0  0
 40 41  1  0  0  0
 13  8  1  0  0  0
  6  1  1  0  0  0
 23 16  1  0  0  0
 41 36  1  0  0  0
 31 26  1  0  0  0
 24 25  1  0  0  0
M  END
> <minimizedAffinity>
-8.26038

> <CNNscore>
0.2842279077

> <CNNaffinity>
6.7995176315

> <CNN_VS>
1.9326126575

> <CNNaffinity_variance>
0.1785126925

$$$$
[H]c1c(C(=O)N2C([H])([H])C([H])([H])N(C([H])([H])[H])C([H])([H])C2([H])[H])nc(-c2c([H])c(F)c(F)c(N([H])c3c([H])c([H])c(C(F)(F)F)c([H])c3[H])c2[H])nc1N1C([H])([H])C([H])([H])OC([H])([H])C1([H])[H]


 41 45  0  0  0  0  0  0  0  0999 V2000
  152.2616  137.1362  186.3655 C   0  0  0  0  0  0  0  0  0  0  0  0
  152.9388  136.8786  187.5874 C   0  0  0  0  0  0  0  0  0  0  0  0
  154.2200  137.3238  187.8072 C   0  0  0  0  0  0  0  0  0  0  0  0
  154.8132  138.0255  186.7977 N   0  0  0  0  0  0  0  0  0  0  0  0
  154.2230  138.2870  185.6372 C   0  0  0  0  0  0  0  0  0  0  0  0
  152.9612  137.8214  185.4796 N   0  0  0  0  0  0  0  0  0  0  0  0
  149.3238  133.2729  187.7532 C   0  0  0  0  0  0  0  0  0  0  0  0
  149.7417  133.0855  186.3733 N   0  0  0  0  0  0  0  0  0  0  0  0
  151.1303  133.3717  186.1831 C   0  0  0  0  0  0  0  0  0  0  0  0
  151.3170  134.4835  185.1506 C   0  0  0  0  0  0  0  0  0  0  0  0
  150.5017  135.5383  185.6296 N   0  0  0  0  0  0  0  0  0  0  0  0
  149.0517  135.2593  185.4606 C   0  0  0  0  0  0  0  0  0  0  0  0
  148.8570  133.7635  185.4633 C   0  0  0  0  0  0  0  0  0  0  0  0
  150.8835  136.7367  186.1861 C   0  0  0  0  0  0  0  0  0  0  0  0
  150.0126  137.6007  186.5821 O   0  0  0  0  0  0  0  0  0  0  0  0
  154.7423  139.1347  184.5747 C   0  0  0  0  0  0  0  0  0  0  0  0
  153.8542  139.9016  183.8532 C   0  0  0  0  0  0  0  0  0  0  0  0
  154.2614  140.8073  182.9092 C   0  0  0  0  0  0  0  0  0  0  0  0
  153.3378  141.5471  182.2163 F   0  0  0  0  0  0  0  0  0  0  0  0
  155.5866  140.9616  182.6707 C   0  0  0  0  0  0  0  0  0  0  0  0
  155.9927  141.8611  181.7265 F   0  0  0  0  0  0  0  0  0  0  0  0
  156.5083  140.2064  183.3869 C   0  0  0  0  0  0  0  0  0  0  0  0
  156.0931  139.2951  184.3297 C   0  0  0  0  0  0  0  0  0  0  0  0
  157.8703  140.5192  183.1466 N   0  0  0  0  0  0  0  0  0  0  0  0
  158.2616  140.3668  182.1907 H   0  0  0  0  0  0  0  0  0  0  0  0
  158.7730  141.0384  184.1071 C   0  0  0  0  0  0  0  0  0  0  0  0
  158.5342  141.3839  185.3855 C   0  0  0  0  0  0  0  0  0  0  0  0
  159.5355  141.9739  186.1619 C   0  0  0  0  0  0  0  0  0  0  0  0
  160.7943  142.2284  185.6727 C   0  0  0  0  0  0  0  0  0  0  0  0
  161.0315  141.8643  184.3558 C   0  0  0  0  0  0  0  0  0  0  0  0
  160.0555  141.2925  183.6018 C   0  0  0  0  0  0  0  0  0  0  0  0
  161.8945  142.8562  186.4051 C   0  0  0  0  0  0  0  0  0  0  0  0
  161.8643  142.6005  187.7487 F   0  0  0  0  0  0  0  0  0  0  0  0
  163.0865  142.4298  185.8595 F   0  0  0  0  0  0  0  0  0  0  0  0
  161.8679  144.2522  186.2335 F   0  0  0  0  0  0  0  0  0  0  0  0
  154.9279  137.0292  188.9946 N   0  0  0  0  0  0  0  0  0  0  0  0
  154.1964  136.5681  190.2093 C   0  0  0  0  0  0  0  0  0  0  0  0
  154.3011  137.7400  191.1757 C   0  0  0  0  0  0  0  0  0  0  0  0
  155.2444  138.6494  190.7756 O   0  0  0  0  0  0  0  0  0  0  0  0
  156.4695  138.1188  190.4071 C   0  0  0  0  0  0  0  0  0  0  0  0
  156.3445  137.1522  189.2162 C   0  0  0  0  0  0  0  0  0  0  0  0
  7  8  1  0  0  0
  8  9  1  0  0  0
  9 10  1  0  0  0
 10 11  1  0  0  0
 11 12  1  0  0  0
 12 13  1  0  0  0
 11 14  1  0  0  0
 14 15  2  0  0  0
 14  1  1  0  0  0
  1  2  2  0  0  0
  2  3  1  0  0  0
  3  4  2  0  0  0
  4  5  1  0  0  0
  5  6  2  0  0  0
  5 16  1  0  0  0
 16 17  2  0  0  0
 17 18  1  0  0  0
 18 19  1  0  0  0
 18 20  2  0  0  0
 20 21  1  0  0  0
 20 22  1  0  0  0
 22 24  1  0  0  0
 24 26  1  0  0  0
 26 27  2  0  0  0
 27 28  1  0  0  0
 28 29  2  0  0  0
 29 30  1  0  0  0
 30 31  2  0  0  0
 29 32  1  0  0  0
 32 33  1  0  0  0
 32 34  1  0  0  0
 32 35  1  0  0  0
 22 23  2  0  0  0
  3 36  1  0  0  0
 36 37  1  0  0  0
 37 38  1  0  0  0
 38 39  1  0  0  0
 39 40  1  0  0  0
 40 41  1  0  0  0
 13  8  1  0  0  0
  6  1  1  0  0  0
 23 16  1  0  0  0
 41 36  1  0  0  0
 31 26  1  0  0  0
 24 25  1  0  0  0
M  END
> <minimizedAffinity>
-9.91745

> <CNNscore>
0.2784927487

> <CNNaffinity>
6.6927475929

> <CNN_VS>
1.8638817072

> <CNNaffinity_variance>
0.2415587604

$$$$
[H]c1c(C(=O)N2C([H])([H])C([H])([H])N(C([H])([H])[H])C([H])([H])C2([H])[H])nc(-c2c([H])c(F)c(F)c(N([H])c3c([H])c([H])c(C(F)(F)F)c([H])c3[H])c2[H])nc1N1C([H])([H])C([H])([H])OC([H])([H])C1([H])[H]


 41 45  0  0  0  0  0  0  0  0999 V2000
  152.5186  137.4773  183.3959 C   0  0  0  0  0  0  0  0  0  0  0  0
  152.3062  137.2166  184.7760 C   0  0  0  0  0  0  0  0  0  0  0  0
  152.9802  137.9115  185.7512 C   0  0  0  0  0  0  0  0  0  0  0  0
  153.8636  138.8646  185.3336 N   0  0  0  0  0  0  0  0  0  0  0  0
  154.0993  139.1407  184.0561 C   0  0  0  0  0  0  0  0  0  0  0  0
  153.4055  138.4220  183.1419 N   0  0  0  0  0  0  0  0  0  0  0  0
  149.7989  138.7639  179.3426 C   0  0  0  0  0  0  0  0  0  0  0  0
  148.9034  138.5094  180.4593 N   0  0  0  0  0  0  0  0  0  0  0  0
  149.3721  139.0979  181.6759 C   0  0  0  0  0  0  0  0  0  0  0  0
  149.5716  138.0301  182.7516 C   0  0  0  0  0  0  0  0  0  0  0  0
  150.4127  137.0722  182.1337 N   0  0  0  0  0  0  0  0  0  0  0  0
  149.7044  136.2765  181.0973 C   0  0  0  0  0  0  0  0  0  0  0  0
  148.5720  137.1124  180.5547 C   0  0  0  0  0  0  0  0  0  0  0  0
  151.7364  136.7982  182.3869 C   0  0  0  0  0  0  0  0  0  0  0  0
  152.3717  135.8897  181.7290 O   0  0  0  0  0  0  0  0  0  0  0  0
  154.9238  140.2247  183.5436 C   0  0  0  0  0  0  0  0  0  0  0  0
  154.3183  141.4254  183.2449 C   0  0  0  0  0  0  0  0  0  0  0  0
  155.0284  142.5322  182.8604 C   0  0  0  0  0  0  0  0  0  0  0  0
  154.3791  143.7053  182.5727 F   0  0  0  0  0  0  0  0  0  0  0  0
  156.3782  142.4518  182.7690 C   0  0  0  0  0  0  0  0  0  0  0  0
  157.0861  143.5537  182.3813 F   0  0  0  0  0  0  0  0  0  0  0  0
  157.0193  141.2554  183.0699 C   0  0  0  0  0  0  0  0  0  0  0  0
  156.3005  140.1462  183.4503 C   0  0  0  0  0  0  0  0  0  0  0  0
  158.4363  141.3026  183.0536 N   0  0  0  0  0  0  0  0  0  0  0  0
  158.9379  141.0868  182.1637 H   0  0  0  0  0  0  0  0  0  0  0  0
  159.2574  141.6295  184.1607 C   0  0  0  0  0  0  0  0  0  0  0  0
  158.9054  141.7979  185.4486 C   0  0  0  0  0  0  0  0  0  0  0  0
  159.8455  142.2164  186.3943 C   0  0  0  0  0  0  0  0  0  0  0  0
  161.1556  142.4733  186.0681 C   0  0  0  0  0  0  0  0  0  0  0  0
  161.5092  142.2923  184.7395 C   0  0  0  0  0  0  0  0  0  0  0  0
  160.5926  141.8873  183.8209 C   0  0  0  0  0  0  0  0  0  0  0  0
  162.2000  142.9303  186.9855 C   0  0  0  0  0  0  0  0  0  0  0  0
  162.0926  144.2551  187.3092 F   0  0  0  0  0  0  0  0  0  0  0  0
  162.1594  142.1511  188.1219 F   0  0  0  0  0  0  0  0  0  0  0  0
  163.4734  142.7281  186.4229 F   0  0  0  0  0  0  0  0  0  0  0  0
  152.8219  137.6271  187.1266 N   0  0  0  0  0  0  0  0  0  0  0  0
  153.5238  138.4545  188.1494 C   0  0  0  0  0  0  0  0  0  0  0  0
  154.5874  137.5241  188.7166 C   0  0  0  0  0  0  0  0  0  0  0  0
  154.3637  136.2187  188.3662 O   0  0  0  0  0  0  0  0  0  0  0  0
  153.0686  135.7630  188.5490 C   0  0  0  0  0  0  0  0  0  0  0  0
  152.0532  136.5605  187.7117 C   0  0  0  0  0  0  0  0  0  0  0  0
  7  8  1  0  0  0
  8  9  1  0  0  0
  9 10  1  0  0  0
 10 11  1  0  0  0
 11 12  1  0  0  0
 12 13  1  0  0  0
 11 14  1  0  0  0
 14 15  2  0  0  0
 14  1  1  0  0  0
  1  2  2  0  0  0
  2  3  1  0  0  0
  3  4  2  0  0  0
  4  5  1  0  0  0
  5  6  2  0  0  0
  5 16  1  0  0  0
 16 17  2  0  0  0
 17 18  1  0  0  0
 18 19  1  0  0  0
 18 20  2  0  0  0
 20 21  1  0  0  0
 20 22  1  0  0  0
 22 24  1  0  0  0
 24 26  1  0  0  0
 26 27  2  0  0  0
 27 28  1  0  0  0
 28 29  2  0  0  0
 29 30  1  0  0  0
 30 31  2  0  0  0
 29 32  1  0  0  0
 32 33  1  0  0  0
 32 34  1  0  0  0
 32 35  1  0  0  0
 22 23  2  0  0  0
  3 36  1  0  0  0
 36 37  1  0  0  0
 37 38  1  0  0  0
 38 39  1  0  0  0
 39 40  1  0  0  0
 40 41  1  0  0  0
 13  8  1  0  0  0
  6  1  1  0  0  0
 23 16  1  0  0  0
 41 36  1  0  0  0
 31 26  1  0  0  0
 24 25  1  0  0  0
M  END
> <minimizedAffinity>
-10.69915

> <CNNscore>
0.2671102583

> <CNNaffinity>
6.9336867332

> <CNN_VS>
1.8520588875

> <CNNaffinity_variance>
0.1796212196

$$$$
[H]c1c([H])c(C(=O)N([H])[C@]2([H])C([H])([H])[C@]([H])(N([H])[H])C2([H])[H])c([H])c(N([H])S(=O)(=O)c2c([H])c([H])c([H])c3c([H])c([H])c([H])c(F)c23)c1OC([H])([H])[H]


 35 38  0  0  0  0  0  0  0  0999 V2000
  153.9471  138.5854  183.9642 C   0  0  0  0  0  0  0  0  0  0  0  0
  153.2721  137.5154  183.4260 C   0  0  0  0  0  0  0  0  0  0  0  0
  152.5478  137.6683  182.2628 C   0  0  0  0  0  0  0  0  0  0  0  0
  152.5112  138.8889  181.6578 C   0  0  0  0  0  0  0  0  0  0  0  0
  153.1982  139.9412  182.2205 C   0  0  0  0  0  0  0  0  0  0  0  0
  153.9307  139.8268  183.3795 C   0  0  0  0  0  0  0  0  0  0  0  0
  151.6815  139.1049  180.4235 C   0  0  0  0  0  0  0  0  0  0  0  0
  152.3714  139.5517  179.4734 O   0  0  0  0  0  0  0  0  0  0  0  0
  150.3280  138.8229  180.4250 N   0  0  0  0  0  0  0  0  0  0  0  0
  150.2421  139.2839  179.1365 H   0  0  0  0  0  0  0  0  0  0  0  0
  149.0124  138.5489  180.4264 C   0  0  0  0  0  0  0  0  0  0  0  0
  148.2064  139.5895  181.2969 C   0  0  0  0  0  0  0  0  0  0  0  0
  147.2878  138.4276  181.6351 C   0  0  0  0  0  0  0  0  0  0  0  0
  146.8420  138.5742  183.0108 N   0  0  0  0  0  0  0  0  0  0  0  0
  148.4709  137.5310  181.4439 C   0  0  0  0  0  0  0  0  0  0  0  0
  146.0646  137.8920  183.1530 H   0  0  0  0  0  0  0  0  0  0  0  0
  147.6385  138.3103  183.6381 H   0  0  0  0  0  0  0  0  0  0  0  0
  154.2812  137.5086  186.1732 C   0  0  0  0  0  0  0  0  0  0  0  0
  154.6737  138.3925  185.1536 O   0  0  0  0  0  0  0  0  0  0  0  0
  154.5565  140.9601  183.8950 N   0  0  0  0  0  0  0  0  0  0  0  0
  154.6823  140.9987  184.9495 H   0  0  0  0  0  0  0  0  0  0  0  0
  155.1501  142.2372  182.9435 S   0  0  0  0  0  0  0  0  0  0  0  0
  155.2640  143.3260  184.0329 O   0  0  0  0  0  0  0  0  0  0  0  0
  154.0864  142.9275  182.1249 O   0  0  0  0  0  0  0  0  0  0  0  0
  156.6947  142.1550  182.2460 C   0  0  0  0  0  0  0  0  0  0  0  0
  156.9170  142.5052  180.8888 C   0  0  0  0  0  0  0  0  0  0  0  0
  158.1284  142.5230  180.2763 C   0  0  0  0  0  0  0  0  0  0  0  0
  159.2340  142.1820  180.9957 C   0  0  0  0  0  0  0  0  0  0  0  0
  159.1057  141.8239  182.3284 C   0  0  0  0  0  0  0  0  0  0  0  0
  160.2714  141.4796  182.9954 C   0  0  0  0  0  0  0  0  0  0  0  0
  160.1796  141.1109  184.3108 C   0  0  0  0  0  0  0  0  0  0  0  0
  158.9528  141.0906  184.9231 C   0  0  0  0  0  0  0  0  0  0  0  0
  157.7960  141.4351  184.2490 C   0  0  0  0  0  0  0  0  0  0  0  0
  156.6045  141.3698  184.8515 F   0  0  0  0  0  0  0  0  0  0  0  0
  157.8508  141.8146  182.9277 C   0  0  0  0  0  0  0  0  0  0  0  0
 18 19  1  0  0  0
 19  1  1  0  0  0
  1  2  2  0  0  0
  2  3  1  0  0  0
  3  4  2  0  0  0
  4  5  1  0  0  0
  5  6  2  0  0  0
  6 20  1  0  0  0
 20 22  1  0  0  0
 22 23  2  0  0  0
 22 24  2  0  0  0
 22 25  1  0  0  0
 25 26  2  0  0  0
 26 27  1  0  0  0
 27 28  2  0  0  0
 28 29  1  0  0  0
 29 30  2  0  0  0
 30 31  1  0  0  0
 31 32  2  0  0  0
 32 33  1  0  0  0
 33 34  1  0  0  0
 33 35  2  0  0  0
  4  7  1  0  0  0
  7  8  2  0  0  0
  7  9  1  0  0  0
  9 11  1  0  0  0
 11 12  1  0  0  0
 12 13  1  0  0  0
 13 14  1  0  0  0
 13 15  1  0  0  0
  6  1  1  0  0  0
 35 25  1  0  0  0
 15 11  1  0  0  0
 35 29  1  0  0  0
 20 21  1  0  0  0
  9 10  1  0  0  0
 14 16  1  0  0  0
 14 17  1  0  0  0
M  END
> <minimizedAffinity>
-8.10853

> <CNNscore>
0.4475254118

> <CNNaffinity>
6.1409468651

> <CNN_VS>
2.7482297421

> <CNNaffinity_variance>
0.1150586382

$$$$
[H]c1c([H])c(C(=O)N([H])[C@]2([H])C([H])([H])[C@]([H])(N([H])[H])C2([H])[H])c([H])c(N([H])S(=O)(=O)c2c([H])c([H])c([H])c3c([H])c([H])c([H])c(F)c23)c1OC([H])([H])[H]


 35 38  0  0  0  0  0  0  0  0999 V2000
  155.0198  140.5942  182.9518 C   0  0  0  0  0  0  0  0  0  0  0  0
  153.7801  140.1226  182.5898 C   0  0  0  0  0  0  0  0  0  0  0  0
  153.3045  138.9446  183.1257 C   0  0  0  0  0  0  0  0  0  0  0  0
  154.0770  138.2587  184.0145 C   0  0  0  0  0  0  0  0  0  0  0  0
  155.3138  138.7569  184.3581 C   0  0  0  0  0  0  0  0  0  0  0  0
  155.8215  139.9279  183.8441 C   0  0  0  0  0  0  0  0  0  0  0  0
  153.6151  136.9407  184.5698 C   0  0  0  0  0  0  0  0  0  0  0  0
  153.3336  137.0253  185.7913 O   0  0  0  0  0  0  0  0  0  0  0  0
  153.5435  135.8210  183.7620 N   0  0  0  0  0  0  0  0  0  0  0  0
  153.1614  135.0760  184.8479 H   0  0  0  0  0  0  0  0  0  0  0  0
  153.4740  134.7325  182.9770 C   0  0  0  0  0  0  0  0  0  0  0  0
  154.9079  134.2558  182.5220 C   0  0  0  0  0  0  0  0  0  0  0  0
  154.2339  133.8280  181.2294 C   0  0  0  0  0  0  0  0  0  0  0  0
  155.1538  134.0598  180.1281 N   0  0  0  0  0  0  0  0  0  0  0  0
  153.2423  134.9231  181.4688 C   0  0  0  0  0  0  0  0  0  0  0  0
  154.7561  133.5763  179.2925 H   0  0  0  0  0  0  0  0  0  0  0  0
  155.1780  135.0900  179.9392 H   0  0  0  0  0  0  0  0  0  0  0  0
  155.1969  143.0678  182.9189 C   0  0  0  0  0  0  0  0  0  0  0  0
  155.4733  141.7985  182.3827 O   0  0  0  0  0  0  0  0  0  0  0  0
  157.1022  140.3284  184.2199 N   0  0  0  0  0  0  0  0  0  0  0  0
  157.2274  140.6473  185.2258 H   0  0  0  0  0  0  0  0  0  0  0  0
  158.4521  140.2976  183.1875 S   0  0  0  0  0  0  0  0  0  0  0  0
  158.1957  138.9466  182.4843 O   0  0  0  0  0  0  0  0  0  0  0  0
  159.7318  139.8898  183.8761 O   0  0  0  0  0  0  0  0  0  0  0  0
  158.6068  141.4229  181.9270 C   0  0  0  0  0  0  0  0  0  0  0  0
  158.3450  141.0684  180.5779 C   0  0  0  0  0  0  0  0  0  0  0  0
  158.3882  141.9236  179.5244 C   0  0  0  0  0  0  0  0  0  0  0  0
  158.7056  143.2292  179.7500 C   0  0  0  0  0  0  0  0  0  0  0  0
  158.9785  143.6595  181.0389 C   0  0  0  0  0  0  0  0  0  0  0  0
  159.3035  144.9985  181.1923 C   0  0  0  0  0  0  0  0  0  0  0  0
  159.5887  145.4550  182.4513 C   0  0  0  0  0  0  0  0  0  0  0  0
  159.5478  144.5858  183.5110 C   0  0  0  0  0  0  0  0  0  0  0  0
  159.2231  143.2520  183.3474 C   0  0  0  0  0  0  0  0  0  0  0  0
  159.2283  142.4112  184.3867 F   0  0  0  0  0  0  0  0  0  0  0  0
  158.9267  142.7591  182.0975 C   0  0  0  0  0  0  0  0  0  0  0  0
 18 19  1  0  0  0
 19  1  1  0  0  0
  1  2  2  0  0  0
  2  3  1  0  0  0
  3  4  2  0  0  0
  4  5  1  0  0  0
  5  6  2  0  0  0
  6 20  1  0  0  0
 20 22  1  0  0  0
 22 23  2  0  0  0
 22 24  2  0  0  0
 22 25  1  0  0  0
 25 26  2  0  0  0
 26 27  1  0  0  0
 27 28  2  0  0  0
 28 29  1  0  0  0
 29 30  2  0  0  0
 30 31  1  0  0  0
 31 32  2  0  0  0
 32 33  1  0  0  0
 33 34  1  0  0  0
 33 35  2  0  0  0
  4  7  1  0  0  0
  7  8  2  0  0  0
  7  9  1  0  0  0
  9 11  1  0  0  0
 11 12  1  0  0  0
 12 13  1  0  0  0
 13 14  1  0  0  0
 13 15  1  0  0  0
  6  1  1  0  0  0
 35 25  1  0  0  0
 15 11  1  0  0  0
 35 29  1  0  0  0
 20 21  1  0  0  0
  9 10  1  0  0  0
 14 16  1  0  0  0
 14 17  1  0  0  0
M  END
> <minimizedAffinity>
-8.60368

> <CNNscore>
0.3229105771

> <CNNaffinity>
6.1249151230

> <CNN_VS>
1.9777998924

> <CNNaffinity_variance>
0.1338348091

$$$$
[H]c1c([H])c(C(=O)N([H])[C@]2([H])C([H])([H])[C@]([H])(N([H])[H])C2([H])[H])c([H])c(N([H])S(=O)(=O)c2c([H])c([H])c([H])c3c([H])c([H])c([H])c(F)c23)c1OC([H])([H])[H]


 35 38  0  0  0  0  0  0  0  0999 V2000
  155.6079  139.0513  185.1606 C   0  0  0  0  0  0  0  0  0  0  0  0
  154.3078  138.6762  184.9173 C   0  0  0  0  0  0  0  0  0  0  0  0
  153.5930  139.2760  183.9022 C   0  0  0  0  0  0  0  0  0  0  0  0
  154.1910  140.2406  183.1478 C   0  0  0  0  0  0  0  0  0  0  0  0
  155.4946  140.5942  183.4151 C   0  0  0  0  0  0  0  0  0  0  0  0
  156.2387  140.0185  184.4192 C   0  0  0  0  0  0  0  0  0  0  0  0
  153.4210  140.9576  182.0746 C   0  0  0  0  0  0  0  0  0  0  0  0
  153.4980  142.2049  182.2034 O   0  0  0  0  0  0  0  0  0  0  0  0
  152.7360  140.2492  181.1049 N   0  0  0  0  0  0  0  0  0  0  0  0
  152.2726  141.4305  180.5853 H   0  0  0  0  0  0  0  0  0  0  0  0
  152.0701  139.5607  180.1623 C   0  0  0  0  0  0  0  0  0  0  0  0
  150.7213  140.2783  179.7674 C   0  0  0  0  0  0  0  0  0  0  0  0
  150.1666  138.8790  179.5609 C   0  0  0  0  0  0  0  0  0  0  0  0
  148.7726  138.8675  179.9725 N   0  0  0  0  0  0  0  0  0  0  0  0
  151.1389  138.4184  180.6013 C   0  0  0  0  0  0  0  0  0  0  0  0
  148.3631  137.9684  179.6349 H   0  0  0  0  0  0  0  0  0  0  0  0
  148.7452  138.8759  181.0198 H   0  0  0  0  0  0  0  0  0  0  0  0
  155.6825  137.6691  187.2184 C   0  0  0  0  0  0  0  0  0  0  0  0
  156.3055  138.4191  186.2063 O   0  0  0  0  0  0  0  0  0  0  0  0
  157.5369  140.4740  184.6407 N   0  0  0  0  0  0  0  0  0  0  0  0
  157.7496  140.8598  185.6078 H   0  0  0  0  0  0  0  0  0  0  0  0
  158.7799  140.4109  183.4832 S   0  0  0  0  0  0  0  0  0  0  0  0
  158.5188  138.9985  182.9158 O   0  0  0  0  0  0  0  0  0  0  0  0
  160.1379  140.1096  184.0691 O   0  0  0  0  0  0  0  0  0  0  0  0
  158.7594  141.4350  182.1306 C   0  0  0  0  0  0  0  0  0  0  0  0
  158.4020  140.9581  180.8426 C   0  0  0  0  0  0  0  0  0  0  0  0
  158.3041  141.7247  179.7265 C   0  0  0  0  0  0  0  0  0  0  0  0
  158.5642  143.0588  179.8203 C   0  0  0  0  0  0  0  0  0  0  0  0
  158.9231  143.6068  181.0417 C   0  0  0  0  0  0  0  0  0  0  0  0
  159.1826  144.9686  181.0607 C   0  0  0  0  0  0  0  0  0  0  0  0
  159.5497  145.5410  182.2491 C   0  0  0  0  0  0  0  0  0  0  0  0
  159.6512  144.7609  183.3723 C   0  0  0  0  0  0  0  0  0  0  0  0
  159.3908  143.4035  183.3428 C   0  0  0  0  0  0  0  0  0  0  0  0
  159.5347  142.6525  184.4392 F   0  0  0  0  0  0  0  0  0  0  0  0
  159.0156  142.7952  182.1671 C   0  0  0  0  0  0  0  0  0  0  0  0
 18 19  1  0  0  0
 19  1  1  0  0  0
  1  2  2  0  0  0
  2  3  1  0  0  0
  3  4  2  0  0  0
  4  5  1  0  0  0
  5  6  2  0  0  0
  6 20  1  0  0  0
 20 22  1  0  0  0
 22 23  2  0  0  0
 22 24  2  0  0  0
 22 25  1  0  0  0
 25 26  2  0  0  0
 26 27  1  0  0  0
 27 28  2  0  0  0
 28 29  1  0  0  0
 29 30  2  0  0  0
 30 31  1  0  0  0
 31 32  2  0  0  0
 32 33  1  0  0  0
 33 34  1  0  0  0
 33 35  2  0  0  0
  4  7  1  0  0  0
  7  8  2  0  0  0
  7  9  1  0  0  0
  9 11  1  0  0  0
 11 12  1  0  0  0
 12 13  1  0  0  0
 13 14  1  0  0  0
 13 15  1  0  0  0
  6  1  1  0  0  0
 35 25  1  0  0  0
 15 11  1  0  0  0
 35 29  1  0  0  0
 20 21  1  0  0  0
  9 10  1  0  0  0
 14 16  1  0  0  0
 14 17  1  0  0  0
M  END
> <minimizedAffinity>
-9.59007

> <CNNscore>
0.3134839833

> <CNNaffinity>
6.3150496483

> <CNN_VS>
1.9796669483

> <CNNaffinity_variance>
0.2038405836

$$$$
[H]c1c([H])c(C(=O)N([H])[C@]2([H])C([H])([H])[C@]([H])(N([H])[H])C2([H])[H])c([H])c(N([H])S(=O)(=O)c2c([H])c([H])c([H])c3c([H])c([H])c([H])c(F)c23)c1OC([H])([H])[H]


 35 38  0  0  0  0  0  0  0  0999 V2000
  154.6104  140.3826  183.5658 C   0  0  0  0  0  0  0  0  0  0  0  0
  153.9040  140.8914  182.5017 C   0  0  0  0  0  0  0  0  0  0  0  0
  152.8202  140.2038  181.9984 C   0  0  0  0  0  0  0  0  0  0  0  0
  152.4614  139.0190  182.5682 C   0  0  0  0  0  0  0  0  0  0  0  0
  153.1879  138.5356  183.6333 C   0  0  0  0  0  0  0  0  0  0  0  0
  154.2748  139.1931  184.1620 C   0  0  0  0  0  0  0  0  0  0  0  0
  151.3238  138.2141  182.0052 C   0  0  0  0  0  0  0  0  0  0  0  0
  151.3856  138.1372  180.7527 O   0  0  0  0  0  0  0  0  0  0  0  0
  150.3673  137.6652  182.8391 N   0  0  0  0  0  0  0  0  0  0  0  0
  149.6945  137.1966  181.7401 H   0  0  0  0  0  0  0  0  0  0  0  0
  149.4376  137.1317  183.6495 C   0  0  0  0  0  0  0  0  0  0  0  0
  148.2143  138.1088  183.8472 C   0  0  0  0  0  0  0  0  0  0  0  0
  148.1247  137.5341  185.2508 C   0  0  0  0  0  0  0  0  0  0  0  0
  147.7203  138.5931  186.1605 N   0  0  0  0  0  0  0  0  0  0  0  0
  149.6002  137.2968  185.1697 C   0  0  0  0  0  0  0  0  0  0  0  0
  147.4695  138.1374  187.0658 H   0  0  0  0  0  0  0  0  0  0  0  0
  148.5470  139.2173  186.3172 H   0  0  0  0  0  0  0  0  0  0  0  0
  156.2515  142.2349  183.4024 C   0  0  0  0  0  0  0  0  0  0  0  0
  155.7122  141.1109  184.0510 O   0  0  0  0  0  0  0  0  0  0  0  0
  154.9728  138.6024  185.2134 N   0  0  0  0  0  0  0  0  0  0  0  0
  155.9129  139.0303  185.4632 H   0  0  0  0  0  0  0  0  0  0  0  0
  154.3949  137.2871  186.1216 S   0  0  0  0  0  0  0  0  0  0  0  0
  154.3909  136.2065  185.0182 O   0  0  0  0  0  0  0  0  0  0  0  0
  152.9016  137.3116  186.3399 O   0  0  0  0  0  0  0  0  0  0  0  0
  155.3235  136.6245  187.3776 C   0  0  0  0  0  0  0  0  0  0  0  0
  156.1099  135.4588  187.1853 C   0  0  0  0  0  0  0  0  0  0  0  0
  156.9235  134.9040  188.1198 C   0  0  0  0  0  0  0  0  0  0  0  0
  157.0111  135.4900  189.3466 C   0  0  0  0  0  0  0  0  0  0  0  0
  156.2738  136.6314  189.6195 C   0  0  0  0  0  0  0  0  0  0  0  0
  156.4048  137.1676  190.8914 C   0  0  0  0  0  0  0  0  0  0  0  0
  155.6826  138.2898  191.1980 C   0  0  0  0  0  0  0  0  0  0  0  0
  154.8591  138.8433  190.2516 C   0  0  0  0  0  0  0  0  0  0  0  0
  154.7351  138.3005  188.9862 C   0  0  0  0  0  0  0  0  0  0  0  0
  153.8962  138.8307  188.0905 F   0  0  0  0  0  0  0  0  0  0  0  0
  155.4485  137.1757  188.6415 C   0  0  0  0  0  0  0  0  0  0  0  0
 18 19  1  0  0  0
 19  1  1  0  0  0
  1  2  2  0  0  0
  2  3  1  0  0  0
  3  4  2  0  0  0
  4  5  1  0  0  0
  5  6  2  0  0  0
  6 20  1  0  0  0
 20 22  1  0  0  0
 22 23  2  0  0  0
 22 24  2  0  0  0
 22 25  1  0  0  0
 25 26  2  0  0  0
 26 27  1  0  0  0
 27 28  2  0  0  0
 28 29  1  0  0  0
 29 30  2  0  0  0
 30 31  1  0  0  0
 31 32  2  0  0  0
 32 33  1  0  0  0
 33 34  1  0  0  0
 33 35  2  0  0  0
  4  7  1  0  0  0
  7  8  2  0  0  0
  7  9  1  0  0  0
  9 11  1  0  0  0
 11 12  1  0  0  0
 12 13  1  0  0  0
 13 14  1  0  0  0
 13 15  1  0  0  0
  6  1  1  0  0  0
 35 25  1  0  0  0
 15 11  1  0  0  0
 35 29  1  0  0  0
 20 21  1  0  0  0
  9 10  1  0  0  0
 14 16  1  0  0  0
 14 17  1  0  0  0
M  END
> <minimizedAffinity>
-7.69186

> <CNNscore>
0.3025440872

> <CNNaffinity>
5.6241207123

> <CNN_VS>
1.7015445232

> <CNNaffinity_variance>
0.0890410617

$$$$
[H]c1c([H])c(C(=O)N([H])[C@]2([H])C([H])([H])[C@]([H])(N([H])[H])C2([H])[H])c([H])c(N([H])S(=O)(=O)c2c([H])c([H])c([H])c3c([H])c([H])c([H])c(F)c23)c1OC([H])([H])[H]


 35 38  0  0  0  0  0  0  0  0999 V2000
  155.0918  140.3524  183.3716 C   0  0  0  0  0  0  0  0  0  0  0  0
  153.8933  139.6924  183.2357 C   0  0  0  0  0  0  0  0  0  0  0  0
  153.5706  138.6610  184.0917 C   0  0  0  0  0  0  0  0  0  0  0  0
  154.4521  138.3074  185.0691 C   0  0  0  0  0  0  0  0  0  0  0  0
  155.6440  138.9877  185.1805 C   0  0  0  0  0  0  0  0  0  0  0  0
  156.0004  140.0212  184.3450 C   0  0  0  0  0  0  0  0  0  0  0  0
  154.1587  137.1479  185.9792 C   0  0  0  0  0  0  0  0  0  0  0  0
  153.3018  136.3745  185.4832 O   0  0  0  0  0  0  0  0  0  0  0  0
  154.7985  137.0290  187.1990 N   0  0  0  0  0  0  0  0  0  0  0  0
  154.0564  135.9074  187.4661 H   0  0  0  0  0  0  0  0  0  0  0  0
  155.4202  136.9134  188.3848 C   0  0  0  0  0  0  0  0  0  0  0  0
  154.4209  137.1377  189.5853 C   0  0  0  0  0  0  0  0  0  0  0  0
  155.6061  137.7510  190.3118 C   0  0  0  0  0  0  0  0  0  0  0  0
  155.1280  138.8516  191.1322 N   0  0  0  0  0  0  0  0  0  0  0  0
  156.1339  138.1445  188.9678 C   0  0  0  0  0  0  0  0  0  0  0  0
  155.9116  139.1199  191.7679 H   0  0  0  0  0  0  0  0  0  0  0  0
  154.9188  139.6593  190.4986 H   0  0  0  0  0  0  0  0  0  0  0  0
  154.7854  142.6666  182.5340 C   0  0  0  0  0  0  0  0  0  0  0  0
  155.3882  141.3983  182.4782 O   0  0  0  0  0  0  0  0  0  0  0  0
  157.2478  140.6201  184.5096 N   0  0  0  0  0  0  0  0  0  0  0  0
  157.3939  141.1836  185.3986 H   0  0  0  0  0  0  0  0  0  0  0  0
  158.5314  140.4682  183.4059 S   0  0  0  0  0  0  0  0  0  0  0  0
  158.2048  139.0701  182.8367 O   0  0  0  0  0  0  0  0  0  0  0  0
  159.8419  140.0865  184.0503 O   0  0  0  0  0  0  0  0  0  0  0  0
  158.6325  141.4795  182.0473 C   0  0  0  0  0  0  0  0  0  0  0  0
  158.3332  141.0051  180.7436 C   0  0  0  0  0  0  0  0  0  0  0  0
  158.3327  141.7646  179.6183 C   0  0  0  0  0  0  0  0  0  0  0  0
  158.6405  143.0881  179.7182 C   0  0  0  0  0  0  0  0  0  0  0  0
  158.9482  143.6328  180.9550 C   0  0  0  0  0  0  0  0  0  0  0  0
  159.2609  144.9832  180.9798 C   0  0  0  0  0  0  0  0  0  0  0  0
  159.5796  145.5516  182.1841 C   0  0  0  0  0  0  0  0  0  0  0  0
  159.5827  144.7787  183.3167 C   0  0  0  0  0  0  0  0  0  0  0  0
  159.2699  143.4325  183.2812 C   0  0  0  0  0  0  0  0  0  0  0  0
  159.3181  142.6867  184.3895 F   0  0  0  0  0  0  0  0  0  0  0  0
  158.9408  142.8287  182.0896 C   0  0  0  0  0  0  0  0  0  0  0  0
 18 19  1  0  0  0
 19  1  1  0  0  0
  1  2  2  0  0  0
  2  3  1  0  0  0
  3  4  2  0  0  0
  4  5  1  0  0  0
  5  6  2  0  0  0
  6 20  1  0  0  0
 20 22  1  0  0  0
 22 23  2  0  0  0
 22 24  2  0  0  0
 22 25  1  0  0  0
 25 26  2  0  0  0
 26 27  1  0  0  0
 27 28  2  0  0  0
 28 29  1  0  0  0
 29 30  2  0  0  0
 30 31  1  0  0  0
 31 32  2  0  0  0
 32 33  1  0  0  0
 33 34  1  0  0  0
 33 35  2  0  0  0
  4  7  1  0  0  0
  7  8  2  0  0  0
  7  9  1  0  0  0
  9 11  1  0  0  0
 11 12  1  0  0  0
 12 13  1  0  0  0
 13 14  1  0  0  0
 13 15  1  0  0  0
  6  1  1  0  0  0
 35 25  1  0  0  0
 15 11  1  0  0  0
 35 29  1  0  0  0
 20 21  1  0  0  0
  9 10  1  0  0  0
 14 16  1  0  0  0
 14 17  1  0  0  0
M  END
> <minimizedAffinity>
-8.94045

> <CNNscore>
0.2926054895

> <CNNaffinity>
6.3069772720

> <CNN_VS>
1.8454561234

> <CNNaffinity_variance>
0.0740944669

$$$$
[H]c1c([H])c(C(=O)N([H])[C@]2([H])C([H])([H])[C@]([H])(N([H])[H])C2([H])[H])c([H])c(N([H])S(=O)(=O)c2c([H])c([H])c([H])c3c([H])c([H])c([H])c(F)c23)c1OC([H])([H])[H]


 35 38  0  0  0  0  0  0  0  0999 V2000
  155.1718  141.7509  183.1018 C   0  0  0  0  0  0  0  0  0  0  0  0
  153.9155  141.7973  182.5453 C   0  0  0  0  0  0  0  0  0  0  0  0
  153.1423  140.6573  182.4866 C   0  0  0  0  0  0  0  0  0  0  0  0
  153.6390  139.4904  182.9857 C   0  0  0  0  0  0  0  0  0  0  0  0
  154.9003  139.4759  183.5377 C   0  0  0  0  0  0  0  0  0  0  0  0
  155.7006  140.5926  183.6133 C   0  0  0  0  0  0  0  0  0  0  0  0
  152.8475  138.2171  182.8817 C   0  0  0  0  0  0  0  0  0  0  0  0
  153.5263  137.2194  183.2312 O   0  0  0  0  0  0  0  0  0  0  0  0
  151.5374  138.2347  182.4404 N   0  0  0  0  0  0  0  0  0  0  0  0
  151.5011  136.8669  182.5287 H   0  0  0  0  0  0  0  0  0  0  0  0
  150.2639  138.2518  182.0115 C   0  0  0  0  0  0  0  0  0  0  0  0
  150.0611  137.3042  180.7660 C   0  0  0  0  0  0  0  0  0  0  0  0
  149.0321  138.3205  180.3005 C   0  0  0  0  0  0  0  0  0  0  0  0
  149.0911  138.4091  178.8508 N   0  0  0  0  0  0  0  0  0  0  0  0
  149.8290  139.3546  181.0321 C   0  0  0  0  0  0  0  0  0  0  0  0
  148.2513  138.9487  178.5446 H   0  0  0  0  0  0  0  0  0  0  0  0
  149.9498  138.9521  178.5953 H   0  0  0  0  0  0  0  0  0  0  0  0
  155.7118  144.0335  182.2959 C   0  0  0  0  0  0  0  0  0  0  0  0
  155.9331  142.9336  183.1422 O   0  0  0  0  0  0  0  0  0  0  0  0
  156.9801  140.4686  184.1510 N   0  0  0  0  0  0  0  0  0  0  0  0
  157.0471  140.3639  185.2063 H   0  0  0  0  0  0  0  0  0  0  0  0
  158.4047  140.4379  183.2244 S   0  0  0  0  0  0  0  0  0  0  0  0
  158.2458  139.0475  182.5712 O   0  0  0  0  0  0  0  0  0  0  0  0
  159.6409  140.1084  184.0253 O   0  0  0  0  0  0  0  0  0  0  0  0
  158.6184  141.5082  181.9252 C   0  0  0  0  0  0  0  0  0  0  0  0
  158.3706  141.1100  180.5857 C   0  0  0  0  0  0  0  0  0  0  0  0
  158.4605  141.9220  179.5014 C   0  0  0  0  0  0  0  0  0  0  0  0
  158.8149  143.2249  179.6833 C   0  0  0  0  0  0  0  0  0  0  0  0
  159.0775  143.6961  180.9600 C   0  0  0  0  0  0  0  0  0  0  0  0
  159.4419  145.0293  181.0687 C   0  0  0  0  0  0  0  0  0  0  0  0
  159.7181  145.5252  182.3147 C   0  0  0  0  0  0  0  0  0  0  0  0
  159.6299  144.6993  183.4057 C   0  0  0  0  0  0  0  0  0  0  0  0
  159.2661  143.3709  183.2867 C   0  0  0  0  0  0  0  0  0  0  0  0
  159.2253  142.5713  184.3572 F   0  0  0  0  0  0  0  0  0  0  0  0
  158.9775  142.8394  182.0509 C   0  0  0  0  0  0  0  0  0  0  0  0
 18 19  1  0  0  0
 19  1  1  0  0  0
  1  2  2  0  0  0
  2  3  1  0  0  0
  3  4  2  0  0  0
  4  5  1  0  0  0
  5  6  2  0  0  0
  6 20  1  0  0  0
 20 22  1  0  0  0
 22 23  2  0  0  0
 22 24  2  0  0  0
 22 25  1  0  0  0
 25 26  2  0  0  0
 26 27  1  0  0  0
 27 28  2  0  0  0
 28 29  1  0  0  0
 29 30  2  0  0  0
 30 31  1  0  0  0
 31 32  2  0  0  0
 32 33  1  0  0  0
 33 34  1  0  0  0
 33 35  2  0  0  0
  4  7  1  0  0  0
  7  8  2  0  0  0
  7  9  1  0  0  0
  9 11  1  0  0  0
 11 12  1  0  0  0
 12 13  1  0  0  0
 13 14  1  0  0  0
 13 15  1  0  0  0
  6  1  1  0  0  0
 35 25  1  0  0  0
 15 11  1  0  0  0
 35 29  1  0  0  0
 20 21  1  0  0  0
  9 10  1  0  0  0
 14 16  1  0  0  0
 14 17  1  0  0  0
M  END
> <minimizedAffinity>
-9.04419

> <CNNscore>
0.2848539650

> <CNNaffinity>
6.2702903748

> <CNN_VS>
1.7861170769

> <CNNaffinity_variance>
0.1375430971

$$$$
[H]c1c([H])c(C(=O)N([H])[C@]2([H])C([H])([H])[C@]([H])(N([H])[H])C2([H])[H])c([H])c(N([H])S(=O)(=O)c2c([H])c([H])c([H])c3c([H])c([H])c([H])c(F)c23)c1OC([H])([H])[H]


 35 38  0  0  0  0  0  0  0  0999 V2000
  155.1320  141.7727  183.1040 C   0  0  0  0  0  0  0  0  0  0  0  0
  153.8829  141.7622  182.5297 C   0  0  0  0  0  0  0  0  0  0  0  0
  153.1490  140.5956  182.4909 C   0  0  0  0  0  0  0  0  0  0  0  0
  153.6772  139.4596  183.0274 C   0  0  0  0  0  0  0  0  0  0  0  0
  154.9303  139.5019  183.5963 C   0  0  0  0  0  0  0  0  0  0  0  0
  155.6918  140.6466  183.6530 C   0  0  0  0  0  0  0  0  0  0  0  0
  152.9302  138.1580  182.9467 C   0  0  0  0  0  0  0  0  0  0  0  0
  152.5309  137.9242  181.7786 O   0  0  0  0  0  0  0  0  0  0  0  0
  152.7480  137.3781  184.0736 N   0  0  0  0  0  0  0  0  0  0  0  0
  152.0065  136.4965  183.3298 H   0  0  0  0  0  0  0  0  0  0  0  0
  152.5708  136.6199  185.1689 C   0  0  0  0  0  0  0  0  0  0  0  0
  152.3689  137.5065  186.4587 C   0  0  0  0  0  0  0  0  0  0  0  0
  153.0916  136.3949  187.2007 C   0  0  0  0  0  0  0  0  0  0  0  0
  153.9090  136.9898  188.2451 N   0  0  0  0  0  0  0  0  0  0  0  0
  153.8104  136.1061  185.9201 C   0  0  0  0  0  0  0  0  0  0  0  0
  154.2287  136.2106  188.8621 H   0  0  0  0  0  0  0  0  0  0  0  0
  154.7476  137.4234  187.7910 H   0  0  0  0  0  0  0  0  0  0  0  0
  155.6292  144.0374  182.2237 C   0  0  0  0  0  0  0  0  0  0  0  0
  155.8528  142.9810  183.1232 O   0  0  0  0  0  0  0  0  0  0  0  0
  156.9670  140.5798  184.2108 N   0  0  0  0  0  0  0  0  0  0  0  0
  157.0234  140.5383  185.2711 H   0  0  0  0  0  0  0  0  0  0  0  0
  158.4028  140.5237  183.3030 S   0  0  0  0  0  0  0  0  0  0  0  0
  158.2666  139.1037  182.7110 O   0  0  0  0  0  0  0  0  0  0  0  0
  159.6327  140.2441  184.1320 O   0  0  0  0  0  0  0  0  0  0  0  0
  158.6207  141.5371  181.9597 C   0  0  0  0  0  0  0  0  0  0  0  0
  158.3931  141.0768  180.6366 C   0  0  0  0  0  0  0  0  0  0  0  0
  158.4874  141.8404  179.5181 C   0  0  0  0  0  0  0  0  0  0  0  0
  158.8259  143.1540  179.6454 C   0  0  0  0  0  0  0  0  0  0  0  0
  159.0681  143.6846  180.9026 C   0  0  0  0  0  0  0  0  0  0  0  0
  159.4172  145.0253  180.9556 C   0  0  0  0  0  0  0  0  0  0  0  0
  159.6732  145.5794  182.1812 C   0  0  0  0  0  0  0  0  0  0  0  0
  159.5807  144.8022  183.3071 C   0  0  0  0  0  0  0  0  0  0  0  0
  159.2325  143.4659  183.2436 C   0  0  0  0  0  0  0  0  0  0  0  0
  159.1873  142.7145  184.3484 F   0  0  0  0  0  0  0  0  0  0  0  0
  158.9642  142.8765  182.0297 C   0  0  0  0  0  0  0  0  0  0  0  0
 18 19  1  0  0  0
 19  1  1  0  0  0
  1  2  2  0  0  0
  2  3  1  0  0  0
  3  4  2  0  0  0
  4  5  1  0  0  0
  5  6  2  0  0  0
  6 20  1  0  0  0
 20 22  1  0  0  0
 22 23  2  0  0  0
 22 24  2  0  0  0
 22 25  1  0  0  0
 25 26  2  0  0  0
 26 27  1  0  0  0
 27 28  2  0  0  0
 28 29  1  0  0  0
 29 30  2  0  0  0
 30 31  1  0  0  0
 31 32  2  0  0  0
 32 33  1  0  0  0
 33 34  1  0  0  0
 33 35  2  0  0  0
  4  7  1  0  0  0
  7  8  2  0  0  0
  7  9  1  0  0  0
  9 11  1  0  0  0
 11 12  1  0  0  0
 12 13  1  0  0  0
 13 14  1  0  0  0
 13 15  1  0  0  0
  6  1  1  0  0  0
 35 25  1  0  0  0
 15 11  1  0  0  0
 35 29  1  0  0  0
 20 21  1  0  0  0
  9 10  1  0  0  0
 14 16  1  0  0  0
 14 17  1  0  0  0
M  END
> <minimizedAffinity>
-8.49723

> <CNNscore>
0.2829552889

> <CNNaffinity>
6.3034343719

> <CNN_VS>
1.7835900784

> <CNNaffinity_variance>
0.0842745826

$$$$
[H]c1c([H])c(C(=O)N([H])[C@]2([H])C([H])([H])[C@]([H])(N([H])[H])C2([H])[H])c([H])c(N([H])S(=O)(=O)c2c([H])c([H])c([H])c3c([H])c([H])c([H])c(F)c23)c1OC([H])([H])[H]


 35 38  0  0  0  0  0  0  0  0999 V2000
  152.3350  138.9825  181.7082 C   0  0  0  0  0  0  0  0  0  0  0  0
  151.1291  138.3418  181.8684 C   0  0  0  0  0  0  0  0  0  0  0  0
  150.8958  137.5770  182.9916 C   0  0  0  0  0  0  0  0  0  0  0  0
  151.8727  137.4663  183.9354 C   0  0  0  0  0  0  0  0  0  0  0  0
  153.0695  138.1204  183.7471 C   0  0  0  0  0  0  0  0  0  0  0  0
  153.3385  138.8916  182.6397 C   0  0  0  0  0  0  0  0  0  0  0  0
  151.6741  136.5912  185.1410 C   0  0  0  0  0  0  0  0  0  0  0  0
  151.2418  135.4552  184.8233 O   0  0  0  0  0  0  0  0  0  0  0  0
  151.9550  137.0636  186.4097 N   0  0  0  0  0  0  0  0  0  0  0  0
  151.5130  135.8776  186.9369 H   0  0  0  0  0  0  0  0  0  0  0  0
  152.2280  137.5227  187.6428 C   0  0  0  0  0  0  0  0  0  0  0  0
  153.7496  137.9144  187.7897 C   0  0  0  0  0  0  0  0  0  0  0  0
  153.6151  137.4513  189.2305 C   0  0  0  0  0  0  0  0  0  0  0  0
  154.8617  136.8218  189.6334 N   0  0  0  0  0  0  0  0  0  0  0  0
  152.5545  136.5096  188.7527 C   0  0  0  0  0  0  0  0  0  0  0  0
  154.8197  136.6994  190.6695 H   0  0  0  0  0  0  0  0  0  0  0  0
  154.9050  135.8757  189.1857 H   0  0  0  0  0  0  0  0  0  0  0  0
  151.6056  139.8469  179.5010 C   0  0  0  0  0  0  0  0  0  0  0  0
  152.5383  139.7522  180.5480 O   0  0  0  0  0  0  0  0  0  0  0  0
  154.5960  139.4795  182.5182 N   0  0  0  0  0  0  0  0  0  0  0  0
  155.1914  139.1686  181.6948 H   0  0  0  0  0  0  0  0  0  0  0  0
  155.1981  140.6691  183.5723 S   0  0  0  0  0  0  0  0  0  0  0  0
  154.8735  139.9918  184.9218 O   0  0  0  0  0  0  0  0  0  0  0  0
  154.2717  141.8478  183.7475 O   0  0  0  0  0  0  0  0  0  0  0  0
  156.8594  141.0066  183.6422 C   0  0  0  0  0  0  0  0  0  0  0  0
  157.6374  140.6776  184.7827 C   0  0  0  0  0  0  0  0  0  0  0  0
  158.9783  140.8602  184.8913 C   0  0  0  0  0  0  0  0  0  0  0  0
  159.6556  141.4000  183.8396 C   0  0  0  0  0  0  0  0  0  0  0  0
  158.9714  141.7526  182.6870 C   0  0  0  0  0  0  0  0  0  0  0  0
  159.7231  142.3052  181.6614 C   0  0  0  0  0  0  0  0  0  0  0  0
  159.0771  142.6743  180.5120 C   0  0  0  0  0  0  0  0  0  0  0  0
  157.7220  142.4915  180.4097 C   0  0  0  0  0  0  0  0  0  0  0  0
  156.9812  141.9401  181.4385 C   0  0  0  0  0  0  0  0  0  0  0  0
  155.6549  141.8076  181.3356 F   0  0  0  0  0  0  0  0  0  0  0  0
  157.5973  141.5539  182.6064 C   0  0  0  0  0  0  0  0  0  0  0  0
 18 19  1  0  0  0
 19  1  1  0  0  0
  1  2  2  0  0  0
  2  3  1  0  0  0
  3  4  2  0  0  0
  4  5  1  0  0  0
  5  6  2  0  0  0
  6 20  1  0  0  0
 20 22  1  0  0  0
 22 23  2  0  0  0
 22 24  2  0  0  0
 22 25  1  0  0  0
 25 26  2  0  0  0
 26 27  1  0  0  0
 27 28  2  0  0  0
 28 29  1  0  0  0
 29 30  2  0  0  0
 30 31  1  0  0  0
 31 32  2  0  0  0
 32 33  1  0  0  0
 33 34  1  0  0  0
 33 35  2  0  0  0
  4  7  1  0  0  0
  7  8  2  0  0  0
  7  9  1  0  0  0
  9 11  1  0  0  0
 11 12  1  0  0  0
 12 13  1  0  0  0
 13 14  1  0  0  0
 13 15  1  0  0  0
  6  1  1  0  0  0
 35 25  1  0  0  0
 15 11  1  0  0  0
 35 29  1  0  0  0
 20 21  1  0  0  0
  9 10  1  0  0  0
 14 16  1  0  0  0
 14 17  1  0  0  0
M  END
> <minimizedAffinity>
-7.31193

> <CNNscore>
0.2363565117

> <CNNaffinity>
5.9883561134

> <CNN_VS>
1.4153869152

> <CNNaffinity_variance>
0.1080610007

$$$$
[H]c1c([H])c(C(=O)N([H])[C@]2([H])C([H])([H])[C@]([H])(N([H])[H])C2([H])[H])c([H])c(N([H])S(=O)(=O)c2c([H])c([H])c([H])c3c([H])c([H])c([H])c(F)c23)c1OC([H])([H])[H]


 35 38  0  0  0  0  0  0  0  0999 V2000
  153.3419  138.5057  183.5464 C   0  0  0  0  0  0  0  0  0  0  0  0
  153.0409  139.4149  182.5601 C   0  0  0  0  0  0  0  0  0  0  0  0
  153.7196  140.6133  182.4932 C   0  0  0  0  0  0  0  0  0  0  0  0
  154.6878  140.8814  183.4141 C   0  0  0  0  0  0  0  0  0  0  0  0
  154.9671  139.9505  184.3894 C   0  0  0  0  0  0  0  0  0  0  0  0
  154.3111  138.7451  184.4879 C   0  0  0  0  0  0  0  0  0  0  0  0
  155.4032  142.2031  183.4072 C   0  0  0  0  0  0  0  0  0  0  0  0
  154.7287  143.0985  183.9743 O   0  0  0  0  0  0  0  0  0  0  0  0
  156.6491  142.3279  182.8208 N   0  0  0  0  0  0  0  0  0  0  0  0
  156.6351  143.6696  183.1033 H   0  0  0  0  0  0  0  0  0  0  0  0
  157.8600  142.4493  182.2509 C   0  0  0  0  0  0  0  0  0  0  0  0
  157.7958  143.3233  180.9385 C   0  0  0  0  0  0  0  0  0  0  0  0
  158.9020  142.4219  180.4169 C   0  0  0  0  0  0  0  0  0  0  0  0
  158.7035  142.2221  178.9910 N   0  0  0  0  0  0  0  0  0  0  0  0
  158.3392  141.3464  181.2924 C   0  0  0  0  0  0  0  0  0  0  0  0
  159.5735  141.7782  178.6219 H   0  0  0  0  0  0  0  0  0  0  0  0
  157.9071  141.5529  178.8665 H   0  0  0  0  0  0  0  0  0  0  0  0
  151.2322  137.2160  183.7386 C   0  0  0  0  0  0  0  0  0  0  0  0
  152.6269  137.2944  183.5849 O   0  0  0  0  0  0  0  0  0  0  0  0
  154.6347  137.8863  185.5365 N   0  0  0  0  0  0  0  0  0  0  0  0
  155.3868  137.1604  185.3450 H   0  0  0  0  0  0  0  0  0  0  0  0
  153.9326  137.9625  187.0824 S   0  0  0  0  0  0  0  0  0  0  0  0
  153.0101  136.7268  186.9971 O   0  0  0  0  0  0  0  0  0  0  0  0
  152.8313  138.9883  187.1973 O   0  0  0  0  0  0  0  0  0  0  0  0
  154.8695  137.7119  188.4747 C   0  0  0  0  0  0  0  0  0  0  0  0
  154.7683  138.5674  189.6026 C   0  0  0  0  0  0  0  0  0  0  0  0
  155.4374  138.3989  190.7718 C   0  0  0  0  0  0  0  0  0  0  0  0
  156.2789  137.3351  190.9003 C   0  0  0  0  0  0  0  0  0  0  0  0
  156.4385  136.4511  189.8450 C   0  0  0  0  0  0  0  0  0  0  0  0
  157.3179  135.3976  190.0431 C   0  0  0  0  0  0  0  0  0  0  0  0
  157.5070  134.5108  189.0171 C   0  0  0  0  0  0  0  0  0  0  0  0
  156.8318  134.6885  187.8369 C   0  0  0  0  0  0  0  0  0  0  0  0
  155.9574  135.7427  187.6491 C   0  0  0  0  0  0  0  0  0  0  0  0
  155.3395  135.9222  186.4774 F   0  0  0  0  0  0  0  0  0  0  0  0
  155.7396  136.6509  188.6594 C   0  0  0  0  0  0  0  0  0  0  0  0
 18 19  1  0  0  0
 19  1  1  0  0  0
  1  2  2  0  0  0
  2  3  1  0  0  0
  3  4  2  0  0  0
  4  5  1  0  0  0
  5  6  2  0  0  0
  6 20  1  0  0  0
 20 22  1  0  0  0
 22 23  2  0  0  0
 22 24  2  0  0  0
 22 25  1  0  0  0
 25 26  2  0  0  0
 26 27  1  0  0  0
 27 28  2  0  0  0
 28 29  1  0  0  0
 29 30  2  0  0  0
 30 31  1  0  0  0
 31 32  2  0  0  0
 32 33  1  0  0  0
 33 34  1  0  0  0
 33 35  2  0  0  0
  4  7  1  0  0  0
  7  8  2  0  0  0
  7  9  1  0  0  0
  9 11  1  0  0  0
 11 12  1  0  0  0
 12 13  1  0  0  0
 13 14  1  0  0  0
 13 15  1  0  0  0
  6  1  1  0  0  0
 35 25  1  0  0  0
 15 11  1  0  0  0
 35 29  1  0  0  0
 20 21  1  0  0  0
  9 10  1  0  0  0
 14 16  1  0  0  0
 14 17  1  0  0  0
M  END
> <minimizedAffinity>
-8.54655

> <CNNscore>
0.2286920249

> <CNNaffinity>
5.8370728493

> <CNN_VS>
1.3348920345

> <CNNaffinity_variance>
0.1292465627

$$$$
